1
     RDKit          3D

 43 45  0  0  0  0  0  0  0  0999 V2000
   21.5150   74.8375   -5.0397 P   0  0  2  0  0  0  0  0  0  0  0  0
   20.6962   76.1807   -4.6598 O   0  0  0  0  0  0  0  0  0  0  0  0
   22.7660   75.0624   -5.8373 O   0  0  0  0  0  0  0  0  0  0  0  0
   20.4028   73.8868   -5.7305 O   0  0  0  0  0  0  0  0  0  0  0  0
   20.8250   72.6716   -6.3216 C   0  0  0  0  0  0  0  0  0  0  0  0
   19.3763   70.9867   -7.2380 O   0  0  0  0  0  0  0  0  0  0  0  0
   18.1552   73.1875   -8.8680 O   0  0  0  0  0  0  0  0  0  0  0  0
   16.3497   72.8689   -6.8494 O   0  0  0  0  0  0  0  0  0  0  0  0
   18.6563   73.2242   -7.5315 C   0  0  1  0  0  0  0  0  0  0  0  0
   17.6955   72.5266   -6.5922 C   0  0  2  0  0  0  0  0  0  0  0  0
   19.8802   72.3210   -7.4639 C   0  0  1  0  0  0  0  0  0  0  0  0
   17.9898   71.0623   -6.8701 C   0  0  2  0  0  0  0  0  0  0  0  0
   17.3726   73.7573   -8.9359 H   0  0  0  0  0  0  0  0  0  0  0  0
   16.2131   73.8104   -6.6571 H   0  0  0  0  0  0  0  0  0  0  0  0
   15.6515   69.5388   -6.4368 O   0  0  0  0  0  0  0  0  0  0  0  0
   17.2375   67.9078   -2.4282 O   0  0  0  0  0  0  0  0  0  0  0  0
   17.7654   70.2307   -5.7217 N   0  0  0  0  0  0  0  0  0  0  0  0
   16.4432   68.7287   -4.4402 N   0  0  0  0  0  0  0  0  0  0  0  0
   16.5560   69.5064   -5.6002 C   0  0  0  0  0  0  0  0  0  0  0  0
   18.7369   70.1372   -4.7326 C   0  0  0  0  0  0  0  0  0  0  0  0
   18.6152   69.3916   -3.6326 C   0  0  0  0  0  0  0  0  0  0  0  0
   17.3815   68.6043   -3.4284 C   0  0  0  0  0  0  0  0  0  0  0  0
   15.6090   68.2170   -4.3324 H   0  0  0  0  0  0  0  0  0  0  0  0
   21.7498   74.1368   -3.6022 O   0  0  0  0  0  0  0  0  0  0  0  0
   23.0354   73.3687   -2.9931 P   0  0  2  0  0  0  0  0  0  0  0  0
   23.7921   74.5252   -2.1503 O   0  0  0  0  0  0  0  0  0  0  0  0
   23.8933   72.6920   -4.0227 O   0  0  0  0  0  0  0  0  0  0  0  0
   22.4283   72.3795   -1.8726 O   0  0  0  0  0  0  0  0  0  0  0  0
   23.6410   71.9687    0.1198 O   0  0  0  0  0  0  0  0  0  0  0  0
   20.9502   68.8338    0.1119 O   0  0  0  0  0  0  0  0  0  0  0  0
   22.2870   69.6441   -2.3560 O   0  0  0  0  0  0  0  0  0  0  0  0
   20.5496   71.0962    1.8930 O   0  0  0  0  0  0  0  0  0  0  0  0
   21.4070   70.1598   -0.1548 C   0  0  2  0  0  0  0  0  0  0  0  0
   22.6401   70.1046   -1.0568 C   0  0  2  0  0  0  0  0  0  0  0  0
   21.7546   70.8181    1.1823 C   0  0  1  0  0  0  0  0  0  0  0  0
   23.2922   71.4827   -1.1770 C   0  0  1  0  0  0  0  0  0  0  0  0
   22.5137   72.1260    0.9786 C   0  0  1  0  0  0  0  0  0  0  0  0
   20.7234   68.3956   -0.7235 H   0  0  0  0  0  0  0  0  0  0  0  0
   21.8724   68.7702   -2.2873 H   0  0  0  0  0  0  0  0  0  0  0  0
   20.0569   70.2718    2.0290 H   0  0  0  0  0  0  0  0  0  0  0  0
   24.0459   73.5592    2.0273 O   0  0  0  0  0  0  0  0  0  0  0  0
   22.8500   72.1548    3.3676 O   0  0  0  0  0  0  0  0  0  0  0  0
   23.1295   72.5870    2.2595 C   0  0  0  0  0  0  0  0  0  0  0  0
  1  4  1  0
  1 24  1  0
  1  2  1  1
  1  3  2  0
 25 28  1  0
 25 24  1  0
 25 26  1  1
 25 27  2  0
  6 11  1  0
  6 12  1  0
 29 36  1  0
 29 37  1  0
  9  7  1  6
  7 13  1  0
 10  8  1  6
  8 14  1  0
  4  5  1  0
 36 28  1  1
 33 30  1  1
 30 38  1  0
 34 31  1  6
 31 39  1  0
 35 32  1  6
 32 40  1  0
 41 43  1  0
 15 19  2  0
 42 43  2  0
 16 22  2  0
 12 17  1  1
 17 19  1  0
 17 20  1  0
 18 19  1  0
 18 22  1  0
 18 23  1  0
  9 10  1  0
  9 11  1  0
 10 12  1  0
 11  5  1  1
 33 34  1  0
 33 35  1  0
 34 36  1  0
 35 37  1  0
 37 43  1  1
 20 21  2  0
 21 22  1  0
M  CHG  3   2  -1  26  -1  41  -1
M  END
>  <COMPND>  (1) 
    udp_gluA.pdb 

>  <AUTHOR>  (1) 
    GENERATED BY OPEN BABEL 3.1.1

>  <MASTER>  (1) 
        0    0    0    0    0    0    0    0   56    0   56    0

>  <minimizedAffinity>  (1) 
-7.73289

>  <CNNscore>  (1) 
0.7575004101

>  <CNNaffinity>  (1) 
4.5070862770

>  <CNN_VS>  (1) 
3.4141197205

>  <CNNaffinity_variance>  (1) 
0.2072840184

$$$$
2
     RDKit          3D

 43 45  0  0  0  0  0  0  0  0999 V2000
   22.4638   70.4999   -2.2368 P   0  0  2  0  0  0  0  0  0  0  0  0
   23.4256   69.3740   -2.8896 O   0  0  0  0  0  0  0  0  0  0  0  0
   23.0246   71.1884   -1.0272 O   0  0  0  0  0  0  0  0  0  0  0  0
   21.0575   69.7302   -2.0183 O   0  0  0  0  0  0  0  0  0  0  0  0
   20.2546   69.4542   -3.1513 C   0  0  0  0  0  0  0  0  0  0  0  0
   18.7653   71.1010   -4.0720 O   0  0  0  0  0  0  0  0  0  0  0  0
   16.6192   69.8129   -2.4208 O   0  0  0  0  0  0  0  0  0  0  0  0
   16.1522   68.7922   -4.9060 O   0  0  0  0  0  0  0  0  0  0  0  0
   17.7227   69.2105   -3.0974 C   0  0  1  0  0  0  0  0  0  0  0  0
   17.4716   69.1850   -4.5903 C   0  0  2  0  0  0  0  0  0  0  0  0
   18.9119   70.1554   -2.9905 C   0  0  1  0  0  0  0  0  0  0  0  0
   17.7636   70.6229   -4.9838 C   0  0  2  0  0  0  0  0  0  0  0  0
   15.8473   69.2274   -2.4755 H   0  0  0  0  0  0  0  0  0  0  0  0
   16.0162   67.8698   -4.6363 H   0  0  0  0  0  0  0  0  0  0  0  0
   16.1364   70.6697   -7.2917 O   0  0  0  0  0  0  0  0  0  0  0  0
   19.7866   71.0497  -10.0802 O   0  0  0  0  0  0  0  0  0  0  0  0
   18.2625   70.7334   -6.3254 N   0  0  0  0  0  0  0  0  0  0  0  0
   17.9560   70.8579   -8.6784 N   0  0  0  0  0  0  0  0  0  0  0  0
   17.3602   70.7475   -7.4151 C   0  0  0  0  0  0  0  0  0  0  0  0
   19.6304   70.8278   -6.5510 C   0  0  0  0  0  0  0  0  0  0  0  0
   20.1835   70.9326   -7.7610 C   0  0  0  0  0  0  0  0  0  0  0  0
   19.3106   70.9538   -8.9530 C   0  0  0  0  0  0  0  0  0  0  0  0
   17.3480   70.8678   -9.4527 H   0  0  0  0  0  0  0  0  0  0  0  0
   22.1522   71.4788   -3.4848 O   0  0  0  0  0  0  0  0  0  0  0  0
   22.5024   73.0390   -3.7233 P   0  0  2  0  0  0  0  0  0  0  0  0
   24.0183   72.9954   -4.2893 O   0  0  0  0  0  0  0  0  0  0  0  0
   22.3202   73.9035   -2.5095 O   0  0  0  0  0  0  0  0  0  0  0  0
   21.6059   73.4703   -4.9932 O   0  0  0  0  0  0  0  0  0  0  0  0
   22.1227   75.7035   -5.5886 O   0  0  0  0  0  0  0  0  0  0  0  0
   19.1439   74.7791   -8.2979 O   0  0  0  0  0  0  0  0  0  0  0  0
   18.9148   73.9517   -5.5055 O   0  0  0  0  0  0  0  0  0  0  0  0
   21.9207   74.8633   -9.1545 O   0  0  0  0  0  0  0  0  0  0  0  0
   20.2583   74.5146   -7.4457 C   0  0  2  0  0  0  0  0  0  0  0  0
   19.8917   74.8594   -6.0020 C   0  0  2  0  0  0  0  0  0  0  0  0
   21.4302   75.3780   -7.9180 C   0  0  1  0  0  0  0  0  0  0  0  0
   21.1239   74.8087   -5.0976 C   0  0  1  0  0  0  0  0  0  0  0  0
   22.5691   75.3750   -6.9024 C   0  0  1  0  0  0  0  0  0  0  0  0
   18.3869   74.2414   -8.0168 H   0  0  0  0  0  0  0  0  0  0  0  0
   18.1302   73.9785   -6.0748 H   0  0  0  0  0  0  0  0  0  0  0  0
   21.2054   74.8596   -9.8096 H   0  0  0  0  0  0  0  0  0  0  0  0
   22.9850   77.4163   -7.9802 O   0  0  0  0  0  0  0  0  0  0  0  0
   24.7070   76.4895   -6.8076 O   0  0  0  0  0  0  0  0  0  0  0  0
   23.5515   76.4596   -7.2039 C   0  0  0  0  0  0  0  0  0  0  0  0
  1  4  1  0
  1 24  1  0
  1  2  1  6
  1  3  2  0
 25 28  1  0
 25 24  1  0
 25 26  1  6
 25 27  2  0
  6 11  1  0
  6 12  1  0
 29 36  1  0
 29 37  1  0
  9  7  1  1
  7 13  1  0
 10  8  1  1
  8 14  1  0
  4  5  1  0
 36 28  1  6
 33 30  1  6
 30 38  1  0
 34 31  1  1
 31 39  1  0
 35 32  1  6
 32 40  1  0
 41 43  1  0
 15 19  2  0
 42 43  2  0
 16 22  2  0
 12 17  1  6
 17 19  1  0
 17 20  1  0
 18 19  1  0
 18 22  1  0
 18 23  1  0
  9 10  1  0
  9 11  1  0
 10 12  1  0
 11  5  1  6
 33 34  1  0
 33 35  1  0
 34 36  1  0
 35 37  1  0
 37 43  1  6
 20 21  2  0
 21 22  1  0
M  CHG  3   2  -1  26  -1  41  -1
M  END
>  <COMPND>  (2) 
    udp_gluA.pdb 

>  <AUTHOR>  (2) 
    GENERATED BY OPEN BABEL 3.1.1

>  <MASTER>  (2) 
        0    0    0    0    0    0    0    0   56    0   56    0

>  <minimizedAffinity>  (2) 
-6.85204

>  <CNNscore>  (2) 
0.7094037533

>  <CNNaffinity>  (2) 
4.3416337967

>  <CNN_VS>  (2) 
3.0799713135

>  <CNNaffinity_variance>  (2) 
0.3160915971

$$$$
3
     RDKit          3D

 43 45  0  0  0  0  0  0  0  0999 V2000
   21.7279   70.7056   -2.6578 P   0  0  2  0  0  0  0  0  0  0  0  0
   22.5979   71.9658   -3.1810 O   0  0  0  0  0  0  0  0  0  0  0  0
   22.3578   69.3627   -2.8851 O   0  0  0  0  0  0  0  0  0  0  0  0
   20.2770   70.9254   -3.3394 O   0  0  0  0  0  0  0  0  0  0  0  0
   19.2471   69.9976   -3.0514 C   0  0  0  0  0  0  0  0  0  0  0  0
   17.9744   71.6938   -4.1831 O   0  0  0  0  0  0  0  0  0  0  0  0
   15.5409   70.3747   -3.0299 O   0  0  0  0  0  0  0  0  0  0  0  0
   15.5624   69.4477   -5.5943 O   0  0  0  0  0  0  0  0  0  0  0  0
   16.7521   69.7830   -3.5005 C   0  0  1  0  0  0  0  0  0  0  0  0
   16.7968   69.8130   -5.0135 C   0  0  2  0  0  0  0  0  0  0  0  0
   17.9024   70.7090   -3.1294 C   0  0  1  0  0  0  0  0  0  0  0  0
   17.1673   71.2603   -5.2895 C   0  0  2  0  0  0  0  0  0  0  0  0
   14.7915   69.8010   -3.2554 H   0  0  0  0  0  0  0  0  0  0  0  0
   15.3716   68.5182   -5.3904 H   0  0  0  0  0  0  0  0  0  0  0  0
   16.2272   72.6009   -7.5906 O   0  0  0  0  0  0  0  0  0  0  0  0
   20.1368   71.7798   -9.8894 O   0  0  0  0  0  0  0  0  0  0  0  0
   17.9188   71.4117   -6.5032 N   0  0  0  0  0  0  0  0  0  0  0  0
   18.1749   72.1898   -8.7337 N   0  0  0  0  0  0  0  0  0  0  0  0
   17.3544   72.1028   -7.6013 C   0  0  0  0  0  0  0  0  0  0  0  0
   19.1996   70.8807   -6.5968 C   0  0  0  0  0  0  0  0  0  0  0  0
   19.9696   70.9718   -7.6828 C   0  0  0  0  0  0  0  0  0  0  0  0
   19.4545   71.6775   -8.8745 C   0  0  0  0  0  0  0  0  0  0  0  0
   17.8028   72.6647   -9.5118 H   0  0  0  0  0  0  0  0  0  0  0  0
   21.4592   71.0694   -1.1060 O   0  0  0  0  0  0  0  0  0  0  0  0
   21.8497   70.2830    0.2515 P   0  0  2  0  0  0  0  0  0  0  0  0
   23.4666   70.2288    0.1955 O   0  0  0  0  0  0  0  0  0  0  0  0
   21.1907   68.9420    0.3977 O   0  0  0  0  0  0  0  0  0  0  0  0
   21.5181   71.3247    1.4378 O   0  0  0  0  0  0  0  0  0  0  0  0
   20.7768   73.5654    1.2398 O   0  0  0  0  0  0  0  0  0  0  0  0
   22.8375   73.6748    4.8189 O   0  0  0  0  0  0  0  0  0  0  0  0
   23.9165   72.2102    2.5330 O   0  0  0  0  0  0  0  0  0  0  0  0
   19.9305   73.6642    4.8086 O   0  0  0  0  0  0  0  0  0  0  0  0
   22.0376   73.0865    3.7931 C   0  0  2  0  0  0  0  0  0  0  0  0
   22.8079   73.1001    2.4725 C   0  0  2  0  0  0  0  0  0  0  0  0
   20.7516   73.9063    3.6677 C   0  0  1  0  0  0  0  0  0  0  0  0
   21.9044   72.6917    1.3081 C   0  0  1  0  0  0  0  0  0  0  0  0
   19.9688   73.5265    2.4140 C   0  0  1  0  0  0  0  0  0  0  0  0
   23.6605   73.1704    4.9166 H   0  0  0  0  0  0  0  0  0  0  0  0
   24.4939   72.4633    3.2699 H   0  0  0  0  0  0  0  0  0  0  0  0
   20.4171   73.9018    5.6134 H   0  0  0  0  0  0  0  0  0  0  0  0
   19.0306   75.6093    2.9464 O   0  0  0  0  0  0  0  0  0  0  0  0
   18.0455   74.4236    1.2662 O   0  0  0  0  0  0  0  0  0  0  0  0
   18.9076   74.5376    2.1246 C   0  0  0  0  0  0  0  0  0  0  0  0
  1  4  1  0
  1 24  1  0
  1  2  1  6
  1  3  2  0
 25 28  1  0
 25 24  1  0
 25 26  1  6
 25 27  2  0
  6 11  1  0
  6 12  1  0
 29 36  1  0
 29 37  1  0
  9  7  1  6
  7 13  1  0
 10  8  1  6
  8 14  1  0
  4  5  1  0
 36 28  1  1
 33 30  1  1
 30 38  1  0
 34 31  1  1
 31 39  1  0
 35 32  1  1
 32 40  1  0
 41 43  1  0
 15 19  2  0
 42 43  2  0
 16 22  2  0
 12 17  1  6
 17 19  1  0
 17 20  1  0
 18 19  1  0
 18 22  1  0
 18 23  1  0
  9 10  1  0
  9 11  1  0
 10 12  1  0
 11  5  1  6
 33 34  1  0
 33 35  1  0
 34 36  1  0
 35 37  1  0
 37 43  1  6
 20 21  2  0
 21 22  1  0
M  CHG  3   2  -1  26  -1  41  -1
M  END
>  <COMPND>  (3) 
    udp_gluA.pdb 

>  <AUTHOR>  (3) 
    GENERATED BY OPEN BABEL 3.1.1

>  <MASTER>  (3) 
        0    0    0    0    0    0    0    0   56    0   56    0

>  <minimizedAffinity>  (3) 
-7.21874

>  <CNNscore>  (3) 
0.6163720489

>  <CNNaffinity>  (3) 
4.6037869453

>  <CNN_VS>  (3) 
2.8376455307

>  <CNNaffinity_variance>  (3) 
0.0269807018

$$$$
4
     RDKit          3D

 43 45  0  0  0  0  0  0  0  0999 V2000
   20.7520   75.3888   -3.7013 P   0  0  2  0  0  0  0  0  0  0  0  0
   20.8759   76.3245   -2.3867 O   0  0  0  0  0  0  0  0  0  0  0  0
   21.3286   75.9781   -4.9551 O   0  0  0  0  0  0  0  0  0  0  0  0
   19.1801   75.0097   -3.7615 O   0  0  0  0  0  0  0  0  0  0  0  0
   18.4844   75.2022   -4.9795 C   0  0  0  0  0  0  0  0  0  0  0  0
   16.7387   74.0029   -6.1161 O   0  0  0  0  0  0  0  0  0  0  0  0
   15.6394   73.3943   -3.3935 O   0  0  0  0  0  0  0  0  0  0  0  0
   16.9151   71.0761   -4.0529 O   0  0  0  0  0  0  0  0  0  0  0  0
   16.9991   73.4947   -3.8172 C   0  0  1  0  0  0  0  0  0  0  0  0
   17.3867   72.2765   -4.6284 C   0  0  2  0  0  0  0  0  0  0  0  0
   17.0876   74.6080   -4.8522 C   0  0  1  0  0  0  0  0  0  0  0  0
   16.7420   72.5738   -5.9715 C   0  0  2  0  0  0  0  0  0  0  0  0
   15.5578   72.6892   -2.7318 H   0  0  0  0  0  0  0  0  0  0  0  0
   17.3555   70.9316   -3.2002 H   0  0  0  0  0  0  0  0  0  0  0  0
   16.3661   69.9398   -6.9190 O   0  0  0  0  0  0  0  0  0  0  0  0
   19.5791   70.4602  -10.1824 O   0  0  0  0  0  0  0  0  0  0  0  0
   17.4669   71.9953   -7.0673 N   0  0  0  0  0  0  0  0  0  0  0  0
   17.9675   70.2012   -8.5428 N   0  0  0  0  0  0  0  0  0  0  0  0
   17.2020   70.6631   -7.4640 C   0  0  0  0  0  0  0  0  0  0  0  0
   18.4260   72.7451   -7.7373 C   0  0  0  0  0  0  0  0  0  0  0  0
   19.1475   72.2910   -8.7640 C   0  0  0  0  0  0  0  0  0  0  0  0
   18.9329   70.9089   -9.2404 C   0  0  0  0  0  0  0  0  0  0  0  0
   17.8023   69.2759   -8.8357 H   0  0  0  0  0  0  0  0  0  0  0  0
   21.4416   74.0055   -3.2284 O   0  0  0  0  0  0  0  0  0  0  0  0
   22.9665   73.4832   -3.3520 P   0  0  2  0  0  0  0  0  0  0  0  0
   23.8385   74.8010   -3.0007 O   0  0  0  0  0  0  0  0  0  0  0  0
   23.2977   72.8574   -4.6759 O   0  0  0  0  0  0  0  0  0  0  0  0
   23.1700   72.5098   -2.0818 O   0  0  0  0  0  0  0  0  0  0  0  0
   21.8013   71.0312   -0.8369 O   0  0  0  0  0  0  0  0  0  0  0  0
   23.9437   72.9120    2.1532 O   0  0  0  0  0  0  0  0  0  0  0  0
   22.8909   74.4427   -0.1014 O   0  0  0  0  0  0  0  0  0  0  0  0
   24.6101   70.1929    1.3699 O   0  0  0  0  0  0  0  0  0  0  0  0
   23.7234   72.3720    0.8501 C   0  0  2  0  0  0  0  0  0  0  0  0
   22.5479   73.0927    0.1896 C   0  0  2  0  0  0  0  0  0  0  0  0
   23.4159   70.8806    1.0021 C   0  0  1  0  0  0  0  0  0  0  0  0
   22.1357   72.3932   -1.1064 C   0  0  1  0  0  0  0  0  0  0  0  0
   22.8914   70.2844   -0.3010 C   0  0  1  0  0  0  0  0  0  0  0  0
   24.1410   73.8592    2.0817 H   0  0  0  0  0  0  0  0  0  0  0  0
   23.1537   74.8925    0.7165 H   0  0  0  0  0  0  0  0  0  0  0  0
   24.9544   70.5630    2.1978 H   0  0  0  0  0  0  0  0  0  0  0  0
   23.2463   67.9754   -0.0914 O   0  0  0  0  0  0  0  0  0  0  0  0
   21.1036   68.7228    0.1311 O   0  0  0  0  0  0  0  0  0  0  0  0
   22.2906   68.9371   -0.0639 C   0  0  0  0  0  0  0  0  0  0  0  0
  1  4  1  0
  1 24  1  0
  1  2  1  1
  1  3  2  0
 25 28  1  0
 25 24  1  0
 25 26  1  1
 25 27  2  0
  6 11  1  0
  6 12  1  0
 29 36  1  0
 29 37  1  0
  9  7  1  6
  7 13  1  0
 10  8  1  1
  8 14  1  0
  4  5  1  0
 36 28  1  6
 33 30  1  1
 30 38  1  0
 34 31  1  6
 31 39  1  0
 35 32  1  6
 32 40  1  0
 41 43  1  0
 15 19  2  0
 42 43  2  0
 16 22  2  0
 12 17  1  6
 17 19  1  0
 17 20  1  0
 18 19  1  0
 18 22  1  0
 18 23  1  0
  9 10  1  0
  9 11  1  0
 10 12  1  0
 11  5  1  6
 33 34  1  0
 33 35  1  0
 34 36  1  0
 35 37  1  0
 37 43  1  1
 20 21  2  0
 21 22  1  0
M  CHG  3   2  -1  26  -1  41  -1
M  END
>  <COMPND>  (4) 
    udp_gluA.pdb 

>  <AUTHOR>  (4) 
    GENERATED BY OPEN BABEL 3.1.1

>  <MASTER>  (4) 
        0    0    0    0    0    0    0    0   56    0   56    0

>  <minimizedAffinity>  (4) 
-6.77895

>  <CNNscore>  (4) 
0.5926643610

>  <CNNaffinity>  (4) 
4.2594099045

>  <CNN_VS>  (4) 
2.5244004726

>  <CNNaffinity_variance>  (4) 
0.0878613442

$$$$
5
     RDKit          3D

 43 45  0  0  0  0  0  0  0  0999 V2000
   20.2447   73.9025   -3.1762 P   0  0  2  0  0  0  0  0  0  0  0  0
   20.9954   74.4931   -1.8699 O   0  0  0  0  0  0  0  0  0  0  0  0
   18.8243   74.3546   -3.3492 O   0  0  0  0  0  0  0  0  0  0  0  0
   20.4639   72.3035   -3.0606 O   0  0  0  0  0  0  0  0  0  0  0  0
   21.5755   71.8249   -2.3260 C   0  0  0  0  0  0  0  0  0  0  0  0
   21.4039   69.5180   -1.6727 O   0  0  0  0  0  0  0  0  0  0  0  0
   20.9135   70.5344    1.1054 O   0  0  0  0  0  0  0  0  0  0  0  0
   23.5381   69.7996    1.1944 O   0  0  0  0  0  0  0  0  0  0  0  0
   21.7725   71.0556    0.0910 C   0  0  1  0  0  0  0  0  0  0  0  0
   23.0014   70.1833   -0.0543 C   0  0  2  0  0  0  0  0  0  0  0  0
   21.0836   70.8621   -1.2529 C   0  0  1  0  0  0  0  0  0  0  0  0
   22.4597   69.0046   -0.8450 C   0  0  2  0  0  0  0  0  0  0  0  0
   21.3325   70.6467    1.9735 H   0  0  0  0  0  0  0  0  0  0  0  0
   23.8696   70.5847    1.6587 H   0  0  0  0  0  0  0  0  0  0  0  0
   23.9436   70.3893   -2.8090 O   0  0  0  0  0  0  0  0  0  0  0  0
   26.2630   66.5879   -3.9981 O   0  0  0  0  0  0  0  0  0  0  0  0
   23.4577   68.4012   -1.6821 N   0  0  0  0  0  0  0  0  0  0  0  0
   25.0966   68.4944   -3.4001 N   0  0  0  0  0  0  0  0  0  0  0  0
   24.1457   69.1856   -2.6378 C   0  0  0  0  0  0  0  0  0  0  0  0
   23.7474   67.0485   -1.5510 C   0  0  0  0  0  0  0  0  0  0  0  0
   24.6566   66.4036   -2.2847 C   0  0  0  0  0  0  0  0  0  0  0  0
   25.4193   67.1503   -3.3067 C   0  0  0  0  0  0  0  0  0  0  0  0
   25.5870   69.0191   -4.0735 H   0  0  0  0  0  0  0  0  0  0  0  0
   21.2356   74.3187   -4.3835 O   0  0  0  0  0  0  0  0  0  0  0  0
   21.3665   73.7530   -5.8923 P   0  0  2  0  0  0  0  0  0  0  0  0
   22.6208   72.7342   -5.7979 O   0  0  0  0  0  0  0  0  0  0  0  0
   21.5132   74.8191   -6.9392 O   0  0  0  0  0  0  0  0  0  0  0  0
   20.0802   72.7985   -6.0845 O   0  0  0  0  0  0  0  0  0  0  0  0
   19.2859   70.5873   -5.7862 O   0  0  0  0  0  0  0  0  0  0  0  0
   18.7603   71.1285   -9.8481 O   0  0  0  0  0  0  0  0  0  0  0  0
   21.1897   72.0748   -8.5302 O   0  0  0  0  0  0  0  0  0  0  0  0
   16.4742   71.2269   -8.0550 O   0  0  0  0  0  0  0  0  0  0  0  0
   18.8272   71.5254   -8.4784 C   0  0  2  0  0  0  0  0  0  0  0  0
   20.2210   71.2255   -7.9262 C   0  0  2  0  0  0  0  0  0  0  0  0
   17.7674   70.7373   -7.7053 C   0  0  1  0  0  0  0  0  0  0  0  0
   20.2626   71.4217   -6.4101 C   0  0  1  0  0  0  0  0  0  0  0  0
   17.9534   70.8841   -6.1979 C   0  0  1  0  0  0  0  0  0  0  0  0
   19.4251   71.6165  -10.3591 H   0  0  0  0  0  0  0  0  0  0  0  0
   21.1686   71.9556   -9.4923 H   0  0  0  0  0  0  0  0  0  0  0  0
   16.3432   71.1393   -9.0121 H   0  0  0  0  0  0  0  0  0  0  0  0
   17.7630   69.4979   -4.3154 O   0  0  0  0  0  0  0  0  0  0  0  0
   16.0627   69.4303   -5.8331 O   0  0  0  0  0  0  0  0  0  0  0  0
   17.1409   69.8690   -5.4618 C   0  0  0  0  0  0  0  0  0  0  0  0
  1  4  1  0
  1 24  1  0
  1  2  1  1
  1  3  2  0
 25 28  1  0
 25 24  1  0
 25 26  1  1
 25 27  2  0
  6 11  1  0
  6 12  1  0
 29 36  1  0
 29 37  1  0
  9  7  1  1
  7 13  1  0
 10  8  1  1
  8 14  1  0
  4  5  1  0
 36 28  1  6
 33 30  1  6
 30 38  1  0
 34 31  1  6
 31 39  1  0
 35 32  1  6
 32 40  1  0
 41 43  1  0
 15 19  2  0
 42 43  2  0
 16 22  2  0
 12 17  1  6
 17 19  1  0
 17 20  1  0
 18 19  1  0
 18 22  1  0
 18 23  1  0
  9 10  1  0
  9 11  1  0
 10 12  1  0
 11  5  1  6
 33 34  1  0
 33 35  1  0
 34 36  1  0
 35 37  1  0
 37 43  1  1
 20 21  2  0
 21 22  1  0
M  CHG  3   2  -1  26  -1  41  -1
M  END
>  <COMPND>  (5) 
    udp_gluA.pdb 

>  <AUTHOR>  (5) 
    GENERATED BY OPEN BABEL 3.1.1

>  <MASTER>  (5) 
        0    0    0    0    0    0    0    0   56    0   56    0

>  <minimizedAffinity>  (5) 
-8.59460

>  <CNNscore>  (5) 
0.4370176196

>  <CNNaffinity>  (5) 
4.3184227943

>  <CNN_VS>  (5) 
1.8872268200

>  <CNNaffinity_variance>  (5) 
0.6361640692

$$$$
6
     RDKit          3D

 43 45  0  0  0  0  0  0  0  0999 V2000
   20.8155   73.0735   -3.1488 P   0  0  2  0  0  0  0  0  0  0  0  0
   21.1976   74.2578   -4.1833 O   0  0  0  0  0  0  0  0  0  0  0  0
   21.4440   71.7440   -3.4476 O   0  0  0  0  0  0  0  0  0  0  0  0
   19.1980   73.0942   -3.1147 O   0  0  0  0  0  0  0  0  0  0  0  0
   18.5231   72.0644   -2.4158 C   0  0  0  0  0  0  0  0  0  0  0  0
   16.9585   72.4457   -4.2002 O   0  0  0  0  0  0  0  0  0  0  0  0
   14.9747   70.9362   -2.5337 O   0  0  0  0  0  0  0  0  0  0  0  0
   15.7655   69.0683   -4.3563 O   0  0  0  0  0  0  0  0  0  0  0  0
   16.3785   70.7221   -2.6825 C   0  0  1  0  0  0  0  0  0  0  0  0
   16.6737   70.0997   -4.0307 C   0  0  2  0  0  0  0  0  0  0  0  0
   17.0507   72.0827   -2.8056 C   0  0  1  0  0  0  0  0  0  0  0  0
   16.5595   71.2948   -4.9616 C   0  0  2  0  0  0  0  0  0  0  0  0
   14.5236   70.0808   -2.4531 H   0  0  0  0  0  0  0  0  0  0  0  0
   15.8777   68.3308   -3.7354 H   0  0  0  0  0  0  0  0  0  0  0  0
   15.7592   70.1859   -7.4327 O   0  0  0  0  0  0  0  0  0  0  0  0
   19.9114   70.8949   -9.3035 O   0  0  0  0  0  0  0  0  0  0  0  0
   17.4113   71.1773   -6.1112 N   0  0  0  0  0  0  0  0  0  0  0  0
   17.8283   70.5392   -8.3618 N   0  0  0  0  0  0  0  0  0  0  0  0
   16.9112   70.6047   -7.3046 C   0  0  0  0  0  0  0  0  0  0  0  0
   18.7244   71.6277   -6.0504 C   0  0  0  0  0  0  0  0  0  0  0  0
   19.5867   71.5586   -7.0665 C   0  0  0  0  0  0  0  0  0  0  0  0
   19.1440   70.9731   -8.3489 C   0  0  0  0  0  0  0  0  0  0  0  0
   17.5037   70.1425   -9.2024 H   0  0  0  0  0  0  0  0  0  0  0  0
   21.2172   73.7010   -1.7143 O   0  0  0  0  0  0  0  0  0  0  0  0
   22.6589   74.0759   -1.0860 P   0  0  2  0  0  0  0  0  0  0  0  0
   22.3409   75.3820   -0.1842 O   0  0  0  0  0  0  0  0  0  0  0  0
   23.7417   74.2775   -2.1062 O   0  0  0  0  0  0  0  0  0  0  0  0
   22.9561   72.9052   -0.0166 O   0  0  0  0  0  0  0  0  0  0  0  0
   22.3281   70.6556   -0.4089 O   0  0  0  0  0  0  0  0  0  0  0  0
   22.7542   70.7051    3.7001 O   0  0  0  0  0  0  0  0  0  0  0  0
   21.4474   72.9237    2.3200 O   0  0  0  0  0  0  0  0  0  0  0  0
   24.7969   69.4768    2.0360 O   0  0  0  0  0  0  0  0  0  0  0  0
   23.0383   71.0923    2.3558 C   0  0  2  0  0  0  0  0  0  0  0  0
   21.7801   71.6793    1.7155 C   0  0  2  0  0  0  0  0  0  0  0  0
   23.4934   69.8473    1.5911 C   0  0  1  0  0  0  0  0  0  0  0  0
   21.9787   71.8922    0.2141 C   0  0  1  0  0  0  0  0  0  0  0  0
   23.5458   70.1048    0.0880 C   0  0  1  0  0  0  0  0  0  0  0  0
   22.4629   71.4805    4.2054 H   0  0  0  0  0  0  0  0  0  0  0  0
   21.3203   72.7961    3.2728 H   0  0  0  0  0  0  0  0  0  0  0  0
   24.7774   69.3102    2.9914 H   0  0  0  0  0  0  0  0  0  0  0  0
   23.2508   67.7779    0.0948 O   0  0  0  0  0  0  0  0  0  0  0  0
   24.0772   68.7160   -1.8120 O   0  0  0  0  0  0  0  0  0  0  0  0
   23.6656   68.8207   -0.6664 C   0  0  0  0  0  0  0  0  0  0  0  0
  1  4  1  0
  1 24  1  0
  1  2  1  6
  1  3  2  0
 25 28  1  0
 25 24  1  0
 25 26  1  1
 25 27  2  0
  6 11  1  0
  6 12  1  0
 29 36  1  0
 29 37  1  0
  9  7  1  6
  7 13  1  0
 10  8  1  6
  8 14  1  0
  4  5  1  0
 36 28  1  1
 33 30  1  1
 30 38  1  0
 34 31  1  1
 31 39  1  0
 35 32  1  1
 32 40  1  0
 41 43  1  0
 15 19  2  0
 42 43  2  0
 16 22  2  0
 12 17  1  6
 17 19  1  0
 17 20  1  0
 18 19  1  0
 18 22  1  0
 18 23  1  0
  9 10  1  0
  9 11  1  0
 10 12  1  0
 11  5  1  6
 33 34  1  0
 33 35  1  0
 34 36  1  0
 35 37  1  0
 37 43  1  6
 20 21  2  0
 21 22  1  0
M  CHG  3   2  -1  26  -1  41  -1
M  END
>  <COMPND>  (6) 
    udp_gluA.pdb 

>  <AUTHOR>  (6) 
    GENERATED BY OPEN BABEL 3.1.1

>  <MASTER>  (6) 
        0    0    0    0    0    0    0    0   56    0   56    0

>  <minimizedAffinity>  (6) 
-7.58350

>  <CNNscore>  (6) 
0.4246534705

>  <CNNaffinity>  (6) 
4.1592369080

>  <CNN_VS>  (6) 
1.7662343979

>  <CNNaffinity_variance>  (6) 
0.1863464266

$$$$
7
     RDKit          3D

 43 45  0  0  0  0  0  0  0  0999 V2000
   22.0319   72.2898   -4.0164 P   0  0  2  0  0  0  0  0  0  0  0  0
   21.3841   73.3076   -2.9378 O   0  0  0  0  0  0  0  0  0  0  0  0
   23.3008   72.7696   -4.6577 O   0  0  0  0  0  0  0  0  0  0  0  0
   20.8113   71.9677   -5.0284 O   0  0  0  0  0  0  0  0  0  0  0  0
   20.7566   72.6583   -6.2632 C   0  0  0  0  0  0  0  0  0  0  0  0
   19.2957   70.7825   -6.6161 O   0  0  0  0  0  0  0  0  0  0  0  0
   19.0413   71.7499   -9.4429 O   0  0  0  0  0  0  0  0  0  0  0  0
   16.7314   72.6392   -8.2987 O   0  0  0  0  0  0  0  0  0  0  0  0
   19.1584   72.5047   -8.2366 C   0  0  1  0  0  0  0  0  0  0  0  0
   17.8569   72.4631   -7.4640 C   0  0  2  0  0  0  0  0  0  0  0  0
   20.1052   71.7592   -7.3060 C   0  0  1  0  0  0  0  0  0  0  0  0
   17.9078   71.0814   -6.8346 C   0  0  2  0  0  0  0  0  0  0  0  0
   18.4410   72.2066  -10.0535 H   0  0  0  0  0  0  0  0  0  0  0  0
   16.7446   73.5338   -8.6748 H   0  0  0  0  0  0  0  0  0  0  0  0
   16.2208   68.9614   -6.0369 O   0  0  0  0  0  0  0  0  0  0  0  0
   15.3004   70.9731   -1.9934 O   0  0  0  0  0  0  0  0  0  0  0  0
   17.2148   71.0255   -5.5787 N   0  0  0  0  0  0  0  0  0  0  0  0
   15.7632   69.9659   -4.0242 N   0  0  0  0  0  0  0  0  0  0  0  0
   16.3914   69.9155   -5.2756 C   0  0  0  0  0  0  0  0  0  0  0  0
   17.3552   72.0608   -4.6624 C   0  0  0  0  0  0  0  0  0  0  0  0
   16.7501   72.0947   -3.4735 C   0  0  0  0  0  0  0  0  0  0  0  0
   15.8715   70.9737   -3.0797 C   0  0  0  0  0  0  0  0  0  0  0  0
   15.1832   69.2051   -3.7916 H   0  0  0  0  0  0  0  0  0  0  0  0
   22.1794   70.9166   -3.1764 O   0  0  0  0  0  0  0  0  0  0  0  0
   21.1679   70.1882   -2.1468 P   0  0  2  0  0  0  0  0  0  0  0  0
   21.4717   68.6155   -2.3802 O   0  0  0  0  0  0  0  0  0  0  0  0
   19.7274   70.5726   -2.3232 O   0  0  0  0  0  0  0  0  0  0  0  0
   21.7718   70.5071   -0.6853 O   0  0  0  0  0  0  0  0  0  0  0  0
   23.3092   72.1795   -0.0155 O   0  0  0  0  0  0  0  0  0  0  0  0
   24.1979   69.1192    2.6136 O   0  0  0  0  0  0  0  0  0  0  0  0
   23.6870   68.5480   -0.2054 O   0  0  0  0  0  0  0  0  0  0  0  0
   22.6802   71.4269    3.5200 O   0  0  0  0  0  0  0  0  0  0  0  0
   23.3605   69.9133    1.7733 C   0  0  2  0  0  0  0  0  0  0  0  0
   23.8733   69.8513    0.3343 C   0  0  2  0  0  0  0  0  0  0  0  0
   23.4001   71.3529    2.2910 C   0  0  1  0  0  0  0  0  0  0  0  0
   23.1459   70.8652   -0.5498 C   0  0  1  0  0  0  0  0  0  0  0  0
   22.7665   72.3204    1.2955 C   0  0  1  0  0  0  0  0  0  0  0  0
   24.1885   68.1998    2.3038 H   0  0  0  0  0  0  0  0  0  0  0  0
   24.1457   67.8995    0.3508 H   0  0  0  0  0  0  0  0  0  0  0  0
   23.0733   70.8156    4.1624 H   0  0  0  0  0  0  0  0  0  0  0  0
   24.1615   73.7828    2.4859 O   0  0  0  0  0  0  0  0  0  0  0  0
   22.5006   74.7177    1.2343 O   0  0  0  0  0  0  0  0  0  0  0  0
   23.0982   73.7345    1.6457 C   0  0  0  0  0  0  0  0  0  0  0  0
  1  4  1  0
  1 24  1  0
  1  2  1  1
  1  3  2  0
 25 28  1  0
 25 24  1  0
 25 26  1  6
 25 27  2  0
  6 11  1  0
  6 12  1  0
 29 36  1  0
 29 37  1  0
  9  7  1  6
  7 13  1  0
 10  8  1  6
  8 14  1  0
  4  5  1  0
 36 28  1  1
 33 30  1  1
 30 38  1  0
 34 31  1  6
 31 39  1  0
 35 32  1  1
 32 40  1  0
 41 43  1  0
 15 19  2  0
 42 43  2  0
 16 22  2  0
 12 17  1  1
 17 19  1  0
 17 20  1  0
 18 19  1  0
 18 22  1  0
 18 23  1  0
  9 10  1  0
  9 11  1  0
 10 12  1  0
 11  5  1  1
 33 34  1  0
 33 35  1  0
 34 36  1  0
 35 37  1  0
 37 43  1  1
 20 21  2  0
 21 22  1  0
M  CHG  3   2  -1  26  -1  41  -1
M  END
>  <COMPND>  (7) 
    udp_gluA.pdb 

>  <AUTHOR>  (7) 
    GENERATED BY OPEN BABEL 3.1.1

>  <MASTER>  (7) 
        0    0    0    0    0    0    0    0   56    0   56    0

>  <minimizedAffinity>  (7) 
-8.04982

>  <CNNscore>  (7) 
0.3759429157

>  <CNNaffinity>  (7) 
4.1344327927

>  <CNN_VS>  (7) 
1.5543106794

>  <CNNaffinity_variance>  (7) 
0.2199792117

$$$$
8
     RDKit          3D

 43 45  0  0  0  0  0  0  0  0999 V2000
   23.6714   73.7864   -3.7200 P   0  0  2  0  0  0  0  0  0  0  0  0
   25.1605   74.3146   -4.0699 O   0  0  0  0  0  0  0  0  0  0  0  0
   23.4722   72.3068   -3.8714 O   0  0  0  0  0  0  0  0  0  0  0  0
   22.7058   74.7212   -4.6209 O   0  0  0  0  0  0  0  0  0  0  0  0
   21.5856   74.1273   -5.2508 C   0  0  0  0  0  0  0  0  0  0  0  0
   21.1248   73.2786   -7.4520 O   0  0  0  0  0  0  0  0  0  0  0  0
   21.2702   76.1268   -8.3782 O   0  0  0  0  0  0  0  0  0  0  0  0
   18.5834   75.6827   -8.2364 O   0  0  0  0  0  0  0  0  0  0  0  0
   20.7590   75.5998   -7.1537 C   0  0  1  0  0  0  0  0  0  0  0  0
   19.4236   74.9265   -7.3898 C   0  0  2  0  0  0  0  0  0  0  0  0
   21.6390   74.4270   -6.7433 C   0  0  1  0  0  0  0  0  0  0  0  0
   19.8423   73.6047   -8.0107 C   0  0  2  0  0  0  0  0  0  0  0  0
   20.7240   76.8776   -8.6605 H   0  0  0  0  0  0  0  0  0  0  0  0
   18.3447   76.5141   -7.7961 H   0  0  0  0  0  0  0  0  0  0  0  0
   19.2919   71.4417   -9.7413 O   0  0  0  0  0  0  0  0  0  0  0  0
   16.2890   69.5935   -6.7729 O   0  0  0  0  0  0  0  0  0  0  0  0
   18.9210   72.5442   -7.7151 N   0  0  0  0  0  0  0  0  0  0  0  0
   17.7961   70.5238   -8.2616 N   0  0  0  0  0  0  0  0  0  0  0  0
   18.7167   71.5047   -8.6531 C   0  0  0  0  0  0  0  0  0  0  0  0
   18.2328   72.5396   -6.5079 C   0  0  0  0  0  0  0  0  0  0  0  0
   17.3584   71.5977   -6.1488 C   0  0  0  0  0  0  0  0  0  0  0  0
   17.0869   70.4766   -7.0723 C   0  0  0  0  0  0  0  0  0  0  0  0
   17.6357   69.7909   -8.8992 H   0  0  0  0  0  0  0  0  0  0  0  0
   23.4291   74.3488   -2.2240 O   0  0  0  0  0  0  0  0  0  0  0  0
   22.2253   74.0925   -1.1757 P   0  0  2  0  0  0  0  0  0  0  0  0
   21.0421   73.5010   -2.1087 O   0  0  0  0  0  0  0  0  0  0  0  0
   21.8365   75.3026   -0.3768 O   0  0  0  0  0  0  0  0  0  0  0  0
   22.7137   72.8349   -0.2912 O   0  0  0  0  0  0  0  0  0  0  0  0
   22.2012   70.5389   -0.5647 O   0  0  0  0  0  0  0  0  0  0  0  0
   22.7141   70.8043    3.5261 O   0  0  0  0  0  0  0  0  0  0  0  0
   21.2579   72.8822    2.0783 O   0  0  0  0  0  0  0  0  0  0  0  0
   24.7839   69.6104    1.8704 O   0  0  0  0  0  0  0  0  0  0  0  0
   22.9470   71.1425    2.1588 C   0  0  2  0  0  0  0  0  0  0  0  0
   21.6449   71.6304    1.5234 C   0  0  2  0  0  0  0  0  0  0  0  0
   23.4526   69.8891    1.4411 C   0  0  1  0  0  0  0  0  0  0  0  0
   21.7985   71.7829    0.0094 C   0  0  1  0  0  0  0  0  0  0  0  0
   23.4578   70.0781   -0.0731 C   0  0  1  0  0  0  0  0  0  0  0  0
   22.3920   71.5858    4.0023 H   0  0  0  0  0  0  0  0  0  0  0  0
   21.1589   72.7929    3.0388 H   0  0  0  0  0  0  0  0  0  0  0  0
   24.7945   69.4881    2.8326 H   0  0  0  0  0  0  0  0  0  0  0  0
   23.2361   67.7453    0.0271 O   0  0  0  0  0  0  0  0  0  0  0  0
   24.0657   68.6292   -1.9041 O   0  0  0  0  0  0  0  0  0  0  0  0
   23.6311   68.7683   -0.7706 C   0  0  0  0  0  0  0  0  0  0  0  0
  1  4  1  0
  1 24  1  0
  1  2  1  6
  1  3  2  0
 25 28  1  0
 25 24  1  0
 25 26  1  6
 25 27  2  0
  6 11  1  0
  6 12  1  0
 29 36  1  0
 29 37  1  0
  9  7  1  6
  7 13  1  0
 10  8  1  6
  8 14  1  0
  4  5  1  0
 36 28  1  1
 33 30  1  1
 30 38  1  0
 34 31  1  1
 31 39  1  0
 35 32  1  1
 32 40  1  0
 41 43  1  0
 15 19  2  0
 42 43  2  0
 16 22  2  0
 12 17  1  1
 17 19  1  0
 17 20  1  0
 18 19  1  0
 18 22  1  0
 18 23  1  0
  9 10  1  0
  9 11  1  0
 10 12  1  0
 11  5  1  1
 33 34  1  0
 33 35  1  0
 34 36  1  0
 35 37  1  0
 37 43  1  6
 20 21  2  0
 21 22  1  0
M  CHG  3   2  -1  26  -1  41  -1
M  END
>  <COMPND>  (8) 
    udp_gluA.pdb 

>  <AUTHOR>  (8) 
    GENERATED BY OPEN BABEL 3.1.1

>  <MASTER>  (8) 
        0    0    0    0    0    0    0    0   56    0   56    0

>  <minimizedAffinity>  (8) 
-7.71090

>  <CNNscore>  (8) 
0.3739346564

>  <CNNaffinity>  (8) 
4.2138304710

>  <CNN_VS>  (8) 
1.5756973028

>  <CNNaffinity_variance>  (8) 
0.0951631218

$$$$
9
     RDKit          3D

 43 45  0  0  0  0  0  0  0  0999 V2000
   22.1526   73.5041   -6.1029 P   0  0  2  0  0  0  0  0  0  0  0  0
   22.7623   72.7884   -7.4201 O   0  0  0  0  0  0  0  0  0  0  0  0
   22.6420   74.9011   -5.8570 O   0  0  0  0  0  0  0  0  0  0  0  0
   22.4367   72.4411   -4.9166 O   0  0  0  0  0  0  0  0  0  0  0  0
   22.9765   72.9169   -3.6973 C   0  0  0  0  0  0  0  0  0  0  0  0
   21.5669   71.4413   -2.4272 O   0  0  0  0  0  0  0  0  0  0  0  0
   21.2358   73.7165   -0.5022 O   0  0  0  0  0  0  0  0  0  0  0  0
   23.0817   72.1441    0.7454 O   0  0  0  0  0  0  0  0  0  0  0  0
   22.3845   73.3323   -1.2582 C   0  0  1  0  0  0  0  0  0  0  0  0
   23.0111   72.0887   -0.6640 C   0  0  2  0  0  0  0  0  0  0  0  0
   21.9081   72.8319   -2.6150 C   0  0  1  0  0  0  0  0  0  0  0  0
   22.0779   70.9974   -1.1603 C   0  0  2  0  0  0  0  0  0  0  0  0
   21.5151   74.0398    0.3691 H   0  0  0  0  0  0  0  0  0  0  0  0
   23.6881   72.8539    1.0110 H   0  0  0  0  0  0  0  0  0  0  0  0
   21.5444   68.6698    0.3477 O   0  0  0  0  0  0  0  0  0  0  0  0
   24.7189   66.2373   -1.9435 O   0  0  0  0  0  0  0  0  0  0  0  0
   22.7502   69.7421   -1.3419 N   0  0  0  0  0  0  0  0  0  0  0  0
   23.1267   67.4608   -0.7942 N   0  0  0  0  0  0  0  0  0  0  0  0
   22.4073   68.6340   -0.5315 C   0  0  0  0  0  0  0  0  0  0  0  0
   23.7352   69.6172   -2.3140 C   0  0  0  0  0  0  0  0  0  0  0  0
   24.4122   68.4922   -2.5528 C   0  0  0  0  0  0  0  0  0  0  0  0
   24.1153   67.2881   -1.7495 C   0  0  0  0  0  0  0  0  0  0  0  0
   22.9069   66.6763   -0.2413 H   0  0  0  0  0  0  0  0  0  0  0  0
   20.5568   73.3795   -6.3280 O   0  0  0  0  0  0  0  0  0  0  0  0
   19.3148   73.8763   -5.4202 P   0  0  2  0  0  0  0  0  0  0  0  0
   18.3121   74.5464   -6.4999 O   0  0  0  0  0  0  0  0  0  0  0  0
   19.7030   74.7849   -4.2898 O   0  0  0  0  0  0  0  0  0  0  0  0
   18.5729   72.5187   -4.9633 O   0  0  0  0  0  0  0  0  0  0  0  0
   19.1679   70.2636   -4.5509 O   0  0  0  0  0  0  0  0  0  0  0  0
   15.7062   69.8286   -6.7635 O   0  0  0  0  0  0  0  0  0  0  0  0
   17.7011   71.8272   -7.5124 O   0  0  0  0  0  0  0  0  0  0  0  0
   15.6645   69.3973   -3.8890 O   0  0  0  0  0  0  0  0  0  0  0  0
   16.5920   70.4626   -5.8408 C   0  0  2  0  0  0  0  0  0  0  0  0
   17.9056   70.8042   -6.5448 C   0  0  2  0  0  0  0  0  0  0  0  0
   16.8444   69.4922   -4.6847 C   0  0  1  0  0  0  0  0  0  0  0  0
   18.9591   71.2724   -5.5399 C   0  0  1  0  0  0  0  0  0  0  0  0
   17.9929   69.9672   -3.7994 C   0  0  1  0  0  0  0  0  0  0  0  0
   15.5313   70.4268   -7.5071 H   0  0  0  0  0  0  0  0  0  0  0  0
   17.0335   71.5369   -8.1530 H   0  0  0  0  0  0  0  0  0  0  0  0
   14.9258   69.0960   -4.4407 H   0  0  0  0  0  0  0  0  0  0  0  0
   17.6342   67.7935   -2.9943 O   0  0  0  0  0  0  0  0  0  0  0  0
   19.4135   68.9375   -2.1431 O   0  0  0  0  0  0  0  0  0  0  0  0
   18.4456   68.8747   -2.8862 C   0  0  0  0  0  0  0  0  0  0  0  0
  1  4  1  0
  1 24  1  0
  1  2  1  6
  1  3  2  0
 25 28  1  0
 25 24  1  0
 25 26  1  6
 25 27  2  0
  6 11  1  0
  6 12  1  0
 29 36  1  0
 29 37  1  0
  9  7  1  1
  7 13  1  0
 10  8  1  1
  8 14  1  0
  4  5  1  0
 36 28  1  1
 33 30  1  6
 30 38  1  0
 34 31  1  6
 31 39  1  0
 35 32  1  1
 32 40  1  0
 41 43  1  0
 15 19  2  0
 42 43  2  0
 16 22  2  0
 12 17  1  6
 17 19  1  0
 17 20  1  0
 18 19  1  0
 18 22  1  0
 18 23  1  0
  9 10  1  0
  9 11  1  0
 10 12  1  0
 11  5  1  6
 33 34  1  0
 33 35  1  0
 34 36  1  0
 35 37  1  0
 37 43  1  1
 20 21  2  0
 21 22  1  0
M  CHG  3   2  -1  26  -1  41  -1
M  END
>  <COMPND>  (9) 
    udp_gluA.pdb 

>  <AUTHOR>  (9) 
    GENERATED BY OPEN BABEL 3.1.1

>  <MASTER>  (9) 
        0    0    0    0    0    0    0    0   56    0   56    0

>  <minimizedAffinity>  (9) 
-8.29872

>  <CNNscore>  (9) 
0.3683435917

>  <CNNaffinity>  (9) 
4.0831804276

>  <CNN_VS>  (9) 
1.5040132999

>  <CNNaffinity_variance>  (9) 
0.7883629799

$$$$
10
     RDKit          3D

 43 45  0  0  0  0  0  0  0  0999 V2000
   22.4969   73.1974   -3.5779 P   0  0  2  0  0  0  0  0  0  0  0  0
   23.4666   72.8586   -4.8284 O   0  0  0  0  0  0  0  0  0  0  0  0
   22.6324   74.5876   -3.0296 O   0  0  0  0  0  0  0  0  0  0  0  0
   22.7812   71.9980   -2.5297 O   0  0  0  0  0  0  0  0  0  0  0  0
   22.8164   72.3022   -1.1475 C   0  0  0  0  0  0  0  0  0  0  0  0
   21.9620   70.0555   -1.1322 O   0  0  0  0  0  0  0  0  0  0  0  0
   21.3903   70.4910    1.7790 O   0  0  0  0  0  0  0  0  0  0  0  0
   23.6953   69.0350    1.8357 O   0  0  0  0  0  0  0  0  0  0  0  0
   22.4826   70.9661    0.9917 C   0  0  1  0  0  0  0  0  0  0  0  0
   23.4484   69.8372    0.6999 C   0  0  2  0  0  0  0  0  0  0  0  0
   21.9518   71.2980   -0.3963 C   0  0  1  0  0  0  0  0  0  0  0  0
   22.7271   69.0823   -0.4036 C   0  0  2  0  0  0  0  0  0  0  0  0
   21.7050   70.2724    2.6706 H   0  0  0  0  0  0  0  0  0  0  0  0
   24.1561   69.5608    2.5089 H   0  0  0  0  0  0  0  0  0  0  0  0
   23.1451   66.2910   -0.5062 O   0  0  0  0  0  0  0  0  0  0  0  0
   26.2326   66.6944   -3.9046 O   0  0  0  0  0  0  0  0  0  0  0  0
   23.6344   68.4311   -1.3056 N   0  0  0  0  0  0  0  0  0  0  0  0
   24.6832   66.4947   -2.1980 N   0  0  0  0  0  0  0  0  0  0  0  0
   23.7703   67.0230   -1.2758 C   0  0  0  0  0  0  0  0  0  0  0  0
   24.3761   69.1846   -2.2073 C   0  0  0  0  0  0  0  0  0  0  0  0
   25.2423   68.6667   -3.0804 C   0  0  0  0  0  0  0  0  0  0  0  0
   25.4440   67.2033   -3.1137 C   0  0  0  0  0  0  0  0  0  0  0  0
   24.7964   65.5166   -2.1946 H   0  0  0  0  0  0  0  0  0  0  0  0
   21.0282   72.8394   -4.1501 O   0  0  0  0  0  0  0  0  0  0  0  0
   19.5552   73.2441   -3.6209 P   0  0  2  0  0  0  0  0  0  0  0  0
   19.1444   74.4815   -4.5803 O   0  0  0  0  0  0  0  0  0  0  0  0
   19.4914   73.5522   -2.1529 O   0  0  0  0  0  0  0  0  0  0  0  0
   18.6031   72.0300   -4.0921 O   0  0  0  0  0  0  0  0  0  0  0  0
   18.7118   69.6707   -4.2676 O   0  0  0  0  0  0  0  0  0  0  0  0
   17.0840   70.7112   -7.9194 O   0  0  0  0  0  0  0  0  0  0  0  0
   19.2793   72.2656   -6.7797 O   0  0  0  0  0  0  0  0  0  0  0  0
   15.3987   69.5747   -5.8412 O   0  0  0  0  0  0  0  0  0  0  0  0
   17.3336   70.8399   -6.5197 C   0  0  2  0  0  0  0  0  0  0  0  0
   18.8342   71.0095   -6.2810 C   0  0  2  0  0  0  0  0  0  0  0  0
   16.8250   69.5719   -5.8302 C   0  0  1  0  0  0  0  0  0  0  0  0
   19.1646   70.9201   -4.7905 C   0  0  1  0  0  0  0  0  0  0  0  0
   17.3014   69.4958   -4.3825 C   0  0  1  0  0  0  0  0  0  0  0  0
   17.3991   71.5056   -8.3786 H   0  0  0  0  0  0  0  0  0  0  0  0
   19.0726   72.3293   -7.7251 H   0  0  0  0  0  0  0  0  0  0  0  0
   15.0825   69.6231   -6.7569 H   0  0  0  0  0  0  0  0  0  0  0  0
   16.7142   67.2642   -4.8028 O   0  0  0  0  0  0  0  0  0  0  0  0
   17.2273   67.8171   -2.6510 O   0  0  0  0  0  0  0  0  0  0  0  0
   17.0866   68.1265   -3.8247 C   0  0  0  0  0  0  0  0  0  0  0  0
  1  4  1  0
  1 24  1  0
  1  2  1  6
  1  3  2  0
 25 28  1  0
 25 24  1  0
 25 26  1  6
 25 27  2  0
  6 11  1  0
  6 12  1  0
 29 36  1  0
 29 37  1  0
  9  7  1  1
  7 13  1  0
 10  8  1  1
  8 14  1  0
  4  5  1  0
 36 28  1  1
 33 30  1  6
 30 38  1  0
 34 31  1  1
 31 39  1  0
 35 32  1  1
 32 40  1  0
 41 43  1  0
 15 19  2  0
 42 43  2  0
 16 22  2  0
 12 17  1  6
 17 19  1  0
 17 20  1  0
 18 19  1  0
 18 22  1  0
 18 23  1  0
  9 10  1  0
  9 11  1  0
 10 12  1  0
 11  5  1  6
 33 34  1  0
 33 35  1  0
 34 36  1  0
 35 37  1  0
 37 43  1  6
 20 21  2  0
 21 22  1  0
M  CHG  3   2  -1  26  -1  41  -1
M  END
>  <COMPND>  (10) 
    udp_gluA.pdb 

>  <AUTHOR>  (10) 
    GENERATED BY OPEN BABEL 3.1.1

>  <MASTER>  (10) 
        0    0    0    0    0    0    0    0   56    0   56    0

>  <minimizedAffinity>  (10) 
-8.93259

>  <CNNscore>  (10) 
0.3363478184

>  <CNNaffinity>  (10) 
4.1164445877

>  <CNN_VS>  (10) 
1.3845571280

>  <CNNaffinity_variance>  (10) 
0.9950658083

$$$$
11
     RDKit          3D

 43 45  0  0  0  0  0  0  0  0999 V2000
   23.3507   73.4180   -3.8731 P   0  0  2  0  0  0  0  0  0  0  0  0
   24.8164   74.0635   -4.1053 O   0  0  0  0  0  0  0  0  0  0  0  0
   22.4499   74.2019   -2.9644 O   0  0  0  0  0  0  0  0  0  0  0  0
   23.6637   71.8988   -3.4126 O   0  0  0  0  0  0  0  0  0  0  0  0
   22.5859   70.9859   -3.3160 C   0  0  0  0  0  0  0  0  0  0  0  0
   23.9556   70.0043   -1.6019 O   0  0  0  0  0  0  0  0  0  0  0  0
   22.4505   67.4621   -2.1149 O   0  0  0  0  0  0  0  0  0  0  0  0
   21.2574   68.4153    0.1443 O   0  0  0  0  0  0  0  0  0  0  0  0
   21.9824   68.8106   -2.1427 C   0  0  1  0  0  0  0  0  0  0  0  0
   21.8508   69.3489   -0.7338 C   0  0  2  0  0  0  0  0  0  0  0  0
   23.0929   69.6816   -2.7141 C   0  0  1  0  0  0  0  0  0  0  0  0
   23.2957   69.6520   -0.3757 C   0  0  2  0  0  0  0  0  0  0  0  0
   21.7579   66.8864   -1.7535 H   0  0  0  0  0  0  0  0  0  0  0  0
   20.3388   68.2563   -0.1256 H   0  0  0  0  0  0  0  0  0  0  0  0
   24.0722   69.3780    2.3259 O   0  0  0  0  0  0  0  0  0  0  0  0
   23.7145   73.9112    3.0784 O   0  0  0  0  0  0  0  0  0  0  0  0
   23.4137   70.7441    0.5486 N   0  0  0  0  0  0  0  0  0  0  0  0
   23.8923   71.6360    2.6984 N   0  0  0  0  0  0  0  0  0  0  0  0
   23.8111   70.4986    1.8842 C   0  0  0  0  0  0  0  0  0  0  0  0
   23.1392   72.0402    0.1294 C   0  0  0  0  0  0  0  0  0  0  0  0
   23.2211   73.1143    0.9171 C   0  0  0  0  0  0  0  0  0  0  0  0
   23.6286   72.9445    2.3272 C   0  0  0  0  0  0  0  0  0  0  0  0
   24.1650   71.4899    3.6331 H   0  0  0  0  0  0  0  0  0  0  0  0
   22.7927   73.2335   -5.3790 O   0  0  0  0  0  0  0  0  0  0  0  0
   21.9028   74.2121   -6.3085 P   0  0  2  0  0  0  0  0  0  0  0  0
   22.7632   74.3062   -7.6764 O   0  0  0  0  0  0  0  0  0  0  0  0
   21.5901   75.5401   -5.6820 O   0  0  0  0  0  0  0  0  0  0  0  0
   20.6068   73.3358   -6.7021 O   0  0  0  0  0  0  0  0  0  0  0  0
   19.8054   71.2415   -5.9399 O   0  0  0  0  0  0  0  0  0  0  0  0
   18.7962   71.1209   -9.9443 O   0  0  0  0  0  0  0  0  0  0  0  0
   21.3902   72.1677   -9.1017 O   0  0  0  0  0  0  0  0  0  0  0  0
   16.7510   71.6150   -7.9383 O   0  0  0  0  0  0  0  0  0  0  0  0
   19.0402   71.7371   -8.6798 C   0  0  2  0  0  0  0  0  0  0  0  0
   20.4842   71.4735   -8.2522 C   0  0  2  0  0  0  0  0  0  0  0  0
   18.0660   71.1351   -7.6646 C   0  0  1  0  0  0  0  0  0  0  0  0
   20.7166   71.9175   -6.8073 C   0  0  1  0  0  0  0  0  0  0  0  0
   18.4394   71.5228   -6.2367 C   0  0  1  0  0  0  0  0  0  0  0  0
   19.4039   71.4879  -10.6056 H   0  0  0  0  0  0  0  0  0  0  0  0
   21.2481   71.8911  -10.0202 H   0  0  0  0  0  0  0  0  0  0  0  0
   16.5012   71.3750   -8.8443 H   0  0  0  0  0  0  0  0  0  0  0  0
   16.4341   71.1352   -5.0836 O   0  0  0  0  0  0  0  0  0  0  0  0
   18.1660   69.7123   -4.6655 O   0  0  0  0  0  0  0  0  0  0  0  0
   17.7010   70.6805   -5.2481 C   0  0  0  0  0  0  0  0  0  0  0  0
  1  4  1  0
  1 24  1  0
  1  2  1  6
  1  3  2  0
 25 28  1  0
 25 24  1  0
 25 26  1  6
 25 27  2  0
  6 11  1  0
  6 12  1  0
 29 36  1  0
 29 37  1  0
  9  7  1  1
  7 13  1  0
 10  8  1  1
  8 14  1  0
  4  5  1  0
 36 28  1  6
 33 30  1  6
 30 38  1  0
 34 31  1  6
 31 39  1  0
 35 32  1  6
 32 40  1  0
 41 43  1  0
 15 19  2  0
 42 43  2  0
 16 22  2  0
 12 17  1  1
 17 19  1  0
 17 20  1  0
 18 19  1  0
 18 22  1  0
 18 23  1  0
  9 10  1  0
  9 11  1  0
 10 12  1  0
 11  5  1  1
 33 34  1  0
 33 35  1  0
 34 36  1  0
 35 37  1  0
 37 43  1  1
 20 21  2  0
 21 22  1  0
M  CHG  3   2  -1  26  -1  41  -1
M  END
>  <COMPND>  (11) 
    udp_gluA.pdb 

>  <AUTHOR>  (11) 
    GENERATED BY OPEN BABEL 3.1.1

>  <MASTER>  (11) 
        0    0    0    0    0    0    0    0   56    0   56    0

>  <minimizedAffinity>  (11) 
-8.41069

>  <CNNscore>  (11) 
0.3358431160

>  <CNNaffinity>  (11) 
4.1749229431

>  <CNN_VS>  (11) 
1.4021191597

>  <CNNaffinity_variance>  (11) 
0.2045346797

$$$$
12
     RDKit          3D

 43 45  0  0  0  0  0  0  0  0999 V2000
   22.4540   72.5119   -3.6613 P   0  0  2  0  0  0  0  0  0  0  0  0
   21.9676   70.9938   -3.9397 O   0  0  0  0  0  0  0  0  0  0  0  0
   23.8961   72.7828   -3.9755 O   0  0  0  0  0  0  0  0  0  0  0  0
   22.0038   72.7900   -2.1322 O   0  0  0  0  0  0  0  0  0  0  0  0
   22.8051   72.2713   -1.0866 C   0  0  0  0  0  0  0  0  0  0  0  0
   21.9665   70.0203   -0.9991 O   0  0  0  0  0  0  0  0  0  0  0  0
   21.5328   70.4937    1.9299 O   0  0  0  0  0  0  0  0  0  0  0  0
   23.8469   69.0515    1.8957 O   0  0  0  0  0  0  0  0  0  0  0  0
   22.5829   70.9637    1.0844 C   0  0  1  0  0  0  0  0  0  0  0  0
   23.5406   69.8362    0.7621 C   0  0  2  0  0  0  0  0  0  0  0  0
   21.9839   71.2730   -0.2808 C   0  0  1  0  0  0  0  0  0  0  0  0
   22.7718   69.0618   -0.2948 C   0  0  2  0  0  0  0  0  0  0  0  0
   21.8913   70.2894    2.8082 H   0  0  0  0  0  0  0  0  0  0  0  0
   24.3362   69.5893    2.5386 H   0  0  0  0  0  0  0  0  0  0  0  0
   23.1365   66.2647   -0.4346 O   0  0  0  0  0  0  0  0  0  0  0  0
   26.1233   66.6448   -3.9244 O   0  0  0  0  0  0  0  0  0  0  0  0
   23.6388   68.4031   -1.2304 N   0  0  0  0  0  0  0  0  0  0  0  0
   24.6245   66.4567   -2.1719 N   0  0  0  0  0  0  0  0  0  0  0  0
   23.7504   66.9926   -1.2170 C   0  0  0  0  0  0  0  0  0  0  0  0
   24.3654   69.1517   -2.1484 C   0  0  0  0  0  0  0  0  0  0  0  0
   25.1945   68.6266   -3.0526 C   0  0  0  0  0  0  0  0  0  0  0  0
   25.3690   67.1603   -3.1049 C   0  0  0  0  0  0  0  0  0  0  0  0
   24.7203   65.4769   -2.1805 H   0  0  0  0  0  0  0  0  0  0  0  0
   21.4018   73.3926   -4.5158 O   0  0  0  0  0  0  0  0  0  0  0  0
   21.2890   73.6635   -6.1056 P   0  0  2  0  0  0  0  0  0  0  0  0
   22.5665   72.8721   -6.7072 O   0  0  0  0  0  0  0  0  0  0  0  0
   21.2289   75.1161   -6.4800 O   0  0  0  0  0  0  0  0  0  0  0  0
   20.0133   72.7968   -6.5789 O   0  0  0  0  0  0  0  0  0  0  0  0
   19.0477   70.8152   -5.7130 O   0  0  0  0  0  0  0  0  0  0  0  0
   18.4470   70.3387   -9.7726 O   0  0  0  0  0  0  0  0  0  0  0  0
   20.9851   71.3745   -8.7627 O   0  0  0  0  0  0  0  0  0  0  0  0
   16.2319   71.0948   -8.0486 O   0  0  0  0  0  0  0  0  0  0  0  0
   18.5877   71.0666   -8.5527 C   0  0  2  0  0  0  0  0  0  0  0  0
   19.9678   70.7974   -7.9523 C   0  0  2  0  0  0  0  0  0  0  0  0
   17.4899   70.5998   -7.5941 C   0  0  1  0  0  0  0  0  0  0  0  0
   20.0711   71.3721   -6.5388 C   0  0  1  0  0  0  0  0  0  0  0  0
   17.7326   71.1121   -6.1773 C   0  0  1  0  0  0  0  0  0  0  0  0
   19.1344   70.6186  -10.3975 H   0  0  0  0  0  0  0  0  0  0  0  0
   20.9252   71.0145   -9.6611 H   0  0  0  0  0  0  0  0  0  0  0  0
   16.0653   70.7761   -8.9495 H   0  0  0  0  0  0  0  0  0  0  0  0
   17.1510   70.7791   -3.9296 O   0  0  0  0  0  0  0  0  0  0  0  0
   16.0021   69.5776   -5.4903 O   0  0  0  0  0  0  0  0  0  0  0  0
   16.8613   70.3957   -5.1976 C   0  0  0  0  0  0  0  0  0  0  0  0
  1  4  1  0
  1 24  1  0
  1  2  1  6
  1  3  2  0
 25 28  1  0
 25 24  1  0
 25 26  1  6
 25 27  2  0
  6 11  1  0
  6 12  1  0
 29 36  1  0
 29 37  1  0
  9  7  1  1
  7 13  1  0
 10  8  1  1
  8 14  1  0
  4  5  1  0
 36 28  1  6
 33 30  1  6
 30 38  1  0
 34 31  1  6
 31 39  1  0
 35 32  1  6
 32 40  1  0
 41 43  1  0
 15 19  2  0
 42 43  2  0
 16 22  2  0
 12 17  1  6
 17 19  1  0
 17 20  1  0
 18 19  1  0
 18 22  1  0
 18 23  1  0
  9 10  1  0
  9 11  1  0
 10 12  1  0
 11  5  1  6
 33 34  1  0
 33 35  1  0
 34 36  1  0
 35 37  1  0
 37 43  1  1
 20 21  2  0
 21 22  1  0
M  CHG  3   2  -1  26  -1  41  -1
M  END
>  <COMPND>  (12) 
    udp_gluA.pdb 

>  <AUTHOR>  (12) 
    GENERATED BY OPEN BABEL 3.1.1

>  <MASTER>  (12) 
        0    0    0    0    0    0    0    0   56    0   56    0

>  <minimizedAffinity>  (12) 
-9.36486

>  <CNNscore>  (12) 
0.3351767063

>  <CNNaffinity>  (12) 
4.2539124489

>  <CNN_VS>  (12) 
1.4258123636

>  <CNNaffinity_variance>  (12) 
0.5592442751

$$$$
13
     RDKit          3D

 43 45  0  0  0  0  0  0  0  0999 V2000
   22.2547   73.3868   -3.5893 P   0  0  2  0  0  0  0  0  0  0  0  0
   23.3521   72.9190   -4.6828 O   0  0  0  0  0  0  0  0  0  0  0  0
   22.4637   74.7638   -3.0309 O   0  0  0  0  0  0  0  0  0  0  0  0
   22.2469   72.1836   -2.5075 O   0  0  0  0  0  0  0  0  0  0  0  0
   22.0615   70.8588   -2.9710 C   0  0  0  0  0  0  0  0  0  0  0  0
   23.9850   70.6379   -1.5465 O   0  0  0  0  0  0  0  0  0  0  0  0
   24.2132   67.8402   -2.6011 O   0  0  0  0  0  0  0  0  0  0  0  0
   23.0441   67.4656   -0.1662 O   0  0  0  0  0  0  0  0  0  0  0  0
   23.0422   68.6050   -2.3142 C   0  0  1  0  0  0  0  0  0  0  0  0
   22.8321   68.7005   -0.8178 C   0  0  2  0  0  0  0  0  0  0  0  0
   23.3236   70.0536   -2.6895 C   0  0  1  0  0  0  0  0  0  0  0  0
   23.8536   69.7532   -0.4225 C   0  0  2  0  0  0  0  0  0  0  0  0
   24.0576   66.9108   -2.3694 H   0  0  0  0  0  0  0  0  0  0  0  0
   22.3685   66.8296   -0.4510 H   0  0  0  0  0  0  0  0  0  0  0  0
   24.1257   68.8810    2.2499 O   0  0  0  0  0  0  0  0  0  0  0  0
   22.2397   72.7506    3.8971 O   0  0  0  0  0  0  0  0  0  0  0  0
   23.4420   70.5128    0.7240 N   0  0  0  0  0  0  0  0  0  0  0  0
   23.1852   70.8087    3.0677 N   0  0  0  0  0  0  0  0  0  0  0  0
   23.6232   69.9834    2.0236 C   0  0  0  0  0  0  0  0  0  0  0  0
   22.8681   71.7671    0.5555 C   0  0  0  0  0  0  0  0  0  0  0  0
   22.4556   72.5421    1.5604 C   0  0  0  0  0  0  0  0  0  0  0  0
   22.6080   72.0627    2.9498 C   0  0  0  0  0  0  0  0  0  0  0  0
   23.2990   70.4606    3.9816 H   0  0  0  0  0  0  0  0  0  0  0  0
   20.8543   73.1823   -4.3703 O   0  0  0  0  0  0  0  0  0  0  0  0
   19.3403   73.5663   -3.9530 P   0  0  2  0  0  0  0  0  0  0  0  0
   18.9194   74.6684   -5.0613 O   0  0  0  0  0  0  0  0  0  0  0  0
   19.1917   74.0296   -2.5327 O   0  0  0  0  0  0  0  0  0  0  0  0
   18.4693   72.2606   -4.3259 O   0  0  0  0  0  0  0  0  0  0  0  0
   18.7086   69.9045   -4.3008 O   0  0  0  0  0  0  0  0  0  0  0  0
   17.1185   70.5480   -8.0592 O   0  0  0  0  0  0  0  0  0  0  0  0
   19.1984   72.3106   -7.0096 O   0  0  0  0  0  0  0  0  0  0  0  0
   15.4454   69.4953   -5.9276 O   0  0  0  0  0  0  0  0  0  0  0  0
   17.3261   70.8054   -6.6705 C   0  0  2  0  0  0  0  0  0  0  0  0
   18.8090   71.0772   -6.4164 C   0  0  2  0  0  0  0  0  0  0  0  0
   16.8691   69.5725   -5.8875 C   0  0  1  0  0  0  0  0  0  0  0  0
   19.1066   71.1297   -4.9172 C   0  0  1  0  0  0  0  0  0  0  0  0
   17.3129   69.6428   -4.4291 C   0  0  1  0  0  0  0  0  0  0  0  0
   17.4019   71.3180   -8.5769 H   0  0  0  0  0  0  0  0  0  0  0  0
   19.0121   72.2844   -7.9609 H   0  0  0  0  0  0  0  0  0  0  0  0
   15.1500   69.4503   -6.8504 H   0  0  0  0  0  0  0  0  0  0  0  0
   16.8467   67.3568   -4.6713 O   0  0  0  0  0  0  0  0  0  0  0  0
   17.2937   68.1099   -2.5660 O   0  0  0  0  0  0  0  0  0  0  0  0
   17.1580   68.3144   -3.7630 C   0  0  0  0  0  0  0  0  0  0  0  0
  1  4  1  0
  1 24  1  0
  1  2  1  6
  1  3  2  0
 25 28  1  0
 25 24  1  0
 25 26  1  6
 25 27  2  0
  6 11  1  0
  6 12  1  0
 29 36  1  0
 29 37  1  0
  9  7  1  1
  7 13  1  0
 10  8  1  1
  8 14  1  0
  4  5  1  0
 36 28  1  1
 33 30  1  6
 30 38  1  0
 34 31  1  1
 31 39  1  0
 35 32  1  1
 32 40  1  0
 41 43  1  0
 15 19  2  0
 42 43  2  0
 16 22  2  0
 12 17  1  1
 17 19  1  0
 17 20  1  0
 18 19  1  0
 18 22  1  0
 18 23  1  0
  9 10  1  0
  9 11  1  0
 10 12  1  0
 11  5  1  1
 33 34  1  0
 33 35  1  0
 34 36  1  0
 35 37  1  0
 37 43  1  6
 20 21  2  0
 21 22  1  0
M  CHG  3   2  -1  26  -1  41  -1
M  END
>  <COMPND>  (13) 
    udp_gluA.pdb 

>  <AUTHOR>  (13) 
    GENERATED BY OPEN BABEL 3.1.1

>  <MASTER>  (13) 
        0    0    0    0    0    0    0    0   56    0   56    0

>  <minimizedAffinity>  (13) 
-8.20210

>  <CNNscore>  (13) 
0.3292655945

>  <CNNaffinity>  (13) 
3.9722342491

>  <CNN_VS>  (13) 
1.3079200983

>  <CNNaffinity_variance>  (13) 
0.6272163391

$$$$
14
     RDKit          3D

 43 45  0  0  0  0  0  0  0  0999 V2000
   19.7569   74.6128   -3.0941 P   0  0  2  0  0  0  0  0  0  0  0  0
   19.1513   75.9993   -3.6682 O   0  0  0  0  0  0  0  0  0  0  0  0
   20.4058   73.7316   -4.1208 O   0  0  0  0  0  0  0  0  0  0  0  0
   18.5206   73.9548   -2.2838 O   0  0  0  0  0  0  0  0  0  0  0  0
   18.2634   72.5724   -2.4488 C   0  0  0  0  0  0  0  0  0  0  0  0
   16.7894   72.5619   -4.3475 O   0  0  0  0  0  0  0  0  0  0  0  0
   14.8566   71.0730   -2.6041 O   0  0  0  0  0  0  0  0  0  0  0  0
   15.9427   69.0853   -4.1225 O   0  0  0  0  0  0  0  0  0  0  0  0
   16.2813   70.9902   -2.6497 C   0  0  1  0  0  0  0  0  0  0  0  0
   16.7232   70.2386   -3.8875 C   0  0  2  0  0  0  0  0  0  0  0  0
   16.8248   72.3876   -2.9144 C   0  0  1  0  0  0  0  0  0  0  0  0
   16.5548   71.2896   -4.9715 C   0  0  2  0  0  0  0  0  0  0  0  0
   14.4864   70.1919   -2.4361 H   0  0  0  0  0  0  0  0  0  0  0  0
   16.0851   68.4470   -3.4054 H   0  0  0  0  0  0  0  0  0  0  0  0
   15.8210   70.7470   -7.6443 O   0  0  0  0  0  0  0  0  0  0  0  0
   20.2175   70.6552   -9.0248 O   0  0  0  0  0  0  0  0  0  0  0  0
   17.4873   71.1192   -6.0496 N   0  0  0  0  0  0  0  0  0  0  0  0
   18.0114   70.7008   -8.3291 N   0  0  0  0  0  0  0  0  0  0  0  0
   17.0148   70.8494   -7.3557 C   0  0  0  0  0  0  0  0  0  0  0  0
   18.8521   71.2213   -5.8087 C   0  0  0  0  0  0  0  0  0  0  0  0
   19.7901   71.0773   -6.7468 C   0  0  0  0  0  0  0  0  0  0  0  0
   19.3806   70.7928   -8.1378 C   0  0  0  0  0  0  0  0  0  0  0  0
   17.7068   70.5104   -9.2458 H   0  0  0  0  0  0  0  0  0  0  0  0
   20.7426   75.1089   -1.9129 O   0  0  0  0  0  0  0  0  0  0  0  0
   21.6627   74.2748   -0.8778 P   0  0  2  0  0  0  0  0  0  0  0  0
   20.8277   74.3548    0.5066 O   0  0  0  0  0  0  0  0  0  0  0  0
   23.0772   74.7677   -0.7762 O   0  0  0  0  0  0  0  0  0  0  0  0
   21.5212   72.7389   -1.3505 O   0  0  0  0  0  0  0  0  0  0  0  0
   23.3022   71.4575   -0.4586 O   0  0  0  0  0  0  0  0  0  0  0  0
   21.3191   68.6554   -2.7572 O   0  0  0  0  0  0  0  0  0  0  0  0
   21.7352   71.3673   -3.7606 O   0  0  0  0  0  0  0  0  0  0  0  0
   21.0464   68.6257    0.1368 O   0  0  0  0  0  0  0  0  0  0  0  0
   21.4391   69.8089   -1.9249 C   0  0  2  0  0  0  0  0  0  0  0  0
   22.3551   70.8320   -2.5971 C   0  0  2  0  0  0  0  0  0  0  0  0
   22.0296   69.3656   -0.5845 C   0  0  1  0  0  0  0  0  0  0  0  0
   22.6916   71.9768   -1.6406 C   0  0  1  0  0  0  0  0  0  0  0  0
   22.4556   70.5630    0.2600 C   0  0  1  0  0  0  0  0  0  0  0  0
   20.9458   68.9128   -3.6150 H   0  0  0  0  0  0  0  0  0  0  0  0
   21.5187   70.6463   -4.3719 H   0  0  0  0  0  0  0  0  0  0  0  0
   20.7666   67.8607   -0.3898 H   0  0  0  0  0  0  0  0  0  0  0  0
   23.6458   71.1860    2.1827 O   0  0  0  0  0  0  0  0  0  0  0  0
   23.6800   68.9799    1.6075 O   0  0  0  0  0  0  0  0  0  0  0  0
   23.3178   70.1283    1.4001 C   0  0  0  0  0  0  0  0  0  0  0  0
  1  4  1  0
  1 24  1  0
  1  2  1  6
  1  3  2  0
 25 28  1  0
 25 24  1  0
 25 26  1  1
 25 27  2  0
  6 11  1  0
  6 12  1  0
 29 36  1  0
 29 37  1  0
  9  7  1  6
  7 13  1  0
 10  8  1  6
  8 14  1  0
  4  5  1  0
 36 28  1  1
 33 30  1  6
 30 38  1  0
 34 31  1  6
 31 39  1  0
 35 32  1  1
 32 40  1  0
 41 43  1  0
 15 19  2  0
 42 43  2  0
 16 22  2  0
 12 17  1  6
 17 19  1  0
 17 20  1  0
 18 19  1  0
 18 22  1  0
 18 23  1  0
  9 10  1  0
  9 11  1  0
 10 12  1  0
 11  5  1  6
 33 34  1  0
 33 35  1  0
 34 36  1  0
 35 37  1  0
 37 43  1  1
 20 21  2  0
 21 22  1  0
M  CHG  3   2  -1  26  -1  41  -1
M  END
>  <COMPND>  (14) 
    udp_gluA.pdb 

>  <AUTHOR>  (14) 
    GENERATED BY OPEN BABEL 3.1.1

>  <MASTER>  (14) 
        0    0    0    0    0    0    0    0   56    0   56    0

>  <minimizedAffinity>  (14) 
-7.25805

>  <CNNscore>  (14) 
0.3249175549

>  <CNNaffinity>  (14) 
4.1274385452

>  <CNN_VS>  (14) 
1.3410772085

>  <CNNaffinity_variance>  (14) 
0.2334723473

$$$$
15
     RDKit          3D

 43 45  0  0  0  0  0  0  0  0999 V2000
   21.4294   69.8350   -2.3733 P   0  0  2  0  0  0  0  0  0  0  0  0
   20.7658   68.9779   -1.1717 O   0  0  0  0  0  0  0  0  0  0  0  0
   22.8695   69.5210   -2.6553 O   0  0  0  0  0  0  0  0  0  0  0  0
   21.1097   71.3709   -1.9774 O   0  0  0  0  0  0  0  0  0  0  0  0
   20.8094   72.2877   -3.0137 C   0  0  0  0  0  0  0  0  0  0  0  0
   22.5253   72.5127   -4.6818 O   0  0  0  0  0  0  0  0  0  0  0  0
   23.1325   75.1698   -3.4318 O   0  0  0  0  0  0  0  0  0  0  0  0
   21.6685   75.8638   -5.6252 O   0  0  0  0  0  0  0  0  0  0  0  0
   21.8730   74.5210   -3.6084 C   0  0  1  0  0  0  0  0  0  0  0  0
   21.4477   74.5885   -5.0599 C   0  0  2  0  0  0  0  0  0  0  0  0
   22.0822   73.0264   -3.4070 C   0  0  1  0  0  0  0  0  0  0  0  0
   22.3119   73.5110   -5.6923 C   0  0  2  0  0  0  0  0  0  0  0  0
   23.0242   76.1261   -3.5557 H   0  0  0  0  0  0  0  0  0  0  0  0
   21.0951   76.5143   -5.1892 H   0  0  0  0  0  0  0  0  0  0  0  0
   22.9516   74.0966   -8.3801 O   0  0  0  0  0  0  0  0  0  0  0  0
   19.8279   71.1018   -9.9670 O   0  0  0  0  0  0  0  0  0  0  0  0
   21.6813   72.8989   -6.8275 N   0  0  0  0  0  0  0  0  0  0  0  0
   21.3945   72.6052   -9.1679 N   0  0  0  0  0  0  0  0  0  0  0  0
   22.0762   73.2639   -8.1363 C   0  0  0  0  0  0  0  0  0  0  0  0
   20.6857   71.9481   -6.6389 C   0  0  0  0  0  0  0  0  0  0  0  0
   20.0450   71.3287   -7.6322 C   0  0  0  0  0  0  0  0  0  0  0  0
   20.3972   71.6533   -9.0300 C   0  0  0  0  0  0  0  0  0  0  0  0
   21.6507   72.8442  -10.0880 H   0  0  0  0  0  0  0  0  0  0  0  0
   20.4260   69.5623   -3.6108 O   0  0  0  0  0  0  0  0  0  0  0  0
   18.8441   69.2299   -3.6413 P   0  0  2  0  0  0  0  0  0  0  0  0
   18.3218   69.7860   -2.2136 O   0  0  0  0  0  0  0  0  0  0  0  0
   18.5231   67.7858   -3.8974 O   0  0  0  0  0  0  0  0  0  0  0  0
   18.2314   70.2545   -4.7263 O   0  0  0  0  0  0  0  0  0  0  0  0
   16.9949   72.1371   -3.9938 O   0  0  0  0  0  0  0  0  0  0  0  0
   15.8932   71.9023   -7.9686 O   0  0  0  0  0  0  0  0  0  0  0  0
   16.1057   69.4827   -6.3454 O   0  0  0  0  0  0  0  0  0  0  0  0
   17.7794   73.9344   -7.0948 O   0  0  0  0  0  0  0  0  0  0  0  0
   16.7664   71.7624   -6.8479 C   0  0  2  0  0  0  0  0  0  0  0  0
   16.1426   70.8081   -5.8292 C   0  0  2  0  0  0  0  0  0  0  0  0
   16.9653   73.1472   -6.2277 C   0  0  1  0  0  0  0  0  0  0  0  0
   16.9342   70.8111   -4.5207 C   0  0  1  0  0  0  0  0  0  0  0  0
   17.6495   73.0550   -4.8668 C   0  0  1  0  0  0  0  0  0  0  0  0
   15.7520   71.0346   -8.3790 H   0  0  0  0  0  0  0  0  0  0  0  0
   15.6052   69.4735   -7.1760 H   0  0  0  0  0  0  0  0  0  0  0  0
   17.3553   74.0008   -7.9646 H   0  0  0  0  0  0  0  0  0  0  0  0
   16.5808   75.1343   -4.6771 O   0  0  0  0  0  0  0  0  0  0  0  0
   18.2253   74.6686   -3.1679 O   0  0  0  0  0  0  0  0  0  0  0  0
   17.5438   74.3511   -4.1310 C   0  0  0  0  0  0  0  0  0  0  0  0
  1  4  1  0
  1 24  1  0
  1  2  1  1
  1  3  2  0
 25 28  1  0
 25 24  1  0
 25 26  1  1
 25 27  2  0
  6 11  1  0
  6 12  1  0
 29 36  1  0
 29 37  1  0
  9  7  1  6
  7 13  1  0
 10  8  1  6
  8 14  1  0
  4  5  1  0
 36 28  1  6
 33 30  1  6
 30 38  1  0
 34 31  1  6
 31 39  1  0
 35 32  1  6
 32 40  1  0
 41 43  1  0
 15 19  2  0
 42 43  2  0
 16 22  2  0
 12 17  1  6
 17 19  1  0
 17 20  1  0
 18 19  1  0
 18 22  1  0
 18 23  1  0
  9 10  1  0
  9 11  1  0
 10 12  1  0
 11  5  1  6
 33 34  1  0
 33 35  1  0
 34 36  1  0
 35 37  1  0
 37 43  1  1
 20 21  2  0
 21 22  1  0
M  CHG  3   2  -1  26  -1  41  -1
M  END
>  <COMPND>  (15) 
    udp_gluA.pdb 

>  <AUTHOR>  (15) 
    GENERATED BY OPEN BABEL 3.1.1

>  <MASTER>  (15) 
        0    0    0    0    0    0    0    0   56    0   56    0

>  <minimizedAffinity>  (15) 
-6.48062

>  <CNNscore>  (15) 
0.3047069311

>  <CNNaffinity>  (15) 
3.6644725800

>  <CNN_VS>  (15) 
1.1165901423

>  <CNNaffinity_variance>  (15) 
0.7150504589

$$$$
16
     RDKit          3D

 43 45  0  0  0  0  0  0  0  0999 V2000
   22.5278   71.0787   -2.6449 P   0  0  2  0  0  0  0  0  0  0  0  0
   21.8819   69.7336   -2.0185 O   0  0  0  0  0  0  0  0  0  0  0  0
   23.8555   70.8897   -3.3183 O   0  0  0  0  0  0  0  0  0  0  0  0
   22.5073   72.1290   -1.4144 O   0  0  0  0  0  0  0  0  0  0  0  0
   22.6324   71.6284   -0.0960 C   0  0  0  0  0  0  0  0  0  0  0  0
   22.1585   72.6696    2.0181 O   0  0  0  0  0  0  0  0  0  0  0  0
   19.6416   73.6850    0.7429 O   0  0  0  0  0  0  0  0  0  0  0  0
   21.2771   75.8651    0.6521 O   0  0  0  0  0  0  0  0  0  0  0  0
   20.9368   73.5065    0.1693 C   0  0  1  0  0  0  0  0  0  0  0  0
   21.8789   74.5874    0.6553 C   0  0  2  0  0  0  0  0  0  0  0  0
   21.5507   72.2523    0.7764 C   0  0  1  0  0  0  0  0  0  0  0  0
   22.2180   74.1043    2.0551 C   0  0  2  0  0  0  0  0  0  0  0  0
   19.2294   74.4806    0.3703 H   0  0  0  0  0  0  0  0  0  0  0  0
   21.0809   76.1278   -0.2614 H   0  0  0  0  0  0  0  0  0  0  0  0
   22.8343   76.6200    3.1811 O   0  0  0  0  0  0  0  0  0  0  0  0
   27.2941   75.5388    3.6114 O   0  0  0  0  0  0  0  0  0  0  0  0
   23.5320   74.5065    2.4704 N   0  0  0  0  0  0  0  0  0  0  0  0
   25.0551   76.0795    3.3934 N   0  0  0  0  0  0  0  0  0  0  0  0
   23.7344   75.7928    3.0241 C   0  0  0  0  0  0  0  0  0  0  0  0
   24.6022   73.6315    2.3294 C   0  0  0  0  0  0  0  0  0  0  0  0
   25.8555   73.9189    2.6861 C   0  0  0  0  0  0  0  0  0  0  0  0
   26.1525   75.2424    3.2721 C   0  0  0  0  0  0  0  0  0  0  0  0
   25.2211   76.9699    3.7794 H   0  0  0  0  0  0  0  0  0  0  0  0
   21.3548   71.6285   -3.6116 O   0  0  0  0  0  0  0  0  0  0  0  0
   21.3178   72.8868   -4.6259 P   0  0  2  0  0  0  0  0  0  0  0  0
   22.6954   72.7292   -5.4611 O   0  0  0  0  0  0  0  0  0  0  0  0
   21.1528   74.2175   -3.9506 O   0  0  0  0  0  0  0  0  0  0  0  0
   20.1559   72.5249   -5.6849 O   0  0  0  0  0  0  0  0  0  0  0  0
   18.8042   70.5806   -5.6419 O   0  0  0  0  0  0  0  0  0  0  0  0
   18.7177   71.5759   -9.6506 O   0  0  0  0  0  0  0  0  0  0  0  0
   21.2108   71.7427   -8.1368 O   0  0  0  0  0  0  0  0  0  0  0  0
   16.4139   72.1178   -7.9625 O   0  0  0  0  0  0  0  0  0  0  0  0
   18.7886   71.8263   -8.2469 C   0  0  2  0  0  0  0  0  0  0  0  0
   20.0176   71.1283   -7.6639 C   0  0  2  0  0  0  0  0  0  0  0  0
   17.5116   71.2804   -7.6041 C   0  0  1  0  0  0  0  0  0  0  0  0
   20.0026   71.1802   -6.1356 C   0  0  1  0  0  0  0  0  0  0  0  0
   17.6237   71.2478   -6.0827 C   0  0  1  0  0  0  0  0  0  0  0  0
   19.5190   71.9143  -10.0804 H   0  0  0  0  0  0  0  0  0  0  0  0
   21.2267   71.7136   -9.1060 H   0  0  0  0  0  0  0  0  0  0  0  0
   16.3316   72.1473   -8.9285 H   0  0  0  0  0  0  0  0  0  0  0  0
   15.9103   69.6874   -6.4443 O   0  0  0  0  0  0  0  0  0  0  0  0
   16.2296   70.4040   -4.3034 O   0  0  0  0  0  0  0  0  0  0  0  0
   16.5298   70.4223   -5.4877 C   0  0  0  0  0  0  0  0  0  0  0  0
  1  4  1  0
  1 24  1  0
  1  2  1  1
  1  3  2  0
 25 28  1  0
 25 24  1  0
 25 26  1  6
 25 27  2  0
  6 11  1  0
  6 12  1  0
 29 36  1  0
 29 37  1  0
  9  7  1  1
  7 13  1  0
 10  8  1  1
  8 14  1  0
  4  5  1  0
 36 28  1  6
 33 30  1  6
 30 38  1  0
 34 31  1  6
 31 39  1  0
 35 32  1  1
 32 40  1  0
 41 43  1  0
 15 19  2  0
 42 43  2  0
 16 22  2  0
 12 17  1  6
 17 19  1  0
 17 20  1  0
 18 19  1  0
 18 22  1  0
 18 23  1  0
  9 10  1  0
  9 11  1  0
 10 12  1  0
 11  5  1  6
 33 34  1  0
 33 35  1  0
 34 36  1  0
 35 37  1  0
 37 43  1  1
 20 21  2  0
 21 22  1  0
M  CHG  3   2  -1  26  -1  41  -1
M  END
>  <COMPND>  (16) 
    udp_gluA.pdb 

>  <AUTHOR>  (16) 
    GENERATED BY OPEN BABEL 3.1.1

>  <MASTER>  (16) 
        0    0    0    0    0    0    0    0   56    0   56    0

>  <minimizedAffinity>  (16) 
-6.83484

>  <CNNscore>  (16) 
0.2930350304

>  <CNNaffinity>  (16) 
4.0158100128

>  <CNN_VS>  (16) 
1.1767729521

>  <CNNaffinity_variance>  (16) 
0.0203378182

$$$$
17
     RDKit          3D

 43 45  0  0  0  0  0  0  0  0999 V2000
   22.3615   71.7446   -3.1548 P   0  0  2  0  0  0  0  0  0  0  0  0
   21.6805   70.2828   -3.2895 O   0  0  0  0  0  0  0  0  0  0  0  0
   23.7411   71.8567   -3.7345 O   0  0  0  0  0  0  0  0  0  0  0  0
   22.2312   72.0903   -1.5795 O   0  0  0  0  0  0  0  0  0  0  0  0
   21.8609   71.0543   -0.6883 C   0  0  0  0  0  0  0  0  0  0  0  0
   23.8415   71.8168    0.4402 O   0  0  0  0  0  0  0  0  0  0  0  0
   23.8360   69.1676    1.8450 O   0  0  0  0  0  0  0  0  0  0  0  0
   22.7802   70.8399    3.7225 O   0  0  0  0  0  0  0  0  0  0  0  0
   22.7327   69.9821    1.4478 C   0  0  1  0  0  0  0  0  0  0  0  0
   22.6109   71.1822    2.3628 C   0  0  2  0  0  0  0  0  0  0  0  0
   23.0835   70.6313    0.1159 C   0  0  1  0  0  0  0  0  0  0  0  0
   23.7165   72.0867    1.8455 C   0  0  2  0  0  0  0  0  0  0  0  0
   23.6353   68.7422    2.6938 H   0  0  0  0  0  0  0  0  0  0  0  0
   22.0516   70.2639    4.0040 H   0  0  0  0  0  0  0  0  0  0  0  0
   25.6600   74.1006    2.2239 O   0  0  0  0  0  0  0  0  0  0  0  0
   22.4506   77.3937    2.5385 O   0  0  0  0  0  0  0  0  0  0  0  0
   23.4165   73.4786    2.0287 N   0  0  0  0  0  0  0  0  0  0  0  0
   24.0596   75.7387    2.3812 N   0  0  0  0  0  0  0  0  0  0  0  0
   24.4668   74.4090    2.2110 C   0  0  0  0  0  0  0  0  0  0  0  0
   22.0955   73.9097    2.0251 C   0  0  0  0  0  0  0  0  0  0  0  0
   21.7229   75.1806    2.1885 C   0  0  0  0  0  0  0  0  0  0  0  0
   22.7588   76.2156    2.3858 C   0  0  0  0  0  0  0  0  0  0  0  0
   24.7731   76.4045    2.5119 H   0  0  0  0  0  0  0  0  0  0  0  0
   21.2650   72.7197   -3.8327 O   0  0  0  0  0  0  0  0  0  0  0  0
   21.1903   73.3663   -5.3126 P   0  0  2  0  0  0  0  0  0  0  0  0
   22.4952   72.7547   -6.0497 O   0  0  0  0  0  0  0  0  0  0  0  0
   21.1182   74.8658   -5.3264 O   0  0  0  0  0  0  0  0  0  0  0  0
   19.9409   72.6294   -6.0186 O   0  0  0  0  0  0  0  0  0  0  0  0
   18.8983   70.5443   -5.6010 O   0  0  0  0  0  0  0  0  0  0  0  0
   18.5790   70.8358   -9.7096 O   0  0  0  0  0  0  0  0  0  0  0  0
   21.0498   71.6116   -8.3576 O   0  0  0  0  0  0  0  0  0  0  0  0
   16.2558   71.3112   -8.0281 O   0  0  0  0  0  0  0  0  0  0  0  0
   18.6408   71.3238   -8.3694 C   0  0  2  0  0  0  0  0  0  0  0  0
   19.9728   70.9181   -7.7380 C   0  0  2  0  0  0  0  0  0  0  0  0
   17.4742   70.7132   -7.5896 C   0  0  1  0  0  0  0  0  0  0  0  0
   19.9823   71.2207   -6.2390 C   0  0  1  0  0  0  0  0  0  0  0  0
   17.6219   70.9507   -6.0895 C   0  0  1  0  0  0  0  0  0  0  0  0
   19.3110   71.2105  -10.2244 H   0  0  0  0  0  0  0  0  0  0  0  0
   21.0496   71.4243   -9.3091 H   0  0  0  0  0  0  0  0  0  0  0  0
   16.1497   71.1674   -8.9815 H   0  0  0  0  0  0  0  0  0  0  0  0
   16.6497   70.4509   -4.0142 O   0  0  0  0  0  0  0  0  0  0  0  0
   16.0153   69.1750   -5.7943 O   0  0  0  0  0  0  0  0  0  0  0  0
   16.6773   70.0859   -5.3200 C   0  0  0  0  0  0  0  0  0  0  0  0
  1  4  1  0
  1 24  1  0
  1  2  1  1
  1  3  2  0
 25 28  1  0
 25 24  1  0
 25 26  1  6
 25 27  2  0
  6 11  1  0
  6 12  1  0
 29 36  1  0
 29 37  1  0
  9  7  1  1
  7 13  1  0
 10  8  1  1
  8 14  1  0
  4  5  1  0
 36 28  1  6
 33 30  1  6
 30 38  1  0
 34 31  1  6
 31 39  1  0
 35 32  1  6
 32 40  1  0
 41 43  1  0
 15 19  2  0
 42 43  2  0
 16 22  2  0
 12 17  1  6
 17 19  1  0
 17 20  1  0
 18 19  1  0
 18 22  1  0
 18 23  1  0
  9 10  1  0
  9 11  1  0
 10 12  1  0
 11  5  1  1
 33 34  1  0
 33 35  1  0
 34 36  1  0
 35 37  1  0
 37 43  1  1
 20 21  2  0
 21 22  1  0
M  CHG  3   2  -1  26  -1  41  -1
M  END
>  <COMPND>  (17) 
    udp_gluA.pdb 

>  <AUTHOR>  (17) 
    GENERATED BY OPEN BABEL 3.1.1

>  <MASTER>  (17) 
        0    0    0    0    0    0    0    0   56    0   56    0

>  <minimizedAffinity>  (17) 
-7.92165

>  <CNNscore>  (17) 
0.2908433080

>  <CNNaffinity>  (17) 
4.0592494011

>  <CNN_VS>  (17) 
1.1806055307

>  <CNNaffinity_variance>  (17) 
0.0583739653

$$$$
18
     RDKit          3D

 43 45  0  0  0  0  0  0  0  0999 V2000
   22.3876   72.9041   -3.8477 P   0  0  2  0  0  0  0  0  0  0  0  0
   23.9036   72.8526   -4.4116 O   0  0  0  0  0  0  0  0  0  0  0  0
   21.9323   74.2542   -3.3769 O   0  0  0  0  0  0  0  0  0  0  0  0
   22.3437   71.7230   -2.7428 O   0  0  0  0  0  0  0  0  0  0  0  0
   22.4934   72.0682   -1.3778 C   0  0  0  0  0  0  0  0  0  0  0  0
   21.8501   69.7608   -1.1779 O   0  0  0  0  0  0  0  0  0  0  0  0
   21.3618   70.3414    1.7231 O   0  0  0  0  0  0  0  0  0  0  0  0
   23.7910   69.1031    1.7639 O   0  0  0  0  0  0  0  0  0  0  0  0
   22.3723   70.8568    0.8560 C   0  0  1  0  0  0  0  0  0  0  0  0
   23.4247   69.8009    0.5920 C   0  0  2  0  0  0  0  0  0  0  0  0
   21.7563   71.0447   -0.5236 C   0  0  1  0  0  0  0  0  0  0  0  0
   22.7307   68.9114   -0.4254 C   0  0  2  0  0  0  0  0  0  0  0  0
   21.7318   70.2129    2.6110 H   0  0  0  0  0  0  0  0  0  0  0  0
   24.2290   69.7125    2.3794 H   0  0  0  0  0  0  0  0  0  0  0  0
   23.2282   66.1328   -0.5189 O   0  0  0  0  0  0  0  0  0  0  0  0
   26.3015   66.6128   -3.9202 O   0  0  0  0  0  0  0  0  0  0  0  0
   23.6559   68.2833   -1.3257 N   0  0  0  0  0  0  0  0  0  0  0  0
   24.7592   66.3746   -2.2122 N   0  0  0  0  0  0  0  0  0  0  0  0
   23.8319   66.8798   -1.2913 C   0  0  0  0  0  0  0  0  0  0  0  0
   24.3754   69.0547   -2.2303 C   0  0  0  0  0  0  0  0  0  0  0  0
   25.2557   68.5588   -3.1021 C   0  0  0  0  0  0  0  0  0  0  0  0
   25.4991   67.1016   -3.1306 C   0  0  0  0  0  0  0  0  0  0  0  0
   24.9003   65.4003   -2.2056 H   0  0  0  0  0  0  0  0  0  0  0  0
   21.5249   72.2910   -5.0695 O   0  0  0  0  0  0  0  0  0  0  0  0
   20.1051   72.7418   -5.6975 P   0  0  2  0  0  0  0  0  0  0  0  0
   20.2537   72.3561   -7.2626 O   0  0  0  0  0  0  0  0  0  0  0  0
   19.7486   74.1782   -5.4457 O   0  0  0  0  0  0  0  0  0  0  0  0
   19.0431   71.6764   -5.1148 O   0  0  0  0  0  0  0  0  0  0  0  0
   17.7256   71.7891   -3.1499 O   0  0  0  0  0  0  0  0  0  0  0  0
   18.3604   67.7222   -3.5042 O   0  0  0  0  0  0  0  0  0  0  0  0
   20.5344   69.6092   -4.0017 O   0  0  0  0  0  0  0  0  0  0  0  0
   15.7824   68.8639   -4.2125 O   0  0  0  0  0  0  0  0  0  0  0  0
   18.1720   69.0574   -3.9729 C   0  0  2  0  0  0  0  0  0  0  0  0
   19.2813   69.9542   -3.4226 C   0  0  2  0  0  0  0  0  0  0  0  0
   16.8048   69.5415   -3.4846 C   0  0  1  0  0  0  0  0  0  0  0  0
   18.9878   71.4271   -3.7114 C   0  0  1  0  0  0  0  0  0  0  0  0
   16.6385   71.0439   -3.6938 C   0  0  1  0  0  0  0  0  0  0  0  0
   19.2231   67.3934   -3.8024 H   0  0  0  0  0  0  0  0  0  0  0  0
   20.7268   68.6758   -3.8226 H   0  0  0  0  0  0  0  0  0  0  0  0
   15.8771   67.9066   -4.0879 H   0  0  0  0  0  0  0  0  0  0  0  0
   15.0581   72.7557   -3.4222 O   0  0  0  0  0  0  0  0  0  0  0  0
   14.9315   70.9864   -1.9896 O   0  0  0  0  0  0  0  0  0  0  0  0
   15.4628   71.5590   -2.9292 C   0  0  0  0  0  0  0  0  0  0  0  0
  1  4  1  0
  1 24  1  0
  1  2  1  6
  1  3  2  0
 25 28  1  0
 25 24  1  0
 25 26  1  6
 25 27  2  0
  6 11  1  0
  6 12  1  0
 29 36  1  0
 29 37  1  0
  9  7  1  1
  7 13  1  0
 10  8  1  1
  8 14  1  0
  4  5  1  0
 36 28  1  6
 33 30  1  1
 30 38  1  0
 34 31  1  6
 31 39  1  0
 35 32  1  6
 32 40  1  0
 41 43  1  0
 15 19  2  0
 42 43  2  0
 16 22  2  0
 12 17  1  6
 17 19  1  0
 17 20  1  0
 18 19  1  0
 18 22  1  0
 18 23  1  0
  9 10  1  0
  9 11  1  0
 10 12  1  0
 11  5  1  6
 33 34  1  0
 33 35  1  0
 34 36  1  0
 35 37  1  0
 37 43  1  1
 20 21  2  0
 21 22  1  0
M  CHG  3   2  -1  26  -1  41  -1
M  END
>  <COMPND>  (18) 
    udp_gluA.pdb 

>  <AUTHOR>  (18) 
    GENERATED BY OPEN BABEL 3.1.1

>  <MASTER>  (18) 
        0    0    0    0    0    0    0    0   56    0   56    0

>  <minimizedAffinity>  (18) 
-8.64322

>  <CNNscore>  (18) 
0.2837235034

>  <CNNaffinity>  (18) 
4.0057439804

>  <CNN_VS>  (18) 
1.1365237236

>  <CNNaffinity_variance>  (18) 
1.1050760746

$$$$
19
     RDKit          3D

 43 45  0  0  0  0  0  0  0  0999 V2000
   22.1675   69.5000    0.1984 P   0  0  2  0  0  0  0  0  0  0  0  0
   23.4362   68.6668    0.7596 O   0  0  0  0  0  0  0  0  0  0  0  0
   20.9262   68.6877   -0.0283 O   0  0  0  0  0  0  0  0  0  0  0  0
   22.7511   70.2686   -1.1003 O   0  0  0  0  0  0  0  0  0  0  0  0
   22.1179   70.0617   -2.3496 C   0  0  0  0  0  0  0  0  0  0  0  0
   20.7821   71.1764   -4.0082 O   0  0  0  0  0  0  0  0  0  0  0  0
   21.1390   73.6562   -2.3604 O   0  0  0  0  0  0  0  0  0  0  0  0
   18.6294   72.8401   -1.6732 O   0  0  0  0  0  0  0  0  0  0  0  0
   20.9863   72.3021   -1.9341 C   0  0  1  0  0  0  0  0  0  0  0  0
   19.5488   71.8582   -2.1036 C   0  0  2  0  0  0  0  0  0  0  0  0
   21.7146   71.4108   -2.9308 C   0  0  1  0  0  0  0  0  0  0  0  0
   19.4723   71.6010   -3.5989 C   0  0  2  0  0  0  0  0  0  0  0  0
   20.6818   74.2447   -1.7389 H   0  0  0  0  0  0  0  0  0  0  0  0
   18.7172   72.9673   -0.7150 H   0  0  0  0  0  0  0  0  0  0  0  0
   17.6985   71.7188   -5.7935 O   0  0  0  0  0  0  0  0  0  0  0  0
   15.8774   67.6087   -4.7762 O   0  0  0  0  0  0  0  0  0  0  0  0
   18.5241   70.5755   -3.9308 N   0  0  0  0  0  0  0  0  0  0  0  0
   16.7925   69.6721   -5.2842 N   0  0  0  0  0  0  0  0  0  0  0  0
   17.6788   70.7327   -5.0545 C   0  0  0  0  0  0  0  0  0  0  0  0
   18.4394   69.4299   -3.1489 C   0  0  0  0  0  0  0  0  0  0  0  0
   17.5897   68.4273   -3.3805 C   0  0  0  0  0  0  0  0  0  0  0  0
   16.6710   68.5133   -4.5346 C   0  0  0  0  0  0  0  0  0  0  0  0
   16.1924   69.7598   -6.0597 H   0  0  0  0  0  0  0  0  0  0  0  0
   22.0058   70.6886    1.2819 O   0  0  0  0  0  0  0  0  0  0  0  0
   23.0112   71.2222    2.4300 P   0  0  2  0  0  0  0  0  0  0  0  0
   24.4056   71.4282    1.6340 O   0  0  0  0  0  0  0  0  0  0  0  0
   23.1102   70.3232    3.6283 O   0  0  0  0  0  0  0  0  0  0  0  0
   22.5034   72.7184    2.7557 O   0  0  0  0  0  0  0  0  0  0  0  0
   24.1341   74.0310    3.8633 O   0  0  0  0  0  0  0  0  0  0  0  0
   20.8179   76.4889    4.0352 O   0  0  0  0  0  0  0  0  0  0  0  0
   20.5632   73.6214    4.5322 O   0  0  0  0  0  0  0  0  0  0  0  0
   22.9553   77.0521    2.1470 O   0  0  0  0  0  0  0  0  0  0  0  0
   21.6777   75.4979    3.4725 C   0  0  2  0  0  0  0  0  0  0  0  0
   21.8000   74.3187    4.4379 C   0  0  2  0  0  0  0  0  0  0  0  0
   23.0477   76.1382    3.2382 C   0  0  1  0  0  0  0  0  0  0  0  0
   22.8865   73.3456    3.9782 C   0  0  1  0  0  0  0  0  0  0  0  0
   24.1041   75.0881    2.9069 C   0  0  1  0  0  0  0  0  0  0  0  0
   19.9410   76.1047    4.1929 H   0  0  0  0  0  0  0  0  0  0  0  0
   19.8691   74.2329    4.8232 H   0  0  0  0  0  0  0  0  0  0  0  0
   22.2860   77.7257    2.3451 H   0  0  0  0  0  0  0  0  0  0  0  0
   25.4231   76.9622    3.4064 O   0  0  0  0  0  0  0  0  0  0  0  0
   26.5124   75.0659    2.7610 O   0  0  0  0  0  0  0  0  0  0  0  0
   25.4775   75.6681    3.0048 C   0  0  0  0  0  0  0  0  0  0  0  0
  1  4  1  0
  1 24  1  0
  1  2  1  1
  1  3  2  0
 25 28  1  0
 25 24  1  0
 25 26  1  6
 25 27  2  0
  6 11  1  0
  6 12  1  0
 29 36  1  0
 29 37  1  0
  9  7  1  6
  7 13  1  0
 10  8  1  6
  8 14  1  0
  4  5  1  0
 36 28  1  6
 33 30  1  1
 30 38  1  0
 34 31  1  6
 31 39  1  0
 35 32  1  6
 32 40  1  0
 41 43  1  0
 15 19  2  0
 42 43  2  0
 16 22  2  0
 12 17  1  1
 17 19  1  0
 17 20  1  0
 18 19  1  0
 18 22  1  0
 18 23  1  0
  9 10  1  0
  9 11  1  0
 10 12  1  0
 11  5  1  1
 33 34  1  0
 33 35  1  0
 34 36  1  0
 35 37  1  0
 37 43  1  1
 20 21  2  0
 21 22  1  0
M  CHG  3   2  -1  26  -1  41  -1
M  END
>  <COMPND>  (19) 
    udp_gluA.pdb 

>  <AUTHOR>  (19) 
    GENERATED BY OPEN BABEL 3.1.1

>  <MASTER>  (19) 
        0    0    0    0    0    0    0    0   56    0   56    0

>  <minimizedAffinity>  (19) 
-7.19269

>  <CNNscore>  (19) 
0.2812635601

>  <CNNaffinity>  (19) 
4.0395812988

>  <CNN_VS>  (19) 
1.1361870766

>  <CNNaffinity_variance>  (19) 
0.0694265515

$$$$
20
     RDKit          3D

 43 45  0  0  0  0  0  0  0  0999 V2000
   20.7979   72.4646   -2.6873 P   0  0  2  0  0  0  0  0  0  0  0  0
   19.2090   72.3362   -2.4084 O   0  0  0  0  0  0  0  0  0  0  0  0
   21.4810   71.1822   -3.0624 O   0  0  0  0  0  0  0  0  0  0  0  0
   21.3662   73.2026   -1.3643 O   0  0  0  0  0  0  0  0  0  0  0  0
   22.6376   72.8219   -0.8712 C   0  0  0  0  0  0  0  0  0  0  0  0
   23.5134   72.0165    1.2173 O   0  0  0  0  0  0  0  0  0  0  0  0
   20.8196   70.7740    1.6545 O   0  0  0  0  0  0  0  0  0  0  0  0
   20.6970   73.0202    3.1958 O   0  0  0  0  0  0  0  0  0  0  0  0
   21.1521   72.0140    1.0296 C   0  0  1  0  0  0  0  0  0  0  0  0
   21.5530   73.0357    2.0726 C   0  0  2  0  0  0  0  0  0  0  0  0
   22.4510   71.8185    0.2595 C   0  0  1  0  0  0  0  0  0  0  0  0
   22.9692   72.6023    2.4106 C   0  0  2  0  0  0  0  0  0  0  0  0
   19.9929   70.8742    2.1528 H   0  0  0  0  0  0  0  0  0  0  0  0
   19.8081   73.3039    2.9288 H   0  0  0  0  0  0  0  0  0  0  0  0
   23.1442   73.5915    5.0502 O   0  0  0  0  0  0  0  0  0  0  0  0
   26.1844   76.8332    3.8284 O   0  0  0  0  0  0  0  0  0  0  0  0
   23.7987   73.7038    2.8102 N   0  0  0  0  0  0  0  0  0  0  0  0
   24.6574   75.2057    4.4390 N   0  0  0  0  0  0  0  0  0  0  0  0
   23.8136   74.1221    4.1618 C   0  0  0  0  0  0  0  0  0  0  0  0
   24.5864   74.3559    1.8694 C   0  0  0  0  0  0  0  0  0  0  0  0
   25.3858   75.3872    2.1487 C   0  0  0  0  0  0  0  0  0  0  0  0
   25.4590   75.8869    3.5373 C   0  0  0  0  0  0  0  0  0  0  0  0
   24.6831   75.5163    5.3729 H   0  0  0  0  0  0  0  0  0  0  0  0
   20.8764   73.6232   -3.8118 O   0  0  0  0  0  0  0  0  0  0  0  0
   20.6461   73.5676   -5.4110 P   0  0  2  0  0  0  0  0  0  0  0  0
   21.8840   72.6638   -5.9317 O   0  0  0  0  0  0  0  0  0  0  0  0
   20.5456   74.9148   -6.0659 O   0  0  0  0  0  0  0  0  0  0  0  0
   19.3476   72.6302   -5.6052 O   0  0  0  0  0  0  0  0  0  0  0  0
   19.2711   70.2749   -5.3687 O   0  0  0  0  0  0  0  0  0  0  0  0
   16.1707   70.9555   -8.0130 O   0  0  0  0  0  0  0  0  0  0  0  0
   18.7022   72.3852   -8.2995 O   0  0  0  0  0  0  0  0  0  0  0  0
   15.6054   70.3479   -5.2269 O   0  0  0  0  0  0  0  0  0  0  0  0
   17.0485   71.2576   -6.9284 C   0  0  2  0  0  0  0  0  0  0  0  0
   18.4927   71.2788   -7.4296 C   0  0  2  0  0  0  0  0  0  0  0  0
   16.8713   70.1753   -5.8612 C   0  0  1  0  0  0  0  0  0  0  0  0
   19.4758   71.3704   -6.2618 C   0  0  1  0  0  0  0  0  0  0  0  0
   17.9640   70.2560   -4.7991 C   0  0  1  0  0  0  0  0  0  0  0  0
   16.2659   71.6301   -8.7037 H   0  0  0  0  0  0  0  0  0  0  0  0
   18.0815   72.3336   -9.0428 H   0  0  0  0  0  0  0  0  0  0  0  0
   14.9011   70.2988   -5.8920 H   0  0  0  0  0  0  0  0  0  0  0  0
   19.2453   68.5449   -3.8337 O   0  0  0  0  0  0  0  0  0  0  0  0
   16.9975   68.5019   -3.4536 O   0  0  0  0  0  0  0  0  0  0  0  0
   17.9813   69.0194   -3.9607 C   0  0  0  0  0  0  0  0  0  0  0  0
  1  4  1  0
  1 24  1  0
  1  2  1  1
  1  3  2  0
 25 28  1  0
 25 24  1  0
 25 26  1  6
 25 27  2  0
  6 11  1  0
  6 12  1  0
 29 36  1  0
 29 37  1  0
  9  7  1  1
  7 13  1  0
 10  8  1  1
  8 14  1  0
  4  5  1  0
 36 28  1  1
 33 30  1  6
 30 38  1  0
 34 31  1  6
 31 39  1  0
 35 32  1  1
 32 40  1  0
 41 43  1  0
 15 19  2  0
 42 43  2  0
 16 22  2  0
 12 17  1  6
 17 19  1  0
 17 20  1  0
 18 19  1  0
 18 22  1  0
 18 23  1  0
  9 10  1  0
  9 11  1  0
 10 12  1  0
 11  5  1  6
 33 34  1  0
 33 35  1  0
 34 36  1  0
 35 37  1  0
 37 43  1  1
 20 21  2  0
 21 22  1  0
M  CHG  3   2  -1  26  -1  41  -1
M  END
>  <COMPND>  (20) 
    udp_gluA.pdb 

>  <AUTHOR>  (20) 
    GENERATED BY OPEN BABEL 3.1.1

>  <MASTER>  (20) 
        0    0    0    0    0    0    0    0   56    0   56    0

>  <minimizedAffinity>  (20) 
-6.80726

>  <CNNscore>  (20) 
0.2793842554

>  <CNNaffinity>  (20) 
3.8202242851

>  <CNN_VS>  (20) 
1.0673105717

>  <CNNaffinity_variance>  (20) 
0.1319654286

$$$$
21
     RDKit          3D

 43 45  0  0  0  0  0  0  0  0999 V2000
   22.5988   73.2564   -3.9148 P   0  0  2  0  0  0  0  0  0  0  0  0
   22.3355   74.6197   -4.7459 O   0  0  0  0  0  0  0  0  0  0  0  0
   23.9986   72.7226   -4.0002 O   0  0  0  0  0  0  0  0  0  0  0  0
   21.4335   72.2577   -4.4273 O   0  0  0  0  0  0  0  0  0  0  0  0
   20.7817   71.4351   -3.4771 C   0  0  0  0  0  0  0  0  0  0  0  0
   18.8935   72.2778   -4.7027 O   0  0  0  0  0  0  0  0  0  0  0  0
   17.2055   71.2405   -2.4519 O   0  0  0  0  0  0  0  0  0  0  0  0
   16.8979   69.3188   -4.3620 O   0  0  0  0  0  0  0  0  0  0  0  0
   18.3932   70.6878   -3.0197 C   0  0  1  0  0  0  0  0  0  0  0  0
   18.0917   70.0732   -4.3701 C   0  0  2  0  0  0  0  0  0  0  0  0
   19.3157   71.8402   -3.3929 C   0  0  1  0  0  0  0  0  0  0  0  0
   18.0024   71.2998   -5.2620 C   0  0  2  0  0  0  0  0  0  0  0  0
   16.6004   70.5230   -2.2054 H   0  0  0  0  0  0  0  0  0  0  0  0
   17.0056   68.5493   -3.7804 H   0  0  0  0  0  0  0  0  0  0  0  0
   16.2343   70.4954   -7.3122 O   0  0  0  0  0  0  0  0  0  0  0  0
   19.6389   70.2714  -10.4109 O   0  0  0  0  0  0  0  0  0  0  0  0
   18.4000   71.0246   -6.6136 N   0  0  0  0  0  0  0  0  0  0  0  0
   17.9318   70.3836   -8.8533 N   0  0  0  0  0  0  0  0  0  0  0  0
   17.4329   70.6268   -7.5668 C   0  0  0  0  0  0  0  0  0  0  0  0
   19.7334   71.1511   -6.9837 C   0  0  0  0  0  0  0  0  0  0  0  0
   20.1938   70.9160   -8.2140 C   0  0  0  0  0  0  0  0  0  0  0  0
   19.2487   70.4952   -9.2690 C   0  0  0  0  0  0  0  0  0  0  0  0
   17.2776   70.1034   -9.5337 H   0  0  0  0  0  0  0  0  0  0  0  0
   22.1154   73.6427   -2.4215 O   0  0  0  0  0  0  0  0  0  0  0  0
   22.9389   74.2178   -1.1547 P   0  0  2  0  0  0  0  0  0  0  0  0
   21.8283   75.0793   -0.3518 O   0  0  0  0  0  0  0  0  0  0  0  0
   24.1734   74.9893   -1.5217 O   0  0  0  0  0  0  0  0  0  0  0  0
   23.2073   72.9293   -0.2219 O   0  0  0  0  0  0  0  0  0  0  0  0
   22.4197   70.7129   -0.4982 O   0  0  0  0  0  0  0  0  0  0  0  0
   22.7259   70.9898    3.6124 O   0  0  0  0  0  0  0  0  0  0  0  0
   21.6357   73.2086    2.0559 O   0  0  0  0  0  0  0  0  0  0  0  0
   24.7165   69.5089    2.0974 O   0  0  0  0  0  0  0  0  0  0  0  0
   23.0789   71.2689    2.2576 C   0  0  2  0  0  0  0  0  0  0  0  0
   21.8893   71.9070    1.5399 C   0  0  2  0  0  0  0  0  0  0  0  0
   23.4592   69.9473    1.5862 C   0  0  1  0  0  0  0  0  0  0  0  0
   22.1483   72.0091    0.0361 C   0  0  1  0  0  0  0  0  0  0  0  0
   23.5761   70.1047    0.0729 C   0  0  1  0  0  0  0  0  0  0  0  0
   22.4804   71.8152    4.0594 H   0  0  0  0  0  0  0  0  0  0  0  0
   21.4708   73.1513    3.0098 H   0  0  0  0  0  0  0  0  0  0  0  0
   24.6558   69.4049    3.0599 H   0  0  0  0  0  0  0  0  0  0  0  0
   24.1365   68.8782   -1.8463 O   0  0  0  0  0  0  0  0  0  0  0  0
   23.2439   67.7209   -0.0961 O   0  0  0  0  0  0  0  0  0  0  0  0
   23.6189   68.7702   -0.5975 C   0  0  0  0  0  0  0  0  0  0  0  0
  1  4  1  0
  1 24  1  0
  1  2  1  6
  1  3  2  0
 25 28  1  0
 25 24  1  0
 25 26  1  1
 25 27  2  0
  6 11  1  0
  6 12  1  0
 29 36  1  0
 29 37  1  0
  9  7  1  6
  7 13  1  0
 10  8  1  1
  8 14  1  0
  4  5  1  0
 36 28  1  1
 33 30  1  1
 30 38  1  0
 34 31  1  1
 31 39  1  0
 35 32  1  1
 32 40  1  0
 41 43  1  0
 15 19  2  0
 42 43  2  0
 16 22  2  0
 12 17  1  6
 17 19  1  0
 17 20  1  0
 18 19  1  0
 18 22  1  0
 18 23  1  0
  9 10  1  0
  9 11  1  0
 10 12  1  0
 11  5  1  6
 33 34  1  0
 33 35  1  0
 34 36  1  0
 35 37  1  0
 37 43  1  6
 20 21  2  0
 21 22  1  0
M  CHG  3   2  -1  26  -1  41  -1
M  END
>  <COMPND>  (21) 
    udp_gluA.pdb 

>  <AUTHOR>  (21) 
    GENERATED BY OPEN BABEL 3.1.1

>  <MASTER>  (21) 
        0    0    0    0    0    0    0    0   56    0   56    0

>  <minimizedAffinity>  (21) 
-8.21144

>  <CNNscore>  (21) 
0.6421496272

>  <CNNaffinity>  (21) 
4.4122972488

>  <CNN_VS>  (21) 
2.8333549500

>  <CNNaffinity_variance>  (21) 
0.0894713178

$$$$
22
     RDKit          3D

 43 45  0  0  0  0  0  0  0  0999 V2000
   21.0664   74.8501   -4.5951 P   0  0  2  0  0  0  0  0  0  0  0  0
   20.0013   75.6931   -3.7153 O   0  0  0  0  0  0  0  0  0  0  0  0
   22.1598   75.6667   -5.2191 O   0  0  0  0  0  0  0  0  0  0  0  0
   20.1422   74.0102   -5.6238 O   0  0  0  0  0  0  0  0  0  0  0  0
   20.6506   72.8011   -6.1567 C   0  0  0  0  0  0  0  0  0  0  0  0
   19.3903   71.0346   -7.1906 O   0  0  0  0  0  0  0  0  0  0  0  0
   18.1410   73.1700   -8.8851 O   0  0  0  0  0  0  0  0  0  0  0  0
   16.2216   72.7019   -7.0054 O   0  0  0  0  0  0  0  0  0  0  0  0
   18.5414   73.2220   -7.5156 C   0  0  1  0  0  0  0  0  0  0  0  0
   17.5658   72.4480   -6.6545 C   0  0  2  0  0  0  0  0  0  0  0  0
   19.8164   72.4030   -7.3675 C   0  0  1  0  0  0  0  0  0  0  0  0
   17.9791   71.0111   -6.9234 C   0  0  2  0  0  0  0  0  0  0  0  0
   17.3281   73.6863   -9.0044 H   0  0  0  0  0  0  0  0  0  0  0  0
   16.0074   73.6292   -6.8152 H   0  0  0  0  0  0  0  0  0  0  0  0
   15.5585   69.6243   -6.4828 O   0  0  0  0  0  0  0  0  0  0  0  0
   17.1373   67.7365   -2.5857 O   0  0  0  0  0  0  0  0  0  0  0  0
   17.7306   70.1503   -5.8017 N   0  0  0  0  0  0  0  0  0  0  0  0
   16.3468   68.6862   -4.5417 N   0  0  0  0  0  0  0  0  0  0  0  0
   16.4801   69.5007   -5.6739 C   0  0  0  0  0  0  0  0  0  0  0  0
   18.7190   69.9554   -4.8447 C   0  0  0  0  0  0  0  0  0  0  0  0
   18.5773   69.1758   -3.7709 C   0  0  0  0  0  0  0  0  0  0  0  0
   17.3006   68.4616   -3.5623 C   0  0  0  0  0  0  0  0  0  0  0  0
   15.4841   68.2251   -4.4300 H   0  0  0  0  0  0  0  0  0  0  0  0
   21.5778   73.7191   -3.5596 O   0  0  0  0  0  0  0  0  0  0  0  0
   23.0704   73.2671   -3.1337 P   0  0  2  0  0  0  0  0  0  0  0  0
   23.5242   74.4220   -2.0942 O   0  0  0  0  0  0  0  0  0  0  0  0
   24.0083   73.0723   -4.2897 O   0  0  0  0  0  0  0  0  0  0  0  0
   22.8555   71.9565   -2.2179 O   0  0  0  0  0  0  0  0  0  0  0  0
   23.2440   69.7940   -3.1020 O   0  0  0  0  0  0  0  0  0  0  0  0
   20.9291   68.9437    0.2125 O   0  0  0  0  0  0  0  0  0  0  0  0
   20.2714   71.2084   -1.5117 O   0  0  0  0  0  0  0  0  0  0  0  0
   23.7932   68.4494    0.2674 O   0  0  0  0  0  0  0  0  0  0  0  0
   21.8870   69.6714   -0.5560 C   0  0  2  0  0  0  0  0  0  0  0  0
   21.2259   70.2019   -1.8284 C   0  0  2  0  0  0  0  0  0  0  0  0
   23.0322   68.7194   -0.9084 C   0  0  1  0  0  0  0  0  0  0  0  0
   22.2677   70.7863   -2.7834 C   0  0  1  0  0  0  0  0  0  0  0  0
   23.9573   69.3259   -1.9596 C   0  0  1  0  0  0  0  0  0  0  0  0
   20.1917   69.5285    0.4481 H   0  0  0  0  0  0  0  0  0  0  0  0
   19.6074   70.8446   -0.9057 H   0  0  0  0  0  0  0  0  0  0  0  0
   23.2160   68.0632    0.9445 H   0  0  0  0  0  0  0  0  0  0  0  0
   24.4974   67.0486   -2.1133 O   0  0  0  0  0  0  0  0  0  0  0  0
   25.8043   68.5085   -3.2794 O   0  0  0  0  0  0  0  0  0  0  0  0
   24.8632   68.2851   -2.5329 C   0  0  0  0  0  0  0  0  0  0  0  0
  1  4  1  0
  1 24  1  0
  1  2  1  1
  1  3  2  0
 25 28  1  0
 25 24  1  0
 25 26  1  1
 25 27  2  0
  6 11  1  0
  6 12  1  0
 29 36  1  0
 29 37  1  0
  9  7  1  6
  7 13  1  0
 10  8  1  6
  8 14  1  0
  4  5  1  0
 36 28  1  1
 33 30  1  1
 30 38  1  0
 34 31  1  1
 31 39  1  0
 35 32  1  1
 32 40  1  0
 41 43  1  0
 15 19  2  0
 42 43  2  0
 16 22  2  0
 12 17  1  1
 17 19  1  0
 17 20  1  0
 18 19  1  0
 18 22  1  0
 18 23  1  0
  9 10  1  0
  9 11  1  0
 10 12  1  0
 11  5  1  1
 33 34  1  0
 33 35  1  0
 34 36  1  0
 35 37  1  0
 37 43  1  6
 20 21  2  0
 21 22  1  0
M  CHG  3   2  -1  26  -1  41  -1
M  END
>  <COMPND>  (22) 
    udp_gluA.pdb 

>  <AUTHOR>  (22) 
    GENERATED BY OPEN BABEL 3.1.1

>  <MASTER>  (22) 
        0    0    0    0    0    0    0    0   56    0   56    0

>  <minimizedAffinity>  (22) 
-8.45245

>  <CNNscore>  (22) 
0.6171782613

>  <CNNaffinity>  (22) 
4.4597053528

>  <CNN_VS>  (22) 
2.7524333000

>  <CNNaffinity_variance>  (22) 
0.5770538449

$$$$
23
     RDKit          3D

 43 45  0  0  0  0  0  0  0  0999 V2000
   20.2993   72.0338   -4.4629 P   0  0  2  0  0  0  0  0  0  0  0  0
   19.0294   72.9618   -4.0821 O   0  0  0  0  0  0  0  0  0  0  0  0
   20.4447   71.7277   -5.9247 O   0  0  0  0  0  0  0  0  0  0  0  0
   20.1495   70.7512   -3.4880 O   0  0  0  0  0  0  0  0  0  0  0  0
   19.5943   69.5611   -4.0169 C   0  0  0  0  0  0  0  0  0  0  0  0
   17.5733   70.2385   -2.9059 O   0  0  0  0  0  0  0  0  0  0  0  0
   16.9256   67.3177   -2.7041 O   0  0  0  0  0  0  0  0  0  0  0  0
   15.3931   68.1238   -4.8108 O   0  0  0  0  0  0  0  0  0  0  0  0
   17.5814   68.0274   -3.7552 C   0  0  1  0  0  0  0  0  0  0  0  0
   16.5781   68.8436   -4.5421 C   0  0  2  0  0  0  0  0  0  0  0  0
   18.4466   69.1091   -3.1232 C   0  0  1  0  0  0  0  0  0  0  0  0
   16.3457   70.0300   -3.6221 C   0  0  2  0  0  0  0  0  0  0  0  0
   16.3667   66.6210   -3.0836 H   0  0  0  0  0  0  0  0  0  0  0  0
   15.5937   67.3794   -5.4004 H   0  0  0  0  0  0  0  0  0  0  0  0
   14.9876   72.2414   -2.5078 O   0  0  0  0  0  0  0  0  0  0  0  0
   15.1371   74.5686   -6.4834 O   0  0  0  0  0  0  0  0  0  0  0  0
   16.0169   71.2268   -4.3434 N   0  0  0  0  0  0  0  0  0  0  0  0
   15.0624   73.3980   -4.4892 N   0  0  0  0  0  0  0  0  0  0  0  0
   15.3327   72.2791   -3.6903 C   0  0  0  0  0  0  0  0  0  0  0  0
   16.3725   71.3502   -5.6811 C   0  0  0  0  0  0  0  0  0  0  0  0
   16.1081   72.4229   -6.4295 C   0  0  0  0  0  0  0  0  0  0  0  0
   15.3954   73.5666   -5.8234 C   0  0  0  0  0  0  0  0  0  0  0  0
   14.5851   74.1427   -4.0570 H   0  0  0  0  0  0  0  0  0  0  0  0
   21.5434   72.8383   -3.8164 O   0  0  0  0  0  0  0  0  0  0  0  0
   22.9962   72.3283   -3.3235 P   0  0  2  0  0  0  0  0  0  0  0  0
   24.0199   73.2478   -4.1761 O   0  0  0  0  0  0  0  0  0  0  0  0
   23.2157   70.8512   -3.4789 O   0  0  0  0  0  0  0  0  0  0  0  0
   23.1278   72.8690   -1.8093 O   0  0  0  0  0  0  0  0  0  0  0  0
   21.7666   71.3270   -0.6350 O   0  0  0  0  0  0  0  0  0  0  0  0
   23.5987   73.3587    2.4608 O   0  0  0  0  0  0  0  0  0  0  0  0
   22.6105   74.8030    0.1215 O   0  0  0  0  0  0  0  0  0  0  0  0
   24.4680   70.6745    1.7606 O   0  0  0  0  0  0  0  0  0  0  0  0
   23.4950   72.7936    1.1539 C   0  0  2  0  0  0  0  0  0  0  0  0
   22.3263   73.4386    0.4086 C   0  0  2  0  0  0  0  0  0  0  0  0
   23.2633   71.2886    1.3066 C   0  0  1  0  0  0  0  0  0  0  0  0
   22.0401   72.7032   -0.9014 C   0  0  1  0  0  0  0  0  0  0  0  0
   22.8599   70.6498   -0.0192 C   0  0  1  0  0  0  0  0  0  0  0  0
   23.7461   74.3150    2.3889 H   0  0  0  0  0  0  0  0  0  0  0  0
   22.7933   75.2756    0.9483 H   0  0  0  0  0  0  0  0  0  0  0  0
   24.7358   71.0723    2.6037 H   0  0  0  0  0  0  0  0  0  0  0  0
   23.3334   68.3865    0.3746 O   0  0  0  0  0  0  0  0  0  0  0  0
   21.1368   68.9773    0.2162 O   0  0  0  0  0  0  0  0  0  0  0  0
   22.3223   69.2727    0.1974 C   0  0  0  0  0  0  0  0  0  0  0  0
  1  4  1  0
  1 24  1  0
  1  2  1  6
  1  3  2  0
 25 28  1  0
 25 24  1  0
 25 26  1  6
 25 27  2  0
  6 11  1  0
  6 12  1  0
 29 36  1  0
 29 37  1  0
  9  7  1  1
  7 13  1  0
 10  8  1  1
  8 14  1  0
  4  5  1  0
 36 28  1  6
 33 30  1  1
 30 38  1  0
 34 31  1  6
 31 39  1  0
 35 32  1  6
 32 40  1  0
 41 43  1  0
 15 19  2  0
 42 43  2  0
 16 22  2  0
 12 17  1  6
 17 19  1  0
 17 20  1  0
 18 19  1  0
 18 22  1  0
 18 23  1  0
  9 10  1  0
  9 11  1  0
 10 12  1  0
 11  5  1  6
 33 34  1  0
 33 35  1  0
 34 36  1  0
 35 37  1  0
 37 43  1  1
 20 21  2  0
 21 22  1  0
M  CHG  3   2  -1  26  -1  41  -1
M  END
>  <COMPND>  (23) 
    udp_gluA.pdb 

>  <AUTHOR>  (23) 
    GENERATED BY OPEN BABEL 3.1.1

>  <MASTER>  (23) 
        0    0    0    0    0    0    0    0   56    0   56    0

>  <minimizedAffinity>  (23) 
-7.94923

>  <CNNscore>  (23) 
0.5981952548

>  <CNNaffinity>  (23) 
4.2812447548

>  <CNN_VS>  (23) 
2.5610203743

>  <CNNaffinity_variance>  (23) 
0.3870476186

$$$$
24
     RDKit          3D

 43 45  0  0  0  0  0  0  0  0999 V2000
   22.2630   69.2959   -1.0135 P   0  0  2  0  0  0  0  0  0  0  0  0
   20.9604   68.8474   -0.1645 O   0  0  0  0  0  0  0  0  0  0  0  0
   23.2975   68.2249   -1.1997 O   0  0  0  0  0  0  0  0  0  0  0  0
   22.7692   70.6396   -0.2676 O   0  0  0  0  0  0  0  0  0  0  0  0
   23.3288   70.5238    1.0277 C   0  0  0  0  0  0  0  0  0  0  0  0
   22.9868   71.6135    3.1428 O   0  0  0  0  0  0  0  0  0  0  0  0
   20.1216   71.9175    2.3121 O   0  0  0  0  0  0  0  0  0  0  0  0
   21.1511   74.3940    1.8187 O   0  0  0  0  0  0  0  0  0  0  0  0
   21.3053   71.9862    1.5166 C   0  0  1  0  0  0  0  0  0  0  0  0
   22.0313   73.2907    1.7689 C   0  0  2  0  0  0  0  0  0  0  0  0
   22.2940   70.9618    2.0562 C   0  0  1  0  0  0  0  0  0  0  0  0
   22.7084   73.0221    3.1020 C   0  0  2  0  0  0  0  0  0  0  0  0
   19.4748   72.5633    1.9863 H   0  0  0  0  0  0  0  0  0  0  0  0
   20.7457   74.5238    0.9464 H   0  0  0  0  0  0  0  0  0  0  0  0
   23.0140   75.3518    4.6691 O   0  0  0  0  0  0  0  0  0  0  0  0
   27.4790   75.7158    3.5848 O   0  0  0  0  0  0  0  0  0  0  0  0
   23.9397   73.7458    3.2469 N   0  0  0  0  0  0  0  0  0  0  0  0
   25.2373   75.5314    4.1267 N   0  0  0  0  0  0  0  0  0  0  0  0
   23.9862   74.9044    4.0578 C   0  0  0  0  0  0  0  0  0  0  0  0
   25.0837   73.3062    2.5921 C   0  0  0  0  0  0  0  0  0  0  0  0
   26.2692   73.9143    2.6676 C   0  0  0  0  0  0  0  0  0  0  0  0
   26.4031   75.1324    3.4933 C   0  0  0  0  0  0  0  0  0  0  0  0
   25.2939   76.3413    4.6837 H   0  0  0  0  0  0  0  0  0  0  0  0
   21.6243   69.8612   -2.3866 O   0  0  0  0  0  0  0  0  0  0  0  0
   21.1558   71.3509   -2.8049 P   0  0  2  0  0  0  0  0  0  0  0  0
   22.2676   71.7962   -3.8938 O   0  0  0  0  0  0  0  0  0  0  0  0
   21.0084   72.2974   -1.6489 O   0  0  0  0  0  0  0  0  0  0  0  0
   19.8090   71.1299   -3.6651 O   0  0  0  0  0  0  0  0  0  0  0  0
   18.8614   69.0805   -4.3799 O   0  0  0  0  0  0  0  0  0  0  0  0
   17.5943   71.6699   -7.3391 O   0  0  0  0  0  0  0  0  0  0  0  0
   20.3243   71.8193   -6.3100 O   0  0  0  0  0  0  0  0  0  0  0  0
   15.7364   70.7736   -5.2908 O   0  0  0  0  0  0  0  0  0  0  0  0
   17.9753   71.2876   -6.0175 C   0  0  2  0  0  0  0  0  0  0  0  0
   19.4117   70.7640   -6.0303 C   0  0  2  0  0  0  0  0  0  0  0  0
   17.0144   70.1938   -5.5461 C   0  0  1  0  0  0  0  0  0  0  0  0
   19.7762   70.1337   -4.6855 C   0  0  1  0  0  0  0  0  0  0  0  0
   17.5125   69.5283   -4.2665 C   0  0  1  0  0  0  0  0  0  0  0  0
   18.1912   72.3643   -7.6598 H   0  0  0  0  0  0  0  0  0  0  0  0
   20.0987   72.2241   -7.1618 H   0  0  0  0  0  0  0  0  0  0  0  0
   15.4081   71.2007   -6.0974 H   0  0  0  0  0  0  0  0  0  0  0  0
   17.1454   67.7209   -2.8173 O   0  0  0  0  0  0  0  0  0  0  0  0
   15.9138   67.7830   -4.7352 O   0  0  0  0  0  0  0  0  0  0  0  0
   16.7611   68.2650   -3.9984 C   0  0  0  0  0  0  0  0  0  0  0  0
  1  4  1  0
  1 24  1  0
  1  2  1  1
  1  3  2  0
 25 28  1  0
 25 24  1  0
 25 26  1  6
 25 27  2  0
  6 11  1  0
  6 12  1  0
 29 36  1  0
 29 37  1  0
  9  7  1  1
  7 13  1  0
 10  8  1  1
  8 14  1  0
  4  5  1  0
 36 28  1  1
 33 30  1  6
 30 38  1  0
 34 31  1  1
 31 39  1  0
 35 32  1  1
 32 40  1  0
 41 43  1  0
 15 19  2  0
 42 43  2  0
 16 22  2  0
 12 17  1  6
 17 19  1  0
 17 20  1  0
 18 19  1  0
 18 22  1  0
 18 23  1  0
  9 10  1  0
  9 11  1  0
 10 12  1  0
 11  5  1  6
 33 34  1  0
 33 35  1  0
 34 36  1  0
 35 37  1  0
 37 43  1  6
 20 21  2  0
 21 22  1  0
M  CHG  3   2  -1  26  -1  41  -1
M  END
>  <COMPND>  (24) 
    udp_gluA.pdb 

>  <AUTHOR>  (24) 
    GENERATED BY OPEN BABEL 3.1.1

>  <MASTER>  (24) 
        0    0    0    0    0    0    0    0   56    0   56    0

>  <minimizedAffinity>  (24) 
-7.58287

>  <CNNscore>  (24) 
0.4441681206

>  <CNNaffinity>  (24) 
4.2508788109

>  <CNN_VS>  (24) 
1.8881047964

>  <CNNaffinity_variance>  (24) 
0.0521504283

$$$$
25
     RDKit          3D

 43 45  0  0  0  0  0  0  0  0999 V2000
   17.8984   69.2273   -3.5531 P   0  0  2  0  0  0  0  0  0  0  0  0
   17.1646   68.2904   -2.4565 O   0  0  0  0  0  0  0  0  0  0  0  0
   17.5064   68.9618   -4.9771 O   0  0  0  0  0  0  0  0  0  0  0  0
   19.4720   69.0617   -3.2149 O   0  0  0  0  0  0  0  0  0  0  0  0
   20.1534   70.1496   -2.6178 C   0  0  0  0  0  0  0  0  0  0  0  0
   21.2731   68.6193   -1.1407 O   0  0  0  0  0  0  0  0  0  0  0  0
   21.0246   70.7505    0.9540 O   0  0  0  0  0  0  0  0  0  0  0  0
   23.6149   71.0115    0.1428 O   0  0  0  0  0  0  0  0  0  0  0  0
   21.2597   70.8844   -0.4479 C   0  0  1  0  0  0  0  0  0  0  0  0
   22.6828   70.4892   -0.7808 C   0  0  2  0  0  0  0  0  0  0  0  0
   20.4545   69.8087   -1.1641 C   0  0  1  0  0  0  0  0  0  0  0  0
   22.6066   68.9725   -0.7404 C   0  0  2  0  0  0  0  0  0  0  0  0
   21.5287   71.4274    1.4329 H   0  0  0  0  0  0  0  0  0  0  0  0
   23.6263   71.9798    0.0781 H   0  0  0  0  0  0  0  0  0  0  0  0
   23.8409   70.2842   -2.9158 O   0  0  0  0  0  0  0  0  0  0  0  0
   26.1806   66.4963   -4.1082 O   0  0  0  0  0  0  0  0  0  0  0  0
   23.5424   68.3528   -1.6355 N   0  0  0  0  0  0  0  0  0  0  0  0
   25.0043   68.3960   -3.5082 N   0  0  0  0  0  0  0  0  0  0  0  0
   24.1048   69.1003   -2.6971 C   0  0  0  0  0  0  0  0  0  0  0  0
   23.8953   67.0207   -1.4567 C   0  0  0  0  0  0  0  0  0  0  0  0
   24.7542   66.3631   -2.2380 C   0  0  0  0  0  0  0  0  0  0  0  0
   25.3860   67.0713   -3.3706 C   0  0  0  0  0  0  0  0  0  0  0  0
   25.4073   68.8950   -4.2552 H   0  0  0  0  0  0  0  0  0  0  0  0
   17.5700   70.7216   -3.0317 O   0  0  0  0  0  0  0  0  0  0  0  0
   16.8181   71.9568   -3.7547 P   0  0  2  0  0  0  0  0  0  0  0  0
   17.1055   73.1993   -2.7578 O   0  0  0  0  0  0  0  0  0  0  0  0
   15.3636   71.7130   -4.0357 O   0  0  0  0  0  0  0  0  0  0  0  0
   17.7094   72.2695   -5.0625 O   0  0  0  0  0  0  0  0  0  0  0  0
   16.3426   72.6202   -6.9645 O   0  0  0  0  0  0  0  0  0  0  0  0
   20.1282   72.7546   -8.6134 O   0  0  0  0  0  0  0  0  0  0  0  0
   19.4618   70.7490   -6.5965 O   0  0  0  0  0  0  0  0  0  0  0  0
   18.6271   75.2101   -8.2035 O   0  0  0  0  0  0  0  0  0  0  0  0
   19.1423   72.9360   -7.5970 C   0  0  2  0  0  0  0  0  0  0  0  0
   18.5136   71.5870   -7.2472 C   0  0  2  0  0  0  0  0  0  0  0  0
   18.0786   73.8952   -8.1358 C   0  0  1  0  0  0  0  0  0  0  0  0
   17.3004   71.7691   -6.3341 C   0  0  1  0  0  0  0  0  0  0  0  0
   16.8480   73.9260   -7.2339 C   0  0  1  0  0  0  0  0  0  0  0  0
   20.8148   72.1484   -8.2936 H   0  0  0  0  0  0  0  0  0  0  0  0
   20.2344   70.6294   -7.1702 H   0  0  0  0  0  0  0  0  0  0  0  0
   19.4112   75.2044   -8.7745 H   0  0  0  0  0  0  0  0  0  0  0  0
   15.6176   75.8967   -7.5559 O   0  0  0  0  0  0  0  0  0  0  0  0
   14.9434   74.0493   -8.7099 O   0  0  0  0  0  0  0  0  0  0  0  0
   15.7024   74.5938   -7.9223 C   0  0  0  0  0  0  0  0  0  0  0  0
  1  4  1  0
  1 24  1  0
  1  2  1  1
  1  3  2  0
 25 28  1  0
 25 24  1  0
 25 26  1  1
 25 27  2  0
  6 11  1  0
  6 12  1  0
 29 36  1  0
 29 37  1  0
  9  7  1  1
  7 13  1  0
 10  8  1  1
  8 14  1  0
  4  5  1  0
 36 28  1  1
 33 30  1  6
 30 38  1  0
 34 31  1  1
 31 39  1  0
 35 32  1  1
 32 40  1  0
 41 43  1  0
 15 19  2  0
 42 43  2  0
 16 22  2  0
 12 17  1  6
 17 19  1  0
 17 20  1  0
 18 19  1  0
 18 22  1  0
 18 23  1  0
  9 10  1  0
  9 11  1  0
 10 12  1  0
 11  5  1  6
 33 34  1  0
 33 35  1  0
 34 36  1  0
 35 37  1  0
 37 43  1  6
 20 21  2  0
 21 22  1  0
M  CHG  3   2  -1  26  -1  41  -1
M  END
>  <COMPND>  (25) 
    udp_gluA.pdb 

>  <AUTHOR>  (25) 
    GENERATED BY OPEN BABEL 3.1.1

>  <MASTER>  (25) 
        0    0    0    0    0    0    0    0   56    0   56    0

>  <minimizedAffinity>  (25) 
-7.96390

>  <CNNscore>  (25) 
0.4296841621

>  <CNNaffinity>  (25) 
4.1489801407

>  <CNN_VS>  (25) 
1.7827510834

>  <CNNaffinity_variance>  (25) 
0.4403904080

$$$$
26
     RDKit          3D

 43 45  0  0  0  0  0  0  0  0999 V2000
   22.6697   73.1431   -3.4297 P   0  0  2  0  0  0  0  0  0  0  0  0
   23.8475   72.8430   -4.4981 O   0  0  0  0  0  0  0  0  0  0  0  0
   22.6462   74.5427   -2.8891 O   0  0  0  0  0  0  0  0  0  0  0  0
   22.8342   71.9678   -2.3299 O   0  0  0  0  0  0  0  0  0  0  0  0
   22.8458   72.3214   -0.9590 C   0  0  0  0  0  0  0  0  0  0  0  0
   21.9712   70.0827   -0.9305 O   0  0  0  0  0  0  0  0  0  0  0  0
   21.5403   70.4874    2.0092 O   0  0  0  0  0  0  0  0  0  0  0  0
   23.8311   69.0097    1.9406 O   0  0  0  0  0  0  0  0  0  0  0  0
   22.5991   70.9621    1.1773 C   0  0  1  0  0  0  0  0  0  0  0  0
   23.5393   69.8281    0.8273 C   0  0  2  0  0  0  0  0  0  0  0  0
   22.0074   71.3159   -0.1802 C   0  0  1  0  0  0  0  0  0  0  0  0
   22.7599   69.0935   -0.2502 C   0  0  2  0  0  0  0  0  0  0  0  0
   21.8941   70.2549    2.8824 H   0  0  0  0  0  0  0  0  0  0  0  0
   24.3279   69.5229    2.5978 H   0  0  0  0  0  0  0  0  0  0  0  0
   23.1449   66.3000   -0.4060 O   0  0  0  0  0  0  0  0  0  0  0  0
   26.0749   66.7171   -3.9395 O   0  0  0  0  0  0  0  0  0  0  0  0
   23.6178   68.4453   -1.2014 N   0  0  0  0  0  0  0  0  0  0  0  0
   24.6046   66.5105   -2.1651 N   0  0  0  0  0  0  0  0  0  0  0  0
   23.7409   67.0357   -1.1950 C   0  0  0  0  0  0  0  0  0  0  0  0
   24.3242   69.2031   -2.1274 C   0  0  0  0  0  0  0  0  0  0  0  0
   25.1437   68.6881   -3.0462 C   0  0  0  0  0  0  0  0  0  0  0  0
   25.3291   67.2234   -3.1066 C   0  0  0  0  0  0  0  0  0  0  0  0
   24.7081   65.5315   -2.1789 H   0  0  0  0  0  0  0  0  0  0  0  0
   21.3344   72.7078   -4.2298 O   0  0  0  0  0  0  0  0  0  0  0  0
   19.9795   73.5263   -4.5582 P   0  0  2  0  0  0  0  0  0  0  0  0
   20.2482   74.1046   -6.0461 O   0  0  0  0  0  0  0  0  0  0  0  0
   19.6312   74.5742   -3.5410 O   0  0  0  0  0  0  0  0  0  0  0  0
   18.8532   72.3892   -4.7606 O   0  0  0  0  0  0  0  0  0  0  0  0
   19.1667   70.0762   -4.3596 O   0  0  0  0  0  0  0  0  0  0  0  0
   16.0830   70.0424   -7.1087 O   0  0  0  0  0  0  0  0  0  0  0  0
   18.3455   71.8599   -7.4435 O   0  0  0  0  0  0  0  0  0  0  0  0
   15.5385   69.5334   -4.2988 O   0  0  0  0  0  0  0  0  0  0  0  0
   16.8619   70.5606   -6.0304 C   0  0  2  0  0  0  0  0  0  0  0  0
   18.2974   70.7941   -6.5020 C   0  0  2  0  0  0  0  0  0  0  0  0
   16.8352   69.5371   -4.8930 C   0  0  1  0  0  0  0  0  0  0  0  0
   19.2128   71.1289   -5.3235 C   0  0  1  0  0  0  0  0  0  0  0  0
   17.8639   69.8729   -3.8171 C   0  0  1  0  0  0  0  0  0  0  0  0
   16.0855   70.6760   -7.8433 H   0  0  0  0  0  0  0  0  0  0  0  0
   17.7667   71.6543   -8.1939 H   0  0  0  0  0  0  0  0  0  0  0  0
   14.8744   69.3212   -4.9731 H   0  0  0  0  0  0  0  0  0  0  0  0
   19.3205   68.7165   -2.3879 O   0  0  0  0  0  0  0  0  0  0  0  0
   17.2122   67.8805   -2.6225 O   0  0  0  0  0  0  0  0  0  0  0  0
   18.0621   68.7156   -2.8931 C   0  0  0  0  0  0  0  0  0  0  0  0
  1  4  1  0
  1 24  1  0
  1  2  1  6
  1  3  2  0
 25 28  1  0
 25 24  1  0
 25 26  1  6
 25 27  2  0
  6 11  1  0
  6 12  1  0
 29 36  1  0
 29 37  1  0
  9  7  1  1
  7 13  1  0
 10  8  1  1
  8 14  1  0
  4  5  1  0
 36 28  1  1
 33 30  1  6
 30 38  1  0
 34 31  1  6
 31 39  1  0
 35 32  1  1
 32 40  1  0
 41 43  1  0
 15 19  2  0
 42 43  2  0
 16 22  2  0
 12 17  1  6
 17 19  1  0
 17 20  1  0
 18 19  1  0
 18 22  1  0
 18 23  1  0
  9 10  1  0
  9 11  1  0
 10 12  1  0
 11  5  1  6
 33 34  1  0
 33 35  1  0
 34 36  1  0
 35 37  1  0
 37 43  1  1
 20 21  2  0
 21 22  1  0
M  CHG  3   2  -1  26  -1  41  -1
M  END
>  <COMPND>  (26) 
    udp_gluA.pdb 

>  <AUTHOR>  (26) 
    GENERATED BY OPEN BABEL 3.1.1

>  <MASTER>  (26) 
        0    0    0    0    0    0    0    0   56    0   56    0

>  <minimizedAffinity>  (26) 
-9.01266

>  <CNNscore>  (26) 
0.4090105593

>  <CNNaffinity>  (26) 
4.1628971100

>  <CNN_VS>  (26) 
1.7026689053

>  <CNNaffinity_variance>  (26) 
1.3214712143

$$$$
27
     RDKit          3D

 43 45  0  0  0  0  0  0  0  0999 V2000
   21.0775   71.5628   -3.6352 P   0  0  2  0  0  0  0  0  0  0  0  0
   20.1372   72.1137   -4.8315 O   0  0  0  0  0  0  0  0  0  0  0  0
   22.5232   71.9526   -3.7349 O   0  0  0  0  0  0  0  0  0  0  0  0
   20.7789   69.9728   -3.6071 O   0  0  0  0  0  0  0  0  0  0  0  0
   19.6586   69.4826   -4.3206 C   0  0  0  0  0  0  0  0  0  0  0  0
   17.7107   70.3690   -3.2260 O   0  0  0  0  0  0  0  0  0  0  0  0
   16.9698   67.5219   -2.6459 O   0  0  0  0  0  0  0  0  0  0  0  0
   15.3800   68.1290   -4.7767 O   0  0  0  0  0  0  0  0  0  0  0  0
   17.6058   68.0731   -3.7993 C   0  0  1  0  0  0  0  0  0  0  0  0
   16.5997   68.8281   -4.6420 C   0  0  2  0  0  0  0  0  0  0  0  0
   18.5340   69.1877   -3.3363 C   0  0  1  0  0  0  0  0  0  0  0  0
   16.4478   70.1249   -3.8653 C   0  0  2  0  0  0  0  0  0  0  0  0
   16.3715   66.8074   -2.9166 H   0  0  0  0  0  0  0  0  0  0  0  0
   15.5296   67.3116   -5.2782 H   0  0  0  0  0  0  0  0  0  0  0  0
   16.9978   70.2262   -6.6337 O   0  0  0  0  0  0  0  0  0  0  0  0
   15.1896   74.4478   -7.0239 O   0  0  0  0  0  0  0  0  0  0  0  0
   16.1313   71.2383   -4.7144 N   0  0  0  0  0  0  0  0  0  0  0  0
   16.0976   72.3291   -6.8252 N   0  0  0  0  0  0  0  0  0  0  0  0
   16.4502   71.1884   -6.0921 C   0  0  0  0  0  0  0  0  0  0  0  0
   15.5111   72.3621   -4.1822 C   0  0  0  0  0  0  0  0  0  0  0  0
   15.1810   73.4418   -4.8937 C   0  0  0  0  0  0  0  0  0  0  0  0
   15.4803   73.4708   -6.3404 C   0  0  0  0  0  0  0  0  0  0  0  0
   16.3114   72.3186   -7.7862 H   0  0  0  0  0  0  0  0  0  0  0  0
   20.3261   72.0971   -2.3075 O   0  0  0  0  0  0  0  0  0  0  0  0
   20.7325   73.2496   -1.2490 P   0  0  2  0  0  0  0  0  0  0  0  0
   19.3084   73.6932   -0.6203 O   0  0  0  0  0  0  0  0  0  0  0  0
   21.5253   74.3783   -1.8418 O   0  0  0  0  0  0  0  0  0  0  0  0
   21.4780   72.4631   -0.0539 O   0  0  0  0  0  0  0  0  0  0  0  0
   23.4696   73.0781    1.0706 O   0  0  0  0  0  0  0  0  0  0  0  0
   23.5704   68.9591    1.3739 O   0  0  0  0  0  0  0  0  0  0  0  0
   22.7631   70.2407   -1.1242 O   0  0  0  0  0  0  0  0  0  0  0  0
   22.8417   70.5745    3.6783 O   0  0  0  0  0  0  0  0  0  0  0  0
   22.9561   70.2453    1.2943 C   0  0  2  0  0  0  0  0  0  0  0  0
   23.3497   70.9200   -0.0200 C   0  0  2  0  0  0  0  0  0  0  0  0
   23.4411   71.0755    2.4849 C   0  0  1  0  0  0  0  0  0  0  0  0
   22.9021   72.3822   -0.0399 C   0  0  1  0  0  0  0  0  0  0  0  0
   23.0635   72.5458    2.3295 C   0  0  1  0  0  0  0  0  0  0  0  0
   23.2770   68.4137    0.6271 H   0  0  0  0  0  0  0  0  0  0  0  0
   23.0426   69.3122   -1.1176 H   0  0  0  0  0  0  0  0  0  0  0  0
   23.0741   69.6393    3.7889 H   0  0  0  0  0  0  0  0  0  0  0  0
   23.2567   73.2988    4.5424 O   0  0  0  0  0  0  0  0  0  0  0  0
   24.7889   74.0742    3.0423 O   0  0  0  0  0  0  0  0  0  0  0  0
   23.8109   73.3917    3.3082 C   0  0  0  0  0  0  0  0  0  0  0  0
  1  4  1  0
  1 24  1  0
  1  2  1  6
  1  3  2  0
 25 28  1  0
 25 24  1  0
 25 26  1  1
 25 27  2  0
  6 11  1  0
  6 12  1  0
 29 36  1  0
 29 37  1  0
  9  7  1  1
  7 13  1  0
 10  8  1  1
  8 14  1  0
  4  5  1  0
 36 28  1  1
 33 30  1  6
 30 38  1  0
 34 31  1  6
 31 39  1  0
 35 32  1  1
 32 40  1  0
 41 43  1  0
 15 19  2  0
 42 43  2  0
 16 22  2  0
 12 17  1  6
 17 19  1  0
 17 20  1  0
 18 19  1  0
 18 22  1  0
 18 23  1  0
  9 10  1  0
  9 11  1  0
 10 12  1  0
 11  5  1  6
 33 34  1  0
 33 35  1  0
 34 36  1  0
 35 37  1  0
 37 43  1  1
 20 21  2  0
 21 22  1  0
M  CHG  3   2  -1  26  -1  41  -1
M  END
>  <COMPND>  (27) 
    udp_gluA.pdb 

>  <AUTHOR>  (27) 
    GENERATED BY OPEN BABEL 3.1.1

>  <MASTER>  (27) 
        0    0    0    0    0    0    0    0   56    0   56    0

>  <minimizedAffinity>  (27) 
-7.66354

>  <CNNscore>  (27) 
0.4087976813

>  <CNNaffinity>  (27) 
4.1535115242

>  <CNN_VS>  (27) 
1.6979458332

>  <CNNaffinity_variance>  (27) 
0.1612962484

$$$$
28
     RDKit          3D

 43 45  0  0  0  0  0  0  0  0999 V2000
   22.0283   72.2685   -3.9598 P   0  0  2  0  0  0  0  0  0  0  0  0
   21.2887   73.2733   -2.9292 O   0  0  0  0  0  0  0  0  0  0  0  0
   23.3254   72.7757   -4.5184 O   0  0  0  0  0  0  0  0  0  0  0  0
   20.8841   71.9171   -5.0485 O   0  0  0  0  0  0  0  0  0  0  0  0
   20.8829   72.6183   -6.2784 C   0  0  0  0  0  0  0  0  0  0  0  0
   19.4006   70.7704   -6.6852 O   0  0  0  0  0  0  0  0  0  0  0  0
   19.2053   71.7875   -9.4992 O   0  0  0  0  0  0  0  0  0  0  0  0
   16.8907   72.6922   -8.3767 O   0  0  0  0  0  0  0  0  0  0  0  0
   19.3142   72.5206   -8.2789 C   0  0  1  0  0  0  0  0  0  0  0  0
   18.0002   72.4858   -7.5276 C   0  0  2  0  0  0  0  0  0  0  0  0
   20.2352   71.7461   -7.3461 C   0  0  1  0  0  0  0  0  0  0  0  0
   18.0209   71.0934   -6.9204 C   0  0  2  0  0  0  0  0  0  0  0  0
   18.6215   72.2629  -10.1115 H   0  0  0  0  0  0  0  0  0  0  0  0
   16.9229   73.5925   -8.7377 H   0  0  0  0  0  0  0  0  0  0  0  0
   16.2922   68.9850   -6.1835 O   0  0  0  0  0  0  0  0  0  0  0  0
   15.3356   70.9448   -2.1230 O   0  0  0  0  0  0  0  0  0  0  0  0
   17.3073   71.0273   -5.6765 N   0  0  0  0  0  0  0  0  0  0  0  0
   15.8166   69.9636   -4.1623 N   0  0  0  0  0  0  0  0  0  0  0  0
   16.4639   69.9243   -5.4043 C   0  0  0  0  0  0  0  0  0  0  0  0
   17.4474   72.0458   -4.7416 C   0  0  0  0  0  0  0  0  0  0  0  0
   16.8240   72.0692   -3.5619 C   0  0  0  0  0  0  0  0  0  0  0  0
   15.9238   70.9547   -3.2001 C   0  0  0  0  0  0  0  0  0  0  0  0
   15.2225   69.2074   -3.9512 H   0  0  0  0  0  0  0  0  0  0  0  0
   22.1513   70.9005   -3.1075 O   0  0  0  0  0  0  0  0  0  0  0  0
   21.1370   70.2114   -2.0540 P   0  0  2  0  0  0  0  0  0  0  0  0
   21.4342   68.6305   -2.2343 O   0  0  0  0  0  0  0  0  0  0  0  0
   19.6981   70.5957   -2.2431 O   0  0  0  0  0  0  0  0  0  0  0  0
   21.7425   70.5768   -0.6040 O   0  0  0  0  0  0  0  0  0  0  0  0
   23.2920   72.2304    0.0843 O   0  0  0  0  0  0  0  0  0  0  0  0
   24.2155   69.1043    2.6226 O   0  0  0  0  0  0  0  0  0  0  0  0
   23.6618   68.6044   -0.2020 O   0  0  0  0  0  0  0  0  0  0  0  0
   22.7147   71.3903    3.6089 O   0  0  0  0  0  0  0  0  0  0  0  0
   23.3668   69.9201    1.8150 C   0  0  2  0  0  0  0  0  0  0  0  0
   23.8580   69.8936    0.3674 C   0  0  2  0  0  0  0  0  0  0  0  0
   23.4161   71.3462    2.3678 C   0  0  1  0  0  0  0  0  0  0  0  0
   23.1189   70.9300   -0.4802 C   0  0  1  0  0  0  0  0  0  0  0  0
   22.7691   72.3390    1.4064 C   0  0  1  0  0  0  0  0  0  0  0  0
   24.2002   68.1930    2.2900 H   0  0  0  0  0  0  0  0  0  0  0  0
   24.1279   67.9417    0.3310 H   0  0  0  0  0  0  0  0  0  0  0  0
   23.1165   70.7627    4.2299 H   0  0  0  0  0  0  0  0  0  0  0  0
   22.5923   74.0476    3.0036 O   0  0  0  0  0  0  0  0  0  0  0  0
   23.7610   74.5174    1.1029 O   0  0  0  0  0  0  0  0  0  0  0  0
   23.1079   73.7436    1.7868 C   0  0  0  0  0  0  0  0  0  0  0  0
  1  4  1  0
  1 24  1  0
  1  2  1  1
  1  3  2  0
 25 28  1  0
 25 24  1  0
 25 26  1  6
 25 27  2  0
  6 11  1  0
  6 12  1  0
 29 36  1  0
 29 37  1  0
  9  7  1  6
  7 13  1  0
 10  8  1  6
  8 14  1  0
  4  5  1  0
 36 28  1  1
 33 30  1  1
 30 38  1  0
 34 31  1  6
 31 39  1  0
 35 32  1  1
 32 40  1  0
 41 43  1  0
 15 19  2  0
 42 43  2  0
 16 22  2  0
 12 17  1  1
 17 19  1  0
 17 20  1  0
 18 19  1  0
 18 22  1  0
 18 23  1  0
  9 10  1  0
  9 11  1  0
 10 12  1  0
 11  5  1  1
 33 34  1  0
 33 35  1  0
 34 36  1  0
 35 37  1  0
 37 43  1  1
 20 21  2  0
 21 22  1  0
M  CHG  3   2  -1  26  -1  41  -1
M  END
>  <COMPND>  (28) 
    udp_gluA.pdb 

>  <AUTHOR>  (28) 
    GENERATED BY OPEN BABEL 3.1.1

>  <MASTER>  (28) 
        0    0    0    0    0    0    0    0   56    0   56    0

>  <minimizedAffinity>  (28) 
-8.01783

>  <CNNscore>  (28) 
0.3805943131

>  <CNNaffinity>  (28) 
4.1313734055

>  <CNN_VS>  (28) 
1.5723772049

>  <CNNaffinity_variance>  (28) 
0.2400069237

$$$$
29
     RDKit          3D

 43 45  0  0  0  0  0  0  0  0999 V2000
   23.2931   73.4407   -3.9528 P   0  0  2  0  0  0  0  0  0  0  0  0
   24.7572   74.1202   -4.0700 O   0  0  0  0  0  0  0  0  0  0  0  0
   22.3279   74.1656   -3.0614 O   0  0  0  0  0  0  0  0  0  0  0  0
   23.6082   71.9065   -3.5469 O   0  0  0  0  0  0  0  0  0  0  0  0
   22.5200   71.0253   -3.3378 C   0  0  0  0  0  0  0  0  0  0  0  0
   23.9264   70.0493   -1.6505 O   0  0  0  0  0  0  0  0  0  0  0  0
   22.4194   67.5020   -2.1317 O   0  0  0  0  0  0  0  0  0  0  0  0
   21.2683   68.4533    0.1499 O   0  0  0  0  0  0  0  0  0  0  0  0
   21.9466   68.8491   -2.1512 C   0  0  1  0  0  0  0  0  0  0  0  0
   21.8412   69.3880   -0.7403 C   0  0  2  0  0  0  0  0  0  0  0  0
   23.0429   69.7231   -2.7451 C   0  0  1  0  0  0  0  0  0  0  0  0
   23.2920   69.6959   -0.4111 C   0  0  2  0  0  0  0  0  0  0  0  0
   21.7359   66.9245   -1.7563 H   0  0  0  0  0  0  0  0  0  0  0  0
   20.3450   68.2912   -0.1016 H   0  0  0  0  0  0  0  0  0  0  0  0
   23.9901   69.4123    2.3108 O   0  0  0  0  0  0  0  0  0  0  0  0
   23.7725   73.9599    3.0291 O   0  0  0  0  0  0  0  0  0  0  0  0
   23.4249   70.7891    0.5098 N   0  0  0  0  0  0  0  0  0  0  0  0
   23.8801   71.6774    2.6662 N   0  0  0  0  0  0  0  0  0  0  0  0
   23.7796   70.5384    1.8565 C   0  0  0  0  0  0  0  0  0  0  0  0
   23.2065   72.0913    0.0768 C   0  0  0  0  0  0  0  0  0  0  0  0
   23.3061   73.1668    0.8603 C   0  0  0  0  0  0  0  0  0  0  0  0
   23.6718   72.9920    2.2813 C   0  0  0  0  0  0  0  0  0  0  0  0
   24.1239   71.5279    3.6083 H   0  0  0  0  0  0  0  0  0  0  0  0
   22.8247   73.3197   -5.4951 O   0  0  0  0  0  0  0  0  0  0  0  0
   21.8740   74.2699   -6.3934 P   0  0  2  0  0  0  0  0  0  0  0  0
   22.7062   74.4277   -7.7728 O   0  0  0  0  0  0  0  0  0  0  0  0
   21.5090   75.5709   -5.7390 O   0  0  0  0  0  0  0  0  0  0  0  0
   20.6147   73.3394   -6.7817 O   0  0  0  0  0  0  0  0  0  0  0  0
   19.9413   71.2121   -5.9879 O   0  0  0  0  0  0  0  0  0  0  0  0
   18.7790   71.0382   -9.9486 O   0  0  0  0  0  0  0  0  0  0  0  0
   21.3540   72.2041   -9.2108 O   0  0  0  0  0  0  0  0  0  0  0  0
   16.7954   71.4418   -7.8621 O   0  0  0  0  0  0  0  0  0  0  0  0
   19.0449   71.6671   -8.6949 C   0  0  2  0  0  0  0  0  0  0  0  0
   20.5155   71.4706   -8.3256 C   0  0  2  0  0  0  0  0  0  0  0  0
   18.1409   71.0231   -7.6415 C   0  0  1  0  0  0  0  0  0  0  0  0
   20.7850   71.9274   -6.8912 C   0  0  1  0  0  0  0  0  0  0  0  0
   18.5531   71.4300   -6.2297 C   0  0  1  0  0  0  0  0  0  0  0  0
   19.3422   71.4313  -10.6337 H   0  0  0  0  0  0  0  0  0  0  0  0
   21.1880   71.9195  -10.1229 H   0  0  0  0  0  0  0  0  0  0  0  0
   16.5207   71.1889   -8.7574 H   0  0  0  0  0  0  0  0  0  0  0  0
   18.8062   69.7582   -4.6041 O   0  0  0  0  0  0  0  0  0  0  0  0
   16.6996   70.5569   -4.9554 O   0  0  0  0  0  0  0  0  0  0  0  0
   17.8942   70.5565   -5.2122 C   0  0  0  0  0  0  0  0  0  0  0  0
  1  4  1  0
  1 24  1  0
  1  2  1  6
  1  3  2  0
 25 28  1  0
 25 24  1  0
 25 26  1  6
 25 27  2  0
  6 11  1  0
  6 12  1  0
 29 36  1  0
 29 37  1  0
  9  7  1  1
  7 13  1  0
 10  8  1  1
  8 14  1  0
  4  5  1  0
 36 28  1  6
 33 30  1  6
 30 38  1  0
 34 31  1  6
 31 39  1  0
 35 32  1  6
 32 40  1  0
 41 43  1  0
 15 19  2  0
 42 43  2  0
 16 22  2  0
 12 17  1  1
 17 19  1  0
 17 20  1  0
 18 19  1  0
 18 22  1  0
 18 23  1  0
  9 10  1  0
  9 11  1  0
 10 12  1  0
 11  5  1  1
 33 34  1  0
 33 35  1  0
 34 36  1  0
 35 37  1  0
 37 43  1  1
 20 21  2  0
 21 22  1  0
M  CHG  3   2  -1  26  -1  41  -1
M  END
>  <COMPND>  (29) 
    udp_gluA.pdb 

>  <AUTHOR>  (29) 
    GENERATED BY OPEN BABEL 3.1.1

>  <MASTER>  (29) 
        0    0    0    0    0    0    0    0   56    0   56    0

>  <minimizedAffinity>  (29) 
-8.44912

>  <CNNscore>  (29) 
0.3792906404

>  <CNNaffinity>  (29) 
4.2148160934

>  <CNN_VS>  (29) 
1.5986403227

>  <CNNaffinity_variance>  (29) 
0.2004800290

$$$$
30
     RDKit          3D

 43 45  0  0  0  0  0  0  0  0999 V2000
   21.9638   73.9278   -5.8925 P   0  0  2  0  0  0  0  0  0  0  0  0
   22.7885   74.1877   -7.2605 O   0  0  0  0  0  0  0  0  0  0  0  0
   21.7059   75.1533   -5.0657 O   0  0  0  0  0  0  0  0  0  0  0  0
   22.7907   72.7464   -5.1588 O   0  0  0  0  0  0  0  0  0  0  0  0
   23.2108   72.9450   -3.8215 C   0  0  0  0  0  0  0  0  0  0  0  0
   21.6391   71.4650   -2.7646 O   0  0  0  0  0  0  0  0  0  0  0  0
   21.0297   73.7392   -0.9077 O   0  0  0  0  0  0  0  0  0  0  0  0
   22.6837   72.1729    0.5913 O   0  0  0  0  0  0  0  0  0  0  0  0
   22.2756   73.3587   -1.4919 C   0  0  1  0  0  0  0  0  0  0  0  0
   22.8150   72.1171   -0.8138 C   0  0  2  0  0  0  0  0  0  0  0  0
   21.9992   72.8566   -2.9025 C   0  0  1  0  0  0  0  0  0  0  0  0
   21.9655   71.0229   -1.4375 C   0  0  2  0  0  0  0  0  0  0  0  0
   21.1808   74.0635   -0.0057 H   0  0  0  0  0  0  0  0  0  0  0  0
   23.2437   72.8847    0.9403 H   0  0  0  0  0  0  0  0  0  0  0  0
   21.4446   68.7969    0.2209 O   0  0  0  0  0  0  0  0  0  0  0  0
   24.6952   66.2658   -1.8458 O   0  0  0  0  0  0  0  0  0  0  0  0
   22.6609   69.7697   -1.5206 N   0  0  0  0  0  0  0  0  0  0  0  0
   23.0648   67.5387   -0.8093 N   0  0  0  0  0  0  0  0  0  0  0  0
   22.3224   68.7149   -0.6403 C   0  0  0  0  0  0  0  0  0  0  0  0
   23.6637   69.5943   -2.4665 C   0  0  0  0  0  0  0  0  0  0  0  0
   24.3624   68.4673   -2.6157 C   0  0  0  0  0  0  0  0  0  0  0  0
   24.0717   67.3171   -1.7349 C   0  0  0  0  0  0  0  0  0  0  0  0
   22.8486   66.7910   -0.2064 H   0  0  0  0  0  0  0  0  0  0  0  0
   20.6319   73.1720   -6.4098 O   0  0  0  0  0  0  0  0  0  0  0  0
   19.0796   73.6235   -6.3894 P   0  0  2  0  0  0  0  0  0  0  0  0
   18.6656   73.5953   -7.9540 O   0  0  0  0  0  0  0  0  0  0  0  0
   18.8293   74.9371   -5.7070 O   0  0  0  0  0  0  0  0  0  0  0  0
   18.2978   72.3713   -5.7387 O   0  0  0  0  0  0  0  0  0  0  0  0
   19.2019   70.2449   -5.2190 O   0  0  0  0  0  0  0  0  0  0  0  0
   15.2301   69.3281   -5.8917 O   0  0  0  0  0  0  0  0  0  0  0  0
   16.6329   71.2046   -7.6369 O   0  0  0  0  0  0  0  0  0  0  0  0
   16.2649   69.4284   -3.1769 O   0  0  0  0  0  0  0  0  0  0  0  0
   16.3277   70.1416   -5.4775 C   0  0  2  0  0  0  0  0  0  0  0  0
   17.2633   70.3809   -6.6628 C   0  0  2  0  0  0  0  0  0  0  0  0
   17.0656   69.4053   -4.3571 C   0  0  1  0  0  0  0  0  0  0  0  0
   18.5611   71.0506   -6.2088 C   0  0  1  0  0  0  0  0  0  0  0  0
   18.4081   70.0621   -4.0487 C   0  0  1  0  0  0  0  0  0  0  0  0
   14.7461   69.7758   -6.6035 H   0  0  0  0  0  0  0  0  0  0  0  0
   15.8086   70.7858   -7.9292 H   0  0  0  0  0  0  0  0  0  0  0  0
   15.4075   69.0134   -3.3597 H   0  0  0  0  0  0  0  0  0  0  0  0
   18.9411   69.3058   -1.8934 O   0  0  0  0  0  0  0  0  0  0  0  0
   20.1139   68.4078   -3.6304 O   0  0  0  0  0  0  0  0  0  0  0  0
   19.2555   69.1663   -3.2051 C   0  0  0  0  0  0  0  0  0  0  0  0
  1  4  1  0
  1 24  1  0
  1  2  1  6
  1  3  2  0
 25 28  1  0
 25 24  1  0
 25 26  1  6
 25 27  2  0
  6 11  1  0
  6 12  1  0
 29 36  1  0
 29 37  1  0
  9  7  1  1
  7 13  1  0
 10  8  1  1
  8 14  1  0
  4  5  1  0
 36 28  1  1
 33 30  1  6
 30 38  1  0
 34 31  1  6
 31 39  1  0
 35 32  1  1
 32 40  1  0
 41 43  1  0
 15 19  2  0
 42 43  2  0
 16 22  2  0
 12 17  1  6
 17 19  1  0
 17 20  1  0
 18 19  1  0
 18 22  1  0
 18 23  1  0
  9 10  1  0
  9 11  1  0
 10 12  1  0
 11  5  1  6
 33 34  1  0
 33 35  1  0
 34 36  1  0
 35 37  1  0
 37 43  1  1
 20 21  2  0
 21 22  1  0
M  CHG  3   2  -1  26  -1  41  -1
M  END
>  <COMPND>  (30) 
    udp_gluA.pdb 

>  <AUTHOR>  (30) 
    GENERATED BY OPEN BABEL 3.1.1

>  <MASTER>  (30) 
        0    0    0    0    0    0    0    0   56    0   56    0

>  <minimizedAffinity>  (30) 
-8.12505

>  <CNNscore>  (30) 
0.3552388251

>  <CNNaffinity>  (30) 
4.0288848877

>  <CNN_VS>  (30) 
1.4312163591

>  <CNNaffinity_variance>  (30) 
0.7967101336

$$$$
31
     RDKit          3D

 43 45  0  0  0  0  0  0  0  0999 V2000
   22.1958   73.4935   -6.1704 P   0  0  2  0  0  0  0  0  0  0  0  0
   22.8062   74.9632   -5.8765 O   0  0  0  0  0  0  0  0  0  0  0  0
   22.7112   72.8305   -7.4139 O   0  0  0  0  0  0  0  0  0  0  0  0
   20.5947   73.7177   -6.1057 O   0  0  0  0  0  0  0  0  0  0  0  0
   19.7651   72.5993   -5.8501 C   0  0  0  0  0  0  0  0  0  0  0  0
   17.4953   71.8519   -6.1092 O   0  0  0  0  0  0  0  0  0  0  0  0
   16.6870   74.5217   -5.0090 O   0  0  0  0  0  0  0  0  0  0  0  0
   16.4077   72.8785   -2.8508 O   0  0  0  0  0  0  0  0  0  0  0  0
   17.8039   73.7024   -4.6630 C   0  0  1  0  0  0  0  0  0  0  0  0
   17.3486   72.5162   -3.8397 C   0  0  2  0  0  0  0  0  0  0  0  0
   18.3074   73.0332   -5.9346 C   0  0  1  0  0  0  0  0  0  0  0  0
   16.7591   71.6031   -4.9011 C   0  0  2  0  0  0  0  0  0  0  0  0
   16.3478   74.9599   -4.2124 H   0  0  0  0  0  0  0  0  0  0  0  0
   16.8314   73.4593   -2.1987 H   0  0  0  0  0  0  0  0  0  0  0  0
   15.5748   69.4919   -6.3560 O   0  0  0  0  0  0  0  0  0  0  0  0
   17.2908   66.3133   -3.4932 O   0  0  0  0  0  0  0  0  0  0  0  0
   16.8803   70.2144   -4.5582 N   0  0  0  0  0  0  0  0  0  0  0  0
   16.4298   67.9108   -4.9282 N   0  0  0  0  0  0  0  0  0  0  0  0
   16.2458   69.2325   -5.3553 C   0  0  0  0  0  0  0  0  0  0  0  0
   17.6217   69.8370   -3.4451 C   0  0  0  0  0  0  0  0  0  0  0  0
   17.7881   68.5731   -3.0506 C   0  0  0  0  0  0  0  0  0  0  0  0
   17.1573   67.4864   -3.8282 C   0  0  0  0  0  0  0  0  0  0  0  0
   15.9958   67.2097   -5.4662 H   0  0  0  0  0  0  0  0  0  0  0  0
   22.5059   72.6914   -4.8017 O   0  0  0  0  0  0  0  0  0  0  0  0
   22.7634   73.2211   -3.2961 P   0  0  2  0  0  0  0  0  0  0  0  0
   21.3625   73.9346   -2.9104 O   0  0  0  0  0  0  0  0  0  0  0  0
   23.9681   74.1054   -3.1520 O   0  0  0  0  0  0  0  0  0  0  0  0
   22.8020   71.8849   -2.3931 O   0  0  0  0  0  0  0  0  0  0  0  0
   23.2089   69.6820   -3.1617 O   0  0  0  0  0  0  0  0  0  0  0  0
   20.9338   68.9870    0.2160 O   0  0  0  0  0  0  0  0  0  0  0  0
   20.2334   71.1465   -1.6226 O   0  0  0  0  0  0  0  0  0  0  0  0
   23.8041   68.5298    0.2706 O   0  0  0  0  0  0  0  0  0  0  0  0
   21.8760   69.6828   -0.6001 C   0  0  2  0  0  0  0  0  0  0  0  0
   21.1973   70.1353   -1.8932 C   0  0  2  0  0  0  0  0  0  0  0  0
   23.0295   68.7264   -0.9109 C   0  0  1  0  0  0  0  0  0  0  0  0
   22.2234   70.6788   -2.8884 C   0  0  1  0  0  0  0  0  0  0  0  0
   23.9379   69.2853   -2.0023 C   0  0  1  0  0  0  0  0  0  0  0  0
   20.1914   69.5752    0.4264 H   0  0  0  0  0  0  0  0  0  0  0  0
   19.5793   70.8085   -0.9915 H   0  0  0  0  0  0  0  0  0  0  0  0
   23.2376   68.1744    0.9732 H   0  0  0  0  0  0  0  0  0  0  0  0
   24.4636   67.0011   -2.0908 O   0  0  0  0  0  0  0  0  0  0  0  0
   25.8149   68.4252   -3.2506 O   0  0  0  0  0  0  0  0  0  0  0  0
   24.8511   68.2254   -2.5266 C   0  0  0  0  0  0  0  0  0  0  0  0
  1  4  1  0
  1 24  1  0
  1  2  1  1
  1  3  2  0
 25 28  1  0
 25 24  1  0
 25 26  1  1
 25 27  2  0
  6 11  1  0
  6 12  1  0
 29 36  1  0
 29 37  1  0
  9  7  1  6
  7 13  1  0
 10  8  1  1
  8 14  1  0
  4  5  1  0
 36 28  1  1
 33 30  1  1
 30 38  1  0
 34 31  1  1
 31 39  1  0
 35 32  1  1
 32 40  1  0
 41 43  1  0
 15 19  2  0
 42 43  2  0
 16 22  2  0
 12 17  1  1
 17 19  1  0
 17 20  1  0
 18 19  1  0
 18 22  1  0
 18 23  1  0
  9 10  1  0
  9 11  1  0
 10 12  1  0
 11  5  1  1
 33 34  1  0
 33 35  1  0
 34 36  1  0
 35 37  1  0
 37 43  1  6
 20 21  2  0
 21 22  1  0
M  CHG  3   2  -1  26  -1  41  -1
M  END
>  <COMPND>  (31) 
    udp_gluA.pdb 

>  <AUTHOR>  (31) 
    GENERATED BY OPEN BABEL 3.1.1

>  <MASTER>  (31) 
        0    0    0    0    0    0    0    0   56    0   56    0

>  <minimizedAffinity>  (31) 
-8.03513

>  <CNNscore>  (31) 
0.3124692738

>  <CNNaffinity>  (31) 
3.9955298901

>  <CNN_VS>  (31) 
1.2484803200

>  <CNNaffinity_variance>  (31) 
0.7783784866

$$$$
32
     RDKit          3D

 43 45  0  0  0  0  0  0  0  0999 V2000
   22.7347   73.3291   -3.4019 P   0  0  2  0  0  0  0  0  0  0  0  0
   24.1501   73.1686   -4.1699 O   0  0  0  0  0  0  0  0  0  0  0  0
   22.5017   74.6734   -2.7773 O   0  0  0  0  0  0  0  0  0  0  0  0
   22.6969   72.0677   -2.3892 O   0  0  0  0  0  0  0  0  0  0  0  0
   22.8606   72.3080   -1.0036 C   0  0  0  0  0  0  0  0  0  0  0  0
   21.9728   70.0746   -0.9667 O   0  0  0  0  0  0  0  0  0  0  0  0
   21.5263   70.5000    1.9678 O   0  0  0  0  0  0  0  0  0  0  0  0
   23.8089   69.0087    1.9223 O   0  0  0  0  0  0  0  0  0  0  0  0
   22.5930   70.9634    1.1395 C   0  0  1  0  0  0  0  0  0  0  0  0
   23.5286   69.8219    0.8022 C   0  0  2  0  0  0  0  0  0  0  0  0
   22.0116   71.3123   -0.2238 C   0  0  1  0  0  0  0  0  0  0  0  0
   22.7516   69.0852   -0.2755 C   0  0  2  0  0  0  0  0  0  0  0  0
   21.8735   70.2709    2.8445 H   0  0  0  0  0  0  0  0  0  0  0  0
   24.3047   69.5231    2.5793 H   0  0  0  0  0  0  0  0  0  0  0  0
   23.1209   66.2885   -0.4121 O   0  0  0  0  0  0  0  0  0  0  0  0
   26.0751   66.6668   -3.9297 O   0  0  0  0  0  0  0  0  0  0  0  0
   23.6115   68.4261   -1.2174 N   0  0  0  0  0  0  0  0  0  0  0  0
   24.5927   66.4796   -2.1632 N   0  0  0  0  0  0  0  0  0  0  0  0
   23.7261   67.0159   -1.2017 C   0  0  0  0  0  0  0  0  0  0  0  0
   24.3281   69.1740   -2.1436 C   0  0  0  0  0  0  0  0  0  0  0  0
   25.1502   68.6487   -3.0541 C   0  0  0  0  0  0  0  0  0  0  0  0
   25.3272   67.1825   -3.1045 C   0  0  0  0  0  0  0  0  0  0  0  0
   24.6905   65.5000   -2.1705 H   0  0  0  0  0  0  0  0  0  0  0  0
   21.6582   72.9175   -4.5353 O   0  0  0  0  0  0  0  0  0  0  0  0
   21.3947   73.5130   -6.0151 P   0  0  2  0  0  0  0  0  0  0  0  0
   22.6531   72.9559   -6.8674 O   0  0  0  0  0  0  0  0  0  0  0  0
   21.2303   75.0046   -6.0583 O   0  0  0  0  0  0  0  0  0  0  0  0
   20.1275   72.6833   -6.5704 O   0  0  0  0  0  0  0  0  0  0  0  0
   19.1583   70.6776   -5.7663 O   0  0  0  0  0  0  0  0  0  0  0  0
   18.4584   70.3803   -9.8270 O   0  0  0  0  0  0  0  0  0  0  0  0
   21.0314   71.3442   -8.8344 O   0  0  0  0  0  0  0  0  0  0  0  0
   16.2929   71.0872   -8.0210 O   0  0  0  0  0  0  0  0  0  0  0  0
   18.6360   71.0543   -8.5812 C   0  0  2  0  0  0  0  0  0  0  0  0
   20.0262   70.7446   -8.0253 C   0  0  2  0  0  0  0  0  0  0  0  0
   17.5551   70.5594   -7.6175 C   0  0  1  0  0  0  0  0  0  0  0  0
   20.1690   71.2577   -6.5918 C   0  0  1  0  0  0  0  0  0  0  0  0
   17.8366   71.0084   -6.1865 C   0  0  1  0  0  0  0  0  0  0  0  0
   19.1345   70.6789  -10.4556 H   0  0  0  0  0  0  0  0  0  0  0  0
   20.9465   71.0233   -9.7456 H   0  0  0  0  0  0  0  0  0  0  0  0
   16.1018   70.8089   -8.9303 H   0  0  0  0  0  0  0  0  0  0  0  0
   15.7277   70.7813   -5.1853 O   0  0  0  0  0  0  0  0  0  0  0  0
   17.3469   69.3091   -4.5452 O   0  0  0  0  0  0  0  0  0  0  0  0
   16.9794   70.2608   -5.2177 C   0  0  0  0  0  0  0  0  0  0  0  0
  1  4  1  0
  1 24  1  0
  1  2  1  6
  1  3  2  0
 25 28  1  0
 25 24  1  0
 25 26  1  6
 25 27  2  0
  6 11  1  0
  6 12  1  0
 29 36  1  0
 29 37  1  0
  9  7  1  1
  7 13  1  0
 10  8  1  1
  8 14  1  0
  4  5  1  0
 36 28  1  6
 33 30  1  6
 30 38  1  0
 34 31  1  6
 31 39  1  0
 35 32  1  6
 32 40  1  0
 41 43  1  0
 15 19  2  0
 42 43  2  0
 16 22  2  0
 12 17  1  6
 17 19  1  0
 17 20  1  0
 18 19  1  0
 18 22  1  0
 18 23  1  0
  9 10  1  0
  9 11  1  0
 10 12  1  0
 11  5  1  6
 33 34  1  0
 33 35  1  0
 34 36  1  0
 35 37  1  0
 37 43  1  1
 20 21  2  0
 21 22  1  0
M  CHG  3   2  -1  26  -1  41  -1
M  END
>  <COMPND>  (32) 
    udp_gluA.pdb 

>  <AUTHOR>  (32) 
    GENERATED BY OPEN BABEL 3.1.1

>  <MASTER>  (32) 
        0    0    0    0    0    0    0    0   56    0   56    0

>  <minimizedAffinity>  (32) 
-9.35291

>  <CNNscore>  (32) 
0.3115149736

>  <CNNaffinity>  (32) 
4.2182202339

>  <CNN_VS>  (32) 
1.3140387535

>  <CNNaffinity_variance>  (32) 
0.6166735888

$$$$
33
     RDKit          3D

 43 45  0  0  0  0  0  0  0  0999 V2000
   18.7725   69.9825   -3.7331 P   0  0  2  0  0  0  0  0  0  0  0  0
   17.9197   69.0388   -2.7325 O   0  0  0  0  0  0  0  0  0  0  0  0
   19.7632   69.2582   -4.5965 O   0  0  0  0  0  0  0  0  0  0  0  0
   19.3870   71.1222   -2.7629 O   0  0  0  0  0  0  0  0  0  0  0  0
   20.1174   70.7154   -1.6202 C   0  0  0  0  0  0  0  0  0  0  0  0
   22.4107   71.3558   -1.2911 O   0  0  0  0  0  0  0  0  0  0  0  0
   23.1298   68.7169   -2.5200 O   0  0  0  0  0  0  0  0  0  0  0  0
   23.4485   68.2393    0.1457 O   0  0  0  0  0  0  0  0  0  0  0  0
   22.0371   69.0464   -1.6622 C   0  0  1  0  0  0  0  0  0  0  0  0
   22.5246   69.2349   -0.2413 C   0  0  2  0  0  0  0  0  0  0  0  0
   21.5614   70.4467   -2.0242 C   0  0  1  0  0  0  0  0  0  0  0  0
   23.1479   70.6190   -0.3027 C   0  0  2  0  0  0  0  0  0  0  0  0
   23.4509   67.8261   -2.3076 H   0  0  0  0  0  0  0  0  0  0  0  0
   23.0035   67.3771    0.1700 H   0  0  0  0  0  0  0  0  0  0  0  0
   20.8655   70.6487    1.3606 O   0  0  0  0  0  0  0  0  0  0  0  0
   22.9550   73.3115    4.4891 O   0  0  0  0  0  0  0  0  0  0  0  0
   23.0681   71.3120    0.9520 N   0  0  0  0  0  0  0  0  0  0  0  0
   21.9080   71.9757    2.9167 N   0  0  0  0  0  0  0  0  0  0  0  0
   21.8747   71.2635    1.7106 C   0  0  0  0  0  0  0  0  0  0  0  0
   24.1635   72.0276    1.4199 C   0  0  0  0  0  0  0  0  0  0  0  0
   24.1803   72.7015    2.5716 C   0  0  0  0  0  0  0  0  0  0  0  0
   22.9731   72.7025    3.4237 C   0  0  0  0  0  0  0  0  0  0  0  0
   21.0879   71.9584    3.4612 H   0  0  0  0  0  0  0  0  0  0  0  0
   17.6250   70.7784   -4.5472 O   0  0  0  0  0  0  0  0  0  0  0  0
   17.0719   70.5943   -6.0551 P   0  0  2  0  0  0  0  0  0  0  0  0
   15.9624   71.7655   -6.1877 O   0  0  0  0  0  0  0  0  0  0  0  0
   16.5566   69.2171   -6.3581 O   0  0  0  0  0  0  0  0  0  0  0  0
   18.2880   71.0768   -6.9990 O   0  0  0  0  0  0  0  0  0  0  0  0
   18.8375   73.3038   -6.4094 O   0  0  0  0  0  0  0  0  0  0  0  0
   21.5185   72.5564   -9.4626 O   0  0  0  0  0  0  0  0  0  0  0  0
   18.7436   71.6688   -9.6781 O   0  0  0  0  0  0  0  0  0  0  0  0
   22.4189   72.5604   -6.6985 O   0  0  0  0  0  0  0  0  0  0  0  0
   20.6916   72.2303   -8.3455 C   0  0  2  0  0  0  0  0  0  0  0  0
   19.2341   72.5522   -8.6763 C   0  0  2  0  0  0  0  0  0  0  0  0
   21.1622   73.0618   -7.1500 C   0  0  1  0  0  0  0  0  0  0  0  0
   18.3518   72.4341   -7.4328 C   0  0  1  0  0  0  0  0  0  0  0  0
   20.1661   72.9920   -5.9962 C   0  0  1  0  0  0  0  0  0  0  0  0
   21.2380   72.0399  -10.2344 H   0  0  0  0  0  0  0  0  0  0  0  0
   19.2990   71.7383  -10.4700 H   0  0  0  0  0  0  0  0  0  0  0  0
   23.0619   72.5992   -7.4236 H   0  0  0  0  0  0  0  0  0  0  0  0
   19.3064   74.5686   -4.4873 O   0  0  0  0  0  0  0  0  0  0  0  0
   21.5755   74.3963   -4.6313 O   0  0  0  0  0  0  0  0  0  0  0  0
   20.4575   74.0471   -4.9793 C   0  0  0  0  0  0  0  0  0  0  0  0
  1  4  1  0
  1 24  1  0
  1  2  1  1
  1  3  2  0
 25 28  1  0
 25 24  1  0
 25 26  1  1
 25 27  2  0
  6 11  1  0
  6 12  1  0
 29 36  1  0
 29 37  1  0
  9  7  1  6
  7 13  1  0
 10  8  1  6
  8 14  1  0
  4  5  1  0
 36 28  1  1
 33 30  1  6
 30 38  1  0
 34 31  1  6
 31 39  1  0
 35 32  1  1
 32 40  1  0
 41 43  1  0
 15 19  2  0
 42 43  2  0
 16 22  2  0
 12 17  1  1
 17 19  1  0
 17 20  1  0
 18 19  1  0
 18 22  1  0
 18 23  1  0
  9 10  1  0
  9 11  1  0
 10 12  1  0
 11  5  1  1
 33 34  1  0
 33 35  1  0
 34 36  1  0
 35 37  1  0
 37 43  1  1
 20 21  2  0
 21 22  1  0
M  CHG  3   2  -1  26  -1  41  -1
M  END
>  <COMPND>  (33) 
    udp_gluA.pdb 

>  <AUTHOR>  (33) 
    GENERATED BY OPEN BABEL 3.1.1

>  <MASTER>  (33) 
        0    0    0    0    0    0    0    0   56    0   56    0

>  <minimizedAffinity>  (33) 
-8.14082

>  <CNNscore>  (33) 
0.3096463978

>  <CNNaffinity>  (33) 
3.9486517906

>  <CNN_VS>  (33) 
1.2226858139

>  <CNNaffinity_variance>  (33) 
0.3094055057

$$$$
34
     RDKit          3D

 43 45  0  0  0  0  0  0  0  0999 V2000
   22.3604   72.9191   -3.9141 P   0  0  2  0  0  0  0  0  0  0  0  0
   23.8963   72.8361   -4.4172 O   0  0  0  0  0  0  0  0  0  0  0  0
   21.9215   74.2734   -3.4398 O   0  0  0  0  0  0  0  0  0  0  0  0
   22.2411   71.7227   -2.8313 O   0  0  0  0  0  0  0  0  0  0  0  0
   22.4568   72.0236   -1.4648 C   0  0  0  0  0  0  0  0  0  0  0  0
   21.8474   69.7083   -1.2504 O   0  0  0  0  0  0  0  0  0  0  0  0
   21.3165   70.3080    1.6392 O   0  0  0  0  0  0  0  0  0  0  0  0
   23.7641   69.1086    1.7195 O   0  0  0  0  0  0  0  0  0  0  0  0
   22.3288   70.8312    0.7789 C   0  0  1  0  0  0  0  0  0  0  0  0
   23.4006   69.7896    0.5369 C   0  0  2  0  0  0  0  0  0  0  0  0
   21.7260   70.9966   -0.6094 C   0  0  1  0  0  0  0  0  0  0  0  0
   22.7324   68.8799   -0.4799 C   0  0  2  0  0  0  0  0  0  0  0  0
   21.6782   70.1936    2.5324 H   0  0  0  0  0  0  0  0  0  0  0  0
   24.1855   69.7304    2.3341 H   0  0  0  0  0  0  0  0  0  0  0  0
   23.2590   66.1061   -0.5560 O   0  0  0  0  0  0  0  0  0  0  0  0
   26.3796   66.6056   -3.9111 O   0  0  0  0  0  0  0  0  0  0  0  0
   23.6776   68.2581   -1.3636 N   0  0  0  0  0  0  0  0  0  0  0  0
   24.8135   66.3577   -2.2262 N   0  0  0  0  0  0  0  0  0  0  0  0
   23.8671   66.8566   -1.3215 C   0  0  0  0  0  0  0  0  0  0  0  0
   24.4033   69.0336   -2.2597 C   0  0  0  0  0  0  0  0  0  0  0  0
   25.3019   68.5437   -3.1160 C   0  0  0  0  0  0  0  0  0  0  0  0
   25.5602   67.0890   -3.1357 C   0  0  0  0  0  0  0  0  0  0  0  0
   24.9642   65.3848   -2.2141 H   0  0  0  0  0  0  0  0  0  0  0  0
   21.5327   72.3479   -5.1795 O   0  0  0  0  0  0  0  0  0  0  0  0
   20.0802   72.7482   -5.7659 P   0  0  2  0  0  0  0  0  0  0  0  0
   20.2134   72.4135   -7.3440 O   0  0  0  0  0  0  0  0  0  0  0  0
   19.6623   74.1586   -5.4659 O   0  0  0  0  0  0  0  0  0  0  0  0
   19.0819   71.6179   -5.1929 O   0  0  0  0  0  0  0  0  0  0  0  0
   17.6992   71.8313   -3.2819 O   0  0  0  0  0  0  0  0  0  0  0  0
   18.2427   67.7404   -3.4736 O   0  0  0  0  0  0  0  0  0  0  0  0
   20.4801   69.5557   -3.9565 O   0  0  0  0  0  0  0  0  0  0  0  0
   15.7211   68.9183   -4.3133 O   0  0  0  0  0  0  0  0  0  0  0  0
   18.1049   69.0625   -3.9942 C   0  0  2  0  0  0  0  0  0  0  0  0
   19.2165   69.9510   -3.4352 C   0  0  2  0  0  0  0  0  0  0  0  0
   16.7341   69.5963   -3.5725 C   0  0  1  0  0  0  0  0  0  0  0  0
   18.9709   71.4195   -3.7847 C   0  0  1  0  0  0  0  0  0  0  0  0
   16.6134   71.0939   -3.8390 C   0  0  1  0  0  0  0  0  0  0  0  0
   19.1068   67.3806   -3.7290 H   0  0  0  0  0  0  0  0  0  0  0  0
   20.6423   68.6248   -3.7387 H   0  0  0  0  0  0  0  0  0  0  0  0
   15.7870   67.9640   -4.1526 H   0  0  0  0  0  0  0  0  0  0  0  0
   15.0880   70.8983   -2.0679 O   0  0  0  0  0  0  0  0  0  0  0  0
   14.8336   72.6801   -3.4677 O   0  0  0  0  0  0  0  0  0  0  0  0
   15.4249   71.6638   -3.1354 C   0  0  0  0  0  0  0  0  0  0  0  0
  1  4  1  0
  1 24  1  0
  1  2  1  6
  1  3  2  0
 25 28  1  0
 25 24  1  0
 25 26  1  6
 25 27  2  0
  6 11  1  0
  6 12  1  0
 29 36  1  0
 29 37  1  0
  9  7  1  1
  7 13  1  0
 10  8  1  1
  8 14  1  0
  4  5  1  0
 36 28  1  6
 33 30  1  1
 30 38  1  0
 34 31  1  6
 31 39  1  0
 35 32  1  6
 32 40  1  0
 41 43  1  0
 15 19  2  0
 42 43  2  0
 16 22  2  0
 12 17  1  6
 17 19  1  0
 17 20  1  0
 18 19  1  0
 18 22  1  0
 18 23  1  0
  9 10  1  0
  9 11  1  0
 10 12  1  0
 11  5  1  6
 33 34  1  0
 33 35  1  0
 34 36  1  0
 35 37  1  0
 37 43  1  1
 20 21  2  0
 21 22  1  0
M  CHG  3   2  -1  26  -1  41  -1
M  END
>  <COMPND>  (34) 
    udp_gluA.pdb 

>  <AUTHOR>  (34) 
    GENERATED BY OPEN BABEL 3.1.1

>  <MASTER>  (34) 
        0    0    0    0    0    0    0    0   56    0   56    0

>  <minimizedAffinity>  (34) 
-8.66473

>  <CNNscore>  (34) 
0.3082602024

>  <CNNaffinity>  (34) 
4.0462732315

>  <CNN_VS>  (34) 
1.2473050356

>  <CNNaffinity_variance>  (34) 
1.0742979050

$$$$
35
     RDKit          3D

 43 45  0  0  0  0  0  0  0  0999 V2000
   22.4201   71.1012   -2.6705 P   0  0  2  0  0  0  0  0  0  0  0  0
   21.6627   69.8459   -1.9853 O   0  0  0  0  0  0  0  0  0  0  0  0
   23.8477   70.8462   -3.0560 O   0  0  0  0  0  0  0  0  0  0  0  0
   22.1798   72.3156   -1.6287 O   0  0  0  0  0  0  0  0  0  0  0  0
   23.1334   72.5256   -0.6034 C   0  0  0  0  0  0  0  0  0  0  0  0
   23.7212   71.9250    1.6486 O   0  0  0  0  0  0  0  0  0  0  0  0
   20.9747   70.7389    1.8514 O   0  0  0  0  0  0  0  0  0  0  0  0
   20.6899   73.1249    3.1404 O   0  0  0  0  0  0  0  0  0  0  0  0
   21.4039   71.9110    1.1583 C   0  0  1  0  0  0  0  0  0  0  0  0
   21.6831   73.0283    2.1411 C   0  0  2  0  0  0  0  0  0  0  0  0
   22.7877   71.6376    0.5850 C   0  0  1  0  0  0  0  0  0  0  0  0
   23.0374   72.6259    2.6996 C   0  0  2  0  0  0  0  0  0  0  0  0
   20.0925   70.8894    2.2265 H   0  0  0  0  0  0  0  0  0  0  0  0
   19.8471   73.3838    2.7346 H   0  0  0  0  0  0  0  0  0  0  0  0
   22.8564   73.8939    5.2167 O   0  0  0  0  0  0  0  0  0  0  0  0
   26.1104   76.9642    4.1080 O   0  0  0  0  0  0  0  0  0  0  0  0
   23.8256   73.7587    3.0951 N   0  0  0  0  0  0  0  0  0  0  0  0
   24.4765   75.4225    4.6618 N   0  0  0  0  0  0  0  0  0  0  0  0
   23.6571   74.3208    4.3827 C   0  0  0  0  0  0  0  0  0  0  0  0
   24.7535   74.2998    2.2137 C   0  0  0  0  0  0  0  0  0  0  0  0
   25.5275   75.3501    2.4940 C   0  0  0  0  0  0  0  0  0  0  0  0
   25.4132   75.9967    3.8177 C   0  0  0  0  0  0  0  0  0  0  0  0
   24.3758   75.8322    5.5513 H   0  0  0  0  0  0  0  0  0  0  0  0
   21.4474   71.4827   -3.9038 O   0  0  0  0  0  0  0  0  0  0  0  0
   21.3471   72.8239   -4.8009 P   0  0  2  0  0  0  0  0  0  0  0  0
   22.7243   72.8039   -5.6514 O   0  0  0  0  0  0  0  0  0  0  0  0
   21.1279   74.0799   -4.0083 O   0  0  0  0  0  0  0  0  0  0  0  0
   20.1949   72.5063   -5.8845 O   0  0  0  0  0  0  0  0  0  0  0  0
   18.7294   70.6485   -5.7847 O   0  0  0  0  0  0  0  0  0  0  0  0
   18.6979   71.5282   -9.8211 O   0  0  0  0  0  0  0  0  0  0  0  0
   21.1982   71.5903   -8.3115 O   0  0  0  0  0  0  0  0  0  0  0  0
   16.4325   72.2565   -8.1513 O   0  0  0  0  0  0  0  0  0  0  0  0
   18.7852   71.8153   -8.4255 C   0  0  2  0  0  0  0  0  0  0  0  0
   19.9710   71.0626   -7.8214 C   0  0  2  0  0  0  0  0  0  0  0  0
   17.4786   71.3660   -7.7676 C   0  0  1  0  0  0  0  0  0  0  0  0
   19.9609   71.1604   -6.2952 C   0  0  1  0  0  0  0  0  0  0  0  0
   17.5904   71.3718   -6.2457 C   0  0  1  0  0  0  0  0  0  0  0  0
   19.5175   71.8052  -10.2603 H   0  0  0  0  0  0  0  0  0  0  0  0
   21.2113   71.5316   -9.2793 H   0  0  0  0  0  0  0  0  0  0  0  0
   16.3510   72.2623   -9.1178 H   0  0  0  0  0  0  0  0  0  0  0  0
   15.9156   69.7510   -6.5100 O   0  0  0  0  0  0  0  0  0  0  0  0
   16.0485   70.7886   -4.4839 O   0  0  0  0  0  0  0  0  0  0  0  0
   16.4497   70.6311   -5.6273 C   0  0  0  0  0  0  0  0  0  0  0  0
  1  4  1  0
  1 24  1  0
  1  2  1  1
  1  3  2  0
 25 28  1  0
 25 24  1  0
 25 26  1  6
 25 27  2  0
  6 11  1  0
  6 12  1  0
 29 36  1  0
 29 37  1  0
  9  7  1  1
  7 13  1  0
 10  8  1  1
  8 14  1  0
  4  5  1  0
 36 28  1  6
 33 30  1  6
 30 38  1  0
 34 31  1  6
 31 39  1  0
 35 32  1  1
 32 40  1  0
 41 43  1  0
 15 19  2  0
 42 43  2  0
 16 22  2  0
 12 17  1  6
 17 19  1  0
 17 20  1  0
 18 19  1  0
 18 22  1  0
 18 23  1  0
  9 10  1  0
  9 11  1  0
 10 12  1  0
 11  5  1  6
 33 34  1  0
 33 35  1  0
 34 36  1  0
 35 37  1  0
 37 43  1  1
 20 21  2  0
 21 22  1  0
M  CHG  3   2  -1  26  -1  41  -1
M  END
>  <COMPND>  (35) 
    udp_gluA.pdb 

>  <AUTHOR>  (35) 
    GENERATED BY OPEN BABEL 3.1.1

>  <MASTER>  (35) 
        0    0    0    0    0    0    0    0   56    0   56    0

>  <minimizedAffinity>  (35) 
-7.73769

>  <CNNscore>  (35) 
0.2875669897

>  <CNNaffinity>  (35) 
3.9039306641

>  <CNN_VS>  (35) 
1.1226415634

>  <CNNaffinity_variance>  (35) 
0.0840608403

$$$$
36
     RDKit          3D

 43 45  0  0  0  0  0  0  0  0999 V2000
   19.9348   74.6976   -3.5564 P   0  0  2  0  0  0  0  0  0  0  0  0
   19.6402   76.2278   -3.9931 O   0  0  0  0  0  0  0  0  0  0  0  0
   21.1015   74.0550   -4.2474 O   0  0  0  0  0  0  0  0  0  0  0  0
   18.5091   73.9572   -3.7494 O   0  0  0  0  0  0  0  0  0  0  0  0
   17.9957   73.1886   -2.6770 C   0  0  0  0  0  0  0  0  0  0  0  0
   16.5536   72.5983   -4.5071 O   0  0  0  0  0  0  0  0  0  0  0  0
   14.9727   71.0180   -2.5083 O   0  0  0  0  0  0  0  0  0  0  0  0
   16.4449   69.0936   -3.7595 O   0  0  0  0  0  0  0  0  0  0  0  0
   16.3836   71.2225   -2.5864 C   0  0  1  0  0  0  0  0  0  0  0  0
   16.9701   70.4039   -3.7170 C   0  0  2  0  0  0  0  0  0  0  0  0
   16.6260   72.6472   -3.0657 C   0  0  1  0  0  0  0  0  0  0  0  0
   16.5866   71.2274   -4.9346 C   0  0  2  0  0  0  0  0  0  0  0  0
   14.7930   70.1142   -2.2041 H   0  0  0  0  0  0  0  0  0  0  0  0
   16.7171   68.6102   -2.9631 H   0  0  0  0  0  0  0  0  0  0  0  0
   15.8882   70.7582   -7.6306 O   0  0  0  0  0  0  0  0  0  0  0  0
   20.3012   70.7368   -8.9606 O   0  0  0  0  0  0  0  0  0  0  0  0
   17.5330   71.0950   -6.0059 N   0  0  0  0  0  0  0  0  0  0  0  0
   18.0868   70.7470   -8.2903 N   0  0  0  0  0  0  0  0  0  0  0  0
   17.0777   70.8603   -7.3249 C   0  0  0  0  0  0  0  0  0  0  0  0
   18.8940   71.1993   -5.7459 C   0  0  0  0  0  0  0  0  0  0  0  0
   19.8440   71.0892   -6.6765 C   0  0  0  0  0  0  0  0  0  0  0  0
   19.4529   70.8427   -8.0800 C   0  0  0  0  0  0  0  0  0  0  0  0
   17.7944   70.5814   -9.2157 H   0  0  0  0  0  0  0  0  0  0  0  0
   20.0766   74.7996   -1.9495 O   0  0  0  0  0  0  0  0  0  0  0  0
   21.2558   74.3154   -0.9552 P   0  0  2  0  0  0  0  0  0  0  0  0
   20.5999   74.4988    0.5133 O   0  0  0  0  0  0  0  0  0  0  0  0
   22.5576   75.0385   -1.1457 O   0  0  0  0  0  0  0  0  0  0  0  0
   21.3398   72.7184   -1.1670 O   0  0  0  0  0  0  0  0  0  0  0  0
   23.1421   71.5949   -0.1190 O   0  0  0  0  0  0  0  0  0  0  0  0
   21.7298   68.6941   -2.6995 O   0  0  0  0  0  0  0  0  0  0  0  0
   21.9573   71.4718   -3.5755 O   0  0  0  0  0  0  0  0  0  0  0  0
   21.1529   68.5231    0.1446 O   0  0  0  0  0  0  0  0  0  0  0  0
   21.6352   69.8205   -1.8275 C   0  0  2  0  0  0  0  0  0  0  0  0
   22.5027   70.9586   -2.3656 C   0  0  2  0  0  0  0  0  0  0  0  0
   22.1227   69.3887   -0.4426 C   0  0  1  0  0  0  0  0  0  0  0  0
   22.6096   72.0939   -1.3465 C   0  0  1  0  0  0  0  0  0  0  0  0
   22.3244   70.5899    0.4765 C   0  0  1  0  0  0  0  0  0  0  0  0
   21.4252   68.9447   -3.5859 H   0  0  0  0  0  0  0  0  0  0  0  0
   21.8864   70.7566   -4.2266 H   0  0  0  0  0  0  0  0  0  0  0  0
   21.0151   67.7544   -0.4307 H   0  0  0  0  0  0  0  0  0  0  0  0
   23.7434   69.0248    1.4956 O   0  0  0  0  0  0  0  0  0  0  0  0
   23.1570   70.8530    2.7257 O   0  0  0  0  0  0  0  0  0  0  0  0
   23.1010   70.2027    1.6928 C   0  0  0  0  0  0  0  0  0  0  0  0
  1  4  1  0
  1 24  1  0
  1  2  1  6
  1  3  2  0
 25 28  1  0
 25 24  1  0
 25 26  1  1
 25 27  2  0
  6 11  1  0
  6 12  1  0
 29 36  1  0
 29 37  1  0
  9  7  1  6
  7 13  1  0
 10  8  1  6
  8 14  1  0
  4  5  1  0
 36 28  1  1
 33 30  1  6
 30 38  1  0
 34 31  1  6
 31 39  1  0
 35 32  1  1
 32 40  1  0
 41 43  1  0
 15 19  2  0
 42 43  2  0
 16 22  2  0
 12 17  1  6
 17 19  1  0
 17 20  1  0
 18 19  1  0
 18 22  1  0
 18 23  1  0
  9 10  1  0
  9 11  1  0
 10 12  1  0
 11  5  1  6
 33 34  1  0
 33 35  1  0
 34 36  1  0
 35 37  1  0
 37 43  1  1
 20 21  2  0
 21 22  1  0
M  CHG  3   2  -1  26  -1  41  -1
M  END
>  <COMPND>  (36) 
    udp_gluA.pdb 

>  <AUTHOR>  (36) 
    GENERATED BY OPEN BABEL 3.1.1

>  <MASTER>  (36) 
        0    0    0    0    0    0    0    0   56    0   56    0

>  <minimizedAffinity>  (36) 
-7.15738

>  <CNNscore>  (36) 
0.2658452094

>  <CNNaffinity>  (36) 
4.0911717415

>  <CNN_VS>  (36) 
1.0876183510

>  <CNNaffinity_variance>  (36) 
0.2320507467

$$$$
37
     RDKit          3D

 43 45  0  0  0  0  0  0  0  0999 V2000
   22.3202   73.7108   -5.0135 P   0  0  2  0  0  0  0  0  0  0  0  0
   21.1856   74.2104   -3.9733 O   0  0  0  0  0  0  0  0  0  0  0  0
   23.1751   74.8010   -5.5902 O   0  0  0  0  0  0  0  0  0  0  0  0
   21.4990   72.8204   -6.0862 O   0  0  0  0  0  0  0  0  0  0  0  0
   20.3139   73.3573   -6.6444 C   0  0  0  0  0  0  0  0  0  0  0  0
   19.1849   71.2500   -6.8943 O   0  0  0  0  0  0  0  0  0  0  0  0
   18.4911   72.1616   -9.6654 O   0  0  0  0  0  0  0  0  0  0  0  0
   16.1802   72.6187   -8.2918 O   0  0  0  0  0  0  0  0  0  0  0  0
   18.5867   72.9227   -8.4612 C   0  0  1  0  0  0  0  0  0  0  0  0
   17.3941   72.6462   -7.5704 C   0  0  2  0  0  0  0  0  0  0  0  0
   19.7366   72.3578   -7.6385 C   0  0  1  0  0  0  0  0  0  0  0  0
   17.7514   71.2949   -6.9753 C   0  0  2  0  0  0  0  0  0  0  0  0
   17.7630   72.5041  -10.2078 H   0  0  0  0  0  0  0  0  0  0  0  0
   15.9970   73.5018   -8.6502 H   0  0  0  0  0  0  0  0  0  0  0  0
   15.6922   69.4677   -6.3450 O   0  0  0  0  0  0  0  0  0  0  0  0
   15.7274   70.6809   -1.8985 O   0  0  0  0  0  0  0  0  0  0  0  0
   17.2036   71.1128   -5.6609 N   0  0  0  0  0  0  0  0  0  0  0  0
   15.7110   70.0744   -4.1312 N   0  0  0  0  0  0  0  0  0  0  0  0
   16.1709   70.1685   -5.4513 C   0  0  0  0  0  0  0  0  0  0  0  0
   17.6895   71.8629   -4.5969 C   0  0  0  0  0  0  0  0  0  0  0  0
   17.2412   71.7619   -3.3441 C   0  0  0  0  0  0  0  0  0  0  0  0
   16.1623   70.7992   -3.0400 C   0  0  0  0  0  0  0  0  0  0  0  0
   14.9907   69.4251   -3.9610 H   0  0  0  0  0  0  0  0  0  0  0  0
   23.1290   72.5999   -4.1623 O   0  0  0  0  0  0  0  0  0  0  0  0
   22.6166   71.5045   -3.0894 P   0  0  2  0  0  0  0  0  0  0  0  0
   23.8261   70.4293   -3.0522 O   0  0  0  0  0  0  0  0  0  0  0  0
   21.2734   70.9136   -3.4063 O   0  0  0  0  0  0  0  0  0  0  0  0
   22.6974   72.2578   -1.6651 O   0  0  0  0  0  0  0  0  0  0  0  0
   22.2760   70.6670    0.0382 O   0  0  0  0  0  0  0  0  0  0  0  0
   22.8266   74.1233    2.2334 O   0  0  0  0  0  0  0  0  0  0  0  0
   21.2695   74.1709   -0.2380 O   0  0  0  0  0  0  0  0  0  0  0  0
   24.9235   72.1127    2.1269 O   0  0  0  0  0  0  0  0  0  0  0  0
   23.0291   73.2276    1.1404 C   0  0  2  0  0  0  0  0  0  0  0  0
   21.7005   72.9869    0.4230 C   0  0  2  0  0  0  0  0  0  0  0  0
   23.5768   71.9133    1.7013 C   0  0  1  0  0  0  0  0  0  0  0  0
   21.8296   71.8617   -0.6046 C   0  0  1  0  0  0  0  0  0  0  0  0
   23.5562   70.8074    0.6501 C   0  0  1  0  0  0  0  0  0  0  0  0
   22.4786   74.9658    1.9010 H   0  0  0  0  0  0  0  0  0  0  0  0
   21.1857   74.8892    0.4081 H   0  0  0  0  0  0  0  0  0  0  0  0
   24.9506   72.8143    2.7961 H   0  0  0  0  0  0  0  0  0  0  0  0
   23.4214   68.4761    0.4306 O   0  0  0  0  0  0  0  0  0  0  0  0
   24.2126   69.2906    2.4079 O   0  0  0  0  0  0  0  0  0  0  0  0
   23.7745   69.4711    1.2816 C   0  0  0  0  0  0  0  0  0  0  0  0
  1  4  1  0
  1 24  1  0
  1  2  1  1
  1  3  2  0
 25 28  1  0
 25 24  1  0
 25 26  1  1
 25 27  2  0
  6 11  1  0
  6 12  1  0
 29 36  1  0
 29 37  1  0
  9  7  1  6
  7 13  1  0
 10  8  1  6
  8 14  1  0
  4  5  1  0
 36 28  1  6
 33 30  1  1
 30 38  1  0
 34 31  1  6
 31 39  1  0
 35 32  1  6
 32 40  1  0
 41 43  1  0
 15 19  2  0
 42 43  2  0
 16 22  2  0
 12 17  1  1
 17 19  1  0
 17 20  1  0
 18 19  1  0
 18 22  1  0
 18 23  1  0
  9 10  1  0
  9 11  1  0
 10 12  1  0
 11  5  1  1
 33 34  1  0
 33 35  1  0
 34 36  1  0
 35 37  1  0
 37 43  1  1
 20 21  2  0
 21 22  1  0
M  CHG  3   2  -1  26  -1  41  -1
M  END
>  <COMPND>  (37) 
    udp_gluA.pdb 

>  <AUTHOR>  (37) 
    GENERATED BY OPEN BABEL 3.1.1

>  <MASTER>  (37) 
        0    0    0    0    0    0    0    0   56    0   56    0

>  <minimizedAffinity>  (37) 
-7.87845

>  <CNNscore>  (37) 
0.2631749511

>  <CNNaffinity>  (37) 
4.0152635574

>  <CNN_VS>  (37) 
1.0567167997

>  <CNNaffinity_variance>  (37) 
0.1624378860

$$$$
38
     RDKit          3D

 43 45  0  0  0  0  0  0  0  0999 V2000
   20.1249   74.3506   -3.8946 P   0  0  2  0  0  0  0  0  0  0  0  0
   19.7170   72.8648   -3.3997 O   0  0  0  0  0  0  0  0  0  0  0  0
   19.1795   75.4389   -3.4782 O   0  0  0  0  0  0  0  0  0  0  0  0
   20.3443   74.1824   -5.4889 O   0  0  0  0  0  0  0  0  0  0  0  0
   19.3106   74.6001   -6.3614 C   0  0  0  0  0  0  0  0  0  0  0  0
   18.7323   72.2878   -6.6724 O   0  0  0  0  0  0  0  0  0  0  0  0
   18.0207   73.0370   -9.4873 O   0  0  0  0  0  0  0  0  0  0  0  0
   15.5844   72.9190   -8.2681 O   0  0  0  0  0  0  0  0  0  0  0  0
   17.8557   73.7867   -8.2835 C   0  0  1  0  0  0  0  0  0  0  0  0
   16.7083   73.2263   -7.4701 C   0  0  2  0  0  0  0  0  0  0  0  0
   19.0518   73.5023   -7.3853 C   0  0  1  0  0  0  0  0  0  0  0  0
   17.3373   71.9923   -6.8459 C   0  0  2  0  0  0  0  0  0  0  0  0
   17.2683   73.2025  -10.0774 H   0  0  0  0  0  0  0  0  0  0  0  0
   15.2201   73.7371   -8.6423 H   0  0  0  0  0  0  0  0  0  0  0  0
   16.2719   69.4673   -6.1635 O   0  0  0  0  0  0  0  0  0  0  0  0
   15.1688   70.8773   -1.9163 O   0  0  0  0  0  0  0  0  0  0  0  0
   16.7654   71.6721   -5.5687 N   0  0  0  0  0  0  0  0  0  0  0  0
   15.7226   70.1723   -4.0491 N   0  0  0  0  0  0  0  0  0  0  0  0
   16.2578   70.3735   -5.3283 C   0  0  0  0  0  0  0  0  0  0  0  0
   16.7130   72.6375   -4.5706 C   0  0  0  0  0  0  0  0  0  0  0  0
   16.1999   72.4308   -3.3562 C   0  0  0  0  0  0  0  0  0  0  0  0
   15.6476   71.1012   -3.0239 C   0  0  0  0  0  0  0  0  0  0  0  0
   15.3611   69.2765   -3.8589 H   0  0  0  0  0  0  0  0  0  0  0  0
   21.6325   74.5181   -3.3360 O   0  0  0  0  0  0  0  0  0  0  0  0
   22.8152   73.4349   -3.1316 P   0  0  2  0  0  0  0  0  0  0  0  0
   24.0066   74.3086   -2.4702 O   0  0  0  0  0  0  0  0  0  0  0  0
   23.2054   72.7054   -4.3844 O   0  0  0  0  0  0  0  0  0  0  0  0
   22.2965   72.4833   -1.9367 O   0  0  0  0  0  0  0  0  0  0  0  0
   23.5920   72.0952    0.0076 O   0  0  0  0  0  0  0  0  0  0  0  0
   21.0012   68.8778    0.0678 O   0  0  0  0  0  0  0  0  0  0  0  0
   22.2230   69.7486   -2.4389 O   0  0  0  0  0  0  0  0  0  0  0  0
   20.5947   71.1127    1.8818 O   0  0  0  0  0  0  0  0  0  0  0  0
   21.4068   70.2195   -0.2032 C   0  0  2  0  0  0  0  0  0  0  0  0
   22.6079   70.2098   -1.1491 C   0  0  2  0  0  0  0  0  0  0  0  0
   21.7815   70.8779    1.1264 C   0  0  1  0  0  0  0  0  0  0  0  0
   23.2123   71.6085   -1.2802 C   0  0  1  0  0  0  0  0  0  0  0  0
   22.4919   72.2106    0.9073 C   0  0  1  0  0  0  0  0  0  0  0  0
   20.7582   68.4392   -0.7628 H   0  0  0  0  0  0  0  0  0  0  0  0
   21.8384   68.8616   -2.3632 H   0  0  0  0  0  0  0  0  0  0  0  0
   20.1329   70.2723    2.0281 H   0  0  0  0  0  0  0  0  0  0  0  0
   22.6787   71.9773    3.2338 O   0  0  0  0  0  0  0  0  0  0  0  0
   23.9699   73.5733    2.2415 O   0  0  0  0  0  0  0  0  0  0  0  0
   23.1386   72.6807    2.1695 C   0  0  0  0  0  0  0  0  0  0  0  0
  1  4  1  0
  1 24  1  0
  1  2  1  1
  1  3  2  0
 25 28  1  0
 25 24  1  0
 25 26  1  1
 25 27  2  0
  6 11  1  0
  6 12  1  0
 29 36  1  0
 29 37  1  0
  9  7  1  6
  7 13  1  0
 10  8  1  6
  8 14  1  0
  4  5  1  0
 36 28  1  1
 33 30  1  1
 30 38  1  0
 34 31  1  6
 31 39  1  0
 35 32  1  1
 32 40  1  0
 41 43  1  0
 15 19  2  0
 42 43  2  0
 16 22  2  0
 12 17  1  1
 17 19  1  0
 17 20  1  0
 18 19  1  0
 18 22  1  0
 18 23  1  0
  9 10  1  0
  9 11  1  0
 10 12  1  0
 11  5  1  1
 33 34  1  0
 33 35  1  0
 34 36  1  0
 35 37  1  0
 37 43  1  1
 20 21  2  0
 21 22  1  0
M  CHG  3   2  -1  26  -1  41  -1
M  END
>  <COMPND>  (38) 
    udp_gluA.pdb 

>  <AUTHOR>  (38) 
    GENERATED BY OPEN BABEL 3.1.1

>  <MASTER>  (38) 
        0    0    0    0    0    0    0    0   56    0   56    0

>  <minimizedAffinity>  (38) 
-7.03617

>  <CNNscore>  (38) 
0.2607533932

>  <CNNaffinity>  (38) 
3.9618473053

>  <CNN_VS>  (38) 
1.0330650806

>  <CNNaffinity_variance>  (38) 
0.1484050453

$$$$
39
     RDKit          3D

 43 45  0  0  0  0  0  0  0  0999 V2000
   21.0792   70.0653   -1.5419 P   0  0  2  0  0  0  0  0  0  0  0  0
   20.8893   70.2829    0.0504 O   0  0  0  0  0  0  0  0  0  0  0  0
   21.6523   68.7355   -1.9357 O   0  0  0  0  0  0  0  0  0  0  0  0
   21.9244   71.3620   -2.0132 O   0  0  0  0  0  0  0  0  0  0  0  0
   22.5150   71.3531   -3.2999 C   0  0  0  0  0  0  0  0  0  0  0  0
   23.1158   72.8462   -5.0852 O   0  0  0  0  0  0  0  0  0  0  0  0
   22.6167   75.0736   -3.1407 O   0  0  0  0  0  0  0  0  0  0  0  0
   20.3389   75.0699   -4.6400 O   0  0  0  0  0  0  0  0  0  0  0  0
   21.9315   73.8293   -3.2847 C   0  0  1  0  0  0  0  0  0  0  0  0
   21.0496   73.8559   -4.5151 C   0  0  2  0  0  0  0  0  0  0  0  0
   22.9587   72.7671   -3.6519 C   0  0  1  0  0  0  0  0  0  0  0  0
   22.0596   73.6520   -5.6315 C   0  0  2  0  0  0  0  0  0  0  0  0
   21.9808   75.7680   -2.9061 H   0  0  0  0  0  0  0  0  0  0  0  0
   19.7090   75.1527   -3.9063 H   0  0  0  0  0  0  0  0  0  0  0  0
   22.9310   74.0020   -8.2950 O   0  0  0  0  0  0  0  0  0  0  0  0
   19.8187   71.0050   -9.8999 O   0  0  0  0  0  0  0  0  0  0  0  0
   21.4946   72.9757   -6.7647 N   0  0  0  0  0  0  0  0  0  0  0  0
   21.3794   72.5097   -9.0919 N   0  0  0  0  0  0  0  0  0  0  0  0
   22.0054   73.2227   -8.0609 C   0  0  0  0  0  0  0  0  0  0  0  0
   20.4485   72.0785   -6.5864 C   0  0  0  0  0  0  0  0  0  0  0  0
   19.8621   71.4064   -7.5789 C   0  0  0  0  0  0  0  0  0  0  0  0
   20.3356   71.6077   -8.9640 C   0  0  0  0  0  0  0  0  0  0  0  0
   21.7165   72.6667  -10.0036 H   0  0  0  0  0  0  0  0  0  0  0  0
   19.6020   70.3619   -2.1274 O   0  0  0  0  0  0  0  0  0  0  0  0
   18.8178   69.7371   -3.3956 P   0  0  2  0  0  0  0  0  0  0  0  0
   17.8276   68.6498   -2.7192 O   0  0  0  0  0  0  0  0  0  0  0  0
   19.7161   69.1772   -4.4603 O   0  0  0  0  0  0  0  0  0  0  0  0
   17.8421   70.9200   -3.8968 O   0  0  0  0  0  0  0  0  0  0  0  0
   15.5996   71.6069   -3.5678 O   0  0  0  0  0  0  0  0  0  0  0  0
   15.9762   71.9032   -7.6713 O   0  0  0  0  0  0  0  0  0  0  0  0
   17.1043   69.6189   -6.2418 O   0  0  0  0  0  0  0  0  0  0  0  0
   16.0004   74.3004   -6.0269 O   0  0  0  0  0  0  0  0  0  0  0  0
   16.4209   71.9456   -6.3154 C   0  0  2  0  0  0  0  0  0  0  0  0
   16.2205   70.5751   -5.6680 C   0  0  2  0  0  0  0  0  0  0  0  0
   15.5983   73.0066   -5.5809 C   0  0  1  0  0  0  0  0  0  0  0  0
   16.4684   70.6407   -4.1604 C   0  0  1  0  0  0  0  0  0  0  0  0
   15.8049   72.9251   -4.0712 C   0  0  1  0  0  0  0  0  0  0  0  0
   16.4849   71.2356   -8.1579 H   0  0  0  0  0  0  0  0  0  0  0  0
   16.9527   69.5723   -7.1984 H   0  0  0  0  0  0  0  0  0  0  0  0
   15.8740   74.3653   -6.9864 H   0  0  0  0  0  0  0  0  0  0  0  0
   15.1842   75.0045   -3.1811 O   0  0  0  0  0  0  0  0  0  0  0  0
   13.6928   73.2934   -2.9645 O   0  0  0  0  0  0  0  0  0  0  0  0
   14.7691   73.7247   -3.3501 C   0  0  0  0  0  0  0  0  0  0  0  0
  1  4  1  0
  1 24  1  0
  1  2  1  1
  1  3  2  0
 25 28  1  0
 25 24  1  0
 25 26  1  1
 25 27  2  0
  6 11  1  0
  6 12  1  0
 29 36  1  0
 29 37  1  0
  9  7  1  6
  7 13  1  0
 10  8  1  6
  8 14  1  0
  4  5  1  0
 36 28  1  6
 33 30  1  6
 30 38  1  0
 34 31  1  6
 31 39  1  0
 35 32  1  6
 32 40  1  0
 41 43  1  0
 15 19  2  0
 42 43  2  0
 16 22  2  0
 12 17  1  6
 17 19  1  0
 17 20  1  0
 18 19  1  0
 18 22  1  0
 18 23  1  0
  9 10  1  0
  9 11  1  0
 10 12  1  0
 11  5  1  6
 33 34  1  0
 33 35  1  0
 34 36  1  0
 35 37  1  0
 37 43  1  1
 20 21  2  0
 21 22  1  0
M  CHG  3   2  -1  26  -1  41  -1
M  END
>  <COMPND>  (39) 
    udp_gluA.pdb 

>  <AUTHOR>  (39) 
    GENERATED BY OPEN BABEL 3.1.1

>  <MASTER>  (39) 
        0    0    0    0    0    0    0    0   56    0   56    0

>  <minimizedAffinity>  (39) 
-6.80214

>  <CNNscore>  (39) 
0.2364749908

>  <CNNaffinity>  (39) 
3.7177574635

>  <CNN_VS>  (39) 
0.8791566491

>  <CNNaffinity_variance>  (39) 
0.4987512231

$$$$
40
     RDKit          3D

 43 45  0  0  0  0  0  0  0  0999 V2000
   21.6355   73.2558   -5.8849 P   0  0  2  0  0  0  0  0  0  0  0  0
   22.7677   74.0387   -6.7358 O   0  0  0  0  0  0  0  0  0  0  0  0
   20.5356   74.1227   -5.3460 O   0  0  0  0  0  0  0  0  0  0  0  0
   22.4816   72.4275   -4.7822 O   0  0  0  0  0  0  0  0  0  0  0  0
   22.9606   73.1153   -3.6411 C   0  0  0  0  0  0  0  0  0  0  0  0
   21.5250   71.6668   -2.3687 O   0  0  0  0  0  0  0  0  0  0  0  0
   21.2957   73.9241   -0.4081 O   0  0  0  0  0  0  0  0  0  0  0  0
   23.1103   72.2775    0.7886 O   0  0  0  0  0  0  0  0  0  0  0  0
   22.4198   73.5148   -1.1874 C   0  0  1  0  0  0  0  0  0  0  0  0
   23.0160   72.2440   -0.6202 C   0  0  2  0  0  0  0  0  0  0  0  0
   21.9069   73.0485   -2.5431 C   0  0  1  0  0  0  0  0  0  0  0  0
   22.0413   71.1895   -1.1161 C   0  0  2  0  0  0  0  0  0  0  0  0
   21.5984   74.2263    0.4629 H   0  0  0  0  0  0  0  0  0  0  0  0
   23.7427   72.9642    1.0540 H   0  0  0  0  0  0  0  0  0  0  0  0
   21.3348   68.8180    0.2452 O   0  0  0  0  0  0  0  0  0  0  0  0
   24.5250   66.3626   -1.9992 O   0  0  0  0  0  0  0  0  0  0  0  0
   22.6709   69.9164   -1.3253 N   0  0  0  0  0  0  0  0  0  0  0  0
   22.9251   67.5976   -0.8732 N   0  0  0  0  0  0  0  0  0  0  0  0
   22.2409   68.7869   -0.5896 C   0  0  0  0  0  0  0  0  0  0  0  0
   23.7002   69.7955   -2.2510 C   0  0  0  0  0  0  0  0  0  0  0  0
   24.3427   68.6550   -2.5105 C   0  0  0  0  0  0  0  0  0  0  0  0
   23.9551   67.4280   -1.7842 C   0  0  0  0  0  0  0  0  0  0  0  0
   22.6447   66.7979   -0.3718 H   0  0  0  0  0  0  0  0  0  0  0  0
   21.1452   72.1037   -6.9072 O   0  0  0  0  0  0  0  0  0  0  0  0
   19.6639   71.5682   -7.2716 P   0  0  2  0  0  0  0  0  0  0  0  0
   19.9257   70.5832   -8.5292 O   0  0  0  0  0  0  0  0  0  0  0  0
   18.6636   72.6560   -7.5359 O   0  0  0  0  0  0  0  0  0  0  0  0
   19.2748   70.5818   -6.0559 O   0  0  0  0  0  0  0  0  0  0  0  0
   17.9623   71.8921   -4.5829 O   0  0  0  0  0  0  0  0  0  0  0  0
   17.8144   68.1839   -2.7676 O   0  0  0  0  0  0  0  0  0  0  0  0
   20.3193   69.1846   -3.8895 O   0  0  0  0  0  0  0  0  0  0  0  0
   15.5180   69.1763   -4.2484 O   0  0  0  0  0  0  0  0  0  0  0  0
   17.8949   69.0966   -3.8623 C   0  0  2  0  0  0  0  0  0  0  0  0
   19.1435   69.9662   -3.7128 C   0  0  2  0  0  0  0  0  0  0  0  0
   16.6357   69.9661   -3.8467 C   0  0  1  0  0  0  0  0  0  0  0  0
   19.1434   71.1038   -4.7349 C   0  0  1  0  0  0  0  0  0  0  0  0
   16.7643   71.1501   -4.8007 C   0  0  1  0  0  0  0  0  0  0  0  0
   18.6043   67.6206   -2.7573 H   0  0  0  0  0  0  0  0  0  0  0  0
   20.3257   68.4606   -3.2443 H   0  0  0  0  0  0  0  0  0  0  0  0
   15.4251   68.4191   -3.6493 H   0  0  0  0  0  0  0  0  0  0  0  0
   15.6032   73.0367   -5.5713 O   0  0  0  0  0  0  0  0  0  0  0  0
   14.9891   72.1940   -3.5436 O   0  0  0  0  0  0  0  0  0  0  0  0
   15.6931   72.1590   -4.5416 C   0  0  0  0  0  0  0  0  0  0  0  0
  1  4  1  0
  1 24  1  0
  1  2  1  6
  1  3  2  0
 25 28  1  0
 25 24  1  0
 25 26  1  6
 25 27  2  0
  6 11  1  0
  6 12  1  0
 29 36  1  0
 29 37  1  0
  9  7  1  1
  7 13  1  0
 10  8  1  1
  8 14  1  0
  4  5  1  0
 36 28  1  6
 33 30  1  1
 30 38  1  0
 34 31  1  6
 31 39  1  0
 35 32  1  6
 32 40  1  0
 41 43  1  0
 15 19  2  0
 42 43  2  0
 16 22  2  0
 12 17  1  6
 17 19  1  0
 17 20  1  0
 18 19  1  0
 18 22  1  0
 18 23  1  0
  9 10  1  0
  9 11  1  0
 10 12  1  0
 11  5  1  6
 33 34  1  0
 33 35  1  0
 34 36  1  0
 35 37  1  0
 37 43  1  1
 20 21  2  0
 21 22  1  0
M  CHG  3   2  -1  26  -1  41  -1
M  END
>  <COMPND>  (40) 
    udp_gluA.pdb 

>  <AUTHOR>  (40) 
    GENERATED BY OPEN BABEL 3.1.1

>  <MASTER>  (40) 
        0    0    0    0    0    0    0    0   56    0   56    0

>  <minimizedAffinity>  (40) 
-8.15458

>  <CNNscore>  (40) 
0.2142364830

>  <CNNaffinity>  (40) 
3.8114802837

>  <CNN_VS>  (40) 
0.8165581226

>  <CNNaffinity_variance>  (40) 
0.8436051607

$$$$
41
     RDKit          3D

 43 45  0  0  0  0  0  0  0  0999 V2000
   21.1318   69.4052   -1.0574 P   0  0  2  0  0  0  0  0  0  0  0  0
   22.3140   69.2026   -2.1437 O   0  0  0  0  0  0  0  0  0  0  0  0
   21.3931   68.7890    0.2857 O   0  0  0  0  0  0  0  0  0  0  0  0
   19.8060   68.8832   -1.8240 O   0  0  0  0  0  0  0  0  0  0  0  0
   19.5345   69.3818   -3.1210 C   0  0  0  0  0  0  0  0  0  0  0  0
   18.3033   71.1709   -4.1510 O   0  0  0  0  0  0  0  0  0  0  0  0
   15.8950   70.0781   -2.7377 O   0  0  0  0  0  0  0  0  0  0  0  0
   15.5792   69.1286   -5.2744 O   0  0  0  0  0  0  0  0  0  0  0  0
   16.9979   69.3795   -3.3157 C   0  0  1  0  0  0  0  0  0  0  0  0
   16.8924   69.3913   -4.8260 C   0  0  2  0  0  0  0  0  0  0  0  0
   18.2543   70.2060   -3.0777 C   0  0  1  0  0  0  0  0  0  0  0  0
   17.3551   70.7984   -5.1635 C   0  0  2  0  0  0  0  0  0  0  0  0
   15.0806   69.5692   -2.8772 H   0  0  0  0  0  0  0  0  0  0  0  0
   15.3316   68.2210   -5.0358 H   0  0  0  0  0  0  0  0  0  0  0  0
   15.9731   70.8434   -7.6262 O   0  0  0  0  0  0  0  0  0  0  0  0
   19.8970   71.0851  -10.0322 O   0  0  0  0  0  0  0  0  0  0  0  0
   17.9907   70.8727   -6.4486 N   0  0  0  0  0  0  0  0  0  0  0  0
   17.9288   70.9627   -8.8222 N   0  0  0  0  0  0  0  0  0  0  0  0
   17.2047   70.8893   -7.6250 C   0  0  0  0  0  0  0  0  0  0  0  0
   19.3765   70.9300   -6.5346 C   0  0  0  0  0  0  0  0  0  0  0  0
   20.0524   70.9997   -7.6831 C   0  0  0  0  0  0  0  0  0  0  0  0
   19.3063   71.0209   -8.9583 C   0  0  0  0  0  0  0  0  0  0  0  0
   17.4033   70.9735   -9.6547 H   0  0  0  0  0  0  0  0  0  0  0  0
   20.9307   71.0089   -1.0348 O   0  0  0  0  0  0  0  0  0  0  0  0
   21.9683   72.2130   -1.3301 P   0  0  2  0  0  0  0  0  0  0  0  0
   21.0528   73.3130   -2.0865 O   0  0  0  0  0  0  0  0  0  0  0  0
   23.1928   71.7975   -2.0929 O   0  0  0  0  0  0  0  0  0  0  0  0
   22.2684   72.8590    0.1174 O   0  0  0  0  0  0  0  0  0  0  0  0
   24.2383   72.7322    1.4260 O   0  0  0  0  0  0  0  0  0  0  0  0
   21.3154   73.0154    4.3319 O   0  0  0  0  0  0  0  0  0  0  0  0
   20.9176   71.3114    1.9926 O   0  0  0  0  0  0  0  0  0  0  0  0
   22.9691   75.3202    3.6961 O   0  0  0  0  0  0  0  0  0  0  0  0
   21.9126   73.2514    3.0569 C   0  0  2  0  0  0  0  0  0  0  0  0
   22.1544   71.9173    2.3503 C   0  0  2  0  0  0  0  0  0  0  0  0
   23.2382   73.9816    3.2834 C   0  0  1  0  0  0  0  0  0  0  0  0
   22.9972   72.1111    1.0890 C   0  0  1  0  0  0  0  0  0  0  0  0
   24.0761   74.0233    2.0088 C   0  0  1  0  0  0  0  0  0  0  0  0
   20.4713   72.5521    4.2131 H   0  0  0  0  0  0  0  0  0  0  0  0
   20.3775   71.1857    2.7882 H   0  0  0  0  0  0  0  0  0  0  0  0
   22.4362   75.3078    4.5065 H   0  0  0  0  0  0  0  0  0  0  0  0
   25.6158   75.7803    2.2189 O   0  0  0  0  0  0  0  0  0  0  0  0
   26.3877   73.6693    2.6027 O   0  0  0  0  0  0  0  0  0  0  0  0
   25.4806   74.4341    2.3105 C   0  0  0  0  0  0  0  0  0  0  0  0
  1  4  1  0
  1 24  1  0
  1  2  1  6
  1  3  2  0
 25 28  1  0
 25 24  1  0
 25 26  1  6
 25 27  2  0
  6 11  1  0
  6 12  1  0
 29 36  1  0
 29 37  1  0
  9  7  1  1
  7 13  1  0
 10  8  1  1
  8 14  1  0
  4  5  1  0
 36 28  1  6
 33 30  1  1
 30 38  1  0
 34 31  1  6
 31 39  1  0
 35 32  1  6
 32 40  1  0
 41 43  1  0
 15 19  2  0
 42 43  2  0
 16 22  2  0
 12 17  1  6
 17 19  1  0
 17 20  1  0
 18 19  1  0
 18 22  1  0
 18 23  1  0
  9 10  1  0
  9 11  1  0
 10 12  1  0
 11  5  1  6
 33 34  1  0
 33 35  1  0
 34 36  1  0
 35 37  1  0
 37 43  1  1
 20 21  2  0
 21 22  1  0
M  CHG  3   2  -1  26  -1  41  -1
M  END
>  <COMPND>  (41) 
    udp_gluA.pdb 

>  <AUTHOR>  (41) 
    GENERATED BY OPEN BABEL 3.1.1

>  <MASTER>  (41) 
        0    0    0    0    0    0    0    0   56    0   56    0

>  <minimizedAffinity>  (41) 
-8.18724

>  <CNNscore>  (41) 
0.8983470201

>  <CNNaffinity>  (41) 
4.8489599228

>  <CNN_VS>  (41) 
4.3560485840

>  <CNNaffinity_variance>  (41) 
0.0793758482

$$$$
42
     RDKit          3D

 43 45  0  0  0  0  0  0  0  0999 V2000
   21.5851   69.4816   -1.9483 P   0  0  2  0  0  0  0  0  0  0  0  0
   23.0308   68.8944   -2.3776 O   0  0  0  0  0  0  0  0  0  0  0  0
   20.9133   68.7509   -0.8229 O   0  0  0  0  0  0  0  0  0  0  0  0
   20.7609   69.5399   -3.3394 O   0  0  0  0  0  0  0  0  0  0  0  0
   19.5437   68.8229   -3.4346 C   0  0  0  0  0  0  0  0  0  0  0  0
   18.5563   70.9128   -4.0942 O   0  0  0  0  0  0  0  0  0  0  0  0
   16.0283   69.9017   -2.8379 O   0  0  0  0  0  0  0  0  0  0  0  0
   15.5847   69.4770   -5.4948 O   0  0  0  0  0  0  0  0  0  0  0  0
   17.0284   69.1832   -3.5605 C   0  0  1  0  0  0  0  0  0  0  0  0
   16.9220   69.4823   -5.0409 C   0  0  2  0  0  0  0  0  0  0  0  0
   18.3831   69.7838   -3.2107 C   0  0  1  0  0  0  0  0  0  0  0  0
   17.5650   70.8557   -5.1322 C   0  0  2  0  0  0  0  0  0  0  0  0
   15.1537   69.5359   -3.0453 H   0  0  0  0  0  0  0  0  0  0  0  0
   15.2203   68.5808   -5.4167 H   0  0  0  0  0  0  0  0  0  0  0  0
   16.2209   71.7108   -7.4643 O   0  0  0  0  0  0  0  0  0  0  0  0
   20.1104   71.6811   -9.9371 O   0  0  0  0  0  0  0  0  0  0  0  0
   18.2021   71.0793   -6.3991 N   0  0  0  0  0  0  0  0  0  0  0  0
   18.1592   71.6942   -8.6939 N   0  0  0  0  0  0  0  0  0  0  0  0
   17.4358   71.5083   -7.5085 C   0  0  0  0  0  0  0  0  0  0  0  0
   19.5702   70.8758   -6.5330 C   0  0  0  0  0  0  0  0  0  0  0  0
   20.2457   71.0572   -7.6694 C   0  0  0  0  0  0  0  0  0  0  0  0
   19.5195   71.5041   -8.8761 C   0  0  0  0  0  0  0  0  0  0  0  0
   17.6469   71.9907   -9.4806 H   0  0  0  0  0  0  0  0  0  0  0  0
   21.9005   71.0381   -1.6473 O   0  0  0  0  0  0  0  0  0  0  0  0
   22.5212   72.1967   -2.5887 P   0  0  2  0  0  0  0  0  0  0  0  0
   21.2084   72.9088   -3.2130 O   0  0  0  0  0  0  0  0  0  0  0  0
   23.5008   71.6996   -3.6121 O   0  0  0  0  0  0  0  0  0  0  0  0
   23.1225   73.2828   -1.5585 O   0  0  0  0  0  0  0  0  0  0  0  0
   21.9033   72.9969    0.4517 O   0  0  0  0  0  0  0  0  0  0  0  0
   24.6344   75.9027    1.5310 O   0  0  0  0  0  0  0  0  0  0  0  0
   23.3021   76.0144   -1.0665 O   0  0  0  0  0  0  0  0  0  0  0  0
   24.9950   73.1588    2.4208 O   0  0  0  0  0  0  0  0  0  0  0  0
   24.1621   74.7573    0.8219 C   0  0  2  0  0  0  0  0  0  0  0  0
   22.9352   75.1384   -0.0069 C   0  0  2  0  0  0  0  0  0  0  0  0
   23.7980   73.6825    1.8486 C   0  0  1  0  0  0  0  0  0  0  0  0
   22.2661   73.8962   -0.5967 C   0  0  1  0  0  0  0  0  0  0  0  0
   23.0232   72.5365    1.2045 C   0  0  1  0  0  0  0  0  0  0  0  0
   24.8720   76.5993    0.8988 H   0  0  0  0  0  0  0  0  0  0  0  0
   23.7276   76.8047   -0.6994 H   0  0  0  0  0  0  0  0  0  0  0  0
   25.4975   73.8782    2.8340 H   0  0  0  0  0  0  0  0  0  0  0  0
   21.2946   71.0486    1.7520 O   0  0  0  0  0  0  0  0  0  0  0  0
   22.8073   71.5327    3.3879 O   0  0  0  0  0  0  0  0  0  0  0  0
   22.3938   71.6701    2.2464 C   0  0  0  0  0  0  0  0  0  0  0  0
  1  4  1  0
  1 24  1  0
  1  2  1  6
  1  3  2  0
 25 28  1  0
 25 24  1  0
 25 26  1  6
 25 27  2  0
  6 11  1  0
  6 12  1  0
 29 36  1  0
 29 37  1  0
  9  7  1  1
  7 13  1  0
 10  8  1  1
  8 14  1  0
  4  5  1  0
 36 28  1  6
 33 30  1  1
 30 38  1  0
 34 31  1  6
 31 39  1  0
 35 32  1  6
 32 40  1  0
 41 43  1  0
 15 19  2  0
 42 43  2  0
 16 22  2  0
 12 17  1  6
 17 19  1  0
 17 20  1  0
 18 19  1  0
 18 22  1  0
 18 23  1  0
  9 10  1  0
  9 11  1  0
 10 12  1  0
 11  5  1  6
 33 34  1  0
 33 35  1  0
 34 36  1  0
 35 37  1  0
 37 43  1  1
 20 21  2  0
 21 22  1  0
M  CHG  3   2  -1  26  -1  41  -1
M  END
>  <COMPND>  (42) 
    udp_gluA.pdb 

>  <AUTHOR>  (42) 
    GENERATED BY OPEN BABEL 3.1.1

>  <MASTER>  (42) 
        0    0    0    0    0    0    0    0   56    0   56    0

>  <minimizedAffinity>  (42) 
-7.43602

>  <CNNscore>  (42) 
0.8540661335

>  <CNNaffinity>  (42) 
4.8129024506

>  <CNN_VS>  (42) 
4.1105370522

>  <CNNaffinity_variance>  (42) 
0.1137351543

$$$$
43
     RDKit          3D

 43 45  0  0  0  0  0  0  0  0999 V2000
   22.6084   73.3381   -3.7840 P   0  0  2  0  0  0  0  0  0  0  0  0
   22.5816   74.8302   -3.1581 O   0  0  0  0  0  0  0  0  0  0  0  0
   23.8947   72.9558   -4.4555 O   0  0  0  0  0  0  0  0  0  0  0  0
   21.2864   73.2837   -4.7153 O   0  0  0  0  0  0  0  0  0  0  0  0
   21.0113   72.0928   -5.4298 C   0  0  0  0  0  0  0  0  0  0  0  0
   19.1583   71.1178   -6.6102 O   0  0  0  0  0  0  0  0  0  0  0  0
   18.1855   73.9240   -7.0234 O   0  0  0  0  0  0  0  0  0  0  0  0
   16.6285   73.0511   -4.9619 O   0  0  0  0  0  0  0  0  0  0  0  0
   18.8526   73.3556   -5.8962 C   0  0  1  0  0  0  0  0  0  0  0  0
   17.9045   72.4667   -5.1195 C   0  0  2  0  0  0  0  0  0  0  0  0
   19.8771   72.3545   -6.4124 C   0  0  1  0  0  0  0  0  0  0  0  0
   17.8719   71.2139   -5.9782 C   0  0  2  0  0  0  0  0  0  0  0  0
   17.5257   74.5670   -6.7186 H   0  0  0  0  0  0  0  0  0  0  0  0
   16.7025   73.8444   -4.4077 H   0  0  0  0  0  0  0  0  0  0  0  0
   15.6450   69.5076   -6.3036 O   0  0  0  0  0  0  0  0  0  0  0  0
   17.0894   66.6839   -2.9593 O   0  0  0  0  0  0  0  0  0  0  0  0
   17.6412   70.0260   -5.2059 N   0  0  0  0  0  0  0  0  0  0  0  0
   16.3660   68.1034   -4.6369 N   0  0  0  0  0  0  0  0  0  0  0  0
   16.4909   69.2386   -5.4486 C   0  0  0  0  0  0  0  0  0  0  0  0
   18.5487   69.6508   -4.2228 C   0  0  0  0  0  0  0  0  0  0  0  0
   18.4162   68.5659   -3.4572 C   0  0  0  0  0  0  0  0  0  0  0  0
   17.2415   67.6896   -3.6461 C   0  0  0  0  0  0  0  0  0  0  0  0
   15.5720   67.5406   -4.7860 H   0  0  0  0  0  0  0  0  0  0  0  0
   22.2042   72.4090   -2.5245 O   0  0  0  0  0  0  0  0  0  0  0  0
   20.9719   72.5103   -1.4830 P   0  0  2  0  0  0  0  0  0  0  0  0
   20.2442   71.0719   -1.6299 O   0  0  0  0  0  0  0  0  0  0  0  0
   20.0678   73.6869   -1.7113 O   0  0  0  0  0  0  0  0  0  0  0  0
   21.6632   72.4700   -0.0259 O   0  0  0  0  0  0  0  0  0  0  0  0
   23.5801   73.1430    1.1914 O   0  0  0  0  0  0  0  0  0  0  0  0
   23.6595   69.0435    1.6972 O   0  0  0  0  0  0  0  0  0  0  0  0
   23.0123   70.2022   -0.9053 O   0  0  0  0  0  0  0  0  0  0  0  0
   22.7874   70.7653    3.8711 O   0  0  0  0  0  0  0  0  0  0  0  0
   23.0521   70.3228    1.5175 C   0  0  2  0  0  0  0  0  0  0  0  0
   23.5283   70.9349    0.1999 C   0  0  2  0  0  0  0  0  0  0  0  0
   23.4612   71.2102    2.6953 C   0  0  1  0  0  0  0  0  0  0  0  0
   23.0835   72.3934    0.0819 C   0  0  1  0  0  0  0  0  0  0  0  0
   23.0949   72.6704    2.4462 C   0  0  1  0  0  0  0  0  0  0  0  0
   23.4136   68.4622    0.9603 H   0  0  0  0  0  0  0  0  0  0  0  0
   23.2905   69.2757   -0.8366 H   0  0  0  0  0  0  0  0  0  0  0  0
   23.0119   69.8371    4.0408 H   0  0  0  0  0  0  0  0  0  0  0  0
   23.2286   73.4318    4.6607 O   0  0  0  0  0  0  0  0  0  0  0  0
   24.7095   74.3121    3.1670 O   0  0  0  0  0  0  0  0  0  0  0  0
   23.7794   73.5641    3.4286 C   0  0  0  0  0  0  0  0  0  0  0  0
  1  4  1  0
  1 24  1  0
  1  2  1  1
  1  3  2  0
 25 28  1  0
 25 24  1  0
 25 26  1  1
 25 27  2  0
  6 11  1  0
  6 12  1  0
 29 36  1  0
 29 37  1  0
  9  7  1  6
  7 13  1  0
 10  8  1  6
  8 14  1  0
  4  5  1  0
 36 28  1  1
 33 30  1  1
 30 38  1  0
 34 31  1  6
 31 39  1  0
 35 32  1  1
 32 40  1  0
 41 43  1  0
 15 19  2  0
 42 43  2  0
 16 22  2  0
 12 17  1  1
 17 19  1  0
 17 20  1  0
 18 19  1  0
 18 22  1  0
 18 23  1  0
  9 10  1  0
  9 11  1  0
 10 12  1  0
 11  5  1  1
 33 34  1  0
 33 35  1  0
 34 36  1  0
 35 37  1  0
 37 43  1  1
 20 21  2  0
 21 22  1  0
M  CHG  3   2  -1  26  -1  41  -1
M  END
>  <COMPND>  (43) 
    udp_gluA.pdb 

>  <AUTHOR>  (43) 
    GENERATED BY OPEN BABEL 3.1.1

>  <MASTER>  (43) 
        0    0    0    0    0    0    0    0   56    0   56    0

>  <minimizedAffinity>  (43) 
-7.56403

>  <CNNscore>  (43) 
0.8462843895

>  <CNNaffinity>  (43) 
4.5696845055

>  <CNN_VS>  (43) 
3.8672525883

>  <CNNaffinity_variance>  (43) 
0.0716193169

$$$$
44
     RDKit          3D

 43 45  0  0  0  0  0  0  0  0999 V2000
   20.7744   69.6767   -1.1837 P   0  0  2  0  0  0  0  0  0  0  0  0
   21.3332   68.6230   -0.0899 O   0  0  0  0  0  0  0  0  0  0  0  0
   20.4027   71.0228   -0.6344 O   0  0  0  0  0  0  0  0  0  0  0  0
   19.5866   68.8696   -1.9292 O   0  0  0  0  0  0  0  0  0  0  0  0
   19.2286   69.2552   -3.2436 C   0  0  0  0  0  0  0  0  0  0  0  0
   18.1720   71.2342   -4.1064 O   0  0  0  0  0  0  0  0  0  0  0  0
   15.6083   70.1082   -3.0333 O   0  0  0  0  0  0  0  0  0  0  0  0
   15.4496   69.5226   -5.6919 O   0  0  0  0  0  0  0  0  0  0  0  0
   16.7184   69.4283   -3.6198 C   0  0  1  0  0  0  0  0  0  0  0  0
   16.7342   69.6458   -5.1181 C   0  0  2  0  0  0  0  0  0  0  0  0
   17.9906   70.1405   -3.1811 C   0  0  1  0  0  0  0  0  0  0  0  0
   17.2903   71.0554   -5.2263 C   0  0  2  0  0  0  0  0  0  0  0  0
   14.7838   69.6712   -3.2994 H   0  0  0  0  0  0  0  0  0  0  0  0
   15.1399   68.6077   -5.5977 H   0  0  0  0  0  0  0  0  0  0  0  0
   16.1515   71.9326   -7.6574 O   0  0  0  0  0  0  0  0  0  0  0  0
   20.2207   71.8108   -9.8186 O   0  0  0  0  0  0  0  0  0  0  0  0
   18.0291   71.2613   -6.4398 N   0  0  0  0  0  0  0  0  0  0  0  0
   18.1791   71.8701   -8.7318 N   0  0  0  0  0  0  0  0  0  0  0  0
   17.3614   71.7036   -7.6063 C   0  0  0  0  0  0  0  0  0  0  0  0
   19.3987   71.0277   -6.4661 C   0  0  0  0  0  0  0  0  0  0  0  0
   20.1648   71.1910   -7.5464 C   0  0  0  0  0  0  0  0  0  0  0  0
   19.5450   71.6499   -8.8068 C   0  0  0  0  0  0  0  0  0  0  0  0
   17.7364   72.1754   -9.5565 H   0  0  0  0  0  0  0  0  0  0  0  0
   21.9484   69.7035   -2.2945 O   0  0  0  0  0  0  0  0  0  0  0  0
   23.4549   70.2868   -2.2329 P   0  0  2  0  0  0  0  0  0  0  0  0
   24.3283   69.1328   -2.9581 O   0  0  0  0  0  0  0  0  0  0  0  0
   23.9226   70.6394   -0.8505 O   0  0  0  0  0  0  0  0  0  0  0  0
   23.4603   71.5175   -3.2758 O   0  0  0  0  0  0  0  0  0  0  0  0
   22.0091   73.0185   -2.1575 O   0  0  0  0  0  0  0  0  0  0  0  0
   23.6449   75.4456   -5.0732 O   0  0  0  0  0  0  0  0  0  0  0  0
   22.8303   72.7127   -5.7070 O   0  0  0  0  0  0  0  0  0  0  0  0
   24.5360   75.6740   -2.3155 O   0  0  0  0  0  0  0  0  0  0  0  0
   23.6251   74.3752   -4.1289 C   0  0  2  0  0  0  0  0  0  0  0  0
   22.5154   73.3896   -4.4957 C   0  0  2  0  0  0  0  0  0  0  0  0
   23.3704   74.9719   -2.7429 C   0  0  1  0  0  0  0  0  0  0  0  0
   22.3122   72.3568   -3.3863 C   0  0  1  0  0  0  0  0  0  0  0  0
   23.0521   73.8862   -1.7189 C   0  0  1  0  0  0  0  0  0  0  0  0
   23.8053   75.0904   -5.9616 H   0  0  0  0  0  0  0  0  0  0  0  0
   22.9609   73.3620   -6.4153 H   0  0  0  0  0  0  0  0  0  0  0  0
   24.7496   76.3679   -2.9588 H   0  0  0  0  0  0  0  0  0  0  0  0
   21.8812   75.6657   -0.7372 O   0  0  0  0  0  0  0  0  0  0  0  0
   22.5596   73.9809    0.6412 O   0  0  0  0  0  0  0  0  0  0  0  0
   22.4890   74.4832   -0.4704 C   0  0  0  0  0  0  0  0  0  0  0  0
  1  4  1  0
  1 24  1  0
  1  2  1  1
  1  3  2  0
 25 28  1  0
 25 24  1  0
 25 26  1  6
 25 27  2  0
  6 11  1  0
  6 12  1  0
 29 36  1  0
 29 37  1  0
  9  7  1  1
  7 13  1  0
 10  8  1  1
  8 14  1  0
  4  5  1  0
 36 28  1  1
 33 30  1  6
 30 38  1  0
 34 31  1  6
 31 39  1  0
 35 32  1  1
 32 40  1  0
 41 43  1  0
 15 19  2  0
 42 43  2  0
 16 22  2  0
 12 17  1  6
 17 19  1  0
 17 20  1  0
 18 19  1  0
 18 22  1  0
 18 23  1  0
  9 10  1  0
  9 11  1  0
 10 12  1  0
 11  5  1  6
 33 34  1  0
 33 35  1  0
 34 36  1  0
 35 37  1  0
 37 43  1  1
 20 21  2  0
 21 22  1  0
M  CHG  3   2  -1  26  -1  41  -1
M  END
>  <COMPND>  (44) 
    udp_gluA.pdb 

>  <AUTHOR>  (44) 
    GENERATED BY OPEN BABEL 3.1.1

>  <MASTER>  (44) 
        0    0    0    0    0    0    0    0   56    0   56    0

>  <minimizedAffinity>  (44) 
-7.68664

>  <CNNscore>  (44) 
0.7532309890

>  <CNNaffinity>  (44) 
4.6037621498

>  <CNN_VS>  (44) 
3.4676964283

>  <CNNaffinity_variance>  (44) 
0.2087040246

$$$$
45
     RDKit          3D

 43 45  0  0  0  0  0  0  0  0999 V2000
   21.2157   75.0081   -4.3021 P   0  0  2  0  0  0  0  0  0  0  0  0
   20.2630   75.8928   -3.3385 O   0  0  0  0  0  0  0  0  0  0  0  0
   22.2438   75.7892   -5.0667 O   0  0  0  0  0  0  0  0  0  0  0  0
   20.1749   74.1519   -5.1974 O   0  0  0  0  0  0  0  0  0  0  0  0
   20.5875   72.8918   -5.6938 C   0  0  0  0  0  0  0  0  0  0  0  0
   19.4170   71.1866   -6.9186 O   0  0  0  0  0  0  0  0  0  0  0  0
   18.1518   73.4249   -8.4617 O   0  0  0  0  0  0  0  0  0  0  0  0
   16.1920   72.7370   -6.6948 O   0  0  0  0  0  0  0  0  0  0  0  0
   18.5083   73.3681   -7.0803 C   0  0  1  0  0  0  0  0  0  0  0  0
   17.5324   72.4930   -6.3227 C   0  0  2  0  0  0  0  0  0  0  0  0
   19.8039   72.5772   -6.9616 C   0  0  1  0  0  0  0  0  0  0  0  0
   17.9998   71.0981   -6.7016 C   0  0  2  0  0  0  0  0  0  0  0  0
   17.3267   73.9255   -8.5628 H   0  0  0  0  0  0  0  0  0  0  0  0
   15.9422   73.6372   -6.4319 H   0  0  0  0  0  0  0  0  0  0  0  0
   15.6105   69.6116   -6.4604 O   0  0  0  0  0  0  0  0  0  0  0  0
   17.1321   67.4313   -2.6954 O   0  0  0  0  0  0  0  0  0  0  0  0
   17.7450   70.1351   -5.6678 N   0  0  0  0  0  0  0  0  0  0  0  0
   16.3702   68.5279   -4.5849 N   0  0  0  0  0  0  0  0  0  0  0  0
   16.5116   69.4426   -5.6367 C   0  0  0  0  0  0  0  0  0  0  0  0
   18.7108   69.8838   -4.7008 C   0  0  0  0  0  0  0  0  0  0  0  0
   18.5616   69.0088   -3.7043 C   0  0  0  0  0  0  0  0  0  0  0  0
   17.3016   68.2441   -3.5992 C   0  0  0  0  0  0  0  0  0  0  0  0
   15.5190   68.0351   -4.5412 H   0  0  0  0  0  0  0  0  0  0  0  0
   21.8240   73.9009   -3.2937 O   0  0  0  0  0  0  0  0  0  0  0  0
   23.3448   73.4103   -3.0484 P   0  0  2  0  0  0  0  0  0  0  0  0
   23.8864   74.4354   -1.9187 O   0  0  0  0  0  0  0  0  0  0  0  0
   24.1841   73.3609   -4.2922 O   0  0  0  0  0  0  0  0  0  0  0  0
   23.2006   71.9984   -2.2815 O   0  0  0  0  0  0  0  0  0  0  0  0
   23.4674   69.8192   -3.1699 O   0  0  0  0  0  0  0  0  0  0  0  0
   20.7367   69.1632   -0.1399 O   0  0  0  0  0  0  0  0  0  0  0  0
   20.4945   71.5044   -1.8704 O   0  0  0  0  0  0  0  0  0  0  0  0
   23.5158   68.3833    0.2062 O   0  0  0  0  0  0  0  0  0  0  0  0
   21.8388   69.8009   -0.7854 C   0  0  2  0  0  0  0  0  0  0  0  0
   21.3739   70.4113   -2.1079 C   0  0  2  0  0  0  0  0  0  0  0  0
   22.9160   68.7434   -1.0369 C   0  0  1  0  0  0  0  0  0  0  0  0
   22.5648   70.9004   -2.9333 C   0  0  1  0  0  0  0  0  0  0  0  0
   24.0040   69.2673   -1.9697 C   0  0  1  0  0  0  0  0  0  0  0  0
   20.0394   69.8160    0.0300 H   0  0  0  0  0  0  0  0  0  0  0  0
   19.7366   71.2013   -1.3468 H   0  0  0  0  0  0  0  0  0  0  0  0
   22.8338   68.0484    0.8092 H   0  0  0  0  0  0  0  0  0  0  0  0
   25.8238   68.6165   -3.2988 O   0  0  0  0  0  0  0  0  0  0  0  0
   24.7181   66.9715   -2.1715 O   0  0  0  0  0  0  0  0  0  0  0  0
   24.8594   68.1484   -2.4682 C   0  0  0  0  0  0  0  0  0  0  0  0
  1  4  1  0
  1 24  1  0
  1  2  1  1
  1  3  2  0
 25 28  1  0
 25 24  1  0
 25 26  1  1
 25 27  2  0
  6 11  1  0
  6 12  1  0
 29 36  1  0
 29 37  1  0
  9  7  1  6
  7 13  1  0
 10  8  1  6
  8 14  1  0
  4  5  1  0
 36 28  1  1
 33 30  1  6
 30 38  1  0
 34 31  1  1
 31 39  1  0
 35 32  1  1
 32 40  1  0
 41 43  1  0
 15 19  2  0
 42 43  2  0
 16 22  2  0
 12 17  1  1
 17 19  1  0
 17 20  1  0
 18 19  1  0
 18 22  1  0
 18 23  1  0
  9 10  1  0
  9 11  1  0
 10 12  1  0
 11  5  1  1
 33 34  1  0
 33 35  1  0
 34 36  1  0
 35 37  1  0
 37 43  1  6
 20 21  2  0
 21 22  1  0
M  CHG  3   2  -1  26  -1  41  -1
M  END
>  <COMPND>  (45) 
    udp_gluA.pdb 

>  <AUTHOR>  (45) 
    GENERATED BY OPEN BABEL 3.1.1

>  <MASTER>  (45) 
        0    0    0    0    0    0    0    0   56    0   56    0

>  <minimizedAffinity>  (45) 
-8.06684

>  <CNNscore>  (45) 
0.6314887404

>  <CNNaffinity>  (45) 
4.4207158089

>  <CNN_VS>  (45) 
2.7916321754

>  <CNNaffinity_variance>  (45) 
0.5562697649

$$$$
46
     RDKit          3D

 43 45  0  0  0  0  0  0  0  0999 V2000
   22.5334   74.7391   -2.8772 P   0  0  2  0  0  0  0  0  0  0  0  0
   23.3534   76.0588   -3.3298 O   0  0  0  0  0  0  0  0  0  0  0  0
   23.2171   73.4362   -3.1721 O   0  0  0  0  0  0  0  0  0  0  0  0
   21.0762   74.9365   -3.5522 O   0  0  0  0  0  0  0  0  0  0  0  0
   20.6305   73.9757   -4.4917 C   0  0  0  0  0  0  0  0  0  0  0  0
   18.6188   72.7391   -4.9403 O   0  0  0  0  0  0  0  0  0  0  0  0
   18.9775   71.5291   -2.2202 O   0  0  0  0  0  0  0  0  0  0  0  0
   19.9042   69.5672   -3.8721 O   0  0  0  0  0  0  0  0  0  0  0  0
   19.9656   71.8981   -3.1825 C   0  0  1  0  0  0  0  0  0  0  0  0
   19.9834   70.9030   -4.3235 C   0  0  2  0  0  0  0  0  0  0  0  0
   19.4945   73.1693   -3.8757 C   0  0  1  0  0  0  0  0  0  0  0  0
   18.7638   71.3222   -5.1266 C   0  0  2  0  0  0  0  0  0  0  0  0
   19.2564   70.7191   -1.7642 H   0  0  0  0  0  0  0  0  0  0  0  0
   20.7035   69.3488   -3.3668 H   0  0  0  0  0  0  0  0  0  0  0  0
   16.6630   70.4744   -6.8131 O   0  0  0  0  0  0  0  0  0  0  0  0
   19.4393   70.2999  -10.4881 O   0  0  0  0  0  0  0  0  0  0  0  0
   18.9098   71.0480   -6.5281 N   0  0  0  0  0  0  0  0  0  0  0  0
   18.0480   70.3873   -8.6416 N   0  0  0  0  0  0  0  0  0  0  0  0
   17.7910   70.6273   -7.2854 C   0  0  0  0  0  0  0  0  0  0  0  0
   20.1490   71.1980   -7.1387 C   0  0  0  0  0  0  0  0  0  0  0  0
   20.3784   70.9656   -8.4326 C   0  0  0  0  0  0  0  0  0  0  0  0
   19.2628   70.5218   -9.2940 C   0  0  0  0  0  0  0  0  0  0  0  0
   17.2848   70.0914   -9.1888 H   0  0  0  0  0  0  0  0  0  0  0  0
   22.2473   75.0096   -1.3094 O   0  0  0  0  0  0  0  0  0  0  0  0
   23.2322   74.9678   -0.0281 P   0  0  2  0  0  0  0  0  0  0  0  0
   22.3746   75.7174    1.1222 O   0  0  0  0  0  0  0  0  0  0  0  0
   24.5886   75.5622   -0.2744 O   0  0  0  0  0  0  0  0  0  0  0  0
   23.2517   73.4190    0.4228 O   0  0  0  0  0  0  0  0  0  0  0  0
   21.8393   71.6215   -0.1962 O   0  0  0  0  0  0  0  0  0  0  0  0
   22.7856   70.6425    3.7044 O   0  0  0  0  0  0  0  0  0  0  0  0
   22.1593   73.4026    2.9806 O   0  0  0  0  0  0  0  0  0  0  0  0
   24.0432   69.2271    1.4985 O   0  0  0  0  0  0  0  0  0  0  0  0
   23.0091   71.2029    2.4105 C   0  0  2  0  0  0  0  0  0  0  0  0
   21.9597   72.2790    2.1307 C   0  0  2  0  0  0  0  0  0  0  0  0
   22.9022   70.0750    1.3818 C   0  0  1  0  0  0  0  0  0  0  0  0
   22.0231   72.7392    0.6736 C   0  0  1  0  0  0  0  0  0  0  0  0
   22.8449   70.6226   -0.0414 C   0  0  1  0  0  0  0  0  0  0  0  0
   22.8486   71.3410    4.3747 H   0  0  0  0  0  0  0  0  0  0  0  0
   22.1206   73.1179    3.9068 H   0  0  0  0  0  0  0  0  0  0  0  0
   24.0913   68.8720    2.3999 H   0  0  0  0  0  0  0  0  0  0  0  0
   21.0652   69.5588   -1.1380 O   0  0  0  0  0  0  0  0  0  0  0  0
   23.1674   68.7990   -1.5879 O   0  0  0  0  0  0  0  0  0  0  0  0
   22.4144   69.5615   -1.0011 C   0  0  0  0  0  0  0  0  0  0  0  0
  1  4  1  0
  1 24  1  0
  1  2  1  6
  1  3  2  0
 25 28  1  0
 25 24  1  0
 25 26  1  1
 25 27  2  0
  6 11  1  0
  6 12  1  0
 29 36  1  0
 29 37  1  0
  9  7  1  1
  7 13  1  0
 10  8  1  1
  8 14  1  0
  4  5  1  0
 36 28  1  6
 33 30  1  1
 30 38  1  0
 34 31  1  1
 31 39  1  0
 35 32  1  6
 32 40  1  0
 41 43  1  0
 15 19  2  0
 42 43  2  0
 16 22  2  0
 12 17  1  6
 17 19  1  0
 17 20  1  0
 18 19  1  0
 18 22  1  0
 18 23  1  0
  9 10  1  0
  9 11  1  0
 10 12  1  0
 11  5  1  6
 33 34  1  0
 33 35  1  0
 34 36  1  0
 35 37  1  0
 37 43  1  6
 20 21  2  0
 21 22  1  0
M  CHG  3   2  -1  26  -1  41  -1
M  END
>  <COMPND>  (46) 
    udp_gluA.pdb 

>  <AUTHOR>  (46) 
    GENERATED BY OPEN BABEL 3.1.1

>  <MASTER>  (46) 
        0    0    0    0    0    0    0    0   56    0   56    0

>  <minimizedAffinity>  (46) 
-6.68977

>  <CNNscore>  (46) 
0.6237764955

>  <CNNaffinity>  (46) 
4.3056044579

>  <CNN_VS>  (46) 
2.6857347488

>  <CNNaffinity_variance>  (46) 
0.0878418237

$$$$
47
     RDKit          3D

 43 45  0  0  0  0  0  0  0  0999 V2000
   20.5852   75.4218   -4.2520 P   0  0  2  0  0  0  0  0  0  0  0  0
   18.9891   75.6885   -4.2401 O   0  0  0  0  0  0  0  0  0  0  0  0
   21.4330   76.6423   -4.0436 O   0  0  0  0  0  0  0  0  0  0  0  0
   20.8350   74.6205   -5.6353 O   0  0  0  0  0  0  0  0  0  0  0  0
   20.6502   73.2169   -5.6464 C   0  0  0  0  0  0  0  0  0  0  0  0
   19.6125   71.4176   -6.8561 O   0  0  0  0  0  0  0  0  0  0  0  0
   18.3580   73.5379   -8.5655 O   0  0  0  0  0  0  0  0  0  0  0  0
   16.3269   72.8522   -6.8802 O   0  0  0  0  0  0  0  0  0  0  0  0
   18.6374   73.5540   -7.1654 C   0  0  1  0  0  0  0  0  0  0  0  0
   17.6518   72.6756   -6.4242 C   0  0  2  0  0  0  0  0  0  0  0  0
   19.9515   72.8188   -6.9401 C   0  0  1  0  0  0  0  0  0  0  0  0
   18.1894   71.2845   -6.7138 C   0  0  2  0  0  0  0  0  0  0  0  0
   17.5226   74.0020   -8.7342 H   0  0  0  0  0  0  0  0  0  0  0  0
   16.0307   73.7527   -6.6721 H   0  0  0  0  0  0  0  0  0  0  0  0
   15.8124   69.7744   -6.4990 O   0  0  0  0  0  0  0  0  0  0  0  0
   17.2285   67.7595   -2.6029 O   0  0  0  0  0  0  0  0  0  0  0  0
   17.9108   70.3577   -5.6534 N   0  0  0  0  0  0  0  0  0  0  0  0
   16.5196   68.7730   -4.5582 N   0  0  0  0  0  0  0  0  0  0  0  0
   16.6860   69.6493   -5.6387 C   0  0  0  0  0  0  0  0  0  0  0  0
   18.8451   70.1569   -4.6445 C   0  0  0  0  0  0  0  0  0  0  0  0
   18.6722   69.3181   -3.6211 C   0  0  0  0  0  0  0  0  0  0  0  0
   17.4193   68.5400   -3.5307 C   0  0  0  0  0  0  0  0  0  0  0  0
   15.6738   68.2702   -4.5252 H   0  0  0  0  0  0  0  0  0  0  0  0
   20.7697   74.2740   -3.1288 O   0  0  0  0  0  0  0  0  0  0  0  0
   21.7330   74.2026   -1.8324 P   0  0  2  0  0  0  0  0  0  0  0  0
   20.8438   74.8979   -0.6722 O   0  0  0  0  0  0  0  0  0  0  0  0
   23.0837   74.8263   -2.0338 O   0  0  0  0  0  0  0  0  0  0  0  0
   21.7699   72.6394   -1.4355 O   0  0  0  0  0  0  0  0  0  0  0  0
   23.3388   71.5320   -0.0495 O   0  0  0  0  0  0  0  0  0  0  0  0
   22.1778   68.4949   -2.5983 O   0  0  0  0  0  0  0  0  0  0  0  0
   22.6720   71.1840   -3.6273 O   0  0  0  0  0  0  0  0  0  0  0  0
   21.1799   68.5708    0.1311 O   0  0  0  0  0  0  0  0  0  0  0  0
   22.0126   69.6892   -1.8338 C   0  0  2  0  0  0  0  0  0  0  0  0
   23.0064   70.7466   -2.3153 C   0  0  2  0  0  0  0  0  0  0  0  0
   22.2681   69.3488   -0.3638 C   0  0  1  0  0  0  0  0  0  0  0  0
   23.0191   71.9534   -1.3760 C   0  0  1  0  0  0  0  0  0  0  0  0
   22.3926   70.6098    0.4865 C   0  0  1  0  0  0  0  0  0  0  0  0
   22.0203   68.6868   -3.5362 H   0  0  0  0  0  0  0  0  0  0  0  0
   22.6619   70.4233   -4.2286 H   0  0  0  0  0  0  0  0  0  0  0  0
   21.0898   67.7652   -0.4017 H   0  0  0  0  0  0  0  0  0  0  0  0
   23.6597   69.1279    1.7903 O   0  0  0  0  0  0  0  0  0  0  0  0
   22.8218   70.9747    2.8325 O   0  0  0  0  0  0  0  0  0  0  0  0
   22.9607   70.2893    1.8306 C   0  0  0  0  0  0  0  0  0  0  0  0
  1  4  1  0
  1 24  1  0
  1  2  1  6
  1  3  2  0
 25 28  1  0
 25 24  1  0
 25 26  1  1
 25 27  2  0
  6 11  1  0
  6 12  1  0
 29 36  1  0
 29 37  1  0
  9  7  1  6
  7 13  1  0
 10  8  1  6
  8 14  1  0
  4  5  1  0
 36 28  1  1
 33 30  1  6
 30 38  1  0
 34 31  1  6
 31 39  1  0
 35 32  1  1
 32 40  1  0
 41 43  1  0
 15 19  2  0
 42 43  2  0
 16 22  2  0
 12 17  1  1
 17 19  1  0
 17 20  1  0
 18 19  1  0
 18 22  1  0
 18 23  1  0
  9 10  1  0
  9 11  1  0
 10 12  1  0
 11  5  1  1
 33 34  1  0
 33 35  1  0
 34 36  1  0
 35 37  1  0
 37 43  1  1
 20 21  2  0
 21 22  1  0
M  CHG  3   2  -1  26  -1  41  -1
M  END
>  <COMPND>  (47) 
    udp_gluA.pdb 

>  <AUTHOR>  (47) 
    GENERATED BY OPEN BABEL 3.1.1

>  <MASTER>  (47) 
        0    0    0    0    0    0    0    0   56    0   56    0

>  <minimizedAffinity>  (47) 
-7.25272

>  <CNNscore>  (47) 
0.4457697570

>  <CNNaffinity>  (47) 
4.2081489563

>  <CNN_VS>  (47) 
1.8758655787

>  <CNNaffinity_variance>  (47) 
0.3653739691

$$$$
48
     RDKit          3D

 43 45  0  0  0  0  0  0  0  0999 V2000
   21.9727   70.1552   -2.4827 P   0  0  2  0  0  0  0  0  0  0  0  0
   23.1814   70.7598   -3.3729 O   0  0  0  0  0  0  0  0  0  0  0  0
   22.0811   68.6897   -2.1791 O   0  0  0  0  0  0  0  0  0  0  0  0
   20.6391   70.6114   -3.2774 O   0  0  0  0  0  0  0  0  0  0  0  0
   19.8366   69.6129   -3.8804 C   0  0  0  0  0  0  0  0  0  0  0  0
   17.7001   70.5060   -3.2360 O   0  0  0  0  0  0  0  0  0  0  0  0
   17.0392   67.7400   -2.2851 O   0  0  0  0  0  0  0  0  0  0  0  0
   15.7573   67.8660   -4.6886 O   0  0  0  0  0  0  0  0  0  0  0  0
   17.8100   68.1467   -3.4160 C   0  0  1  0  0  0  0  0  0  0  0  0
   16.9021   68.6729   -4.5074 C   0  0  2  0  0  0  0  0  0  0  0  0
   18.5947   69.3920   -3.0264 C   0  0  1  0  0  0  0  0  0  0  0  0
   16.5633   70.0617   -3.9934 C   0  0  2  0  0  0  0  0  0  0  0  0
   16.5290   66.9458   -2.5099 H   0  0  0  0  0  0  0  0  0  0  0  0
   16.0257   66.9930   -5.0168 H   0  0  0  0  0  0  0  0  0  0  0  0
   15.3074   72.5689   -3.6564 O   0  0  0  0  0  0  0  0  0  0  0  0
   15.6707   73.5589   -8.1433 O   0  0  0  0  0  0  0  0  0  0  0  0
   16.3171   70.9945   -5.0565 N   0  0  0  0  0  0  0  0  0  0  0  0
   15.4887   73.0591   -5.8916 N   0  0  0  0  0  0  0  0  0  0  0  0
   15.6791   72.2269   -4.7806 C   0  0  0  0  0  0  0  0  0  0  0  0
   16.7073   70.6861   -6.3540 C   0  0  0  0  0  0  0  0  0  0  0  0
   16.5192   71.4896   -7.4028 C   0  0  0  0  0  0  0  0  0  0  0  0
   15.8587   72.7958   -7.2005 C   0  0  0  0  0  0  0  0  0  0  0  0
   15.0446   73.9218   -5.7247 H   0  0  0  0  0  0  0  0  0  0  0  0
   21.9659   71.1138   -1.1812 O   0  0  0  0  0  0  0  0  0  0  0  0
   22.3949   70.8265    0.3508 P   0  0  2  0  0  0  0  0  0  0  0  0
   23.8748   70.1866    0.2067 O   0  0  0  0  0  0  0  0  0  0  0  0
   21.4233   69.9723    1.1125 O   0  0  0  0  0  0  0  0  0  0  0  0
   22.6434   72.2880    0.9871 O   0  0  0  0  0  0  0  0  0  0  0  0
   23.9865   73.0588    2.7791 O   0  0  0  0  0  0  0  0  0  0  0  0
   20.6400   75.4534    3.1462 O   0  0  0  0  0  0  0  0  0  0  0  0
   20.3657   72.6064    2.5514 O   0  0  0  0  0  0  0  0  0  0  0  0
   23.0952   76.5382    2.0299 O   0  0  0  0  0  0  0  0  0  0  0  0
   21.6199   74.6809    2.4527 C   0  0  2  0  0  0  0  0  0  0  0  0
   21.5780   73.2357    2.9500 C   0  0  2  0  0  0  0  0  0  0  0  0
   22.9921   75.2993    2.7292 C   0  0  1  0  0  0  0  0  0  0  0  0
   22.7591   72.4339    2.4014 C   0  0  1  0  0  0  0  0  0  0  0  0
   24.1201   74.3822    2.2655 C   0  0  1  0  0  0  0  0  0  0  0  0
   19.7595   75.0789    2.9853 H   0  0  0  0  0  0  0  0  0  0  0  0
   19.6120   73.1101    2.8958 H   0  0  0  0  0  0  0  0  0  0  0  0
   22.3827   77.1311    2.3157 H   0  0  0  0  0  0  0  0  0  0  0  0
   25.9329   75.8620    2.1052 O   0  0  0  0  0  0  0  0  0  0  0  0
   25.9811   74.3380    3.8006 O   0  0  0  0  0  0  0  0  0  0  0  0
   25.4311   74.8288    2.8261 C   0  0  0  0  0  0  0  0  0  0  0  0
  1  4  1  0
  1 24  1  0
  1  2  1  6
  1  3  2  0
 25 28  1  0
 25 24  1  0
 25 26  1  6
 25 27  2  0
  6 11  1  0
  6 12  1  0
 29 36  1  0
 29 37  1  0
  9  7  1  1
  7 13  1  0
 10  8  1  1
  8 14  1  0
  4  5  1  0
 36 28  1  6
 33 30  1  1
 30 38  1  0
 34 31  1  6
 31 39  1  0
 35 32  1  6
 32 40  1  0
 41 43  1  0
 15 19  2  0
 42 43  2  0
 16 22  2  0
 12 17  1  6
 17 19  1  0
 17 20  1  0
 18 19  1  0
 18 22  1  0
 18 23  1  0
  9 10  1  0
  9 11  1  0
 10 12  1  0
 11  5  1  6
 33 34  1  0
 33 35  1  0
 34 36  1  0
 35 37  1  0
 37 43  1  1
 20 21  2  0
 21 22  1  0
M  CHG  3   2  -1  26  -1  41  -1
M  END
>  <COMPND>  (48) 
    udp_gluA.pdb 

>  <AUTHOR>  (48) 
    GENERATED BY OPEN BABEL 3.1.1

>  <MASTER>  (48) 
        0    0    0    0    0    0    0    0   56    0   56    0

>  <minimizedAffinity>  (48) 
-7.31047

>  <CNNscore>  (48) 
0.4453713298

>  <CNNaffinity>  (48) 
4.2264423370

>  <CNN_VS>  (48) 
1.8823362589

>  <CNNaffinity_variance>  (48) 
0.1118173227

$$$$
49
     RDKit          3D

 43 45  0  0  0  0  0  0  0  0999 V2000
   22.8498   71.0865   -2.6587 P   0  0  2  0  0  0  0  0  0  0  0  0
   22.6178   71.1977   -1.0610 O   0  0  0  0  0  0  0  0  0  0  0  0
   23.9244   70.1265   -3.0775 O   0  0  0  0  0  0  0  0  0  0  0  0
   23.0561   72.6209   -3.1290 O   0  0  0  0  0  0  0  0  0  0  0  0
   22.9263   72.9296   -4.5046 C   0  0  0  0  0  0  0  0  0  0  0  0
   21.6292   74.3039   -5.9901 O   0  0  0  0  0  0  0  0  0  0  0  0
   20.6628   75.7243   -3.5324 O   0  0  0  0  0  0  0  0  0  0  0  0
   18.5784   74.0678   -4.1217 O   0  0  0  0  0  0  0  0  0  0  0  0
   20.9606   74.3403   -3.7180 C   0  0  1  0  0  0  0  0  0  0  0  0
   19.8713   73.6743   -4.5317 C   0  0  2  0  0  0  0  0  0  0  0  0
   22.1610   74.2388   -4.6491 C   0  0  1  0  0  0  0  0  0  0  0  0
   20.2035   74.1353   -5.9406 C   0  0  2  0  0  0  0  0  0  0  0  0
   19.8990   75.8145   -2.9407 H   0  0  0  0  0  0  0  0  0  0  0  0
   18.4149   73.7505   -3.2191 H   0  0  0  0  0  0  0  0  0  0  0  0
   18.5313   74.7184   -8.1406 O   0  0  0  0  0  0  0  0  0  0  0  0
   18.7658   70.3875   -9.7002 O   0  0  0  0  0  0  0  0  0  0  0  0
   19.8116   73.1789   -6.9368 N   0  0  0  0  0  0  0  0  0  0  0  0
   18.6488   72.5606   -8.9147 N   0  0  0  0  0  0  0  0  0  0  0  0
   18.9680   73.5744   -8.0017 C   0  0  0  0  0  0  0  0  0  0  0  0
   20.2627   71.8671   -6.8544 C   0  0  0  0  0  0  0  0  0  0  0  0
   19.9500   70.9120   -7.7323 C   0  0  0  0  0  0  0  0  0  0  0  0
   19.0724   71.2421   -8.8744 C   0  0  0  0  0  0  0  0  0  0  0  0
   18.0611   72.8115   -9.6637 H   0  0  0  0  0  0  0  0  0  0  0  0
   21.3747   70.7309   -3.2157 O   0  0  0  0  0  0  0  0  0  0  0  0
   20.0019   70.3808   -2.4369 P   0  0  2  0  0  0  0  0  0  0  0  0
   19.6888   71.7374   -1.6112 O   0  0  0  0  0  0  0  0  0  0  0  0
   20.0730   69.1435   -1.5895 O   0  0  0  0  0  0  0  0  0  0  0  0
   18.8759   70.3377   -3.5914 O   0  0  0  0  0  0  0  0  0  0  0  0
   16.9475   71.6085   -4.1161 O   0  0  0  0  0  0  0  0  0  0  0  0
   15.6394   67.7574   -4.8412 O   0  0  0  0  0  0  0  0  0  0  0  0
   17.2718   68.3492   -2.4919 O   0  0  0  0  0  0  0  0  0  0  0  0
   16.2965   69.5172   -7.0598 O   0  0  0  0  0  0  0  0  0  0  0  0
   16.5912   68.8192   -4.7727 C   0  0  2  0  0  0  0  0  0  0  0  0
   16.6829   69.3323   -3.3353 C   0  0  2  0  0  0  0  0  0  0  0  0
   16.1218   69.9361   -5.7076 C   0  0  1  0  0  0  0  0  0  0  0  0
   17.5152   70.6132   -3.2638 C   0  0  1  0  0  0  0  0  0  0  0  0
   16.9188   71.2187   -5.4874 C   0  0  1  0  0  0  0  0  0  0  0  0
   15.9168   67.0359   -4.2549 H   0  0  0  0  0  0  0  0  0  0  0  0
   16.7489   67.5336   -2.5327 H   0  0  0  0  0  0  0  0  0  0  0  0
   15.7944   68.7016   -7.2131 H   0  0  0  0  0  0  0  0  0  0  0  0
   16.1740   73.4354   -5.3059 O   0  0  0  0  0  0  0  0  0  0  0  0
   15.8330   72.3835   -7.3000 O   0  0  0  0  0  0  0  0  0  0  0  0
   16.2516   72.3785   -6.1520 C   0  0  0  0  0  0  0  0  0  0  0  0
  1  4  1  0
  1 24  1  0
  1  2  1  1
  1  3  2  0
 25 28  1  0
 25 24  1  0
 25 26  1  1
 25 27  2  0
  6 11  1  0
  6 12  1  0
 29 36  1  0
 29 37  1  0
  9  7  1  6
  7 13  1  0
 10  8  1  1
  8 14  1  0
  4  5  1  0
 36 28  1  6
 33 30  1  1
 30 38  1  0
 34 31  1  1
 31 39  1  0
 35 32  1  6
 32 40  1  0
 41 43  1  0
 15 19  2  0
 42 43  2  0
 16 22  2  0
 12 17  1  6
 17 19  1  0
 17 20  1  0
 18 19  1  0
 18 22  1  0
 18 23  1  0
  9 10  1  0
  9 11  1  0
 10 12  1  0
 11  5  1  6
 33 34  1  0
 33 35  1  0
 34 36  1  0
 35 37  1  0
 37 43  1  6
 20 21  2  0
 21 22  1  0
M  CHG  3   2  -1  26  -1  41  -1
M  END
>  <COMPND>  (49) 
    udp_gluA.pdb 

>  <AUTHOR>  (49) 
    GENERATED BY OPEN BABEL 3.1.1

>  <MASTER>  (49) 
        0    0    0    0    0    0    0    0   56    0   56    0

>  <minimizedAffinity>  (49) 
-7.03914

>  <CNNscore>  (49) 
0.3952162266

>  <CNNaffinity>  (49) 
3.9908013344

>  <CNN_VS>  (49) 
1.5772294998

>  <CNNaffinity_variance>  (49) 
0.4984315038

$$$$
50
     RDKit          3D

 43 45  0  0  0  0  0  0  0  0999 V2000
   16.7179   71.1937   -3.0851 P   0  0  2  0  0  0  0  0  0  0  0  0
   16.6898   70.9768   -4.6885 O   0  0  0  0  0  0  0  0  0  0  0  0
   15.5552   70.6002   -2.3450 O   0  0  0  0  0  0  0  0  0  0  0  0
   16.9198   72.7898   -2.9124 O   0  0  0  0  0  0  0  0  0  0  0  0
   17.5120   73.5151   -3.9744 C   0  0  0  0  0  0  0  0  0  0  0  0
   19.7628   72.8018   -4.4243 O   0  0  0  0  0  0  0  0  0  0  0  0
   20.6283   75.4339   -3.2777 O   0  0  0  0  0  0  0  0  0  0  0  0
   20.8071   75.8666   -5.9641 O   0  0  0  0  0  0  0  0  0  0  0  0
   19.4789   75.1261   -4.0668 C   0  0  1  0  0  0  0  0  0  0  0  0
   19.8782   74.9044   -5.5103 C   0  0  2  0  0  0  0  0  0  0  0  0
   18.9840   73.7456   -3.6575 C   0  0  1  0  0  0  0  0  0  0  0  0
   20.4632   73.5031   -5.4641 C   0  0  2  0  0  0  0  0  0  0  0  0
   20.9626   76.3117   -3.5214 H   0  0  0  0  0  0  0  0  0  0  0  0
   20.3868   76.7413   -5.9758 H   0  0  0  0  0  0  0  0  0  0  0  0
   22.5745   72.7839   -7.1966 O   0  0  0  0  0  0  0  0  0  0  0  0
   19.6862   70.7929  -10.1862 O   0  0  0  0  0  0  0  0  0  0  0  0
   20.2912   72.7964   -6.7017 N   0  0  0  0  0  0  0  0  0  0  0  0
   21.1339   71.7938   -8.6844 N   0  0  0  0  0  0  0  0  0  0  0  0
   21.4179   72.4837   -7.4985 C   0  0  0  0  0  0  0  0  0  0  0  0
   19.0189   72.4192   -7.1140 C   0  0  0  0  0  0  0  0  0  0  0  0
   18.7639   71.7619   -8.2470 C   0  0  0  0  0  0  0  0  0  0  0  0
   19.8857   71.3979   -9.1372 C   0  0  0  0  0  0  0  0  0  0  0  0
   21.9022   71.5669   -9.2567 H   0  0  0  0  0  0  0  0  0  0  0  0
   18.1598   70.5972   -2.6633 O   0  0  0  0  0  0  0  0  0  0  0  0
   18.8538   69.1725   -2.9829 P   0  0  2  0  0  0  0  0  0  0  0  0
   19.5643   69.4203   -4.4161 O   0  0  0  0  0  0  0  0  0  0  0  0
   17.9081   68.0068   -2.9549 O   0  0  0  0  0  0  0  0  0  0  0  0
   20.0760   69.0684   -1.9351 O   0  0  0  0  0  0  0  0  0  0  0  0
   21.0730   71.1982   -1.6542 O   0  0  0  0  0  0  0  0  0  0  0  0
   23.4931   68.8197    0.7024 O   0  0  0  0  0  0  0  0  0  0  0  0
   22.5919   67.8828   -1.9138 O   0  0  0  0  0  0  0  0  0  0  0  0
   21.5315   70.5773    1.9327 O   0  0  0  0  0  0  0  0  0  0  0  0
   22.2743   69.2271    0.0807 C   0  0  2  0  0  0  0  0  0  0  0  0
   22.4461   69.2160   -1.4385 C   0  0  2  0  0  0  0  0  0  0  0  0
   21.9435   70.6394    0.5686 C   0  0  1  0  0  0  0  0  0  0  0  0
   21.2448   69.8626   -2.1296 C   0  0  1  0  0  0  0  0  0  0  0  0
   20.8190   71.2634   -0.2527 C   0  0  1  0  0  0  0  0  0  0  0  0
   23.7235   67.9247    0.4072 H   0  0  0  0  0  0  0  0  0  0  0  0
   23.3522   67.4664   -1.4792 H   0  0  0  0  0  0  0  0  0  0  0  0
   22.2384   70.1818    2.4664 H   0  0  0  0  0  0  0  0  0  0  0  0
   21.1716   73.4341   -1.0684 O   0  0  0  0  0  0  0  0  0  0  0  0
   20.3086   73.2401    1.0332 O   0  0  0  0  0  0  0  0  0  0  0  0
   20.7273   72.7325    0.0036 C   0  0  0  0  0  0  0  0  0  0  0  0
  1  4  1  0
  1 24  1  0
  1  2  1  6
  1  3  2  0
 25 28  1  0
 25 24  1  0
 25 26  1  6
 25 27  2  0
  6 11  1  0
  6 12  1  0
 29 36  1  0
 29 37  1  0
  9  7  1  1
  7 13  1  0
 10  8  1  1
  8 14  1  0
  4  5  1  0
 36 28  1  1
 33 30  1  1
 30 38  1  0
 34 31  1  6
 31 39  1  0
 35 32  1  1
 32 40  1  0
 41 43  1  0
 15 19  2  0
 42 43  2  0
 16 22  2  0
 12 17  1  6
 17 19  1  0
 17 20  1  0
 18 19  1  0
 18 22  1  0
 18 23  1  0
  9 10  1  0
  9 11  1  0
 10 12  1  0
 11  5  1  6
 33 34  1  0
 33 35  1  0
 34 36  1  0
 35 37  1  0
 37 43  1  1
 20 21  2  0
 21 22  1  0
M  CHG  3   2  -1  26  -1  41  -1
M  END
>  <COMPND>  (50) 
    udp_gluA.pdb 

>  <AUTHOR>  (50) 
    GENERATED BY OPEN BABEL 3.1.1

>  <MASTER>  (50) 
        0    0    0    0    0    0    0    0   56    0   56    0

>  <minimizedAffinity>  (50) 
-7.29553

>  <CNNscore>  (50) 
0.3893190026

>  <CNNaffinity>  (50) 
4.0258331299

>  <CNN_VS>  (50) 
1.5673333406

>  <CNNaffinity_variance>  (50) 
0.3310834467

$$$$
51
     RDKit          3D

 43 45  0  0  0  0  0  0  0  0999 V2000
   21.6229   74.9966   -5.3225 P   0  0  2  0  0  0  0  0  0  0  0  0
   20.8234   76.3565   -4.9612 O   0  0  0  0  0  0  0  0  0  0  0  0
   22.7937   75.1758   -6.2438 O   0  0  0  0  0  0  0  0  0  0  0  0
   20.4661   73.9925   -5.8435 O   0  0  0  0  0  0  0  0  0  0  0  0
   20.8386   72.6945   -6.2687 C   0  0  0  0  0  0  0  0  0  0  0  0
   19.4858   70.9465   -7.2132 O   0  0  0  0  0  0  0  0  0  0  0  0
   18.2903   73.0703   -8.9600 O   0  0  0  0  0  0  0  0  0  0  0  0
   16.3927   72.7499   -7.0281 O   0  0  0  0  0  0  0  0  0  0  0  0
   18.7208   73.1544   -7.6013 C   0  0  1  0  0  0  0  0  0  0  0  0
   17.7323   72.4529   -6.6940 C   0  0  2  0  0  0  0  0  0  0  0  0
   19.9639   72.2887   -7.4480 C   0  0  1  0  0  0  0  0  0  0  0  0
   18.0807   70.9913   -6.9183 C   0  0  2  0  0  0  0  0  0  0  0  0
   17.4969   73.6155   -9.0825 H   0  0  0  0  0  0  0  0  0  0  0  0
   16.2206   73.6915   -6.8677 H   0  0  0  0  0  0  0  0  0  0  0  0
   15.6524   69.6319   -6.4365 O   0  0  0  0  0  0  0  0  0  0  0  0
   17.1934   67.9159   -2.4459 O   0  0  0  0  0  0  0  0  0  0  0  0
   17.8204   70.1821   -5.7614 N   0  0  0  0  0  0  0  0  0  0  0  0
   16.4219   68.7794   -4.4489 N   0  0  0  0  0  0  0  0  0  0  0  0
   16.5669   69.5422   -5.6151 C   0  0  0  0  0  0  0  0  0  0  0  0
   18.8003   70.0276   -4.7883 C   0  0  0  0  0  0  0  0  0  0  0  0
   18.6474   69.2971   -3.6821 C   0  0  0  0  0  0  0  0  0  0  0  0
   17.3670   68.5963   -3.4525 C   0  0  0  0  0  0  0  0  0  0  0  0
   15.5569   68.3259   -4.3240 H   0  0  0  0  0  0  0  0  0  0  0  0
   21.9960   74.3978   -3.8681 O   0  0  0  0  0  0  0  0  0  0  0  0
   23.3294   73.6539   -3.3368 P   0  0  2  0  0  0  0  0  0  0  0  0
   24.3271   74.8821   -2.9958 O   0  0  0  0  0  0  0  0  0  0  0  0
   23.8949   72.6453   -4.2943 O   0  0  0  0  0  0  0  0  0  0  0  0
   22.9168   73.0529   -1.8977 O   0  0  0  0  0  0  0  0  0  0  0  0
   22.5166   70.7645   -1.4371 O   0  0  0  0  0  0  0  0  0  0  0  0
   20.2962   72.6168    1.5137 O   0  0  0  0  0  0  0  0  0  0  0  0
   20.2879   73.6543   -1.2173 O   0  0  0  0  0  0  0  0  0  0  0  0
   22.8403   71.3711    2.1670 O   0  0  0  0  0  0  0  0  0  0  0  0
   21.3807   72.4707    0.5969 C   0  0  2  0  0  0  0  0  0  0  0  0
   20.8380   72.4002   -0.8307 C   0  0  2  0  0  0  0  0  0  0  0  0
   22.1257   71.1807    0.9473 C   0  0  1  0  0  0  0  0  0  0  0  0
   21.9415   72.0151   -1.8171 C   0  0  1  0  0  0  0  0  0  0  0  0
   23.1194   70.7969   -0.1453 C   0  0  1  0  0  0  0  0  0  0  0  0
   19.8079   73.4301    1.3103 H   0  0  0  0  0  0  0  0  0  0  0  0
   19.5872   73.9049   -0.5955 H   0  0  0  0  0  0  0  0  0  0  0  0
   22.2193   71.6160    2.8707 H   0  0  0  0  0  0  0  0  0  0  0  0
   24.0785   68.8941   -1.1256 O   0  0  0  0  0  0  0  0  0  0  0  0
   23.5566   68.7714    1.0906 O   0  0  0  0  0  0  0  0  0  0  0  0
   23.5940   69.3922    0.0389 C   0  0  0  0  0  0  0  0  0  0  0  0
  1  4  1  0
  1 24  1  0
  1  2  1  1
  1  3  2  0
 25 28  1  0
 25 24  1  0
 25 26  1  1
 25 27  2  0
  6 11  1  0
  6 12  1  0
 29 36  1  0
 29 37  1  0
  9  7  1  6
  7 13  1  0
 10  8  1  6
  8 14  1  0
  4  5  1  0
 36 28  1  1
 33 30  1  1
 30 38  1  0
 34 31  1  6
 31 39  1  0
 35 32  1  1
 32 40  1  0
 41 43  1  0
 15 19  2  0
 42 43  2  0
 16 22  2  0
 12 17  1  1
 17 19  1  0
 17 20  1  0
 18 19  1  0
 18 22  1  0
 18 23  1  0
  9 10  1  0
  9 11  1  0
 10 12  1  0
 11  5  1  1
 33 34  1  0
 33 35  1  0
 34 36  1  0
 35 37  1  0
 37 43  1  1
 20 21  2  0
 21 22  1  0
M  CHG  3   2  -1  26  -1  41  -1
M  END
>  <COMPND>  (51) 
    udp_gluA.pdb 

>  <AUTHOR>  (51) 
    GENERATED BY OPEN BABEL 3.1.1

>  <MASTER>  (51) 
        0    0    0    0    0    0    0    0   56    0   56    0

>  <minimizedAffinity>  (51) 
-7.35559

>  <CNNscore>  (51) 
0.3843369484

>  <CNNaffinity>  (51) 
4.0559287071

>  <CNN_VS>  (51) 
1.5588432550

>  <CNNaffinity_variance>  (51) 
0.4836047292

$$$$
52
     RDKit          3D

 43 45  0  0  0  0  0  0  0  0999 V2000
   20.4064   70.3033   -2.9857 P   0  0  2  0  0  0  0  0  0  0  0  0
   19.7541   69.2870   -4.0630 O   0  0  0  0  0  0  0  0  0  0  0  0
   19.4263   70.9525   -2.0531 O   0  0  0  0  0  0  0  0  0  0  0  0
   21.2907   71.3127   -3.8896 O   0  0  0  0  0  0  0  0  0  0  0  0
   22.6193   71.5920   -3.4881 C   0  0  0  0  0  0  0  0  0  0  0  0
   23.0795   73.1069   -5.2967 O   0  0  0  0  0  0  0  0  0  0  0  0
   22.4697   75.3121   -3.3585 O   0  0  0  0  0  0  0  0  0  0  0  0
   20.1670   75.1399   -4.8089 O   0  0  0  0  0  0  0  0  0  0  0  0
   21.8684   74.0227   -3.4787 C   0  0  1  0  0  0  0  0  0  0  0  0
   20.9614   73.9783   -4.6902 C   0  0  2  0  0  0  0  0  0  0  0  0
   22.9580   73.0299   -3.8598 C   0  0  1  0  0  0  0  0  0  0  0  0
   21.9597   73.8340   -5.8263 C   0  0  2  0  0  0  0  0  0  0  0  0
   21.7928   75.9636   -3.1155 H   0  0  0  0  0  0  0  0  0  0  0  0
   19.5482   75.1860   -4.0627 H   0  0  0  0  0  0  0  0  0  0  0  0
   22.9368   74.0171   -8.4698 O   0  0  0  0  0  0  0  0  0  0  0  0
   19.8076   71.0133  -10.0287 O   0  0  0  0  0  0  0  0  0  0  0  0
   21.4190   73.1108   -6.9423 N   0  0  0  0  0  0  0  0  0  0  0  0
   21.3767   72.5216   -9.2439 N   0  0  0  0  0  0  0  0  0  0  0  0
   21.9831   73.2743   -8.2296 C   0  0  0  0  0  0  0  0  0  0  0  0
   20.3439   72.2503   -6.7559 C   0  0  0  0  0  0  0  0  0  0  0  0
   19.7767   71.5394   -7.7325 C   0  0  0  0  0  0  0  0  0  0  0  0
   20.3056   71.6534   -9.1075 C   0  0  0  0  0  0  0  0  0  0  0  0
   21.7508   72.6204  -10.1492 H   0  0  0  0  0  0  0  0  0  0  0  0
   21.5256   69.3917   -2.2583 O   0  0  0  0  0  0  0  0  0  0  0  0
   22.0078   69.3320   -0.7163 P   0  0  2  0  0  0  0  0  0  0  0  0
   23.5480   68.8466   -0.8290 O   0  0  0  0  0  0  0  0  0  0  0  0
   21.1505   68.4696    0.1641 O   0  0  0  0  0  0  0  0  0  0  0  0
   22.1000   70.8755   -0.2563 O   0  0  0  0  0  0  0  0  0  0  0  0
   23.5066   72.7711   -0.0638 O   0  0  0  0  0  0  0  0  0  0  0  0
   22.5778   72.0085    3.8889 O   0  0  0  0  0  0  0  0  0  0  0  0
   23.2048   69.8142    2.0651 O   0  0  0  0  0  0  0  0  0  0  0  0
   21.3073   74.2186    2.4916 O   0  0  0  0  0  0  0  0  0  0  0  0
   22.3489   72.0461    2.4803 C   0  0  2  0  0  0  0  0  0  0  0  0
   23.3985   71.1923    1.7684 C   0  0  2  0  0  0  0  0  0  0  0  0
   22.4491   73.5032    2.0236 C   0  0  1  0  0  0  0  0  0  0  0  0
   23.3288   71.3901    0.2535 C   0  0  1  0  0  0  0  0  0  0  0  0
   22.5003   73.6078    0.5021 C   0  0  1  0  0  0  0  0  0  0  0  0
   22.5191   71.0921    4.2019 H   0  0  0  0  0  0  0  0  0  0  0  0
   23.2475   69.6814    3.0248 H   0  0  0  0  0  0  0  0  0  0  0  0
   21.2630   74.1598    3.4588 H   0  0  0  0  0  0  0  0  0  0  0  0
   23.8669   74.9057   -0.8942 O   0  0  0  0  0  0  0  0  0  0  0  0
   22.4864   76.0203    0.5379 O   0  0  0  0  0  0  0  0  0  0  0  0
   22.9246   74.9763    0.0784 C   0  0  0  0  0  0  0  0  0  0  0  0
  1  4  1  0
  1 24  1  0
  1  2  1  6
  1  3  2  0
 25 28  1  0
 25 24  1  0
 25 26  1  6
 25 27  2  0
  6 11  1  0
  6 12  1  0
 29 36  1  0
 29 37  1  0
  9  7  1  6
  7 13  1  0
 10  8  1  6
  8 14  1  0
  4  5  1  0
 36 28  1  1
 33 30  1  1
 30 38  1  0
 34 31  1  6
 31 39  1  0
 35 32  1  6
 32 40  1  0
 41 43  1  0
 15 19  2  0
 42 43  2  0
 16 22  2  0
 12 17  1  6
 17 19  1  0
 17 20  1  0
 18 19  1  0
 18 22  1  0
 18 23  1  0
  9 10  1  0
  9 11  1  0
 10 12  1  0
 11  5  1  6
 33 34  1  0
 33 35  1  0
 34 36  1  0
 35 37  1  0
 37 43  1  1
 20 21  2  0
 21 22  1  0
M  CHG  3   2  -1  26  -1  41  -1
M  END
>  <COMPND>  (52) 
    udp_gluA.pdb 

>  <AUTHOR>  (52) 
    GENERATED BY OPEN BABEL 3.1.1

>  <MASTER>  (52) 
        0    0    0    0    0    0    0    0   56    0   56    0

>  <minimizedAffinity>  (52) 
-7.33073

>  <CNNscore>  (52) 
0.3785986900

>  <CNNaffinity>  (52) 
4.0087800026

>  <CNN_VS>  (52) 
1.5177189112

>  <CNNaffinity_variance>  (52) 
0.1544649601

$$$$
53
     RDKit          3D

 43 45  0  0  0  0  0  0  0  0999 V2000
   22.5800   72.9173   -3.4730 P   0  0  2  0  0  0  0  0  0  0  0  0
   23.8836   72.8493   -4.4295 O   0  0  0  0  0  0  0  0  0  0  0  0
   22.2219   74.2911   -2.9868 O   0  0  0  0  0  0  0  0  0  0  0  0
   22.8852   71.8220   -2.3219 O   0  0  0  0  0  0  0  0  0  0  0  0
   22.8288   72.2309   -0.9675 C   0  0  0  0  0  0  0  0  0  0  0  0
   21.9855   69.9805   -0.9188 O   0  0  0  0  0  0  0  0  0  0  0  0
   21.5600   70.4015    2.0194 O   0  0  0  0  0  0  0  0  0  0  0  0
   23.8708   68.9552    1.9532 O   0  0  0  0  0  0  0  0  0  0  0  0
   22.6090   70.8845    1.1799 C   0  0  1  0  0  0  0  0  0  0  0  0
   23.5635   69.7610    0.8348 C   0  0  2  0  0  0  0  0  0  0  0  0
   22.0074   71.2198   -0.1780 C   0  0  1  0  0  0  0  0  0  0  0  0
   22.7904   69.0076   -0.2341 C   0  0  2  0  0  0  0  0  0  0  0  0
   21.9202   70.1806    2.8929 H   0  0  0  0  0  0  0  0  0  0  0  0
   24.3628   69.4802    2.6045 H   0  0  0  0  0  0  0  0  0  0  0  0
   23.1438   66.2123   -0.4295 O   0  0  0  0  0  0  0  0  0  0  0  0
   26.1277   66.6496   -3.9150 O   0  0  0  0  0  0  0  0  0  0  0  0
   23.6536   68.3641   -1.1836 N   0  0  0  0  0  0  0  0  0  0  0  0
   24.6304   66.4328   -2.1646 N   0  0  0  0  0  0  0  0  0  0  0  0
   23.7596   66.9532   -1.1982 C   0  0  0  0  0  0  0  0  0  0  0  0
   24.3820   69.1277   -2.0876 C   0  0  0  0  0  0  0  0  0  0  0  0
   25.2080   68.6174   -3.0030 C   0  0  0  0  0  0  0  0  0  0  0  0
   25.3765   67.1517   -3.0845 C   0  0  0  0  0  0  0  0  0  0  0  0
   24.7223   65.4530   -2.1927 H   0  0  0  0  0  0  0  0  0  0  0  0
   21.4382   72.1995   -4.3640 O   0  0  0  0  0  0  0  0  0  0  0  0
   20.1772   71.2831   -3.9354 P   0  0  2  0  0  0  0  0  0  0  0  0
   19.6727   71.9689   -2.5586 O   0  0  0  0  0  0  0  0  0  0  0  0
   20.4909   69.8196   -3.8185 O   0  0  0  0  0  0  0  0  0  0  0  0
   19.0289   71.6379   -5.0115 O   0  0  0  0  0  0  0  0  0  0  0  0
   17.1345   72.9967   -5.4285 O   0  0  0  0  0  0  0  0  0  0  0  0
   15.5174   69.2028   -5.6709 O   0  0  0  0  0  0  0  0  0  0  0  0
   17.4435   69.8605   -3.5751 O   0  0  0  0  0  0  0  0  0  0  0  0
   16.0209   70.7318   -8.0915 O   0  0  0  0  0  0  0  0  0  0  0  0
   16.5342   70.1966   -5.7991 C   0  0  2  0  0  0  0  0  0  0  0  0
   16.8225   70.8133   -4.4302 C   0  0  2  0  0  0  0  0  0  0  0  0
   16.0295   71.2670   -6.7695 C   0  0  1  0  0  0  0  0  0  0  0  0
   17.7346   72.0339   -4.5612 C   0  0  1  0  0  0  0  0  0  0  0  0
   16.9238   72.5032   -6.7495 C   0  0  1  0  0  0  0  0  0  0  0  0
   15.8158   68.5118   -5.0587 H   0  0  0  0  0  0  0  0  0  0  0  0
   16.8703   69.0832   -3.4877 H   0  0  0  0  0  0  0  0  0  0  0  0
   15.4553   69.9442   -8.1179 H   0  0  0  0  0  0  0  0  0  0  0  0
   16.7644   74.8303   -6.9962 O   0  0  0  0  0  0  0  0  0  0  0  0
   15.3765   73.5513   -8.2756 O   0  0  0  0  0  0  0  0  0  0  0  0
   16.2568   73.6516   -7.4342 C   0  0  0  0  0  0  0  0  0  0  0  0
  1  4  1  0
  1 24  1  0
  1  2  1  6
  1  3  2  0
 25 28  1  0
 25 24  1  0
 25 26  1  1
 25 27  2  0
  6 11  1  0
  6 12  1  0
 29 36  1  0
 29 37  1  0
  9  7  1  1
  7 13  1  0
 10  8  1  1
  8 14  1  0
  4  5  1  0
 36 28  1  6
 33 30  1  1
 30 38  1  0
 34 31  1  1
 31 39  1  0
 35 32  1  6
 32 40  1  0
 41 43  1  0
 15 19  2  0
 42 43  2  0
 16 22  2  0
 12 17  1  6
 17 19  1  0
 17 20  1  0
 18 19  1  0
 18 22  1  0
 18 23  1  0
  9 10  1  0
  9 11  1  0
 10 12  1  0
 11  5  1  6
 33 34  1  0
 33 35  1  0
 34 36  1  0
 35 37  1  0
 37 43  1  6
 20 21  2  0
 21 22  1  0
M  CHG  3   2  -1  26  -1  41  -1
M  END
>  <COMPND>  (53) 
    udp_gluA.pdb 

>  <AUTHOR>  (53) 
    GENERATED BY OPEN BABEL 3.1.1

>  <MASTER>  (53) 
        0    0    0    0    0    0    0    0   56    0   56    0

>  <minimizedAffinity>  (53) 
-8.69292

>  <CNNscore>  (53) 
0.3591608703

>  <CNNaffinity>  (53) 
4.1109609604

>  <CNN_VS>  (53) 
1.4764963388

>  <CNNaffinity_variance>  (53) 
0.5075593591

$$$$
54
     RDKit          3D

 43 45  0  0  0  0  0  0  0  0999 V2000
   22.7632   73.8624   -3.8496 P   0  0  2  0  0  0  0  0  0  0  0  0
   24.0327   72.9290   -4.2183 O   0  0  0  0  0  0  0  0  0  0  0  0
   23.0563   75.3325   -3.7811 O   0  0  0  0  0  0  0  0  0  0  0  0
   22.1737   73.1996   -2.4964 O   0  0  0  0  0  0  0  0  0  0  0  0
   21.3391   72.0616   -2.6089 C   0  0  0  0  0  0  0  0  0  0  0  0
   23.1628   70.9973   -1.4605 O   0  0  0  0  0  0  0  0  0  0  0  0
   22.1308   68.4214   -2.5968 O   0  0  0  0  0  0  0  0  0  0  0  0
   21.1963   68.3596   -0.0357 O   0  0  0  0  0  0  0  0  0  0  0  0
   21.4046   69.5622   -2.1387 C   0  0  1  0  0  0  0  0  0  0  0  0
   21.4229   69.6225   -0.6260 C   0  0  2  0  0  0  0  0  0  0  0  0
   22.1969   70.8062   -2.5168 C   0  0  1  0  0  0  0  0  0  0  0  0
   22.8181   70.1558   -0.3485 C   0  0  2  0  0  0  0  0  0  0  0  0
   21.6440   67.6140   -2.3666 H   0  0  0  0  0  0  0  0  0  0  0  0
   20.2950   68.0638   -0.2410 H   0  0  0  0  0  0  0  0  0  0  0  0
   23.6192   69.1361    2.1605 O   0  0  0  0  0  0  0  0  0  0  0  0
   23.0127   73.2162    4.2170 O   0  0  0  0  0  0  0  0  0  0  0  0
   22.8787   70.9296    0.8591 N   0  0  0  0  0  0  0  0  0  0  0  0
   23.3154   71.1689    3.1825 N   0  0  0  0  0  0  0  0  0  0  0  0
   23.2944   70.3213    2.0671 C   0  0  0  0  0  0  0  0  0  0  0  0
   22.5308   72.2748    0.8391 C   0  0  0  0  0  0  0  0  0  0  0  0
   22.5559   73.0700    1.9104 C   0  0  0  0  0  0  0  0  0  0  0  0
   22.9778   72.5123    3.2121 C   0  0  0  0  0  0  0  0  0  0  0  0
   23.5995   70.7675    4.0354 H   0  0  0  0  0  0  0  0  0  0  0  0
   21.6699   73.4450   -4.9647 O   0  0  0  0  0  0  0  0  0  0  0  0
   20.7412   74.3490   -5.9311 P   0  0  2  0  0  0  0  0  0  0  0  0
   21.8120   75.0554   -6.9183 O   0  0  0  0  0  0  0  0  0  0  0  0
   19.8451   75.3084   -5.2026 O   0  0  0  0  0  0  0  0  0  0  0  0
   19.9659   73.2862   -6.8648 O   0  0  0  0  0  0  0  0  0  0  0  0
   19.3615   71.2315   -5.8539 O   0  0  0  0  0  0  0  0  0  0  0  0
   18.7393   70.4146   -9.8556 O   0  0  0  0  0  0  0  0  0  0  0  0
   21.0992   71.9082   -8.9986 O   0  0  0  0  0  0  0  0  0  0  0  0
   16.4768   70.9067   -8.0978 O   0  0  0  0  0  0  0  0  0  0  0  0
   18.7912   71.2296   -8.6846 C   0  0  2  0  0  0  0  0  0  0  0  0
   20.2122   71.2250   -8.1205 C   0  0  2  0  0  0  0  0  0  0  0  0
   17.8106   70.6510   -7.6620 C   0  0  1  0  0  0  0  0  0  0  0  0
   20.2574   71.8949   -6.7464 C   0  0  1  0  0  0  0  0  0  0  0  0
   18.0037   71.2822   -6.2862 C   0  0  1  0  0  0  0  0  0  0  0  0
   19.3546   70.7631  -10.5198 H   0  0  0  0  0  0  0  0  0  0  0  0
   21.0753   71.4886   -9.8725 H   0  0  0  0  0  0  0  0  0  0  0  0
   16.3409   70.5103   -8.9726 H   0  0  0  0  0  0  0  0  0  0  0  0
   15.9904   70.8809   -5.1516 O   0  0  0  0  0  0  0  0  0  0  0  0
   17.7935   69.6228   -4.5473 O   0  0  0  0  0  0  0  0  0  0  0  0
   17.2879   70.4958   -5.2366 C   0  0  0  0  0  0  0  0  0  0  0  0
  1  4  1  0
  1 24  1  0
  1  2  1  6
  1  3  2  0
 25 28  1  0
 25 24  1  0
 25 26  1  6
 25 27  2  0
  6 11  1  0
  6 12  1  0
 29 36  1  0
 29 37  1  0
  9  7  1  1
  7 13  1  0
 10  8  1  1
  8 14  1  0
  4  5  1  0
 36 28  1  6
 33 30  1  6
 30 38  1  0
 34 31  1  6
 31 39  1  0
 35 32  1  6
 32 40  1  0
 41 43  1  0
 15 19  2  0
 42 43  2  0
 16 22  2  0
 12 17  1  1
 17 19  1  0
 17 20  1  0
 18 19  1  0
 18 22  1  0
 18 23  1  0
  9 10  1  0
  9 11  1  0
 10 12  1  0
 11  5  1  1
 33 34  1  0
 33 35  1  0
 34 36  1  0
 35 37  1  0
 37 43  1  1
 20 21  2  0
 21 22  1  0
M  CHG  3   2  -1  26  -1  41  -1
M  END
>  <COMPND>  (54) 
    udp_gluA.pdb 

>  <AUTHOR>  (54) 
    GENERATED BY OPEN BABEL 3.1.1

>  <MASTER>  (54) 
        0    0    0    0    0    0    0    0   56    0   56    0

>  <minimizedAffinity>  (54) 
-8.10479

>  <CNNscore>  (54) 
0.3558200598

>  <CNNaffinity>  (54) 
4.1597504616

>  <CNN_VS>  (54) 
1.4801226854

>  <CNNaffinity_variance>  (54) 
0.2149500847

$$$$
55
     RDKit          3D

 43 45  0  0  0  0  0  0  0  0999 V2000
   22.6220   73.1139   -4.0223 P   0  0  2  0  0  0  0  0  0  0  0  0
   24.2280   73.1835   -4.2087 O   0  0  0  0  0  0  0  0  0  0  0  0
   21.9757   74.4033   -3.6083 O   0  0  0  0  0  0  0  0  0  0  0  0
   22.4011   71.8635   -3.0195 O   0  0  0  0  0  0  0  0  0  0  0  0
   22.6139   72.0623   -1.6340 C   0  0  0  0  0  0  0  0  0  0  0  0
   21.9384   69.7587   -1.5114 O   0  0  0  0  0  0  0  0  0  0  0  0
   21.2113   70.3172    1.3436 O   0  0  0  0  0  0  0  0  0  0  0  0
   23.6189   69.0581    1.5771 O   0  0  0  0  0  0  0  0  0  0  0  0
   22.2954   70.8318    0.5699 C   0  0  1  0  0  0  0  0  0  0  0  0
   23.3582   69.7695    0.3852 C   0  0  2  0  0  0  0  0  0  0  0  0
   21.7995   71.0374   -0.8549 C   0  0  1  0  0  0  0  0  0  0  0  0
   22.7458   68.8951   -0.6956 C   0  0  2  0  0  0  0  0  0  0  0  0
   21.5041   70.1776    2.2582 H   0  0  0  0  0  0  0  0  0  0  0  0
   24.0080   69.6581    2.2332 H   0  0  0  0  0  0  0  0  0  0  0  0
   23.3274   66.1315   -0.6682 O   0  0  0  0  0  0  0  0  0  0  0  0
   26.5761   66.5972   -3.9043 O   0  0  0  0  0  0  0  0  0  0  0  0
   23.7388   68.2675   -1.5207 N   0  0  0  0  0  0  0  0  0  0  0  0
   24.9456   66.3663   -2.2793 N   0  0  0  0  0  0  0  0  0  0  0  0
   23.9528   66.8718   -1.4296 C   0  0  0  0  0  0  0  0  0  0  0  0
   24.4868   69.0314   -2.4084 C   0  0  0  0  0  0  0  0  0  0  0  0
   25.4296   68.5353   -3.2120 C   0  0  0  0  0  0  0  0  0  0  0  0
   25.7159   67.0861   -3.1782 C   0  0  0  0  0  0  0  0  0  0  0  0
   25.1140   65.3974   -2.2323 H   0  0  0  0  0  0  0  0  0  0  0  0
   22.1165   72.5334   -5.4437 O   0  0  0  0  0  0  0  0  0  0  0  0
   21.0850   73.1389   -6.5313 P   0  0  2  0  0  0  0  0  0  0  0  0
   21.5691   72.4596   -7.9186 O   0  0  0  0  0  0  0  0  0  0  0  0
   21.0333   74.6390   -6.5624 O   0  0  0  0  0  0  0  0  0  0  0  0
   19.6758   72.4272   -6.1994 O   0  0  0  0  0  0  0  0  0  0  0  0
   19.1823   70.2603   -5.3809 O   0  0  0  0  0  0  0  0  0  0  0  0
   15.9696   70.9666   -7.8805 O   0  0  0  0  0  0  0  0  0  0  0  0
   18.6727   71.7180   -8.6948 O   0  0  0  0  0  0  0  0  0  0  0  0
   15.6423   71.1458   -4.9975 O   0  0  0  0  0  0  0  0  0  0  0  0
   17.0141   71.3132   -6.9711 C   0  0  2  0  0  0  0  0  0  0  0  0
   18.3641   70.9102   -7.5648 C   0  0  2  0  0  0  0  0  0  0  0  0
   16.7655   70.5664   -5.6587 C   0  0  1  0  0  0  0  0  0  0  0  0
   19.4813   71.0534   -6.5303 C   0  0  1  0  0  0  0  0  0  0  0  0
   17.9746   70.6517   -4.7316 C   0  0  1  0  0  0  0  0  0  0  0  0
   16.1066   71.4295   -8.7221 H   0  0  0  0  0  0  0  0  0  0  0  0
   17.9678   71.6322   -9.3552 H   0  0  0  0  0  0  0  0  0  0  0  0
   14.8659   71.0980   -5.5770 H   0  0  0  0  0  0  0  0  0  0  0  0
   19.0861   69.2827   -3.1850 O   0  0  0  0  0  0  0  0  0  0  0  0
   16.8064   69.2546   -3.1489 O   0  0  0  0  0  0  0  0  0  0  0  0
   17.8584   69.6646   -3.6161 C   0  0  0  0  0  0  0  0  0  0  0  0
  1  4  1  0
  1 24  1  0
  1  2  1  6
  1  3  2  0
 25 28  1  0
 25 24  1  0
 25 26  1  6
 25 27  2  0
  6 11  1  0
  6 12  1  0
 29 36  1  0
 29 37  1  0
  9  7  1  1
  7 13  1  0
 10  8  1  1
  8 14  1  0
  4  5  1  0
 36 28  1  1
 33 30  1  6
 30 38  1  0
 34 31  1  6
 31 39  1  0
 35 32  1  1
 32 40  1  0
 41 43  1  0
 15 19  2  0
 42 43  2  0
 16 22  2  0
 12 17  1  6
 17 19  1  0
 17 20  1  0
 18 19  1  0
 18 22  1  0
 18 23  1  0
  9 10  1  0
  9 11  1  0
 10 12  1  0
 11  5  1  6
 33 34  1  0
 33 35  1  0
 34 36  1  0
 35 37  1  0
 37 43  1  1
 20 21  2  0
 21 22  1  0
M  CHG  3   2  -1  26  -1  41  -1
M  END
>  <COMPND>  (55) 
    udp_gluA.pdb 

>  <AUTHOR>  (55) 
    GENERATED BY OPEN BABEL 3.1.1

>  <MASTER>  (55) 
        0    0    0    0    0    0    0    0   56    0   56    0

>  <minimizedAffinity>  (55) 
-8.97984

>  <CNNscore>  (55) 
0.3448020816

>  <CNNaffinity>  (55) 
4.1891479492

>  <CNN_VS>  (55) 
1.4444268942

>  <CNNaffinity_variance>  (55) 
0.8378966451

$$$$
56
     RDKit          3D

 43 45  0  0  0  0  0  0  0  0999 V2000
   23.0493   69.0690   -0.3782 P   0  0  2  0  0  0  0  0  0  0  0  0
   23.0020   67.4558   -0.2588 O   0  0  0  0  0  0  0  0  0  0  0  0
   24.3519   69.6301   -0.8683 O   0  0  0  0  0  0  0  0  0  0  0  0
   22.5679   69.5807    1.0793 O   0  0  0  0  0  0  0  0  0  0  0  0
   23.1596   70.7502    1.6147 C   0  0  0  0  0  0  0  0  0  0  0  0
   22.9595   72.1078    3.5882 O   0  0  0  0  0  0  0  0  0  0  0  0
   20.1077   72.5463    2.7716 O   0  0  0  0  0  0  0  0  0  0  0  0
   21.3192   74.8532    1.9676 O   0  0  0  0  0  0  0  0  0  0  0  0
   21.2725   72.4222    1.9553 C   0  0  1  0  0  0  0  0  0  0  0  0
   22.1068   73.6830    2.0373 C   0  0  2  0  0  0  0  0  0  0  0  0
   22.1895   71.3910    2.5989 C   0  0  1  0  0  0  0  0  0  0  0  0
   22.7937   73.5197    3.3825 C   0  0  2  0  0  0  0  0  0  0  0  0
   19.5065   73.2000    2.3805 H   0  0  0  0  0  0  0  0  0  0  0  0
   20.9036   74.9116    1.0925 H   0  0  0  0  0  0  0  0  0  0  0  0
   23.2723   76.1063    4.4106 O   0  0  0  0  0  0  0  0  0  0  0  0
   27.7779   75.8428    3.4756 O   0  0  0  0  0  0  0  0  0  0  0  0
   24.0822   74.1515    3.4200 N   0  0  0  0  0  0  0  0  0  0  0  0
   25.5157   75.9730    3.9430 N   0  0  0  0  0  0  0  0  0  0  0  0
   24.2144   75.4538    3.9573 C   0  0  0  0  0  0  0  0  0  0  0  0
   25.1973   73.4824    2.9303 C   0  0  0  0  0  0  0  0  0  0  0  0
   26.4313   73.9902    2.9235 C   0  0  0  0  0  0  0  0  0  0  0  0
   26.6556   75.3462    3.4662 C   0  0  0  0  0  0  0  0  0  0  0  0
   25.6324   76.8791    4.3100 H   0  0  0  0  0  0  0  0  0  0  0  0
   21.7769   69.4007   -1.3183 O   0  0  0  0  0  0  0  0  0  0  0  0
   21.3992   70.7254   -2.1646 P   0  0  2  0  0  0  0  0  0  0  0  0
   22.4579   70.6966   -3.3888 O   0  0  0  0  0  0  0  0  0  0  0  0
   21.4158   71.9942   -1.3623 O   0  0  0  0  0  0  0  0  0  0  0  0
   19.9780   70.3835   -2.8472 O   0  0  0  0  0  0  0  0  0  0  0  0
   19.0191   68.7149   -4.2275 O   0  0  0  0  0  0  0  0  0  0  0  0
   17.7660   72.1775   -6.1005 O   0  0  0  0  0  0  0  0  0  0  0  0
   20.4969   71.9461   -5.0890 O   0  0  0  0  0  0  0  0  0  0  0  0
   15.9034   70.6350   -4.4873 O   0  0  0  0  0  0  0  0  0  0  0  0
   18.1450   71.3579   -4.9948 C   0  0  2  0  0  0  0  0  0  0  0  0
   19.5785   70.8640   -5.1914 C   0  0  2  0  0  0  0  0  0  0  0  0
   17.1781   70.1735   -4.9307 C   0  0  1  0  0  0  0  0  0  0  0  0
   19.9396   69.8039   -4.1500 C   0  0  1  0  0  0  0  0  0  0  0  0
   17.6726   69.1023   -3.9629 C   0  0  1  0  0  0  0  0  0  0  0  0
   18.3667   72.9369   -6.1612 H   0  0  0  0  0  0  0  0  0  0  0  0
   20.2734   72.6226   -5.7468 H   0  0  0  0  0  0  0  0  0  0  0  0
   15.5774   71.3174   -5.0947 H   0  0  0  0  0  0  0  0  0  0  0  0
   17.1232   66.9901   -3.1037 O   0  0  0  0  0  0  0  0  0  0  0  0
   16.2001   67.5706   -5.1062 O   0  0  0  0  0  0  0  0  0  0  0  0
   16.9143   67.8285   -4.1488 C   0  0  0  0  0  0  0  0  0  0  0  0
  1  4  1  0
  1 24  1  0
  1  2  1  1
  1  3  2  0
 25 28  1  0
 25 24  1  0
 25 26  1  6
 25 27  2  0
  6 11  1  0
  6 12  1  0
 29 36  1  0
 29 37  1  0
  9  7  1  1
  7 13  1  0
 10  8  1  1
  8 14  1  0
  4  5  1  0
 36 28  1  1
 33 30  1  6
 30 38  1  0
 34 31  1  1
 31 39  1  0
 35 32  1  1
 32 40  1  0
 41 43  1  0
 15 19  2  0
 42 43  2  0
 16 22  2  0
 12 17  1  6
 17 19  1  0
 17 20  1  0
 18 19  1  0
 18 22  1  0
 18 23  1  0
  9 10  1  0
  9 11  1  0
 10 12  1  0
 11  5  1  6
 33 34  1  0
 33 35  1  0
 34 36  1  0
 35 37  1  0
 37 43  1  6
 20 21  2  0
 21 22  1  0
M  CHG  3   2  -1  26  -1  41  -1
M  END
>  <COMPND>  (56) 
    udp_gluA.pdb 

>  <AUTHOR>  (56) 
    GENERATED BY OPEN BABEL 3.1.1

>  <MASTER>  (56) 
        0    0    0    0    0    0    0    0   56    0   56    0

>  <minimizedAffinity>  (56) 
-7.40072

>  <CNNscore>  (56) 
0.3442294896

>  <CNNaffinity>  (56) 
4.1675720215

>  <CNN_VS>  (56) 
1.4346011877

>  <CNNaffinity_variance>  (56) 
0.0755034164

$$$$
57
     RDKit          3D

 43 45  0  0  0  0  0  0  0  0999 V2000
   21.5610   72.9039   -4.8857 P   0  0  2  0  0  0  0  0  0  0  0  0
   23.1303   73.1767   -5.1716 O   0  0  0  0  0  0  0  0  0  0  0  0
   20.7535   74.1273   -4.5646 O   0  0  0  0  0  0  0  0  0  0  0  0
   21.5675   71.7489   -3.7527 O   0  0  0  0  0  0  0  0  0  0  0  0
   22.3868   71.9257   -2.6116 C   0  0  0  0  0  0  0  0  0  0  0  0
   23.6688   70.7388   -0.9608 O   0  0  0  0  0  0  0  0  0  0  0  0
   22.6581   68.2278   -2.2511 O   0  0  0  0  0  0  0  0  0  0  0  0
   21.0573   68.4554   -0.0553 O   0  0  0  0  0  0  0  0  0  0  0  0
   21.9910   69.4749   -2.0555 C   0  0  1  0  0  0  0  0  0  0  0  0
   21.6014   69.6385   -0.6016 C   0  0  2  0  0  0  0  0  0  0  0  0
   23.0133   70.5883   -2.2387 C   0  0  1  0  0  0  0  0  0  0  0  0
   22.9246   70.0234    0.0380 C   0  0  2  0  0  0  0  0  0  0  0  0
   22.0249   67.5010   -2.1391 H   0  0  0  0  0  0  0  0  0  0  0  0
   20.2161   68.2532   -0.4952 H   0  0  0  0  0  0  0  0  0  0  0  0
   23.9077   69.4262    2.6174 O   0  0  0  0  0  0  0  0  0  0  0  0
   22.2073   73.3355    4.3696 O   0  0  0  0  0  0  0  0  0  0  0  0
   22.7531   70.8676    1.1864 N   0  0  0  0  0  0  0  0  0  0  0  0
   23.0590   71.3733    3.4879 N   0  0  0  0  0  0  0  0  0  0  0  0
   23.2861   70.4750    2.4370 C   0  0  0  0  0  0  0  0  0  0  0  0
   22.0655   72.0692    1.0674 C   0  0  0  0  0  0  0  0  0  0  0  0
   21.8572   72.9152    2.0782 C   0  0  0  0  0  0  0  0  0  0  0  0
   22.3808   72.5795    3.4185 C   0  0  0  0  0  0  0  0  0  0  0  0
   23.4189   71.1207    4.3688 H   0  0  0  0  0  0  0  0  0  0  0  0
   21.0834   72.1106   -6.2106 O   0  0  0  0  0  0  0  0  0  0  0  0
   19.6818   72.1367   -7.0160 P   0  0  2  0  0  0  0  0  0  0  0  0
   19.7005   70.7413   -7.8362 O   0  0  0  0  0  0  0  0  0  0  0  0
   19.4860   73.3545   -7.8719 O   0  0  0  0  0  0  0  0  0  0  0  0
   18.5540   71.9272   -5.8817 O   0  0  0  0  0  0  0  0  0  0  0  0
   17.7606   69.7941   -5.2263 O   0  0  0  0  0  0  0  0  0  0  0  0
   14.6541   72.2468   -4.0423 O   0  0  0  0  0  0  0  0  0  0  0  0
   15.9747   72.6666   -6.6141 O   0  0  0  0  0  0  0  0  0  0  0  0
   16.4955   71.1682   -2.0682 O   0  0  0  0  0  0  0  0  0  0  0  0
   16.0133   71.9033   -4.3115 C   0  0  2  0  0  0  0  0  0  0  0  0
   16.1634   71.5254   -5.7854 C   0  0  2  0  0  0  0  0  0  0  0  0
   16.3877   70.7189   -3.4176 C   0  0  1  0  0  0  0  0  0  0  0  0
   17.5464   70.9334   -6.0603 C   0  0  1  0  0  0  0  0  0  0  0  0
   17.7209   70.1052   -3.8354 C   0  0  1  0  0  0  0  0  0  0  0  0
   14.3937   72.9974   -4.5991 H   0  0  0  0  0  0  0  0  0  0  0  0
   15.0991   73.0475   -6.4446 H   0  0  0  0  0  0  0  0  0  0  0  0
   15.6534   71.5612   -1.7900 H   0  0  0  0  0  0  0  0  0  0  0  0
   19.1940   68.3450   -3.3524 O   0  0  0  0  0  0  0  0  0  0  0  0
   17.0543   68.1499   -2.5888 O   0  0  0  0  0  0  0  0  0  0  0  0
   17.9178   68.7732   -3.1879 C   0  0  0  0  0  0  0  0  0  0  0  0
  1  4  1  0
  1 24  1  0
  1  2  1  6
  1  3  2  0
 25 28  1  0
 25 24  1  0
 25 26  1  6
 25 27  2  0
  6 11  1  0
  6 12  1  0
 29 36  1  0
 29 37  1  0
  9  7  1  1
  7 13  1  0
 10  8  1  1
  8 14  1  0
  4  5  1  0
 36 28  1  1
 33 30  1  6
 30 38  1  0
 34 31  1  6
 31 39  1  0
 35 32  1  1
 32 40  1  0
 41 43  1  0
 15 19  2  0
 42 43  2  0
 16 22  2  0
 12 17  1  1
 17 19  1  0
 17 20  1  0
 18 19  1  0
 18 22  1  0
 18 23  1  0
  9 10  1  0
  9 11  1  0
 10 12  1  0
 11  5  1  1
 33 34  1  0
 33 35  1  0
 34 36  1  0
 35 37  1  0
 37 43  1  1
 20 21  2  0
 21 22  1  0
M  CHG  3   2  -1  26  -1  41  -1
M  END
>  <COMPND>  (57) 
    udp_gluA.pdb 

>  <AUTHOR>  (57) 
    GENERATED BY OPEN BABEL 3.1.1

>  <MASTER>  (57) 
        0    0    0    0    0    0    0    0   56    0   56    0

>  <minimizedAffinity>  (57) 
-7.89662

>  <CNNscore>  (57) 
0.3243812025

>  <CNNaffinity>  (57) 
4.1156740189

>  <CNN_VS>  (57) 
1.3350472450

>  <CNNaffinity_variance>  (57) 
0.1736534536

$$$$
58
     RDKit          3D

 43 45  0  0  0  0  0  0  0  0999 V2000
   22.4452   72.9470   -3.7867 P   0  0  2  0  0  0  0  0  0  0  0  0
   23.9819   72.9345   -4.2940 O   0  0  0  0  0  0  0  0  0  0  0  0
   21.9385   74.2848   -3.3335 O   0  0  0  0  0  0  0  0  0  0  0  0
   22.3906   71.7645   -2.6837 O   0  0  0  0  0  0  0  0  0  0  0  0
   22.5354   72.1070   -1.3176 C   0  0  0  0  0  0  0  0  0  0  0  0
   21.8610   69.8070   -1.1366 O   0  0  0  0  0  0  0  0  0  0  0  0
   21.4028   70.3640    1.7739 O   0  0  0  0  0  0  0  0  0  0  0  0
   23.8144   69.0912    1.7833 O   0  0  0  0  0  0  0  0  0  0  0  0
   22.4140   70.8741    0.9045 C   0  0  1  0  0  0  0  0  0  0  0  0
   23.4493   69.8063    0.6214 C   0  0  2  0  0  0  0  0  0  0  0  0
   21.7904   71.0852   -0.4684 C   0  0  1  0  0  0  0  0  0  0  0  0
   22.7351   68.9373   -0.3997 C   0  0  2  0  0  0  0  0  0  0  0  0
   21.7776   70.2211    2.6575 H   0  0  0  0  0  0  0  0  0  0  0  0
   24.2657   69.6878    2.4017 H   0  0  0  0  0  0  0  0  0  0  0  0
   23.1810   66.1518   -0.5361 O   0  0  0  0  0  0  0  0  0  0  0  0
   26.2470   66.6253   -3.9449 O   0  0  0  0  0  0  0  0  0  0  0  0
   23.6444   68.3058   -1.3135 N   0  0  0  0  0  0  0  0  0  0  0  0
   24.7084   66.3904   -2.2330 N   0  0  0  0  0  0  0  0  0  0  0  0
   23.7948   66.8989   -1.3004 C   0  0  0  0  0  0  0  0  0  0  0  0
   24.3738   69.0770   -2.2103 C   0  0  0  0  0  0  0  0  0  0  0  0
   25.2408   68.5779   -3.0934 C   0  0  0  0  0  0  0  0  0  0  0  0
   25.4573   67.1171   -3.1444 C   0  0  0  0  0  0  0  0  0  0  0  0
   24.8316   65.4136   -2.2414 H   0  0  0  0  0  0  0  0  0  0  0  0
   21.6444   72.3128   -5.0394 O   0  0  0  0  0  0  0  0  0  0  0  0
   20.0771   72.3636   -5.4327 P   0  0  2  0  0  0  0  0  0  0  0  0
   20.0938   72.1896   -7.0420 O   0  0  0  0  0  0  0  0  0  0  0  0
   19.3608   73.5919   -4.9509 O   0  0  0  0  0  0  0  0  0  0  0  0
   19.4710   70.9747   -4.8793 O   0  0  0  0  0  0  0  0  0  0  0  0
   17.9212   71.4348   -3.1485 O   0  0  0  0  0  0  0  0  0  0  0  0
   17.9014   67.3041   -3.2186 O   0  0  0  0  0  0  0  0  0  0  0  0
   20.4128   68.7772   -3.4580 O   0  0  0  0  0  0  0  0  0  0  0  0
   15.6847   68.7936   -4.3669 O   0  0  0  0  0  0  0  0  0  0  0  0
   18.0122   68.6163   -3.7698 C   0  0  2  0  0  0  0  0  0  0  0  0
   19.1659   69.3590   -3.0954 C   0  0  2  0  0  0  0  0  0  0  0  0
   16.6908   69.3470   -3.5208 C   0  0  1  0  0  0  0  0  0  0  0  0
   19.1715   70.8361   -3.4915 C   0  0  1  0  0  0  0  0  0  0  0  0
   16.8138   70.8382   -3.8201 C   0  0  1  0  0  0  0  0  0  0  0  0
   18.7298   66.8207   -3.3649 H   0  0  0  0  0  0  0  0  0  0  0  0
   20.4161   67.8398   -3.2098 H   0  0  0  0  0  0  0  0  0  0  0  0
   15.5966   67.8446   -4.1865 H   0  0  0  0  0  0  0  0  0  0  0  0
   15.1437   70.9594   -2.1777 O   0  0  0  0  0  0  0  0  0  0  0  0
   15.1960   72.6260   -3.7329 O   0  0  0  0  0  0  0  0  0  0  0  0
   15.6444   71.5879   -3.2700 C   0  0  0  0  0  0  0  0  0  0  0  0
  1  4  1  0
  1 24  1  0
  1  2  1  6
  1  3  2  0
 25 28  1  0
 25 24  1  0
 25 26  1  6
 25 27  2  0
  6 11  1  0
  6 12  1  0
 29 36  1  0
 29 37  1  0
  9  7  1  1
  7 13  1  0
 10  8  1  1
  8 14  1  0
  4  5  1  0
 36 28  1  6
 33 30  1  1
 30 38  1  0
 34 31  1  6
 31 39  1  0
 35 32  1  6
 32 40  1  0
 41 43  1  0
 15 19  2  0
 42 43  2  0
 16 22  2  0
 12 17  1  6
 17 19  1  0
 17 20  1  0
 18 19  1  0
 18 22  1  0
 18 23  1  0
  9 10  1  0
  9 11  1  0
 10 12  1  0
 11  5  1  6
 33 34  1  0
 33 35  1  0
 34 36  1  0
 35 37  1  0
 37 43  1  1
 20 21  2  0
 21 22  1  0
M  CHG  3   2  -1  26  -1  41  -1
M  END
>  <COMPND>  (58) 
    udp_gluA.pdb 

>  <AUTHOR>  (58) 
    GENERATED BY OPEN BABEL 3.1.1

>  <MASTER>  (58) 
        0    0    0    0    0    0    0    0   56    0   56    0

>  <minimizedAffinity>  (58) 
-8.77973

>  <CNNscore>  (58) 
0.3151156902

>  <CNNaffinity>  (58) 
4.1290373802

>  <CNN_VS>  (58) 
1.3011244535

>  <CNNaffinity_variance>  (58) 
0.9642103314

$$$$
59
     RDKit          3D

 43 45  0  0  0  0  0  0  0  0999 V2000
   21.1822   71.1496   -3.1737 P   0  0  2  0  0  0  0  0  0  0  0  0
   22.0934   69.8461   -2.8744 O   0  0  0  0  0  0  0  0  0  0  0  0
   20.7172   71.8911   -1.9547 O   0  0  0  0  0  0  0  0  0  0  0  0
   20.0143   70.5925   -4.1452 O   0  0  0  0  0  0  0  0  0  0  0  0
   19.7158   69.2088   -4.1189 C   0  0  0  0  0  0  0  0  0  0  0  0
   17.7237   70.1819   -3.1904 O   0  0  0  0  0  0  0  0  0  0  0  0
   16.8654   67.3763   -2.5712 O   0  0  0  0  0  0  0  0  0  0  0  0
   15.4419   67.9512   -4.8248 O   0  0  0  0  0  0  0  0  0  0  0  0
   17.5936   67.8713   -3.6952 C   0  0  1  0  0  0  0  0  0  0  0  0
   16.6688   68.6228   -4.6291 C   0  0  2  0  0  0  0  0  0  0  0  0
   18.5191   68.9767   -3.2056 C   0  0  1  0  0  0  0  0  0  0  0  0
   16.5008   69.9488   -3.9070 C   0  0  2  0  0  0  0  0  0  0  0  0
   16.2671   66.6687   -2.8592 H   0  0  0  0  0  0  0  0  0  0  0  0
   15.6022   67.1136   -5.2882 H   0  0  0  0  0  0  0  0  0  0  0  0
   15.2562   72.3809   -3.1910 O   0  0  0  0  0  0  0  0  0  0  0  0
   15.6838   74.0673   -7.4592 O   0  0  0  0  0  0  0  0  0  0  0  0
   16.2742   71.0404   -4.8113 N   0  0  0  0  0  0  0  0  0  0  0  0
   15.4694   73.2181   -5.3178 N   0  0  0  0  0  0  0  0  0  0  0  0
   15.6403   72.2186   -4.3508 C   0  0  0  0  0  0  0  0  0  0  0  0
   16.6793   70.9387   -6.1366 C   0  0  0  0  0  0  0  0  0  0  0  0
   16.5098   71.8999   -7.0466 C   0  0  0  0  0  0  0  0  0  0  0  0
   15.8548   73.1628   -6.6474 C   0  0  0  0  0  0  0  0  0  0  0  0
   15.0286   74.0470   -5.0213 H   0  0  0  0  0  0  0  0  0  0  0  0
   22.1069   72.0162   -4.1770 O   0  0  0  0  0  0  0  0  0  0  0  0
   22.7308   73.5004   -4.0301 P   0  0  2  0  0  0  0  0  0  0  0  0
   24.3210   73.2519   -4.2026 O   0  0  0  0  0  0  0  0  0  0  0  0
   22.3492   74.2059   -2.7611 O   0  0  0  0  0  0  0  0  0  0  0  0
   22.2895   74.2654   -5.3801 O   0  0  0  0  0  0  0  0  0  0  0  0
   20.1014   74.6093   -6.2188 O   0  0  0  0  0  0  0  0  0  0  0  0
   22.3281   74.5037   -9.6972 O   0  0  0  0  0  0  0  0  0  0  0  0
   22.8615   72.6080   -7.5393 O   0  0  0  0  0  0  0  0  0  0  0  0
   21.3557   77.0408   -8.6636 O   0  0  0  0  0  0  0  0  0  0  0  0
   22.0793   74.7690   -8.3167 C   0  0  2  0  0  0  0  0  0  0  0  0
   21.7272   73.4650   -7.6003 C   0  0  2  0  0  0  0  0  0  0  0  0
   20.9137   75.7567   -8.2276 C   0  0  1  0  0  0  0  0  0  0  0  0
   21.2322   73.7379   -6.1793 C   0  0  1  0  0  0  0  0  0  0  0  0
   20.3952   75.8789   -6.7977 C   0  0  1  0  0  0  0  0  0  0  0  0
   23.0651   73.8781   -9.7786 H   0  0  0  0  0  0  0  0  0  0  0  0
   23.1810   72.4309   -8.4376 H   0  0  0  0  0  0  0  0  0  0  0  0
   21.6885   76.9769   -9.5724 H   0  0  0  0  0  0  0  0  0  0  0  0
   18.7516   76.9421   -5.5055 O   0  0  0  0  0  0  0  0  0  0  0  0
   18.3725   76.7876   -7.7486 O   0  0  0  0  0  0  0  0  0  0  0  0
   19.0729   76.5740   -6.7705 C   0  0  0  0  0  0  0  0  0  0  0  0
  1  4  1  0
  1 24  1  0
  1  2  1  1
  1  3  2  0
 25 28  1  0
 25 24  1  0
 25 26  1  6
 25 27  2  0
  6 11  1  0
  6 12  1  0
 29 36  1  0
 29 37  1  0
  9  7  1  1
  7 13  1  0
 10  8  1  1
  8 14  1  0
  4  5  1  0
 36 28  1  1
 33 30  1  6
 30 38  1  0
 34 31  1  1
 31 39  1  0
 35 32  1  1
 32 40  1  0
 41 43  1  0
 15 19  2  0
 42 43  2  0
 16 22  2  0
 12 17  1  6
 17 19  1  0
 17 20  1  0
 18 19  1  0
 18 22  1  0
 18 23  1  0
  9 10  1  0
  9 11  1  0
 10 12  1  0
 11  5  1  6
 33 34  1  0
 33 35  1  0
 34 36  1  0
 35 37  1  0
 37 43  1  6
 20 21  2  0
 21 22  1  0
M  CHG  3   2  -1  26  -1  41  -1
M  END
>  <COMPND>  (59) 
    udp_gluA.pdb 

>  <AUTHOR>  (59) 
    GENERATED BY OPEN BABEL 3.1.1

>  <MASTER>  (59) 
        0    0    0    0    0    0    0    0   56    0   56    0

>  <minimizedAffinity>  (59) 
-6.84786

>  <CNNscore>  (59) 
0.3146587610

>  <CNNaffinity>  (59) 
3.9465224743

>  <CNN_VS>  (59) 
1.2418078184

>  <CNNaffinity_variance>  (59) 
0.5375254750

$$$$
60
     RDKit          3D

 43 45  0  0  0  0  0  0  0  0999 V2000
   22.7775   73.9431   -5.0063 P   0  0  2  0  0  0  0  0  0  0  0  0
   23.7986   72.8446   -4.3985 O   0  0  0  0  0  0  0  0  0  0  0  0
   23.3733   75.3002   -5.2412 O   0  0  0  0  0  0  0  0  0  0  0  0
   21.5118   73.8961   -3.9995 O   0  0  0  0  0  0  0  0  0  0  0  0
   21.0050   72.6331   -3.6090 C   0  0  0  0  0  0  0  0  0  0  0  0
   20.7083   71.3276   -1.6127 O   0  0  0  0  0  0  0  0  0  0  0  0
   20.9795   73.9073   -0.1085 O   0  0  0  0  0  0  0  0  0  0  0  0
   23.4492   72.7875    0.1789 O   0  0  0  0  0  0  0  0  0  0  0  0
   21.6453   73.4800   -1.2971 C   0  0  1  0  0  0  0  0  0  0  0  0
   22.6962   72.4420   -0.9648 C   0  0  2  0  0  0  0  0  0  0  0  0
   20.6543   72.6757   -2.1273 C   0  0  1  0  0  0  0  0  0  0  0  0
   21.8532   71.1956   -0.7554 C   0  0  2  0  0  0  0  0  0  0  0  0
   21.5929   74.4234    0.4384 H   0  0  0  0  0  0  0  0  0  0  0  0
   23.9685   73.5866   -0.0052 H   0  0  0  0  0  0  0  0  0  0  0  0
   21.2808   68.6481    0.3212 O   0  0  0  0  0  0  0  0  0  0  0  0
   24.6224   66.6524   -2.1476 O   0  0  0  0  0  0  0  0  0  0  0  0
   22.5580   69.9932   -1.0994 N   0  0  0  0  0  0  0  0  0  0  0  0
   22.9463   67.6567   -0.9087 N   0  0  0  0  0  0  0  0  0  0  0  0
   22.1916   68.7645   -0.5009 C   0  0  0  0  0  0  0  0  0  0  0  0
   23.5975   70.0379   -2.0205 C   0  0  0  0  0  0  0  0  0  0  0  0
   24.3076   68.9735   -2.3993 C   0  0  0  0  0  0  0  0  0  0  0  0
   23.9893   67.6517   -1.8207 C   0  0  0  0  0  0  0  0  0  0  0  0
   22.7110   66.7905   -0.5041 H   0  0  0  0  0  0  0  0  0  0  0  0
   22.2120   73.2169   -6.3351 O   0  0  0  0  0  0  0  0  0  0  0  0
   20.9956   73.6114   -7.3242 P   0  0  2  0  0  0  0  0  0  0  0  0
   21.4152   72.9134   -8.7231 O   0  0  0  0  0  0  0  0  0  0  0  0
   20.7358   75.0868   -7.4227 O   0  0  0  0  0  0  0  0  0  0  0  0
   19.7415   72.7445   -6.7967 O   0  0  0  0  0  0  0  0  0  0  0  0
   19.5679   70.5364   -5.9582 O   0  0  0  0  0  0  0  0  0  0  0  0
   16.0361   70.9145   -8.0680 O   0  0  0  0  0  0  0  0  0  0  0  0
   18.5381   71.9419   -9.1723 O   0  0  0  0  0  0  0  0  0  0  0  0
   16.0231   71.0521   -5.1643 O   0  0  0  0  0  0  0  0  0  0  0  0
   17.1367   71.3645   -7.2779 C   0  0  2  0  0  0  0  0  0  0  0  0
   18.4442   71.1039   -8.0261 C   0  0  2  0  0  0  0  0  0  0  0  0
   17.1168   70.5929   -5.9564 C   0  0  1  0  0  0  0  0  0  0  0  0
   19.6516   71.3587   -7.1227 C   0  0  1  0  0  0  0  0  0  0  0  0
   18.4086   70.7999   -5.1710 C   0  0  1  0  0  0  0  0  0  0  0  0
   16.0284   71.3911   -8.9131 H   0  0  0  0  0  0  0  0  0  0  0  0
   17.7749   71.7856   -9.7498 H   0  0  0  0  0  0  0  0  0  0  0  0
   15.1946   70.9261   -5.6529 H   0  0  0  0  0  0  0  0  0  0  0  0
   19.7426   69.2137   -4.0728 O   0  0  0  0  0  0  0  0  0  0  0  0
   17.6409   69.5504   -3.2551 O   0  0  0  0  0  0  0  0  0  0  0  0
   18.5215   69.8034   -4.0635 C   0  0  0  0  0  0  0  0  0  0  0  0
  1  4  1  0
  1 24  1  0
  1  2  1  1
  1  3  2  0
 25 28  1  0
 25 24  1  0
 25 26  1  6
 25 27  2  0
  6 11  1  0
  6 12  1  0
 29 36  1  0
 29 37  1  0
  9  7  1  1
  7 13  1  0
 10  8  1  1
  8 14  1  0
  4  5  1  0
 36 28  1  1
 33 30  1  6
 30 38  1  0
 34 31  1  6
 31 39  1  0
 35 32  1  1
 32 40  1  0
 41 43  1  0
 15 19  2  0
 42 43  2  0
 16 22  2  0
 12 17  1  6
 17 19  1  0
 17 20  1  0
 18 19  1  0
 18 22  1  0
 18 23  1  0
  9 10  1  0
  9 11  1  0
 10 12  1  0
 11  5  1  6
 33 34  1  0
 33 35  1  0
 34 36  1  0
 35 37  1  0
 37 43  1  1
 20 21  2  0
 21 22  1  0
M  CHG  3   2  -1  26  -1  41  -1
M  END
>  <COMPND>  (60) 
    udp_gluA.pdb 

>  <AUTHOR>  (60) 
    GENERATED BY OPEN BABEL 3.1.1

>  <MASTER>  (60) 
        0    0    0    0    0    0    0    0   56    0   56    0

>  <minimizedAffinity>  (60) 
-8.11204

>  <CNNscore>  (60) 
0.3066424727

>  <CNNaffinity>  (60) 
4.1780681610

>  <CNN_VS>  (60) 
1.2811731100

>  <CNNaffinity_variance>  (60) 
0.4494083524

$$$$
61
     RDKit          3D

 43 45  0  0  0  0  0  0  0  0999 V2000
   22.1188   70.9214   -2.6828 P   0  0  2  0  0  0  0  0  0  0  0  0
   21.3350   72.0995   -1.8976 O   0  0  0  0  0  0  0  0  0  0  0  0
   23.3974   71.3434   -3.3452 O   0  0  0  0  0  0  0  0  0  0  0  0
   20.9946   70.2923   -3.6618 O   0  0  0  0  0  0  0  0  0  0  0  0
   20.0238   69.4241   -3.1066 C   0  0  0  0  0  0  0  0  0  0  0  0
   18.6142   71.1059   -4.0876 O   0  0  0  0  0  0  0  0  0  0  0  0
   16.3822   69.9047   -2.4854 O   0  0  0  0  0  0  0  0  0  0  0  0
   15.9545   68.8703   -4.9720 O   0  0  0  0  0  0  0  0  0  0  0  0
   17.4850   69.2603   -3.1234 C   0  0  1  0  0  0  0  0  0  0  0  0
   17.2760   69.2253   -4.6225 C   0  0  2  0  0  0  0  0  0  0  0  0
   18.6998   70.1688   -2.9922 C   0  0  1  0  0  0  0  0  0  0  0  0
   17.6244   70.6488   -5.0228 C   0  0  2  0  0  0  0  0  0  0  0  0
   15.5940   69.3430   -2.5563 H   0  0  0  0  0  0  0  0  0  0  0  0
   15.7817   67.9558   -4.6965 H   0  0  0  0  0  0  0  0  0  0  0  0
   16.0860   70.4657   -7.3843 O   0  0  0  0  0  0  0  0  0  0  0  0
   19.8037   70.9659  -10.0624 O   0  0  0  0  0  0  0  0  0  0  0  0
   18.1647   70.7280   -6.3505 N   0  0  0  0  0  0  0  0  0  0  0  0
   17.9393   70.7140   -8.7159 N   0  0  0  0  0  0  0  0  0  0  0  0
   17.3053   70.6241   -7.4697 C   0  0  0  0  0  0  0  0  0  0  0  0
   19.5303   70.9081   -6.5339 C   0  0  0  0  0  0  0  0  0  0  0  0
   20.1201   70.9920   -7.7281 C   0  0  0  0  0  0  0  0  0  0  0  0
   19.2934   70.8922   -8.9487 C   0  0  0  0  0  0  0  0  0  0  0  0
   17.3617   70.6424   -9.5100 H   0  0  0  0  0  0  0  0  0  0  0  0
   22.2918   69.7824   -1.5490 O   0  0  0  0  0  0  0  0  0  0  0  0
   23.4598   69.5396   -0.4579 P   0  0  2  0  0  0  0  0  0  0  0  0
   24.7821   69.3394   -1.3700 O   0  0  0  0  0  0  0  0  0  0  0  0
   23.1885   68.4107    0.4938 O   0  0  0  0  0  0  0  0  0  0  0  0
   23.6656   70.9755    0.2479 O   0  0  0  0  0  0  0  0  0  0  0  0
   24.1486   72.0839    2.2844 O   0  0  0  0  0  0  0  0  0  0  0  0
   20.3582   73.4931    1.4388 O   0  0  0  0  0  0  0  0  0  0  0  0
   21.0148   70.6753    1.0347 O   0  0  0  0  0  0  0  0  0  0  0  0
   22.6766   75.1940    1.0108 O   0  0  0  0  0  0  0  0  0  0  0  0
   21.6668   73.0100    1.1350 C   0  0  2  0  0  0  0  0  0  0  0  0
   21.8431   71.6081    1.7190 C   0  0  2  0  0  0  0  0  0  0  0  0
   22.6821   73.9750    1.7513 C   0  0  1  0  0  0  0  0  0  0  0  0
   23.2989   71.1513    1.6151 C   0  0  1  0  0  0  0  0  0  0  0  0
   24.0924   73.3931    1.7224 C   0  0  1  0  0  0  0  0  0  0  0  0
   19.6961   72.8955    1.0571 H   0  0  0  0  0  0  0  0  0  0  0  0
   20.0896   70.9591    1.0964 H   0  0  0  0  0  0  0  0  0  0  0  0
   21.7845   75.5747    1.0212 H   0  0  0  0  0  0  0  0  0  0  0  0
   25.6103   75.1716    1.9081 O   0  0  0  0  0  0  0  0  0  0  0  0
   25.1922   73.9598    3.7938 O   0  0  0  0  0  0  0  0  0  0  0  0
   25.0079   74.1768    2.6056 C   0  0  0  0  0  0  0  0  0  0  0  0
  1  4  1  0
  1 24  1  0
  1  2  1  1
  1  3  2  0
 25 28  1  0
 25 24  1  0
 25 26  1  6
 25 27  2  0
  6 11  1  0
  6 12  1  0
 29 36  1  0
 29 37  1  0
  9  7  1  1
  7 13  1  0
 10  8  1  1
  8 14  1  0
  4  5  1  0
 36 28  1  6
 33 30  1  1
 30 38  1  0
 34 31  1  6
 31 39  1  0
 35 32  1  6
 32 40  1  0
 41 43  1  0
 15 19  2  0
 42 43  2  0
 16 22  2  0
 12 17  1  6
 17 19  1  0
 17 20  1  0
 18 19  1  0
 18 22  1  0
 18 23  1  0
  9 10  1  0
  9 11  1  0
 10 12  1  0
 11  5  1  6
 33 34  1  0
 33 35  1  0
 34 36  1  0
 35 37  1  0
 37 43  1  1
 20 21  2  0
 21 22  1  0
M  CHG  3   2  -1  26  -1  41  -1
M  END
>  <COMPND>  (61) 
    udp_gluA.pdb 

>  <AUTHOR>  (61) 
    GENERATED BY OPEN BABEL 3.1.1

>  <MASTER>  (61) 
        0    0    0    0    0    0    0    0   56    0   56    0

>  <minimizedAffinity>  (61) 
-8.18632

>  <CNNscore>  (61) 
0.8376111388

>  <CNNaffinity>  (61) 
4.7920384407

>  <CNN_VS>  (61) 
4.0138649940

>  <CNNaffinity_variance>  (61) 
0.0215066075

$$$$
62
     RDKit          3D

 43 45  0  0  0  0  0  0  0  0999 V2000
   21.1933   69.4261   -0.9843 P   0  0  2  0  0  0  0  0  0  0  0  0
   22.1043   69.2433   -2.3092 O   0  0  0  0  0  0  0  0  0  0  0  0
   21.4034   68.3866    0.0774 O   0  0  0  0  0  0  0  0  0  0  0  0
   19.6867   69.5457   -1.5622 O   0  0  0  0  0  0  0  0  0  0  0  0
   19.5046   70.0291   -2.8804 C   0  0  0  0  0  0  0  0  0  0  0  0
   18.1486   71.5439   -4.1627 O   0  0  0  0  0  0  0  0  0  0  0  0
   15.8081   70.4323   -2.6534 O   0  0  0  0  0  0  0  0  0  0  0  0
   15.6501   69.1281   -5.0430 O   0  0  0  0  0  0  0  0  0  0  0  0
   16.9848   69.7674   -3.1137 C   0  0  1  0  0  0  0  0  0  0  0  0
   16.9214   69.5679   -4.6132 C   0  0  2  0  0  0  0  0  0  0  0  0
   18.1553   70.7304   -2.9696 C   0  0  1  0  0  0  0  0  0  0  0  0
   17.2664   70.9540   -5.1306 C   0  0  2  0  0  0  0  0  0  0  0  0
   15.0465   69.8366   -2.7358 H   0  0  0  0  0  0  0  0  0  0  0  0
   15.4776   68.2415   -4.6877 H   0  0  0  0  0  0  0  0  0  0  0  0
   15.9405   70.7044   -7.6118 O   0  0  0  0  0  0  0  0  0  0  0  0
   19.9103   70.8134   -9.9511 O   0  0  0  0  0  0  0  0  0  0  0  0
   17.9290   70.9146   -6.4035 N   0  0  0  0  0  0  0  0  0  0  0  0
   17.9190   70.7579   -8.7745 N   0  0  0  0  0  0  0  0  0  0  0  0
   17.1700   70.7867   -7.5908 C   0  0  0  0  0  0  0  0  0  0  0  0
   19.3143   71.0037   -6.4673 C   0  0  0  0  0  0  0  0  0  0  0  0
   20.0142   70.9749   -7.6031 C   0  0  0  0  0  0  0  0  0  0  0  0
   19.2972   70.8426   -8.8883 C   0  0  0  0  0  0  0  0  0  0  0  0
   17.4126   70.6674   -9.6140 H   0  0  0  0  0  0  0  0  0  0  0  0
   21.5259   70.9385   -0.5209 O   0  0  0  0  0  0  0  0  0  0  0  0
   22.9343   71.6656   -0.2024 P   0  0  2  0  0  0  0  0  0  0  0  0
   23.0380   72.7936   -1.3587 O   0  0  0  0  0  0  0  0  0  0  0  0
   24.1089   70.7327   -0.1414 O   0  0  0  0  0  0  0  0  0  0  0  0
   22.6681   72.4967    1.1544 O   0  0  0  0  0  0  0  0  0  0  0  0
   24.3977   74.0071    1.7345 O   0  0  0  0  0  0  0  0  0  0  0  0
   22.0462   74.0772    5.1307 O   0  0  0  0  0  0  0  0  0  0  0  0
   22.6081   71.5536    3.7704 O   0  0  0  0  0  0  0  0  0  0  0  0
   21.9690   76.2979    3.2563 O   0  0  0  0  0  0  0  0  0  0  0  0
   22.3140   73.9616    3.7332 C   0  0  2  0  0  0  0  0  0  0  0  0
   23.2609   72.7863    3.4891 C   0  0  2  0  0  0  0  0  0  0  0  0
   22.9569   75.2691    3.2651 C   0  0  1  0  0  0  0  0  0  0  0  0
   23.7517   72.7708    2.0407 C   0  0  1  0  0  0  0  0  0  0  0  0
   23.5333   75.1342    1.8587 C   0  0  1  0  0  0  0  0  0  0  0  0
   21.6373   73.2576    5.4506 H   0  0  0  0  0  0  0  0  0  0  0  0
   22.2939   71.5566    4.6878 H   0  0  0  0  0  0  0  0  0  0  0  0
   21.5940   76.3938    4.1457 H   0  0  0  0  0  0  0  0  0  0  0  0
   23.7099   77.3751    1.1886 O   0  0  0  0  0  0  0  0  0  0  0  0
   25.6538   76.2542    1.5937 O   0  0  0  0  0  0  0  0  0  0  0  0
   24.4334   76.2838    1.5418 C   0  0  0  0  0  0  0  0  0  0  0  0
  1  4  1  0
  1 24  1  0
  1  2  1  6
  1  3  2  0
 25 28  1  0
 25 24  1  0
 25 26  1  6
 25 27  2  0
  6 11  1  0
  6 12  1  0
 29 36  1  0
 29 37  1  0
  9  7  1  6
  7 13  1  0
 10  8  1  1
  8 14  1  0
  4  5  1  0
 36 28  1  6
 33 30  1  1
 30 38  1  0
 34 31  1  6
 31 39  1  0
 35 32  1  6
 32 40  1  0
 41 43  1  0
 15 19  2  0
 42 43  2  0
 16 22  2  0
 12 17  1  6
 17 19  1  0
 17 20  1  0
 18 19  1  0
 18 22  1  0
 18 23  1  0
  9 10  1  0
  9 11  1  0
 10 12  1  0
 11  5  1  6
 33 34  1  0
 33 35  1  0
 34 36  1  0
 35 37  1  0
 37 43  1  1
 20 21  2  0
 21 22  1  0
M  CHG  3   2  -1  26  -1  41  -1
M  END
>  <COMPND>  (62) 
    udp_gluA.pdb 

>  <AUTHOR>  (62) 
    GENERATED BY OPEN BABEL 3.1.1

>  <MASTER>  (62) 
        0    0    0    0    0    0    0    0   56    0   56    0

>  <minimizedAffinity>  (62) 
-7.59536

>  <CNNscore>  (62) 
0.8010976911

>  <CNNaffinity>  (62) 
4.7857694626

>  <CNN_VS>  (62) 
3.8338689804

>  <CNNaffinity_variance>  (62) 
0.1757469475

$$$$
63
     RDKit          3D

 43 45  0  0  0  0  0  0  0  0999 V2000
   22.6678   70.0366   -2.5328 P   0  0  2  0  0  0  0  0  0  0  0  0
   23.5980   71.1660   -3.2241 O   0  0  0  0  0  0  0  0  0  0  0  0
   23.0889   68.6206   -2.7965 O   0  0  0  0  0  0  0  0  0  0  0  0
   21.1698   70.4238   -3.0062 O   0  0  0  0  0  0  0  0  0  0  0  0
   20.2146   69.3876   -3.1420 C   0  0  0  0  0  0  0  0  0  0  0  0
   18.6232   70.9600   -4.0211 O   0  0  0  0  0  0  0  0  0  0  0  0
   16.5472   69.4323   -2.4888 O   0  0  0  0  0  0  0  0  0  0  0  0
   16.2151   68.5033   -5.0310 O   0  0  0  0  0  0  0  0  0  0  0  0
   17.7086   68.9498   -3.1649 C   0  0  1  0  0  0  0  0  0  0  0  0
   17.4930   68.9792   -4.6632 C   0  0  2  0  0  0  0  0  0  0  0  0
   18.8186   69.9759   -2.9825 C   0  0  1  0  0  0  0  0  0  0  0  0
   17.6817   70.4529   -4.9801 C   0  0  2  0  0  0  0  0  0  0  0  0
   15.8242   68.7932   -2.5913 H   0  0  0  0  0  0  0  0  0  0  0  0
   16.1448   67.5611   -4.8092 H   0  0  0  0  0  0  0  0  0  0  0  0
   16.1101   70.4665   -7.3267 O   0  0  0  0  0  0  0  0  0  0  0  0
   19.7770   71.2852   -9.9966 O   0  0  0  0  0  0  0  0  0  0  0  0
   18.2000   70.6672   -6.3016 N   0  0  0  0  0  0  0  0  0  0  0  0
   17.9381   70.8732   -8.6543 N   0  0  0  0  0  0  0  0  0  0  0  0
   17.3251   70.6543   -7.4136 C   0  0  0  0  0  0  0  0  0  0  0  0
   19.5594   70.8885   -6.4860 C   0  0  0  0  0  0  0  0  0  0  0  0
   20.1290   71.0958   -7.6749 C   0  0  0  0  0  0  0  0  0  0  0  0
   19.2852   71.0972   -8.8879 C   0  0  0  0  0  0  0  0  0  0  0  0
   17.3495   70.8667   -9.4435 H   0  0  0  0  0  0  0  0  0  0  0  0
   22.6778   70.4627   -0.9736 O   0  0  0  0  0  0  0  0  0  0  0  0
   22.1321   69.6947    0.3402 P   0  0  2  0  0  0  0  0  0  0  0  0
   23.4741   69.0501    0.9758 O   0  0  0  0  0  0  0  0  0  0  0  0
   21.0401   68.7021    0.0642 O   0  0  0  0  0  0  0  0  0  0  0  0
   21.7227   70.8733    1.3628 O   0  0  0  0  0  0  0  0  0  0  0  0
   21.0263   73.1100    1.0143 O   0  0  0  0  0  0  0  0  0  0  0  0
   23.2707   73.4564    4.4655 O   0  0  0  0  0  0  0  0  0  0  0  0
   24.1950   71.7782    2.2601 O   0  0  0  0  0  0  0  0  0  0  0  0
   20.3677   73.5271    4.5997 O   0  0  0  0  0  0  0  0  0  0  0  0
   22.4052   72.8082    3.5335 C   0  0  2  0  0  0  0  0  0  0  0  0
   23.1064   72.6909    2.1799 C   0  0  2  0  0  0  0  0  0  0  0  0
   21.1344   73.6509    3.4033 C   0  0  1  0  0  0  0  0  0  0  0  0
   22.1346   72.2135    1.0999 C   0  0  1  0  0  0  0  0  0  0  0  0
   20.2792   73.1911    2.2261 C   0  0  1  0  0  0  0  0  0  0  0  0
   24.0853   72.9388    4.5644 H   0  0  0  0  0  0  0  0  0  0  0  0
   24.8155   72.0748    2.9437 H   0  0  0  0  0  0  0  0  0  0  0  0
   20.9006   73.8165    5.3567 H   0  0  0  0  0  0  0  0  0  0  0  0
   19.2234   74.4847    0.5788 O   0  0  0  0  0  0  0  0  0  0  0  0
   18.4736   74.7134    2.7200 O   0  0  0  0  0  0  0  0  0  0  0  0
   19.2290   74.2043    1.9056 C   0  0  0  0  0  0  0  0  0  0  0  0
  1  4  1  0
  1 24  1  0
  1  2  1  6
  1  3  2  0
 25 28  1  0
 25 24  1  0
 25 26  1  1
 25 27  2  0
  6 11  1  0
  6 12  1  0
 29 36  1  0
 29 37  1  0
  9  7  1  1
  7 13  1  0
 10  8  1  1
  8 14  1  0
  4  5  1  0
 36 28  1  1
 33 30  1  1
 30 38  1  0
 34 31  1  1
 31 39  1  0
 35 32  1  1
 32 40  1  0
 41 43  1  0
 15 19  2  0
 42 43  2  0
 16 22  2  0
 12 17  1  6
 17 19  1  0
 17 20  1  0
 18 19  1  0
 18 22  1  0
 18 23  1  0
  9 10  1  0
  9 11  1  0
 10 12  1  0
 11  5  1  6
 33 34  1  0
 33 35  1  0
 34 36  1  0
 35 37  1  0
 37 43  1  6
 20 21  2  0
 21 22  1  0
M  CHG  3   2  -1  26  -1  41  -1
M  END
>  <COMPND>  (63) 
    udp_gluA.pdb 

>  <AUTHOR>  (63) 
    GENERATED BY OPEN BABEL 3.1.1

>  <MASTER>  (63) 
        0    0    0    0    0    0    0    0   56    0   56    0

>  <minimizedAffinity>  (63) 
-8.17878

>  <CNNscore>  (63) 
0.7821165323

>  <CNNaffinity>  (63) 
4.8478899002

>  <CNN_VS>  (63) 
3.7916147709

>  <CNNaffinity_variance>  (63) 
0.0441726819

$$$$
64
     RDKit          3D

 43 45  0  0  0  0  0  0  0  0999 V2000
   18.2907   69.4710   -3.0662 P   0  0  2  0  0  0  0  0  0  0  0  0
   18.0033   70.9320   -2.4323 O   0  0  0  0  0  0  0  0  0  0  0  0
   17.3849   68.3789   -2.5775 O   0  0  0  0  0  0  0  0  0  0  0  0
   19.8714   69.2402   -2.8096 O   0  0  0  0  0  0  0  0  0  0  0  0
   20.6708   70.3572   -2.4662 C   0  0  0  0  0  0  0  0  0  0  0  0
   22.9085   70.8292   -1.7264 O   0  0  0  0  0  0  0  0  0  0  0  0
   23.6366   68.1290   -2.8082 O   0  0  0  0  0  0  0  0  0  0  0  0
   23.4316   67.6622   -0.1293 O   0  0  0  0  0  0  0  0  0  0  0  0
   22.4349   68.5495   -2.1619 C   0  0  1  0  0  0  0  0  0  0  0  0
   22.6706   68.7189   -0.6760 C   0  0  2  0  0  0  0  0  0  0  0  0
   22.1395   69.9768   -2.6024 C   0  0  1  0  0  0  0  0  0  0  0  0
   23.3973   70.0519   -0.6218 C   0  0  2  0  0  0  0  0  0  0  0  0
   23.8459   67.2195   -2.5421 H   0  0  0  0  0  0  0  0  0  0  0  0
   22.9258   66.8359   -0.1871 H   0  0  0  0  0  0  0  0  0  0  0  0
   20.9056   70.1061    0.7068 O   0  0  0  0  0  0  0  0  0  0  0  0
   22.5432   72.8192    4.0537 O   0  0  0  0  0  0  0  0  0  0  0  0
   23.1447   70.7645    0.5986 N   0  0  0  0  0  0  0  0  0  0  0  0
   21.7233   71.4582    2.3719 N   0  0  0  0  0  0  0  0  0  0  0  0
   21.8572   70.7271    1.1843 C   0  0  0  0  0  0  0  0  0  0  0  0
   24.1653   71.4882    1.2031 C   0  0  0  0  0  0  0  0  0  0  0  0
   24.0226   72.1801    2.3353 C   0  0  0  0  0  0  0  0  0  0  0  0
   22.7085   72.1936    3.0108 C   0  0  0  0  0  0  0  0  0  0  0  0
   20.8354   71.4488    2.7972 H   0  0  0  0  0  0  0  0  0  0  0  0
   18.2171   69.7450   -4.6576 O   0  0  0  0  0  0  0  0  0  0  0  0
   17.0186   70.3121   -5.5827 P   0  0  2  0  0  0  0  0  0  0  0  0
   16.0151   70.9939   -4.5110 O   0  0  0  0  0  0  0  0  0  0  0  0
   16.3759   69.2775   -6.4604 O   0  0  0  0  0  0  0  0  0  0  0  0
   17.6694   71.5550   -6.3791 O   0  0  0  0  0  0  0  0  0  0  0  0
   19.3855   72.8035   -5.3277 O   0  0  0  0  0  0  0  0  0  0  0  0
   18.2770   75.3252   -8.4067 O   0  0  0  0  0  0  0  0  0  0  0  0
   16.2513   73.8992   -6.8583 O   0  0  0  0  0  0  0  0  0  0  0  0
   20.7433   73.7969   -8.5884 O   0  0  0  0  0  0  0  0  0  0  0  0
   18.4949   74.0681   -7.7661 C   0  0  2  0  0  0  0  0  0  0  0  0
   17.6286   73.9772   -6.5096 C   0  0  2  0  0  0  0  0  0  0  0  0
   19.9775   73.9754   -7.3984 C   0  0  1  0  0  0  0  0  0  0  0  0
   18.0015   72.7507   -5.6757 C   0  0  1  0  0  0  0  0  0  0  0  0
   20.2471   72.7996   -6.4638 C   0  0  1  0  0  0  0  0  0  0  0  0
   17.3413   75.4066   -8.6496 H   0  0  0  0  0  0  0  0  0  0  0  0
   16.0079   74.6743   -7.3879 H   0  0  0  0  0  0  0  0  0  0  0  0
   20.5805   74.5386   -9.1919 H   0  0  0  0  0  0  0  0  0  0  0  0
   21.5174   73.0728   -4.5110 O   0  0  0  0  0  0  0  0  0  0  0  0
   22.6593   72.8534   -6.4724 O   0  0  0  0  0  0  0  0  0  0  0  0
   21.6068   72.9077   -5.8541 C   0  0  0  0  0  0  0  0  0  0  0  0
  1  4  1  0
  1 24  1  0
  1  2  1  1
  1  3  2  0
 25 28  1  0
 25 24  1  0
 25 26  1  1
 25 27  2  0
  6 11  1  0
  6 12  1  0
 29 36  1  0
 29 37  1  0
  9  7  1  6
  7 13  1  0
 10  8  1  6
  8 14  1  0
  4  5  1  0
 36 28  1  6
 33 30  1  1
 30 38  1  0
 34 31  1  6
 31 39  1  0
 35 32  1  6
 32 40  1  0
 41 43  1  0
 15 19  2  0
 42 43  2  0
 16 22  2  0
 12 17  1  1
 17 19  1  0
 17 20  1  0
 18 19  1  0
 18 22  1  0
 18 23  1  0
  9 10  1  0
  9 11  1  0
 10 12  1  0
 11  5  1  1
 33 34  1  0
 33 35  1  0
 34 36  1  0
 35 37  1  0
 37 43  1  1
 20 21  2  0
 21 22  1  0
M  CHG  3   2  -1  26  -1  41  -1
M  END
>  <COMPND>  (64) 
    udp_gluA.pdb 

>  <AUTHOR>  (64) 
    GENERATED BY OPEN BABEL 3.1.1

>  <MASTER>  (64) 
        0    0    0    0    0    0    0    0   56    0   56    0

>  <minimizedAffinity>  (64) 
-8.19450

>  <CNNscore>  (64) 
0.4457888901

>  <CNNaffinity>  (64) 
4.3521871567

>  <CNN_VS>  (64) 
1.9401566982

>  <CNNaffinity_variance>  (64) 
0.0985197425

$$$$
65
     RDKit          3D

 43 45  0  0  0  0  0  0  0  0999 V2000
   22.0535   72.4700   -4.1464 P   0  0  2  0  0  0  0  0  0  0  0  0
   21.3230   73.6545   -3.3205 O   0  0  0  0  0  0  0  0  0  0  0  0
   23.3657   72.8476   -4.7688 O   0  0  0  0  0  0  0  0  0  0  0  0
   20.9138   71.9505   -5.1707 O   0  0  0  0  0  0  0  0  0  0  0  0
   20.6802   72.6912   -6.3544 C   0  0  0  0  0  0  0  0  0  0  0  0
   19.2330   70.7996   -6.6791 O   0  0  0  0  0  0  0  0  0  0  0  0
   18.9148   71.7629   -9.5009 O   0  0  0  0  0  0  0  0  0  0  0  0
   16.6175   72.6279   -8.3133 O   0  0  0  0  0  0  0  0  0  0  0  0
   19.0466   72.5194   -8.2972 C   0  0  1  0  0  0  0  0  0  0  0  0
   17.7605   72.4643   -7.5001 C   0  0  2  0  0  0  0  0  0  0  0  0
   20.0188   71.7846   -7.3845 C   0  0  1  0  0  0  0  0  0  0  0  0
   17.8381   71.0835   -6.8713 C   0  0  2  0  0  0  0  0  0  0  0  0
   18.2982   72.2128  -10.1000 H   0  0  0  0  0  0  0  0  0  0  0  0
   16.6140   73.5224   -8.6899 H   0  0  0  0  0  0  0  0  0  0  0  0
   16.2654   68.9042   -6.0032 O   0  0  0  0  0  0  0  0  0  0  0  0
   15.3204   70.9519   -1.9835 O   0  0  0  0  0  0  0  0  0  0  0  0
   17.1697   71.0209   -5.6024 N   0  0  0  0  0  0  0  0  0  0  0  0
   15.7954   69.9266   -4.0024 N   0  0  0  0  0  0  0  0  0  0  0  0
   16.4041   69.8802   -5.2635 C   0  0  0  0  0  0  0  0  0  0  0  0
   17.2771   72.0796   -4.7089 C   0  0  0  0  0  0  0  0  0  0  0  0
   16.6912   72.1093   -3.5103 C   0  0  0  0  0  0  0  0  0  0  0  0
   15.8725   70.9571   -3.0795 C   0  0  0  0  0  0  0  0  0  0  0  0
   15.2554   69.1446   -3.7450 H   0  0  0  0  0  0  0  0  0  0  0  0
   22.1415   71.2732   -3.0634 O   0  0  0  0  0  0  0  0  0  0  0  0
   21.0124   70.6219   -2.1071 P   0  0  2  0  0  0  0  0  0  0  0  0
   20.8849   69.1073   -2.6639 O   0  0  0  0  0  0  0  0  0  0  0  0
   19.7175   71.3811   -2.0780 O   0  0  0  0  0  0  0  0  0  0  0  0
   21.7310   70.4687   -0.6710 O   0  0  0  0  0  0  0  0  0  0  0  0
   23.4256   72.0058   -0.0588 O   0  0  0  0  0  0  0  0  0  0  0  0
   24.0407   68.9517    2.6546 O   0  0  0  0  0  0  0  0  0  0  0  0
   23.4552   68.3509   -0.1438 O   0  0  0  0  0  0  0  0  0  0  0  0
   22.7564   71.4186    3.5006 O   0  0  0  0  0  0  0  0  0  0  0  0
   23.2758   69.7974    1.7957 C   0  0  2  0  0  0  0  0  0  0  0  0
   23.7688   69.6455    0.3564 C   0  0  2  0  0  0  0  0  0  0  0  0
   23.4561   71.2410    2.2705 C   0  0  1  0  0  0  0  0  0  0  0  0
   23.1340   70.6982   -0.5533 C   0  0  1  0  0  0  0  0  0  0  0  0
   22.9093   72.2354    1.2503 C   0  0  1  0  0  0  0  0  0  0  0  0
   23.9416   68.0289    2.3720 H   0  0  0  0  0  0  0  0  0  0  0  0
   23.8547   67.6779    0.4289 H   0  0  0  0  0  0  0  0  0  0  0  0
   23.0948   70.7914    4.1586 H   0  0  0  0  0  0  0  0  0  0  0  0
   23.6490   74.2982    0.4141 O   0  0  0  0  0  0  0  0  0  0  0  0
   23.4971   74.0883    2.6795 O   0  0  0  0  0  0  0  0  0  0  0  0
   23.3766   73.6210    1.5570 C   0  0  0  0  0  0  0  0  0  0  0  0
  1  4  1  0
  1 24  1  0
  1  2  1  1
  1  3  2  0
 25 28  1  0
 25 24  1  0
 25 26  1  6
 25 27  2  0
  6 11  1  0
  6 12  1  0
 29 36  1  0
 29 37  1  0
  9  7  1  6
  7 13  1  0
 10  8  1  6
  8 14  1  0
  4  5  1  0
 36 28  1  1
 33 30  1  1
 30 38  1  0
 34 31  1  6
 31 39  1  0
 35 32  1  1
 32 40  1  0
 41 43  1  0
 15 19  2  0
 42 43  2  0
 16 22  2  0
 12 17  1  1
 17 19  1  0
 17 20  1  0
 18 19  1  0
 18 22  1  0
 18 23  1  0
  9 10  1  0
  9 11  1  0
 10 12  1  0
 11  5  1  1
 33 34  1  0
 33 35  1  0
 34 36  1  0
 35 37  1  0
 37 43  1  1
 20 21  2  0
 21 22  1  0
M  CHG  3   2  -1  26  -1  41  -1
M  END
>  <COMPND>  (65) 
    udp_gluA.pdb 

>  <AUTHOR>  (65) 
    GENERATED BY OPEN BABEL 3.1.1

>  <MASTER>  (65) 
        0    0    0    0    0    0    0    0   56    0   56    0

>  <minimizedAffinity>  (65) 
-8.14491

>  <CNNscore>  (65) 
0.4175477922

>  <CNNaffinity>  (65) 
4.1600599289

>  <CNN_VS>  (65) 
1.7370238304

>  <CNNaffinity_variance>  (65) 
0.2597687542

$$$$
66
     RDKit          3D

 43 45  0  0  0  0  0  0  0  0999 V2000
   22.5152   72.8709   -3.5689 P   0  0  2  0  0  0  0  0  0  0  0  0
   23.8689   72.8951   -4.4552 O   0  0  0  0  0  0  0  0  0  0  0  0
   22.0315   74.2167   -3.1142 O   0  0  0  0  0  0  0  0  0  0  0  0
   22.8390   71.8069   -2.3938 O   0  0  0  0  0  0  0  0  0  0  0  0
   22.7765   72.2449   -1.0489 C   0  0  0  0  0  0  0  0  0  0  0  0
   21.9608   69.9858   -0.9551 O   0  0  0  0  0  0  0  0  0  0  0  0
   21.5500   70.4532    1.9782 O   0  0  0  0  0  0  0  0  0  0  0  0
   23.8777   69.0338    1.9212 O   0  0  0  0  0  0  0  0  0  0  0  0
   22.5875   70.9339    1.1232 C   0  0  1  0  0  0  0  0  0  0  0  0
   23.5531   69.8161    0.7911 C   0  0  2  0  0  0  0  0  0  0  0  0
   21.9727   71.2382   -0.2361 C   0  0  1  0  0  0  0  0  0  0  0  0
   22.7820   69.0348   -0.2591 C   0  0  2  0  0  0  0  0  0  0  0  0
   21.9188   70.2520    2.8530 H   0  0  0  0  0  0  0  0  0  0  0  0
   24.3677   69.5760    2.5599 H   0  0  0  0  0  0  0  0  0  0  0  0
   23.1220   66.2374   -0.4476 O   0  0  0  0  0  0  0  0  0  0  0  0
   26.1252   66.6529   -3.9193 O   0  0  0  0  0  0  0  0  0  0  0  0
   23.6465   68.3851   -1.2032 N   0  0  0  0  0  0  0  0  0  0  0  0
   24.6182   66.4471   -2.1759 N   0  0  0  0  0  0  0  0  0  0  0  0
   23.7453   66.9736   -1.2147 C   0  0  0  0  0  0  0  0  0  0  0  0
   24.3833   69.1434   -2.1049 C   0  0  0  0  0  0  0  0  0  0  0  0
   25.2111   68.6271   -3.0154 C   0  0  0  0  0  0  0  0  0  0  0  0
   25.3725   67.1604   -3.0934 C   0  0  0  0  0  0  0  0  0  0  0  0
   24.7052   65.4667   -2.2018 H   0  0  0  0  0  0  0  0  0  0  0  0
   21.4781   72.0661   -4.5122 O   0  0  0  0  0  0  0  0  0  0  0  0
   20.1700   71.1899   -4.1453 P   0  0  2  0  0  0  0  0  0  0  0  0
   19.5566   71.9610   -2.8610 O   0  0  0  0  0  0  0  0  0  0  0  0
   20.4492   69.7326   -3.9164 O   0  0  0  0  0  0  0  0  0  0  0  0
   19.1270   71.4924   -5.3382 O   0  0  0  0  0  0  0  0  0  0  0  0
   17.0787   70.6322   -4.5173 O   0  0  0  0  0  0  0  0  0  0  0  0
   15.8763   72.4713   -8.0159 O   0  0  0  0  0  0  0  0  0  0  0  0
   18.3384   70.9007   -7.9390 O   0  0  0  0  0  0  0  0  0  0  0  0
   15.3373   73.7244   -5.4488 O   0  0  0  0  0  0  0  0  0  0  0  0
   16.6758   72.2899   -6.8472 C   0  0  2  0  0  0  0  0  0  0  0  0
   17.3625   70.9251   -6.9037 C   0  0  2  0  0  0  0  0  0  0  0  0
   15.7555   72.3725   -5.6272 C   0  0  1  0  0  0  0  0  0  0  0  0
   18.0405   70.5982   -5.5724 C   0  0  1  0  0  0  0  0  0  0  0  0
   16.4685   71.9112   -4.3594 C   0  0  1  0  0  0  0  0  0  0  0  0
   16.4398   72.4226   -8.8041 H   0  0  0  0  0  0  0  0  0  0  0  0
   17.9151   71.1075   -8.7866 H   0  0  0  0  0  0  0  0  0  0  0  0
   14.8822   74.0304   -6.2489 H   0  0  0  0  0  0  0  0  0  0  0  0
   15.6909   70.4694   -2.6806 O   0  0  0  0  0  0  0  0  0  0  0  0
   14.6258   72.4728   -2.9066 O   0  0  0  0  0  0  0  0  0  0  0  0
   15.4898   71.6817   -3.2541 C   0  0  0  0  0  0  0  0  0  0  0  0
  1  4  1  0
  1 24  1  0
  1  2  1  6
  1  3  2  0
 25 28  1  0
 25 24  1  0
 25 26  1  1
 25 27  2  0
  6 11  1  0
  6 12  1  0
 29 36  1  0
 29 37  1  0
  9  7  1  1
  7 13  1  0
 10  8  1  1
  8 14  1  0
  4  5  1  0
 36 28  1  1
 33 30  1  6
 30 38  1  0
 34 31  1  6
 31 39  1  0
 35 32  1  1
 32 40  1  0
 41 43  1  0
 15 19  2  0
 42 43  2  0
 16 22  2  0
 12 17  1  6
 17 19  1  0
 17 20  1  0
 18 19  1  0
 18 22  1  0
 18 23  1  0
  9 10  1  0
  9 11  1  0
 10 12  1  0
 11  5  1  6
 33 34  1  0
 33 35  1  0
 34 36  1  0
 35 37  1  0
 37 43  1  1
 20 21  2  0
 21 22  1  0
M  CHG  3   2  -1  26  -1  41  -1
M  END
>  <COMPND>  (66) 
    udp_gluA.pdb 

>  <AUTHOR>  (66) 
    GENERATED BY OPEN BABEL 3.1.1

>  <MASTER>  (66) 
        0    0    0    0    0    0    0    0   56    0   56    0

>  <minimizedAffinity>  (66) 
-8.51070

>  <CNNscore>  (66) 
0.4039618075

>  <CNNaffinity>  (66) 
4.2296156883

>  <CNN_VS>  (66) 
1.7086031437

>  <CNNaffinity_variance>  (66) 
0.4774964452

$$$$
67
     RDKit          3D

 43 45  0  0  0  0  0  0  0  0999 V2000
   17.3964   69.5932   -3.5848 P   0  0  2  0  0  0  0  0  0  0  0  0
   17.4133   68.3720   -2.5231 O   0  0  0  0  0  0  0  0  0  0  0  0
   16.4223   69.4364   -4.7154 O   0  0  0  0  0  0  0  0  0  0  0  0
   18.9483   69.7579   -4.0122 O   0  0  0  0  0  0  0  0  0  0  0  0
   19.6623   70.8872   -3.5439 C   0  0  0  0  0  0  0  0  0  0  0  0
   21.5488   71.4265   -2.1554 O   0  0  0  0  0  0  0  0  0  0  0  0
   22.3422   68.5484   -2.4364 O   0  0  0  0  0  0  0  0  0  0  0  0
   21.1946   68.6114    0.0364 O   0  0  0  0  0  0  0  0  0  0  0  0
   21.0380   69.1206   -2.3360 C   0  0  1  0  0  0  0  0  0  0  0  0
   20.7688   69.5652   -0.9140 C   0  0  2  0  0  0  0  0  0  0  0  0
   21.0466   70.4446   -3.0876 C   0  0  1  0  0  0  0  0  0  0  0  0
   21.5565   70.8618   -0.8346 C   0  0  2  0  0  0  0  0  0  0  0  0
   22.3614   67.7013   -1.9635 H   0  0  0  0  0  0  0  0  0  0  0  0
   20.6628   67.8046   -0.0545 H   0  0  0  0  0  0  0  0  0  0  0  0
   21.9843   70.8505    1.9571 O   0  0  0  0  0  0  0  0  0  0  0  0
   19.2641   74.5199    2.5729 O   0  0  0  0  0  0  0  0  0  0  0  0
   20.9724   71.8028    0.0789 N   0  0  0  0  0  0  0  0  0  0  0  0
   20.6283   72.6775    2.2612 N   0  0  0  0  0  0  0  0  0  0  0  0
   21.2516   71.7094    1.4629 C   0  0  0  0  0  0  0  0  0  0  0  0
   20.1355   72.8043   -0.3980 C   0  0  0  0  0  0  0  0  0  0  0  0
   19.5488   73.7201    0.3753 C   0  0  0  0  0  0  0  0  0  0  0  0
   19.7877   73.6923    1.8333 C   0  0  0  0  0  0  0  0  0  0  0  0
   20.8059   72.6315    3.2285 H   0  0  0  0  0  0  0  0  0  0  0  0
   17.1385   70.8850   -2.6480 O   0  0  0  0  0  0  0  0  0  0  0  0
   15.8139   71.7835   -2.4202 P   0  0  2  0  0  0  0  0  0  0  0  0
   16.3344   72.9705   -1.4505 O   0  0  0  0  0  0  0  0  0  0  0  0
   14.6364   71.0203   -1.8863 O   0  0  0  0  0  0  0  0  0  0  0  0
   15.5573   72.5019   -3.8416 O   0  0  0  0  0  0  0  0  0  0  0  0
   17.5135   73.0988   -5.0358 O   0  0  0  0  0  0  0  0  0  0  0  0
   14.5811   75.0452   -7.1993 O   0  0  0  0  0  0  0  0  0  0  0  0
   14.5101   75.0413   -4.2788 O   0  0  0  0  0  0  0  0  0  0  0  0
   15.7833   72.6091   -8.2341 O   0  0  0  0  0  0  0  0  0  0  0  0
   15.1278   74.0079   -6.3851 C   0  0  2  0  0  0  0  0  0  0  0  0
   15.6131   74.5985   -5.0610 C   0  0  2  0  0  0  0  0  0  0  0  0
   16.2956   73.3755   -7.1456 C   0  0  1  0  0  0  0  0  0  0  0  0
   16.4090   73.5666   -4.2607 C   0  0  1  0  0  0  0  0  0  0  0  0
   17.1147   72.4560   -6.2444 C   0  0  1  0  0  0  0  0  0  0  0  0
   13.8372   75.4618   -6.7363 H   0  0  0  0  0  0  0  0  0  0  0  0
   14.0005   75.6961   -4.7806 H   0  0  0  0  0  0  0  0  0  0  0  0
   15.2598   73.1826   -8.8153 H   0  0  0  0  0  0  0  0  0  0  0  0
   19.2037   73.2085   -7.0003 O   0  0  0  0  0  0  0  0  0  0  0  0
   18.7421   70.9903   -7.2566 O   0  0  0  0  0  0  0  0  0  0  0  0
   18.4186   72.1087   -6.8858 C   0  0  0  0  0  0  0  0  0  0  0  0
  1  4  1  0
  1 24  1  0
  1  2  1  1
  1  3  2  0
 25 28  1  0
 25 24  1  0
 25 26  1  1
 25 27  2  0
  6 11  1  0
  6 12  1  0
 29 36  1  0
 29 37  1  0
  9  7  1  1
  7 13  1  0
 10  8  1  1
  8 14  1  0
  4  5  1  0
 36 28  1  6
 33 30  1  6
 30 38  1  0
 34 31  1  1
 31 39  1  0
 35 32  1  6
 32 40  1  0
 41 43  1  0
 15 19  2  0
 42 43  2  0
 16 22  2  0
 12 17  1  1
 17 19  1  0
 17 20  1  0
 18 19  1  0
 18 22  1  0
 18 23  1  0
  9 10  1  0
  9 11  1  0
 10 12  1  0
 11  5  1  1
 33 34  1  0
 33 35  1  0
 34 36  1  0
 35 37  1  0
 37 43  1  6
 20 21  2  0
 21 22  1  0
M  CHG  3   2  -1  26  -1  41  -1
M  END
>  <COMPND>  (67) 
    udp_gluA.pdb 

>  <AUTHOR>  (67) 
    GENERATED BY OPEN BABEL 3.1.1

>  <MASTER>  (67) 
        0    0    0    0    0    0    0    0   56    0   56    0

>  <minimizedAffinity>  (67) 
-6.88807

>  <CNNscore>  (67) 
0.3936019838

>  <CNNaffinity>  (67) 
4.1196618080

>  <CNN_VS>  (67) 
1.6215070486

>  <CNNaffinity_variance>  (67) 
0.1068345532

$$$$
68
     RDKit          3D

 43 45  0  0  0  0  0  0  0  0999 V2000
   22.4898   73.2769   -3.9493 P   0  0  2  0  0  0  0  0  0  0  0  0
   23.8293   72.3811   -4.0976 O   0  0  0  0  0  0  0  0  0  0  0  0
   22.6702   74.7386   -4.2367 O   0  0  0  0  0  0  0  0  0  0  0  0
   21.9414   72.9140   -2.4710 O   0  0  0  0  0  0  0  0  0  0  0  0
   22.7561   72.1265   -1.6221 C   0  0  0  0  0  0  0  0  0  0  0  0
   22.0080   69.8426   -1.5742 O   0  0  0  0  0  0  0  0  0  0  0  0
   21.1863   70.3663    1.2616 O   0  0  0  0  0  0  0  0  0  0  0  0
   23.5443   69.0299    1.5617 O   0  0  0  0  0  0  0  0  0  0  0  0
   22.3147   70.8628    0.5415 C   0  0  1  0  0  0  0  0  0  0  0  0
   23.3519   69.7724    0.3758 C   0  0  2  0  0  0  0  0  0  0  0  0
   21.8816   71.1117   -0.8969 C   0  0  1  0  0  0  0  0  0  0  0  0
   22.7567   68.9388   -0.7461 C   0  0  2  0  0  0  0  0  0  0  0  0
   21.4386   70.1997    2.1837 H   0  0  0  0  0  0  0  0  0  0  0  0
   23.9250   69.6046    2.2448 H   0  0  0  0  0  0  0  0  0  0  0  0
   23.3379   66.1762   -0.6630 O   0  0  0  0  0  0  0  0  0  0  0  0
   26.6359   66.5881   -3.8564 O   0  0  0  0  0  0  0  0  0  0  0  0
   23.7623   68.2976   -1.5452 N   0  0  0  0  0  0  0  0  0  0  0  0
   24.9806   66.3841   -2.2529 N   0  0  0  0  0  0  0  0  0  0  0  0
   23.9749   66.9036   -1.4272 C   0  0  0  0  0  0  0  0  0  0  0  0
   24.5237   69.0466   -2.4341 C   0  0  0  0  0  0  0  0  0  0  0  0
   25.4788   68.5373   -3.2146 C   0  0  0  0  0  0  0  0  0  0  0  0
   25.7646   67.0889   -3.1519 C   0  0  0  0  0  0  0  0  0  0  0  0
   25.1483   65.4162   -2.1869 H   0  0  0  0  0  0  0  0  0  0  0  0
   21.4403   72.5241   -4.9212 O   0  0  0  0  0  0  0  0  0  0  0  0
   19.9687   72.9564   -5.4323 P   0  0  2  0  0  0  0  0  0  0  0  0
   20.0573   72.7463   -7.0349 O   0  0  0  0  0  0  0  0  0  0  0  0
   19.5514   74.3358   -5.0116 O   0  0  0  0  0  0  0  0  0  0  0  0
   18.9947   71.7768   -4.9202 O   0  0  0  0  0  0  0  0  0  0  0  0
   17.8141   71.7291   -2.8676 O   0  0  0  0  0  0  0  0  0  0  0  0
   18.2467   67.7021   -3.6825 O   0  0  0  0  0  0  0  0  0  0  0  0
   20.4638   69.5504   -4.1323 O   0  0  0  0  0  0  0  0  0  0  0  0
   15.6803   69.0056   -4.0889 O   0  0  0  0  0  0  0  0  0  0  0  0
   18.0865   69.0854   -3.9968 C   0  0  2  0  0  0  0  0  0  0  0  0
   19.2673   69.8778   -3.4352 C   0  0  2  0  0  0  0  0  0  0  0  0
   16.7764   69.5647   -3.3676 C   0  0  1  0  0  0  0  0  0  0  0  0
   19.0201   71.3827   -3.5496 C   0  0  1  0  0  0  0  0  0  0  0  0
   16.6624   71.0858   -3.4088 C   0  0  1  0  0  0  0  0  0  0  0  0
   19.0730   67.3753   -4.0721 H   0  0  0  0  0  0  0  0  0  0  0  0
   20.6266   68.5969   -4.0641 H   0  0  0  0  0  0  0  0  0  0  0  0
   15.7410   68.0377   -4.0705 H   0  0  0  0  0  0  0  0  0  0  0  0
   15.5194   72.9148   -2.4870 O   0  0  0  0  0  0  0  0  0  0  0  0
   14.8010   70.8335   -1.8946 O   0  0  0  0  0  0  0  0  0  0  0  0
   15.5626   71.5598   -2.5155 C   0  0  0  0  0  0  0  0  0  0  0  0
  1  4  1  0
  1 24  1  0
  1  2  1  1
  1  3  2  0
 25 28  1  0
 25 24  1  0
 25 26  1  6
 25 27  2  0
  6 11  1  0
  6 12  1  0
 29 36  1  0
 29 37  1  0
  9  7  1  1
  7 13  1  0
 10  8  1  1
  8 14  1  0
  4  5  1  0
 36 28  1  6
 33 30  1  1
 30 38  1  0
 34 31  1  6
 31 39  1  0
 35 32  1  6
 32 40  1  0
 41 43  1  0
 15 19  2  0
 42 43  2  0
 16 22  2  0
 12 17  1  6
 17 19  1  0
 17 20  1  0
 18 19  1  0
 18 22  1  0
 18 23  1  0
  9 10  1  0
  9 11  1  0
 10 12  1  0
 11  5  1  6
 33 34  1  0
 33 35  1  0
 34 36  1  0
 35 37  1  0
 37 43  1  1
 20 21  2  0
 21 22  1  0
M  CHG  3   2  -1  26  -1  41  -1
M  END
>  <COMPND>  (68) 
    udp_gluA.pdb 

>  <AUTHOR>  (68) 
    GENERATED BY OPEN BABEL 3.1.1

>  <MASTER>  (68) 
        0    0    0    0    0    0    0    0   56    0   56    0

>  <minimizedAffinity>  (68) 
-8.45565

>  <CNNscore>  (68) 
0.3403704464

>  <CNNaffinity>  (68) 
4.1412134171

>  <CNN_VS>  (68) 
1.4095466137

>  <CNNaffinity_variance>  (68) 
0.9054045677

$$$$
69
     RDKit          3D

 43 45  0  0  0  0  0  0  0  0999 V2000
   20.0778   74.6088   -2.0184 P   0  0  2  0  0  0  0  0  0  0  0  0
   20.8643   75.8711   -2.6561 O   0  0  0  0  0  0  0  0  0  0  0  0
   19.5052   74.8439   -0.6514 O   0  0  0  0  0  0  0  0  0  0  0  0
   21.1368   73.3912   -2.1367 O   0  0  0  0  0  0  0  0  0  0  0  0
   20.6406   72.0811   -2.3417 C   0  0  0  0  0  0  0  0  0  0  0  0
   22.6769   71.5172   -1.1957 O   0  0  0  0  0  0  0  0  0  0  0  0
   22.3609   68.7769   -2.3713 O   0  0  0  0  0  0  0  0  0  0  0  0
   21.4687   68.4360    0.1829 O   0  0  0  0  0  0  0  0  0  0  0  0
   21.3593   69.6803   -1.9032 C   0  0  1  0  0  0  0  0  0  0  0  0
   21.3571   69.7222   -0.3898 C   0  0  2  0  0  0  0  0  0  0  0  0
   21.7979   71.0939   -2.2604 C   0  0  1  0  0  0  0  0  0  0  0  0
   22.5624   70.5993   -0.0968 C   0  0  2  0  0  0  0  0  0  0  0  0
   22.1027   67.8669   -2.1545 H   0  0  0  0  0  0  0  0  0  0  0  0
   20.6773   67.9168   -0.0318 H   0  0  0  0  0  0  0  0  0  0  0  0
   23.5467   69.7630    2.4149 O   0  0  0  0  0  0  0  0  0  0  0  0
   21.9367   73.5406    4.5081 O   0  0  0  0  0  0  0  0  0  0  0  0
   22.4145   71.3449    1.1210 N   0  0  0  0  0  0  0  0  0  0  0  0
   22.7430   71.6448    3.4552 N   0  0  0  0  0  0  0  0  0  0  0  0
   22.9459   70.8357    2.3295 C   0  0  0  0  0  0  0  0  0  0  0  0
   21.7512   72.5660    1.1104 C   0  0  0  0  0  0  0  0  0  0  0  0
   21.5658   73.3259    2.1915 C   0  0  0  0  0  0  0  0  0  0  0  0
   22.0895   72.8658    3.4944 C   0  0  0  0  0  0  0  0  0  0  0  0
   23.1023   71.3101    4.3086 H   0  0  0  0  0  0  0  0  0  0  0  0
   18.9845   74.2511   -3.1540 O   0  0  0  0  0  0  0  0  0  0  0  0
   17.3697   74.2021   -3.0947 P   0  0  2  0  0  0  0  0  0  0  0  0
   16.9337   75.6418   -3.6925 O   0  0  0  0  0  0  0  0  0  0  0  0
   16.8122   73.9034   -1.7331 O   0  0  0  0  0  0  0  0  0  0  0  0
   16.9501   73.1429   -4.2369 O   0  0  0  0  0  0  0  0  0  0  0  0
   18.2153   71.1446   -4.3591 O   0  0  0  0  0  0  0  0  0  0  0  0
   16.1329   71.0405   -7.9257 O   0  0  0  0  0  0  0  0  0  0  0  0
   17.3040   73.5393   -6.9671 O   0  0  0  0  0  0  0  0  0  0  0  0
   15.3300   69.3296   -5.7168 O   0  0  0  0  0  0  0  0  0  0  0  0
   16.3437   71.3510   -6.5484 C   0  0  2  0  0  0  0  0  0  0  0  0
   17.5674   72.2570   -6.4095 C   0  0  2  0  0  0  0  0  0  0  0  0
   16.5660   70.0371   -5.7960 C   0  0  1  0  0  0  0  0  0  0  0  0
   17.9609   72.4237   -4.9411 C   0  0  1  0  0  0  0  0  0  0  0  0
   17.0774   70.2856   -4.3800 C   0  0  1  0  0  0  0  0  0  0  0  0
   15.9893   71.8606   -8.4239 H   0  0  0  0  0  0  0  0  0  0  0  0
   17.0535   73.4410   -7.8987 H   0  0  0  0  0  0  0  0  0  0  0  0
   14.9936   69.1652   -6.6116 H   0  0  0  0  0  0  0  0  0  0  0  0
   18.9125   68.8582   -4.0696 O   0  0  0  0  0  0  0  0  0  0  0  0
   16.9407   68.2422   -3.1043 O   0  0  0  0  0  0  0  0  0  0  0  0
   17.5991   69.0229   -3.7751 C   0  0  0  0  0  0  0  0  0  0  0  0
  1  4  1  0
  1 24  1  0
  1  2  1  6
  1  3  2  0
 25 28  1  0
 25 24  1  0
 25 26  1  6
 25 27  2  0
  6 11  1  0
  6 12  1  0
 29 36  1  0
 29 37  1  0
  9  7  1  1
  7 13  1  0
 10  8  1  1
  8 14  1  0
  4  5  1  0
 36 28  1  1
 33 30  1  6
 30 38  1  0
 34 31  1  1
 31 39  1  0
 35 32  1  1
 32 40  1  0
 41 43  1  0
 15 19  2  0
 42 43  2  0
 16 22  2  0
 12 17  1  1
 17 19  1  0
 17 20  1  0
 18 19  1  0
 18 22  1  0
 18 23  1  0
  9 10  1  0
  9 11  1  0
 10 12  1  0
 11  5  1  1
 33 34  1  0
 33 35  1  0
 34 36  1  0
 35 37  1  0
 37 43  1  6
 20 21  2  0
 21 22  1  0
M  CHG  3   2  -1  26  -1  41  -1
M  END
>  <COMPND>  (69) 
    udp_gluA.pdb 

>  <AUTHOR>  (69) 
    GENERATED BY OPEN BABEL 3.1.1

>  <MASTER>  (69) 
        0    0    0    0    0    0    0    0   56    0   56    0

>  <minimizedAffinity>  (69) 
-7.18508

>  <CNNscore>  (69) 
0.3381958604

>  <CNNaffinity>  (69) 
4.0161705017

>  <CNN_VS>  (69) 
1.3582522869

>  <CNNaffinity_variance>  (69) 
0.2721616328

$$$$
70
     RDKit          3D

 43 45  0  0  0  0  0  0  0  0999 V2000
   23.4061   69.7115   -2.4528 P   0  0  2  0  0  0  0  0  0  0  0  0
   24.7994   68.9689   -2.8080 O   0  0  0  0  0  0  0  0  0  0  0  0
   22.1691   68.9267   -2.7777 O   0  0  0  0  0  0  0  0  0  0  0  0
   23.5365   71.1508   -3.1804 O   0  0  0  0  0  0  0  0  0  0  0  0
   22.3557   71.7926   -3.6258 C   0  0  0  0  0  0  0  0  0  0  0  0
   22.7461   72.9248   -5.7099 O   0  0  0  0  0  0  0  0  0  0  0  0
   22.3759   75.4766   -4.1792 O   0  0  0  0  0  0  0  0  0  0  0  0
   19.9673   75.1718   -5.4210 O   0  0  0  0  0  0  0  0  0  0  0  0
   21.7125   74.2224   -4.0191 C   0  0  1  0  0  0  0  0  0  0  0  0
   20.7178   74.0088   -5.1403 C   0  0  2  0  0  0  0  0  0  0  0  0
   22.7275   73.1176   -4.2789 C   0  0  1  0  0  0  0  0  0  0  0  0
   21.6225   73.6046   -6.2919 C   0  0  2  0  0  0  0  0  0  0  0  0
   21.7473   76.1981   -4.0182 H   0  0  0  0  0  0  0  0  0  0  0  0
   19.4077   75.3874   -4.6579 H   0  0  0  0  0  0  0  0  0  0  0  0
   19.8213   71.5608   -5.5465 O   0  0  0  0  0  0  0  0  0  0  0  0
   19.1806   70.2768   -9.9265 O   0  0  0  0  0  0  0  0  0  0  0  0
   20.9705   72.7215   -7.2171 N   0  0  0  0  0  0  0  0  0  0  0  0
   19.5047   70.9226   -7.7286 N   0  0  0  0  0  0  0  0  0  0  0  0
   20.0835   71.7281   -6.7391 C   0  0  0  0  0  0  0  0  0  0  0  0
   21.2103   72.8451   -8.5802 C   0  0  0  0  0  0  0  0  0  0  0  0
   20.6511   72.0699   -9.5114 C   0  0  0  0  0  0  0  0  0  0  0  0
   19.7128   71.0068   -9.0958 C   0  0  0  0  0  0  0  0  0  0  0  0
   18.8852   70.2224   -7.4199 H   0  0  0  0  0  0  0  0  0  0  0  0
   23.5792   70.0783   -0.8880 O   0  0  0  0  0  0  0  0  0  0  0  0
   22.6614   69.7204    0.3939 P   0  0  2  0  0  0  0  0  0  0  0  0
   23.6902   68.9575    1.3838 O   0  0  0  0  0  0  0  0  0  0  0  0
   21.4235   68.9370    0.0655 O   0  0  0  0  0  0  0  0  0  0  0  0
   22.3855   71.1399    1.1088 O   0  0  0  0  0  0  0  0  0  0  0  0
   23.8777   72.9551    0.8132 O   0  0  0  0  0  0  0  0  0  0  0  0
   21.8231   74.1005    4.2094 O   0  0  0  0  0  0  0  0  0  0  0  0
   22.6908   71.3322    3.8667 O   0  0  0  0  0  0  0  0  0  0  0  0
   21.2272   75.3493    1.6528 O   0  0  0  0  0  0  0  0  0  0  0  0
   21.9954   73.4650    2.9428 C   0  0  2  0  0  0  0  0  0  0  0  0
   23.1036   72.4165    3.0429 C   0  0  2  0  0  0  0  0  0  0  0  0
   22.3711   74.5406    1.9212 C   0  0  1  0  0  0  0  0  0  0  0  0
   23.4742   71.8784    1.6602 C   0  0  1  0  0  0  0  0  0  0  0  0
   22.8492   73.9216    0.6109 C   0  0  1  0  0  0  0  0  0  0  0  0
   21.5838   73.4363    4.8748 H   0  0  0  0  0  0  0  0  0  0  0  0
   22.4539   71.6664    4.7456 H   0  0  0  0  0  0  0  0  0  0  0  0
   20.9128   75.7490    2.4787 H   0  0  0  0  0  0  0  0  0  0  0  0
   23.7208   76.0930    0.4470 O   0  0  0  0  0  0  0  0  0  0  0  0
   23.8383   74.7818   -1.4147 O   0  0  0  0  0  0  0  0  0  0  0  0
   23.5161   74.9465   -0.2477 C   0  0  0  0  0  0  0  0  0  0  0  0
  1  4  1  0
  1 24  1  0
  1  2  1  6
  1  3  2  0
 25 28  1  0
 25 24  1  0
 25 26  1  1
 25 27  2  0
  6 11  1  0
  6 12  1  0
 29 36  1  0
 29 37  1  0
  9  7  1  6
  7 13  1  0
 10  8  1  6
  8 14  1  0
  4  5  1  0
 36 28  1  6
 33 30  1  1
 30 38  1  0
 34 31  1  1
 31 39  1  0
 35 32  1  6
 32 40  1  0
 41 43  1  0
 15 19  2  0
 42 43  2  0
 16 22  2  0
 12 17  1  6
 17 19  1  0
 17 20  1  0
 18 19  1  0
 18 22  1  0
 18 23  1  0
  9 10  1  0
  9 11  1  0
 10 12  1  0
 11  5  1  1
 33 34  1  0
 33 35  1  0
 34 36  1  0
 35 37  1  0
 37 43  1  6
 20 21  2  0
 21 22  1  0
M  CHG  3   2  -1  26  -1  41  -1
M  END
>  <COMPND>  (70) 
    udp_gluA.pdb 

>  <AUTHOR>  (70) 
    GENERATED BY OPEN BABEL 3.1.1

>  <MASTER>  (70) 
        0    0    0    0    0    0    0    0   56    0   56    0

>  <minimizedAffinity>  (70) 
-7.81857

>  <CNNscore>  (70) 
0.3288389146

>  <CNNaffinity>  (70) 
4.0860366821

>  <CNN_VS>  (70) 
1.3436478376

>  <CNNaffinity_variance>  (70) 
0.0633079782

$$$$
71
     RDKit          3D

 43 45  0  0  0  0  0  0  0  0999 V2000
   18.3746   69.7189   -3.5004 P   0  0  2  0  0  0  0  0  0  0  0  0
   17.0168   69.0790   -2.8957 O   0  0  0  0  0  0  0  0  0  0  0  0
   19.3586   68.7230   -4.0404 O   0  0  0  0  0  0  0  0  0  0  0  0
   18.9191   70.6704   -2.3104 O   0  0  0  0  0  0  0  0  0  0  0  0
   20.3105   70.6985   -2.0503 C   0  0  0  0  0  0  0  0  0  0  0  0
   21.2184   68.8476   -0.8143 O   0  0  0  0  0  0  0  0  0  0  0  0
   21.2648   70.6904    1.5508 O   0  0  0  0  0  0  0  0  0  0  0  0
   23.8644   70.7119    0.7275 O   0  0  0  0  0  0  0  0  0  0  0  0
   21.5118   70.9799    0.1746 C   0  0  1  0  0  0  0  0  0  0  0  0
   22.8679   70.4477   -0.2377 C   0  0  2  0  0  0  0  0  0  0  0  0
   20.5672   70.1274   -0.6616 C   0  0  1  0  0  0  0  0  0  0  0  0
   22.5885   68.9631   -0.3985 C   0  0  2  0  0  0  0  0  0  0  0  0
   21.8568   71.2234    2.1050 H   0  0  0  0  0  0  0  0  0  0  0  0
   24.0057   71.6699    0.7924 H   0  0  0  0  0  0  0  0  0  0  0  0
   23.7820   70.3453   -2.5529 O   0  0  0  0  0  0  0  0  0  0  0  0
   25.7976   66.5132   -4.1331 O   0  0  0  0  0  0  0  0  0  0  0  0
   23.4298   68.3511   -1.3877 N   0  0  0  0  0  0  0  0  0  0  0  0
   24.7839   68.4352   -3.3385 N   0  0  0  0  0  0  0  0  0  0  0  0
   23.9795   69.1350   -2.4295 C   0  0  0  0  0  0  0  0  0  0  0  0
   23.7041   66.9906   -1.3192 C   0  0  0  0  0  0  0  0  0  0  0  0
   24.4728   66.3376   -2.1930 C   0  0  0  0  0  0  0  0  0  0  0  0
   25.0851   67.0831   -3.3122 C   0  0  0  0  0  0  0  0  0  0  0  0
   25.1762   68.9594   -4.0738 H   0  0  0  0  0  0  0  0  0  0  0  0
   17.8228   70.7786   -4.5892 O   0  0  0  0  0  0  0  0  0  0  0  0
   17.1773   70.5559   -6.0546 P   0  0  2  0  0  0  0  0  0  0  0  0
   16.0539   71.7179   -6.1445 O   0  0  0  0  0  0  0  0  0  0  0  0
   16.6531   69.1693   -6.2924 O   0  0  0  0  0  0  0  0  0  0  0  0
   18.3286   71.0221   -7.0841 O   0  0  0  0  0  0  0  0  0  0  0  0
   18.8017   73.2780   -6.5399 O   0  0  0  0  0  0  0  0  0  0  0  0
   21.5520   72.5406   -9.5333 O   0  0  0  0  0  0  0  0  0  0  0  0
   18.8087   71.5644   -9.7695 O   0  0  0  0  0  0  0  0  0  0  0  0
   22.4079   72.6371   -6.7567 O   0  0  0  0  0  0  0  0  0  0  0  0
   20.7176   72.2160   -8.4213 C   0  0  2  0  0  0  0  0  0  0  0  0
   19.2566   72.4857   -8.7819 C   0  0  2  0  0  0  0  0  0  0  0  0
   21.1441   73.0893   -7.2392 C   0  0  1  0  0  0  0  0  0  0  0  0
   18.3586   72.3702   -7.5494 C   0  0  1  0  0  0  0  0  0  0  0  0
   20.1323   73.0165   -6.0992 C   0  0  1  0  0  0  0  0  0  0  0  0
   21.2994   71.9978  -10.2967 H   0  0  0  0  0  0  0  0  0  0  0  0
   19.3743   71.6321  -10.5543 H   0  0  0  0  0  0  0  0  0  0  0  0
   23.0609   72.6783   -7.4728 H   0  0  0  0  0  0  0  0  0  0  0  0
   19.2598   74.3397   -4.3703 O   0  0  0  0  0  0  0  0  0  0  0  0
   21.4321   74.7010   -4.9616 O   0  0  0  0  0  0  0  0  0  0  0  0
   20.3757   74.1036   -5.1037 C   0  0  0  0  0  0  0  0  0  0  0  0
  1  4  1  0
  1 24  1  0
  1  2  1  1
  1  3  2  0
 25 28  1  0
 25 24  1  0
 25 26  1  1
 25 27  2  0
  6 11  1  0
  6 12  1  0
 29 36  1  0
 29 37  1  0
  9  7  1  1
  7 13  1  0
 10  8  1  1
  8 14  1  0
  4  5  1  0
 36 28  1  1
 33 30  1  6
 30 38  1  0
 34 31  1  6
 31 39  1  0
 35 32  1  1
 32 40  1  0
 41 43  1  0
 15 19  2  0
 42 43  2  0
 16 22  2  0
 12 17  1  6
 17 19  1  0
 17 20  1  0
 18 19  1  0
 18 22  1  0
 18 23  1  0
  9 10  1  0
  9 11  1  0
 10 12  1  0
 11  5  1  6
 33 34  1  0
 33 35  1  0
 34 36  1  0
 35 37  1  0
 37 43  1  1
 20 21  2  0
 21 22  1  0
M  CHG  3   2  -1  26  -1  41  -1
M  END
>  <COMPND>  (71) 
    udp_gluA.pdb 

>  <AUTHOR>  (71) 
    GENERATED BY OPEN BABEL 3.1.1

>  <MASTER>  (71) 
        0    0    0    0    0    0    0    0   56    0   56    0

>  <minimizedAffinity>  (71) 
-8.70569

>  <CNNscore>  (71) 
0.3116483390

>  <CNNaffinity>  (71) 
4.0274987221

>  <CNN_VS>  (71) 
1.2551633120

>  <CNNaffinity_variance>  (71) 
0.7607907057

$$$$
72
     RDKit          3D

 43 45  0  0  0  0  0  0  0  0999 V2000
   22.4896   73.2411   -3.5155 P   0  0  2  0  0  0  0  0  0  0  0  0
   23.5157   72.8397   -4.7008 O   0  0  0  0  0  0  0  0  0  0  0  0
   22.7211   74.5937   -2.9082 O   0  0  0  0  0  0  0  0  0  0  0  0
   22.5678   71.9893   -2.4933 O   0  0  0  0  0  0  0  0  0  0  0  0
   22.7185   72.2538   -1.1107 C   0  0  0  0  0  0  0  0  0  0  0  0
   21.9240   69.9862   -1.0456 O   0  0  0  0  0  0  0  0  0  0  0  0
   21.4513   70.4322    1.8817 O   0  0  0  0  0  0  0  0  0  0  0  0
   23.7939   69.0364    1.8623 O   0  0  0  0  0  0  0  0  0  0  0  0
   22.5004   70.9283    1.0499 C   0  0  1  0  0  0  0  0  0  0  0  0
   23.4835   69.8221    0.7305 C   0  0  2  0  0  0  0  0  0  0  0  0
   21.9092   71.2343   -0.3195 C   0  0  1  0  0  0  0  0  0  0  0  0
   22.7410   69.0393   -0.3390 C   0  0  2  0  0  0  0  0  0  0  0  0
   21.8050   70.2295    2.7624 H   0  0  0  0  0  0  0  0  0  0  0  0
   24.2659   69.5798    2.5134 H   0  0  0  0  0  0  0  0  0  0  0  0
   23.1530   66.2500   -0.5007 O   0  0  0  0  0  0  0  0  0  0  0  0
   26.1768   66.7123   -3.9484 O   0  0  0  0  0  0  0  0  0  0  0  0
   23.6303   68.4039   -1.2697 N   0  0  0  0  0  0  0  0  0  0  0  0
   24.6594   66.4830   -2.2170 N   0  0  0  0  0  0  0  0  0  0  0  0
   23.7647   66.9953   -1.2683 C   0  0  0  0  0  0  0  0  0  0  0  0
   24.3561   69.1730   -2.1712 C   0  0  0  0  0  0  0  0  0  0  0  0
   25.2050   68.6703   -3.0697 C   0  0  0  0  0  0  0  0  0  0  0  0
   25.4040   67.2075   -3.1337 C   0  0  0  0  0  0  0  0  0  0  0  0
   24.7713   65.5050   -2.2338 H   0  0  0  0  0  0  0  0  0  0  0  0
   21.0420   73.0535   -4.2097 O   0  0  0  0  0  0  0  0  0  0  0  0
   19.5574   73.4192   -3.6842 P   0  0  2  0  0  0  0  0  0  0  0  0
   19.1820   74.7468   -4.5307 O   0  0  0  0  0  0  0  0  0  0  0  0
   19.4546   73.5852   -2.1956 O   0  0  0  0  0  0  0  0  0  0  0  0
   18.6109   72.2650   -4.2961 O   0  0  0  0  0  0  0  0  0  0  0  0
   18.9588   69.9470   -4.6355 O   0  0  0  0  0  0  0  0  0  0  0  0
   16.6397   70.9371   -7.9080 O   0  0  0  0  0  0  0  0  0  0  0  0
   18.8006   72.6994   -7.0367 O   0  0  0  0  0  0  0  0  0  0  0  0
   15.4638   69.5117   -5.6639 O   0  0  0  0  0  0  0  0  0  0  0  0
   17.1015   71.0344   -6.5607 C   0  0  2  0  0  0  0  0  0  0  0  0
   18.5914   71.3774   -6.5539 C   0  0  2  0  0  0  0  0  0  0  0  0
   16.8629   69.6845   -5.8804 C   0  0  1  0  0  0  0  0  0  0  0  0
   19.1723   71.2644   -5.1437 C   0  0  1  0  0  0  0  0  0  0  0  0
   17.5783   69.6046   -4.5349 C   0  0  1  0  0  0  0  0  0  0  0  0
   16.7811   71.7837   -8.3604 H   0  0  0  0  0  0  0  0  0  0  0  0
   18.4342   72.7783   -7.9311 H   0  0  0  0  0  0  0  0  0  0  0  0
   14.9967   69.5606   -6.5126 H   0  0  0  0  0  0  0  0  0  0  0  0
   16.3665   67.6764   -3.9734 O   0  0  0  0  0  0  0  0  0  0  0  0
   18.6321   67.5883   -3.7315 O   0  0  0  0  0  0  0  0  0  0  0  0
   17.6174   68.1962   -4.0377 C   0  0  0  0  0  0  0  0  0  0  0  0
  1  4  1  0
  1 24  1  0
  1  2  1  6
  1  3  2  0
 25 28  1  0
 25 24  1  0
 25 26  1  6
 25 27  2  0
  6 11  1  0
  6 12  1  0
 29 36  1  0
 29 37  1  0
  9  7  1  1
  7 13  1  0
 10  8  1  1
  8 14  1  0
  4  5  1  0
 36 28  1  1
 33 30  1  6
 30 38  1  0
 34 31  1  1
 31 39  1  0
 35 32  1  1
 32 40  1  0
 41 43  1  0
 15 19  2  0
 42 43  2  0
 16 22  2  0
 12 17  1  6
 17 19  1  0
 17 20  1  0
 18 19  1  0
 18 22  1  0
 18 23  1  0
  9 10  1  0
  9 11  1  0
 10 12  1  0
 11  5  1  6
 33 34  1  0
 33 35  1  0
 34 36  1  0
 35 37  1  0
 37 43  1  6
 20 21  2  0
 21 22  1  0
M  CHG  3   2  -1  26  -1  41  -1
M  END
>  <COMPND>  (72) 
    udp_gluA.pdb 

>  <AUTHOR>  (72) 
    GENERATED BY OPEN BABEL 3.1.1

>  <MASTER>  (72) 
        0    0    0    0    0    0    0    0   56    0   56    0

>  <minimizedAffinity>  (72) 
-8.75564

>  <CNNscore>  (72) 
0.2855661213

>  <CNNaffinity>  (72) 
4.0741219521

>  <CNN_VS>  (72) 
1.1634311676

>  <CNNaffinity_variance>  (72) 
0.9435095787

$$$$
73
     RDKit          3D

 43 45  0  0  0  0  0  0  0  0999 V2000
   22.8275   73.9326   -3.7975 P   0  0  2  0  0  0  0  0  0  0  0  0
   24.1335   73.1149   -4.2921 O   0  0  0  0  0  0  0  0  0  0  0  0
   23.0114   75.4183   -3.6949 O   0  0  0  0  0  0  0  0  0  0  0  0
   22.3938   73.1823   -2.4312 O   0  0  0  0  0  0  0  0  0  0  0  0
   21.5631   72.0393   -2.5219 C   0  0  0  0  0  0  0  0  0  0  0  0
   23.2451   70.9993   -1.1555 O   0  0  0  0  0  0  0  0  0  0  0  0
   22.3718   68.4055   -2.3808 O   0  0  0  0  0  0  0  0  0  0  0  0
   21.1412   68.3593    0.0523 O   0  0  0  0  0  0  0  0  0  0  0  0
   21.5890   69.5447   -2.0230 C   0  0  1  0  0  0  0  0  0  0  0  0
   21.4278   69.6186   -0.5194 C   0  0  2  0  0  0  0  0  0  0  0  0
   22.4123   70.7914   -2.3167 C   0  0  1  0  0  0  0  0  0  0  0  0
   22.7768   70.1651   -0.0840 C   0  0  2  0  0  0  0  0  0  0  0  0
   21.8666   67.5965   -2.2019 H   0  0  0  0  0  0  0  0  0  0  0  0
   20.2725   68.0548   -0.2553 H   0  0  0  0  0  0  0  0  0  0  0  0
   23.6905   69.3148    2.4495 O   0  0  0  0  0  0  0  0  0  0  0  0
   22.3886   73.2600    4.4457 O   0  0  0  0  0  0  0  0  0  0  0  0
   22.6890   70.9500    1.1147 N   0  0  0  0  0  0  0  0  0  0  0  0
   23.0403   71.2802    3.4415 N   0  0  0  0  0  0  0  0  0  0  0  0
   23.1777   70.4298    2.3365 C   0  0  0  0  0  0  0  0  0  0  0  0
   22.1259   72.2197    1.0727 C   0  0  0  0  0  0  0  0  0  0  0  0
   22.0019   73.0186    2.1344 C   0  0  0  0  0  0  0  0  0  0  0  0
   22.4868   72.5503    3.4493 C   0  0  0  0  0  0  0  0  0  0  0  0
   23.3715   70.9390    4.3036 H   0  0  0  0  0  0  0  0  0  0  0  0
   21.6888   73.4659   -4.8456 O   0  0  0  0  0  0  0  0  0  0  0  0
   21.2836   74.0442   -6.2999 P   0  0  2  0  0  0  0  0  0  0  0  0
   22.5655   73.6727   -7.2159 O   0  0  0  0  0  0  0  0  0  0  0  0
   20.9219   75.5013   -6.3043 O   0  0  0  0  0  0  0  0  0  0  0  0
   20.1137   73.0624   -6.8194 O   0  0  0  0  0  0  0  0  0  0  0  0
   19.3477   71.0527   -5.8276 O   0  0  0  0  0  0  0  0  0  0  0  0
   18.5841   70.3601   -9.8282 O   0  0  0  0  0  0  0  0  0  0  0  0
   21.0820   71.6250   -8.9948 O   0  0  0  0  0  0  0  0  0  0  0  0
   16.4059   71.0212   -8.0200 O   0  0  0  0  0  0  0  0  0  0  0  0
   18.7289   71.1479   -8.6465 C   0  0  2  0  0  0  0  0  0  0  0  0
   20.1538   71.0084   -8.1100 C   0  0  2  0  0  0  0  0  0  0  0  0
   17.7194   70.6415   -7.6139 C   0  0  1  0  0  0  0  0  0  0  0  0
   20.2828   71.6490   -6.7273 C   0  0  1  0  0  0  0  0  0  0  0  0
   17.9922   71.2303   -6.2328 C   0  0  1  0  0  0  0  0  0  0  0  0
   19.2159   70.6638  -10.4990 H   0  0  0  0  0  0  0  0  0  0  0  0
   21.0054   71.2236   -9.8742 H   0  0  0  0  0  0  0  0  0  0  0  0
   16.2197   70.6529   -8.8978 H   0  0  0  0  0  0  0  0  0  0  0  0
   15.9699   70.9857   -5.0701 O   0  0  0  0  0  0  0  0  0  0  0  0
   17.6685   69.5708   -4.5116 O   0  0  0  0  0  0  0  0  0  0  0  0
   17.2284   70.4931   -5.1815 C   0  0  0  0  0  0  0  0  0  0  0  0
  1  4  1  0
  1 24  1  0
  1  2  1  6
  1  3  2  0
 25 28  1  0
 25 24  1  0
 25 26  1  6
 25 27  2  0
  6 11  1  0
  6 12  1  0
 29 36  1  0
 29 37  1  0
  9  7  1  1
  7 13  1  0
 10  8  1  1
  8 14  1  0
  4  5  1  0
 36 28  1  6
 33 30  1  6
 30 38  1  0
 34 31  1  6
 31 39  1  0
 35 32  1  6
 32 40  1  0
 41 43  1  0
 15 19  2  0
 42 43  2  0
 16 22  2  0
 12 17  1  1
 17 19  1  0
 17 20  1  0
 18 19  1  0
 18 22  1  0
 18 23  1  0
  9 10  1  0
  9 11  1  0
 10 12  1  0
 11  5  1  1
 33 34  1  0
 33 35  1  0
 34 36  1  0
 35 37  1  0
 37 43  1  1
 20 21  2  0
 21 22  1  0
M  CHG  3   2  -1  26  -1  41  -1
M  END
>  <COMPND>  (73) 
    udp_gluA.pdb 

>  <AUTHOR>  (73) 
    GENERATED BY OPEN BABEL 3.1.1

>  <MASTER>  (73) 
        0    0    0    0    0    0    0    0   56    0   56    0

>  <minimizedAffinity>  (73) 
-8.46469

>  <CNNscore>  (73) 
0.2836901248

>  <CNNaffinity>  (73) 
4.0627355576

>  <CNN_VS>  (73) 
1.1525579691

>  <CNNaffinity_variance>  (73) 
0.2218972147

$$$$
74
     RDKit          3D

 43 45  0  0  0  0  0  0  0  0999 V2000
   22.6498   73.0137   -4.1002 P   0  0  2  0  0  0  0  0  0  0  0  0
   22.4912   72.8369   -5.7010 O   0  0  0  0  0  0  0  0  0  0  0  0
   23.1261   74.3657   -3.6562 O   0  0  0  0  0  0  0  0  0  0  0  0
   23.5775   71.7629   -3.6612 O   0  0  0  0  0  0  0  0  0  0  0  0
   22.9589   70.6413   -3.0580 C   0  0  0  0  0  0  0  0  0  0  0  0
   24.5627   70.2522   -1.3103 O   0  0  0  0  0  0  0  0  0  0  0  0
   24.6024   67.4005   -2.2365 O   0  0  0  0  0  0  0  0  0  0  0  0
   22.9926   67.2907   -0.0383 O   0  0  0  0  0  0  0  0  0  0  0  0
   23.5094   68.3174   -2.1809 C   0  0  1  0  0  0  0  0  0  0  0  0
   23.0589   68.5097   -0.7483 C   0  0  2  0  0  0  0  0  0  0  0  0
   24.0376   69.7003   -2.5371 C   0  0  1  0  0  0  0  0  0  0  0  0
   24.1255   69.4454   -0.2053 C   0  0  2  0  0  0  0  0  0  0  0  0
   24.2893   66.5097   -2.0126 H   0  0  0  0  0  0  0  0  0  0  0  0
   22.2991   66.7305   -0.4219 H   0  0  0  0  0  0  0  0  0  0  0  0
   24.1204   68.7935    2.5428 O   0  0  0  0  0  0  0  0  0  0  0  0
   22.1809   72.8169    3.6805 O   0  0  0  0  0  0  0  0  0  0  0  0
   23.6252   70.3042    0.8307 N   0  0  0  0  0  0  0  0  0  0  0  0
   23.1535   70.7976    3.1067 N   0  0  0  0  0  0  0  0  0  0  0  0
   23.6688   69.8814    2.1803 C   0  0  0  0  0  0  0  0  0  0  0  0
   23.1007   71.5494    0.5062 C   0  0  0  0  0  0  0  0  0  0  0  0
   22.6133   72.4118    1.4004 C   0  0  0  0  0  0  0  0  0  0  0  0
   22.6210   72.0469    2.8322 C   0  0  0  0  0  0  0  0  0  0  0  0
   23.1713   70.5247    4.0525 H   0  0  0  0  0  0  0  0  0  0  0  0
   21.1908   72.5973   -3.5428 O   0  0  0  0  0  0  0  0  0  0  0  0
   19.7575   73.3351   -3.6653 P   0  0  2  0  0  0  0  0  0  0  0  0
   20.0057   74.4349   -4.8269 O   0  0  0  0  0  0  0  0  0  0  0  0
   19.2456   73.9044   -2.3738 O   0  0  0  0  0  0  0  0  0  0  0  0
   18.7889   72.2378   -4.3437 O   0  0  0  0  0  0  0  0  0  0  0  0
   18.8396   69.8700   -4.3421 O   0  0  0  0  0  0  0  0  0  0  0  0
   17.4066   70.6776   -8.1319 O   0  0  0  0  0  0  0  0  0  0  0  0
   19.5912   72.2577   -7.0068 O   0  0  0  0  0  0  0  0  0  0  0  0
   15.5989   69.7394   -6.0576 O   0  0  0  0  0  0  0  0  0  0  0  0
   17.5968   70.9031   -6.7351 C   0  0  2  0  0  0  0  0  0  0  0  0
   19.0893   71.0531   -6.4395 C   0  0  2  0  0  0  0  0  0  0  0  0
   17.0226   69.7024   -5.9797 C   0  0  1  0  0  0  0  0  0  0  0  0
   19.3500   71.0659   -4.9326 C   0  0  1  0  0  0  0  0  0  0  0  0
   17.4314   69.7217   -4.5097 C   0  0  1  0  0  0  0  0  0  0  0  0
   17.7640   71.4280   -8.6323 H   0  0  0  0  0  0  0  0  0  0  0  0
   19.4289   72.2564   -7.9629 H   0  0  0  0  0  0  0  0  0  0  0  0
   15.3255   69.7277   -6.9882 H   0  0  0  0  0  0  0  0  0  0  0  0
   17.9383   68.2300   -2.7721 O   0  0  0  0  0  0  0  0  0  0  0  0
   16.3330   67.5882   -4.2588 O   0  0  0  0  0  0  0  0  0  0  0  0
   17.1538   68.4030   -3.8645 C   0  0  0  0  0  0  0  0  0  0  0  0
  1  4  1  0
  1 24  1  0
  1  2  1  6
  1  3  2  0
 25 28  1  0
 25 24  1  0
 25 26  1  6
 25 27  2  0
  6 11  1  0
  6 12  1  0
 29 36  1  0
 29 37  1  0
  9  7  1  1
  7 13  1  0
 10  8  1  1
  8 14  1  0
  4  5  1  0
 36 28  1  1
 33 30  1  6
 30 38  1  0
 34 31  1  1
 31 39  1  0
 35 32  1  1
 32 40  1  0
 41 43  1  0
 15 19  2  0
 42 43  2  0
 16 22  2  0
 12 17  1  1
 17 19  1  0
 17 20  1  0
 18 19  1  0
 18 22  1  0
 18 23  1  0
  9 10  1  0
  9 11  1  0
 10 12  1  0
 11  5  1  1
 33 34  1  0
 33 35  1  0
 34 36  1  0
 35 37  1  0
 37 43  1  6
 20 21  2  0
 21 22  1  0
M  CHG  3   2  -1  26  -1  41  -1
M  END
>  <COMPND>  (74) 
    udp_gluA.pdb 

>  <AUTHOR>  (74) 
    GENERATED BY OPEN BABEL 3.1.1

>  <MASTER>  (74) 
        0    0    0    0    0    0    0    0   56    0   56    0

>  <minimizedAffinity>  (74) 
-8.27419

>  <CNNscore>  (74) 
0.2781232595

>  <CNNaffinity>  (74) 
3.9903140068

>  <CNN_VS>  (74) 
1.1097991467

>  <CNNaffinity_variance>  (74) 
0.5916218758

$$$$
75
     RDKit          3D

 43 45  0  0  0  0  0  0  0  0999 V2000
   22.7238   73.2239   -3.4644 P   0  0  2  0  0  0  0  0  0  0  0  0
   24.1687   73.1200   -4.1857 O   0  0  0  0  0  0  0  0  0  0  0  0
   22.4017   74.5688   -2.8818 O   0  0  0  0  0  0  0  0  0  0  0  0
   22.7206   71.9873   -2.4210 O   0  0  0  0  0  0  0  0  0  0  0  0
   22.8266   72.2695   -1.0377 C   0  0  0  0  0  0  0  0  0  0  0  0
   21.9770   70.0213   -1.0001 O   0  0  0  0  0  0  0  0  0  0  0  0
   21.5061   70.4464    1.9306 O   0  0  0  0  0  0  0  0  0  0  0  0
   23.8140   68.9943    1.9024 O   0  0  0  0  0  0  0  0  0  0  0  0
   22.5695   70.9259    1.1073 C   0  0  1  0  0  0  0  0  0  0  0  0
   23.5265   69.7997    0.7785 C   0  0  2  0  0  0  0  0  0  0  0  0
   21.9902   71.2613   -0.2602 C   0  0  1  0  0  0  0  0  0  0  0  0
   22.7685   69.0471   -0.3017 C   0  0  2  0  0  0  0  0  0  0  0  0
   21.8519   70.2255    2.8100 H   0  0  0  0  0  0  0  0  0  0  0  0
   24.2970   69.5188    2.5609 H   0  0  0  0  0  0  0  0  0  0  0  0
   23.1453   66.2528   -0.4647 O   0  0  0  0  0  0  0  0  0  0  0  0
   26.1565   66.6770   -3.9282 O   0  0  0  0  0  0  0  0  0  0  0  0
   23.6451   68.4005   -1.2368 N   0  0  0  0  0  0  0  0  0  0  0  0
   24.6455   66.4668   -2.1889 N   0  0  0  0  0  0  0  0  0  0  0  0
   23.7621   66.9904   -1.2357 C   0  0  0  0  0  0  0  0  0  0  0  0
   24.3756   69.1603   -2.1423 C   0  0  0  0  0  0  0  0  0  0  0  0
   25.2135   68.6470   -3.0451 C   0  0  0  0  0  0  0  0  0  0  0  0
   25.3941   67.1818   -3.1097 C   0  0  0  0  0  0  0  0  0  0  0  0
   24.7452   65.4874   -2.2059 H   0  0  0  0  0  0  0  0  0  0  0  0
   21.7057   72.7286   -4.6181 O   0  0  0  0  0  0  0  0  0  0  0  0
   21.3498   73.3611   -6.0627 P   0  0  2  0  0  0  0  0  0  0  0  0
   22.5339   72.8009   -7.0137 O   0  0  0  0  0  0  0  0  0  0  0  0
   21.2114   74.8560   -6.0632 O   0  0  0  0  0  0  0  0  0  0  0  0
   20.0309   72.5665   -6.5437 O   0  0  0  0  0  0  0  0  0  0  0  0
   18.9575   70.6305   -5.7016 O   0  0  0  0  0  0  0  0  0  0  0  0
   18.3602   70.2208   -9.7689 O   0  0  0  0  0  0  0  0  0  0  0  0
   20.9419   71.1142   -8.7339 O   0  0  0  0  0  0  0  0  0  0  0  0
   16.1759   71.0767   -8.0522 O   0  0  0  0  0  0  0  0  0  0  0  0
   18.5304   70.9300   -8.5417 C   0  0  2  0  0  0  0  0  0  0  0  0
   19.8905   70.5840   -7.9350 C   0  0  2  0  0  0  0  0  0  0  0  0
   17.4034   70.5129   -7.5942 C   0  0  1  0  0  0  0  0  0  0  0  0
   20.0141   71.1404   -6.5159 C   0  0  1  0  0  0  0  0  0  0  0  0
   17.6629   70.9996   -6.1715 C   0  0  1  0  0  0  0  0  0  0  0  0
   19.0654   70.4699  -10.3870 H   0  0  0  0  0  0  0  0  0  0  0  0
   20.8695   70.7655   -9.6358 H   0  0  0  0  0  0  0  0  0  0  0  0
   15.9991   70.7749   -8.9569 H   0  0  0  0  0  0  0  0  0  0  0  0
   16.2759   69.1617   -5.7242 O   0  0  0  0  0  0  0  0  0  0  0  0
   16.4633   70.7445   -4.0936 O   0  0  0  0  0  0  0  0  0  0  0  0
   16.7488   70.3212   -5.2037 C   0  0  0  0  0  0  0  0  0  0  0  0
  1  4  1  0
  1 24  1  0
  1  2  1  6
  1  3  2  0
 25 28  1  0
 25 24  1  0
 25 26  1  6
 25 27  2  0
  6 11  1  0
  6 12  1  0
 29 36  1  0
 29 37  1  0
  9  7  1  1
  7 13  1  0
 10  8  1  1
  8 14  1  0
  4  5  1  0
 36 28  1  6
 33 30  1  6
 30 38  1  0
 34 31  1  6
 31 39  1  0
 35 32  1  6
 32 40  1  0
 41 43  1  0
 15 19  2  0
 42 43  2  0
 16 22  2  0
 12 17  1  6
 17 19  1  0
 17 20  1  0
 18 19  1  0
 18 22  1  0
 18 23  1  0
  9 10  1  0
  9 11  1  0
 10 12  1  0
 11  5  1  6
 33 34  1  0
 33 35  1  0
 34 36  1  0
 35 37  1  0
 37 43  1  1
 20 21  2  0
 21 22  1  0
M  CHG  3   2  -1  26  -1  41  -1
M  END
>  <COMPND>  (75) 
    udp_gluA.pdb 

>  <AUTHOR>  (75) 
    GENERATED BY OPEN BABEL 3.1.1

>  <MASTER>  (75) 
        0    0    0    0    0    0    0    0   56    0   56    0

>  <minimizedAffinity>  (75) 
-9.59707

>  <CNNscore>  (75) 
0.2769579291

>  <CNNaffinity>  (75) 
4.1948561668

>  <CNN_VS>  (75) 
1.1617987156

>  <CNNaffinity_variance>  (75) 
0.5764914751

$$$$
76
     RDKit          3D

 43 45  0  0  0  0  0  0  0  0999 V2000
   20.7429   75.2433   -4.1636 P   0  0  2  0  0  0  0  0  0  0  0  0
   20.3928   76.1692   -2.8834 O   0  0  0  0  0  0  0  0  0  0  0  0
   21.2222   75.9902   -5.3736 O   0  0  0  0  0  0  0  0  0  0  0  0
   19.4108   74.3488   -4.3721 O   0  0  0  0  0  0  0  0  0  0  0  0
   18.3544   74.8805   -5.1504 C   0  0  0  0  0  0  0  0  0  0  0  0
   18.7923   73.0105   -6.5957 O   0  0  0  0  0  0  0  0  0  0  0  0
   17.6733   74.6967   -8.8083 O   0  0  0  0  0  0  0  0  0  0  0  0
   15.5887   73.0456   -8.2049 O   0  0  0  0  0  0  0  0  0  0  0  0
   17.2747   74.6216   -7.4394 C   0  0  1  0  0  0  0  0  0  0  0  0
   16.5200   73.3343   -7.1832 C   0  0  2  0  0  0  0  0  0  0  0  0
   18.5272   74.4300   -6.5952 C   0  0  1  0  0  0  0  0  0  0  0  0
   17.6461   72.3170   -7.1139 C   0  0  2  0  0  0  0  0  0  0  0  0
   16.8897   74.8192   -9.3674 H   0  0  0  0  0  0  0  0  0  0  0  0
   14.8921   73.7214   -8.2078 H   0  0  0  0  0  0  0  0  0  0  0  0
   15.8591   70.2296   -7.7664 O   0  0  0  0  0  0  0  0  0  0  0  0
   16.5335   68.1396   -3.7141 O   0  0  0  0  0  0  0  0  0  0  0  0
   17.3363   71.2147   -6.2479 N   0  0  0  0  0  0  0  0  0  0  0  0
   16.1959   69.1912   -5.7471 N   0  0  0  0  0  0  0  0  0  0  0  0
   16.4247   70.2189   -6.6714 C   0  0  0  0  0  0  0  0  0  0  0  0
   17.9334   71.1270   -4.9962 C   0  0  0  0  0  0  0  0  0  0  0  0
   17.7055   70.1413   -4.1261 C   0  0  0  0  0  0  0  0  0  0  0  0
   16.7653   69.0612   -4.4907 C   0  0  0  0  0  0  0  0  0  0  0  0
   15.5634   68.4873   -6.0187 H   0  0  0  0  0  0  0  0  0  0  0  0
   21.8036   74.1811   -3.5640 O   0  0  0  0  0  0  0  0  0  0  0  0
   22.0945   72.6384   -3.9500 P   0  0  2  0  0  0  0  0  0  0  0  0
   23.7045   72.5948   -4.1120 O   0  0  0  0  0  0  0  0  0  0  0  0
   21.3386   72.1514   -5.1523 O   0  0  0  0  0  0  0  0  0  0  0  0
   21.7992   71.8147   -2.5947 O   0  0  0  0  0  0  0  0  0  0  0  0
   23.2775   71.9914   -0.7529 O   0  0  0  0  0  0  0  0  0  0  0  0
   21.1959   68.5436    0.1678 O   0  0  0  0  0  0  0  0  0  0  0  0
   22.0888   69.0486   -2.5676 O   0  0  0  0  0  0  0  0  0  0  0  0
   20.6026   71.0232    1.5643 O   0  0  0  0  0  0  0  0  0  0  0  0
   21.3801   69.8454   -0.3884 C   0  0  2  0  0  0  0  0  0  0  0  0
   22.4966   69.8028   -1.4320 C   0  0  2  0  0  0  0  0  0  0  0  0
   21.7519   70.7979    0.7502 C   0  0  1  0  0  0  0  0  0  0  0  0
   22.8788   71.2135   -1.8822 C   0  0  1  0  0  0  0  0  0  0  0  0
   22.2419   72.1406    0.2158 C   0  0  1  0  0  0  0  0  0  0  0  0
   20.9589   67.9210   -0.5376 H   0  0  0  0  0  0  0  0  0  0  0  0
   21.8446   68.1523   -2.2892 H   0  0  0  0  0  0  0  0  0  0  0  0
   20.2806   70.1763    1.9107 H   0  0  0  0  0  0  0  0  0  0  0  0
   24.2346   72.6705    1.3336 O   0  0  0  0  0  0  0  0  0  0  0  0
   22.3345   73.7105    2.0455 O   0  0  0  0  0  0  0  0  0  0  0  0
   22.9045   72.9317    1.2962 C   0  0  0  0  0  0  0  0  0  0  0  0
  1  4  1  0
  1 24  1  0
  1  2  1  1
  1  3  2  0
 25 28  1  0
 25 24  1  0
 25 26  1  6
 25 27  2  0
  6 11  1  0
  6 12  1  0
 29 36  1  0
 29 37  1  0
  9  7  1  6
  7 13  1  0
 10  8  1  6
  8 14  1  0
  4  5  1  0
 36 28  1  1
 33 30  1  1
 30 38  1  0
 34 31  1  6
 31 39  1  0
 35 32  1  1
 32 40  1  0
 41 43  1  0
 15 19  2  0
 42 43  2  0
 16 22  2  0
 12 17  1  1
 17 19  1  0
 17 20  1  0
 18 19  1  0
 18 22  1  0
 18 23  1  0
  9 10  1  0
  9 11  1  0
 10 12  1  0
 11  5  1  1
 33 34  1  0
 33 35  1  0
 34 36  1  0
 35 37  1  0
 37 43  1  1
 20 21  2  0
 21 22  1  0
M  CHG  3   2  -1  26  -1  41  -1
M  END
>  <COMPND>  (76) 
    udp_gluA.pdb 

>  <AUTHOR>  (76) 
    GENERATED BY OPEN BABEL 3.1.1

>  <MASTER>  (76) 
        0    0    0    0    0    0    0    0   56    0   56    0

>  <minimizedAffinity>  (76) 
-7.36120

>  <CNNscore>  (76) 
0.2747297287

>  <CNNaffinity>  (76) 
3.9495582581

>  <CNN_VS>  (76) 
1.0850610733

>  <CNNaffinity_variance>  (76) 
0.2902235091

$$$$
77
     RDKit          3D

 43 45  0  0  0  0  0  0  0  0999 V2000
   21.3360   75.5181   -3.8737 P   0  0  2  0  0  0  0  0  0  0  0  0
   21.0395   76.2662   -2.4697 O   0  0  0  0  0  0  0  0  0  0  0  0
   22.3243   76.2115   -4.7648 O   0  0  0  0  0  0  0  0  0  0  0  0
   19.8655   75.2811   -4.5058 O   0  0  0  0  0  0  0  0  0  0  0  0
   19.3406   73.9663   -4.5226 C   0  0  0  0  0  0  0  0  0  0  0  0
   19.3372   72.0610   -5.9879 O   0  0  0  0  0  0  0  0  0  0  0  0
   18.0260   73.8493   -8.0063 O   0  0  0  0  0  0  0  0  0  0  0  0
   15.9239   72.4154   -7.0259 O   0  0  0  0  0  0  0  0  0  0  0  0
   17.8632   73.8153   -6.5882 C   0  0  1  0  0  0  0  0  0  0  0  0
   17.0408   72.6101   -6.1838 C   0  0  2  0  0  0  0  0  0  0  0  0
   19.2172   73.4999   -5.9674 C   0  0  1  0  0  0  0  0  0  0  0  0
   18.0564   71.4853   -6.2900 C   0  0  2  0  0  0  0  0  0  0  0  0
   17.1738   74.0492   -8.4252 H   0  0  0  0  0  0  0  0  0  0  0  0
   15.3071   73.1575   -6.9216 H   0  0  0  0  0  0  0  0  0  0  0  0
   16.0055   69.5692   -6.6048 O   0  0  0  0  0  0  0  0  0  0  0  0
   17.1382   67.4432   -2.6753 O   0  0  0  0  0  0  0  0  0  0  0  0
   17.7931   70.4201   -5.3643 N   0  0  0  0  0  0  0  0  0  0  0  0
   16.5709   68.5128   -4.6469 N   0  0  0  0  0  0  0  0  0  0  0  0
   16.7384   69.5110   -5.6157 C   0  0  0  0  0  0  0  0  0  0  0  0
   18.5755   70.2829   -4.2241 C   0  0  0  0  0  0  0  0  0  0  0  0
   18.4038   69.3262   -3.3098 C   0  0  0  0  0  0  0  0  0  0  0  0
   17.3230   68.3361   -3.4967 C   0  0  0  0  0  0  0  0  0  0  0  0
   15.8416   67.8692   -4.7991 H   0  0  0  0  0  0  0  0  0  0  0  0
   21.7749   74.0336   -3.4082 O   0  0  0  0  0  0  0  0  0  0  0  0
   23.2367   73.3776   -3.1927 P   0  0  2  0  0  0  0  0  0  0  0  0
   24.0691   74.5600   -2.4652 O   0  0  0  0  0  0  0  0  0  0  0  0
   23.8705   72.8590   -4.4510 O   0  0  0  0  0  0  0  0  0  0  0  0
   23.0209   72.2655   -2.0442 O   0  0  0  0  0  0  0  0  0  0  0  0
   22.5687   69.9641   -2.3735 O   0  0  0  0  0  0  0  0  0  0  0  0
   20.8345   70.6424    1.3144 O   0  0  0  0  0  0  0  0  0  0  0  0
   20.5324   72.5874   -0.8443 O   0  0  0  0  0  0  0  0  0  0  0  0
   23.3755   69.2421    1.1323 O   0  0  0  0  0  0  0  0  0  0  0  0
   21.7856   70.8322    0.2669 C   0  0  2  0  0  0  0  0  0  0  0  0
   21.0639   71.2773   -1.0053 C   0  0  2  0  0  0  0  0  0  0  0  0
   22.5039   69.5012    0.0334 C   0  0  1  0  0  0  0  0  0  0  0  0
   22.0131   71.2688   -2.2043 C   0  0  1  0  0  0  0  0  0  0  0  0
   23.3310   69.5320   -1.2486 C   0  0  1  0  0  0  0  0  0  0  0  0
   20.3655   71.4753    1.4804 H   0  0  0  0  0  0  0  0  0  0  0  0
   19.9294   72.6002   -0.0850 H   0  0  0  0  0  0  0  0  0  0  0  0
   22.8615   69.2202    1.9545 H   0  0  0  0  0  0  0  0  0  0  0  0
   24.2584   68.1469   -2.8988 O   0  0  0  0  0  0  0  0  0  0  0  0
   23.6649   67.1639   -0.9288 O   0  0  0  0  0  0  0  0  0  0  0  0
   23.7544   68.1536   -1.6398 C   0  0  0  0  0  0  0  0  0  0  0  0
  1  4  1  0
  1 24  1  0
  1  2  1  1
  1  3  2  0
 25 28  1  0
 25 24  1  0
 25 26  1  1
 25 27  2  0
  6 11  1  0
  6 12  1  0
 29 36  1  0
 29 37  1  0
  9  7  1  6
  7 13  1  0
 10  8  1  6
  8 14  1  0
  4  5  1  0
 36 28  1  1
 33 30  1  1
 30 38  1  0
 34 31  1  1
 31 39  1  0
 35 32  1  1
 32 40  1  0
 41 43  1  0
 15 19  2  0
 42 43  2  0
 16 22  2  0
 12 17  1  1
 17 19  1  0
 17 20  1  0
 18 19  1  0
 18 22  1  0
 18 23  1  0
  9 10  1  0
  9 11  1  0
 10 12  1  0
 11  5  1  1
 33 34  1  0
 33 35  1  0
 34 36  1  0
 35 37  1  0
 37 43  1  6
 20 21  2  0
 21 22  1  0
M  CHG  3   2  -1  26  -1  41  -1
M  END
>  <COMPND>  (77) 
    udp_gluA.pdb 

>  <AUTHOR>  (77) 
    GENERATED BY OPEN BABEL 3.1.1

>  <MASTER>  (77) 
        0    0    0    0    0    0    0    0   56    0   56    0

>  <minimizedAffinity>  (77) 
-7.38441

>  <CNNscore>  (77) 
0.2673926950

>  <CNNaffinity>  (77) 
3.8870239258

>  <CNN_VS>  (77) 
1.0393618345

>  <CNNaffinity_variance>  (77) 
0.7228403091

$$$$
78
     RDKit          3D

 43 45  0  0  0  0  0  0  0  0999 V2000
   22.6934   73.0229   -3.8949 P   0  0  2  0  0  0  0  0  0  0  0  0
   21.7839   73.5926   -5.1061 O   0  0  0  0  0  0  0  0  0  0  0  0
   24.1743   73.1537   -4.0989 O   0  0  0  0  0  0  0  0  0  0  0  0
   22.1452   71.5169   -3.6725 O   0  0  0  0  0  0  0  0  0  0  0  0
   20.9391   71.1357   -4.3085 C   0  0  0  0  0  0  0  0  0  0  0  0
   18.7601   71.5650   -3.3890 O   0  0  0  0  0  0  0  0  0  0  0  0
   18.9578   68.8479   -2.1361 O   0  0  0  0  0  0  0  0  0  0  0  0
   17.3584   68.3926   -4.2973 O   0  0  0  0  0  0  0  0  0  0  0  0
   19.4334   69.2941   -3.4063 C   0  0  1  0  0  0  0  0  0  0  0  0
   18.2772   69.4627   -4.3691 C   0  0  2  0  0  0  0  0  0  0  0  0
   19.9266   70.7257   -3.2468 C   0  0  1  0  0  0  0  0  0  0  0  0
   17.6762   70.7811   -3.9125 C   0  0  2  0  0  0  0  0  0  0  0  0
   18.6373   67.9352   -2.2129 H   0  0  0  0  0  0  0  0  0  0  0  0
   17.7885   67.5764   -4.5985 H   0  0  0  0  0  0  0  0  0  0  0  0
   15.6128   72.6801   -3.5771 O   0  0  0  0  0  0  0  0  0  0  0  0
   15.3685   73.4854   -8.1088 O   0  0  0  0  0  0  0  0  0  0  0  0
   17.0553   71.5019   -4.9876 N   0  0  0  0  0  0  0  0  0  0  0  0
   15.4924   73.0786   -5.8346 N   0  0  0  0  0  0  0  0  0  0  0  0
   16.0272   72.4340   -4.7114 C   0  0  0  0  0  0  0  0  0  0  0  0
   17.4662   71.2841   -6.2970 C   0  0  0  0  0  0  0  0  0  0  0  0
   16.9471   71.9063   -7.3573 C   0  0  0  0  0  0  0  0  0  0  0  0
   15.8676   72.8950   -7.1556 C   0  0  0  0  0  0  0  0  0  0  0  0
   14.7738   73.7306   -5.6676 H   0  0  0  0  0  0  0  0  0  0  0  0
   22.1188   73.8127   -2.6069 O   0  0  0  0  0  0  0  0  0  0  0  0
   22.8554   74.3327   -1.2651 P   0  0  2  0  0  0  0  0  0  0  0  0
   21.7253   75.2477   -0.5537 O   0  0  0  0  0  0  0  0  0  0  0  0
   24.1575   75.0383   -1.5114 O   0  0  0  0  0  0  0  0  0  0  0  0
   22.9696   73.0247   -0.3277 O   0  0  0  0  0  0  0  0  0  0  0  0
   21.6749   71.0519   -0.1250 O   0  0  0  0  0  0  0  0  0  0  0  0
   22.6917   71.7982    3.8091 O   0  0  0  0  0  0  0  0  0  0  0  0
   21.8865   73.9850    2.0473 O   0  0  0  0  0  0  0  0  0  0  0  0
   24.0330   69.6847    2.3311 O   0  0  0  0  0  0  0  0  0  0  0  0
   22.8754   71.7968    2.3934 C   0  0  2  0  0  0  0  0  0  0  0  0
   21.7580   72.6035    1.7316 C   0  0  2  0  0  0  0  0  0  0  0  0
   22.8393   70.3442    1.9133 C   0  0  1  0  0  0  0  0  0  0  0  0
   21.7880   72.4351    0.2118 C   0  0  1  0  0  0  0  0  0  0  0  0
   22.7434   70.2623    0.3926 C   0  0  1  0  0  0  0  0  0  0  0  0
   22.7110   72.7112    4.1369 H   0  0  0  0  0  0  0  0  0  0  0  0
   21.8685   74.0992    3.0101 H   0  0  0  0  0  0  0  0  0  0  0  0
   24.1062   69.7297    3.2972 H   0  0  0  0  0  0  0  0  0  0  0  0
   21.0343   68.7490   -0.1466 O   0  0  0  0  0  0  0  0  0  0  0  0
   23.1789   67.9854   -0.2763 O   0  0  0  0  0  0  0  0  0  0  0  0
   22.3801   68.8798   -0.0423 C   0  0  0  0  0  0  0  0  0  0  0  0
  1  4  1  0
  1 24  1  0
  1  2  1  6
  1  3  2  0
 25 28  1  0
 25 24  1  0
 25 26  1  1
 25 27  2  0
  6 11  1  0
  6 12  1  0
 29 36  1  0
 29 37  1  0
  9  7  1  1
  7 13  1  0
 10  8  1  1
  8 14  1  0
  4  5  1  0
 36 28  1  1
 33 30  1  1
 30 38  1  0
 34 31  1  6
 31 39  1  0
 35 32  1  6
 32 40  1  0
 41 43  1  0
 15 19  2  0
 42 43  2  0
 16 22  2  0
 12 17  1  6
 17 19  1  0
 17 20  1  0
 18 19  1  0
 18 22  1  0
 18 23  1  0
  9 10  1  0
  9 11  1  0
 10 12  1  0
 11  5  1  6
 33 34  1  0
 33 35  1  0
 34 36  1  0
 35 37  1  0
 37 43  1  1
 20 21  2  0
 21 22  1  0
M  CHG  3   2  -1  26  -1  41  -1
M  END
>  <COMPND>  (78) 
    udp_gluA.pdb 

>  <AUTHOR>  (78) 
    GENERATED BY OPEN BABEL 3.1.1

>  <MASTER>  (78) 
        0    0    0    0    0    0    0    0   56    0   56    0

>  <minimizedAffinity>  (78) 
-7.43267

>  <CNNscore>  (78) 
0.2670386434

>  <CNNaffinity>  (78) 
3.8478603363

>  <CNN_VS>  (78) 
1.0275274515

>  <CNNaffinity_variance>  (78) 
0.4188404977

$$$$
79
     RDKit          3D

 43 45  0  0  0  0  0  0  0  0999 V2000
   22.9314   73.8627   -4.1957 P   0  0  2  0  0  0  0  0  0  0  0  0
   23.8894   72.5586   -4.2191 O   0  0  0  0  0  0  0  0  0  0  0  0
   23.4543   75.0466   -4.9552 O   0  0  0  0  0  0  0  0  0  0  0  0
   22.6468   74.1075   -2.6219 O   0  0  0  0  0  0  0  0  0  0  0  0
   21.8992   73.1377   -1.9112 C   0  0  0  0  0  0  0  0  0  0  0  0
   23.0620   72.5788    0.1169 O   0  0  0  0  0  0  0  0  0  0  0  0
   23.4227   69.8457   -1.0628 O   0  0  0  0  0  0  0  0  0  0  0  0
   21.3477   69.4785    0.6680 O   0  0  0  0  0  0  0  0  0  0  0  0
   22.3140   70.7385   -1.1734 C   0  0  1  0  0  0  0  0  0  0  0  0
   21.5337   70.7683    0.1237 C   0  0  2  0  0  0  0  0  0  0  0  0
   22.8598   72.1579   -1.2496 C   0  0  1  0  0  0  0  0  0  0  0  0
   22.4081   71.6514    0.9976 C   0  0  2  0  0  0  0  0  0  0  0  0
   23.0989   68.9323   -1.0126 H   0  0  0  0  0  0  0  0  0  0  0  0
   20.7846   68.9556    0.0753 H   0  0  0  0  0  0  0  0  0  0  0  0
   23.1747   71.9983    3.6936 O   0  0  0  0  0  0  0  0  0  0  0  0
   19.4128   74.4903    4.6331 O   0  0  0  0  0  0  0  0  0  0  0  0
   21.6477   72.3863    1.9684 N   0  0  0  0  0  0  0  0  0  0  0  0
   21.2998   73.2383    4.1592 N   0  0  0  0  0  0  0  0  0  0  0  0
   22.1214   72.5005    3.2968 C   0  0  0  0  0  0  0  0  0  0  0  0
   20.4488   72.9854    1.6014 C   0  0  0  0  0  0  0  0  0  0  0  0
   19.6766   73.6856    2.4346 C   0  0  0  0  0  0  0  0  0  0  0  0
   20.0992   73.8520    3.8408 C   0  0  0  0  0  0  0  0  0  0  0  0
   21.6079   73.3299    5.0898 H   0  0  0  0  0  0  0  0  0  0  0  0
   21.5207   73.2864   -4.7348 O   0  0  0  0  0  0  0  0  0  0  0  0
   20.7848   73.4486   -6.1651 P   0  0  2  0  0  0  0  0  0  0  0  0
   21.7394   72.6114   -7.1692 O   0  0  0  0  0  0  0  0  0  0  0  0
   20.5499   74.8725   -6.5788 O   0  0  0  0  0  0  0  0  0  0  0  0
   19.4455   72.5582   -6.0397 O   0  0  0  0  0  0  0  0  0  0  0  0
   19.2485   70.2646   -5.4828 O   0  0  0  0  0  0  0  0  0  0  0  0
   15.9696   70.8192   -7.9342 O   0  0  0  0  0  0  0  0  0  0  0  0
   18.5467   72.0147   -8.6151 O   0  0  0  0  0  0  0  0  0  0  0  0
   15.6216   70.6180   -5.0551 O   0  0  0  0  0  0  0  0  0  0  0  0
   16.9580   71.1948   -6.9750 C   0  0  2  0  0  0  0  0  0  0  0  0
   18.3499   71.0476   -7.5901 C   0  0  2  0  0  0  0  0  0  0  0  0
   16.8125   70.2747   -5.7609 C   0  0  1  0  0  0  0  0  0  0  0  0
   19.4378   71.2182   -6.5288 C   0  0  1  0  0  0  0  0  0  0  0  0
   17.9992   70.4131   -4.8117 C   0  0  1  0  0  0  0  0  0  0  0  0
   16.0428   71.3905   -8.7149 H   0  0  0  0  0  0  0  0  0  0  0  0
   17.8597   71.9124   -9.2918 H   0  0  0  0  0  0  0  0  0  0  0  0
   14.8586   70.5342   -5.6482 H   0  0  0  0  0  0  0  0  0  0  0  0
   19.2905   68.9159   -3.5497 O   0  0  0  0  0  0  0  0  0  0  0  0
   17.0261   68.7928   -3.3119 O   0  0  0  0  0  0  0  0  0  0  0  0
   18.0171   69.2969   -3.8186 C   0  0  0  0  0  0  0  0  0  0  0  0
  1  4  1  0
  1 24  1  0
  1  2  1  1
  1  3  2  0
 25 28  1  0
 25 24  1  0
 25 26  1  6
 25 27  2  0
  6 11  1  0
  6 12  1  0
 29 36  1  0
 29 37  1  0
  9  7  1  1
  7 13  1  0
 10  8  1  1
  8 14  1  0
  4  5  1  0
 36 28  1  1
 33 30  1  6
 30 38  1  0
 34 31  1  6
 31 39  1  0
 35 32  1  1
 32 40  1  0
 41 43  1  0
 15 19  2  0
 42 43  2  0
 16 22  2  0
 12 17  1  1
 17 19  1  0
 17 20  1  0
 18 19  1  0
 18 22  1  0
 18 23  1  0
  9 10  1  0
  9 11  1  0
 10 12  1  0
 11  5  1  1
 33 34  1  0
 33 35  1  0
 34 36  1  0
 35 37  1  0
 37 43  1  1
 20 21  2  0
 21 22  1  0
M  CHG  3   2  -1  26  -1  41  -1
M  END
>  <COMPND>  (79) 
    udp_gluA.pdb 

>  <AUTHOR>  (79) 
    GENERATED BY OPEN BABEL 3.1.1

>  <MASTER>  (79) 
        0    0    0    0    0    0    0    0   56    0   56    0

>  <minimizedAffinity>  (79) 
-7.27131

>  <CNNscore>  (79) 
0.2553358376

>  <CNNaffinity>  (79) 
3.9156227112

>  <CNN_VS>  (79) 
0.9997988343

>  <CNNaffinity_variance>  (79) 
0.2996880412

$$$$
80
     RDKit          3D

 43 45  0  0  0  0  0  0  0  0999 V2000
   18.2867   74.1200   -3.1574 P   0  0  2  0  0  0  0  0  0  0  0  0
   19.5484   74.9406   -2.5627 O   0  0  0  0  0  0  0  0  0  0  0  0
   16.9476   74.7507   -2.9107 O   0  0  0  0  0  0  0  0  0  0  0  0
   18.4800   72.6269   -2.5645 O   0  0  0  0  0  0  0  0  0  0  0  0
   19.5914   72.3713   -1.7255 C   0  0  0  0  0  0  0  0  0  0  0  0
   21.7891   71.4534   -2.0503 O   0  0  0  0  0  0  0  0  0  0  0  0
   20.4188   68.8319   -2.5421 O   0  0  0  0  0  0  0  0  0  0  0  0
   21.2856   68.5777    0.0309 O   0  0  0  0  0  0  0  0  0  0  0  0
   20.0734   69.8750   -1.6304 C   0  0  1  0  0  0  0  0  0  0  0  0
   21.0255   69.8787   -0.4531 C   0  0  2  0  0  0  0  0  0  0  0  0
   20.3881   71.2064   -2.2988 C   0  0  1  0  0  0  0  0  0  0  0  0
   22.2582   70.5393   -1.0465 C   0  0  2  0  0  0  0  0  0  0  0  0
   20.2265   67.9713   -2.1371 H   0  0  0  0  0  0  0  0  0  0  0  0
   20.4704   68.2005    0.3983 H   0  0  0  0  0  0  0  0  0  0  0  0
   24.0489   69.3574    0.7901 O   0  0  0  0  0  0  0  0  0  0  0  0
   25.1042   73.4339    2.6642 O   0  0  0  0  0  0  0  0  0  0  0  0
   23.0140   71.2683   -0.0677 N   0  0  0  0  0  0  0  0  0  0  0  0
   24.5720   71.3887    1.7224 N   0  0  0  0  0  0  0  0  0  0  0  0
   23.8858   70.5788    0.8079 C   0  0  0  0  0  0  0  0  0  0  0  0
   22.8892   72.6497    0.0170 C   0  0  0  0  0  0  0  0  0  0  0  0
   23.5500   73.4081    0.8939 C   0  0  0  0  0  0  0  0  0  0  0  0
   24.4805   72.7657    1.8452 C   0  0  0  0  0  0  0  0  0  0  0  0
   25.1833   70.9310    2.3438 H   0  0  0  0  0  0  0  0  0  0  0  0
   18.6711   73.9440   -4.7175 O   0  0  0  0  0  0  0  0  0  0  0  0
   20.0371   74.2718   -5.5176 P   0  0  2  0  0  0  0  0  0  0  0  0
   21.1781   73.5828   -4.5991 O   0  0  0  0  0  0  0  0  0  0  0  0
   20.2581   75.7322   -5.7864 O   0  0  0  0  0  0  0  0  0  0  0  0
   19.9678   73.3507   -6.8402 O   0  0  0  0  0  0  0  0  0  0  0  0
   19.4561   71.2456   -5.8831 O   0  0  0  0  0  0  0  0  0  0  0  0
   18.8494   70.5111   -9.9031 O   0  0  0  0  0  0  0  0  0  0  0  0
   21.1480   72.0801   -9.0148 O   0  0  0  0  0  0  0  0  0  0  0  0
   16.5767   70.8590   -8.1240 O   0  0  0  0  0  0  0  0  0  0  0  0
   18.8724   71.2957   -8.7107 C   0  0  2  0  0  0  0  0  0  0  0  0
   20.2951   71.3364   -8.1522 C   0  0  2  0  0  0  0  0  0  0  0  0
   17.9224   70.6487   -7.7004 C   0  0  1  0  0  0  0  0  0  0  0  0
   20.3187   71.9703   -6.7607 C   0  0  1  0  0  0  0  0  0  0  0  0
   18.0953   71.2502   -6.3087 C   0  0  1  0  0  0  0  0  0  0  0  0
   19.4461   70.9033  -10.5600 H   0  0  0  0  0  0  0  0  0  0  0  0
   21.1376   71.6835   -9.8997 H   0  0  0  0  0  0  0  0  0  0  0  0
   16.4534   70.4809   -9.0087 H   0  0  0  0  0  0  0  0  0  0  0  0
   18.3156   69.6050   -4.6515 O   0  0  0  0  0  0  0  0  0  0  0  0
   16.2232   70.4298   -5.0267 O   0  0  0  0  0  0  0  0  0  0  0  0
   17.4187   70.4061   -5.2782 C   0  0  0  0  0  0  0  0  0  0  0  0
  1  4  1  0
  1 24  1  0
  1  2  1  1
  1  3  2  0
 25 28  1  0
 25 24  1  0
 25 26  1  1
 25 27  2  0
  6 11  1  0
  6 12  1  0
 29 36  1  0
 29 37  1  0
  9  7  1  6
  7 13  1  0
 10  8  1  6
  8 14  1  0
  4  5  1  0
 36 28  1  6
 33 30  1  6
 30 38  1  0
 34 31  1  6
 31 39  1  0
 35 32  1  6
 32 40  1  0
 41 43  1  0
 15 19  2  0
 42 43  2  0
 16 22  2  0
 12 17  1  1
 17 19  1  0
 17 20  1  0
 18 19  1  0
 18 22  1  0
 18 23  1  0
  9 10  1  0
  9 11  1  0
 10 12  1  0
 11  5  1  1
 33 34  1  0
 33 35  1  0
 34 36  1  0
 35 37  1  0
 37 43  1  1
 20 21  2  0
 21 22  1  0
M  CHG  3   2  -1  26  -1  41  -1
M  END
>  <COMPND>  (80) 
    udp_gluA.pdb 

>  <AUTHOR>  (80) 
    GENERATED BY OPEN BABEL 3.1.1

>  <MASTER>  (80) 
        0    0    0    0    0    0    0    0   56    0   56    0

>  <minimizedAffinity>  (80) 
-7.17071

>  <CNNscore>  (80) 
0.2373476774

>  <CNNaffinity>  (80) 
3.7567362785

>  <CNN_VS>  (80) 
0.8916526437

>  <CNNaffinity_variance>  (80) 
0.4367363453

$$$$
81
     RDKit          3D

 43 45  0  0  0  0  0  0  0  0999 V2000
   23.0507   73.4431   -3.4626 P   0  0  2  0  0  0  0  0  0  0  0  0
   23.1748   74.4170   -4.7491 O   0  0  0  0  0  0  0  0  0  0  0  0
   23.7684   72.1313   -3.5894 O   0  0  0  0  0  0  0  0  0  0  0  0
   21.4572   73.3495   -3.1983 O   0  0  0  0  0  0  0  0  0  0  0  0
   20.7650   72.1967   -3.6412 C   0  0  0  0  0  0  0  0  0  0  0  0
   18.7696   72.7108   -4.8789 O   0  0  0  0  0  0  0  0  0  0  0  0
   17.2547   71.7291   -2.4845 O   0  0  0  0  0  0  0  0  0  0  0  0
   17.1132   69.6065   -4.1906 O   0  0  0  0  0  0  0  0  0  0  0  0
   18.4820   71.2511   -3.0357 C   0  0  1  0  0  0  0  0  0  0  0  0
   18.2182   70.4778   -4.3103 C   0  0  2  0  0  0  0  0  0  0  0  0
   19.2661   72.4516   -3.5478 C   0  0  1  0  0  0  0  0  0  0  0  0
   17.9768   71.5941   -5.3122 C   0  0  2  0  0  0  0  0  0  0  0  0
   16.7363   70.9798   -2.1506 H   0  0  0  0  0  0  0  0  0  0  0  0
   17.3165   68.9138   -3.5418 H   0  0  0  0  0  0  0  0  0  0  0  0
   16.2532   70.4336   -7.2249 O   0  0  0  0  0  0  0  0  0  0  0  0
   19.5984   70.2388  -10.3897 O   0  0  0  0  0  0  0  0  0  0  0  0
   18.3712   71.2301   -6.6436 N   0  0  0  0  0  0  0  0  0  0  0  0
   17.9212   70.3367   -8.7990 N   0  0  0  0  0  0  0  0  0  0  0  0
   17.4278   70.6532   -7.5264 C   0  0  0  0  0  0  0  0  0  0  0  0
   19.6780   71.4466   -7.0635 C   0  0  0  0  0  0  0  0  0  0  0  0
   20.1335   71.1398   -8.2798 C   0  0  0  0  0  0  0  0  0  0  0  0
   19.2121   70.5325   -9.2624 C   0  0  0  0  0  0  0  0  0  0  0  0
   17.2834   69.9321   -9.4305 H   0  0  0  0  0  0  0  0  0  0  0  0
   23.5661   74.3779   -2.2487 O   0  0  0  0  0  0  0  0  0  0  0  0
   23.3139   74.2825   -0.6547 P   0  0  2  0  0  0  0  0  0  0  0  0
   21.7367   74.6163   -0.5091 O   0  0  0  0  0  0  0  0  0  0  0  0
   24.2109   75.1646    0.1645 O   0  0  0  0  0  0  0  0  0  0  0  0
   23.4303   72.7097   -0.3154 O   0  0  0  0  0  0  0  0  0  0  0  0
   21.6167   71.1865   -0.3011 O   0  0  0  0  0  0  0  0  0  0  0  0
   24.2865   69.3388    2.2536 O   0  0  0  0  0  0  0  0  0  0  0  0
   23.8634   72.2262    2.3892 O   0  0  0  0  0  0  0  0  0  0  0  0
   23.9274   68.3405   -0.4529 O   0  0  0  0  0  0  0  0  0  0  0  0
   23.8892   70.1443    1.1439 C   0  0  2  0  0  0  0  0  0  0  0  0
   23.0551   71.3252    1.6413 C   0  0  2  0  0  0  0  0  0  0  0  0
   23.0633   69.2706    0.1971 C   0  0  1  0  0  0  0  0  0  0  0  0
   22.4213   72.0786    0.4711 C   0  0  1  0  0  0  0  0  0  0  0  0
   22.3620   70.1104   -0.8666 C   0  0  1  0  0  0  0  0  0  0  0  0
   24.8128   69.8731    2.8691 H   0  0  0  0  0  0  0  0  0  0  0  0
   24.2690   71.7547    3.1332 H   0  0  0  0  0  0  0  0  0  0  0  0
   24.3801   67.7997    0.2131 H   0  0  0  0  0  0  0  0  0  0  0  0
   20.2112   69.1778   -0.7920 O   0  0  0  0  0  0  0  0  0  0  0  0
   21.4272   68.8372   -2.6904 O   0  0  0  0  0  0  0  0  0  0  0  0
   21.3145   69.3096   -1.5693 C   0  0  0  0  0  0  0  0  0  0  0  0
  1  4  1  0
  1 24  1  0
  1  2  1  6
  1  3  2  0
 25 28  1  0
 25 24  1  0
 25 26  1  6
 25 27  2  0
  6 11  1  0
  6 12  1  0
 29 36  1  0
 29 37  1  0
  9  7  1  6
  7 13  1  0
 10  8  1  1
  8 14  1  0
  4  5  1  0
 36 28  1  6
 33 30  1  1
 30 38  1  0
 34 31  1  6
 31 39  1  0
 35 32  1  6
 32 40  1  0
 41 43  1  0
 15 19  2  0
 42 43  2  0
 16 22  2  0
 12 17  1  6
 17 19  1  0
 17 20  1  0
 18 19  1  0
 18 22  1  0
 18 23  1  0
  9 10  1  0
  9 11  1  0
 10 12  1  0
 11  5  1  6
 33 34  1  0
 33 35  1  0
 34 36  1  0
 35 37  1  0
 37 43  1  1
 20 21  2  0
 21 22  1  0
M  CHG  3   2  -1  26  -1  41  -1
M  END
>  <COMPND>  (81) 
    udp_gluA.pdb 

>  <AUTHOR>  (81) 
    GENERATED BY OPEN BABEL 3.1.1

>  <MASTER>  (81) 
        0    0    0    0    0    0    0    0   56    0   56    0

>  <minimizedAffinity>  (81) 
-7.52036

>  <CNNscore>  (81) 
0.8518599868

>  <CNNaffinity>  (81) 
4.6073083878

>  <CNN_VS>  (81) 
3.9247815609

>  <CNNaffinity_variance>  (81) 
0.0692832619

$$$$
82
     RDKit          3D

 43 45  0  0  0  0  0  0  0  0999 V2000
   20.9969   70.4260   -1.1939 P   0  0  2  0  0  0  0  0  0  0  0  0
   20.3904   68.9877   -0.7672 O   0  0  0  0  0  0  0  0  0  0  0  0
   20.6396   71.5608   -0.2793 O   0  0  0  0  0  0  0  0  0  0  0  0
   20.5416   70.5974   -2.7370 O   0  0  0  0  0  0  0  0  0  0  0  0
   20.3529   71.9054   -3.2451 C   0  0  0  0  0  0  0  0  0  0  0  0
   18.5073   72.5974   -4.6208 O   0  0  0  0  0  0  0  0  0  0  0  0
   16.7322   71.5005   -2.4674 O   0  0  0  0  0  0  0  0  0  0  0  0
   16.6839   69.5228   -4.3443 O   0  0  0  0  0  0  0  0  0  0  0  0
   17.9900   71.0143   -2.9365 C   0  0  1  0  0  0  0  0  0  0  0  0
   17.8251   70.3529   -4.2884 C   0  0  2  0  0  0  0  0  0  0  0  0
   18.8619   72.2160   -3.2739 C   0  0  1  0  0  0  0  0  0  0  0  0
   17.7221   71.5519   -5.2156 C   0  0  2  0  0  0  0  0  0  0  0  0
   16.1577   70.7506   -2.2454 H   0  0  0  0  0  0  0  0  0  0  0  0
   16.7984   68.7745   -3.7370 H   0  0  0  0  0  0  0  0  0  0  0  0
   16.1645   70.5670   -7.3557 O   0  0  0  0  0  0  0  0  0  0  0  0
   19.7833   70.5244  -10.2099 O   0  0  0  0  0  0  0  0  0  0  0  0
   18.2318   71.2746   -6.5287 N   0  0  0  0  0  0  0  0  0  0  0  0
   17.9685   70.5458   -8.7749 N   0  0  0  0  0  0  0  0  0  0  0  0
   17.3650   70.7820   -7.5327 C   0  0  0  0  0  0  0  0  0  0  0  0
   19.5748   71.4920   -6.8116 C   0  0  0  0  0  0  0  0  0  0  0  0
   20.1355   71.2622   -8.0005 C   0  0  0  0  0  0  0  0  0  0  0  0
   19.2994   70.7459   -9.1040 C   0  0  0  0  0  0  0  0  0  0  0  0
   17.3855   70.2006   -9.4893 H   0  0  0  0  0  0  0  0  0  0  0  0
   22.5816   70.1307   -1.3132 O   0  0  0  0  0  0  0  0  0  0  0  0
   23.7109   69.9212   -0.1755 P   0  0  2  0  0  0  0  0  0  0  0  0
   25.0838   69.8341   -1.0286 O   0  0  0  0  0  0  0  0  0  0  0  0
   23.4668   68.7451    0.7252 O   0  0  0  0  0  0  0  0  0  0  0  0
   23.7937   71.3413    0.5854 O   0  0  0  0  0  0  0  0  0  0  0  0
   24.8900   72.3962    2.4005 O   0  0  0  0  0  0  0  0  0  0  0  0
   20.9249   73.2145    3.2228 O   0  0  0  0  0  0  0  0  0  0  0  0
   21.7258   70.5689    2.2774 O   0  0  0  0  0  0  0  0  0  0  0  0
   22.6511   75.2920    2.1482 O   0  0  0  0  0  0  0  0  0  0  0  0
   22.0598   72.9692    2.3923 C   0  0  2  0  0  0  0  0  0  0  0  0
   22.6291   71.5839    2.6998 C   0  0  2  0  0  0  0  0  0  0  0  0
   23.1027   74.0502    2.6852 C   0  0  1  0  0  0  0  0  0  0  0  0
   23.9731   71.3772    2.0000 C   0  0  1  0  0  0  0  0  0  0  0  0
   24.4507   73.7085    2.0571 C   0  0  1  0  0  0  0  0  0  0  0  0
   20.2486   72.5396    3.0541 H   0  0  0  0  0  0  0  0  0  0  0  0
   20.8707   70.6941    2.7173 H   0  0  0  0  0  0  0  0  0  0  0  0
   21.7937   75.5210    2.5397 H   0  0  0  0  0  0  0  0  0  0  0  0
   25.7195   75.6675    1.8246 O   0  0  0  0  0  0  0  0  0  0  0  0
   26.1595   74.3519    3.6342 O   0  0  0  0  0  0  0  0  0  0  0  0
   25.5304   74.5796    2.6118 C   0  0  0  0  0  0  0  0  0  0  0  0
  1  4  1  0
  1 24  1  0
  1  2  1  1
  1  3  2  0
 25 28  1  0
 25 24  1  0
 25 26  1  6
 25 27  2  0
  6 11  1  0
  6 12  1  0
 29 36  1  0
 29 37  1  0
  9  7  1  6
  7 13  1  0
 10  8  1  1
  8 14  1  0
  4  5  1  0
 36 28  1  6
 33 30  1  1
 30 38  1  0
 34 31  1  6
 31 39  1  0
 35 32  1  6
 32 40  1  0
 41 43  1  0
 15 19  2  0
 42 43  2  0
 16 22  2  0
 12 17  1  6
 17 19  1  0
 17 20  1  0
 18 19  1  0
 18 22  1  0
 18 23  1  0
  9 10  1  0
  9 11  1  0
 10 12  1  0
 11  5  1  6
 33 34  1  0
 33 35  1  0
 34 36  1  0
 35 37  1  0
 37 43  1  1
 20 21  2  0
 21 22  1  0
M  CHG  3   2  -1  26  -1  41  -1
M  END
>  <COMPND>  (82) 
    udp_gluA.pdb 

>  <AUTHOR>  (82) 
    GENERATED BY OPEN BABEL 3.1.1

>  <MASTER>  (82) 
        0    0    0    0    0    0    0    0   56    0   56    0

>  <minimizedAffinity>  (82) 
-7.43447

>  <CNNscore>  (82) 
0.7346823215

>  <CNNaffinity>  (82) 
4.6383013725

>  <CNN_VS>  (82) 
3.4076781273

>  <CNNaffinity_variance>  (82) 
0.0936115012

$$$$
83
     RDKit          3D

 43 45  0  0  0  0  0  0  0  0999 V2000
   22.8194   70.8662   -2.7377 P   0  0  2  0  0  0  0  0  0  0  0  0
   23.5568   71.8921   -3.7490 O   0  0  0  0  0  0  0  0  0  0  0  0
   23.4840   69.5282   -2.5966 O   0  0  0  0  0  0  0  0  0  0  0  0
   21.2884   70.8387   -3.2603 O   0  0  0  0  0  0  0  0  0  0  0  0
   20.5334   69.6547   -3.0792 C   0  0  0  0  0  0  0  0  0  0  0  0
   18.6807   70.9574   -3.8843 O   0  0  0  0  0  0  0  0  0  0  0  0
   16.9383   69.1522   -2.2421 O   0  0  0  0  0  0  0  0  0  0  0  0
   16.6264   68.1525   -4.7599 O   0  0  0  0  0  0  0  0  0  0  0  0
   18.1247   68.8426   -2.9736 C   0  0  1  0  0  0  0  0  0  0  0  0
   17.8338   68.8206   -4.4592 C   0  0  2  0  0  0  0  0  0  0  0  0
   19.0738   70.0270   -2.8523 C   0  0  1  0  0  0  0  0  0  0  0  0
   17.7810   70.3019   -4.7922 C   0  0  2  0  0  0  0  0  0  0  0  0
   16.3164   68.4099   -2.3049 H   0  0  0  0  0  0  0  0  0  0  0  0
   16.7108   67.2133   -4.5304 H   0  0  0  0  0  0  0  0  0  0  0  0
   16.0962   70.1041   -7.0503 O   0  0  0  0  0  0  0  0  0  0  0  0
   19.4775   71.3770   -9.9121 O   0  0  0  0  0  0  0  0  0  0  0  0
   18.1952   70.5759   -6.1392 N   0  0  0  0  0  0  0  0  0  0  0  0
   17.7821   70.7373   -8.4736 N   0  0  0  0  0  0  0  0  0  0  0  0
   17.2704   70.4462   -7.2022 C   0  0  0  0  0  0  0  0  0  0  0  0
   19.5028   70.9695   -6.3962 C   0  0  0  0  0  0  0  0  0  0  0  0
   19.9759   71.2436   -7.6135 C   0  0  0  0  0  0  0  0  0  0  0  0
   19.0747   71.1317   -8.7791 C   0  0  0  0  0  0  0  0  0  0  0  0
   17.1575   70.6520   -9.2298 H   0  0  0  0  0  0  0  0  0  0  0  0
   22.7202   71.7167   -1.3667 O   0  0  0  0  0  0  0  0  0  0  0  0
   21.8690   73.0408   -0.9983 P   0  0  2  0  0  0  0  0  0  0  0  0
   20.3985   72.4536   -0.6622 O   0  0  0  0  0  0  0  0  0  0  0  0
   21.8838   74.0986   -2.0636 O   0  0  0  0  0  0  0  0  0  0  0  0
   22.4523   73.5187    0.4279 O   0  0  0  0  0  0  0  0  0  0  0  0
   24.2935   72.9878    1.8197 O   0  0  0  0  0  0  0  0  0  0  0  0
   21.1957   73.1485    4.5484 O   0  0  0  0  0  0  0  0  0  0  0  0
   20.8170   71.8639    1.9521 O   0  0  0  0  0  0  0  0  0  0  0  0
   23.1090   75.3309    4.3827 O   0  0  0  0  0  0  0  0  0  0  0  0
   21.9098   73.5058    3.3650 C   0  0  2  0  0  0  0  0  0  0  0  0
   22.0752   72.2733    2.4755 C   0  0  2  0  0  0  0  0  0  0  0  0
   23.2783   74.0475    3.7839 C   0  0  1  0  0  0  0  0  0  0  0  0
   23.0280   72.5607    1.3142 C   0  0  1  0  0  0  0  0  0  0  0  0
   24.2125   74.1879    2.5854 C   0  0  1  0  0  0  0  0  0  0  0  0
   20.3224   72.8014    4.3070 H   0  0  0  0  0  0  0  0  0  0  0  0
   20.2074   71.6801    2.6836 H   0  0  0  0  0  0  0  0  0  0  0  0
   22.5163   75.2555    5.1468 H   0  0  0  0  0  0  0  0  0  0  0  0
   26.4547   73.5202    2.4171 O   0  0  0  0  0  0  0  0  0  0  0  0
   25.9850   75.2377    3.8414 O   0  0  0  0  0  0  0  0  0  0  0  0
   25.6226   74.3958    3.0335 C   0  0  0  0  0  0  0  0  0  0  0  0
  1  4  1  0
  1 24  1  0
  1  2  1  6
  1  3  2  0
 25 28  1  0
 25 24  1  0
 25 26  1  1
 25 27  2  0
  6 11  1  0
  6 12  1  0
 29 36  1  0
 29 37  1  0
  9  7  1  1
  7 13  1  0
 10  8  1  1
  8 14  1  0
  4  5  1  0
 36 28  1  6
 33 30  1  1
 30 38  1  0
 34 31  1  6
 31 39  1  0
 35 32  1  6
 32 40  1  0
 41 43  1  0
 15 19  2  0
 42 43  2  0
 16 22  2  0
 12 17  1  6
 17 19  1  0
 17 20  1  0
 18 19  1  0
 18 22  1  0
 18 23  1  0
  9 10  1  0
  9 11  1  0
 10 12  1  0
 11  5  1  6
 33 34  1  0
 33 35  1  0
 34 36  1  0
 35 37  1  0
 37 43  1  1
 20 21  2  0
 21 22  1  0
M  CHG  3   2  -1  26  -1  41  -1
M  END
>  <COMPND>  (83) 
    udp_gluA.pdb 

>  <AUTHOR>  (83) 
    GENERATED BY OPEN BABEL 3.1.1

>  <MASTER>  (83) 
        0    0    0    0    0    0    0    0   56    0   56    0

>  <minimizedAffinity>  (83) 
-7.53590

>  <CNNscore>  (83) 
0.7295163274

>  <CNNaffinity>  (83) 
4.5400047302

>  <CNN_VS>  (83) 
3.3120076656

>  <CNNaffinity_variance>  (83) 
0.0138228862

$$$$
84
     RDKit          3D

 43 45  0  0  0  0  0  0  0  0999 V2000
   22.4238   69.5360   -2.1818 P   0  0  2  0  0  0  0  0  0  0  0  0
   23.6668   70.2362   -2.9457 O   0  0  0  0  0  0  0  0  0  0  0  0
   22.5231   68.0449   -2.0447 O   0  0  0  0  0  0  0  0  0  0  0  0
   21.1231   70.0837   -2.9731 O   0  0  0  0  0  0  0  0  0  0  0  0
   20.0244   69.2094   -3.1546 C   0  0  0  0  0  0  0  0  0  0  0  0
   18.6767   71.0003   -4.0232 O   0  0  0  0  0  0  0  0  0  0  0  0
   16.4073   69.7924   -2.4797 O   0  0  0  0  0  0  0  0  0  0  0  0
   15.9275   68.9264   -5.0205 O   0  0  0  0  0  0  0  0  0  0  0  0
   17.4811   69.1453   -3.1629 C   0  0  1  0  0  0  0  0  0  0  0  0
   17.2635   69.2084   -4.6599 C   0  0  2  0  0  0  0  0  0  0  0  0
   18.7311   69.9965   -2.9865 C   0  0  1  0  0  0  0  0  0  0  0  0
   17.6653   70.6387   -4.9770 C   0  0  2  0  0  0  0  0  0  0  0  0
   15.5975   69.2669   -2.5783 H   0  0  0  0  0  0  0  0  0  0  0  0
   15.7205   68.0044   -4.7989 H   0  0  0  0  0  0  0  0  0  0  0  0
   16.1030   70.7475   -7.3273 O   0  0  0  0  0  0  0  0  0  0  0  0
   19.8312   71.1683  -10.0045 O   0  0  0  0  0  0  0  0  0  0  0  0
   18.2019   70.7764   -6.3014 N   0  0  0  0  0  0  0  0  0  0  0  0
   17.9614   70.9560   -8.6585 N   0  0  0  0  0  0  0  0  0  0  0  0
   17.3301   70.8207   -7.4150 C   0  0  0  0  0  0  0  0  0  0  0  0
   19.5760   70.8677   -6.4870 C   0  0  0  0  0  0  0  0  0  0  0  0
   20.1630   70.9964   -7.6785 C   0  0  0  0  0  0  0  0  0  0  0  0
   19.3236   71.0499   -8.8934 C   0  0  0  0  0  0  0  0  0  0  0  0
   17.3752   70.9870   -9.4489 H   0  0  0  0  0  0  0  0  0  0  0  0
   22.3609   70.3383   -0.7800 O   0  0  0  0  0  0  0  0  0  0  0  0
   21.8347   71.8268   -0.4316 P   0  0  2  0  0  0  0  0  0  0  0  0
   22.5168   72.1336    1.0040 O   0  0  0  0  0  0  0  0  0  0  0  0
   20.3405   71.9717   -0.4500 O   0  0  0  0  0  0  0  0  0  0  0  0
   22.6135   72.7888   -1.4663 O   0  0  0  0  0  0  0  0  0  0  0  0
   22.7576   75.1496   -1.5878 O   0  0  0  0  0  0  0  0  0  0  0  0
   22.8591   74.0946   -5.5809 O   0  0  0  0  0  0  0  0  0  0  0  0
   21.0175   72.7645   -3.7441 O   0  0  0  0  0  0  0  0  0  0  0  0
   25.2960   74.9190   -4.2271 O   0  0  0  0  0  0  0  0  0  0  0  0
   23.0991   73.9307   -4.1832 C   0  0  2  0  0  0  0  0  0  0  0  0
   21.7677   73.9325   -3.4316 C   0  0  2  0  0  0  0  0  0  0  0  0
   23.9765   75.0937   -3.7145 C   0  0  1  0  0  0  0  0  0  0  0  0
   21.9928   73.9903   -1.9201 C   0  0  1  0  0  0  0  0  0  0  0  0
   24.0493   75.1580   -2.1916 C   0  0  1  0  0  0  0  0  0  0  0  0
   22.3033   73.3667   -5.9012 H   0  0  0  0  0  0  0  0  0  0  0  0
   20.8712   72.7213   -4.7017 H   0  0  0  0  0  0  0  0  0  0  0  0
   25.2636   74.8764   -5.1956 H   0  0  0  0  0  0  0  0  0  0  0  0
   24.5054   76.5994   -0.3983 O   0  0  0  0  0  0  0  0  0  0  0  0
   25.1272   77.2975   -2.4780 O   0  0  0  0  0  0  0  0  0  0  0  0
   24.6211   76.4633   -1.7426 C   0  0  0  0  0  0  0  0  0  0  0  0
  1  4  1  0
  1 24  1  0
  1  2  1  6
  1  3  2  0
 25 28  1  0
 25 24  1  0
 25 26  1  1
 25 27  2  0
  6 11  1  0
  6 12  1  0
 29 36  1  0
 29 37  1  0
  9  7  1  1
  7 13  1  0
 10  8  1  1
  8 14  1  0
  4  5  1  0
 36 28  1  6
 33 30  1  6
 30 38  1  0
 34 31  1  1
 31 39  1  0
 35 32  1  6
 32 40  1  0
 41 43  1  0
 15 19  2  0
 42 43  2  0
 16 22  2  0
 12 17  1  6
 17 19  1  0
 17 20  1  0
 18 19  1  0
 18 22  1  0
 18 23  1  0
  9 10  1  0
  9 11  1  0
 10 12  1  0
 11  5  1  6
 33 34  1  0
 33 35  1  0
 34 36  1  0
 35 37  1  0
 37 43  1  6
 20 21  2  0
 21 22  1  0
M  CHG  3   2  -1  26  -1  41  -1
M  END
>  <COMPND>  (84) 
    udp_gluA.pdb 

>  <AUTHOR>  (84) 
    GENERATED BY OPEN BABEL 3.1.1

>  <MASTER>  (84) 
        0    0    0    0    0    0    0    0   56    0   56    0

>  <minimizedAffinity>  (84) 
-6.74973

>  <CNNscore>  (84) 
0.6457930803

>  <CNNaffinity>  (84) 
4.5236196518

>  <CNN_VS>  (84) 
2.9213223457

>  <CNNaffinity_variance>  (84) 
0.0462460592

$$$$
85
     RDKit          3D

 43 45  0  0  0  0  0  0  0  0999 V2000
   20.3329   72.0256   -5.3415 P   0  0  2  0  0  0  0  0  0  0  0  0
   19.3403   73.1889   -4.8120 O   0  0  0  0  0  0  0  0  0  0  0  0
   21.0523   72.3401   -6.6203 O   0  0  0  0  0  0  0  0  0  0  0  0
   19.4024   70.7022   -5.3659 O   0  0  0  0  0  0  0  0  0  0  0  0
   19.7221   69.6346   -4.4927 C   0  0  0  0  0  0  0  0  0  0  0  0
   17.7789   70.6640   -3.5221 O   0  0  0  0  0  0  0  0  0  0  0  0
   17.0563   67.9291   -2.5273 O   0  0  0  0  0  0  0  0  0  0  0  0
   15.4466   68.2138   -4.7099 O   0  0  0  0  0  0  0  0  0  0  0  0
   17.6803   68.3087   -3.7541 C   0  0  1  0  0  0  0  0  0  0  0  0
   16.6640   68.9294   -4.6890 C   0  0  2  0  0  0  0  0  0  0  0  0
   18.6069   69.4821   -3.4664 C   0  0  1  0  0  0  0  0  0  0  0  0
   16.5121   70.3249   -4.1081 C   0  0  2  0  0  0  0  0  0  0  0  0
   16.4593   67.1807   -2.6859 H   0  0  0  0  0  0  0  0  0  0  0  0
   15.5960   67.3326   -5.0884 H   0  0  0  0  0  0  0  0  0  0  0  0
   15.3116   72.8225   -3.5631 O   0  0  0  0  0  0  0  0  0  0  0  0
   15.2964   73.9936   -8.0210 O   0  0  0  0  0  0  0  0  0  0  0  0
   16.1835   71.3017   -5.1075 N   0  0  0  0  0  0  0  0  0  0  0  0
   15.3042   73.4030   -5.7840 N   0  0  0  0  0  0  0  0  0  0  0  0
   15.5822   72.5250   -4.7281 C   0  0  0  0  0  0  0  0  0  0  0  0
   16.4581   71.0447   -6.4452 C   0  0  0  0  0  0  0  0  0  0  0  0
   16.1874   71.8914   -7.4405 C   0  0  0  0  0  0  0  0  0  0  0  0
   15.5581   73.1917   -7.1295 C   0  0  0  0  0  0  0  0  0  0  0  0
   14.8836   74.2604   -5.5447 H   0  0  0  0  0  0  0  0  0  0  0  0
   21.2990   71.7671   -4.0715 O   0  0  0  0  0  0  0  0  0  0  0  0
   22.4600   72.6825   -3.4173 P   0  0  2  0  0  0  0  0  0  0  0  0
   21.9222   74.1901   -3.6586 O   0  0  0  0  0  0  0  0  0  0  0  0
   23.8329   72.4205   -3.9654 O   0  0  0  0  0  0  0  0  0  0  0  0
   22.3180   72.4491   -1.8274 O   0  0  0  0  0  0  0  0  0  0  0  0
   23.6014   72.1163    0.1350 O   0  0  0  0  0  0  0  0  0  0  0  0
   21.0855   68.8402    0.2103 O   0  0  0  0  0  0  0  0  0  0  0  0
   22.3133   69.7073   -2.2947 O   0  0  0  0  0  0  0  0  0  0  0  0
   20.6080   71.0880    1.9909 O   0  0  0  0  0  0  0  0  0  0  0  0
   21.4627   70.1874   -0.0739 C   0  0  2  0  0  0  0  0  0  0  0  0
   22.6737   70.1938   -1.0071 C   0  0  2  0  0  0  0  0  0  0  0  0
   21.8079   70.8714    1.2508 C   0  0  1  0  0  0  0  0  0  0  0  0
   23.2468   71.6045   -1.1501 C   0  0  1  0  0  0  0  0  0  0  0  0
   22.4894   72.2174    1.0218 C   0  0  1  0  0  0  0  0  0  0  0  0
   20.8617   68.3855   -0.6170 H   0  0  0  0  0  0  0  0  0  0  0  0
   21.9486   68.8126   -2.2114 H   0  0  0  0  0  0  0  0  0  0  0  0
   20.1643   70.2390    2.1433 H   0  0  0  0  0  0  0  0  0  0  0  0
   23.8407   73.8371    2.0474 O   0  0  0  0  0  0  0  0  0  0  0  0
   22.9841   72.1997    3.3832 O   0  0  0  0  0  0  0  0  0  0  0  0
   23.1116   72.7186    2.2843 C   0  0  0  0  0  0  0  0  0  0  0  0
  1  4  1  0
  1 24  1  0
  1  2  1  1
  1  3  2  0
 25 28  1  0
 25 24  1  0
 25 26  1  1
 25 27  2  0
  6 11  1  0
  6 12  1  0
 29 36  1  0
 29 37  1  0
  9  7  1  1
  7 13  1  0
 10  8  1  1
  8 14  1  0
  4  5  1  0
 36 28  1  1
 33 30  1  1
 30 38  1  0
 34 31  1  6
 31 39  1  0
 35 32  1  6
 32 40  1  0
 41 43  1  0
 15 19  2  0
 42 43  2  0
 16 22  2  0
 12 17  1  6
 17 19  1  0
 17 20  1  0
 18 19  1  0
 18 22  1  0
 18 23  1  0
  9 10  1  0
  9 11  1  0
 10 12  1  0
 11  5  1  6
 33 34  1  0
 33 35  1  0
 34 36  1  0
 35 37  1  0
 37 43  1  1
 20 21  2  0
 21 22  1  0
M  CHG  3   2  -1  26  -1  41  -1
M  END
>  <COMPND>  (85) 
    udp_gluA.pdb 

>  <AUTHOR>  (85) 
    GENERATED BY OPEN BABEL 3.1.1

>  <MASTER>  (85) 
        0    0    0    0    0    0    0    0   56    0   56    0

>  <minimizedAffinity>  (85) 
-8.04265

>  <CNNscore>  (85) 
0.5229898691

>  <CNNaffinity>  (85) 
4.1571855545

>  <CNN_VS>  (85) 
2.1741659641

>  <CNNaffinity_variance>  (85) 
0.5173509717

$$$$
86
     RDKit          3D

 43 45  0  0  0  0  0  0  0  0999 V2000
   22.5285   74.6019   -4.6649 P   0  0  2  0  0  0  0  0  0  0  0  0
   21.5146   75.8621   -4.7152 O   0  0  0  0  0  0  0  0  0  0  0  0
   23.9856   74.9607   -4.6632 O   0  0  0  0  0  0  0  0  0  0  0  0
   22.0383   73.6600   -5.8858 O   0  0  0  0  0  0  0  0  0  0  0  0
   21.0591   72.6710   -5.6256 C   0  0  0  0  0  0  0  0  0  0  0  0
   19.7646   71.0536   -6.8445 O   0  0  0  0  0  0  0  0  0  0  0  0
   18.7254   73.3666   -8.4449 O   0  0  0  0  0  0  0  0  0  0  0  0
   16.6841   72.8824   -6.7030 O   0  0  0  0  0  0  0  0  0  0  0  0
   19.0527   73.3028   -7.0566 C   0  0  1  0  0  0  0  0  0  0  0  0
   17.9917   72.5291   -6.3031 C   0  0  2  0  0  0  0  0  0  0  0  0
   20.2721   72.4042   -6.9023 C   0  0  1  0  0  0  0  0  0  0  0  0
   18.3417   71.0924   -6.6516 C   0  0  2  0  0  0  0  0  0  0  0  0
   17.9489   73.9354   -8.5686 H   0  0  0  0  0  0  0  0  0  0  0  0
   16.5096   73.8053   -6.4587 H   0  0  0  0  0  0  0  0  0  0  0  0
   15.8412   69.7946   -6.4516 O   0  0  0  0  0  0  0  0  0  0  0  0
   17.0902   67.5858   -2.6038 O   0  0  0  0  0  0  0  0  0  0  0  0
   17.9867   70.1732   -5.6077 N   0  0  0  0  0  0  0  0  0  0  0  0
   16.4653   68.6965   -4.5348 N   0  0  0  0  0  0  0  0  0  0  0  0
   16.7041   69.5758   -5.5992 C   0  0  0  0  0  0  0  0  0  0  0  0
   18.9039   69.8705   -4.6086 C   0  0  0  0  0  0  0  0  0  0  0  0
   18.6618   69.0303   -3.6005 C   0  0  0  0  0  0  0  0  0  0  0  0
   17.3453   68.3645   -3.5175 C   0  0  0  0  0  0  0  0  0  0  0  0
   15.5784   68.2699   -4.5064 H   0  0  0  0  0  0  0  0  0  0  0  0
   22.0335   73.7897   -3.3579 O   0  0  0  0  0  0  0  0  0  0  0  0
   22.6368   73.7206   -1.8597 P   0  0  2  0  0  0  0  0  0  0  0  0
   21.3504   74.0328   -0.9281 O   0  0  0  0  0  0  0  0  0  0  0  0
   23.8066   74.6317   -1.6242 O   0  0  0  0  0  0  0  0  0  0  0  0
   22.9467   72.1564   -1.6150 O   0  0  0  0  0  0  0  0  0  0  0  0
   23.2291   70.2184   -2.9467 O   0  0  0  0  0  0  0  0  0  0  0  0
   20.8176   68.8042    0.0951 O   0  0  0  0  0  0  0  0  0  0  0  0
   20.3141   71.4230   -1.0977 O   0  0  0  0  0  0  0  0  0  0  0  0
   23.6488   68.1458    0.0516 O   0  0  0  0  0  0  0  0  0  0  0  0
   21.8267   69.6249   -0.4933 C   0  0  2  0  0  0  0  0  0  0  0  0
   21.2165   70.4558   -1.6223 C   0  0  2  0  0  0  0  0  0  0  0  0
   22.9229   68.7077   -1.0401 C   0  0  1  0  0  0  0  0  0  0  0  0
   22.3042   71.1725   -2.4236 C   0  0  1  0  0  0  0  0  0  0  0  0
   23.8969   69.4734   -1.9308 C   0  0  1  0  0  0  0  0  0  0  0  0
   20.1101   69.3654    0.4495 H   0  0  0  0  0  0  0  0  0  0  0  0
   19.6214   70.9752   -0.5879 H   0  0  0  0  0  0  0  0  0  0  0  0
   23.0403   67.6557    0.6265 H   0  0  0  0  0  0  0  0  0  0  0  0
   24.3064   67.2577   -2.5823 O   0  0  0  0  0  0  0  0  0  0  0  0
   25.7216   68.8559   -3.3837 O   0  0  0  0  0  0  0  0  0  0  0  0
   24.7528   68.5314   -2.7134 C   0  0  0  0  0  0  0  0  0  0  0  0
  1  4  1  0
  1 24  1  0
  1  2  1  6
  1  3  2  0
 25 28  1  0
 25 24  1  0
 25 26  1  1
 25 27  2  0
  6 11  1  0
  6 12  1  0
 29 36  1  0
 29 37  1  0
  9  7  1  6
  7 13  1  0
 10  8  1  6
  8 14  1  0
  4  5  1  0
 36 28  1  1
 33 30  1  6
 30 38  1  0
 34 31  1  1
 31 39  1  0
 35 32  1  1
 32 40  1  0
 41 43  1  0
 15 19  2  0
 42 43  2  0
 16 22  2  0
 12 17  1  1
 17 19  1  0
 17 20  1  0
 18 19  1  0
 18 22  1  0
 18 23  1  0
  9 10  1  0
  9 11  1  0
 10 12  1  0
 11  5  1  1
 33 34  1  0
 33 35  1  0
 34 36  1  0
 35 37  1  0
 37 43  1  6
 20 21  2  0
 21 22  1  0
M  CHG  3   2  -1  26  -1  41  -1
M  END
>  <COMPND>  (86) 
    udp_gluA.pdb 

>  <AUTHOR>  (86) 
    GENERATED BY OPEN BABEL 3.1.1

>  <MASTER>  (86) 
        0    0    0    0    0    0    0    0   56    0   56    0

>  <minimizedAffinity>  (86) 
-8.13976

>  <CNNscore>  (86) 
0.5191257596

>  <CNNaffinity>  (86) 
4.3191289902

>  <CNN_VS>  (86) 
2.2421710491

>  <CNNaffinity_variance>  (86) 
0.6125622988

$$$$
87
     RDKit          3D

 43 45  0  0  0  0  0  0  0  0999 V2000
   22.5085   73.1670   -3.5606 P   0  0  2  0  0  0  0  0  0  0  0  0
   23.8833   72.7620   -4.3121 O   0  0  0  0  0  0  0  0  0  0  0  0
   22.4892   74.5491   -2.9764 O   0  0  0  0  0  0  0  0  0  0  0  0
   22.2678   71.9579   -2.5127 O   0  0  0  0  0  0  0  0  0  0  0  0
   22.6149   72.1606   -1.1552 C   0  0  0  0  0  0  0  0  0  0  0  0
   21.8991   69.8725   -0.9823 O   0  0  0  0  0  0  0  0  0  0  0  0
   21.5388   70.4012    1.9473 O   0  0  0  0  0  0  0  0  0  0  0  0
   23.9231   69.0802    1.8690 O   0  0  0  0  0  0  0  0  0  0  0  0
   22.5340   70.9020    1.0543 C   0  0  1  0  0  0  0  0  0  0  0  0
   23.5384   69.8173    0.7274 C   0  0  2  0  0  0  0  0  0  0  0  0
   21.8745   71.1432   -0.2966 C   0  0  1  0  0  0  0  0  0  0  0  0
   22.7766   68.9761   -0.2825 C   0  0  2  0  0  0  0  0  0  0  0  0
   21.9366   70.2394    2.8175 H   0  0  0  0  0  0  0  0  0  0  0  0
   24.4046   69.6596    2.4809 H   0  0  0  0  0  0  0  0  0  0  0  0
   23.1793   66.1857   -0.4507 O   0  0  0  0  0  0  0  0  0  0  0  0
   26.1331   66.6395   -3.9597 O   0  0  0  0  0  0  0  0  0  0  0  0
   23.6454   68.3381   -1.2307 N   0  0  0  0  0  0  0  0  0  0  0  0
   24.6508   66.4144   -2.1976 N   0  0  0  0  0  0  0  0  0  0  0  0
   23.7768   66.9293   -1.2311 C   0  0  0  0  0  0  0  0  0  0  0  0
   24.3542   69.1051   -2.1473 C   0  0  0  0  0  0  0  0  0  0  0  0
   25.1836   68.6000   -3.0627 C   0  0  0  0  0  0  0  0  0  0  0  0
   25.3781   67.1368   -3.1297 C   0  0  0  0  0  0  0  0  0  0  0  0
   24.7603   65.4362   -2.2159 H   0  0  0  0  0  0  0  0  0  0  0  0
   21.3844   72.8978   -4.6905 O   0  0  0  0  0  0  0  0  0  0  0  0
   19.9407   73.5827   -4.9358 P   0  0  2  0  0  0  0  0  0  0  0  0
   19.9711   73.9557   -6.5107 O   0  0  0  0  0  0  0  0  0  0  0  0
   19.6484   74.7444   -4.0308 O   0  0  0  0  0  0  0  0  0  0  0  0
   18.8867   72.3665   -4.8257 O   0  0  0  0  0  0  0  0  0  0  0  0
   19.1724   70.0464   -4.4450 O   0  0  0  0  0  0  0  0  0  0  0  0
   15.9870   70.0806   -7.0756 O   0  0  0  0  0  0  0  0  0  0  0  0
   18.2684   71.8578   -7.4894 O   0  0  0  0  0  0  0  0  0  0  0  0
   15.5397   69.5699   -4.2489 O   0  0  0  0  0  0  0  0  0  0  0  0
   16.8155   70.5800   -6.0257 C   0  0  2  0  0  0  0  0  0  0  0  0
   18.2362   70.7891   -6.5505 C   0  0  2  0  0  0  0  0  0  0  0  0
   16.8128   69.5523   -4.8918 C   0  0  1  0  0  0  0  0  0  0  0  0
   19.2015   71.1021   -5.4063 C   0  0  1  0  0  0  0  0  0  0  0  0
   17.8874   69.8647   -3.8544 C   0  0  1  0  0  0  0  0  0  0  0  0
   15.9734   70.7172   -7.8076 H   0  0  0  0  0  0  0  0  0  0  0  0
   17.6579   71.6660   -8.2180 H   0  0  0  0  0  0  0  0  0  0  0  0
   14.8467   69.3727   -4.8984 H   0  0  0  0  0  0  0  0  0  0  0  0
   19.4015   68.6094   -2.5763 O   0  0  0  0  0  0  0  0  0  0  0  0
   17.2243   67.9319   -2.5713 O   0  0  0  0  0  0  0  0  0  0  0  0
   18.0989   68.7001   -2.9426 C   0  0  0  0  0  0  0  0  0  0  0  0
  1  4  1  0
  1 24  1  0
  1  2  1  6
  1  3  2  0
 25 28  1  0
 25 24  1  0
 25 26  1  6
 25 27  2  0
  6 11  1  0
  6 12  1  0
 29 36  1  0
 29 37  1  0
  9  7  1  1
  7 13  1  0
 10  8  1  1
  8 14  1  0
  4  5  1  0
 36 28  1  1
 33 30  1  6
 30 38  1  0
 34 31  1  6
 31 39  1  0
 35 32  1  1
 32 40  1  0
 41 43  1  0
 15 19  2  0
 42 43  2  0
 16 22  2  0
 12 17  1  6
 17 19  1  0
 17 20  1  0
 18 19  1  0
 18 22  1  0
 18 23  1  0
  9 10  1  0
  9 11  1  0
 10 12  1  0
 11  5  1  6
 33 34  1  0
 33 35  1  0
 34 36  1  0
 35 37  1  0
 37 43  1  1
 20 21  2  0
 21 22  1  0
M  CHG  3   2  -1  26  -1  41  -1
M  END
>  <COMPND>  (87) 
    udp_gluA.pdb 

>  <AUTHOR>  (87) 
    GENERATED BY OPEN BABEL 3.1.1

>  <MASTER>  (87) 
        0    0    0    0    0    0    0    0   56    0   56    0

>  <minimizedAffinity>  (87) 
-9.07455

>  <CNNscore>  (87) 
0.4195058644

>  <CNNaffinity>  (87) 
4.1757345200

>  <CNN_VS>  (87) 
1.7517451048

>  <CNNaffinity_variance>  (87) 
1.3309844732

$$$$
88
     RDKit          3D

 43 45  0  0  0  0  0  0  0  0999 V2000
   20.4548   73.1807   -2.1869 P   0  0  2  0  0  0  0  0  0  0  0  0
   22.0062   73.0516   -2.6286 O   0  0  0  0  0  0  0  0  0  0  0  0
   19.5729   73.8916   -3.1711 O   0  0  0  0  0  0  0  0  0  0  0  0
   20.5249   73.8326   -0.7077 O   0  0  0  0  0  0  0  0  0  0  0  0
   21.5153   74.8099   -0.4458 C   0  0  0  0  0  0  0  0  0  0  0  0
   21.6401   73.5322    1.5864 O   0  0  0  0  0  0  0  0  0  0  0  0
   23.1495   75.8548    2.7347 O   0  0  0  0  0  0  0  0  0  0  0  0
   25.1385   74.0862    2.1416 O   0  0  0  0  0  0  0  0  0  0  0  0
   23.1784   75.3247    1.4093 C   0  0  1  0  0  0  0  0  0  0  0  0
   23.9493   74.0219    1.3826 C   0  0  2  0  0  0  0  0  0  0  0  0
   21.7696   74.8687    1.0550 C   0  0  1  0  0  0  0  0  0  0  0  0
   22.9388   73.0457    1.9605 C   0  0  2  0  0  0  0  0  0  0  0  0
   24.0388   76.1528    2.9836 H   0  0  0  0  0  0  0  0  0  0  0  0
   25.7490   74.7205    1.7330 H   0  0  0  0  0  0  0  0  0  0  0  0
   23.1225   70.7270    3.5625 O   0  0  0  0  0  0  0  0  0  0  0  0
   23.5767   67.9957   -0.1223 O   0  0  0  0  0  0  0  0  0  0  0  0
   23.1053   71.7159    1.4458 N   0  0  0  0  0  0  0  0  0  0  0  0
   23.3495   69.3689    1.7258 N   0  0  0  0  0  0  0  0  0  0  0  0
   23.1867   70.6194    2.3364 C   0  0  0  0  0  0  0  0  0  0  0  0
   23.1846   71.5079    0.0742 C   0  0  0  0  0  0  0  0  0  0  0  0
   23.3397   70.3101   -0.4931 C   0  0  0  0  0  0  0  0  0  0  0  0
   23.4343   69.1122    0.3669 C   0  0  0  0  0  0  0  0  0  0  0  0
   23.4108   68.5906    2.3255 H   0  0  0  0  0  0  0  0  0  0  0  0
   20.0335   71.6488   -1.8892 O   0  0  0  0  0  0  0  0  0  0  0  0
   20.2887   70.2944   -2.7343 P   0  0  2  0  0  0  0  0  0  0  0  0
   20.0418   69.1251   -1.6425 O   0  0  0  0  0  0  0  0  0  0  0  0
   21.6268   70.2347   -3.4126 O   0  0  0  0  0  0  0  0  0  0  0  0
   19.0264   70.1916   -3.7336 O   0  0  0  0  0  0  0  0  0  0  0  0
   17.2760   71.7393   -4.1206 O   0  0  0  0  0  0  0  0  0  0  0  0
   15.3628   68.1320   -4.7492 O   0  0  0  0  0  0  0  0  0  0  0  0
   17.2262   68.4516   -2.5221 O   0  0  0  0  0  0  0  0  0  0  0  0
   16.1164   69.7975   -7.0096 O   0  0  0  0  0  0  0  0  0  0  0  0
   16.4642   69.0403   -4.7489 C   0  0  2  0  0  0  0  0  0  0  0  0
   16.7319   69.5196   -3.3220 C   0  0  2  0  0  0  0  0  0  0  0  0
   16.1013   70.2239   -5.6486 C   0  0  1  0  0  0  0  0  0  0  0  0
   17.7482   70.6623   -3.3103 C   0  0  1  0  0  0  0  0  0  0  0  0
   17.0934   71.3719   -5.4861 C   0  0  1  0  0  0  0  0  0  0  0  0
   15.5705   67.3715   -4.1838 H   0  0  0  0  0  0  0  0  0  0  0  0
   16.5864   67.7229   -2.5253 H   0  0  0  0  0  0  0  0  0  0  0  0
   15.4892   69.0668   -7.1265 H   0  0  0  0  0  0  0  0  0  0  0  0
   17.0983   73.7173   -5.5059 O   0  0  0  0  0  0  0  0  0  0  0  0
   15.7540   72.6673   -7.0189 O   0  0  0  0  0  0  0  0  0  0  0  0
   16.5608   72.6245   -6.1023 C   0  0  0  0  0  0  0  0  0  0  0  0
  1  4  1  0
  1 24  1  0
  1  2  1  6
  1  3  2  0
 25 28  1  0
 25 24  1  0
 25 26  1  1
 25 27  2  0
  6 11  1  0
  6 12  1  0
 29 36  1  0
 29 37  1  0
  9  7  1  1
  7 13  1  0
 10  8  1  1
  8 14  1  0
  4  5  1  0
 36 28  1  6
 33 30  1  1
 30 38  1  0
 34 31  1  1
 31 39  1  0
 35 32  1  6
 32 40  1  0
 41 43  1  0
 15 19  2  0
 42 43  2  0
 16 22  2  0
 12 17  1  6
 17 19  1  0
 17 20  1  0
 18 19  1  0
 18 22  1  0
 18 23  1  0
  9 10  1  0
  9 11  1  0
 10 12  1  0
 11  5  1  6
 33 34  1  0
 33 35  1  0
 34 36  1  0
 35 37  1  0
 37 43  1  6
 20 21  2  0
 21 22  1  0
M  CHG  3   2  -1  26  -1  41  -1
M  END
>  <COMPND>  (88) 
    udp_gluA.pdb 

>  <AUTHOR>  (88) 
    GENERATED BY OPEN BABEL 3.1.1

>  <MASTER>  (88) 
        0    0    0    0    0    0    0    0   56    0   56    0

>  <minimizedAffinity>  (88) 
-7.28257

>  <CNNscore>  (88) 
0.4057585299

>  <CNNaffinity>  (88) 
4.0323901176

>  <CNN_VS>  (88) 
1.6361767054

>  <CNNaffinity_variance>  (88) 
0.3451403081

$$$$
89
     RDKit          3D

 43 45  0  0  0  0  0  0  0  0999 V2000
   21.3732   70.7639   -2.6310 P   0  0  2  0  0  0  0  0  0  0  0  0
   22.5724   69.7139   -2.9107 O   0  0  0  0  0  0  0  0  0  0  0  0
   20.8326   70.7500   -1.2312 O   0  0  0  0  0  0  0  0  0  0  0  0
   20.3010   70.4499   -3.8014 O   0  0  0  0  0  0  0  0  0  0  0  0
   19.8192   69.1258   -3.9395 C   0  0  0  0  0  0  0  0  0  0  0  0
   17.7540   70.1398   -3.2435 O   0  0  0  0  0  0  0  0  0  0  0  0
   16.9105   67.3933   -2.3851 O   0  0  0  0  0  0  0  0  0  0  0  0
   15.6234   67.6938   -4.7703 O   0  0  0  0  0  0  0  0  0  0  0  0
   17.6996   67.7866   -3.5082 C   0  0  1  0  0  0  0  0  0  0  0  0
   16.8224   68.4129   -4.5714 C   0  0  2  0  0  0  0  0  0  0  0  0
   18.5711   68.9601   -3.0821 C   0  0  1  0  0  0  0  0  0  0  0  0
   16.5840   69.8024   -4.0053 C   0  0  2  0  0  0  0  0  0  0  0  0
   16.3451   66.6447   -2.6330 H   0  0  0  0  0  0  0  0  0  0  0  0
   15.8286   66.8167   -5.1318 H   0  0  0  0  0  0  0  0  0  0  0  0
   15.3587   72.3145   -3.5995 O   0  0  0  0  0  0  0  0  0  0  0  0
   15.9132   73.5031   -8.0181 O   0  0  0  0  0  0  0  0  0  0  0  0
   16.3953   70.7876   -5.0322 N   0  0  0  0  0  0  0  0  0  0  0  0
   15.6351   72.9037   -5.8008 N   0  0  0  0  0  0  0  0  0  0  0  0
   15.7680   72.0177   -4.7235 C   0  0  0  0  0  0  0  0  0  0  0  0
   16.8304   70.5320   -6.3269 C   0  0  0  0  0  0  0  0  0  0  0  0
   16.6969   71.3863   -7.3433 C   0  0  0  0  0  0  0  0  0  0  0  0
   16.0514   72.6941   -7.1056 C   0  0  0  0  0  0  0  0  0  0  0  0
   15.1996   73.7659   -5.6108 H   0  0  0  0  0  0  0  0  0  0  0  0
   22.0118   72.1754   -3.0922 O   0  0  0  0  0  0  0  0  0  0  0  0
   21.3646   73.6541   -3.1828 P   0  0  2  0  0  0  0  0  0  0  0  0
   22.6526   74.6287   -3.0762 O   0  0  0  0  0  0  0  0  0  0  0  0
   20.2989   73.9236   -2.1603 O   0  0  0  0  0  0  0  0  0  0  0  0
   20.8744   73.7932   -4.7134 O   0  0  0  0  0  0  0  0  0  0  0  0
   21.6186   72.7072   -6.6822 O   0  0  0  0  0  0  0  0  0  0  0  0
   20.5789   76.4375   -8.1216 O   0  0  0  0  0  0  0  0  0  0  0  0
   22.0139   76.1740   -5.5906 O   0  0  0  0  0  0  0  0  0  0  0  0
   18.8455   74.1536   -8.6006 O   0  0  0  0  0  0  0  0  0  0  0  0
   20.4889   75.3005   -7.2632 C   0  0  2  0  0  0  0  0  0  0  0  0
   21.8116   75.1150   -6.5191 C   0  0  2  0  0  0  0  0  0  0  0  0
   20.1899   74.0756   -8.1305 C   0  0  1  0  0  0  0  0  0  0  0  0
   21.8347   73.7830   -5.7681 C   0  0  1  0  0  0  0  0  0  0  0  0
   20.3564   72.7802   -7.3415 C   0  0  1  0  0  0  0  0  0  0  0  0
   20.7686   77.2282   -7.5923 H   0  0  0  0  0  0  0  0  0  0  0  0
   22.0001   77.0223   -6.0603 H   0  0  0  0  0  0  0  0  0  0  0  0
   18.7261   74.9738   -9.1044 H   0  0  0  0  0  0  0  0  0  0  0  0
   20.5778   71.9971   -9.5413 O   0  0  0  0  0  0  0  0  0  0  0  0
   20.2638   70.4368   -7.9085 O   0  0  0  0  0  0  0  0  0  0  0  0
   20.3882   71.6009   -8.2583 C   0  0  0  0  0  0  0  0  0  0  0  0
  1  4  1  0
  1 24  1  0
  1  2  1  1
  1  3  2  0
 25 28  1  0
 25 24  1  0
 25 26  1  1
 25 27  2  0
  6 11  1  0
  6 12  1  0
 29 36  1  0
 29 37  1  0
  9  7  1  1
  7 13  1  0
 10  8  1  1
  8 14  1  0
  4  5  1  0
 36 28  1  1
 33 30  1  6
 30 38  1  0
 34 31  1  1
 31 39  1  0
 35 32  1  1
 32 40  1  0
 41 43  1  0
 15 19  2  0
 42 43  2  0
 16 22  2  0
 12 17  1  6
 17 19  1  0
 17 20  1  0
 18 19  1  0
 18 22  1  0
 18 23  1  0
  9 10  1  0
  9 11  1  0
 10 12  1  0
 11  5  1  6
 33 34  1  0
 33 35  1  0
 34 36  1  0
 35 37  1  0
 37 43  1  6
 20 21  2  0
 21 22  1  0
M  CHG  3   2  -1  26  -1  41  -1
M  END
>  <COMPND>  (89) 
    udp_gluA.pdb 

>  <AUTHOR>  (89) 
    GENERATED BY OPEN BABEL 3.1.1

>  <MASTER>  (89) 
        0    0    0    0    0    0    0    0   56    0   56    0

>  <minimizedAffinity>  (89) 
-6.79270

>  <CNNscore>  (89) 
0.3875785470

>  <CNNaffinity>  (89) 
4.0531907082

>  <CNN_VS>  (89) 
1.5709297657

>  <CNNaffinity_variance>  (89) 
0.6447116733

$$$$
90
     RDKit          3D

 43 45  0  0  0  0  0  0  0  0999 V2000
   23.9797   75.4869   -3.9458 P   0  0  2  0  0  0  0  0  0  0  0  0
   24.1189   76.3733   -2.5990 O   0  0  0  0  0  0  0  0  0  0  0  0
   25.1705   75.5290   -4.8579 O   0  0  0  0  0  0  0  0  0  0  0  0
   22.5812   75.9804   -4.5928 O   0  0  0  0  0  0  0  0  0  0  0  0
   22.3675   75.7761   -5.9774 C   0  0  0  0  0  0  0  0  0  0  0  0
   20.6933   76.0688   -7.6771 O   0  0  0  0  0  0  0  0  0  0  0  0
   19.1808   77.6774   -5.6482 O   0  0  0  0  0  0  0  0  0  0  0  0
   17.9038   75.2692   -5.5714 O   0  0  0  0  0  0  0  0  0  0  0  0
   19.9888   76.5154   -5.4601 C   0  0  1  0  0  0  0  0  0  0  0  0
   19.2616   75.2850   -5.9597 C   0  0  2  0  0  0  0  0  0  0  0  0
   21.1666   76.6015   -6.4211 C   0  0  1  0  0  0  0  0  0  0  0  0
   19.4383   75.4032   -7.4639 C   0  0  2  0  0  0  0  0  0  0  0  0
   18.4216   77.6449   -5.0447 H   0  0  0  0  0  0  0  0  0  0  0  0
   17.8446   75.1924   -4.6057 H   0  0  0  0  0  0  0  0  0  0  0  0
   17.1466   73.9646   -8.2731 O   0  0  0  0  0  0  0  0  0  0  0  0
   19.6871   70.5034   -9.9493 O   0  0  0  0  0  0  0  0  0  0  0  0
   19.4721   74.1237   -8.1140 N   0  0  0  0  0  0  0  0  0  0  0  0
   18.4140   72.2416   -9.1063 N   0  0  0  0  0  0  0  0  0  0  0  0
   18.2632   73.4855   -8.4793 C   0  0  0  0  0  0  0  0  0  0  0  0
   20.6917   73.5153   -8.3848 C   0  0  0  0  0  0  0  0  0  0  0  0
   20.8195   72.3294   -8.9832 C   0  0  0  0  0  0  0  0  0  0  0  0
   19.6051   71.5959   -9.3962 C   0  0  0  0  0  0  0  0  0  0  0  0
   17.5864   71.7772   -9.3680 H   0  0  0  0  0  0  0  0  0  0  0  0
   23.6186   74.0174   -3.3773 O   0  0  0  0  0  0  0  0  0  0  0  0
   22.3428   73.4885   -2.5368 P   0  0  2  0  0  0  0  0  0  0  0  0
   21.2192   73.2544   -3.6783 O   0  0  0  0  0  0  0  0  0  0  0  0
   21.9148   74.4035   -1.4262 O   0  0  0  0  0  0  0  0  0  0  0  0
   22.7542   72.0034   -2.0598 O   0  0  0  0  0  0  0  0  0  0  0  0
   23.1946   69.9168   -3.0900 O   0  0  0  0  0  0  0  0  0  0  0  0
   20.8372   68.7929    0.1112 O   0  0  0  0  0  0  0  0  0  0  0  0
   20.1713   71.1659   -1.4572 O   0  0  0  0  0  0  0  0  0  0  0  0
   23.7080   68.3408    0.1834 O   0  0  0  0  0  0  0  0  0  0  0  0
   21.7959   69.5892   -0.5850 C   0  0  2  0  0  0  0  0  0  0  0  0
   21.1481   70.1999   -1.8279 C   0  0  2  0  0  0  0  0  0  0  0  0
   22.9630   68.6832   -0.9838 C   0  0  1  0  0  0  0  0  0  0  0  0
   22.1962   70.8681   -2.7189 C   0  0  1  0  0  0  0  0  0  0  0  0
   23.8958   69.3785   -1.9712 C   0  0  1  0  0  0  0  0  0  0  0  0
   20.0860   69.3476    0.3746 H   0  0  0  0  0  0  0  0  0  0  0  0
   19.5032   70.7488   -0.8915 H   0  0  0  0  0  0  0  0  0  0  0  0
   23.1257   67.8976    0.8201 H   0  0  0  0  0  0  0  0  0  0  0  0
   24.4355   67.1255   -2.3376 O   0  0  0  0  0  0  0  0  0  0  0  0
   25.8117   68.6889   -3.2656 O   0  0  0  0  0  0  0  0  0  0  0  0
   24.8289   68.3962   -2.6011 C   0  0  0  0  0  0  0  0  0  0  0  0
  1  4  1  0
  1 24  1  0
  1  2  1  1
  1  3  2  0
 25 28  1  0
 25 24  1  0
 25 26  1  6
 25 27  2  0
  6 11  1  0
  6 12  1  0
 29 36  1  0
 29 37  1  0
  9  7  1  6
  7 13  1  0
 10  8  1  6
  8 14  1  0
  4  5  1  0
 36 28  1  1
 33 30  1  6
 30 38  1  0
 34 31  1  1
 31 39  1  0
 35 32  1  1
 32 40  1  0
 41 43  1  0
 15 19  2  0
 42 43  2  0
 16 22  2  0
 12 17  1  6
 17 19  1  0
 17 20  1  0
 18 19  1  0
 18 22  1  0
 18 23  1  0
  9 10  1  0
  9 11  1  0
 10 12  1  0
 11  5  1  1
 33 34  1  0
 33 35  1  0
 34 36  1  0
 35 37  1  0
 37 43  1  6
 20 21  2  0
 21 22  1  0
M  CHG  3   2  -1  26  -1  41  -1
M  END
>  <COMPND>  (90) 
    udp_gluA.pdb 

>  <AUTHOR>  (90) 
    GENERATED BY OPEN BABEL 3.1.1

>  <MASTER>  (90) 
        0    0    0    0    0    0    0    0   56    0   56    0

>  <minimizedAffinity>  (90) 
-6.94751

>  <CNNscore>  (90) 
0.3840881884

>  <CNNaffinity>  (90) 
4.0670208931

>  <CNN_VS>  (90) 
1.5620946884

>  <CNNaffinity_variance>  (90) 
0.1570289880

$$$$
91
     RDKit          3D

 43 45  0  0  0  0  0  0  0  0999 V2000
   21.9642   72.3086   -4.0684 P   0  0  2  0  0  0  0  0  0  0  0  0
   21.2207   73.3309   -3.0579 O   0  0  0  0  0  0  0  0  0  0  0  0
   23.2496   72.8174   -4.6521 O   0  0  0  0  0  0  0  0  0  0  0  0
   20.8150   71.9139   -5.1368 O   0  0  0  0  0  0  0  0  0  0  0  0
   20.7608   72.6195   -6.3631 C   0  0  0  0  0  0  0  0  0  0  0  0
   19.2595   70.7761   -6.7176 O   0  0  0  0  0  0  0  0  0  0  0  0
   18.9768   71.7881   -9.5260 O   0  0  0  0  0  0  0  0  0  0  0  0
   16.7030   72.7036   -8.3311 O   0  0  0  0  0  0  0  0  0  0  0  0
   19.1277   72.5234   -8.3115 C   0  0  1  0  0  0  0  0  0  0  0  0
   17.8387   72.4949   -7.5179 C   0  0  2  0  0  0  0  0  0  0  0  0
   20.0757   71.7474   -7.4073 C   0  0  1  0  0  0  0  0  0  0  0  0
   17.8740   71.1037   -6.9087 C   0  0  2  0  0  0  0  0  0  0  0  0
   18.3752   72.2644  -10.1201 H   0  0  0  0  0  0  0  0  0  0  0  0
   16.7267   73.6031   -8.6949 H   0  0  0  0  0  0  0  0  0  0  0  0
   16.3224   68.9131   -6.0309 O   0  0  0  0  0  0  0  0  0  0  0  0
   15.3368   70.9796   -2.0307 O   0  0  0  0  0  0  0  0  0  0  0  0
   17.2008   71.0429   -5.6422 N   0  0  0  0  0  0  0  0  0  0  0  0
   15.8322   69.9449   -4.0398 N   0  0  0  0  0  0  0  0  0  0  0  0
   16.4468   69.8961   -5.2980 C   0  0  0  0  0  0  0  0  0  0  0  0
   17.2923   72.1094   -4.7561 C   0  0  0  0  0  0  0  0  0  0  0  0
   16.7009   72.1413   -3.5603 C   0  0  0  0  0  0  0  0  0  0  0  0
   15.8935   70.9830   -3.1244 C   0  0  0  0  0  0  0  0  0  0  0  0
   15.3000   69.1587   -3.7789 H   0  0  0  0  0  0  0  0  0  0  0  0
   22.1125   70.9654   -3.1815 O   0  0  0  0  0  0  0  0  0  0  0  0
   21.0957   70.2647   -2.1380 P   0  0  2  0  0  0  0  0  0  0  0  0
   21.3581   68.6844   -2.3704 O   0  0  0  0  0  0  0  0  0  0  0  0
   19.6630   70.6838   -2.2986 O   0  0  0  0  0  0  0  0  0  0  0  0
   21.7243   70.5724   -0.6846 O   0  0  0  0  0  0  0  0  0  0  0  0
   23.2890   72.2205   -0.0175 O   0  0  0  0  0  0  0  0  0  0  0  0
   24.1953   69.1128    2.5495 O   0  0  0  0  0  0  0  0  0  0  0  0
   23.6292   68.5890   -0.2683 O   0  0  0  0  0  0  0  0  0  0  0  0
   22.7156   71.4204    3.5171 O   0  0  0  0  0  0  0  0  0  0  0  0
   23.3507   69.9272    1.7362 C   0  0  2  0  0  0  0  0  0  0  0  0
   23.8373   69.8822    0.2875 C   0  0  2  0  0  0  0  0  0  0  0  0
   23.4129   71.3584    2.2744 C   0  0  1  0  0  0  0  0  0  0  0  0
   23.1039   70.9159   -0.5683 C   0  0  1  0  0  0  0  0  0  0  0  0
   22.7709   72.3465    1.3050 C   0  0  1  0  0  0  0  0  0  0  0  0
   24.1718   68.1984    2.2262 H   0  0  0  0  0  0  0  0  0  0  0  0
   24.0916   67.9280    0.2700 H   0  0  0  0  0  0  0  0  0  0  0  0
   23.1143   70.7959    4.1432 H   0  0  0  0  0  0  0  0  0  0  0  0
   24.2702   73.7868    2.3910 O   0  0  0  0  0  0  0  0  0  0  0  0
   22.4714   74.7399    1.3638 O   0  0  0  0  0  0  0  0  0  0  0  0
   23.1220   73.7521    1.6702 C   0  0  0  0  0  0  0  0  0  0  0  0
  1  4  1  0
  1 24  1  0
  1  2  1  1
  1  3  2  0
 25 28  1  0
 25 24  1  0
 25 26  1  6
 25 27  2  0
  6 11  1  0
  6 12  1  0
 29 36  1  0
 29 37  1  0
  9  7  1  6
  7 13  1  0
 10  8  1  6
  8 14  1  0
  4  5  1  0
 36 28  1  1
 33 30  1  1
 30 38  1  0
 34 31  1  6
 31 39  1  0
 35 32  1  1
 32 40  1  0
 41 43  1  0
 15 19  2  0
 42 43  2  0
 16 22  2  0
 12 17  1  1
 17 19  1  0
 17 20  1  0
 18 19  1  0
 18 22  1  0
 18 23  1  0
  9 10  1  0
  9 11  1  0
 10 12  1  0
 11  5  1  1
 33 34  1  0
 33 35  1  0
 34 36  1  0
 35 37  1  0
 37 43  1  1
 20 21  2  0
 21 22  1  0
M  CHG  3   2  -1  26  -1  41  -1
M  END
>  <COMPND>  (91) 
    udp_gluA.pdb 

>  <AUTHOR>  (91) 
    GENERATED BY OPEN BABEL 3.1.1

>  <MASTER>  (91) 
        0    0    0    0    0    0    0    0   56    0   56    0

>  <minimizedAffinity>  (91) 
-8.05212

>  <CNNscore>  (91) 
0.3839400709

>  <CNNaffinity>  (91) 
4.1439752579

>  <CNN_VS>  (91) 
1.5910381079

>  <CNNaffinity_variance>  (91) 
0.2213246822

$$$$
92
     RDKit          3D

 43 45  0  0  0  0  0  0  0  0999 V2000
   19.3145   69.5041   -3.4201 P   0  0  2  0  0  0  0  0  0  0  0  0
   18.7566   68.0349   -3.8064 O   0  0  0  0  0  0  0  0  0  0  0  0
   20.3766   70.0393   -4.3351 O   0  0  0  0  0  0  0  0  0  0  0  0
   19.7334   69.3638   -1.8636 O   0  0  0  0  0  0  0  0  0  0  0  0
   20.5563   70.3641   -1.2921 C   0  0  0  0  0  0  0  0  0  0  0  0
   21.7467   68.5433   -0.2696 O   0  0  0  0  0  0  0  0  0  0  0  0
   22.3920   70.4554    1.9483 O   0  0  0  0  0  0  0  0  0  0  0  0
   24.6981   70.4306    0.4932 O   0  0  0  0  0  0  0  0  0  0  0  0
   22.2823   70.7016    0.5462 C   0  0  1  0  0  0  0  0  0  0  0  0
   23.4894   70.1460   -0.1795 C   0  0  2  0  0  0  0  0  0  0  0  0
   21.1562   69.8326    0.0033 C   0  0  1  0  0  0  0  0  0  0  0  0
   23.1775   68.6597   -0.2182 C   0  0  2  0  0  0  0  0  0  0  0  0
   23.1054   70.9997    2.3177 H   0  0  0  0  0  0  0  0  0  0  0  0
   24.8518   71.3889    0.4904 H   0  0  0  0  0  0  0  0  0  0  0  0
   24.1291   70.0150   -2.5060 O   0  0  0  0  0  0  0  0  0  0  0  0
   25.3165   66.0704   -4.5734 O   0  0  0  0  0  0  0  0  0  0  0  0
   23.7404   68.0115   -1.3688 N   0  0  0  0  0  0  0  0  0  0  0  0
   24.7187   68.0490   -3.5339 N   0  0  0  0  0  0  0  0  0  0  0  0
   24.1886   68.7846   -2.4658 C   0  0  0  0  0  0  0  0  0  0  0  0
   23.8455   66.6263   -1.4023 C   0  0  0  0  0  0  0  0  0  0  0  0
   24.3531   65.9392   -2.4275 C   0  0  0  0  0  0  0  0  0  0  0  0
   24.8434   66.6714   -3.6136 C   0  0  0  0  0  0  0  0  0  0  0  0
   25.0354   68.5653   -4.3100 H   0  0  0  0  0  0  0  0  0  0  0  0
   17.9690   70.3976   -3.3552 O   0  0  0  0  0  0  0  0  0  0  0  0
   16.9111   70.8085   -4.5066 P   0  0  2  0  0  0  0  0  0  0  0  0
   16.0256   71.9647   -3.7997 O   0  0  0  0  0  0  0  0  0  0  0  0
   16.1101   69.6588   -5.0455 O   0  0  0  0  0  0  0  0  0  0  0  0
   17.7909   71.5878   -5.6116 O   0  0  0  0  0  0  0  0  0  0  0  0
   16.5973   72.0362   -7.6074 O   0  0  0  0  0  0  0  0  0  0  0  0
   20.4321   73.1664   -8.6492 O   0  0  0  0  0  0  0  0  0  0  0  0
   19.9746   70.7291   -7.1050 O   0  0  0  0  0  0  0  0  0  0  0  0
   18.4241   75.1853   -8.0636 O   0  0  0  0  0  0  0  0  0  0  0  0
   19.3249   72.9702   -7.7696 C   0  0  2  0  0  0  0  0  0  0  0  0
   18.9517   71.4878   -7.7396 C   0  0  2  0  0  0  0  0  0  0  0  0
   18.1526   73.8038   -8.2917 C   0  0  1  0  0  0  0  0  0  0  0  0
   17.6346   71.2703   -6.9934 C   0  0  1  0  0  0  0  0  0  0  0  0
   16.8509   73.4391   -7.5838 C   0  0  1  0  0  0  0  0  0  0  0  0
   21.1893   72.6461   -8.3373 H   0  0  0  0  0  0  0  0  0  0  0  0
   20.8133   70.8626   -7.5732 H   0  0  0  0  0  0  0  0  0  0  0  0
   19.2503   75.4303   -8.5089 H   0  0  0  0  0  0  0  0  0  0  0  0
   16.0528   74.5114   -9.5112 O   0  0  0  0  0  0  0  0  0  0  0  0
   14.5274   74.0118   -7.8917 O   0  0  0  0  0  0  0  0  0  0  0  0
   15.6749   74.0048   -8.3114 C   0  0  0  0  0  0  0  0  0  0  0  0
  1  4  1  0
  1 24  1  0
  1  2  1  6
  1  3  2  0
 25 28  1  0
 25 24  1  0
 25 26  1  1
 25 27  2  0
  6 11  1  0
  6 12  1  0
 29 36  1  0
 29 37  1  0
  9  7  1  1
  7 13  1  0
 10  8  1  1
  8 14  1  0
  4  5  1  0
 36 28  1  1
 33 30  1  6
 30 38  1  0
 34 31  1  1
 31 39  1  0
 35 32  1  1
 32 40  1  0
 41 43  1  0
 15 19  2  0
 42 43  2  0
 16 22  2  0
 12 17  1  6
 17 19  1  0
 17 20  1  0
 18 19  1  0
 18 22  1  0
 18 23  1  0
  9 10  1  0
  9 11  1  0
 10 12  1  0
 11  5  1  6
 33 34  1  0
 33 35  1  0
 34 36  1  0
 35 37  1  0
 37 43  1  6
 20 21  2  0
 21 22  1  0
M  CHG  3   2  -1  26  -1  41  -1
M  END
>  <COMPND>  (92) 
    udp_gluA.pdb 

>  <AUTHOR>  (92) 
    GENERATED BY OPEN BABEL 3.1.1

>  <MASTER>  (92) 
        0    0    0    0    0    0    0    0   56    0   56    0

>  <minimizedAffinity>  (92) 
-8.36185

>  <CNNscore>  (92) 
0.3600252867

>  <CNNaffinity>  (92) 
4.1871080399

>  <CNN_VS>  (92) 
1.5074647665

>  <CNNaffinity_variance>  (92) 
0.3641221523

$$$$
93
     RDKit          3D

 43 45  0  0  0  0  0  0  0  0999 V2000
   23.2789   73.4208   -3.9716 P   0  0  2  0  0  0  0  0  0  0  0  0
   24.7192   74.1585   -3.9600 O   0  0  0  0  0  0  0  0  0  0  0  0
   22.2452   74.0352   -3.0740 O   0  0  0  0  0  0  0  0  0  0  0  0
   23.6341   71.8702   -3.6758 O   0  0  0  0  0  0  0  0  0  0  0  0
   22.5811   70.9895   -3.3296 C   0  0  0  0  0  0  0  0  0  0  0  0
   23.9619   70.2305   -1.5143 O   0  0  0  0  0  0  0  0  0  0  0  0
   22.6725   67.5508   -1.8995 O   0  0  0  0  0  0  0  0  0  0  0  0
   21.3339   68.5520    0.2550 O   0  0  0  0  0  0  0  0  0  0  0  0
   22.1047   68.8541   -2.0312 C   0  0  1  0  0  0  0  0  0  0  0  0
   21.8844   69.4703   -0.6659 C   0  0  2  0  0  0  0  0  0  0  0  0
   23.1647   69.7704   -2.6270 C   0  0  1  0  0  0  0  0  0  0  0  0
   23.2890   69.9077   -0.2870 C   0  0  2  0  0  0  0  0  0  0  0  0
   22.0137   66.9474   -1.5206 H   0  0  0  0  0  0  0  0  0  0  0  0
   20.4398   68.3047   -0.0303 H   0  0  0  0  0  0  0  0  0  0  0  0
   23.5703   69.8172    2.5218 O   0  0  0  0  0  0  0  0  0  0  0  0
   23.2864   74.4035    2.8809 O   0  0  0  0  0  0  0  0  0  0  0  0
   23.2921   71.0631    0.5651 N   0  0  0  0  0  0  0  0  0  0  0  0
   23.4276   72.1014    2.6981 N   0  0  0  0  0  0  0  0  0  0  0  0
   23.4396   70.9082    1.9638 C   0  0  0  0  0  0  0  0  0  0  0  0
   23.1519   72.3312    0.0145 C   0  0  0  0  0  0  0  0  0  0  0  0
   23.1425   73.4593    0.7273 C   0  0  0  0  0  0  0  0  0  0  0  0
   23.2903   73.3853    2.1957 C   0  0  0  0  0  0  0  0  0  0  0  0
   23.5267   72.0189    3.6741 H   0  0  0  0  0  0  0  0  0  0  0  0
   22.8886   73.4113   -5.5402 O   0  0  0  0  0  0  0  0  0  0  0  0
   21.9311   74.3883   -6.4017 P   0  0  2  0  0  0  0  0  0  0  0  0
   22.7311   74.5519   -7.7994 O   0  0  0  0  0  0  0  0  0  0  0  0
   21.6032   75.6858   -5.7213 O   0  0  0  0  0  0  0  0  0  0  0  0
   20.6479   73.4828   -6.7705 O   0  0  0  0  0  0  0  0  0  0  0  0
   19.9045   71.3909   -5.9456 O   0  0  0  0  0  0  0  0  0  0  0  0
   18.7987   71.1685   -9.9200 O   0  0  0  0  0  0  0  0  0  0  0  0
   21.3930   72.2791   -9.1647 O   0  0  0  0  0  0  0  0  0  0  0  0
   16.7952   71.6676   -7.8737 O   0  0  0  0  0  0  0  0  0  0  0  0
   19.0625   71.8152   -8.6750 C   0  0  2  0  0  0  0  0  0  0  0  0
   20.5213   71.5866   -8.2785 C   0  0  2  0  0  0  0  0  0  0  0  0
   18.1252   71.2172   -7.6235 C   0  0  1  0  0  0  0  0  0  0  0  0
   20.7813   72.0648   -6.8494 C   0  0  1  0  0  0  0  0  0  0  0  0
   18.5267   71.6413   -6.2137 C   0  0  1  0  0  0  0  0  0  0  0  0
   19.3830   71.5323  -10.6038 H   0  0  0  0  0  0  0  0  0  0  0  0
   21.2333   71.9807  -10.0734 H   0  0  0  0  0  0  0  0  0  0  0  0
   16.5275   71.4042   -8.7680 H   0  0  0  0  0  0  0  0  0  0  0  0
   18.6417   69.8176   -4.7432 O   0  0  0  0  0  0  0  0  0  0  0  0
   16.6842   70.9854   -4.8007 O   0  0  0  0  0  0  0  0  0  0  0  0
   17.8286   70.8067   -5.1897 C   0  0  0  0  0  0  0  0  0  0  0  0
  1  4  1  0
  1 24  1  0
  1  2  1  6
  1  3  2  0
 25 28  1  0
 25 24  1  0
 25 26  1  6
 25 27  2  0
  6 11  1  0
  6 12  1  0
 29 36  1  0
 29 37  1  0
  9  7  1  1
  7 13  1  0
 10  8  1  1
  8 14  1  0
  4  5  1  0
 36 28  1  6
 33 30  1  6
 30 38  1  0
 34 31  1  6
 31 39  1  0
 35 32  1  6
 32 40  1  0
 41 43  1  0
 15 19  2  0
 42 43  2  0
 16 22  2  0
 12 17  1  1
 17 19  1  0
 17 20  1  0
 18 19  1  0
 18 22  1  0
 18 23  1  0
  9 10  1  0
  9 11  1  0
 10 12  1  0
 11  5  1  1
 33 34  1  0
 33 35  1  0
 34 36  1  0
 35 37  1  0
 37 43  1  1
 20 21  2  0
 21 22  1  0
M  CHG  3   2  -1  26  -1  41  -1
M  END
>  <COMPND>  (93) 
    udp_gluA.pdb 

>  <AUTHOR>  (93) 
    GENERATED BY OPEN BABEL 3.1.1

>  <MASTER>  (93) 
        0    0    0    0    0    0    0    0   56    0   56    0

>  <minimizedAffinity>  (93) 
-8.32623

>  <CNNscore>  (93) 
0.3464189768

>  <CNNaffinity>  (93) 
4.1218628883

>  <CNN_VS>  (93) 
1.4278914928

>  <CNNaffinity_variance>  (93) 
0.3015589714

$$$$
94
     RDKit          3D

 43 45  0  0  0  0  0  0  0  0999 V2000
   22.4569   73.2404   -3.9988 P   0  0  2  0  0  0  0  0  0  0  0  0
   23.8761   72.4674   -4.0825 O   0  0  0  0  0  0  0  0  0  0  0  0
   22.5005   74.6890   -4.3881 O   0  0  0  0  0  0  0  0  0  0  0  0
   21.9339   72.9313   -2.4992 O   0  0  0  0  0  0  0  0  0  0  0  0
   22.7401   72.1318   -1.6534 C   0  0  0  0  0  0  0  0  0  0  0  0
   21.9961   69.8464   -1.6213 O   0  0  0  0  0  0  0  0  0  0  0  0
   21.1308   70.3627    1.2029 O   0  0  0  0  0  0  0  0  0  0  0  0
   23.4867   69.0304    1.5356 O   0  0  0  0  0  0  0  0  0  0  0  0
   22.2689   70.8629    0.5007 C   0  0  1  0  0  0  0  0  0  0  0  0
   23.3107   69.7749    0.3485 C   0  0  2  0  0  0  0  0  0  0  0  0
   21.8569   71.1138   -0.9434 C   0  0  1  0  0  0  0  0  0  0  0  0
   22.7341   68.9423   -0.7838 C   0  0  2  0  0  0  0  0  0  0  0  0
   21.3695   70.1947    2.1284 H   0  0  0  0  0  0  0  0  0  0  0  0
   23.8560   69.6045    2.2256 H   0  0  0  0  0  0  0  0  0  0  0  0
   23.3354   66.1848   -0.6803 O   0  0  0  0  0  0  0  0  0  0  0  0
   26.6634   66.6056   -3.8412 O   0  0  0  0  0  0  0  0  0  0  0  0
   23.7529   68.3048   -1.5690 N   0  0  0  0  0  0  0  0  0  0  0  0
   24.9930   66.3971   -2.2540 N   0  0  0  0  0  0  0  0  0  0  0  0
   23.9748   66.9132   -1.4416 C   0  0  0  0  0  0  0  0  0  0  0  0
   24.5179   69.0551   -2.4538 C   0  0  0  0  0  0  0  0  0  0  0  0
   25.4849   68.5491   -3.2216 C   0  0  0  0  0  0  0  0  0  0  0  0
   25.7811   67.1033   -3.1484 C   0  0  0  0  0  0  0  0  0  0  0  0
   25.1674   65.4309   -2.1812 H   0  0  0  0  0  0  0  0  0  0  0  0
   21.4906   72.3254   -4.9164 O   0  0  0  0  0  0  0  0  0  0  0  0
   20.1000   72.6700   -5.6655 P   0  0  2  0  0  0  0  0  0  0  0  0
   20.3909   72.2437   -7.1998 O   0  0  0  0  0  0  0  0  0  0  0  0
   19.6437   74.0900   -5.4941 O   0  0  0  0  0  0  0  0  0  0  0  0
   19.0589   71.5624   -5.1256 O   0  0  0  0  0  0  0  0  0  0  0  0
   17.7189   71.7293   -3.1799 O   0  0  0  0  0  0  0  0  0  0  0  0
   18.1192   67.6365   -3.5764 O   0  0  0  0  0  0  0  0  0  0  0  0
   20.4080   69.3979   -4.0162 O   0  0  0  0  0  0  0  0  0  0  0  0
   15.6245   68.9365   -4.3095 O   0  0  0  0  0  0  0  0  0  0  0  0
   18.0172   68.9860   -4.0308 C   0  0  2  0  0  0  0  0  0  0  0  0
   19.1682   69.8093   -3.4521 C   0  0  2  0  0  0  0  0  0  0  0  0
   16.6731   69.5440   -3.5574 C   0  0  1  0  0  0  0  0  0  0  0  0
   18.9665   71.3002   -3.7265 C   0  0  1  0  0  0  0  0  0  0  0  0
   16.5987   71.0560   -3.7499 C   0  0  1  0  0  0  0  0  0  0  0  0
   18.9658   67.2610   -3.8655 H   0  0  0  0  0  0  0  0  0  0  0  0
   20.5424   68.4527   -3.8461 H   0  0  0  0  0  0  0  0  0  0  0  0
   15.6608   67.9739   -4.1957 H   0  0  0  0  0  0  0  0  0  0  0  0
   15.1103   70.8343   -1.9508 O   0  0  0  0  0  0  0  0  0  0  0  0
   14.8727   72.6740   -3.2767 O   0  0  0  0  0  0  0  0  0  0  0  0
   15.4432   71.6304   -2.9969 C   0  0  0  0  0  0  0  0  0  0  0  0
  1  4  1  0
  1 24  1  0
  1  2  1  1
  1  3  2  0
 25 28  1  0
 25 24  1  0
 25 26  1  6
 25 27  2  0
  6 11  1  0
  6 12  1  0
 29 36  1  0
 29 37  1  0
  9  7  1  1
  7 13  1  0
 10  8  1  1
  8 14  1  0
  4  5  1  0
 36 28  1  6
 33 30  1  1
 30 38  1  0
 34 31  1  6
 31 39  1  0
 35 32  1  6
 32 40  1  0
 41 43  1  0
 15 19  2  0
 42 43  2  0
 16 22  2  0
 12 17  1  6
 17 19  1  0
 17 20  1  0
 18 19  1  0
 18 22  1  0
 18 23  1  0
  9 10  1  0
  9 11  1  0
 10 12  1  0
 11  5  1  6
 33 34  1  0
 33 35  1  0
 34 36  1  0
 35 37  1  0
 37 43  1  1
 20 21  2  0
 21 22  1  0
M  CHG  3   2  -1  26  -1  41  -1
M  END
>  <COMPND>  (94) 
    udp_gluA.pdb 

>  <AUTHOR>  (94) 
    GENERATED BY OPEN BABEL 3.1.1

>  <MASTER>  (94) 
        0    0    0    0    0    0    0    0   56    0   56    0

>  <minimizedAffinity>  (94) 
-8.63869

>  <CNNscore>  (94) 
0.3429998159

>  <CNNaffinity>  (94) 
4.1584086418

>  <CNN_VS>  (94) 
1.4263334274

>  <CNNaffinity_variance>  (94) 
0.9035190344

$$$$
95
     RDKit          3D

 43 45  0  0  0  0  0  0  0  0999 V2000
   19.4665   69.8302   -3.0093 P   0  0  2  0  0  0  0  0  0  0  0  0
   19.7733   69.2779   -1.5194 O   0  0  0  0  0  0  0  0  0  0  0  0
   20.2132   69.1342   -4.1092 O   0  0  0  0  0  0  0  0  0  0  0  0
   19.7147   71.4247   -2.8913 O   0  0  0  0  0  0  0  0  0  0  0  0
   19.6224   72.0307   -1.6150 C   0  0  0  0  0  0  0  0  0  0  0  0
   21.7944   72.0028   -0.5858 O   0  0  0  0  0  0  0  0  0  0  0  0
   22.4507   74.3444   -2.3401 O   0  0  0  0  0  0  0  0  0  0  0  0
   23.6428   72.2686   -3.6463 O   0  0  0  0  0  0  0  0  0  0  0  0
   21.6437   73.2012   -2.6234 C   0  0  1  0  0  0  0  0  0  0  0  0
   22.5173   71.9841   -2.8420 C   0  0  2  0  0  0  0  0  0  0  0  0
   20.8923   72.8299   -1.3523 C   0  0  1  0  0  0  0  0  0  0  0  0
   22.8953   71.6076   -1.4196 C   0  0  2  0  0  0  0  0  0  0  0  0
   22.9406   74.6005   -3.1376 H   0  0  0  0  0  0  0  0  0  0  0  0
   23.3496   72.5024   -4.5415 H   0  0  0  0  0  0  0  0  0  0  0  0
   23.1241   70.2910    1.0685 O   0  0  0  0  0  0  0  0  0  0  0  0
   23.7361   66.1928   -0.9500 O   0  0  0  0  0  0  0  0  0  0  0  0
   23.1146   70.1972   -1.2659 N   0  0  0  0  0  0  0  0  0  0  0  0
   23.4297   68.2512    0.0608 N   0  0  0  0  0  0  0  0  0  0  0  0
   23.2148   69.6354    0.0289 C   0  0  0  0  0  0  0  0  0  0  0  0
   23.2263   69.3863   -2.3888 C   0  0  0  0  0  0  0  0  0  0  0  0
   23.4310   68.0684   -2.3424 C   0  0  0  0  0  0  0  0  0  0  0  0
   23.5483   67.4031   -1.0283 C   0  0  0  0  0  0  0  0  0  0  0  0
   23.5050   67.8377    0.9511 H   0  0  0  0  0  0  0  0  0  0  0  0
   17.8572   69.7197   -3.1131 O   0  0  0  0  0  0  0  0  0  0  0  0
   16.8518   69.9966   -4.3484 P   0  0  2  0  0  0  0  0  0  0  0  0
   16.1988   71.4311   -3.9794 O   0  0  0  0  0  0  0  0  0  0  0  0
   15.8501   68.9034   -4.5841 O   0  0  0  0  0  0  0  0  0  0  0  0
   17.8190   70.3003   -5.6033 O   0  0  0  0  0  0  0  0  0  0  0  0
   18.9293   72.3464   -6.0392 O   0  0  0  0  0  0  0  0  0  0  0  0
   18.5930   70.7473   -9.8337 O   0  0  0  0  0  0  0  0  0  0  0  0
   16.3616   70.5848   -7.9551 O   0  0  0  0  0  0  0  0  0  0  0  0
   21.1494   70.6975   -8.4506 O   0  0  0  0  0  0  0  0  0  0  0  0
   18.7404   70.7146   -8.4141 C   0  0  2  0  0  0  0  0  0  0  0  0
   17.5279   71.3758   -7.7583 C   0  0  2  0  0  0  0  0  0  0  0  0
   20.0199   71.4729   -8.0540 C   0  0  1  0  0  0  0  0  0  0  0  0
   17.7533   71.5660   -6.2577 C   0  0  1  0  0  0  0  0  0  0  0  0
   20.1095   71.7330   -6.5530 C   0  0  1  0  0  0  0  0  0  0  0  0
   17.7861   70.2713  -10.0862 H   0  0  0  0  0  0  0  0  0  0  0  0
   16.2127   70.4598   -8.9051 H   0  0  0  0  0  0  0  0  0  0  0  0
   21.1044   70.5248   -9.4040 H   0  0  0  0  0  0  0  0  0  0  0  0
   20.6195   73.8915   -5.7899 O   0  0  0  0  0  0  0  0  0  0  0  0
   22.3699   72.5621   -6.3964 O   0  0  0  0  0  0  0  0  0  0  0  0
   21.1700   72.7415   -6.2518 C   0  0  0  0  0  0  0  0  0  0  0  0
  1  4  1  0
  1 24  1  0
  1  2  1  1
  1  3  2  0
 25 28  1  0
 25 24  1  0
 25 26  1  1
 25 27  2  0
  6 11  1  0
  6 12  1  0
 29 36  1  0
 29 37  1  0
  9  7  1  1
  7 13  1  0
 10  8  1  6
  8 14  1  0
  4  5  1  0
 36 28  1  1
 33 30  1  6
 30 38  1  0
 34 31  1  1
 31 39  1  0
 35 32  1  1
 32 40  1  0
 41 43  1  0
 15 19  2  0
 42 43  2  0
 16 22  2  0
 12 17  1  6
 17 19  1  0
 17 20  1  0
 18 19  1  0
 18 22  1  0
 18 23  1  0
  9 10  1  0
  9 11  1  0
 10 12  1  0
 11  5  1  6
 33 34  1  0
 33 35  1  0
 34 36  1  0
 35 37  1  0
 37 43  1  6
 20 21  2  0
 21 22  1  0
M  CHG  3   2  -1  26  -1  41  -1
M  END
>  <COMPND>  (95) 
    udp_gluA.pdb 

>  <AUTHOR>  (95) 
    GENERATED BY OPEN BABEL 3.1.1

>  <MASTER>  (95) 
        0    0    0    0    0    0    0    0   56    0   56    0

>  <minimizedAffinity>  (95) 
-8.18792

>  <CNNscore>  (95) 
0.3381854296

>  <CNNaffinity>  (95) 
4.1507310867

>  <CNN_VS>  (95) 
1.4037168026

>  <CNNaffinity_variance>  (95) 
0.3291436136

$$$$
96
     RDKit          3D

 43 45  0  0  0  0  0  0  0  0999 V2000
   22.7012   73.6650   -3.6725 P   0  0  2  0  0  0  0  0  0  0  0  0
   23.8589   72.5986   -4.0486 O   0  0  0  0  0  0  0  0  0  0  0  0
   23.1427   75.0990   -3.6537 O   0  0  0  0  0  0  0  0  0  0  0  0
   22.0884   73.1003   -2.2857 O   0  0  0  0  0  0  0  0  0  0  0  0
   22.8894   72.2448   -1.4913 C   0  0  0  0  0  0  0  0  0  0  0  0
   22.0396   69.9966   -1.4560 O   0  0  0  0  0  0  0  0  0  0  0  0
   21.3117   70.5147    1.4063 O   0  0  0  0  0  0  0  0  0  0  0  0
   23.6131   69.0690    1.6291 O   0  0  0  0  0  0  0  0  0  0  0  0
   22.4437   70.9704    0.6651 C   0  0  1  0  0  0  0  0  0  0  0  0
   23.4259   69.8369    0.4587 C   0  0  2  0  0  0  0  0  0  0  0  0
   21.9876   71.2599   -0.7584 C   0  0  1  0  0  0  0  0  0  0  0  0
   22.7663   69.0476   -0.6593 C   0  0  2  0  0  0  0  0  0  0  0  0
   21.5785   70.3233    2.3195 H   0  0  0  0  0  0  0  0  0  0  0  0
   24.0360   69.6158    2.3104 H   0  0  0  0  0  0  0  0  0  0  0  0
   23.2161   66.2595   -0.6357 O   0  0  0  0  0  0  0  0  0  0  0  0
   26.4582   66.5707   -3.8970 O   0  0  0  0  0  0  0  0  0  0  0  0
   23.7220   68.3736   -1.4919 N   0  0  0  0  0  0  0  0  0  0  0  0
   24.8311   66.4173   -2.2593 N   0  0  0  0  0  0  0  0  0  0  0  0
   23.8701   66.9693   -1.4021 C   0  0  0  0  0  0  0  0  0  0  0  0
   24.4985   69.1012   -2.3855 C   0  0  0  0  0  0  0  0  0  0  0  0
   25.4104   68.5610   -3.1963 C   0  0  0  0  0  0  0  0  0  0  0  0
   25.6278   67.0998   -3.1643 C   0  0  0  0  0  0  0  0  0  0  0  0
   24.9536   65.4415   -2.2134 H   0  0  0  0  0  0  0  0  0  0  0  0
   21.5390   73.3323   -4.7455 O   0  0  0  0  0  0  0  0  0  0  0  0
   21.4149   73.6828   -6.3189 P   0  0  2  0  0  0  0  0  0  0  0  0
   22.7018   72.9435   -6.9651 O   0  0  0  0  0  0  0  0  0  0  0  0
   21.3309   75.1517   -6.6177 O   0  0  0  0  0  0  0  0  0  0  0  0
   20.1507   72.8219   -6.8316 O   0  0  0  0  0  0  0  0  0  0  0  0
   19.1638   70.9270   -5.8095 O   0  0  0  0  0  0  0  0  0  0  0  0
   18.3669   70.2380   -9.8043 O   0  0  0  0  0  0  0  0  0  0  0  0
   20.9787   71.2442   -8.9674 O   0  0  0  0  0  0  0  0  0  0  0  0
   16.2559   71.1663   -8.0342 O   0  0  0  0  0  0  0  0  0  0  0  0
   18.5848   71.0299   -8.6366 C   0  0  2  0  0  0  0  0  0  0  0  0
   19.9814   70.7493   -8.0813 C   0  0  2  0  0  0  0  0  0  0  0  0
   17.5172   70.6562   -7.6058 C   0  0  1  0  0  0  0  0  0  0  0  0
   20.1659   71.4007   -6.7100 C   0  0  1  0  0  0  0  0  0  0  0  0
   17.8391   71.2408   -6.2335 C   0  0  1  0  0  0  0  0  0  0  0  0
   19.0338   70.4582  -10.4736 H   0  0  0  0  0  0  0  0  0  0  0  0
   20.8674   70.8353   -9.8396 H   0  0  0  0  0  0  0  0  0  0  0  0
   16.0393   70.8021   -8.9067 H   0  0  0  0  0  0  0  0  0  0  0  0
   17.7194   69.7441   -4.4315 O   0  0  0  0  0  0  0  0  0  0  0  0
   15.8041   70.8431   -4.9997 O   0  0  0  0  0  0  0  0  0  0  0  0
   16.9908   70.6117   -5.1767 C   0  0  0  0  0  0  0  0  0  0  0  0
  1  4  1  0
  1 24  1  0
  1  2  1  6
  1  3  2  0
 25 28  1  0
 25 24  1  0
 25 26  1  6
 25 27  2  0
  6 11  1  0
  6 12  1  0
 29 36  1  0
 29 37  1  0
  9  7  1  1
  7 13  1  0
 10  8  1  1
  8 14  1  0
  4  5  1  0
 36 28  1  6
 33 30  1  6
 30 38  1  0
 34 31  1  6
 31 39  1  0
 35 32  1  6
 32 40  1  0
 41 43  1  0
 15 19  2  0
 42 43  2  0
 16 22  2  0
 12 17  1  6
 17 19  1  0
 17 20  1  0
 18 19  1  0
 18 22  1  0
 18 23  1  0
  9 10  1  0
  9 11  1  0
 10 12  1  0
 11  5  1  6
 33 34  1  0
 33 35  1  0
 34 36  1  0
 35 37  1  0
 37 43  1  1
 20 21  2  0
 21 22  1  0
M  CHG  3   2  -1  26  -1  41  -1
M  END
>  <COMPND>  (96) 
    udp_gluA.pdb 

>  <AUTHOR>  (96) 
    GENERATED BY OPEN BABEL 3.1.1

>  <MASTER>  (96) 
        0    0    0    0    0    0    0    0   56    0   56    0

>  <minimizedAffinity>  (96) 
-9.16190

>  <CNNscore>  (96) 
0.3226447105

>  <CNNaffinity>  (96) 
4.3058772087

>  <CNN_VS>  (96) 
1.3892685175

>  <CNNaffinity_variance>  (96) 
0.5041959882

$$$$
97
     RDKit          3D

 43 45  0  0  0  0  0  0  0  0999 V2000
   21.8982   72.1594   -3.8674 P   0  0  2  0  0  0  0  0  0  0  0  0
   21.3662   73.2677   -2.8149 O   0  0  0  0  0  0  0  0  0  0  0  0
   23.3514   72.2711   -4.2247 O   0  0  0  0  0  0  0  0  0  0  0  0
   20.8603   72.2681   -5.1039 O   0  0  0  0  0  0  0  0  0  0  0  0
   20.0951   71.1273   -5.4466 C   0  0  0  0  0  0  0  0  0  0  0  0
   18.8945   72.9955   -6.3664 O   0  0  0  0  0  0  0  0  0  0  0  0
   17.1336   70.9683   -7.7010 O   0  0  0  0  0  0  0  0  0  0  0  0
   18.7945   71.7376   -9.7223 O   0  0  0  0  0  0  0  0  0  0  0  0
   18.5378   70.9182   -7.4475 C   0  0  1  0  0  0  0  0  0  0  0  0
   19.2751   71.8374   -8.3981 C   0  0  2  0  0  0  0  0  0  0  0  0
   18.7958   71.5795   -6.1005 C   0  0  1  0  0  0  0  0  0  0  0  0
   19.0149   73.2019   -7.7828 C   0  0  2  0  0  0  0  0  0  0  0  0
   16.9442   70.5515   -8.5566 H   0  0  0  0  0  0  0  0  0  0  0  0
   18.9844   70.8513  -10.0692 H   0  0  0  0  0  0  0  0  0  0  0  0
   18.7793   76.0073   -7.5584 O   0  0  0  0  0  0  0  0  0  0  0  0
   23.1821   76.6562   -8.7575 O   0  0  0  0  0  0  0  0  0  0  0  0
   20.0839   74.1275   -8.0306 N   0  0  0  0  0  0  0  0  0  0  0  0
   20.9721   76.3279   -8.1568 N   0  0  0  0  0  0  0  0  0  0  0  0
   19.8606   75.5177   -7.8897 C   0  0  0  0  0  0  0  0  0  0  0  0
   21.3360   73.6566   -8.4066 C   0  0  0  0  0  0  0  0  0  0  0  0
   22.3858   74.4412   -8.6577 C   0  0  0  0  0  0  0  0  0  0  0  0
   22.2367   75.9061   -8.5343 C   0  0  0  0  0  0  0  0  0  0  0  0
   20.8405   77.2995   -8.0674 H   0  0  0  0  0  0  0  0  0  0  0  0
   21.4826   70.7638   -3.1657 O   0  0  0  0  0  0  0  0  0  0  0  0
   20.4785   70.4506   -1.9380 P   0  0  2  0  0  0  0  0  0  0  0  0
   20.2651   68.8489   -2.0340 O   0  0  0  0  0  0  0  0  0  0  0  0
   19.2060   71.2468   -1.9648 O   0  0  0  0  0  0  0  0  0  0  0  0
   21.3736   70.6635   -0.6128 O   0  0  0  0  0  0  0  0  0  0  0  0
   23.3278   71.9810   -0.3796 O   0  0  0  0  0  0  0  0  0  0  0  0
   23.9492   69.0454    2.4602 O   0  0  0  0  0  0  0  0  0  0  0  0
   22.8675   68.3603   -0.1656 O   0  0  0  0  0  0  0  0  0  0  0  0
   23.1426   71.7167    3.2753 O   0  0  0  0  0  0  0  0  0  0  0  0
   23.1782   69.9356    1.6532 C   0  0  2  0  0  0  0  0  0  0  0  0
   23.4202   69.6263    0.1756 C   0  0  2  0  0  0  0  0  0  0  0  0
   23.6158   71.3659    1.9763 C   0  0  1  0  0  0  0  0  0  0  0  0
   22.7957   70.6994   -0.7173 C   0  0  1  0  0  0  0  0  0  0  0  0
   23.0531   72.3622    0.9666 C   0  0  1  0  0  0  0  0  0  0  0  0
   23.6884   68.1301    2.2720 H   0  0  0  0  0  0  0  0  0  0  0  0
   23.2591   67.6747    0.3973 H   0  0  0  0  0  0  0  0  0  0  0  0
   23.4934   71.0902    3.9274 H   0  0  0  0  0  0  0  0  0  0  0  0
   23.1866   74.5886    0.2409 O   0  0  0  0  0  0  0  0  0  0  0  0
   24.6671   73.9265    1.8437 O   0  0  0  0  0  0  0  0  0  0  0  0
   23.7385   73.6843    1.0874 C   0  0  0  0  0  0  0  0  0  0  0  0
  1  4  1  0
  1 24  1  0
  1  2  1  1
  1  3  2  0
 25 28  1  0
 25 24  1  0
 25 26  1  6
 25 27  2  0
  6 11  1  0
  6 12  1  0
 29 36  1  0
 29 37  1  0
  9  7  1  6
  7 13  1  0
 10  8  1  6
  8 14  1  0
  4  5  1  0
 36 28  1  1
 33 30  1  1
 30 38  1  0
 34 31  1  6
 31 39  1  0
 35 32  1  1
 32 40  1  0
 41 43  1  0
 15 19  2  0
 42 43  2  0
 16 22  2  0
 12 17  1  1
 17 19  1  0
 17 20  1  0
 18 19  1  0
 18 22  1  0
 18 23  1  0
  9 10  1  0
  9 11  1  0
 10 12  1  0
 11  5  1  6
 33 34  1  0
 33 35  1  0
 34 36  1  0
 35 37  1  0
 37 43  1  1
 20 21  2  0
 21 22  1  0
M  CHG  3   2  -1  26  -1  41  -1
M  END
>  <COMPND>  (97) 
    udp_gluA.pdb 

>  <AUTHOR>  (97) 
    GENERATED BY OPEN BABEL 3.1.1

>  <MASTER>  (97) 
        0    0    0    0    0    0    0    0   56    0   56    0

>  <minimizedAffinity>  (97) 
-7.06650

>  <CNNscore>  (97) 
0.3030143678

>  <CNNaffinity>  (97) 
3.9203574657

>  <CNN_VS>  (97) 
1.1879246235

>  <CNNaffinity_variance>  (97) 
0.2188035995

$$$$
98
     RDKit          3D

 43 45  0  0  0  0  0  0  0  0999 V2000
   22.3972   73.1233   -4.7122 P   0  0  2  0  0  0  0  0  0  0  0  0
   21.5447   74.2532   -3.9276 O   0  0  0  0  0  0  0  0  0  0  0  0
   23.8811   73.1868   -4.4981 O   0  0  0  0  0  0  0  0  0  0  0  0
   21.9022   73.2590   -6.2467 O   0  0  0  0  0  0  0  0  0  0  0  0
   20.5156   73.3901   -6.5007 C   0  0  0  0  0  0  0  0  0  0  0  0
   19.5796   71.1867   -6.7165 O   0  0  0  0  0  0  0  0  0  0  0  0
   18.9908   71.9180   -9.5643 O   0  0  0  0  0  0  0  0  0  0  0  0
   16.5681   72.2373   -8.3540 O   0  0  0  0  0  0  0  0  0  0  0  0
   18.9478   72.7350   -8.3942 C   0  0  1  0  0  0  0  0  0  0  0  0
   17.7277   72.3974   -7.5638 C   0  0  2  0  0  0  0  0  0  0  0  0
   20.0855   72.3042   -7.4785 C   0  0  1  0  0  0  0  0  0  0  0  0
   18.1553   71.1075   -6.8847 C   0  0  2  0  0  0  0  0  0  0  0  0
   18.2730   72.1746  -10.1648 H   0  0  0  0  0  0  0  0  0  0  0  0
   16.3368   73.0859   -8.7644 H   0  0  0  0  0  0  0  0  0  0  0  0
   15.7165   69.7516   -6.4484 O   0  0  0  0  0  0  0  0  0  0  0  0
   15.8964   70.5110   -1.9058 O   0  0  0  0  0  0  0  0  0  0  0  0
   17.5420   70.9361   -5.5981 N   0  0  0  0  0  0  0  0  0  0  0  0
   15.8079   70.1320   -4.1865 N   0  0  0  0  0  0  0  0  0  0  0  0
   16.3157   70.2388   -5.4880 C   0  0  0  0  0  0  0  0  0  0  0  0
   18.1545   71.4538   -4.4633 C   0  0  0  0  0  0  0  0  0  0  0  0
   17.6584   71.3439   -3.2294 C   0  0  0  0  0  0  0  0  0  0  0  0
   16.3802   70.6306   -3.0274 C   0  0  0  0  0  0  0  0  0  0  0  0
   14.9541   69.6525   -4.0849 H   0  0  0  0  0  0  0  0  0  0  0  0
   21.7054   71.7451   -4.2277 O   0  0  0  0  0  0  0  0  0  0  0  0
   21.9923   70.8083   -2.9418 P   0  0  2  0  0  0  0  0  0  0  0  0
   23.5745   70.4884   -3.0628 O   0  0  0  0  0  0  0  0  0  0  0  0
   21.1194   69.5895   -2.8607 O   0  0  0  0  0  0  0  0  0  0  0  0
   21.8735   71.8022   -1.6766 O   0  0  0  0  0  0  0  0  0  0  0  0
   21.8832   70.2925    0.1482 O   0  0  0  0  0  0  0  0  0  0  0  0
   22.1897   73.9366    2.0703 O   0  0  0  0  0  0  0  0  0  0  0  0
   20.3645   73.6013   -0.1860 O   0  0  0  0  0  0  0  0  0  0  0  0
   24.5239   72.2235    1.8096 O   0  0  0  0  0  0  0  0  0  0  0  0
   22.3886   73.0018    1.0098 C   0  0  2  0  0  0  0  0  0  0  0  0
   21.0332   72.5352    0.4780 C   0  0  2  0  0  0  0  0  0  0  0  0
   23.1788   71.8156    1.5669 C   0  0  1  0  0  0  0  0  0  0  0  0
   21.2001   71.3683   -0.4963 C   0  0  1  0  0  0  0  0  0  0  0  0
   23.1930   70.6461    0.5868 C   0  0  1  0  0  0  0  0  0  0  0  0
   21.6894   74.6993    1.7397 H   0  0  0  0  0  0  0  0  0  0  0  0
   20.2555   74.3453    0.4264 H   0  0  0  0  0  0  0  0  0  0  0  0
   24.5289   72.9675    2.4319 H   0  0  0  0  0  0  0  0  0  0  0  0
   23.4726   68.3209    0.4577 O   0  0  0  0  0  0  0  0  0  0  0  0
   24.1740   69.3483    2.3686 O   0  0  0  0  0  0  0  0  0  0  0  0
   23.6707   69.3988    1.2563 C   0  0  0  0  0  0  0  0  0  0  0  0
  1  4  1  0
  1 24  1  0
  1  2  1  1
  1  3  2  0
 25 28  1  0
 25 24  1  0
 25 26  1  6
 25 27  2  0
  6 11  1  0
  6 12  1  0
 29 36  1  0
 29 37  1  0
  9  7  1  6
  7 13  1  0
 10  8  1  6
  8 14  1  0
  4  5  1  0
 36 28  1  6
 33 30  1  1
 30 38  1  0
 34 31  1  6
 31 39  1  0
 35 32  1  6
 32 40  1  0
 41 43  1  0
 15 19  2  0
 42 43  2  0
 16 22  2  0
 12 17  1  1
 17 19  1  0
 17 20  1  0
 18 19  1  0
 18 22  1  0
 18 23  1  0
  9 10  1  0
  9 11  1  0
 10 12  1  0
 11  5  1  1
 33 34  1  0
 33 35  1  0
 34 36  1  0
 35 37  1  0
 37 43  1  1
 20 21  2  0
 21 22  1  0
M  CHG  3   2  -1  26  -1  41  -1
M  END
>  <COMPND>  (98) 
    udp_gluA.pdb 

>  <AUTHOR>  (98) 
    GENERATED BY OPEN BABEL 3.1.1

>  <MASTER>  (98) 
        0    0    0    0    0    0    0    0   56    0   56    0

>  <minimizedAffinity>  (98) 
-7.85162

>  <CNNscore>  (98) 
0.2718375325

>  <CNNaffinity>  (98) 
4.0335245132

>  <CNN_VS>  (98) 
1.0964633226

>  <CNNaffinity_variance>  (98) 
0.1628442854

$$$$
99
     RDKit          3D

 43 45  0  0  0  0  0  0  0  0999 V2000
   17.4810   69.1164   -3.8672 P   0  0  2  0  0  0  0  0  0  0  0  0
   17.1119   68.2740   -2.5356 O   0  0  0  0  0  0  0  0  0  0  0  0
   16.9586   68.5366   -5.1488 O   0  0  0  0  0  0  0  0  0  0  0  0
   19.0866   69.2964   -3.7804 O   0  0  0  0  0  0  0  0  0  0  0  0
   19.6570   69.6908   -2.5461 C   0  0  0  0  0  0  0  0  0  0  0  0
   20.7737   71.4925   -1.4127 O   0  0  0  0  0  0  0  0  0  0  0  0
   21.4084   72.5671   -4.1392 O   0  0  0  0  0  0  0  0  0  0  0  0
   23.7507   71.3779   -3.4073 O   0  0  0  0  0  0  0  0  0  0  0  0
   21.3420   71.2118   -3.6950 C   0  0  1  0  0  0  0  0  0  0  0  0
   22.5533   70.8770   -2.8507 C   0  0  2  0  0  0  0  0  0  0  0  0
   20.2090   71.1039   -2.6836 C   0  0  1  0  0  0  0  0  0  0  0  0
   22.2051   71.5332   -1.5255 C   0  0  2  0  0  0  0  0  0  0  0  0
   22.1253   72.6608   -4.7864 H   0  0  0  0  0  0  0  0  0  0  0  0
   23.9286   70.9288   -4.2491 H   0  0  0  0  0  0  0  0  0  0  0  0
   22.3785   68.7236   -1.2967 O   0  0  0  0  0  0  0  0  0  0  0  0
   24.4369   69.0030    2.8179 O   0  0  0  0  0  0  0  0  0  0  0  0
   22.7816   70.8452   -0.4051 N   0  0  0  0  0  0  0  0  0  0  0  0
   23.4026   68.8654    0.7528 N   0  0  0  0  0  0  0  0  0  0  0  0
   22.8192   69.4308   -0.3886 C   0  0  0  0  0  0  0  0  0  0  0  0
   23.3030   71.5694    0.6601 C   0  0  0  0  0  0  0  0  0  0  0  0
   23.8561   71.0163    1.7412 C   0  0  0  0  0  0  0  0  0  0  0  0
   23.9340   69.5439    1.8377 C   0  0  0  0  0  0  0  0  0  0  0  0
   23.4383   67.8821    0.7881 H   0  0  0  0  0  0  0  0  0  0  0  0
   16.9303   70.5970   -3.5242 O   0  0  0  0  0  0  0  0  0  0  0  0
   16.8251   71.9279   -4.4359 P   0  0  2  0  0  0  0  0  0  0  0  0
   17.4847   73.0712   -3.4988 O   0  0  0  0  0  0  0  0  0  0  0  0
   15.4353   72.2419   -4.9090 O   0  0  0  0  0  0  0  0  0  0  0  0
   17.8992   71.7004   -5.6177 O   0  0  0  0  0  0  0  0  0  0  0  0
   19.1349   73.1829   -6.9906 O   0  0  0  0  0  0  0  0  0  0  0  0
   18.2458   70.1340   -9.6329 O   0  0  0  0  0  0  0  0  0  0  0  0
   16.2263   71.1051   -7.7585 O   0  0  0  0  0  0  0  0  0  0  0  0
   20.9225   70.3693   -8.5236 O   0  0  0  0  0  0  0  0  0  0  0  0
   18.5431   70.7113   -8.3616 C   0  0  2  0  0  0  0  0  0  0  0  0
   17.4734   71.7441   -8.0058 C   0  0  2  0  0  0  0  0  0  0  0  0
   19.9171   71.3787   -8.4549 C   0  0  1  0  0  0  0  0  0  0  0  0
   17.8768   72.5451   -6.7670 C   0  0  1  0  0  0  0  0  0  0  0  0
   20.1924   72.2594   -7.2396 C   0  0  1  0  0  0  0  0  0  0  0  0
   17.3768   69.7040   -9.5977 H   0  0  0  0  0  0  0  0  0  0  0  0
   15.9644   70.5948   -8.5404 H   0  0  0  0  0  0  0  0  0  0  0  0
   20.7588   69.8016   -9.2929 H   0  0  0  0  0  0  0  0  0  0  0  0
   22.4835   72.6404   -6.9126 O   0  0  0  0  0  0  0  0  0  0  0  0
   21.3317   74.1969   -8.1168 O   0  0  0  0  0  0  0  0  0  0  0  0
   21.3656   73.1512   -7.4855 C   0  0  0  0  0  0  0  0  0  0  0  0
  1  4  1  0
  1 24  1  0
  1  2  1  1
  1  3  2  0
 25 28  1  0
 25 24  1  0
 25 26  1  1
 25 27  2  0
  6 11  1  0
  6 12  1  0
 29 36  1  0
 29 37  1  0
  9  7  1  1
  7 13  1  0
 10  8  1  6
  8 14  1  0
  4  5  1  0
 36 28  1  1
 33 30  1  6
 30 38  1  0
 34 31  1  1
 31 39  1  0
 35 32  1  1
 32 40  1  0
 41 43  1  0
 15 19  2  0
 42 43  2  0
 16 22  2  0
 12 17  1  1
 17 19  1  0
 17 20  1  0
 18 19  1  0
 18 22  1  0
 18 23  1  0
  9 10  1  0
  9 11  1  0
 10 12  1  0
 11  5  1  1
 33 34  1  0
 33 35  1  0
 34 36  1  0
 35 37  1  0
 37 43  1  6
 20 21  2  0
 21 22  1  0
M  CHG  3   2  -1  26  -1  41  -1
M  END
>  <COMPND>  (99) 
    udp_gluA.pdb 

>  <AUTHOR>  (99) 
    GENERATED BY OPEN BABEL 3.1.1

>  <MASTER>  (99) 
        0    0    0    0    0    0    0    0   56    0   56    0

>  <minimizedAffinity>  (99) 
-8.60139

>  <CNNscore>  (99) 
0.2652669549

>  <CNNaffinity>  (99) 
4.0243711472

>  <CNN_VS>  (99) 
1.0675326586

>  <CNNaffinity_variance>  (99) 
0.2773835659

$$$$
100
     RDKit          3D

 43 45  0  0  0  0  0  0  0  0999 V2000
   18.9104   72.9681   -2.5982 P   0  0  2  0  0  0  0  0  0  0  0  0
   19.5844   74.2273   -3.3592 O   0  0  0  0  0  0  0  0  0  0  0  0
   18.6807   73.1651   -1.1284 O   0  0  0  0  0  0  0  0  0  0  0  0
   19.8572   71.7191   -3.0001 O   0  0  0  0  0  0  0  0  0  0  0  0
   21.2569   71.9236   -3.0603 C   0  0  0  0  0  0  0  0  0  0  0  0
   23.1271   70.7701   -2.0860 O   0  0  0  0  0  0  0  0  0  0  0  0
   21.5981   68.2425   -2.6007 O   0  0  0  0  0  0  0  0  0  0  0  0
   21.1705   68.6665    0.0589 O   0  0  0  0  0  0  0  0  0  0  0  0
   21.1138   69.5287   -2.2139 C   0  0  1  0  0  0  0  0  0  0  0  0
   21.4284   69.7906   -0.7562 C   0  0  2  0  0  0  0  0  0  0  0  0
   21.9611   70.5806   -2.9166 C   0  0  1  0  0  0  0  0  0  0  0  0
   22.9042   70.1469   -0.8112 C   0  0  2  0  0  0  0  0  0  0  0  0
   21.0720   67.5538   -2.1641 H   0  0  0  0  0  0  0  0  0  0  0  0
   20.2180   68.4805    0.0613 H   0  0  0  0  0  0  0  0  0  0  0  0
   23.8620   69.3635    1.7276 O   0  0  0  0  0  0  0  0  0  0  0  0
   24.3407   73.7378    3.0990 O   0  0  0  0  0  0  0  0  0  0  0  0
   23.2864   71.0603    0.2283 N   0  0  0  0  0  0  0  0  0  0  0  0
   24.0986   71.5429    2.4086 N   0  0  0  0  0  0  0  0  0  0  0  0
   23.7547   70.5634    1.4676 C   0  0  0  0  0  0  0  0  0  0  0  0
   23.1974   72.4305    0.0148 C   0  0  0  0  0  0  0  0  0  0  0  0
   23.5290   73.3519    0.9214 C   0  0  0  0  0  0  0  0  0  0  0  0
   24.0266   72.9165    2.2428 C   0  0  0  0  0  0  0  0  0  0  0  0
   24.4253   71.2211    3.2798 H   0  0  0  0  0  0  0  0  0  0  0  0
   17.5691   72.6991   -3.4592 O   0  0  0  0  0  0  0  0  0  0  0  0
   17.0749   71.3932   -4.2739 P   0  0  2  0  0  0  0  0  0  0  0  0
   15.6760   71.8746   -4.9310 O   0  0  0  0  0  0  0  0  0  0  0  0
   16.9704   70.1497   -3.4392 O   0  0  0  0  0  0  0  0  0  0  0  0
   18.0924   71.2791   -5.5206 O   0  0  0  0  0  0  0  0  0  0  0  0
   19.4629   72.9202   -6.5393 O   0  0  0  0  0  0  0  0  0  0  0  0
   18.4853   70.5243   -9.7598 O   0  0  0  0  0  0  0  0  0  0  0  0
   16.4632   71.2342   -7.7745 O   0  0  0  0  0  0  0  0  0  0  0  0
   21.1306   70.3562   -8.5659 O   0  0  0  0  0  0  0  0  0  0  0  0
   18.7719   70.8159   -8.3920 C   0  0  2  0  0  0  0  0  0  0  0  0
   17.7545   71.8256   -7.8601 C   0  0  2  0  0  0  0  0  0  0  0  0
   20.1861   71.3960   -8.3184 C   0  0  1  0  0  0  0  0  0  0  0  0
   18.1616   72.3353   -6.4768 C   0  0  1  0  0  0  0  0  0  0  0  0
   20.4709   71.9969   -6.9449 C   0  0  1  0  0  0  0  0  0  0  0  0
   17.5913   70.1544   -9.8313 H   0  0  0  0  0  0  0  0  0  0  0  0
   16.1987   70.9083   -8.6487 H   0  0  0  0  0  0  0  0  0  0  0  0
   20.9601   69.9652   -9.4371 H   0  0  0  0  0  0  0  0  0  0  0  0
   22.0398   73.1435   -8.2584 O   0  0  0  0  0  0  0  0  0  0  0  0
   22.3278   73.2117   -5.9975 O   0  0  0  0  0  0  0  0  0  0  0  0
   21.7037   72.8401   -6.9801 C   0  0  0  0  0  0  0  0  0  0  0  0
  1  4  1  0
  1 24  1  0
  1  2  1  6
  1  3  2  0
 25 28  1  0
 25 24  1  0
 25 26  1  6
 25 27  2  0
  6 11  1  0
  6 12  1  0
 29 36  1  0
 29 37  1  0
  9  7  1  6
  7 13  1  0
 10  8  1  1
  8 14  1  0
  4  5  1  0
 36 28  1  1
 33 30  1  6
 30 38  1  0
 34 31  1  1
 31 39  1  0
 35 32  1  1
 32 40  1  0
 41 43  1  0
 15 19  2  0
 42 43  2  0
 16 22  2  0
 12 17  1  1
 17 19  1  0
 17 20  1  0
 18 19  1  0
 18 22  1  0
 18 23  1  0
  9 10  1  0
  9 11  1  0
 10 12  1  0
 11  5  1  1
 33 34  1  0
 33 35  1  0
 34 36  1  0
 35 37  1  0
 37 43  1  6
 20 21  2  0
 21 22  1  0
M  CHG  3   2  -1  26  -1  41  -1
M  END
>  <COMPND>  (100) 
    udp_gluA.pdb 

>  <AUTHOR>  (100) 
    GENERATED BY OPEN BABEL 3.1.1

>  <MASTER>  (100) 
        0    0    0    0    0    0    0    0   56    0   56    0

>  <minimizedAffinity>  (100) 
-7.74271

>  <CNNscore>  (100) 
0.2546497583

>  <CNNaffinity>  (100) 
3.9523844719

>  <CNN_VS>  (100) 
1.0064737797

>  <CNNaffinity_variance>  (100) 
0.2726550102

$$$$
101
     RDKit          3D

 43 45  0  0  0  0  0  0  0  0999 V2000
   21.4027   70.0949   -2.7551 P   0  0  2  0  0  0  0  0  0  0  0  0
   20.4593   70.5816   -1.5337 O   0  0  0  0  0  0  0  0  0  0  0  0
   22.4181   71.1011   -3.2112 O   0  0  0  0  0  0  0  0  0  0  0  0
   20.3536   69.5954   -3.8811 O   0  0  0  0  0  0  0  0  0  0  0  0
   19.2037   68.8820   -3.4648 C   0  0  0  0  0  0  0  0  0  0  0  0
   18.2827   70.9772   -4.1994 O   0  0  0  0  0  0  0  0  0  0  0  0
   15.6673   69.9977   -3.1078 O   0  0  0  0  0  0  0  0  0  0  0  0
   15.3961   69.5613   -5.7858 O   0  0  0  0  0  0  0  0  0  0  0  0
   16.7058   69.2654   -3.7587 C   0  0  1  0  0  0  0  0  0  0  0  0
   16.7005   69.5566   -5.2444 C   0  0  2  0  0  0  0  0  0  0  0  0
   18.0403   69.8551   -3.3233 C   0  0  1  0  0  0  0  0  0  0  0  0
   17.3617   70.9233   -5.3004 C   0  0  2  0  0  0  0  0  0  0  0  0
   14.8047   69.6390   -3.3705 H   0  0  0  0  0  0  0  0  0  0  0  0
   15.0185   68.6691   -5.7272 H   0  0  0  0  0  0  0  0  0  0  0  0
   16.1834   71.7781   -7.7205 O   0  0  0  0  0  0  0  0  0  0  0  0
   20.2271   71.6956   -9.9307 O   0  0  0  0  0  0  0  0  0  0  0  0
   18.0833   71.1332   -6.5235 N   0  0  0  0  0  0  0  0  0  0  0  0
   18.1983   71.7352   -8.8193 N   0  0  0  0  0  0  0  0  0  0  0  0
   17.3964   71.5633   -7.6833 C   0  0  0  0  0  0  0  0  0  0  0  0
   19.4550   70.9154   -6.5656 C   0  0  0  0  0  0  0  0  0  0  0  0
   20.2060   71.0836   -7.6558 C   0  0  0  0  0  0  0  0  0  0  0  0
   19.5656   71.5306   -8.9102 C   0  0  0  0  0  0  0  0  0  0  0  0
   17.7421   72.0322   -9.6396 H   0  0  0  0  0  0  0  0  0  0  0  0
   22.0278   68.7108   -2.2015 O   0  0  0  0  0  0  0  0  0  0  0  0
   23.1925   68.4317   -1.1155 P   0  0  2  0  0  0  0  0  0  0  0  0
   24.5140   69.0393   -1.8260 O   0  0  0  0  0  0  0  0  0  0  0  0
   23.3180   66.9936   -0.7031 O   0  0  0  0  0  0  0  0  0  0  0  0
   22.8762   69.4501    0.0949 O   0  0  0  0  0  0  0  0  0  0  0  0
   23.4958   71.7316   -0.0469 O   0  0  0  0  0  0  0  0  0  0  0  0
   22.9502   71.2599    4.0210 O   0  0  0  0  0  0  0  0  0  0  0  0
   24.3160   69.2015    2.4616 O   0  0  0  0  0  0  0  0  0  0  0  0
   20.9464   72.6404    2.4304 O   0  0  0  0  0  0  0  0  0  0  0  0
   22.7089   71.0106    2.6362 C   0  0  2  0  0  0  0  0  0  0  0  0
   23.9903   70.4993    1.9774 C   0  0  2  0  0  0  0  0  0  0  0  0
   22.2656   72.3247    1.9893 C   0  0  1  0  0  0  0  0  0  0  0  0
   23.8376   70.4398    0.4569 C   0  0  1  0  0  0  0  0  0  0  0  0
   22.2593   72.2218    0.4668 C   0  0  1  0  0  0  0  0  0  0  0  0
   23.2332   70.4387    4.4531 H   0  0  0  0  0  0  0  0  0  0  0  0
   24.4141   69.2318    3.4258 H   0  0  0  0  0  0  0  0  0  0  0  0
   20.9365   72.7085    3.3979 H   0  0  0  0  0  0  0  0  0  0  0  0
   22.9335   73.6590   -1.2599 O   0  0  0  0  0  0  0  0  0  0  0  0
   21.4528   74.4867    0.2638 O   0  0  0  0  0  0  0  0  0  0  0  0
   22.1505   73.5756   -0.1558 C   0  0  0  0  0  0  0  0  0  0  0  0
  1  4  1  0
  1 24  1  0
  1  2  1  1
  1  3  2  0
 25 28  1  0
 25 24  1  0
 25 26  1  6
 25 27  2  0
  6 11  1  0
  6 12  1  0
 29 36  1  0
 29 37  1  0
  9  7  1  1
  7 13  1  0
 10  8  1  1
  8 14  1  0
  4  5  1  0
 36 28  1  1
 33 30  1  1
 30 38  1  0
 34 31  1  1
 31 39  1  0
 35 32  1  1
 32 40  1  0
 41 43  1  0
 15 19  2  0
 42 43  2  0
 16 22  2  0
 12 17  1  6
 17 19  1  0
 17 20  1  0
 18 19  1  0
 18 22  1  0
 18 23  1  0
  9 10  1  0
  9 11  1  0
 10 12  1  0
 11  5  1  6
 33 34  1  0
 33 35  1  0
 34 36  1  0
 35 37  1  0
 37 43  1  6
 20 21  2  0
 21 22  1  0
M  CHG  3   2  -1  26  -1  41  -1
M  END
>  <COMPND>  (101) 
    udp_gluA.pdb 

>  <AUTHOR>  (101) 
    GENERATED BY OPEN BABEL 3.1.1

>  <MASTER>  (101) 
        0    0    0    0    0    0    0    0   56    0   56    0

>  <minimizedAffinity>  (101) 
-8.46149

>  <CNNscore>  (101) 
0.8305565715

>  <CNNaffinity>  (101) 
4.6413841248

>  <CNN_VS>  (101) 
3.8549320698

>  <CNNaffinity_variance>  (101) 
0.1038761288

$$$$
102
     RDKit          3D

 43 45  0  0  0  0  0  0  0  0999 V2000
   21.8037   72.8663   -4.2917 P   0  0  2  0  0  0  0  0  0  0  0  0
   21.5921   74.4707   -4.3001 O   0  0  0  0  0  0  0  0  0  0  0  0
   23.2295   72.4159   -4.1659 O   0  0  0  0  0  0  0  0  0  0  0  0
   21.0227   72.3646   -5.6169 O   0  0  0  0  0  0  0  0  0  0  0  0
   20.2341   73.2985   -6.3313 C   0  0  0  0  0  0  0  0  0  0  0  0
   19.4115   71.2218   -7.2191 O   0  0  0  0  0  0  0  0  0  0  0  0
   18.0572   72.8727   -9.3243 O   0  0  0  0  0  0  0  0  0  0  0  0
   16.0187   72.3160   -7.6008 O   0  0  0  0  0  0  0  0  0  0  0  0
   18.2705   73.1670   -7.9436 C   0  0  1  0  0  0  0  0  0  0  0  0
   17.3320   72.3488   -7.0822 C   0  0  2  0  0  0  0  0  0  0  0  0
   19.6317   72.6102   -7.5494 C   0  0  1  0  0  0  0  0  0  0  0  0
   18.0002   70.9846   -7.0956 C   0  0  2  0  0  0  0  0  0  0  0  0
   17.1934   73.2188   -9.5994 H   0  0  0  0  0  0  0  0  0  0  0  0
   15.6368   73.2078   -7.5704 H   0  0  0  0  0  0  0  0  0  0  0  0
   15.6165   69.5712   -6.5508 O   0  0  0  0  0  0  0  0  0  0  0  0
   17.1695   68.1723   -2.4428 O   0  0  0  0  0  0  0  0  0  0  0  0
   17.7550   70.2424   -5.8915 N   0  0  0  0  0  0  0  0  0  0  0  0
   16.3918   68.8767   -4.5049 N   0  0  0  0  0  0  0  0  0  0  0  0
   16.5236   69.5678   -5.7165 C   0  0  0  0  0  0  0  0  0  0  0  0
   18.7280   70.1866   -4.9010 C   0  0  0  0  0  0  0  0  0  0  0  0
   18.5879   69.5235   -3.7514 C   0  0  0  0  0  0  0  0  0  0  0  0
   17.3307   68.7926   -3.4895 C   0  0  0  0  0  0  0  0  0  0  0  0
   15.5422   68.4009   -4.3594 H   0  0  0  0  0  0  0  0  0  0  0  0
   20.8353   72.3789   -3.0928 O   0  0  0  0  0  0  0  0  0  0  0  0
   20.6987   72.8888   -1.5647 P   0  0  2  0  0  0  0  0  0  0  0  0
   19.1349   72.6384   -1.2296 O   0  0  0  0  0  0  0  0  0  0  0  0
   21.1604   74.3000   -1.3429 O   0  0  0  0  0  0  0  0  0  0  0  0
   21.4843   71.7824   -0.6923 O   0  0  0  0  0  0  0  0  0  0  0  0
   23.3508   72.8599    0.2897 O   0  0  0  0  0  0  0  0  0  0  0  0
   23.7320   69.0161    1.7553 O   0  0  0  0  0  0  0  0  0  0  0  0
   22.9929   69.4708   -1.0342 O   0  0  0  0  0  0  0  0  0  0  0  0
   22.7435   71.1419    3.4743 O   0  0  0  0  0  0  0  0  0  0  0  0
   23.0319   70.1695    1.2888 C   0  0  2  0  0  0  0  0  0  0  0  0
   23.4576   70.4809   -0.1462 C   0  0  2  0  0  0  0  0  0  0  0  0
   23.3789   71.3391    2.2126 C   0  0  1  0  0  0  0  0  0  0  0  0
   22.9068   71.8338   -0.5989 C   0  0  1  0  0  0  0  0  0  0  0  0
   22.9058   72.6680    1.6307 C   0  0  1  0  0  0  0  0  0  0  0  0
   23.5269   68.2598    1.1833 H   0  0  0  0  0  0  0  0  0  0  0  0
   23.3384   68.6095   -0.7527 H   0  0  0  0  0  0  0  0  0  0  0  0
   23.0360   70.2993    3.8554 H   0  0  0  0  0  0  0  0  0  0  0  0
   24.7200   73.4565    2.8910 O   0  0  0  0  0  0  0  0  0  0  0  0
   23.0342   74.9301    2.4601 O   0  0  0  0  0  0  0  0  0  0  0  0
   23.5263   73.8164    2.3576 C   0  0  0  0  0  0  0  0  0  0  0  0
  1  4  1  0
  1 24  1  0
  1  2  1  6
  1  3  2  0
 25 28  1  0
 25 24  1  0
 25 26  1  1
 25 27  2  0
  6 11  1  0
  6 12  1  0
 29 36  1  0
 29 37  1  0
  9  7  1  6
  7 13  1  0
 10  8  1  6
  8 14  1  0
  4  5  1  0
 36 28  1  1
 33 30  1  1
 30 38  1  0
 34 31  1  6
 31 39  1  0
 35 32  1  1
 32 40  1  0
 41 43  1  0
 15 19  2  0
 42 43  2  0
 16 22  2  0
 12 17  1  1
 17 19  1  0
 17 20  1  0
 18 19  1  0
 18 22  1  0
 18 23  1  0
  9 10  1  0
  9 11  1  0
 10 12  1  0
 11  5  1  1
 33 34  1  0
 33 35  1  0
 34 36  1  0
 35 37  1  0
 37 43  1  1
 20 21  2  0
 21 22  1  0
M  CHG  3   2  -1  26  -1  41  -1
M  END
>  <COMPND>  (102) 
    udp_gluA.pdb 

>  <AUTHOR>  (102) 
    GENERATED BY OPEN BABEL 3.1.1

>  <MASTER>  (102) 
        0    0    0    0    0    0    0    0   56    0   56    0

>  <minimizedAffinity>  (102) 
-7.62428

>  <CNNscore>  (102) 
0.7426446080

>  <CNNaffinity>  (102) 
4.5100827217

>  <CNN_VS>  (102) 
3.3493885994

>  <CNNaffinity_variance>  (102) 
0.2012389451

$$$$
103
     RDKit          3D

 43 45  0  0  0  0  0  0  0  0999 V2000
   21.8310   69.2280   -1.6468 P   0  0  2  0  0  0  0  0  0  0  0  0
   22.0912   70.7139   -2.2327 O   0  0  0  0  0  0  0  0  0  0  0  0
   22.7020   68.1549   -2.2312 O   0  0  0  0  0  0  0  0  0  0  0  0
   20.2371   69.0138   -1.8249 O   0  0  0  0  0  0  0  0  0  0  0  0
   19.6736   69.1717   -3.1141 C   0  0  0  0  0  0  0  0  0  0  0  0
   18.4599   71.0236   -4.0493 O   0  0  0  0  0  0  0  0  0  0  0  0
   16.0674   69.9493   -2.5955 O   0  0  0  0  0  0  0  0  0  0  0  0
   15.6489   69.0889   -5.1490 O   0  0  0  0  0  0  0  0  0  0  0  0
   17.1331   69.2411   -3.2290 C   0  0  1  0  0  0  0  0  0  0  0  0
   16.9818   69.3033   -4.7342 C   0  0  2  0  0  0  0  0  0  0  0  0
   18.4178   70.0269   -3.0052 C   0  0  1  0  0  0  0  0  0  0  0  0
   17.4714   70.7079   -5.0426 C   0  0  2  0  0  0  0  0  0  0  0  0
   15.2358   69.4663   -2.7249 H   0  0  0  0  0  0  0  0  0  0  0  0
   15.3845   68.1809   -4.9307 H   0  0  0  0  0  0  0  0  0  0  0  0
   16.0188   70.7794   -7.4636 O   0  0  0  0  0  0  0  0  0  0  0  0
   19.8699   71.0869   -9.9773 O   0  0  0  0  0  0  0  0  0  0  0  0
   18.0693   70.8064   -6.3441 N   0  0  0  0  0  0  0  0  0  0  0  0
   17.9383   70.9314   -8.7133 N   0  0  0  0  0  0  0  0  0  0  0  0
   17.2496   70.8347   -7.4971 C   0  0  0  0  0  0  0  0  0  0  0  0
   19.4515   70.8754   -6.4689 C   0  0  0  0  0  0  0  0  0  0  0  0
   20.0936   70.9675   -7.6351 C   0  0  0  0  0  0  0  0  0  0  0  0
   19.3109   71.0021   -8.8880 C   0  0  0  0  0  0  0  0  0  0  0  0
   17.3890   70.9508   -9.5302 H   0  0  0  0  0  0  0  0  0  0  0  0
   21.9940   69.4332   -0.0517 O   0  0  0  0  0  0  0  0  0  0  0  0
   23.2264   70.0055    0.8243 P   0  0  2  0  0  0  0  0  0  0  0  0
   24.3982   70.2082   -0.2739 O   0  0  0  0  0  0  0  0  0  0  0  0
   23.6116   69.1366    1.9864 O   0  0  0  0  0  0  0  0  0  0  0  0
   22.7819   71.5032    1.2266 O   0  0  0  0  0  0  0  0  0  0  0  0
   23.2206   73.1939   -0.3729 O   0  0  0  0  0  0  0  0  0  0  0  0
   22.2668   75.4262    2.9700 O   0  0  0  0  0  0  0  0  0  0  0  0
   23.9650   73.0607    3.2041 O   0  0  0  0  0  0  0  0  0  0  0  0
   20.3443   75.1417    0.8081 O   0  0  0  0  0  0  0  0  0  0  0  0
   22.2029   74.3029    2.0914 C   0  0  2  0  0  0  0  0  0  0  0  0
   23.5879   73.6663    1.9730 C   0  0  2  0  0  0  0  0  0  0  0  0
   21.7261   74.7983    0.7242 C   0  0  1  0  0  0  0  0  0  0  0  0
   23.6109   72.6077    0.8695 C   0  0  1  0  0  0  0  0  0  0  0  0
   21.8980   73.7261   -0.3478 C   0  0  1  0  0  0  0  0  0  0  0  0
   22.5677   75.1356    3.8454 H   0  0  0  0  0  0  0  0  0  0  0  0
   23.9522   73.7267    3.9089 H   0  0  0  0  0  0  0  0  0  0  0  0
   20.2211   75.8233    1.4871 H   0  0  0  0  0  0  0  0  0  0  0  0
   22.8609   74.0939   -2.4547 O   0  0  0  0  0  0  0  0  0  0  0  0
   20.7574   74.9063   -2.1163 O   0  0  0  0  0  0  0  0  0  0  0  0
   21.7464   74.3124   -1.7136 C   0  0  0  0  0  0  0  0  0  0  0  0
  1  4  1  0
  1 24  1  0
  1  2  1  6
  1  3  2  0
 25 28  1  0
 25 24  1  0
 25 26  1  6
 25 27  2  0
  6 11  1  0
  6 12  1  0
 29 36  1  0
 29 37  1  0
  9  7  1  1
  7 13  1  0
 10  8  1  1
  8 14  1  0
  4  5  1  0
 36 28  1  1
 33 30  1  1
 30 38  1  0
 34 31  1  1
 31 39  1  0
 35 32  1  1
 32 40  1  0
 41 43  1  0
 15 19  2  0
 42 43  2  0
 16 22  2  0
 12 17  1  6
 17 19  1  0
 17 20  1  0
 18 19  1  0
 18 22  1  0
 18 23  1  0
  9 10  1  0
  9 11  1  0
 10 12  1  0
 11  5  1  6
 33 34  1  0
 33 35  1  0
 34 36  1  0
 35 37  1  0
 37 43  1  6
 20 21  2  0
 21 22  1  0
M  CHG  3   2  -1  26  -1  41  -1
M  END
>  <COMPND>  (103) 
    udp_gluA.pdb 

>  <AUTHOR>  (103) 
    GENERATED BY OPEN BABEL 3.1.1

>  <MASTER>  (103) 
        0    0    0    0    0    0    0    0   56    0   56    0

>  <minimizedAffinity>  (103) 
-7.23004

>  <CNNscore>  (103) 
0.7068917155

>  <CNNaffinity>  (103) 
4.6563816071

>  <CNN_VS>  (103) 
3.2915575504

>  <CNNaffinity_variance>  (103) 
0.1032169461

$$$$
104
     RDKit          3D

 43 45  0  0  0  0  0  0  0  0999 V2000
   22.7053   73.4751   -3.9199 P   0  0  2  0  0  0  0  0  0  0  0  0
   22.3140   74.8840   -4.6133 O   0  0  0  0  0  0  0  0  0  0  0  0
   24.1456   73.0782   -4.0605 O   0  0  0  0  0  0  0  0  0  0  0  0
   21.6266   72.4316   -4.5245 O   0  0  0  0  0  0  0  0  0  0  0  0
   20.9674   71.5492   -3.6350 C   0  0  0  0  0  0  0  0  0  0  0  0
   19.0440   72.3724   -4.8186 O   0  0  0  0  0  0  0  0  0  0  0  0
   17.4270   71.4095   -2.4842 O   0  0  0  0  0  0  0  0  0  0  0  0
   17.0418   69.4388   -4.3293 O   0  0  0  0  0  0  0  0  0  0  0  0
   18.5910   70.8326   -3.0765 C   0  0  1  0  0  0  0  0  0  0  0  0
   18.2396   70.1838   -4.3986 C   0  0  2  0  0  0  0  0  0  0  0  0
   19.5078   71.9675   -3.5123 C   0  0  1  0  0  0  0  0  0  0  0  0
   18.1279   71.3862   -5.3202 C   0  0  2  0  0  0  0  0  0  0  0  0
   16.8259   70.7035   -2.1977 H   0  0  0  0  0  0  0  0  0  0  0  0
   17.1642   68.6847   -3.7308 H   0  0  0  0  0  0  0  0  0  0  0  0
   16.2953   70.4862   -7.2716 O   0  0  0  0  0  0  0  0  0  0  0  0
   19.5806   70.2085  -10.4923 O   0  0  0  0  0  0  0  0  0  0  0  0
   18.4775   71.0714   -6.6766 N   0  0  0  0  0  0  0  0  0  0  0  0
   17.9335   70.3478   -8.8735 N   0  0  0  0  0  0  0  0  0  0  0  0
   17.4809   70.6269   -7.5773 C   0  0  0  0  0  0  0  0  0  0  0  0
   19.7933   71.2054   -7.1027 C   0  0  0  0  0  0  0  0  0  0  0  0
   20.2096   70.9356   -8.3415 C   0  0  0  0  0  0  0  0  0  0  0  0
   19.2314   70.4650   -9.3441 C   0  0  0  0  0  0  0  0  0  0  0  0
   17.2582   70.0348   -9.5180 H   0  0  0  0  0  0  0  0  0  0  0  0
   22.2065   73.6703   -2.3948 O   0  0  0  0  0  0  0  0  0  0  0  0
   22.9781   74.2304   -1.0891 P   0  0  2  0  0  0  0  0  0  0  0  0
   21.8388   75.0917   -0.3273 O   0  0  0  0  0  0  0  0  0  0  0  0
   24.2313   74.9978   -1.3965 O   0  0  0  0  0  0  0  0  0  0  0  0
   23.1994   72.9328   -0.1565 O   0  0  0  0  0  0  0  0  0  0  0  0
   22.3321   70.7513   -0.4692 O   0  0  0  0  0  0  0  0  0  0  0  0
   22.6772   70.9372    3.6435 O   0  0  0  0  0  0  0  0  0  0  0  0
   21.6549   73.2228    2.1384 O   0  0  0  0  0  0  0  0  0  0  0  0
   24.6034   69.4170    2.0848 O   0  0  0  0  0  0  0  0  0  0  0  0
   23.0302   71.2300    2.2916 C   0  0  2  0  0  0  0  0  0  0  0  0
   21.8587   71.9234    1.5955 C   0  0  2  0  0  0  0  0  0  0  0  0
   23.3587   69.9092    1.5919 C   0  0  1  0  0  0  0  0  0  0  0  0
   22.1104   72.0456    0.0920 C   0  0  1  0  0  0  0  0  0  0  0  0
   23.4703   70.0918    0.0811 C   0  0  1  0  0  0  0  0  0  0  0  0
   22.4642   71.7618    4.1081 H   0  0  0  0  0  0  0  0  0  0  0  0
   21.4949   73.1528    3.0923 H   0  0  0  0  0  0  0  0  0  0  0  0
   24.5459   69.2965    3.0455 H   0  0  0  0  0  0  0  0  0  0  0  0
   23.7338   68.9221   -1.9348 O   0  0  0  0  0  0  0  0  0  0  0  0
   23.2419   67.6951   -0.0769 O   0  0  0  0  0  0  0  0  0  0  0  0
   23.4612   68.7699   -0.6151 C   0  0  0  0  0  0  0  0  0  0  0  0
  1  4  1  0
  1 24  1  0
  1  2  1  6
  1  3  2  0
 25 28  1  0
 25 24  1  0
 25 26  1  1
 25 27  2  0
  6 11  1  0
  6 12  1  0
 29 36  1  0
 29 37  1  0
  9  7  1  6
  7 13  1  0
 10  8  1  1
  8 14  1  0
  4  5  1  0
 36 28  1  1
 33 30  1  1
 30 38  1  0
 34 31  1  1
 31 39  1  0
 35 32  1  1
 32 40  1  0
 41 43  1  0
 15 19  2  0
 42 43  2  0
 16 22  2  0
 12 17  1  6
 17 19  1  0
 17 20  1  0
 18 19  1  0
 18 22  1  0
 18 23  1  0
  9 10  1  0
  9 11  1  0
 10 12  1  0
 11  5  1  6
 33 34  1  0
 33 35  1  0
 34 36  1  0
 35 37  1  0
 37 43  1  6
 20 21  2  0
 21 22  1  0
M  CHG  3   2  -1  26  -1  41  -1
M  END
>  <COMPND>  (104) 
    udp_gluA.pdb 

>  <AUTHOR>  (104) 
    GENERATED BY OPEN BABEL 3.1.1

>  <MASTER>  (104) 
        0    0    0    0    0    0    0    0   56    0   56    0

>  <minimizedAffinity>  (104) 
-8.16193

>  <CNNscore>  (104) 
0.6441081166

>  <CNNaffinity>  (104) 
4.3756279945

>  <CNN_VS>  (104) 
2.8183774948

>  <CNNaffinity_variance>  (104) 
0.1058072597

$$$$
105
     RDKit          3D

 43 45  0  0  0  0  0  0  0  0999 V2000
   22.0637   74.4024   -5.9166 P   0  0  2  0  0  0  0  0  0  0  0  0
   21.3232   75.2064   -4.7232 O   0  0  0  0  0  0  0  0  0  0  0  0
   23.1401   75.1709   -6.6256 O   0  0  0  0  0  0  0  0  0  0  0  0
   20.8469   73.8780   -6.8452 O   0  0  0  0  0  0  0  0  0  0  0  0
   20.7147   72.4854   -7.0637 C   0  0  0  0  0  0  0  0  0  0  0  0
   18.9588   70.9657   -7.6840 O   0  0  0  0  0  0  0  0  0  0  0  0
   17.7022   73.2896   -9.1023 O   0  0  0  0  0  0  0  0  0  0  0  0
   16.2621   73.1528   -6.7907 O   0  0  0  0  0  0  0  0  0  0  0  0
   18.4345   73.2675   -7.8768 C   0  0  1  0  0  0  0  0  0  0  0  0
   17.5892   72.6703   -6.7718 C   0  0  2  0  0  0  0  0  0  0  0  0
   19.5503   72.2408   -8.0148 C   0  0  1  0  0  0  0  0  0  0  0  0
   17.6756   71.1845   -7.0767 C   0  0  2  0  0  0  0  0  0  0  0  0
   16.9835   73.9385   -9.0383 H   0  0  0  0  0  0  0  0  0  0  0  0
   16.2605   74.1026   -6.5907 H   0  0  0  0  0  0  0  0  0  0  0  0
   15.4479   69.5719   -6.4340 O   0  0  0  0  0  0  0  0  0  0  0  0
   17.3960   68.1238   -2.5158 O   0  0  0  0  0  0  0  0  0  0  0  0
   17.5743   70.3758   -5.8949 N   0  0  0  0  0  0  0  0  0  0  0  0
   16.4198   68.8530   -4.4826 N   0  0  0  0  0  0  0  0  0  0  0  0
   16.4116   69.6025   -5.6663 C   0  0  0  0  0  0  0  0  0  0  0  0
   18.6188   70.3526   -4.9787 C   0  0  0  0  0  0  0  0  0  0  0  0
   18.6122   69.6331   -3.8549 C   0  0  0  0  0  0  0  0  0  0  0  0
   17.4343   68.7981   -3.5406 C   0  0  0  0  0  0  0  0  0  0  0  0
   15.6202   68.3082   -4.3007 H   0  0  0  0  0  0  0  0  0  0  0  0
   22.5703   73.0529   -5.1851 O   0  0  0  0  0  0  0  0  0  0  0  0
   23.2441   72.8210   -3.7340 P   0  0  2  0  0  0  0  0  0  0  0  0
   24.3056   74.0378   -3.6204 O   0  0  0  0  0  0  0  0  0  0  0  0
   23.8435   71.4577   -3.5441 O   0  0  0  0  0  0  0  0  0  0  0  0
   22.0822   73.1943   -2.6789 O   0  0  0  0  0  0  0  0  0  0  0  0
   21.0658   71.1784   -1.9633 O   0  0  0  0  0  0  0  0  0  0  0  0
   18.9067   74.0021    0.1422 O   0  0  0  0  0  0  0  0  0  0  0  0
   19.6039   74.4566   -2.6581 O   0  0  0  0  0  0  0  0  0  0  0  0
   20.9260   72.4048    1.4919 O   0  0  0  0  0  0  0  0  0  0  0  0
   20.0593   73.4532   -0.4967 C   0  0  2  0  0  0  0  0  0  0  0  0
   19.7599   73.2170   -1.9773 C   0  0  2  0  0  0  0  0  0  0  0  0
   20.3988   72.1311    0.1952 C   0  0  1  0  0  0  0  0  0  0  0  0
   20.8839   72.4214   -2.6425 C   0  0  1  0  0  0  0  0  0  0  0  0
   21.4358   71.3387   -0.5956 C   0  0  1  0  0  0  0  0  0  0  0  0
   18.6720   74.8431   -0.2809 H   0  0  0  0  0  0  0  0  0  0  0  0
   18.8924   74.9668   -2.2411 H   0  0  0  0  0  0  0  0  0  0  0  0
   20.2757   72.9090    2.0056 H   0  0  0  0  0  0  0  0  0  0  0  0
   20.6476   69.1370   -0.7766 O   0  0  0  0  0  0  0  0  0  0  0  0
   22.2613   69.5391    0.7833 O   0  0  0  0  0  0  0  0  0  0  0  0
   21.5164   69.9306   -0.1026 C   0  0  0  0  0  0  0  0  0  0  0  0
  1  4  1  0
  1 24  1  0
  1  2  1  1
  1  3  2  0
 25 28  1  0
 25 24  1  0
 25 26  1  1
 25 27  2  0
  6 11  1  0
  6 12  1  0
 29 36  1  0
 29 37  1  0
  9  7  1  6
  7 13  1  0
 10  8  1  6
  8 14  1  0
  4  5  1  0
 36 28  1  1
 33 30  1  1
 30 38  1  0
 34 31  1  6
 31 39  1  0
 35 32  1  1
 32 40  1  0
 41 43  1  0
 15 19  2  0
 42 43  2  0
 16 22  2  0
 12 17  1  1
 17 19  1  0
 17 20  1  0
 18 19  1  0
 18 22  1  0
 18 23  1  0
  9 10  1  0
  9 11  1  0
 10 12  1  0
 11  5  1  1
 33 34  1  0
 33 35  1  0
 34 36  1  0
 35 37  1  0
 37 43  1  1
 20 21  2  0
 21 22  1  0
M  CHG  3   2  -1  26  -1  41  -1
M  END
>  <COMPND>  (105) 
    udp_gluA.pdb 

>  <AUTHOR>  (105) 
    GENERATED BY OPEN BABEL 3.1.1

>  <MASTER>  (105) 
        0    0    0    0    0    0    0    0   56    0   56    0

>  <minimizedAffinity>  (105) 
-6.97738

>  <CNNscore>  (105) 
0.6428146958

>  <CNNaffinity>  (105) 
4.2352218628

>  <CNN_VS>  (105) 
2.7224628925

>  <CNNaffinity_variance>  (105) 
0.4733268619

$$$$
106
     RDKit          3D

 43 45  0  0  0  0  0  0  0  0999 V2000
   22.1171   70.3458   -2.8156 P   0  0  2  0  0  0  0  0  0  0  0  0
   21.5516   71.6371   -3.6104 O   0  0  0  0  0  0  0  0  0  0  0  0
   23.5304   69.9664   -3.1476 O   0  0  0  0  0  0  0  0  0  0  0  0
   21.0017   69.2050   -3.0846 O   0  0  0  0  0  0  0  0  0  0  0  0
   19.8640   69.5406   -3.8576 C   0  0  0  0  0  0  0  0  0  0  0  0
   17.7488   70.4870   -3.2188 O   0  0  0  0  0  0  0  0  0  0  0  0
   17.0131   67.7367   -2.2776 O   0  0  0  0  0  0  0  0  0  0  0  0
   15.7439   67.9018   -4.6855 O   0  0  0  0  0  0  0  0  0  0  0  0
   17.7985   68.1261   -3.4046 C   0  0  1  0  0  0  0  0  0  0  0  0
   16.9086   68.6783   -4.4979 C   0  0  2  0  0  0  0  0  0  0  0  0
   18.6136   69.3497   -3.0089 C   0  0  1  0  0  0  0  0  0  0  0  0
   16.6038   70.0742   -3.9816 C   0  0  2  0  0  0  0  0  0  0  0  0
   16.4834   66.9564   -2.5063 H   0  0  0  0  0  0  0  0  0  0  0  0
   15.9909   67.0229   -5.0149 H   0  0  0  0  0  0  0  0  0  0  0  0
   15.2524   72.5355   -3.6779 O   0  0  0  0  0  0  0  0  0  0  0  0
   15.8258   73.6075   -8.1238 O   0  0  0  0  0  0  0  0  0  0  0  0
   16.3858   71.0156   -5.0432 N   0  0  0  0  0  0  0  0  0  0  0  0
   15.5384   73.0666   -5.8928 N   0  0  0  0  0  0  0  0  0  0  0  0
   15.6949   72.2231   -4.7850 C   0  0  0  0  0  0  0  0  0  0  0  0
   16.8552   70.7402   -6.3218 C   0  0  0  0  0  0  0  0  0  0  0  0
   16.6984   71.5540   -7.3677 C   0  0  0  0  0  0  0  0  0  0  0  0
   15.9868   72.8358   -7.1832 C   0  0  0  0  0  0  0  0  0  0  0  0
   15.0587   73.9123   -5.7380 H   0  0  0  0  0  0  0  0  0  0  0  0
   21.8709   70.7366   -1.2666 O   0  0  0  0  0  0  0  0  0  0  0  0
   22.0434   69.8698    0.0871 P   0  0  2  0  0  0  0  0  0  0  0  0
   23.6028   69.4368    0.0528 O   0  0  0  0  0  0  0  0  0  0  0  0
   21.0850   68.7206    0.2088 O   0  0  0  0  0  0  0  0  0  0  0  0
   21.9472   70.9511    1.2805 O   0  0  0  0  0  0  0  0  0  0  0  0
   23.3112   72.8408    0.8590 O   0  0  0  0  0  0  0  0  0  0  0  0
   21.9584   73.6168    4.6847 O   0  0  0  0  0  0  0  0  0  0  0  0
   22.7972   70.9225    3.9287 O   0  0  0  0  0  0  0  0  0  0  0  0
   20.8343   75.0520    2.4204 O   0  0  0  0  0  0  0  0  0  0  0  0
   21.8856   73.0970    3.3571 C   0  0  2  0  0  0  0  0  0  0  0  0
   23.0130   72.0873    3.1404 C   0  0  2  0  0  0  0  0  0  0  0  0
   22.0255   74.2684    2.3823 C   0  0  1  0  0  0  0  0  0  0  0  0
   23.1090   71.6820    1.6688 C   0  0  1  0  0  0  0  0  0  0  0  0
   22.2430   73.7806    0.9529 C   0  0  1  0  0  0  0  0  0  0  0  0
   21.8719   72.8902    5.3218 H   0  0  0  0  0  0  0  0  0  0  0  0
   22.7350   71.1723    4.8636 H   0  0  0  0  0  0  0  0  0  0  0  0
   20.6843   75.3686    3.3249 H   0  0  0  0  0  0  0  0  0  0  0  0
   23.9137   74.6173   -0.4649 O   0  0  0  0  0  0  0  0  0  0  0  0
   22.0769   75.9276   -0.1353 O   0  0  0  0  0  0  0  0  0  0  0  0
   22.7019   74.8989    0.0748 C   0  0  0  0  0  0  0  0  0  0  0  0
  1  4  1  0
  1 24  1  0
  1  2  1  6
  1  3  2  0
 25 28  1  0
 25 24  1  0
 25 26  1  6
 25 27  2  0
  6 11  1  0
  6 12  1  0
 29 36  1  0
 29 37  1  0
  9  7  1  1
  7 13  1  0
 10  8  1  1
  8 14  1  0
  4  5  1  0
 36 28  1  6
 33 30  1  1
 30 38  1  0
 34 31  1  1
 31 39  1  0
 35 32  1  6
 32 40  1  0
 41 43  1  0
 15 19  2  0
 42 43  2  0
 16 22  2  0
 12 17  1  6
 17 19  1  0
 17 20  1  0
 18 19  1  0
 18 22  1  0
 18 23  1  0
  9 10  1  0
  9 11  1  0
 10 12  1  0
 11  5  1  6
 33 34  1  0
 33 35  1  0
 34 36  1  0
 35 37  1  0
 37 43  1  6
 20 21  2  0
 21 22  1  0
M  CHG  3   2  -1  26  -1  41  -1
M  END
>  <COMPND>  (106) 
    udp_gluA.pdb 

>  <AUTHOR>  (106) 
    GENERATED BY OPEN BABEL 3.1.1

>  <MASTER>  (106) 
        0    0    0    0    0    0    0    0   56    0   56    0

>  <minimizedAffinity>  (106) 
-7.79118

>  <CNNscore>  (106) 
0.5207577348

>  <CNNaffinity>  (106) 
4.3505125046

>  <CNN_VS>  (106) 
2.2655630112

>  <CNNaffinity_variance>  (106) 
0.2378332615

$$$$
107
     RDKit          3D

 43 45  0  0  0  0  0  0  0  0999 V2000
   21.6401   72.0568   -3.3582 P   0  0  2  0  0  0  0  0  0  0  0  0
   21.4995   72.0904   -4.9700 O   0  0  0  0  0  0  0  0  0  0  0  0
   23.0503   72.0537   -2.8452 O   0  0  0  0  0  0  0  0  0  0  0  0
   20.7284   70.7958   -2.9148 O   0  0  0  0  0  0  0  0  0  0  0  0
   19.7821   70.2881   -3.8374 C   0  0  0  0  0  0  0  0  0  0  0  0
   17.5265   70.9808   -3.3787 O   0  0  0  0  0  0  0  0  0  0  0  0
   17.0380   68.1588   -2.4904 O   0  0  0  0  0  0  0  0  0  0  0  0
   15.9606   68.1900   -4.9953 O   0  0  0  0  0  0  0  0  0  0  0  0
   17.8632   68.6425   -3.5504 C   0  0  1  0  0  0  0  0  0  0  0  0
   17.0085   69.0945   -4.7155 C   0  0  2  0  0  0  0  0  0  0  0  0
   18.4965   69.9497   -3.0938 C   0  0  1  0  0  0  0  0  0  0  0  0
   16.5034   70.4431   -4.2316 C   0  0  2  0  0  0  0  0  0  0  0  0
   16.6224   67.3240   -2.7589 H   0  0  0  0  0  0  0  0  0  0  0  0
   16.3336   67.3473   -5.2998 H   0  0  0  0  0  0  0  0  0  0  0  0
   17.0843   69.8988   -6.9414 O   0  0  0  0  0  0  0  0  0  0  0  0
   15.5524   74.0316   -8.2894 O   0  0  0  0  0  0  0  0  0  0  0  0
   16.2664   71.3590   -5.3113 N   0  0  0  0  0  0  0  0  0  0  0  0
   16.3217   71.9580   -7.6101 N   0  0  0  0  0  0  0  0  0  0  0  0
   16.5942   70.9877   -6.6367 C   0  0  0  0  0  0  0  0  0  0  0  0
   15.7141   72.6077   -5.0529 C   0  0  0  0  0  0  0  0  0  0  0  0
   15.4600   73.5219   -5.9912 C   0  0  0  0  0  0  0  0  0  0  0  0
   15.7739   73.2135   -7.4017 C   0  0  0  0  0  0  0  0  0  0  0  0
   16.5433   71.7232   -8.5401 H   0  0  0  0  0  0  0  0  0  0  0  0
   20.7562   73.3267   -2.8902 O   0  0  0  0  0  0  0  0  0  0  0  0
   20.2928   73.8134   -1.4199 P   0  0  2  0  0  0  0  0  0  0  0  0
   18.8000   73.2028   -1.2815 O   0  0  0  0  0  0  0  0  0  0  0  0
   20.3761   75.2973   -1.2078 O   0  0  0  0  0  0  0  0  0  0  0  0
   21.1861   72.9401   -0.3992 O   0  0  0  0  0  0  0  0  0  0  0  0
   20.8891   70.6954    0.2952 O   0  0  0  0  0  0  0  0  0  0  0  0
   22.6581   72.3792    3.6274 O   0  0  0  0  0  0  0  0  0  0  0  0
   20.5773   73.8197    2.1682 O   0  0  0  0  0  0  0  0  0  0  0  0
   24.2098   70.6753    1.8555 O   0  0  0  0  0  0  0  0  0  0  0  0
   22.3959   72.2153    2.2337 C   0  0  2  0  0  0  0  0  0  0  0  0
   20.9103   72.4519    1.9612 C   0  0  2  0  0  0  0  0  0  0  0  0
   22.7880   70.7885    1.8433 C   0  0  1  0  0  0  0  0  0  0  0  0
   20.5483   72.0627    0.5272 C   0  0  1  0  0  0  0  0  0  0  0  0
   22.2824   70.4338    0.4480 C   0  0  1  0  0  0  0  0  0  0  0  0
   22.4165   73.2789    3.8984 H   0  0  0  0  0  0  0  0  0  0  0  0
   20.8045   74.0735    3.0761 H   0  0  0  0  0  0  0  0  0  0  0  0
   24.5445   70.8986    2.7381 H   0  0  0  0  0  0  0  0  0  0  0  0
   21.1409   68.4230    0.0537 O   0  0  0  0  0  0  0  0  0  0  0  0
   23.4167   68.3246    0.1547 O   0  0  0  0  0  0  0  0  0  0  0  0
   22.3757   68.9620    0.2082 C   0  0  0  0  0  0  0  0  0  0  0  0
  1  4  1  0
  1 24  1  0
  1  2  1  6
  1  3  2  0
 25 28  1  0
 25 24  1  0
 25 26  1  1
 25 27  2  0
  6 11  1  0
  6 12  1  0
 29 36  1  0
 29 37  1  0
  9  7  1  1
  7 13  1  0
 10  8  1  1
  8 14  1  0
  4  5  1  0
 36 28  1  6
 33 30  1  1
 30 38  1  0
 34 31  1  6
 31 39  1  0
 35 32  1  6
 32 40  1  0
 41 43  1  0
 15 19  2  0
 42 43  2  0
 16 22  2  0
 12 17  1  6
 17 19  1  0
 17 20  1  0
 18 19  1  0
 18 22  1  0
 18 23  1  0
  9 10  1  0
  9 11  1  0
 10 12  1  0
 11  5  1  6
 33 34  1  0
 33 35  1  0
 34 36  1  0
 35 37  1  0
 37 43  1  1
 20 21  2  0
 21 22  1  0
M  CHG  3   2  -1  26  -1  41  -1
M  END
>  <COMPND>  (107) 
    udp_gluA.pdb 

>  <AUTHOR>  (107) 
    GENERATED BY OPEN BABEL 3.1.1

>  <MASTER>  (107) 
        0    0    0    0    0    0    0    0   56    0   56    0

>  <minimizedAffinity>  (107) 
-7.51767

>  <CNNscore>  (107) 
0.5130710006

>  <CNNaffinity>  (107) 
4.2203588486

>  <CNN_VS>  (107) 
2.1653437614

>  <CNNaffinity_variance>  (107) 
0.1212206632

$$$$
108
     RDKit          3D

 43 45  0  0  0  0  0  0  0  0999 V2000
   20.5978   72.2753   -4.5419 P   0  0  2  0  0  0  0  0  0  0  0  0
   19.1146   72.9212   -4.4977 O   0  0  0  0  0  0  0  0  0  0  0  0
   21.2117   72.1912   -5.9086 O   0  0  0  0  0  0  0  0  0  0  0  0
   20.4329   70.8696   -3.7580 O   0  0  0  0  0  0  0  0  0  0  0  0
   19.6193   69.8649   -4.3352 C   0  0  0  0  0  0  0  0  0  0  0  0
   17.6651   70.5913   -3.1388 O   0  0  0  0  0  0  0  0  0  0  0  0
   17.0898   67.6836   -2.6854 O   0  0  0  0  0  0  0  0  0  0  0  0
   15.4029   68.3125   -4.7336 O   0  0  0  0  0  0  0  0  0  0  0  0
   17.6591   68.3248   -3.8270 C   0  0  1  0  0  0  0  0  0  0  0  0
   16.5890   69.0672   -4.5991 C   0  0  2  0  0  0  0  0  0  0  0  0
   18.5436   69.4621   -3.3346 C   0  0  1  0  0  0  0  0  0  0  0  0
   16.3963   70.3135   -3.7521 C   0  0  2  0  0  0  0  0  0  0  0  0
   16.5203   66.9532   -2.9749 H   0  0  0  0  0  0  0  0  0  0  0  0
   15.5777   67.5304   -5.2811 H   0  0  0  0  0  0  0  0  0  0  0  0
   14.9459   72.5142   -2.7372 O   0  0  0  0  0  0  0  0  0  0  0  0
   14.9150   74.6183   -6.8379 O   0  0  0  0  0  0  0  0  0  0  0  0
   15.9961   71.4500   -4.5325 N   0  0  0  0  0  0  0  0  0  0  0  0
   14.9310   73.5596   -4.7808 N   0  0  0  0  0  0  0  0  0  0  0  0
   15.2700   72.5023   -3.9262 C   0  0  0  0  0  0  0  0  0  0  0  0
   16.3239   71.5153   -5.8813 C   0  0  0  0  0  0  0  0  0  0  0  0
   15.9939   72.5298   -6.6831 C   0  0  0  0  0  0  0  0  0  0  0  0
   15.2340   73.6691   -6.1283 C   0  0  0  0  0  0  0  0  0  0  0  0
   14.4235   74.3029   -4.3818 H   0  0  0  0  0  0  0  0  0  0  0  0
   21.4209   73.1843   -3.4888 O   0  0  0  0  0  0  0  0  0  0  0  0
   23.0097   73.3312   -3.2283 P   0  0  2  0  0  0  0  0  0  0  0  0
   23.1706   74.8805   -2.7876 O   0  0  0  0  0  0  0  0  0  0  0  0
   23.8649   72.9280   -4.3945 O   0  0  0  0  0  0  0  0  0  0  0  0
   23.2821   72.4932   -1.8770 O   0  0  0  0  0  0  0  0  0  0  0  0
   21.9384   70.8779   -0.7841 O   0  0  0  0  0  0  0  0  0  0  0  0
   23.8617   72.6676    2.4042 O   0  0  0  0  0  0  0  0  0  0  0  0
   22.8275   74.2844    0.2017 O   0  0  0  0  0  0  0  0  0  0  0  0
   24.6927   70.0365    1.4891 O   0  0  0  0  0  0  0  0  0  0  0  0
   23.7216   72.1998    1.0628 C   0  0  2  0  0  0  0  0  0  0  0  0
   22.5399   72.9044    0.3959 C   0  0  2  0  0  0  0  0  0  0  0  0
   23.4820   70.6891    1.1114 C   0  0  1  0  0  0  0  0  0  0  0  0
   22.2159   72.2681   -0.9565 C   0  0  1  0  0  0  0  0  0  0  0  0
   23.0411   70.1510   -0.2468 C   0  0  1  0  0  0  0  0  0  0  0  0
   24.0148   73.6256    2.3984 H   0  0  0  0  0  0  0  0  0  0  0  0
   23.0343   74.6944    1.0558 H   0  0  0  0  0  0  0  0  0  0  0  0
   24.9843   70.3701    2.3520 H   0  0  0  0  0  0  0  0  0  0  0  0
   21.1592   68.7932    0.0942 O   0  0  0  0  0  0  0  0  0  0  0  0
   23.1620   67.7419   -0.1932 O   0  0  0  0  0  0  0  0  0  0  0  0
   22.4984   68.7651   -0.1175 C   0  0  0  0  0  0  0  0  0  0  0  0
  1  4  1  0
  1 24  1  0
  1  2  1  6
  1  3  2  0
 25 28  1  0
 25 24  1  0
 25 26  1  1
 25 27  2  0
  6 11  1  0
  6 12  1  0
 29 36  1  0
 29 37  1  0
  9  7  1  1
  7 13  1  0
 10  8  1  1
  8 14  1  0
  4  5  1  0
 36 28  1  6
 33 30  1  1
 30 38  1  0
 34 31  1  6
 31 39  1  0
 35 32  1  6
 32 40  1  0
 41 43  1  0
 15 19  2  0
 42 43  2  0
 16 22  2  0
 12 17  1  6
 17 19  1  0
 17 20  1  0
 18 19  1  0
 18 22  1  0
 18 23  1  0
  9 10  1  0
  9 11  1  0
 10 12  1  0
 11  5  1  6
 33 34  1  0
 33 35  1  0
 34 36  1  0
 35 37  1  0
 37 43  1  1
 20 21  2  0
 21 22  1  0
M  CHG  3   2  -1  26  -1  41  -1
M  END
>  <COMPND>  (108) 
    udp_gluA.pdb 

>  <AUTHOR>  (108) 
    GENERATED BY OPEN BABEL 3.1.1

>  <MASTER>  (108) 
        0    0    0    0    0    0    0    0   56    0   56    0

>  <minimizedAffinity>  (108) 
-7.88792

>  <CNNscore>  (108) 
0.4830048680

>  <CNNaffinity>  (108) 
4.1354804039

>  <CNN_VS>  (108) 
1.9974571466

>  <CNNaffinity_variance>  (108) 
0.4465006292

$$$$
109
     RDKit          3D

 43 45  0  0  0  0  0  0  0  0999 V2000
   22.0541   72.8698   -4.4191 P   0  0  2  0  0  0  0  0  0  0  0  0
   21.7224   74.4513   -4.3309 O   0  0  0  0  0  0  0  0  0  0  0  0
   23.5083   72.5199   -4.2987 O   0  0  0  0  0  0  0  0  0  0  0  0
   21.3283   72.3962   -5.7855 O   0  0  0  0  0  0  0  0  0  0  0  0
   20.3131   73.2181   -6.3317 C   0  0  0  0  0  0  0  0  0  0  0  0
   19.4739   71.1394   -7.1993 O   0  0  0  0  0  0  0  0  0  0  0  0
   18.1478   72.7789   -9.3312 O   0  0  0  0  0  0  0  0  0  0  0  0
   16.0946   72.2636   -7.6122 O   0  0  0  0  0  0  0  0  0  0  0  0
   18.3568   73.0875   -7.9529 C   0  0  1  0  0  0  0  0  0  0  0  0
   17.4053   72.2892   -7.0870 C   0  0  2  0  0  0  0  0  0  0  0  0
   19.7101   72.5215   -7.5447 C   0  0  1  0  0  0  0  0  0  0  0  0
   18.0596   70.9181   -7.0807 C   0  0  2  0  0  0  0  0  0  0  0  0
   17.2890   73.1306   -9.6150 H   0  0  0  0  0  0  0  0  0  0  0  0
   15.7217   73.1595   -7.5944 H   0  0  0  0  0  0  0  0  0  0  0  0
   15.6510   69.5525   -6.5236 O   0  0  0  0  0  0  0  0  0  0  0  0
   17.1759   68.1690   -2.3999 O   0  0  0  0  0  0  0  0  0  0  0  0
   17.8005   70.1928   -5.8692 N   0  0  0  0  0  0  0  0  0  0  0  0
   16.4124   68.8656   -4.4699 N   0  0  0  0  0  0  0  0  0  0  0  0
   16.5572   69.5418   -5.6884 C   0  0  0  0  0  0  0  0  0  0  0  0
   18.7715   70.1301   -4.8772 C   0  0  0  0  0  0  0  0  0  0  0  0
   18.6189   69.4816   -3.7209 C   0  0  0  0  0  0  0  0  0  0  0  0
   17.3488   68.7756   -3.4528 C   0  0  0  0  0  0  0  0  0  0  0  0
   15.5544   68.4064   -4.3203 H   0  0  0  0  0  0  0  0  0  0  0  0
   21.1116   72.2366   -3.2687 O   0  0  0  0  0  0  0  0  0  0  0  0
   20.6826   72.8036   -1.8167 P   0  0  2  0  0  0  0  0  0  0  0  0
   19.2197   72.1514   -1.5824 O   0  0  0  0  0  0  0  0  0  0  0  0
   20.7174   74.3004   -1.7052 O   0  0  0  0  0  0  0  0  0  0  0  0
   21.6438   72.0322   -0.7758 O   0  0  0  0  0  0  0  0  0  0  0  0
   22.2210   69.7811   -1.2327 O   0  0  0  0  0  0  0  0  0  0  0  0
   23.2910   70.1332    2.7422 O   0  0  0  0  0  0  0  0  0  0  0  0
   20.7963   71.3028    1.7709 O   0  0  0  0  0  0  0  0  0  0  0  0
   25.3355   70.1292    0.6755 O   0  0  0  0  0  0  0  0  0  0  0  0
   23.0842   70.5838    1.4034 C   0  0  2  0  0  0  0  0  0  0  0  0
   21.6132   70.4074    1.0256 C   0  0  2  0  0  0  0  0  0  0  0  0
   23.9746   69.7489    0.4805 C   0  0  1  0  0  0  0  0  0  0  0  0
   21.3975   70.6615   -0.4670 C   0  0  1  0  0  0  0  0  0  0  0  0
   23.6135   69.9640   -0.9864 C   0  0  1  0  0  0  0  0  0  0  0  0
   22.7351   70.6496    3.3468 H   0  0  0  0  0  0  0  0  0  0  0  0
   20.9284   71.1472    2.7190 H   0  0  0  0  0  0  0  0  0  0  0  0
   25.5780   69.9972    1.6053 H   0  0  0  0  0  0  0  0  0  0  0  0
   23.7613   67.6904   -1.5434 O   0  0  0  0  0  0  0  0  0  0  0  0
   25.0844   69.1352   -2.7100 O   0  0  0  0  0  0  0  0  0  0  0  0
   24.2464   68.9197   -1.8472 C   0  0  0  0  0  0  0  0  0  0  0  0
  1  4  1  0
  1 24  1  0
  1  2  1  1
  1  3  2  0
 25 28  1  0
 25 24  1  0
 25 26  1  1
 25 27  2  0
  6 11  1  0
  6 12  1  0
 29 36  1  0
 29 37  1  0
  9  7  1  6
  7 13  1  0
 10  8  1  6
  8 14  1  0
  4  5  1  0
 36 28  1  1
 33 30  1  1
 30 38  1  0
 34 31  1  1
 31 39  1  0
 35 32  1  6
 32 40  1  0
 41 43  1  0
 15 19  2  0
 42 43  2  0
 16 22  2  0
 12 17  1  1
 17 19  1  0
 17 20  1  0
 18 19  1  0
 18 22  1  0
 18 23  1  0
  9 10  1  0
  9 11  1  0
 10 12  1  0
 11  5  1  1
 33 34  1  0
 33 35  1  0
 34 36  1  0
 35 37  1  0
 37 43  1  6
 20 21  2  0
 21 22  1  0
M  CHG  3   2  -1  26  -1  41  -1
M  END
>  <COMPND>  (109) 
    udp_gluA.pdb 

>  <AUTHOR>  (109) 
    GENERATED BY OPEN BABEL 3.1.1

>  <MASTER>  (109) 
        0    0    0    0    0    0    0    0   56    0   56    0

>  <minimizedAffinity>  (109) 
-8.32302

>  <CNNscore>  (109) 
0.4632196724

>  <CNNaffinity>  (109) 
4.2513017654

>  <CNN_VS>  (109) 
1.9692865610

>  <CNNaffinity_variance>  (109) 
0.4683924317

$$$$
110
     RDKit          3D

 43 45  0  0  0  0  0  0  0  0999 V2000
   20.8405   75.3837   -3.8693 P   0  0  2  0  0  0  0  0  0  0  0  0
   19.8332   74.6269   -2.8536 O   0  0  0  0  0  0  0  0  0  0  0  0
   20.9093   76.8732   -3.7008 O   0  0  0  0  0  0  0  0  0  0  0  0
   20.3824   74.8624   -5.3310 O   0  0  0  0  0  0  0  0  0  0  0  0
   19.1350   74.2040   -5.4537 C   0  0  0  0  0  0  0  0  0  0  0  0
   19.2655   72.0647   -6.5417 O   0  0  0  0  0  0  0  0  0  0  0  0
   17.9657   73.3910   -8.8961 O   0  0  0  0  0  0  0  0  0  0  0  0
   15.8848   72.0648   -7.7353 O   0  0  0  0  0  0  0  0  0  0  0  0
   17.7481   73.6094   -7.5020 C   0  0  1  0  0  0  0  0  0  0  0  0
   16.9587   72.4618   -6.9085 C   0  0  2  0  0  0  0  0  0  0  0  0
   19.0878   73.4760   -6.7909 C   0  0  1  0  0  0  0  0  0  0  0  0
   18.0215   71.3848   -6.7731 C   0  0  2  0  0  0  0  0  0  0  0  0
   17.1235   73.4712   -9.3715 H   0  0  0  0  0  0  0  0  0  0  0  0
   15.2354   72.7841   -7.7894 H   0  0  0  0  0  0  0  0  0  0  0  0
   15.8636   69.5658   -6.6663 O   0  0  0  0  0  0  0  0  0  0  0  0
   17.1316   68.0230   -2.5123 O   0  0  0  0  0  0  0  0  0  0  0  0
   17.7641   70.4959   -5.6756 N   0  0  0  0  0  0  0  0  0  0  0  0
   16.4966   68.7999   -4.5970 N   0  0  0  0  0  0  0  0  0  0  0  0
   16.6526   69.6215   -5.7211 C   0  0  0  0  0  0  0  0  0  0  0  0
   18.6078   70.4947   -4.5714 C   0  0  0  0  0  0  0  0  0  0  0  0
   18.4463   69.7056   -3.5075 C   0  0  0  0  0  0  0  0  0  0  0  0
   17.3088   68.7631   -3.4752 C   0  0  0  0  0  0  0  0  0  0  0  0
   15.7285   68.1840   -4.6049 H   0  0  0  0  0  0  0  0  0  0  0  0
   22.2417   74.6136   -3.6316 O   0  0  0  0  0  0  0  0  0  0  0  0
   22.5836   73.0362   -3.5389 P   0  0  2  0  0  0  0  0  0  0  0  0
   23.9681   72.9085   -4.3679 O   0  0  0  0  0  0  0  0  0  0  0  0
   21.4846   72.1381   -4.0285 O   0  0  0  0  0  0  0  0  0  0  0  0
   23.0068   72.7988   -2.0004 O   0  0  0  0  0  0  0  0  0  0  0  0
   21.7343   71.2756   -0.7082 O   0  0  0  0  0  0  0  0  0  0  0  0
   23.8381   73.3031    2.2126 O   0  0  0  0  0  0  0  0  0  0  0  0
   22.6711   74.7465   -0.0434 O   0  0  0  0  0  0  0  0  0  0  0  0
   24.6206   70.6074    1.4564 O   0  0  0  0  0  0  0  0  0  0  0  0
   23.6201   72.7331    0.9220 C   0  0  2  0  0  0  0  0  0  0  0  0
   22.3992   73.3862    0.2737 C   0  0  2  0  0  0  0  0  0  0  0  0
   23.3879   71.2312    1.1015 C   0  0  1  0  0  0  0  0  0  0  0  0
   21.9975   72.6477   -1.0038 C   0  0  1  0  0  0  0  0  0  0  0  0
   22.8689   70.5904   -0.1825 C   0  0  1  0  0  0  0  0  0  0  0  0
   23.9880   74.2575    2.1236 H   0  0  0  0  0  0  0  0  0  0  0  0
   22.9269   75.2210    0.7627 H   0  0  0  0  0  0  0  0  0  0  0  0
   24.9618   71.0063    2.2720 H   0  0  0  0  0  0  0  0  0  0  0  0
   23.3544   68.3439    0.2854 O   0  0  0  0  0  0  0  0  0  0  0  0
   21.1543   68.9208    0.1239 O   0  0  0  0  0  0  0  0  0  0  0  0
   22.3385   69.2196    0.0856 C   0  0  0  0  0  0  0  0  0  0  0  0
  1  4  1  0
  1 24  1  0
  1  2  1  1
  1  3  2  0
 25 28  1  0
 25 24  1  0
 25 26  1  6
 25 27  2  0
  6 11  1  0
  6 12  1  0
 29 36  1  0
 29 37  1  0
  9  7  1  6
  7 13  1  0
 10  8  1  6
  8 14  1  0
  4  5  1  0
 36 28  1  6
 33 30  1  1
 30 38  1  0
 34 31  1  6
 31 39  1  0
 35 32  1  6
 32 40  1  0
 41 43  1  0
 15 19  2  0
 42 43  2  0
 16 22  2  0
 12 17  1  1
 17 19  1  0
 17 20  1  0
 18 19  1  0
 18 22  1  0
 18 23  1  0
  9 10  1  0
  9 11  1  0
 10 12  1  0
 11  5  1  1
 33 34  1  0
 33 35  1  0
 34 36  1  0
 35 37  1  0
 37 43  1  1
 20 21  2  0
 21 22  1  0
M  CHG  3   2  -1  26  -1  41  -1
M  END
>  <COMPND>  (110) 
    udp_gluA.pdb 

>  <AUTHOR>  (110) 
    GENERATED BY OPEN BABEL 3.1.1

>  <MASTER>  (110) 
        0    0    0    0    0    0    0    0   56    0   56    0

>  <minimizedAffinity>  (110) 
-7.83576

>  <CNNscore>  (110) 
0.4547622204

>  <CNNaffinity>  (110) 
4.1623225212

>  <CNN_VS>  (110) 
1.8928670883

>  <CNNaffinity_variance>  (110) 
0.4320691526

$$$$
111
     RDKit          3D

 43 45  0  0  0  0  0  0  0  0999 V2000
   20.8012   71.8012   -2.4073 P   0  0  2  0  0  0  0  0  0  0  0  0
   20.2740   73.2754   -1.9981 O   0  0  0  0  0  0  0  0  0  0  0  0
   19.7285   70.7614   -2.5487 O   0  0  0  0  0  0  0  0  0  0  0  0
   21.9496   71.4816   -1.3133 O   0  0  0  0  0  0  0  0  0  0  0  0
   21.9379   72.1977   -0.0920 C   0  0  0  0  0  0  0  0  0  0  0  0
   24.1237   72.2595    0.9062 O   0  0  0  0  0  0  0  0  0  0  0  0
   23.0033   70.4575    3.0249 O   0  0  0  0  0  0  0  0  0  0  0  0
   22.9746   72.8976    4.2418 O   0  0  0  0  0  0  0  0  0  0  0  0
   22.3723   71.5295    2.3241 C   0  0  1  0  0  0  0  0  0  0  0  0
   22.8830   72.8608    2.8330 C   0  0  2  0  0  0  0  0  0  0  0  0
   22.8841   71.5190    0.8901 C   0  0  1  0  0  0  0  0  0  0  0  0
   24.2396   72.9579    2.1560 C   0  0  2  0  0  0  0  0  0  0  0  0
   22.6920   70.4439    3.9439 H   0  0  0  0  0  0  0  0  0  0  0  0
   22.0854   72.8330    4.6254 H   0  0  0  0  0  0  0  0  0  0  0  0
   25.8059   74.5287    3.9040 O   0  0  0  0  0  0  0  0  0  0  0  0
   25.6665   78.1557    1.0633 O   0  0  0  0  0  0  0  0  0  0  0  0
   24.6274   74.3158    1.8980 N   0  0  0  0  0  0  0  0  0  0  0  0
   25.7341   76.3340    2.4880 N   0  0  0  0  0  0  0  0  0  0  0  0
   25.4153   75.0163    2.8417 C   0  0  0  0  0  0  0  0  0  0  0  0
   24.2297   74.9390    0.7214 C   0  0  0  0  0  0  0  0  0  0  0  0
   24.5415   76.1956    0.3981 C   0  0  0  0  0  0  0  0  0  0  0  0
   25.3614   76.9972    1.3300 C   0  0  0  0  0  0  0  0  0  0  0  0
   26.2802   76.8425    3.1302 H   0  0  0  0  0  0  0  0  0  0  0  0
   21.6501   72.0803   -3.7543 O   0  0  0  0  0  0  0  0  0  0  0  0
   21.4075   73.1245   -4.9645 P   0  0  2  0  0  0  0  0  0  0  0  0
   22.6643   72.8501   -5.9471 O   0  0  0  0  0  0  0  0  0  0  0  0
   21.2658   74.5533   -4.5260 O   0  0  0  0  0  0  0  0  0  0  0  0
   20.1326   72.5390   -5.7609 O   0  0  0  0  0  0  0  0  0  0  0  0
   19.0451   70.4351   -5.7471 O   0  0  0  0  0  0  0  0  0  0  0  0
   18.7966   71.4837   -9.7354 O   0  0  0  0  0  0  0  0  0  0  0  0
   21.2595   71.9454   -8.2335 O   0  0  0  0  0  0  0  0  0  0  0  0
   16.4561   71.6908   -8.0236 O   0  0  0  0  0  0  0  0  0  0  0  0
   18.8461   71.7156   -8.3276 C   0  0  2  0  0  0  0  0  0  0  0  0
   20.1601   71.1727   -7.7655 C   0  0  2  0  0  0  0  0  0  0  0  0
   17.6561   70.9968   -7.6879 C   0  0  1  0  0  0  0  0  0  0  0  0
   20.1514   71.1942   -6.2363 C   0  0  1  0  0  0  0  0  0  0  0  0
   17.7843   70.9512   -6.1680 C   0  0  1  0  0  0  0  0  0  0  0  0
   19.5435   71.9312  -10.1634 H   0  0  0  0  0  0  0  0  0  0  0  0
   21.2710   71.9363   -9.2032 H   0  0  0  0  0  0  0  0  0  0  0  0
   16.3626   71.7270   -8.9884 H   0  0  0  0  0  0  0  0  0  0  0  0
   17.2080   69.5931   -4.3446 O   0  0  0  0  0  0  0  0  0  0  0  0
   15.7959   69.5850   -6.1349 O   0  0  0  0  0  0  0  0  0  0  0  0
   16.8118   69.9799   -5.5825 C   0  0  0  0  0  0  0  0  0  0  0  0
  1  4  1  0
  1 24  1  0
  1  2  1  1
  1  3  2  0
 25 28  1  0
 25 24  1  0
 25 26  1  6
 25 27  2  0
  6 11  1  0
  6 12  1  0
 29 36  1  0
 29 37  1  0
  9  7  1  1
  7 13  1  0
 10  8  1  1
  8 14  1  0
  4  5  1  0
 36 28  1  6
 33 30  1  6
 30 38  1  0
 34 31  1  6
 31 39  1  0
 35 32  1  1
 32 40  1  0
 41 43  1  0
 15 19  2  0
 42 43  2  0
 16 22  2  0
 12 17  1  6
 17 19  1  0
 17 20  1  0
 18 19  1  0
 18 22  1  0
 18 23  1  0
  9 10  1  0
  9 11  1  0
 10 12  1  0
 11  5  1  6
 33 34  1  0
 33 35  1  0
 34 36  1  0
 35 37  1  0
 37 43  1  1
 20 21  2  0
 21 22  1  0
M  CHG  3   2  -1  26  -1  41  -1
M  END
>  <COMPND>  (111) 
    udp_gluA.pdb 

>  <AUTHOR>  (111) 
    GENERATED BY OPEN BABEL 3.1.1

>  <MASTER>  (111) 
        0    0    0    0    0    0    0    0   56    0   56    0

>  <minimizedAffinity>  (111) 
-7.22057

>  <CNNscore>  (111) 
0.4143969417

>  <CNNaffinity>  (111) 
4.0472836494

>  <CNN_VS>  (111) 
1.6771819592

>  <CNNaffinity_variance>  (111) 
0.0288430694

$$$$
112
     RDKit          3D

 43 45  0  0  0  0  0  0  0  0999 V2000
   20.7547   70.2678   -1.6846 P   0  0  2  0  0  0  0  0  0  0  0  0
   20.8427   68.8037   -1.0008 O   0  0  0  0  0  0  0  0  0  0  0  0
   21.8415   70.5714   -2.6738 O   0  0  0  0  0  0  0  0  0  0  0  0
   20.6479   71.2788   -0.4259 O   0  0  0  0  0  0  0  0  0  0  0  0
   21.7493   72.1212   -0.1399 C   0  0  0  0  0  0  0  0  0  0  0  0
   23.9475   72.1484    0.8320 O   0  0  0  0  0  0  0  0  0  0  0  0
   23.4836   69.2631    1.5038 O   0  0  0  0  0  0  0  0  0  0  0  0
   23.0096   70.5120    3.8811 O   0  0  0  0  0  0  0  0  0  0  0  0
   22.5574   70.3497    1.4975 C   0  0  1  0  0  0  0  0  0  0  0  0
   22.7935   71.2465    2.6943 C   0  0  2  0  0  0  0  0  0  0  0  0
   22.9169   71.2667    0.3364 C   0  0  1  0  0  0  0  0  0  0  0  0
   24.0191   72.0332    2.2620 C   0  0  2  0  0  0  0  0  0  0  0  0
   23.2740   68.6634    2.2373 H   0  0  0  0  0  0  0  0  0  0  0  0
   22.2007   70.0291    4.1143 H   0  0  0  0  0  0  0  0  0  0  0  0
   26.3788   73.5320    2.6642 O   0  0  0  0  0  0  0  0  0  0  0  0
   24.0412   77.0705    4.4695 O   0  0  0  0  0  0  0  0  0  0  0  0
   24.0559   73.3489    2.8352 N   0  0  0  0  0  0  0  0  0  0  0  0
   25.2124   75.2925    3.5639 N   0  0  0  0  0  0  0  0  0  0  0  0
   25.2940   74.0153    2.9938 C   0  0  0  0  0  0  0  0  0  0  0  0
   22.8757   73.9660    3.2316 C   0  0  0  0  0  0  0  0  0  0  0  0
   22.8138   75.1840    3.7734 C   0  0  0  0  0  0  0  0  0  0  0  0
   24.0627   75.9477    3.9744 C   0  0  0  0  0  0  0  0  0  0  0  0
   26.0617   75.7753    3.6862 H   0  0  0  0  0  0  0  0  0  0  0  0
   19.2595   70.2924   -2.2984 O   0  0  0  0  0  0  0  0  0  0  0  0
   18.5478   69.3447   -3.3979 P   0  0  2  0  0  0  0  0  0  0  0  0
   17.0694   69.1096   -2.7820 O   0  0  0  0  0  0  0  0  0  0  0  0
   19.2996   68.0811   -3.7009 O   0  0  0  0  0  0  0  0  0  0  0  0
   18.3098   70.3043   -4.6727 O   0  0  0  0  0  0  0  0  0  0  0  0
   19.7451   70.7764   -6.4965 O   0  0  0  0  0  0  0  0  0  0  0  0
   17.6751   74.3311   -6.1138 O   0  0  0  0  0  0  0  0  0  0  0  0
   18.6240   72.9077   -3.7457 O   0  0  0  0  0  0  0  0  0  0  0  0
   17.0282   72.4906   -8.2690 O   0  0  0  0  0  0  0  0  0  0  0  0
   17.8597   72.9171   -6.0482 C   0  0  2  0  0  0  0  0  0  0  0  0
   18.9995   72.5940   -5.0818 C   0  0  2  0  0  0  0  0  0  0  0  0
   18.1973   72.4185   -7.4551 C   0  0  1  0  0  0  0  0  0  0  0  0
   19.3788   71.1145   -5.1582 C   0  0  1  0  0  0  0  0  0  0  0  0
   18.6869   70.9734   -7.4315 C   0  0  1  0  0  0  0  0  0  0  0  0
   17.4595   74.6705   -5.2308 H   0  0  0  0  0  0  0  0  0  0  0  0
   18.3818   73.8451   -3.6899 H   0  0  0  0  0  0  0  0  0  0  0  0
   16.7063   73.4053   -8.2922 H   0  0  0  0  0  0  0  0  0  0  0  0
   20.6591   70.8019   -8.6895 O   0  0  0  0  0  0  0  0  0  0  0  0
   18.7166   70.1837   -9.7112 O   0  0  0  0  0  0  0  0  0  0  0  0
   19.3180   70.6058   -8.7349 C   0  0  0  0  0  0  0  0  0  0  0  0
  1  4  1  0
  1 24  1  0
  1  2  1  1
  1  3  2  0
 25 28  1  0
 25 24  1  0
 25 26  1  1
 25 27  2  0
  6 11  1  0
  6 12  1  0
 29 36  1  0
 29 37  1  0
  9  7  1  1
  7 13  1  0
 10  8  1  1
  8 14  1  0
  4  5  1  0
 36 28  1  6
 33 30  1  6
 30 38  1  0
 34 31  1  1
 31 39  1  0
 35 32  1  6
 32 40  1  0
 41 43  1  0
 15 19  2  0
 42 43  2  0
 16 22  2  0
 12 17  1  1
 17 19  1  0
 17 20  1  0
 18 19  1  0
 18 22  1  0
 18 23  1  0
  9 10  1  0
  9 11  1  0
 10 12  1  0
 11  5  1  1
 33 34  1  0
 33 35  1  0
 34 36  1  0
 35 37  1  0
 37 43  1  6
 20 21  2  0
 21 22  1  0
M  CHG  3   2  -1  26  -1  41  -1
M  END
>  <COMPND>  (112) 
    udp_gluA.pdb 

>  <AUTHOR>  (112) 
    GENERATED BY OPEN BABEL 3.1.1

>  <MASTER>  (112) 
        0    0    0    0    0    0    0    0   56    0   56    0

>  <minimizedAffinity>  (112) 
-7.27422

>  <CNNscore>  (112) 
0.3799941838

>  <CNNaffinity>  (112) 
4.0585393906

>  <CNN_VS>  (112) 
1.5422213078

>  <CNNaffinity_variance>  (112) 
0.0329490565

$$$$
113
     RDKit          3D

 43 45  0  0  0  0  0  0  0  0999 V2000
   20.2819   74.5671   -3.4164 P   0  0  2  0  0  0  0  0  0  0  0  0
   20.4964   75.2446   -1.9625 O   0  0  0  0  0  0  0  0  0  0  0  0
   20.4564   75.4974   -4.5809 O   0  0  0  0  0  0  0  0  0  0  0  0
   18.8364   73.8493   -3.3011 O   0  0  0  0  0  0  0  0  0  0  0  0
   18.7556   72.5918   -2.6556 C   0  0  0  0  0  0  0  0  0  0  0  0
   17.1410   72.1630   -4.3838 O   0  0  0  0  0  0  0  0  0  0  0  0
   16.0425   70.0403   -2.5731 O   0  0  0  0  0  0  0  0  0  0  0  0
   17.5229   68.5983   -4.3521 O   0  0  0  0  0  0  0  0  0  0  0  0
   17.3971   70.4441   -2.7743 C   0  0  1  0  0  0  0  0  0  0  0  0
   17.9027   69.9365   -4.1081 C   0  0  2  0  0  0  0  0  0  0  0  0
   17.4119   71.9525   -2.9811 C   0  0  1  0  0  0  0  0  0  0  0  0
   17.2623   70.9126   -5.0803 C   0  0  2  0  0  0  0  0  0  0  0  0
   16.0075   69.0799   -2.4387 H   0  0  0  0  0  0  0  0  0  0  0  0
   17.9567   68.0165   -3.7077 H   0  0  0  0  0  0  0  0  0  0  0  0
   16.2753   70.7064   -7.7184 O   0  0  0  0  0  0  0  0  0  0  0  0
   20.3963   71.6923   -9.5320 O   0  0  0  0  0  0  0  0  0  0  0  0
   18.0555   71.1105   -6.2604 N   0  0  0  0  0  0  0  0  0  0  0  0
   18.3290   71.1966   -8.6192 N   0  0  0  0  0  0  0  0  0  0  0  0
   17.4627   70.9835   -7.5388 C   0  0  0  0  0  0  0  0  0  0  0  0
   19.4034   71.4280   -6.1449 C   0  0  0  0  0  0  0  0  0  0  0  0
   20.2164   71.6284   -7.1839 C   0  0  0  0  0  0  0  0  0  0  0  0
   19.6761   71.5137   -8.5544 C   0  0  0  0  0  0  0  0  0  0  0  0
   17.9395   71.1116   -9.5194 H   0  0  0  0  0  0  0  0  0  0  0  0
   21.3100   73.3201   -3.3910 O   0  0  0  0  0  0  0  0  0  0  0  0
   22.9207   73.2749   -3.2598 P   0  0  2  0  0  0  0  0  0  0  0  0
   23.3230   74.8351   -3.1042 O   0  0  0  0  0  0  0  0  0  0  0  0
   23.6110   72.5681   -4.3902 O   0  0  0  0  0  0  0  0  0  0  0  0
   23.1951   72.6365   -1.8039 O   0  0  0  0  0  0  0  0  0  0  0  0
   21.9049   70.9353   -0.7790 O   0  0  0  0  0  0  0  0  0  0  0  0
   23.5253   72.8533    2.5018 O   0  0  0  0  0  0  0  0  0  0  0  0
   22.5074   74.3948    0.2385 O   0  0  0  0  0  0  0  0  0  0  0  0
   24.5804   70.2833    1.6456 O   0  0  0  0  0  0  0  0  0  0  0  0
   23.4909   72.3759    1.1568 C   0  0  2  0  0  0  0  0  0  0  0  0
   22.3030   72.9987    0.4229 C   0  0  2  0  0  0  0  0  0  0  0  0
   23.3512   70.8526    1.1991 C   0  0  1  0  0  0  0  0  0  0  0  0
   22.0974   72.3409   -0.9423 C   0  0  1  0  0  0  0  0  0  0  0  0
   23.0228   70.2849   -0.1788 C   0  0  1  0  0  0  0  0  0  0  0  0
   23.6137   73.8194    2.5000 H   0  0  0  0  0  0  0  0  0  0  0  0
   22.6389   74.8185    1.1008 H   0  0  0  0  0  0  0  0  0  0  0  0
   24.8009   70.6366    2.5216 H   0  0  0  0  0  0  0  0  0  0  0  0
   21.2221   68.8042    0.0792 O   0  0  0  0  0  0  0  0  0  0  0  0
   23.3010   67.8889   -0.1191 O   0  0  0  0  0  0  0  0  0  0  0  0
   22.5682   68.8656   -0.0731 C   0  0  0  0  0  0  0  0  0  0  0  0
  1  4  1  0
  1 24  1  0
  1  2  1  1
  1  3  2  0
 25 28  1  0
 25 24  1  0
 25 26  1  1
 25 27  2  0
  6 11  1  0
  6 12  1  0
 29 36  1  0
 29 37  1  0
  9  7  1  6
  7 13  1  0
 10  8  1  6
  8 14  1  0
  4  5  1  0
 36 28  1  6
 33 30  1  1
 30 38  1  0
 34 31  1  6
 31 39  1  0
 35 32  1  6
 32 40  1  0
 41 43  1  0
 15 19  2  0
 42 43  2  0
 16 22  2  0
 12 17  1  6
 17 19  1  0
 17 20  1  0
 18 19  1  0
 18 22  1  0
 18 23  1  0
  9 10  1  0
  9 11  1  0
 10 12  1  0
 11  5  1  6
 33 34  1  0
 33 35  1  0
 34 36  1  0
 35 37  1  0
 37 43  1  1
 20 21  2  0
 21 22  1  0
M  CHG  3   2  -1  26  -1  41  -1
M  END
>  <COMPND>  (113) 
    udp_gluA.pdb 

>  <AUTHOR>  (113) 
    GENERATED BY OPEN BABEL 3.1.1

>  <MASTER>  (113) 
        0    0    0    0    0    0    0    0   56    0   56    0

>  <minimizedAffinity>  (113) 
-7.12497

>  <CNNscore>  (113) 
0.3628322482

>  <CNNaffinity>  (113) 
4.1655716896

>  <CNN_VS>  (113) 
1.5114037991

>  <CNNaffinity_variance>  (113) 
0.1882957965

$$$$
114
     RDKit          3D

 43 45  0  0  0  0  0  0  0  0999 V2000
   21.6120   73.0087   -6.5311 P   0  0  2  0  0  0  0  0  0  0  0  0
   21.3886   74.5485   -6.0859 O   0  0  0  0  0  0  0  0  0  0  0  0
   22.7369   72.7859   -7.4990 O   0  0  0  0  0  0  0  0  0  0  0  0
   20.1490   72.5332   -7.0326 O   0  0  0  0  0  0  0  0  0  0  0  0
   19.2391   73.5160   -7.4916 C   0  0  0  0  0  0  0  0  0  0  0  0
   17.9617   71.4805   -7.4384 O   0  0  0  0  0  0  0  0  0  0  0  0
   15.6150   73.1503   -8.2729 O   0  0  0  0  0  0  0  0  0  0  0  0
   15.2028   72.8389   -5.5953 O   0  0  0  0  0  0  0  0  0  0  0  0
   16.6968   73.4829   -7.4024 C   0  0  1  0  0  0  0  0  0  0  0  0
   16.5317   72.7829   -6.0701 C   0  0  2  0  0  0  0  0  0  0  0  0
   17.9586   72.8306   -7.9508 C   0  0  1  0  0  0  0  0  0  0  0  0
   16.9756   71.3680   -6.4001 C   0  0  2  0  0  0  0  0  0  0  0  0
   14.7976   73.5560   -7.9429 H   0  0  0  0  0  0  0  0  0  0  0  0
   14.9681   73.7601   -5.3993 H   0  0  0  0  0  0  0  0  0  0  0  0
   16.3961   68.7086   -5.6460 O   0  0  0  0  0  0  0  0  0  0  0  0
   19.2761   68.9069   -2.0529 O   0  0  0  0  0  0  0  0  0  0  0  0
   17.5598   70.6997   -5.2718 N   0  0  0  0  0  0  0  0  0  0  0  0
   17.8303   68.8102   -3.8565 N   0  0  0  0  0  0  0  0  0  0  0  0
   17.2006   69.3627   -4.9796 C   0  0  0  0  0  0  0  0  0  0  0  0
   18.4780   71.3665   -4.4698 C   0  0  0  0  0  0  0  0  0  0  0  0
   19.0700   70.8267   -3.4026 C   0  0  0  0  0  0  0  0  0  0  0  0
   18.7492   69.4338   -3.0281 C   0  0  0  0  0  0  0  0  0  0  0  0
   17.5946   67.8811   -3.6320 H   0  0  0  0  0  0  0  0  0  0  0  0
   21.7783   72.2427   -5.1174 O   0  0  0  0  0  0  0  0  0  0  0  0
   22.7101   72.5682   -3.8370 P   0  0  2  0  0  0  0  0  0  0  0  0
   21.7743   73.5324   -2.9342 O   0  0  0  0  0  0  0  0  0  0  0  0
   24.0490   73.1528   -4.1824 O   0  0  0  0  0  0  0  0  0  0  0  0
   22.7769   71.1810   -3.0162 O   0  0  0  0  0  0  0  0  0  0  0  0
   23.1156   71.5333   -0.6988 O   0  0  0  0  0  0  0  0  0  0  0  0
   23.3861   67.4199   -0.9722 O   0  0  0  0  0  0  0  0  0  0  0  0
   24.6484   69.1237   -2.9816 O   0  0  0  0  0  0  0  0  0  0  0  0
   20.9881   68.6557    0.1110 O   0  0  0  0  0  0  0  0  0  0  0  0
   22.9200   68.7216   -1.3273 C   0  0  2  0  0  0  0  0  0  0  0  0
   24.1037   69.5906   -1.7528 C   0  0  2  0  0  0  0  0  0  0  0  0
   22.2285   69.3265   -0.1034 C   0  0  1  0  0  0  0  0  0  0  0  0
   23.6790   71.0504   -1.9190 C   0  0  1  0  0  0  0  0  0  0  0  0
   21.9511   70.8142   -0.2988 C   0  0  1  0  0  0  0  0  0  0  0  0
   23.8293   67.0158   -1.7348 H   0  0  0  0  0  0  0  0  0  0  0  0
   24.9198   68.1980   -2.8835 H   0  0  0  0  0  0  0  0  0  0  0  0
   21.1507   67.7077    0.2366 H   0  0  0  0  0  0  0  0  0  0  0  0
   22.4238   72.4921    1.2706 O   0  0  0  0  0  0  0  0  0  0  0  0
   20.6621   71.1155    1.7184 O   0  0  0  0  0  0  0  0  0  0  0  0
   21.5867   71.4606    0.9980 C   0  0  0  0  0  0  0  0  0  0  0  0
  1  4  1  0
  1 24  1  0
  1  2  1  1
  1  3  2  0
 25 28  1  0
 25 24  1  0
 25 26  1  1
 25 27  2  0
  6 11  1  0
  6 12  1  0
 29 36  1  0
 29 37  1  0
  9  7  1  6
  7 13  1  0
 10  8  1  6
  8 14  1  0
  4  5  1  0
 36 28  1  6
 33 30  1  1
 30 38  1  0
 34 31  1  6
 31 39  1  0
 35 32  1  6
 32 40  1  0
 41 43  1  0
 15 19  2  0
 42 43  2  0
 16 22  2  0
 12 17  1  1
 17 19  1  0
 17 20  1  0
 18 19  1  0
 18 22  1  0
 18 23  1  0
  9 10  1  0
  9 11  1  0
 10 12  1  0
 11  5  1  1
 33 34  1  0
 33 35  1  0
 34 36  1  0
 35 37  1  0
 37 43  1  1
 20 21  2  0
 21 22  1  0
M  CHG  3   2  -1  26  -1  41  -1
M  END
>  <COMPND>  (114) 
    udp_gluA.pdb 

>  <AUTHOR>  (114) 
    GENERATED BY OPEN BABEL 3.1.1

>  <MASTER>  (114) 
        0    0    0    0    0    0    0    0   56    0   56    0

>  <minimizedAffinity>  (114) 
-8.08017

>  <CNNscore>  (114) 
0.3573599160

>  <CNNaffinity>  (114) 
4.0304827690

>  <CNN_VS>  (114) 
1.4403330088

>  <CNNaffinity_variance>  (114) 
0.6190484166

$$$$
115
     RDKit          3D

 43 45  0  0  0  0  0  0  0  0999 V2000
   22.4068   73.1156   -3.4957 P   0  0  2  0  0  0  0  0  0  0  0  0
   23.3835   72.8017   -4.7472 O   0  0  0  0  0  0  0  0  0  0  0  0
   22.4979   74.5128   -2.9558 O   0  0  0  0  0  0  0  0  0  0  0  0
   22.7335   71.9324   -2.4416 O   0  0  0  0  0  0  0  0  0  0  0  0
   22.8055   72.2543   -1.0647 C   0  0  0  0  0  0  0  0  0  0  0  0
   21.9735   70.0000   -1.0060 O   0  0  0  0  0  0  0  0  0  0  0  0
   21.5132   70.4437    1.9236 O   0  0  0  0  0  0  0  0  0  0  0  0
   23.8322   69.0093    1.8953 O   0  0  0  0  0  0  0  0  0  0  0  0
   22.5690   70.9252    1.0916 C   0  0  1  0  0  0  0  0  0  0  0  0
   23.5330   69.8039    0.7667 C   0  0  2  0  0  0  0  0  0  0  0  0
   21.9806   71.2457   -0.2756 C   0  0  1  0  0  0  0  0  0  0  0  0
   22.7758   69.0372   -0.3041 C   0  0  2  0  0  0  0  0  0  0  0  0
   21.8649   70.2322    2.8029 H   0  0  0  0  0  0  0  0  0  0  0  0
   24.3142   69.5424    2.5475 H   0  0  0  0  0  0  0  0  0  0  0  0
   23.1363   66.2416   -0.4803 O   0  0  0  0  0  0  0  0  0  0  0  0
   26.1666   66.6658   -3.9272 O   0  0  0  0  0  0  0  0  0  0  0  0
   23.6528   68.3903   -1.2385 N   0  0  0  0  0  0  0  0  0  0  0  0
   24.6460   66.4556   -2.1962 N   0  0  0  0  0  0  0  0  0  0  0  0
   23.7613   66.9795   -1.2444 C   0  0  0  0  0  0  0  0  0  0  0  0
   24.3923   69.1505   -2.1364 C   0  0  0  0  0  0  0  0  0  0  0  0
   25.2314   68.6368   -3.0380 C   0  0  0  0  0  0  0  0  0  0  0  0
   25.4034   67.1710   -3.1095 C   0  0  0  0  0  0  0  0  0  0  0  0
   24.7398   65.4758   -2.2179 H   0  0  0  0  0  0  0  0  0  0  0  0
   20.9490   72.7061   -4.0614 O   0  0  0  0  0  0  0  0  0  0  0  0
   19.4650   73.0976   -3.5536 P   0  0  2  0  0  0  0  0  0  0  0  0
   19.0965   74.3929   -4.4518 O   0  0  0  0  0  0  0  0  0  0  0  0
   19.3600   73.3218   -2.0728 O   0  0  0  0  0  0  0  0  0  0  0  0
   18.5150   71.9243   -4.1221 O   0  0  0  0  0  0  0  0  0  0  0  0
   18.5833   69.5765   -4.4258 O   0  0  0  0  0  0  0  0  0  0  0  0
   17.1625   70.8568   -8.0878 O   0  0  0  0  0  0  0  0  0  0  0  0
   19.3298   72.2931   -6.7558 O   0  0  0  0  0  0  0  0  0  0  0  0
   15.3519   69.6464   -6.1623 O   0  0  0  0  0  0  0  0  0  0  0  0
   17.3443   70.9014   -6.6725 C   0  0  2  0  0  0  0  0  0  0  0  0
   18.8342   71.0221   -6.3515 C   0  0  2  0  0  0  0  0  0  0  0  0
   16.7755   69.6094   -6.0817 C   0  0  1  0  0  0  0  0  0  0  0  0
   19.0875   70.8421   -4.8541 C   0  0  1  0  0  0  0  0  0  0  0  0
   17.1770   69.4416   -4.6191 C   0  0  1  0  0  0  0  0  0  0  0  0
   17.5167   71.6679   -8.4852 H   0  0  0  0  0  0  0  0  0  0  0  0
   19.1721   72.4142   -7.7049 H   0  0  0  0  0  0  0  0  0  0  0  0
   15.0831   69.7531   -7.0881 H   0  0  0  0  0  0  0  0  0  0  0  0
   16.3619   67.3065   -5.1470 O   0  0  0  0  0  0  0  0  0  0  0  0
   17.1417   67.6277   -3.0285 O   0  0  0  0  0  0  0  0  0  0  0  0
   16.9061   68.0488   -4.1511 C   0  0  0  0  0  0  0  0  0  0  0  0
  1  4  1  0
  1 24  1  0
  1  2  1  6
  1  3  2  0
 25 28  1  0
 25 24  1  0
 25 26  1  6
 25 27  2  0
  6 11  1  0
  6 12  1  0
 29 36  1  0
 29 37  1  0
  9  7  1  1
  7 13  1  0
 10  8  1  1
  8 14  1  0
  4  5  1  0
 36 28  1  1
 33 30  1  6
 30 38  1  0
 34 31  1  1
 31 39  1  0
 35 32  1  1
 32 40  1  0
 41 43  1  0
 15 19  2  0
 42 43  2  0
 16 22  2  0
 12 17  1  6
 17 19  1  0
 17 20  1  0
 18 19  1  0
 18 22  1  0
 18 23  1  0
  9 10  1  0
  9 11  1  0
 10 12  1  0
 11  5  1  6
 33 34  1  0
 33 35  1  0
 34 36  1  0
 35 37  1  0
 37 43  1  6
 20 21  2  0
 21 22  1  0
M  CHG  3   2  -1  26  -1  41  -1
M  END
>  <COMPND>  (115) 
    udp_gluA.pdb 

>  <AUTHOR>  (115) 
    GENERATED BY OPEN BABEL 3.1.1

>  <MASTER>  (115) 
        0    0    0    0    0    0    0    0   56    0   56    0

>  <minimizedAffinity>  (115) 
-8.95874

>  <CNNscore>  (115) 
0.3171793222

>  <CNNaffinity>  (115) 
4.1355767250

>  <CNN_VS>  (115) 
1.3117194176

>  <CNNaffinity_variance>  (115) 
0.8753215075

$$$$
116
     RDKit          3D

 43 45  0  0  0  0  0  0  0  0999 V2000
   18.4443   70.9020   -3.7892 P   0  0  2  0  0  0  0  0  0  0  0  0
   17.7968   71.7482   -2.5712 O   0  0  0  0  0  0  0  0  0  0  0  0
   17.5279   69.8933   -4.4173 O   0  0  0  0  0  0  0  0  0  0  0  0
   19.8166   70.3129   -3.1666 O   0  0  0  0  0  0  0  0  0  0  0  0
   20.5380   71.1100   -2.2453 C   0  0  0  0  0  0  0  0  0  0  0  0
   21.1067   69.0813   -1.0883 O   0  0  0  0  0  0  0  0  0  0  0  0
   21.0318   70.7138    1.4258 O   0  0  0  0  0  0  0  0  0  0  0  0
   23.7040   70.5292    0.9146 O   0  0  0  0  0  0  0  0  0  0  0  0
   21.4742   71.0852    0.1201 C   0  0  1  0  0  0  0  0  0  0  0  0
   22.8149   70.4488   -0.1797 C   0  0  2  0  0  0  0  0  0  0  0  0
   20.5650   70.4059   -0.8948 C   0  0  1  0  0  0  0  0  0  0  0  0
   22.4191   69.0192   -0.5078 C   0  0  2  0  0  0  0  0  0  0  0  0
   21.5978   71.1358    2.0916 H   0  0  0  0  0  0  0  0  0  0  0  0
   23.9257   71.4589    1.0834 H   0  0  0  0  0  0  0  0  0  0  0  0
   23.6751   70.3782   -2.6415 O   0  0  0  0  0  0  0  0  0  0  0  0
   25.8394   66.5573   -4.0417 O   0  0  0  0  0  0  0  0  0  0  0  0
   23.3156   68.4038   -1.4451 N   0  0  0  0  0  0  0  0  0  0  0  0
   24.7510   68.4736   -3.3374 N   0  0  0  0  0  0  0  0  0  0  0  0
   23.8931   69.1758   -2.4808 C   0  0  0  0  0  0  0  0  0  0  0  0
   23.6159   67.0518   -1.3325 C   0  0  0  0  0  0  0  0  0  0  0  0
   24.4356   66.3964   -2.1566 C   0  0  0  0  0  0  0  0  0  0  0  0
   25.0798   67.1296   -3.2660 C   0  0  0  0  0  0  0  0  0  0  0  0
   25.1635   68.9895   -4.0675 H   0  0  0  0  0  0  0  0  0  0  0  0
   18.9669   72.0549   -4.7945 O   0  0  0  0  0  0  0  0  0  0  0  0
   19.2710   72.0210   -6.3820 P   0  0  2  0  0  0  0  0  0  0  0  0
   17.9046   72.5956   -7.0326 O   0  0  0  0  0  0  0  0  0  0  0  0
   19.6846   70.6744   -6.9011 O   0  0  0  0  0  0  0  0  0  0  0  0
   20.3567   73.1910   -6.6158 O   0  0  0  0  0  0  0  0  0  0  0  0
   21.1193   74.8756   -5.1360 O   0  0  0  0  0  0  0  0  0  0  0  0
   21.3721   76.7883   -8.7892 O   0  0  0  0  0  0  0  0  0  0  0  0
   19.0628   75.1174   -8.1491 O   0  0  0  0  0  0  0  0  0  0  0  0
   23.7795   75.8161   -7.4815 O   0  0  0  0  0  0  0  0  0  0  0  0
   21.4101   75.6759   -7.8953 C   0  0  2  0  0  0  0  0  0  0  0  0
   20.0518   75.5233   -7.2102 C   0  0  2  0  0  0  0  0  0  0  0  0
   22.5030   75.9405   -6.8573 C   0  0  1  0  0  0  0  0  0  0  0  0
   20.1207   74.4927   -6.0823 C   0  0  1  0  0  0  0  0  0  0  0  0
   22.4262   74.9468   -5.7018 C   0  0  1  0  0  0  0  0  0  0  0  0
   20.6845   76.6426   -9.4580 H   0  0  0  0  0  0  0  0  0  0  0  0
   19.0140   75.7667   -8.8677 H   0  0  0  0  0  0  0  0  0  0  0  0
   23.8413   76.4432   -8.2189 H   0  0  0  0  0  0  0  0  0  0  0  0
   22.4950   75.9852   -3.5998 O   0  0  0  0  0  0  0  0  0  0  0  0
   24.4771   75.2729   -4.4733 O   0  0  0  0  0  0  0  0  0  0  0  0
   23.2648   75.4036   -4.5527 C   0  0  0  0  0  0  0  0  0  0  0  0
  1  4  1  0
  1 24  1  0
  1  2  1  1
  1  3  2  0
 25 28  1  0
 25 24  1  0
 25 26  1  6
 25 27  2  0
  6 11  1  0
  6 12  1  0
 29 36  1  0
 29 37  1  0
  9  7  1  1
  7 13  1  0
 10  8  1  1
  8 14  1  0
  4  5  1  0
 36 28  1  6
 33 30  1  6
 30 38  1  0
 34 31  1  6
 31 39  1  0
 35 32  1  6
 32 40  1  0
 41 43  1  0
 15 19  2  0
 42 43  2  0
 16 22  2  0
 12 17  1  6
 17 19  1  0
 17 20  1  0
 18 19  1  0
 18 22  1  0
 18 23  1  0
  9 10  1  0
  9 11  1  0
 10 12  1  0
 11  5  1  6
 33 34  1  0
 33 35  1  0
 34 36  1  0
 35 37  1  0
 37 43  1  1
 20 21  2  0
 21 22  1  0
M  CHG  3   2  -1  26  -1  41  -1
M  END
>  <COMPND>  (116) 
    udp_gluA.pdb 

>  <AUTHOR>  (116) 
    GENERATED BY OPEN BABEL 3.1.1

>  <MASTER>  (116) 
        0    0    0    0    0    0    0    0   56    0   56    0

>  <minimizedAffinity>  (116) 
-7.24982

>  <CNNscore>  (116) 
0.3009097874

>  <CNNaffinity>  (116) 
3.8952186108

>  <CNN_VS>  (116) 
1.1721093655

>  <CNNaffinity_variance>  (116) 
0.5910604596

$$$$
117
     RDKit          3D

 43 45  0  0  0  0  0  0  0  0999 V2000
   22.7242   73.2615   -3.5137 P   0  0  2  0  0  0  0  0  0  0  0  0
   24.2416   73.1926   -4.0721 O   0  0  0  0  0  0  0  0  0  0  0  0
   22.3071   74.5990   -2.9762 O   0  0  0  0  0  0  0  0  0  0  0  0
   22.6374   72.0272   -2.4713 O   0  0  0  0  0  0  0  0  0  0  0  0
   22.8094   72.2941   -1.0915 C   0  0  0  0  0  0  0  0  0  0  0  0
   21.9711   70.0429   -1.0067 O   0  0  0  0  0  0  0  0  0  0  0  0
   21.5383   70.5123    1.9231 O   0  0  0  0  0  0  0  0  0  0  0  0
   23.8525   69.0705    1.8862 O   0  0  0  0  0  0  0  0  0  0  0  0
   22.5880   70.9836    1.0778 C   0  0  1  0  0  0  0  0  0  0  0  0
   23.5458   69.8567    0.7537 C   0  0  2  0  0  0  0  0  0  0  0  0
   21.9886   71.2946   -0.2868 C   0  0  1  0  0  0  0  0  0  0  0  0
   22.7768   69.0835   -0.3040 C   0  0  2  0  0  0  0  0  0  0  0  0
   21.8971   70.3070    2.8010 H   0  0  0  0  0  0  0  0  0  0  0  0
   24.3420   69.6075    2.5296 H   0  0  0  0  0  0  0  0  0  0  0  0
   23.1353   66.2861   -0.4530 O   0  0  0  0  0  0  0  0  0  0  0  0
   26.1277   66.6717   -3.9375 O   0  0  0  0  0  0  0  0  0  0  0  0
   23.6435   68.4261   -1.2407 N   0  0  0  0  0  0  0  0  0  0  0  0
   24.6261   66.4809   -2.1877 N   0  0  0  0  0  0  0  0  0  0  0  0
   23.7519   67.0153   -1.2321 C   0  0  0  0  0  0  0  0  0  0  0  0
   24.3731   69.1762   -2.1550 C   0  0  0  0  0  0  0  0  0  0  0  0
   25.2023   68.6525   -3.0600 C   0  0  0  0  0  0  0  0  0  0  0  0
   25.3734   67.1859   -3.1171 C   0  0  0  0  0  0  0  0  0  0  0  0
   24.7197   65.5008   -2.1996 H   0  0  0  0  0  0  0  0  0  0  0  0
   21.8513   72.7386   -4.7697 O   0  0  0  0  0  0  0  0  0  0  0  0
   21.4912   73.4438   -6.1791 P   0  0  2  0  0  0  0  0  0  0  0  0
   22.6763   72.9382   -7.1591 O   0  0  0  0  0  0  0  0  0  0  0  0
   21.3471   74.9362   -6.1019 O   0  0  0  0  0  0  0  0  0  0  0  0
   20.1747   72.6701   -6.6994 O   0  0  0  0  0  0  0  0  0  0  0  0
   19.0347   70.8459   -5.7085 O   0  0  0  0  0  0  0  0  0  0  0  0
   18.3179   70.2030   -9.7260 O   0  0  0  0  0  0  0  0  0  0  0  0
   20.9630   71.0375   -8.8087 O   0  0  0  0  0  0  0  0  0  0  0  0
   16.2188   71.2710   -8.0220 O   0  0  0  0  0  0  0  0  0  0  0  0
   18.5511   70.9811   -8.5521 C   0  0  2  0  0  0  0  0  0  0  0  0
   19.9085   70.6107   -7.9540 C   0  0  2  0  0  0  0  0  0  0  0  0
   17.4301   70.6802   -7.5548 C   0  0  1  0  0  0  0  0  0  0  0  0
   20.0930   71.2512   -6.5775 C   0  0  1  0  0  0  0  0  0  0  0  0
   17.7471   71.2450   -6.1732 C   0  0  1  0  0  0  0  0  0  0  0  0
   19.0182   70.3777  -10.3744 H   0  0  0  0  0  0  0  0  0  0  0  0
   20.8521   70.6351   -9.6840 H   0  0  0  0  0  0  0  0  0  0  0  0
   16.0057   70.9200   -8.9008 H   0  0  0  0  0  0  0  0  0  0  0  0
   17.3812   69.5845   -4.5575 O   0  0  0  0  0  0  0  0  0  0  0  0
   15.7269   71.1243   -4.8596 O   0  0  0  0  0  0  0  0  0  0  0  0
   16.8271   70.6749   -5.1432 C   0  0  0  0  0  0  0  0  0  0  0  0
  1  4  1  0
  1 24  1  0
  1  2  1  6
  1  3  2  0
 25 28  1  0
 25 24  1  0
 25 26  1  6
 25 27  2  0
  6 11  1  0
  6 12  1  0
 29 36  1  0
 29 37  1  0
  9  7  1  1
  7 13  1  0
 10  8  1  1
  8 14  1  0
  4  5  1  0
 36 28  1  6
 33 30  1  6
 30 38  1  0
 34 31  1  6
 31 39  1  0
 35 32  1  6
 32 40  1  0
 41 43  1  0
 15 19  2  0
 42 43  2  0
 16 22  2  0
 12 17  1  6
 17 19  1  0
 17 20  1  0
 18 19  1  0
 18 22  1  0
 18 23  1  0
  9 10  1  0
  9 11  1  0
 10 12  1  0
 11  5  1  6
 33 34  1  0
 33 35  1  0
 34 36  1  0
 35 37  1  0
 37 43  1  1
 20 21  2  0
 21 22  1  0
M  CHG  3   2  -1  26  -1  41  -1
M  END
>  <COMPND>  (117) 
    udp_gluA.pdb 

>  <AUTHOR>  (117) 
    GENERATED BY OPEN BABEL 3.1.1

>  <MASTER>  (117) 
        0    0    0    0    0    0    0    0   56    0   56    0

>  <minimizedAffinity>  (117) 
-9.29375

>  <CNNscore>  (117) 
0.2982458472

>  <CNNaffinity>  (117) 
4.2203445435

>  <CNN_VS>  (117) 
1.2587002516

>  <CNNaffinity_variance>  (117) 
0.5776352882

$$$$
118
     RDKit          3D

 43 45  0  0  0  0  0  0  0  0999 V2000
   22.5545   72.8591   -3.5074 P   0  0  2  0  0  0  0  0  0  0  0  0
   23.8963   72.8199   -4.4112 O   0  0  0  0  0  0  0  0  0  0  0  0
   22.1329   74.2274   -3.0583 O   0  0  0  0  0  0  0  0  0  0  0  0
   22.8497   71.7922   -2.3273 O   0  0  0  0  0  0  0  0  0  0  0  0
   22.8037   72.2392   -0.9847 C   0  0  0  0  0  0  0  0  0  0  0  0
   21.9768   69.9850   -0.8728 O   0  0  0  0  0  0  0  0  0  0  0  0
   21.6266   70.4570    2.0676 O   0  0  0  0  0  0  0  0  0  0  0  0
   23.9444   69.0239    1.9660 O   0  0  0  0  0  0  0  0  0  0  0  0
   22.6499   70.9310    1.1918 C   0  0  1  0  0  0  0  0  0  0  0  0
   23.6022   69.8073    0.8418 C   0  0  2  0  0  0  0  0  0  0  0  0
   22.0102   71.2378   -0.1554 C   0  0  1  0  0  0  0  0  0  0  0  0
   22.8060   69.0297   -0.1923 C   0  0  2  0  0  0  0  0  0  0  0  0
   22.0114   70.2543    2.9351 H   0  0  0  0  0  0  0  0  0  0  0  0
   24.4501   69.5637    2.5944 H   0  0  0  0  0  0  0  0  0  0  0  0
   23.1293   66.2304   -0.3822 O   0  0  0  0  0  0  0  0  0  0  0  0
   26.0623   66.6255   -3.9157 O   0  0  0  0  0  0  0  0  0  0  0  0
   23.6480   68.3742   -1.1527 N   0  0  0  0  0  0  0  0  0  0  0  0
   24.5906   66.4299   -2.1413 N   0  0  0  0  0  0  0  0  0  0  0  0
   23.7401   66.9623   -1.1634 C   0  0  0  0  0  0  0  0  0  0  0  0
   24.3695   69.1274   -2.0709 C   0  0  0  0  0  0  0  0  0  0  0  0
   25.1760   68.6056   -2.9972 C   0  0  0  0  0  0  0  0  0  0  0  0
   25.3291   67.1380   -3.0755 C   0  0  0  0  0  0  0  0  0  0  0  0
   24.6725   65.4491   -2.1670 H   0  0  0  0  0  0  0  0  0  0  0  0
   21.4728   72.0902   -4.4302 O   0  0  0  0  0  0  0  0  0  0  0  0
   20.1856   71.1955   -4.0350 P   0  0  2  0  0  0  0  0  0  0  0  0
   19.5661   71.9806   -2.7622 O   0  0  0  0  0  0  0  0  0  0  0  0
   20.4962   69.7493   -3.7782 O   0  0  0  0  0  0  0  0  0  0  0  0
   19.1278   71.4518   -5.2258 O   0  0  0  0  0  0  0  0  0  0  0  0
   19.5650   73.4898   -6.3504 O   0  0  0  0  0  0  0  0  0  0  0  0
   16.0467   72.2775   -8.1447 O   0  0  0  0  0  0  0  0  0  0  0  0
   16.4039   72.0136   -5.2572 O   0  0  0  0  0  0  0  0  0  0  0  0
   18.5738   72.0038   -9.5553 O   0  0  0  0  0  0  0  0  0  0  0  0
   17.3112   72.1027   -7.5056 C   0  0  2  0  0  0  0  0  0  0  0  0
   17.2750   72.7401   -6.1164 C   0  0  2  0  0  0  0  0  0  0  0  0
   18.3766   72.7769   -8.3729 C   0  0  1  0  0  0  0  0  0  0  0  0
   18.6717   72.7764   -5.4945 C   0  0  1  0  0  0  0  0  0  0  0  0
   19.7076   72.8875   -7.6349 C   0  0  1  0  0  0  0  0  0  0  0  0
   15.3538   71.8571   -7.6113 H   0  0  0  0  0  0  0  0  0  0  0  0
   15.5159   71.9864   -5.6458 H   0  0  0  0  0  0  0  0  0  0  0  0
   17.7339   71.9257  -10.0343 H   0  0  0  0  0  0  0  0  0  0  0  0
   21.4817   73.1397   -9.1484 O   0  0  0  0  0  0  0  0  0  0  0  0
   20.6258   75.0398   -8.2231 O   0  0  0  0  0  0  0  0  0  0  0  0
   20.6311   73.8239   -8.3438 C   0  0  0  0  0  0  0  0  0  0  0  0
  1  4  1  0
  1 24  1  0
  1  2  1  6
  1  3  2  0
 25 28  1  0
 25 24  1  0
 25 26  1  1
 25 27  2  0
  6 11  1  0
  6 12  1  0
 29 36  1  0
 29 37  1  0
  9  7  1  1
  7 13  1  0
 10  8  1  1
  8 14  1  0
  4  5  1  0
 36 28  1  6
 33 30  1  6
 30 38  1  0
 34 31  1  1
 31 39  1  0
 35 32  1  6
 32 40  1  0
 41 43  1  0
 15 19  2  0
 42 43  2  0
 16 22  2  0
 12 17  1  6
 17 19  1  0
 17 20  1  0
 18 19  1  0
 18 22  1  0
 18 23  1  0
  9 10  1  0
  9 11  1  0
 10 12  1  0
 11  5  1  6
 33 34  1  0
 33 35  1  0
 34 36  1  0
 35 37  1  0
 37 43  1  6
 20 21  2  0
 21 22  1  0
M  CHG  3   2  -1  26  -1  41  -1
M  END
>  <COMPND>  (118) 
    udp_gluA.pdb 

>  <AUTHOR>  (118) 
    GENERATED BY OPEN BABEL 3.1.1

>  <MASTER>  (118) 
        0    0    0    0    0    0    0    0   56    0   56    0

>  <minimizedAffinity>  (118) 
-8.64197

>  <CNNscore>  (118) 
0.2843463719

>  <CNNaffinity>  (118) 
4.1402559280

>  <CNN_VS>  (118) 
1.1772667170

>  <CNNaffinity_variance>  (118) 
0.2803199291

$$$$
119
     RDKit          3D

 43 45  0  0  0  0  0  0  0  0999 V2000
   22.8335   73.8928   -4.8449 P   0  0  2  0  0  0  0  0  0  0  0  0
   23.8494   72.7732   -4.2674 O   0  0  0  0  0  0  0  0  0  0  0  0
   23.4647   75.2157   -5.1661 O   0  0  0  0  0  0  0  0  0  0  0  0
   21.6375   73.9310   -3.7557 O   0  0  0  0  0  0  0  0  0  0  0  0
   20.9854   72.7186   -3.4249 C   0  0  0  0  0  0  0  0  0  0  0  0
   20.7241   71.3574   -1.4611 O   0  0  0  0  0  0  0  0  0  0  0  0
   21.0244   73.8937    0.1100 O   0  0  0  0  0  0  0  0  0  0  0  0
   23.4982   72.7659    0.3207 O   0  0  0  0  0  0  0  0  0  0  0  0
   21.6682   73.5000   -1.1020 C   0  0  1  0  0  0  0  0  0  0  0  0
   22.7243   72.4528   -0.8184 C   0  0  2  0  0  0  0  0  0  0  0  0
   20.6617   72.7196   -1.9364 C   0  0  1  0  0  0  0  0  0  0  0  0
   21.8844   71.2012   -0.6288 C   0  0  2  0  0  0  0  0  0  0  0  0
   21.6480   74.3941    0.6600 H   0  0  0  0  0  0  0  0  0  0  0  0
   24.0146   73.5697    0.1498 H   0  0  0  0  0  0  0  0  0  0  0  0
   21.2751   68.6129    0.3230 O   0  0  0  0  0  0  0  0  0  0  0  0
   24.6275   66.6992   -2.1956 O   0  0  0  0  0  0  0  0  0  0  0  0
   22.5820   70.0088   -1.0193 N   0  0  0  0  0  0  0  0  0  0  0  0
   22.9460   67.6624   -0.9315 N   0  0  0  0  0  0  0  0  0  0  0  0
   22.1969   68.7578   -0.4822 C   0  0  0  0  0  0  0  0  0  0  0  0
   23.6330   70.0854   -1.9252 C   0  0  0  0  0  0  0  0  0  0  0  0
   24.3376   69.0324   -2.3441 C   0  0  0  0  0  0  0  0  0  0  0  0
   23.9999   67.6887   -1.8305 C   0  0  0  0  0  0  0  0  0  0  0  0
   22.6978   66.7809   -0.5699 H   0  0  0  0  0  0  0  0  0  0  0  0
   22.1518   73.1478   -6.1071 O   0  0  0  0  0  0  0  0  0  0  0  0
   21.0031   73.6363   -7.1343 P   0  0  2  0  0  0  0  0  0  0  0  0
   21.4674   72.9890   -8.5435 O   0  0  0  0  0  0  0  0  0  0  0  0
   20.8036   75.1238   -7.1730 O   0  0  0  0  0  0  0  0  0  0  0  0
   19.6923   72.7958   -6.7124 O   0  0  0  0  0  0  0  0  0  0  0  0
   19.4974   70.6169   -5.8047 O   0  0  0  0  0  0  0  0  0  0  0  0
   16.0596   70.8906   -8.0795 O   0  0  0  0  0  0  0  0  0  0  0  0
   18.6005   71.9001   -9.1086 O   0  0  0  0  0  0  0  0  0  0  0  0
   15.9175   71.1297   -5.1858 O   0  0  0  0  0  0  0  0  0  0  0  0
   17.1210   71.3774   -7.2583 C   0  0  2  0  0  0  0  0  0  0  0  0
   18.4622   71.1020   -7.9387 C   0  0  2  0  0  0  0  0  0  0  0  0
   17.0483   70.6525   -5.9125 C   0  0  1  0  0  0  0  0  0  0  0  0
   19.6267   71.3987   -6.9929 C   0  0  1  0  0  0  0  0  0  0  0  0
   18.3027   70.8979   -5.0790 C   0  0  1  0  0  0  0  0  0  0  0  0
   16.0858   71.3371   -8.9404 H   0  0  0  0  0  0  0  0  0  0  0  0
   17.8647   71.7171   -9.7132 H   0  0  0  0  0  0  0  0  0  0  0  0
   15.1123   70.9796   -5.7055 H   0  0  0  0  0  0  0  0  0  0  0  0
   17.7412   70.4496   -2.8462 O   0  0  0  0  0  0  0  0  0  0  0  0
   18.9216   68.8502   -3.9631 O   0  0  0  0  0  0  0  0  0  0  0  0
   18.3736   69.9419   -3.9330 C   0  0  0  0  0  0  0  0  0  0  0  0
  1  4  1  0
  1 24  1  0
  1  2  1  1
  1  3  2  0
 25 28  1  0
 25 24  1  0
 25 26  1  6
 25 27  2  0
  6 11  1  0
  6 12  1  0
 29 36  1  0
 29 37  1  0
  9  7  1  1
  7 13  1  0
 10  8  1  1
  8 14  1  0
  4  5  1  0
 36 28  1  1
 33 30  1  6
 30 38  1  0
 34 31  1  6
 31 39  1  0
 35 32  1  1
 32 40  1  0
 41 43  1  0
 15 19  2  0
 42 43  2  0
 16 22  2  0
 12 17  1  6
 17 19  1  0
 17 20  1  0
 18 19  1  0
 18 22  1  0
 18 23  1  0
  9 10  1  0
  9 11  1  0
 10 12  1  0
 11  5  1  6
 33 34  1  0
 33 35  1  0
 34 36  1  0
 35 37  1  0
 37 43  1  1
 20 21  2  0
 21 22  1  0
M  CHG  3   2  -1  26  -1  41  -1
M  END
>  <COMPND>  (119) 
    udp_gluA.pdb 

>  <AUTHOR>  (119) 
    GENERATED BY OPEN BABEL 3.1.1

>  <MASTER>  (119) 
        0    0    0    0    0    0    0    0   56    0   56    0

>  <minimizedAffinity>  (119) 
-7.97596

>  <CNNscore>  (119) 
0.2757279277

>  <CNNaffinity>  (119) 
4.1088376045

>  <CNN_VS>  (119) 
1.1329212189

>  <CNNaffinity_variance>  (119) 
0.4627226889

$$$$
120
     RDKit          3D

 43 45  0  0  0  0  0  0  0  0999 V2000
   17.3848   69.0962   -4.0090 P   0  0  2  0  0  0  0  0  0  0  0  0
   16.8126   69.4270   -2.5318 O   0  0  0  0  0  0  0  0  0  0  0  0
   16.7067   67.9560   -4.7104 O   0  0  0  0  0  0  0  0  0  0  0  0
   18.9783   68.9328   -3.7808 O   0  0  0  0  0  0  0  0  0  0  0  0
   19.5350   69.3764   -2.5570 C   0  0  0  0  0  0  0  0  0  0  0  0
   20.5358   71.2616   -1.4515 O   0  0  0  0  0  0  0  0  0  0  0  0
   21.0922   72.3382   -4.1943 O   0  0  0  0  0  0  0  0  0  0  0  0
   23.5086   71.3130   -3.4551 O   0  0  0  0  0  0  0  0  0  0  0  0
   21.1149   70.9876   -3.7319 C   0  0  1  0  0  0  0  0  0  0  0  0
   22.3476   70.7432   -2.8876 C   0  0  2  0  0  0  0  0  0  0  0  0
   19.9940   70.8202   -2.7152 C   0  0  1  0  0  0  0  0  0  0  0  0
   21.9613   71.3933   -1.5700 C   0  0  2  0  0  0  0  0  0  0  0  0
   21.7999   72.4694   -4.8452 H   0  0  0  0  0  0  0  0  0  0  0  0
   23.7129   70.8650   -4.2915 H   0  0  0  0  0  0  0  0  0  0  0  0
   22.3991   68.6122   -1.3455 O   0  0  0  0  0  0  0  0  0  0  0  0
   24.3596   69.0709    2.8006 O   0  0  0  0  0  0  0  0  0  0  0  0
   22.5841   70.7591   -0.4427 N   0  0  0  0  0  0  0  0  0  0  0  0
   23.3742   68.8432    0.7197 N   0  0  0  0  0  0  0  0  0  0  0  0
   22.7565   69.3548   -0.4291 C   0  0  0  0  0  0  0  0  0  0  0  0
   23.0179   71.5257    0.6321 C   0  0  0  0  0  0  0  0  0  0  0  0
   23.6051   71.0238    1.7202 C   0  0  0  0  0  0  0  0  0  0  0  0
   23.8221   69.5652    1.8142 C   0  0  0  0  0  0  0  0  0  0  0  0
   23.5033   67.8677    0.7531 H   0  0  0  0  0  0  0  0  0  0  0  0
   17.2705   70.5181   -4.7693 O   0  0  0  0  0  0  0  0  0  0  0  0
   17.7851   70.9857   -6.2288 P   0  0  2  0  0  0  0  0  0  0  0  0
   16.9984   69.9908   -7.2346 O   0  0  0  0  0  0  0  0  0  0  0  0
   19.2778   70.9731   -6.3886 O   0  0  0  0  0  0  0  0  0  0  0  0
   17.0989   72.4269   -6.4623 O   0  0  0  0  0  0  0  0  0  0  0  0
   15.4079   73.3362   -7.8490 O   0  0  0  0  0  0  0  0  0  0  0  0
   18.3513   76.2236   -8.1090 O   0  0  0  0  0  0  0  0  0  0  0  0
   19.0467   73.3877   -8.1998 O   0  0  0  0  0  0  0  0  0  0  0  0
   15.9947   76.6856   -6.4707 O   0  0  0  0  0  0  0  0  0  0  0  0
   17.5907   75.1908   -7.4823 C   0  0  2  0  0  0  0  0  0  0  0  0
   17.7215   73.8981   -8.2882 C   0  0  2  0  0  0  0  0  0  0  0  0
   16.1293   75.6425   -7.4342 C   0  0  1  0  0  0  0  0  0  0  0  0
   16.7441   72.8365   -7.7818 C   0  0  1  0  0  0  0  0  0  0  0  0
   15.2039   74.4942   -7.0424 C   0  0  1  0  0  0  0  0  0  0  0  0
   19.2837   75.9588   -8.1508 H   0  0  0  0  0  0  0  0  0  0  0  0
   19.6723   74.0563   -8.5193 H   0  0  0  0  0  0  0  0  0  0  0  0
   16.5787   77.4227   -6.7084 H   0  0  0  0  0  0  0  0  0  0  0  0
   13.2848   75.6411   -6.3333 O   0  0  0  0  0  0  0  0  0  0  0  0
   13.1369   74.4743   -8.2867 O   0  0  0  0  0  0  0  0  0  0  0  0
   13.7776   74.8458   -7.3148 C   0  0  0  0  0  0  0  0  0  0  0  0
  1  4  1  0
  1 24  1  0
  1  2  1  1
  1  3  2  0
 25 28  1  0
 25 24  1  0
 25 26  1  6
 25 27  2  0
  6 11  1  0
  6 12  1  0
 29 36  1  0
 29 37  1  0
  9  7  1  1
  7 13  1  0
 10  8  1  6
  8 14  1  0
  4  5  1  0
 36 28  1  1
 33 30  1  6
 30 38  1  0
 34 31  1  1
 31 39  1  0
 35 32  1  1
 32 40  1  0
 41 43  1  0
 15 19  2  0
 42 43  2  0
 16 22  2  0
 12 17  1  1
 17 19  1  0
 17 20  1  0
 18 19  1  0
 18 22  1  0
 18 23  1  0
  9 10  1  0
  9 11  1  0
 10 12  1  0
 11  5  1  1
 33 34  1  0
 33 35  1  0
 34 36  1  0
 35 37  1  0
 37 43  1  6
 20 21  2  0
 21 22  1  0
M  CHG  3   2  -1  26  -1  41  -1
M  END
>  <COMPND>  (120) 
    udp_gluA.pdb 

>  <AUTHOR>  (120) 
    GENERATED BY OPEN BABEL 3.1.1

>  <MASTER>  (120) 
        0    0    0    0    0    0    0    0   56    0   56    0

>  <minimizedAffinity>  (120) 
-7.52716

>  <CNNscore>  (120) 
0.2686971724

>  <CNNaffinity>  (120) 
4.1106920242

>  <CNN_VS>  (120) 
1.1045312881

>  <CNNaffinity_variance>  (120) 
0.0121639520

$$$$
121
     RDKit          3D

 43 45  0  0  0  0  0  0  0  0999 V2000
   20.7894   74.9310   -2.7916 P   0  0  2  0  0  0  0  0  0  0  0  0
   20.9757   75.3029   -1.2277 O   0  0  0  0  0  0  0  0  0  0  0  0
   20.4980   76.0972   -3.6898 O   0  0  0  0  0  0  0  0  0  0  0  0
   19.6766   73.7565   -2.7817 O   0  0  0  0  0  0  0  0  0  0  0  0
   18.7378   73.7057   -3.8403 C   0  0  0  0  0  0  0  0  0  0  0  0
   17.2348   72.1160   -4.8362 O   0  0  0  0  0  0  0  0  0  0  0  0
   17.3402   70.6569   -2.2187 O   0  0  0  0  0  0  0  0  0  0  0  0
   19.0421   69.2057   -3.7788 O   0  0  0  0  0  0  0  0  0  0  0  0
   18.3736   71.3710   -2.8974 C   0  0  1  0  0  0  0  0  0  0  0  0
   18.8688   70.5734   -4.0852 C   0  0  2  0  0  0  0  0  0  0  0  0
   17.7437   72.5840   -3.5684 C   0  0  1  0  0  0  0  0  0  0  0  0
   17.7676   70.8093   -5.1047 C   0  0  2  0  0  0  0  0  0  0  0  0
   17.7186   69.8772   -1.7821 H   0  0  0  0  0  0  0  0  0  0  0  0
   19.7538   69.1082   -3.1262 H   0  0  0  0  0  0  0  0  0  0  0  0
   16.1445   70.3604   -7.3720 O   0  0  0  0  0  0  0  0  0  0  0  0
   19.7403   70.6861  -10.2371 O   0  0  0  0  0  0  0  0  0  0  0  0
   18.2536   70.7717   -6.4550 N   0  0  0  0  0  0  0  0  0  0  0  0
   17.9371   70.5220   -8.7967 N   0  0  0  0  0  0  0  0  0  0  0  0
   17.3547   70.5388   -7.5226 C   0  0  0  0  0  0  0  0  0  0  0  0
   19.6055   70.9658   -6.7111 C   0  0  0  0  0  0  0  0  0  0  0  0
   20.1460   70.9471   -7.9311 C   0  0  0  0  0  0  0  0  0  0  0  0
   19.2757   70.7091   -9.1013 C   0  0  0  0  0  0  0  0  0  0  0  0
   17.3314   70.3596   -9.5557 H   0  0  0  0  0  0  0  0  0  0  0  0
   22.1532   74.1365   -3.1406 O   0  0  0  0  0  0  0  0  0  0  0  0
   22.4083   72.7947   -4.0055 P   0  0  2  0  0  0  0  0  0  0  0  0
   24.0228   72.7042   -4.0802 O   0  0  0  0  0  0  0  0  0  0  0  0
   21.7258   72.7850   -5.3427 O   0  0  0  0  0  0  0  0  0  0  0  0
   21.9777   71.5879   -3.0254 O   0  0  0  0  0  0  0  0  0  0  0  0
   23.4711   71.6993   -1.1906 O   0  0  0  0  0  0  0  0  0  0  0  0
   20.9642   68.6205   -0.0484 O   0  0  0  0  0  0  0  0  0  0  0  0
   21.9079   68.8161   -2.8062 O   0  0  0  0  0  0  0  0  0  0  0  0
   20.6995   71.2463    1.1705 O   0  0  0  0  0  0  0  0  0  0  0  0
   21.3135   69.8462   -0.6916 C   0  0  2  0  0  0  0  0  0  0  0  0
   22.4125   69.5880   -1.7226 C   0  0  2  0  0  0  0  0  0  0  0  0
   21.8080   70.8191    0.3812 C   0  0  1  0  0  0  0  0  0  0  0  0
   22.9725   70.9032   -2.2663 C   0  0  1  0  0  0  0  0  0  0  0  0
   22.4659   72.0472   -0.2412 C   0  0  1  0  0  0  0  0  0  0  0  0
   20.6471   67.9865   -0.7107 H   0  0  0  0  0  0  0  0  0  0  0  0
   21.5507   67.9802   -2.4684 H   0  0  0  0  0  0  0  0  0  0  0  0
   20.2717   70.4740    1.5722 H   0  0  0  0  0  0  0  0  0  0  0  0
   23.3382   72.1069    1.9353 O   0  0  0  0  0  0  0  0  0  0  0  0
   23.6928   73.9369    0.6221 O   0  0  0  0  0  0  0  0  0  0  0  0
   23.2278   72.8190    0.7866 C   0  0  0  0  0  0  0  0  0  0  0  0
  1  4  1  0
  1 24  1  0
  1  2  1  1
  1  3  2  0
 25 28  1  0
 25 24  1  0
 25 26  1  6
 25 27  2  0
  6 11  1  0
  6 12  1  0
 29 36  1  0
 29 37  1  0
  9  7  1  6
  7 13  1  0
 10  8  1  1
  8 14  1  0
  4  5  1  0
 36 28  1  1
 33 30  1  1
 30 38  1  0
 34 31  1  6
 31 39  1  0
 35 32  1  6
 32 40  1  0
 41 43  1  0
 15 19  2  0
 42 43  2  0
 16 22  2  0
 12 17  1  6
 17 19  1  0
 17 20  1  0
 18 19  1  0
 18 22  1  0
 18 23  1  0
  9 10  1  0
  9 11  1  0
 10 12  1  0
 11  5  1  6
 33 34  1  0
 33 35  1  0
 34 36  1  0
 35 37  1  0
 37 43  1  1
 20 21  2  0
 21 22  1  0
M  CHG  3   2  -1  26  -1  41  -1
M  END
>  <COMPND>  (121) 
    udp_gluA.pdb 

>  <AUTHOR>  (121) 
    GENERATED BY OPEN BABEL 3.1.1

>  <MASTER>  (121) 
        0    0    0    0    0    0    0    0   56    0   56    0

>  <minimizedAffinity>  (121) 
-7.06626

>  <CNNscore>  (121) 
0.7808893323

>  <CNNaffinity>  (121) 
4.5111150742

>  <CNN_VS>  (121) 
3.5226817131

>  <CNNaffinity_variance>  (121) 
0.0955045000

$$$$
122
     RDKit          3D

 43 45  0  0  0  0  0  0  0  0999 V2000
   21.7219   69.5352   -1.3201 P   0  0  2  0  0  0  0  0  0  0  0  0
   22.3878   69.5598   -2.7948 O   0  0  0  0  0  0  0  0  0  0  0  0
   22.2623   68.4814   -0.3985 O   0  0  0  0  0  0  0  0  0  0  0  0
   20.1322   69.4647   -1.6127 O   0  0  0  0  0  0  0  0  0  0  0  0
   19.6823   69.6240   -2.9456 C   0  0  0  0  0  0  0  0  0  0  0  0
   18.3165   71.2638   -4.0517 O   0  0  0  0  0  0  0  0  0  0  0  0
   16.0012   70.0600   -2.5747 O   0  0  0  0  0  0  0  0  0  0  0  0
   15.7530   68.9699   -5.0619 O   0  0  0  0  0  0  0  0  0  0  0  0
   17.1527   69.4203   -3.1254 C   0  0  1  0  0  0  0  0  0  0  0  0
   17.0434   69.3523   -4.6340 C   0  0  2  0  0  0  0  0  0  0  0  0
   18.3432   70.3500   -2.9339 C   0  0  1  0  0  0  0  0  0  0  0  0
   17.3971   70.7728   -5.0401 C   0  0  2  0  0  0  0  0  0  0  0  0
   15.2275   69.4848   -2.6853 H   0  0  0  0  0  0  0  0  0  0  0  0
   15.5755   68.0585   -4.7793 H   0  0  0  0  0  0  0  0  0  0  0  0
   15.9975   70.7493   -7.4931 O   0  0  0  0  0  0  0  0  0  0  0  0
   19.9000   71.0120   -9.9315 O   0  0  0  0  0  0  0  0  0  0  0  0
   18.0225   70.8341   -6.3309 N   0  0  0  0  0  0  0  0  0  0  0  0
   17.9426   70.8791   -8.7053 N   0  0  0  0  0  0  0  0  0  0  0  0
   17.2282   70.8158   -7.5017 C   0  0  0  0  0  0  0  0  0  0  0  0
   19.4064   70.9128   -6.4279 C   0  0  0  0  0  0  0  0  0  0  0  0
   20.0731   70.9727   -7.5824 C   0  0  0  0  0  0  0  0  0  0  0  0
   19.3180   70.9578   -8.8524 C   0  0  0  0  0  0  0  0  0  0  0  0
   17.4112   70.8658   -9.5340 H   0  0  0  0  0  0  0  0  0  0  0  0
   21.9293   71.0526   -0.8030 O   0  0  0  0  0  0  0  0  0  0  0  0
   20.9961   71.9961    0.1205 P   0  0  2  0  0  0  0  0  0  0  0  0
   20.7168   71.0779    1.4240 O   0  0  0  0  0  0  0  0  0  0  0  0
   19.7554   72.4932   -0.5632 O   0  0  0  0  0  0  0  0  0  0  0  0
   21.9828   73.1593    0.6457 O   0  0  0  0  0  0  0  0  0  0  0  0
   23.9465   74.1411   -0.2427 O   0  0  0  0  0  0  0  0  0  0  0  0
   24.8081   74.0449    3.7967 O   0  0  0  0  0  0  0  0  0  0  0  0
   23.5141   71.7670    2.5038 O   0  0  0  0  0  0  0  0  0  0  0  0
   24.0655   76.5500    2.5223 O   0  0  0  0  0  0  0  0  0  0  0  0
   23.9708   74.1456    2.6448 C   0  0  2  0  0  0  0  0  0  0  0  0
   24.0902   72.8690    1.8121 C   0  0  2  0  0  0  0  0  0  0  0  0
   24.4303   75.3571    1.8306 C   0  0  1  0  0  0  0  0  0  0  0  0
   23.3914   73.0295    0.4613 C   0  0  1  0  0  0  0  0  0  0  0  0
   23.7835   75.3774    0.4487 C   0  0  1  0  0  0  0  0  0  0  0  0
   24.5348   73.2816    4.3296 H   0  0  0  0  0  0  0  0  0  0  0  0
   23.9527   71.6595    3.3620 H   0  0  0  0  0  0  0  0  0  0  0  0
   24.4707   76.5495    3.4036 H   0  0  0  0  0  0  0  0  0  0  0  0
   23.7965   76.4976   -1.6120 O   0  0  0  0  0  0  0  0  0  0  0  0
   25.5041   76.9513   -0.1708 O   0  0  0  0  0  0  0  0  0  0  0  0
   24.4734   76.3554   -0.4456 C   0  0  0  0  0  0  0  0  0  0  0  0
  1  4  1  0
  1 24  1  0
  1  2  1  6
  1  3  2  0
 25 28  1  0
 25 24  1  0
 25 26  1  1
 25 27  2  0
  6 11  1  0
  6 12  1  0
 29 36  1  0
 29 37  1  0
  9  7  1  1
  7 13  1  0
 10  8  1  1
  8 14  1  0
  4  5  1  0
 36 28  1  1
 33 30  1  1
 30 38  1  0
 34 31  1  1
 31 39  1  0
 35 32  1  1
 32 40  1  0
 41 43  1  0
 15 19  2  0
 42 43  2  0
 16 22  2  0
 12 17  1  6
 17 19  1  0
 17 20  1  0
 18 19  1  0
 18 22  1  0
 18 23  1  0
  9 10  1  0
  9 11  1  0
 10 12  1  0
 11  5  1  6
 33 34  1  0
 33 35  1  0
 34 36  1  0
 35 37  1  0
 37 43  1  6
 20 21  2  0
 21 22  1  0
M  CHG  3   2  -1  26  -1  41  -1
M  END
>  <COMPND>  (122) 
    udp_gluA.pdb 

>  <AUTHOR>  (122) 
    GENERATED BY OPEN BABEL 3.1.1

>  <MASTER>  (122) 
        0    0    0    0    0    0    0    0   56    0   56    0

>  <minimizedAffinity>  (122) 
-7.24737

>  <CNNscore>  (122) 
0.7719027996

>  <CNNaffinity>  (122) 
4.8323488235

>  <CNN_VS>  (122) 
3.7301034927

>  <CNNaffinity_variance>  (122) 
0.2662810385

$$$$
123
     RDKit          3D

 43 45  0  0  0  0  0  0  0  0999 V2000
   22.5011   70.9980   -2.1554 P   0  0  2  0  0  0  0  0  0  0  0  0
   22.7827   72.5916   -2.1430 O   0  0  0  0  0  0  0  0  0  0  0  0
   23.1051   70.2568   -3.3119 O   0  0  0  0  0  0  0  0  0  0  0  0
   20.8933   70.8864   -2.0120 O   0  0  0  0  0  0  0  0  0  0  0  0
   20.1720   70.1908   -3.0121 C   0  0  0  0  0  0  0  0  0  0  0  0
   18.4354   71.4130   -4.1382 O   0  0  0  0  0  0  0  0  0  0  0  0
   16.5059   69.8862   -2.4243 O   0  0  0  0  0  0  0  0  0  0  0  0
   16.3665   68.5616   -4.8038 O   0  0  0  0  0  0  0  0  0  0  0  0
   17.7369   69.4541   -3.0045 C   0  0  1  0  0  0  0  0  0  0  0  0
   17.5671   69.2374   -4.4932 C   0  0  2  0  0  0  0  0  0  0  0  0
   18.7121   70.6226   -2.9618 C   0  0  1  0  0  0  0  0  0  0  0  0
   17.5911   70.6606   -5.0239 C   0  0  2  0  0  0  0  0  0  0  0  0
   15.8667   69.1563   -2.4404 H   0  0  0  0  0  0  0  0  0  0  0  0
   16.4005   67.6605   -4.4448 H   0  0  0  0  0  0  0  0  0  0  0  0
   16.0857   70.2127   -7.3711 O   0  0  0  0  0  0  0  0  0  0  0  0
   19.7335   70.9928  -10.0783 O   0  0  0  0  0  0  0  0  0  0  0  0
   18.1224   70.7402   -6.3552 N   0  0  0  0  0  0  0  0  0  0  0  0
   17.9042   70.6006   -8.7172 N   0  0  0  0  0  0  0  0  0  0  0  0
   17.2811   70.4970   -7.4666 C   0  0  0  0  0  0  0  0  0  0  0  0
   19.4612   71.0575   -6.5499 C   0  0  0  0  0  0  0  0  0  0  0  0
   20.0408   71.1528   -7.7481 C   0  0  0  0  0  0  0  0  0  0  0  0
   19.2319   70.9128   -8.9611 C   0  0  0  0  0  0  0  0  0  0  0  0
   17.3392   70.4336   -9.5060 H   0  0  0  0  0  0  0  0  0  0  0  0
   23.0292   70.5249   -0.7027 O   0  0  0  0  0  0  0  0  0  0  0  0
   22.2712   69.7654    0.5065 P   0  0  2  0  0  0  0  0  0  0  0  0
   23.4877   69.1246    1.3610 O   0  0  0  0  0  0  0  0  0  0  0  0
   21.2392   68.7713    0.0586 O   0  0  0  0  0  0  0  0  0  0  0  0
   21.6987   70.9506    1.4392 O   0  0  0  0  0  0  0  0  0  0  0  0
   20.9828   73.1784    1.0736 O   0  0  0  0  0  0  0  0  0  0  0  0
   23.0869   73.5412    4.6104 O   0  0  0  0  0  0  0  0  0  0  0  0
   24.1206   71.8875    2.4354 O   0  0  0  0  0  0  0  0  0  0  0  0
   20.1801   73.5685    4.6325 O   0  0  0  0  0  0  0  0  0  0  0  0
   22.2677   72.8849    3.6429 C   0  0  2  0  0  0  0  0  0  0  0  0
   23.0224   72.7845    2.3170 C   0  0  2  0  0  0  0  0  0  0  0  0
   20.9905   73.7093    3.4672 C   0  0  1  0  0  0  0  0  0  0  0  0
   22.1003   72.2979    1.1982 C   0  0  1  0  0  0  0  0  0  0  0  0
   20.1884   73.2426    2.2559 C   0  0  1  0  0  0  0  0  0  0  0  0
   23.9047   73.0352    4.7386 H   0  0  0  0  0  0  0  0  0  0  0  0
   24.7097   72.1900    3.1438 H   0  0  0  0  0  0  0  0  0  0  0  0
   20.6790   73.8620    5.4108 H   0  0  0  0  0  0  0  0  0  0  0  0
   19.4828   74.9223    0.7786 O   0  0  0  0  0  0  0  0  0  0  0  0
   18.1025   74.4252    2.5242 O   0  0  0  0  0  0  0  0  0  0  0  0
   19.1364   74.2418    1.8993 C   0  0  0  0  0  0  0  0  0  0  0  0
  1  4  1  0
  1 24  1  0
  1  2  1  6
  1  3  2  0
 25 28  1  0
 25 24  1  0
 25 26  1  1
 25 27  2  0
  6 11  1  0
  6 12  1  0
 29 36  1  0
 29 37  1  0
  9  7  1  6
  7 13  1  0
 10  8  1  1
  8 14  1  0
  4  5  1  0
 36 28  1  1
 33 30  1  1
 30 38  1  0
 34 31  1  1
 31 39  1  0
 35 32  1  1
 32 40  1  0
 41 43  1  0
 15 19  2  0
 42 43  2  0
 16 22  2  0
 12 17  1  6
 17 19  1  0
 17 20  1  0
 18 19  1  0
 18 22  1  0
 18 23  1  0
  9 10  1  0
  9 11  1  0
 10 12  1  0
 11  5  1  6
 33 34  1  0
 33 35  1  0
 34 36  1  0
 35 37  1  0
 37 43  1  6
 20 21  2  0
 21 22  1  0
M  CHG  3   2  -1  26  -1  41  -1
M  END
>  <COMPND>  (123) 
    udp_gluA.pdb 

>  <AUTHOR>  (123) 
    GENERATED BY OPEN BABEL 3.1.1

>  <MASTER>  (123) 
        0    0    0    0    0    0    0    0   56    0   56    0

>  <minimizedAffinity>  (123) 
-7.76003

>  <CNNscore>  (123) 
0.7065099478

>  <CNNaffinity>  (123) 
4.7448167801

>  <CNN_VS>  (123) 
3.3522603512

>  <CNNaffinity_variance>  (123) 
0.0326865576

$$$$
124
     RDKit          3D

 43 45  0  0  0  0  0  0  0  0999 V2000
   21.8311   69.1885   -1.1595 P   0  0  2  0  0  0  0  0  0  0  0  0
   22.7297   68.0152   -1.8189 O   0  0  0  0  0  0  0  0  0  0  0  0
   20.8548   68.7287   -0.1169 O   0  0  0  0  0  0  0  0  0  0  0  0
   21.1902   69.9503   -2.4350 O   0  0  0  0  0  0  0  0  0  0  0  0
   20.1436   69.3151   -3.1461 C   0  0  0  0  0  0  0  0  0  0  0  0
   18.7735   71.0763   -4.0398 O   0  0  0  0  0  0  0  0  0  0  0  0
   16.5576   69.9510   -2.3620 O   0  0  0  0  0  0  0  0  0  0  0  0
   15.9779   68.9804   -4.8435 O   0  0  0  0  0  0  0  0  0  0  0  0
   17.6015   69.2680   -3.0565 C   0  0  1  0  0  0  0  0  0  0  0  0
   17.3280   69.2685   -4.5456 C   0  0  2  0  0  0  0  0  0  0  0  0
   18.8616   70.1174   -2.9637 C   0  0  1  0  0  0  0  0  0  0  0  0
   17.7250   70.6812   -4.9386 C   0  0  2  0  0  0  0  0  0  0  0  0
   15.7419   69.4274   -2.4075 H   0  0  0  0  0  0  0  0  0  0  0  0
   15.7746   68.0702   -4.5749 H   0  0  0  0  0  0  0  0  0  0  0  0
   16.0862   70.5598   -7.2356 O   0  0  0  0  0  0  0  0  0  0  0  0
   19.7021   70.9878  -10.0616 O   0  0  0  0  0  0  0  0  0  0  0  0
   18.2120   70.7585   -6.2869 N   0  0  0  0  0  0  0  0  0  0  0  0
   17.8888   70.7721   -8.6409 N   0  0  0  0  0  0  0  0  0  0  0  0
   17.3046   70.6873   -7.3703 C   0  0  0  0  0  0  0  0  0  0  0  0
   19.5731   70.9048   -6.5254 C   0  0  0  0  0  0  0  0  0  0  0  0
   20.1151   70.9843   -7.7422 C   0  0  0  0  0  0  0  0  0  0  0  0
   19.2364   70.9172   -8.9283 C   0  0  0  0  0  0  0  0  0  0  0  0
   17.2773   70.7228   -9.4110 H   0  0  0  0  0  0  0  0  0  0  0  0
   22.9390   70.2388   -0.6280 O   0  0  0  0  0  0  0  0  0  0  0  0
   23.8608   70.2279    0.7001 P   0  0  2  0  0  0  0  0  0  0  0  0
   25.3642   70.1433    0.1061 O   0  0  0  0  0  0  0  0  0  0  0  0
   23.5199   69.1405    1.6774 O   0  0  0  0  0  0  0  0  0  0  0  0
   23.7410   71.7232    1.2936 O   0  0  0  0  0  0  0  0  0  0  0  0
   23.7822   73.0218    3.2738 O   0  0  0  0  0  0  0  0  0  0  0  0
   19.9762   73.7744    1.8539 O   0  0  0  0  0  0  0  0  0  0  0  0
   21.0798   71.0708    1.7714 O   0  0  0  0  0  0  0  0  0  0  0  0
   22.0617   75.7801    1.5726 O   0  0  0  0  0  0  0  0  0  0  0  0
   21.3695   73.4795    1.7547 C   0  0  2  0  0  0  0  0  0  0  0  0
   21.6660   72.1620    2.4715 C   0  0  2  0  0  0  0  0  0  0  0  0
   22.1434   74.6268    2.4079 C   0  0  1  0  0  0  0  0  0  0  0  0
   23.1731   71.9286    2.5859 C   0  0  1  0  0  0  0  0  0  0  0  0
   23.6139   74.2678    2.6013 C   0  0  1  0  0  0  0  0  0  0  0  0
   19.4642   73.0588    1.4453 H   0  0  0  0  0  0  0  0  0  0  0  0
   20.1235   71.2125    1.6949 H   0  0  0  0  0  0  0  0  0  0  0  0
   21.1308   76.0190    1.4414 H   0  0  0  0  0  0  0  0  0  0  0  0
   25.2109   74.6130    4.2841 O   0  0  0  0  0  0  0  0  0  0  0  0
   24.0293   76.4325    3.5825 O   0  0  0  0  0  0  0  0  0  0  0  0
   24.2803   75.2383    3.5212 C   0  0  0  0  0  0  0  0  0  0  0  0
  1  4  1  0
  1 24  1  0
  1  2  1  6
  1  3  2  0
 25 28  1  0
 25 24  1  0
 25 26  1  6
 25 27  2  0
  6 11  1  0
  6 12  1  0
 29 36  1  0
 29 37  1  0
  9  7  1  1
  7 13  1  0
 10  8  1  1
  8 14  1  0
  4  5  1  0
 36 28  1  6
 33 30  1  1
 30 38  1  0
 34 31  1  6
 31 39  1  0
 35 32  1  6
 32 40  1  0
 41 43  1  0
 15 19  2  0
 42 43  2  0
 16 22  2  0
 12 17  1  6
 17 19  1  0
 17 20  1  0
 18 19  1  0
 18 22  1  0
 18 23  1  0
  9 10  1  0
  9 11  1  0
 10 12  1  0
 11  5  1  6
 33 34  1  0
 33 35  1  0
 34 36  1  0
 35 37  1  0
 37 43  1  1
 20 21  2  0
 21 22  1  0
M  CHG  3   2  -1  26  -1  41  -1
M  END
>  <COMPND>  (124) 
    udp_gluA.pdb 

>  <AUTHOR>  (124) 
    GENERATED BY OPEN BABEL 3.1.1

>  <MASTER>  (124) 
        0    0    0    0    0    0    0    0   56    0   56    0

>  <minimizedAffinity>  (124) 
-7.86577

>  <CNNscore>  (124) 
0.6926159263

>  <CNNaffinity>  (124) 
4.7241392136

>  <CNN_VS>  (124) 
3.2720141411

>  <CNNaffinity_variance>  (124) 
0.1325734556

$$$$
125
     RDKit          3D

 43 45  0  0  0  0  0  0  0  0999 V2000
   20.4232   69.7271   -2.1887 P   0  0  2  0  0  0  0  0  0  0  0  0
   20.2298   68.5826   -3.3164 O   0  0  0  0  0  0  0  0  0  0  0  0
   21.0593   69.2584   -0.9129 O   0  0  0  0  0  0  0  0  0  0  0  0
   18.9501   70.3798   -2.0409 O   0  0  0  0  0  0  0  0  0  0  0  0
   18.7434   71.6971   -2.5167 C   0  0  0  0  0  0  0  0  0  0  0  0
   17.1589   72.4984   -4.1368 O   0  0  0  0  0  0  0  0  0  0  0  0
   15.1201   70.8476   -2.6842 O   0  0  0  0  0  0  0  0  0  0  0  0
   15.7183   69.2920   -4.8426 O   0  0  0  0  0  0  0  0  0  0  0  0
   16.4995   70.5710   -2.9279 C   0  0  1  0  0  0  0  0  0  0  0  0
   16.7086   70.1847   -4.3768 C   0  0  2  0  0  0  0  0  0  0  0  0
   17.2654   71.8836   -2.8345 C   0  0  1  0  0  0  0  0  0  0  0  0
   16.6546   71.5334   -5.0738 C   0  0  2  0  0  0  0  0  0  0  0  0
   14.6103   70.0237   -2.7387 H   0  0  0  0  0  0  0  0  0  0  0  0
   15.7946   68.4485   -4.3686 H   0  0  0  0  0  0  0  0  0  0  0  0
   15.8028   72.5932   -7.5492 O   0  0  0  0  0  0  0  0  0  0  0  0
   19.8337   71.6192   -9.5609 O   0  0  0  0  0  0  0  0  0  0  0  0
   17.4612   71.5695   -6.2608 N   0  0  0  0  0  0  0  0  0  0  0  0
   17.8108   72.1062   -8.5490 N   0  0  0  0  0  0  0  0  0  0  0  0
   16.9381   72.1236   -7.4531 C   0  0  0  0  0  0  0  0  0  0  0  0
   18.7545   71.0619   -6.2362 C   0  0  0  0  0  0  0  0  0  0  0  0
   19.5745   71.0524   -7.2890 C   0  0  0  0  0  0  0  0  0  0  0  0
   19.1049   71.6118   -8.5734 C   0  0  0  0  0  0  0  0  0  0  0  0
   17.4682   72.4847   -9.3909 H   0  0  0  0  0  0  0  0  0  0  0  0
   21.2513   70.8727   -2.9726 O   0  0  0  0  0  0  0  0  0  0  0  0
   22.8326   71.2080   -3.0009 P   0  0  2  0  0  0  0  0  0  0  0  0
   22.9725   72.2262   -4.2515 O   0  0  0  0  0  0  0  0  0  0  0  0
   23.7172   69.9980   -3.0866 O   0  0  0  0  0  0  0  0  0  0  0  0
   23.0795   72.1269   -1.6981 O   0  0  0  0  0  0  0  0  0  0  0  0
   21.5215   72.6837   -0.0035 O   0  0  0  0  0  0  0  0  0  0  0  0
   24.0310   75.9651    0.0506 O   0  0  0  0  0  0  0  0  0  0  0  0
   23.1814   74.7923   -2.4865 O   0  0  0  0  0  0  0  0  0  0  0  0
   24.2153   73.9525    2.1402 O   0  0  0  0  0  0  0  0  0  0  0  0
   23.6868   74.5904   -0.1223 C   0  0  2  0  0  0  0  0  0  0  0  0
   22.6283   74.4618   -1.2179 C   0  0  2  0  0  0  0  0  0  0  0  0
   23.1413   74.0686    1.2089 C   0  0  1  0  0  0  0  0  0  0  0  0
   22.0688   73.0396   -1.2737 C   0  0  1  0  0  0  0  0  0  0  0  0
   22.4879   72.6993    1.0447 C   0  0  1  0  0  0  0  0  0  0  0  0
   24.3802   76.3184   -0.7828 H   0  0  0  0  0  0  0  0  0  0  0  0
   23.5385   75.6934   -2.4583 H   0  0  0  0  0  0  0  0  0  0  0  0
   24.6398   74.8173    2.2536 H   0  0  0  0  0  0  0  0  0  0  0  0
   20.6540   71.5268    1.9186 O   0  0  0  0  0  0  0  0  0  0  0  0
   21.9059   72.7430    3.3858 O   0  0  0  0  0  0  0  0  0  0  0  0
   21.6796   72.3492    2.2515 C   0  0  0  0  0  0  0  0  0  0  0  0
  1  4  1  0
  1 24  1  0
  1  2  1  6
  1  3  2  0
 25 28  1  0
 25 24  1  0
 25 26  1  6
 25 27  2  0
  6 11  1  0
  6 12  1  0
 29 36  1  0
 29 37  1  0
  9  7  1  6
  7 13  1  0
 10  8  1  6
  8 14  1  0
  4  5  1  0
 36 28  1  1
 33 30  1  1
 30 38  1  0
 34 31  1  6
 31 39  1  0
 35 32  1  1
 32 40  1  0
 41 43  1  0
 15 19  2  0
 42 43  2  0
 16 22  2  0
 12 17  1  6
 17 19  1  0
 17 20  1  0
 18 19  1  0
 18 22  1  0
 18 23  1  0
  9 10  1  0
  9 11  1  0
 10 12  1  0
 11  5  1  6
 33 34  1  0
 33 35  1  0
 34 36  1  0
 35 37  1  0
 37 43  1  1
 20 21  2  0
 21 22  1  0
M  CHG  3   2  -1  26  -1  41  -1
M  END
>  <COMPND>  (125) 
    udp_gluA.pdb 

>  <AUTHOR>  (125) 
    GENERATED BY OPEN BABEL 3.1.1

>  <MASTER>  (125) 
        0    0    0    0    0    0    0    0   56    0   56    0

>  <minimizedAffinity>  (125) 
-6.68829

>  <CNNscore>  (125) 
0.6849747896

>  <CNNaffinity>  (125) 
4.4911637306

>  <CNN_VS>  (125) 
3.0763339996

>  <CNNaffinity_variance>  (125) 
0.0735083520

$$$$
126
     RDKit          3D

 43 45  0  0  0  0  0  0  0  0999 V2000
   20.4686   70.3082   -2.0886 P   0  0  2  0  0  0  0  0  0  0  0  0
   20.5681   68.7531   -2.5255 O   0  0  0  0  0  0  0  0  0  0  0  0
   21.0600   70.6285   -0.7472 O   0  0  0  0  0  0  0  0  0  0  0  0
   18.9001   70.6624   -2.2676 O   0  0  0  0  0  0  0  0  0  0  0  0
   18.5287   72.0174   -2.4429 C   0  0  0  0  0  0  0  0  0  0  0  0
   16.9978   72.4506   -4.2447 O   0  0  0  0  0  0  0  0  0  0  0  0
   14.9496   70.9969   -2.6066 O   0  0  0  0  0  0  0  0  0  0  0  0
   15.7057   69.1111   -4.4254 O   0  0  0  0  0  0  0  0  0  0  0  0
   16.3479   70.7411   -2.7393 C   0  0  1  0  0  0  0  0  0  0  0  0
   16.6405   70.1137   -4.0859 C   0  0  2  0  0  0  0  0  0  0  0  0
   17.0622   72.0811   -2.8502 C   0  0  1  0  0  0  0  0  0  0  0  0
   16.5736   71.3143   -5.0143 C   0  0  2  0  0  0  0  0  0  0  0  0
   14.4720   70.1553   -2.5341 H   0  0  0  0  0  0  0  0  0  0  0  0
   15.7881   68.3689   -3.8056 H   0  0  0  0  0  0  0  0  0  0  0  0
   15.7607   70.2697   -7.5092 O   0  0  0  0  0  0  0  0  0  0  0  0
   19.9644   70.8238   -9.3166 O   0  0  0  0  0  0  0  0  0  0  0  0
   17.4351   71.1744   -6.1541 N   0  0  0  0  0  0  0  0  0  0  0  0
   17.8554   70.5457   -8.4067 N   0  0  0  0  0  0  0  0  0  0  0  0
   16.9276   70.6376   -7.3609 C   0  0  0  0  0  0  0  0  0  0  0  0
   18.7652   71.5678   -6.0705 C   0  0  0  0  0  0  0  0  0  0  0  0
   19.6376   71.4742   -7.0760 C   0  0  0  0  0  0  0  0  0  0  0  0
   19.1880   70.9232   -8.3712 C   0  0  0  0  0  0  0  0  0  0  0  0
   17.5258   70.1731   -9.2564 H   0  0  0  0  0  0  0  0  0  0  0  0
   21.1592   71.0788   -3.3304 O   0  0  0  0  0  0  0  0  0  0  0  0
   22.0956   72.3960   -3.3738 P   0  0  2  0  0  0  0  0  0  0  0  0
   23.5596   71.7978   -3.7189 O   0  0  0  0  0  0  0  0  0  0  0  0
   22.0462   73.2281   -2.1252 O   0  0  0  0  0  0  0  0  0  0  0  0
   21.6469   73.1731   -4.7144 O   0  0  0  0  0  0  0  0  0  0  0  0
   22.8164   74.4247   -6.3500 O   0  0  0  0  0  0  0  0  0  0  0  0
   19.3101   76.5798   -5.9906 O   0  0  0  0  0  0  0  0  0  0  0  0
   20.6513   75.5275   -3.6182 O   0  0  0  0  0  0  0  0  0  0  0  0
   19.7394   74.8661   -8.2992 O   0  0  0  0  0  0  0  0  0  0  0  0
   20.1264   75.4087   -5.9839 C   0  0  2  0  0  0  0  0  0  0  0  0
   21.2181   75.5519   -4.9231 C   0  0  2  0  0  0  0  0  0  0  0  0
   20.7505   75.2592   -7.3732 C   0  0  1  0  0  0  0  0  0  0  0  0
   22.2462   74.4258   -5.0407 C   0  0  1  0  0  0  0  0  0  0  0  0
   21.8531   74.2044   -7.3780 C   0  0  1  0  0  0  0  0  0  0  0  0
   18.9028   76.6953   -5.1176 H   0  0  0  0  0  0  0  0  0  0  0  0
   19.9978   76.2393   -3.5367 H   0  0  0  0  0  0  0  0  0  0  0  0
   19.0313   75.5291   -8.3057 H   0  0  0  0  0  0  0  0  0  0  0  0
   22.1107   73.5559   -9.6174 O   0  0  0  0  0  0  0  0  0  0  0  0
   23.6959   74.9453   -8.7480 O   0  0  0  0  0  0  0  0  0  0  0  0
   22.6685   74.2952   -8.6267 C   0  0  0  0  0  0  0  0  0  0  0  0
  1  4  1  0
  1 24  1  0
  1  2  1  6
  1  3  2  0
 25 28  1  0
 25 24  1  0
 25 26  1  6
 25 27  2  0
  6 11  1  0
  6 12  1  0
 29 36  1  0
 29 37  1  0
  9  7  1  6
  7 13  1  0
 10  8  1  6
  8 14  1  0
  4  5  1  0
 36 28  1  6
 33 30  1  6
 30 38  1  0
 34 31  1  1
 31 39  1  0
 35 32  1  6
 32 40  1  0
 41 43  1  0
 15 19  2  0
 42 43  2  0
 16 22  2  0
 12 17  1  6
 17 19  1  0
 17 20  1  0
 18 19  1  0
 18 22  1  0
 18 23  1  0
  9 10  1  0
  9 11  1  0
 10 12  1  0
 11  5  1  6
 33 34  1  0
 33 35  1  0
 34 36  1  0
 35 37  1  0
 37 43  1  6
 20 21  2  0
 21 22  1  0
M  CHG  3   2  -1  26  -1  41  -1
M  END
>  <COMPND>  (126) 
    udp_gluA.pdb 

>  <AUTHOR>  (126) 
    GENERATED BY OPEN BABEL 3.1.1

>  <MASTER>  (126) 
        0    0    0    0    0    0    0    0   56    0   56    0

>  <minimizedAffinity>  (126) 
-6.79169

>  <CNNscore>  (126) 
0.6405230761

>  <CNNaffinity>  (126) 
4.2255973816

>  <CNN_VS>  (126) 
2.7065925598

>  <CNNaffinity_variance>  (126) 
0.2430101186

$$$$
127
     RDKit          3D

 43 45  0  0  0  0  0  0  0  0999 V2000
   21.7748   69.2548   -1.2740 P   0  0  2  0  0  0  0  0  0  0  0  0
   22.9202   68.2129   -1.7445 O   0  0  0  0  0  0  0  0  0  0  0  0
   20.8441   68.7382   -0.2163 O   0  0  0  0  0  0  0  0  0  0  0  0
   21.0773   69.7168   -2.6590 O   0  0  0  0  0  0  0  0  0  0  0  0
   19.9332   69.0136   -3.1072 C   0  0  0  0  0  0  0  0  0  0  0  0
   18.7031   70.9052   -3.9357 O   0  0  0  0  0  0  0  0  0  0  0  0
   16.3798   69.8481   -2.3621 O   0  0  0  0  0  0  0  0  0  0  0  0
   15.7948   69.0442   -4.9013 O   0  0  0  0  0  0  0  0  0  0  0  0
   17.3921   69.1323   -3.0702 C   0  0  1  0  0  0  0  0  0  0  0  0
   17.1537   69.2259   -4.5624 C   0  0  2  0  0  0  0  0  0  0  0  0
   18.7030   69.8898   -2.9089 C   0  0  1  0  0  0  0  0  0  0  0  0
   17.6519   70.6268   -4.8742 C   0  0  2  0  0  0  0  0  0  0  0  0
   15.5327   69.3831   -2.4506 H   0  0  0  0  0  0  0  0  0  0  0  0
   15.5258   68.1373   -4.6840 H   0  0  0  0  0  0  0  0  0  0  0  0
   16.0708   70.5948   -7.2142 O   0  0  0  0  0  0  0  0  0  0  0  0
   19.7620   71.0639   -9.9342 O   0  0  0  0  0  0  0  0  0  0  0  0
   18.1738   70.7388   -6.2068 N   0  0  0  0  0  0  0  0  0  0  0  0
   17.9108   70.8274   -8.5667 N   0  0  0  0  0  0  0  0  0  0  0  0
   17.2936   70.7114   -7.3143 C   0  0  0  0  0  0  0  0  0  0  0  0
   19.5422   70.8756   -6.4065 C   0  0  0  0  0  0  0  0  0  0  0  0
   20.1158   70.9853   -7.6064 C   0  0  0  0  0  0  0  0  0  0  0  0
   19.2668   70.9648   -8.8156 C   0  0  0  0  0  0  0  0  0  0  0  0
   17.3186   70.8089   -9.3530 H   0  0  0  0  0  0  0  0  0  0  0  0
   22.6261   70.5596   -0.8430 O   0  0  0  0  0  0  0  0  0  0  0  0
   22.1659   71.9458   -0.1499 P   0  0  2  0  0  0  0  0  0  0  0  0
   22.8531   71.8734    1.3139 O   0  0  0  0  0  0  0  0  0  0  0  0
   20.6799   72.1586   -0.1257 O   0  0  0  0  0  0  0  0  0  0  0  0
   22.9932   73.0888   -0.9320 O   0  0  0  0  0  0  0  0  0  0  0  0
   22.9806   75.3379   -1.6740 O   0  0  0  0  0  0  0  0  0  0  0  0
   23.1488   73.2742   -5.2490 O   0  0  0  0  0  0  0  0  0  0  0  0
   21.4007   72.3621   -3.0934 O   0  0  0  0  0  0  0  0  0  0  0  0
   25.5267   74.5805   -4.2050 O   0  0  0  0  0  0  0  0  0  0  0  0
   23.4001   73.5010   -3.8622 C   0  0  2  0  0  0  0  0  0  0  0  0
   22.0721   73.6164   -3.1135 C   0  0  2  0  0  0  0  0  0  0  0  0
   24.1988   74.7999   -3.7325 C   0  0  1  0  0  0  0  0  0  0  0  0
   22.2940   74.0857   -1.6750 C   0  0  1  0  0  0  0  0  0  0  0  0
   24.2684   75.2688   -2.2821 C   0  0  1  0  0  0  0  0  0  0  0  0
   22.6421   72.4538   -5.3560 H   0  0  0  0  0  0  0  0  0  0  0  0
   21.2568   72.0582   -4.0030 H   0  0  0  0  0  0  0  0  0  0  0  0
   25.4965   74.2816   -5.1272 H   0  0  0  0  0  0  0  0  0  0  0  0
   24.1265   77.3458   -1.2017 O   0  0  0  0  0  0  0  0  0  0  0  0
   25.5980   77.1733   -2.9349 O   0  0  0  0  0  0  0  0  0  0  0  0
   24.7528   76.6799   -2.2033 C   0  0  0  0  0  0  0  0  0  0  0  0
  1  4  1  0
  1 24  1  0
  1  2  1  6
  1  3  2  0
 25 28  1  0
 25 24  1  0
 25 26  1  1
 25 27  2  0
  6 11  1  0
  6 12  1  0
 29 36  1  0
 29 37  1  0
  9  7  1  1
  7 13  1  0
 10  8  1  1
  8 14  1  0
  4  5  1  0
 36 28  1  1
 33 30  1  6
 30 38  1  0
 34 31  1  1
 31 39  1  0
 35 32  1  1
 32 40  1  0
 41 43  1  0
 15 19  2  0
 42 43  2  0
 16 22  2  0
 12 17  1  6
 17 19  1  0
 17 20  1  0
 18 19  1  0
 18 22  1  0
 18 23  1  0
  9 10  1  0
  9 11  1  0
 10 12  1  0
 11  5  1  6
 33 34  1  0
 33 35  1  0
 34 36  1  0
 35 37  1  0
 37 43  1  6
 20 21  2  0
 21 22  1  0
M  CHG  3   2  -1  26  -1  41  -1
M  END
>  <COMPND>  (127) 
    udp_gluA.pdb 

>  <AUTHOR>  (127) 
    GENERATED BY OPEN BABEL 3.1.1

>  <MASTER>  (127) 
        0    0    0    0    0    0    0    0   56    0   56    0

>  <minimizedAffinity>  (127) 
-7.43230

>  <CNNscore>  (127) 
0.6021623611

>  <CNNaffinity>  (127) 
4.5261769295

>  <CNN_VS>  (127) 
2.7254934311

>  <CNNaffinity_variance>  (127) 
0.0807813331

$$$$
128
     RDKit          3D

 43 45  0  0  0  0  0  0  0  0999 V2000
   21.5594   69.7405   -1.9244 P   0  0  2  0  0  0  0  0  0  0  0  0
   22.2680   70.8480   -2.8678 O   0  0  0  0  0  0  0  0  0  0  0  0
   21.8529   68.3151   -2.2904 O   0  0  0  0  0  0  0  0  0  0  0  0
   19.9972   70.1617   -1.9368 O   0  0  0  0  0  0  0  0  0  0  0  0
   19.1614   69.6289   -2.9478 C   0  0  0  0  0  0  0  0  0  0  0  0
   18.0117   71.4520   -4.0119 O   0  0  0  0  0  0  0  0  0  0  0  0
   15.4898   70.2588   -2.9129 O   0  0  0  0  0  0  0  0  0  0  0  0
   15.4556   69.4347   -5.5121 O   0  0  0  0  0  0  0  0  0  0  0  0
   16.6590   69.6044   -3.4061 C   0  0  1  0  0  0  0  0  0  0  0  0
   16.7103   69.6911   -4.9168 C   0  0  2  0  0  0  0  0  0  0  0  0
   17.8690   70.4336   -2.9981 C   0  0  1  0  0  0  0  0  0  0  0  0
   17.1803   71.1192   -5.1349 C   0  0  2  0  0  0  0  0  0  0  0  0
   14.7035   69.7474   -3.1614 H   0  0  0  0  0  0  0  0  0  0  0  0
   15.2008   68.5132   -5.3453 H   0  0  0  0  0  0  0  0  0  0  0  0
   16.0797   71.7917   -7.6474 O   0  0  0  0  0  0  0  0  0  0  0  0
   20.2065   71.6569   -9.6957 O   0  0  0  0  0  0  0  0  0  0  0  0
   17.9443   71.2664   -6.3414 N   0  0  0  0  0  0  0  0  0  0  0  0
   18.1360   71.7229   -8.6654 N   0  0  0  0  0  0  0  0  0  0  0  0
   17.2943   71.6064   -7.5513 C   0  0  0  0  0  0  0  0  0  0  0  0
   19.3206   71.0764   -6.3183 C   0  0  0  0  0  0  0  0  0  0  0  0
   20.1096   71.1911   -7.3884 C   0  0  0  0  0  0  0  0  0  0  0  0
   19.5095   71.5429   -8.6920 C   0  0  0  0  0  0  0  0  0  0  0  0
   17.7060   71.9569   -9.5196 H   0  0  0  0  0  0  0  0  0  0  0  0
   22.0389   70.1671   -0.4408 O   0  0  0  0  0  0  0  0  0  0  0  0
   23.4772   70.0419    0.2868 P   0  0  2  0  0  0  0  0  0  0  0  0
   24.4833   69.7106   -0.9373 O   0  0  0  0  0  0  0  0  0  0  0  0
   23.5158   69.0428    1.4067 O   0  0  0  0  0  0  0  0  0  0  0  0
   23.8484   71.5503    0.7221 O   0  0  0  0  0  0  0  0  0  0  0  0
   23.0007   72.9147    2.4624 O   0  0  0  0  0  0  0  0  0  0  0  0
   23.7966   75.7032   -0.4801 O   0  0  0  0  0  0  0  0  0  0  0  0
   22.5625   73.1441   -1.1600 O   0  0  0  0  0  0  0  0  0  0  0  0
   25.5711   75.4500    1.8085 O   0  0  0  0  0  0  0  0  0  0  0  0
   23.9905   74.4977    0.2595 C   0  0  2  0  0  0  0  0  0  0  0  0
   22.7337   73.6320    0.1656 C   0  0  2  0  0  0  0  0  0  0  0  0
   24.2687   74.8759    1.7160 C   0  0  1  0  0  0  0  0  0  0  0  0
   22.8139   72.4452    1.1267 C   0  0  1  0  0  0  0  0  0  0  0  0
   24.2075   73.6555    2.6300 C   0  0  1  0  0  0  0  0  0  0  0  0
   23.6182   75.4877   -1.4091 H   0  0  0  0  0  0  0  0  0  0  0  0
   22.5111   73.8919   -1.7752 H   0  0  0  0  0  0  0  0  0  0  0  0
   25.6235   76.2277    1.2313 H   0  0  0  0  0  0  0  0  0  0  0  0
   23.2375   73.3290    4.7405 O   0  0  0  0  0  0  0  0  0  0  0  0
   24.8311   74.9506    4.5678 O   0  0  0  0  0  0  0  0  0  0  0  0
   24.1506   74.0694    4.0644 C   0  0  0  0  0  0  0  0  0  0  0  0
  1  4  1  0
  1 24  1  0
  1  2  1  6
  1  3  2  0
 25 28  1  0
 25 24  1  0
 25 26  1  6
 25 27  2  0
  6 11  1  0
  6 12  1  0
 29 36  1  0
 29 37  1  0
  9  7  1  1
  7 13  1  0
 10  8  1  6
  8 14  1  0
  4  5  1  0
 36 28  1  6
 33 30  1  6
 30 38  1  0
 34 31  1  6
 31 39  1  0
 35 32  1  6
 32 40  1  0
 41 43  1  0
 15 19  2  0
 42 43  2  0
 16 22  2  0
 12 17  1  6
 17 19  1  0
 17 20  1  0
 18 19  1  0
 18 22  1  0
 18 23  1  0
  9 10  1  0
  9 11  1  0
 10 12  1  0
 11  5  1  6
 33 34  1  0
 33 35  1  0
 34 36  1  0
 35 37  1  0
 37 43  1  1
 20 21  2  0
 21 22  1  0
M  CHG  3   2  -1  26  -1  41  -1
M  END
>  <COMPND>  (128) 
    udp_gluA.pdb 

>  <AUTHOR>  (128) 
    GENERATED BY OPEN BABEL 3.1.1

>  <MASTER>  (128) 
        0    0    0    0    0    0    0    0   56    0   56    0

>  <minimizedAffinity>  (128) 
-7.69219

>  <CNNscore>  (128) 
0.5731531978

>  <CNNaffinity>  (128) 
4.5536069870

>  <CNN_VS>  (128) 
2.6099143028

>  <CNNaffinity_variance>  (128) 
0.1012911201

$$$$
129
     RDKit          3D

 43 45  0  0  0  0  0  0  0  0999 V2000
   21.3016   75.7082   -3.7416 P   0  0  2  0  0  0  0  0  0  0  0  0
   21.4397   76.1651   -2.1953 O   0  0  0  0  0  0  0  0  0  0  0  0
   21.3701   76.8256   -4.7409 O   0  0  0  0  0  0  0  0  0  0  0  0
   19.9458   74.8256   -3.7663 O   0  0  0  0  0  0  0  0  0  0  0  0
   19.0609   74.9762   -4.8612 C   0  0  0  0  0  0  0  0  0  0  0  0
   17.1994   73.7180   -5.7153 O   0  0  0  0  0  0  0  0  0  0  0  0
   16.5903   73.0349   -2.8598 O   0  0  0  0  0  0  0  0  0  0  0  0
   17.8289   70.7788   -3.7610 O   0  0  0  0  0  0  0  0  0  0  0  0
   17.8562   73.1961   -3.5001 C   0  0  1  0  0  0  0  0  0  0  0  0
   18.1515   72.0039   -4.3853 C   0  0  2  0  0  0  0  0  0  0  0  0
   17.7287   74.3233   -4.5158 C   0  0  1  0  0  0  0  0  0  0  0  0
   17.2824   72.2888   -5.5983 C   0  0  2  0  0  0  0  0  0  0  0  0
   16.6469   72.3198   -2.2062 H   0  0  0  0  0  0  0  0  0  0  0  0
   18.4096   70.6434   -2.9953 H   0  0  0  0  0  0  0  0  0  0  0  0
   16.2278   70.0697   -6.9913 O   0  0  0  0  0  0  0  0  0  0  0  0
   19.4965   70.3189  -10.2314 O   0  0  0  0  0  0  0  0  0  0  0  0
   17.8380   71.7527   -6.8086 N   0  0  0  0  0  0  0  0  0  0  0  0
   17.8574   70.1953   -8.6032 N   0  0  0  0  0  0  0  0  0  0  0  0
   17.2318   70.6349   -7.4291 C   0  0  0  0  0  0  0  0  0  0  0  0
   18.9690   72.3336   -7.3693 C   0  0  0  0  0  0  0  0  0  0  0  0
   19.5539   71.9034   -8.4890 C   0  0  0  0  0  0  0  0  0  0  0  0
   18.9836   70.7397   -9.1989 C   0  0  0  0  0  0  0  0  0  0  0  0
   17.4546   69.4171   -9.0520 H   0  0  0  0  0  0  0  0  0  0  0  0
   22.4630   74.5946   -3.8960 O   0  0  0  0  0  0  0  0  0  0  0  0
   22.4141   72.9843   -3.7612 P   0  0  2  0  0  0  0  0  0  0  0  0
   23.9528   72.5456   -4.0071 O   0  0  0  0  0  0  0  0  0  0  0  0
   21.4276   72.3193   -4.6769 O   0  0  0  0  0  0  0  0  0  0  0  0
   22.1591   72.7125   -2.1916 O   0  0  0  0  0  0  0  0  0  0  0  0
   21.3159   70.6476   -1.3952 O   0  0  0  0  0  0  0  0  0  0  0  0
   20.4352   73.1828    1.7456 O   0  0  0  0  0  0  0  0  0  0  0  0
   20.0202   74.0451   -1.0146 O   0  0  0  0  0  0  0  0  0  0  0  0
   22.6586   71.3214    1.9522 O   0  0  0  0  0  0  0  0  0  0  0  0
   21.1871   72.6993    0.6327 C   0  0  2  0  0  0  0  0  0  0  0  0
   20.3108   72.7092   -0.6201 C   0  0  2  0  0  0  0  0  0  0  0  0
   21.6421   71.2737    0.9528 C   0  0  1  0  0  0  0  0  0  0  0  0
   21.0026   71.9875   -1.7774 C   0  0  1  0  0  0  0  0  0  0  0  0
   22.2055   70.5780   -0.2830 C   0  0  1  0  0  0  0  0  0  0  0  0
   20.1353   74.0876    1.5650 H   0  0  0  0  0  0  0  0  0  0  0  0
   19.5813   74.5090   -0.2848 H   0  0  0  0  0  0  0  0  0  0  0  0
   22.3129   71.7621    2.7442 H   0  0  0  0  0  0  0  0  0  0  0  0
   21.1173   68.5365    0.1038 O   0  0  0  0  0  0  0  0  0  0  0  0
   23.3944   68.4968   -0.0062 O   0  0  0  0  0  0  0  0  0  0  0  0
   22.3373   69.1080   -0.0504 C   0  0  0  0  0  0  0  0  0  0  0  0
  1  4  1  0
  1 24  1  0
  1  2  1  1
  1  3  2  0
 25 28  1  0
 25 24  1  0
 25 26  1  6
 25 27  2  0
  6 11  1  0
  6 12  1  0
 29 36  1  0
 29 37  1  0
  9  7  1  6
  7 13  1  0
 10  8  1  1
  8 14  1  0
  4  5  1  0
 36 28  1  1
 33 30  1  1
 30 38  1  0
 34 31  1  6
 31 39  1  0
 35 32  1  1
 32 40  1  0
 41 43  1  0
 15 19  2  0
 42 43  2  0
 16 22  2  0
 12 17  1  6
 17 19  1  0
 17 20  1  0
 18 19  1  0
 18 22  1  0
 18 23  1  0
  9 10  1  0
  9 11  1  0
 10 12  1  0
 11  5  1  6
 33 34  1  0
 33 35  1  0
 34 36  1  0
 35 37  1  0
 37 43  1  1
 20 21  2  0
 21 22  1  0
M  CHG  3   2  -1  26  -1  41  -1
M  END
>  <COMPND>  (129) 
    udp_gluA.pdb 

>  <AUTHOR>  (129) 
    GENERATED BY OPEN BABEL 3.1.1

>  <MASTER>  (129) 
        0    0    0    0    0    0    0    0   56    0   56    0

>  <minimizedAffinity>  (129) 
-6.56685

>  <CNNscore>  (129) 
0.5448582768

>  <CNNaffinity>  (129) 
4.1779155731

>  <CNN_VS>  (129) 
2.2763719559

>  <CNNaffinity_variance>  (129) 
0.1849926412

$$$$
130
     RDKit          3D

 43 45  0  0  0  0  0  0  0  0999 V2000
   21.7000   70.6273   -2.9116 P   0  0  2  0  0  0  0  0  0  0  0  0
   21.0837   71.4404   -4.1677 O   0  0  0  0  0  0  0  0  0  0  0  0
   23.1948   70.4961   -2.9137 O   0  0  0  0  0  0  0  0  0  0  0  0
   20.8726   69.2369   -2.9051 O   0  0  0  0  0  0  0  0  0  0  0  0
   19.7880   69.0913   -3.8033 C   0  0  0  0  0  0  0  0  0  0  0  0
   17.6689   70.0319   -3.1686 O   0  0  0  0  0  0  0  0  0  0  0  0
   16.8632   67.2409   -2.4250 O   0  0  0  0  0  0  0  0  0  0  0  0
   15.6706   67.5782   -4.8539 O   0  0  0  0  0  0  0  0  0  0  0  0
   17.6883   67.6867   -3.5015 C   0  0  1  0  0  0  0  0  0  0  0  0
   16.8406   68.3215   -4.5835 C   0  0  2  0  0  0  0  0  0  0  0  0
   18.5095   68.8690   -3.0055 C   0  0  1  0  0  0  0  0  0  0  0  0
   16.5415   69.6873   -3.9893 C   0  0  2  0  0  0  0  0  0  0  0  0
   16.3289   66.4857   -2.7180 H   0  0  0  0  0  0  0  0  0  0  0  0
   15.9141   66.7176   -5.2308 H   0  0  0  0  0  0  0  0  0  0  0  0
   15.3017   72.1858   -3.5462 O   0  0  0  0  0  0  0  0  0  0  0  0
   15.9396   73.4839   -7.9225 O   0  0  0  0  0  0  0  0  0  0  0  0
   16.3703   70.6970   -4.9953 N   0  0  0  0  0  0  0  0  0  0  0  0
   15.6197   72.8296   -5.7266 N   0  0  0  0  0  0  0  0  0  0  0  0
   15.7337   71.9178   -4.6689 C   0  0  0  0  0  0  0  0  0  0  0  0
   16.8315   70.4743   -6.2871 C   0  0  0  0  0  0  0  0  0  0  0  0
   16.7156   71.3530   -7.2846 C   0  0  0  0  0  0  0  0  0  0  0  0
   16.0620   72.6530   -7.0276 C   0  0  0  0  0  0  0  0  0  0  0  0
   15.1781   73.6859   -5.5240 H   0  0  0  0  0  0  0  0  0  0  0  0
   21.0951   71.4160   -1.6368 O   0  0  0  0  0  0  0  0  0  0  0  0
   21.1938   72.9712   -1.2063 P   0  0  2  0  0  0  0  0  0  0  0  0
   19.6459   73.3962   -0.9976 O   0  0  0  0  0  0  0  0  0  0  0  0
   21.9460   73.8329   -2.1788 O   0  0  0  0  0  0  0  0  0  0  0  0
   21.8132   72.9450    0.2831 O   0  0  0  0  0  0  0  0  0  0  0  0
   24.0156   73.4619    0.9840 O   0  0  0  0  0  0  0  0  0  0  0  0
   22.8842   70.6389    3.7802 O   0  0  0  0  0  0  0  0  0  0  0  0
   22.2193   70.2777    0.9585 O   0  0  0  0  0  0  0  0  0  0  0  0
   22.9633   73.4545    4.4990 O   0  0  0  0  0  0  0  0  0  0  0  0
   22.6888   71.7114    2.8585 C   0  0  2  0  0  0  0  0  0  0  0  0
   23.1120   71.2665    1.4584 C   0  0  2  0  0  0  0  0  0  0  0  0
   23.5419   72.8944    3.3217 C   0  0  1  0  0  0  0  0  0  0  0  0
   23.1351   72.4512    0.4915 C   0  0  1  0  0  0  0  0  0  0  0  0
   23.6176   73.9795    2.2516 C   0  0  1  0  0  0  0  0  0  0  0  0
   22.3516   69.8756    3.5060 H   0  0  0  0  0  0  0  0  0  0  0  0
   22.1995   69.5231    1.5673 H   0  0  0  0  0  0  0  0  0  0  0  0
   22.9093   72.7740    5.1880 H   0  0  0  0  0  0  0  0  0  0  0  0
   24.1922   76.0375    3.2190 O   0  0  0  0  0  0  0  0  0  0  0  0
   25.8786   74.8211    2.2834 O   0  0  0  0  0  0  0  0  0  0  0  0
   24.6985   74.9615    2.5673 C   0  0  0  0  0  0  0  0  0  0  0  0
  1  4  1  0
  1 24  1  0
  1  2  1  6
  1  3  2  0
 25 28  1  0
 25 24  1  0
 25 26  1  1
 25 27  2  0
  6 11  1  0
  6 12  1  0
 29 36  1  0
 29 37  1  0
  9  7  1  1
  7 13  1  0
 10  8  1  1
  8 14  1  0
  4  5  1  0
 36 28  1  1
 33 30  1  1
 30 38  1  0
 34 31  1  6
 31 39  1  0
 35 32  1  1
 32 40  1  0
 41 43  1  0
 15 19  2  0
 42 43  2  0
 16 22  2  0
 12 17  1  6
 17 19  1  0
 17 20  1  0
 18 19  1  0
 18 22  1  0
 18 23  1  0
  9 10  1  0
  9 11  1  0
 10 12  1  0
 11  5  1  6
 33 34  1  0
 33 35  1  0
 34 36  1  0
 35 37  1  0
 37 43  1  1
 20 21  2  0
 21 22  1  0
M  CHG  3   2  -1  26  -1  41  -1
M  END
>  <COMPND>  (130) 
    udp_gluA.pdb 

>  <AUTHOR>  (130) 
    GENERATED BY OPEN BABEL 3.1.1

>  <MASTER>  (130) 
        0    0    0    0    0    0    0    0   56    0   56    0

>  <minimizedAffinity>  (130) 
-7.37167

>  <CNNscore>  (130) 
0.5029700994

>  <CNNaffinity>  (130) 
4.2559347153

>  <CNN_VS>  (130) 
2.1406078339

>  <CNNaffinity_variance>  (130) 
0.3086478710

$$$$
131
     RDKit          3D

 43 45  0  0  0  0  0  0  0  0999 V2000
   22.3397   72.7903   -3.7458 P   0  0  2  0  0  0  0  0  0  0  0  0
   23.7040   72.8001   -4.6160 O   0  0  0  0  0  0  0  0  0  0  0  0
   21.8719   74.1398   -3.2857 O   0  0  0  0  0  0  0  0  0  0  0  0
   22.6329   71.7118   -2.5758 O   0  0  0  0  0  0  0  0  0  0  0  0
   22.6005   72.1490   -1.2296 C   0  0  0  0  0  0  0  0  0  0  0  0
   21.8967   69.8556   -1.0791 O   0  0  0  0  0  0  0  0  0  0  0  0
   21.4474   70.3793    1.8390 O   0  0  0  0  0  0  0  0  0  0  0  0
   23.8425   69.0757    1.8295 O   0  0  0  0  0  0  0  0  0  0  0  0
   22.4646   70.8880    0.9758 C   0  0  1  0  0  0  0  0  0  0  0  0
   23.4859   69.8109    0.6776 C   0  0  2  0  0  0  0  0  0  0  0  0
   21.8429   71.1255   -0.3937 C   0  0  1  0  0  0  0  0  0  0  0  0
   22.7600   68.9650   -0.3546 C   0  0  2  0  0  0  0  0  0  0  0  0
   21.8209   70.2197    2.7204 H   0  0  0  0  0  0  0  0  0  0  0  0
   24.3018   69.6581    2.4555 H   0  0  0  0  0  0  0  0  0  0  0  0
   23.1782   66.1769   -0.5214 O   0  0  0  0  0  0  0  0  0  0  0  0
   26.2396   66.6560   -3.9335 O   0  0  0  0  0  0  0  0  0  0  0  0
   23.6607   68.3342   -1.2775 N   0  0  0  0  0  0  0  0  0  0  0  0
   24.7033   66.4182   -2.2200 N   0  0  0  0  0  0  0  0  0  0  0  0
   23.7973   66.9258   -1.2795 C   0  0  0  0  0  0  0  0  0  0  0  0
   24.3953   69.1076   -2.1681 C   0  0  0  0  0  0  0  0  0  0  0  0
   25.2550   68.6093   -3.0589 C   0  0  0  0  0  0  0  0  0  0  0  0
   25.4569   67.1471   -3.1257 C   0  0  0  0  0  0  0  0  0  0  0  0
   24.8169   65.4405   -2.2389 H   0  0  0  0  0  0  0  0  0  0  0  0
   21.3013   72.0097   -4.7077 O   0  0  0  0  0  0  0  0  0  0  0  0
   19.9925   71.1260   -4.3614 P   0  0  2  0  0  0  0  0  0  0  0  0
   19.4115   71.8331   -3.0263 O   0  0  0  0  0  0  0  0  0  0  0  0
   20.2627   69.6564   -4.2153 O   0  0  0  0  0  0  0  0  0  0  0  0
   18.9293   71.4997   -5.5157 O   0  0  0  0  0  0  0  0  0  0  0  0
   16.8614   70.8027   -4.5951 O   0  0  0  0  0  0  0  0  0  0  0  0
   15.6412   72.7309   -8.0392 O   0  0  0  0  0  0  0  0  0  0  0  0
   17.9735   70.9720   -8.0738 O   0  0  0  0  0  0  0  0  0  0  0  0
   15.3252   74.0222   -5.4539 O   0  0  0  0  0  0  0  0  0  0  0  0
   16.4789   72.4872   -6.9092 C   0  0  2  0  0  0  0  0  0  0  0  0
   17.0531   71.0727   -6.9934 C   0  0  2  0  0  0  0  0  0  0  0  0
   15.6273   72.6416   -5.6471 C   0  0  1  0  0  0  0  0  0  0  0  0
   17.7662   70.6935   -5.6947 C   0  0  1  0  0  0  0  0  0  0  0  0
   16.3616   72.1256   -4.4130 C   0  0  1  0  0  0  0  0  0  0  0  0
   16.1609   72.6382   -8.8531 H   0  0  0  0  0  0  0  0  0  0  0  0
   17.5278   71.2115   -8.9011 H   0  0  0  0  0  0  0  0  0  0  0  0
   14.8578   74.3630   -6.2325 H   0  0  0  0  0  0  0  0  0  0  0  0
   14.8396   73.1602   -2.9588 O   0  0  0  0  0  0  0  0  0  0  0  0
   15.2005   70.9274   -2.6701 O   0  0  0  0  0  0  0  0  0  0  0  0
   15.4217   71.9735   -3.2615 C   0  0  0  0  0  0  0  0  0  0  0  0
  1  4  1  0
  1 24  1  0
  1  2  1  6
  1  3  2  0
 25 28  1  0
 25 24  1  0
 25 26  1  1
 25 27  2  0
  6 11  1  0
  6 12  1  0
 29 36  1  0
 29 37  1  0
  9  7  1  1
  7 13  1  0
 10  8  1  1
  8 14  1  0
  4  5  1  0
 36 28  1  1
 33 30  1  6
 30 38  1  0
 34 31  1  6
 31 39  1  0
 35 32  1  1
 32 40  1  0
 41 43  1  0
 15 19  2  0
 42 43  2  0
 16 22  2  0
 12 17  1  6
 17 19  1  0
 17 20  1  0
 18 19  1  0
 18 22  1  0
 18 23  1  0
  9 10  1  0
  9 11  1  0
 10 12  1  0
 11  5  1  6
 33 34  1  0
 33 35  1  0
 34 36  1  0
 35 37  1  0
 37 43  1  1
 20 21  2  0
 21 22  1  0
M  CHG  3   2  -1  26  -1  41  -1
M  END
>  <COMPND>  (131) 
    udp_gluA.pdb 

>  <AUTHOR>  (131) 
    GENERATED BY OPEN BABEL 3.1.1

>  <MASTER>  (131) 
        0    0    0    0    0    0    0    0   56    0   56    0

>  <minimizedAffinity>  (131) 
-8.41134

>  <CNNscore>  (131) 
0.3852233887

>  <CNNaffinity>  (131) 
4.2116904259

>  <CNN_VS>  (131) 
1.6224416494

>  <CNNaffinity_variance>  (131) 
0.3990949988

$$$$
132
     RDKit          3D

 43 45  0  0  0  0  0  0  0  0999 V2000
   21.6745   71.2871   -3.2871 P   0  0  2  0  0  0  0  0  0  0  0  0
   23.2396   70.8809   -3.2208 O   0  0  0  0  0  0  0  0  0  0  0  0
   21.1980   72.1586   -2.1622 O   0  0  0  0  0  0  0  0  0  0  0  0
   20.9117   69.8695   -3.4493 O   0  0  0  0  0  0  0  0  0  0  0  0
   19.7011   69.8332   -4.1824 C   0  0  0  0  0  0  0  0  0  0  0  0
   17.6746   70.6971   -3.2208 O   0  0  0  0  0  0  0  0  0  0  0  0
   17.0297   67.8602   -2.4944 O   0  0  0  0  0  0  0  0  0  0  0  0
   15.5051   68.2672   -4.7184 O   0  0  0  0  0  0  0  0  0  0  0  0
   17.6890   68.3685   -3.6544 C   0  0  1  0  0  0  0  0  0  0  0  0
   16.6880   69.0262   -4.5804 C   0  0  2  0  0  0  0  0  0  0  0  0
   18.5502   69.5488   -3.2259 C   0  0  1  0  0  0  0  0  0  0  0  0
   16.4503   70.3595   -3.8920 C   0  0  2  0  0  0  0  0  0  0  0  0
   16.4733   67.1051   -2.7432 H   0  0  0  0  0  0  0  0  0  0  0  0
   15.7090   67.4285   -5.1622 H   0  0  0  0  0  0  0  0  0  0  0  0
   15.0199   72.6998   -3.2186 O   0  0  0  0  0  0  0  0  0  0  0  0
   15.2512   74.3023   -7.5340 O   0  0  0  0  0  0  0  0  0  0  0  0
   16.1229   71.4047   -4.8200 N   0  0  0  0  0  0  0  0  0  0  0  0
   15.1356   73.4952   -5.3687 N   0  0  0  0  0  0  0  0  0  0  0  0
   15.4006   72.5389   -4.3796 C   0  0  0  0  0  0  0  0  0  0  0  0
   16.5174   71.3014   -6.1484 C   0  0  0  0  0  0  0  0  0  0  0  0
   16.2575   72.2212   -7.0796 C   0  0  0  0  0  0  0  0  0  0  0  0
   15.5066   73.4365   -6.7024 C   0  0  0  0  0  0  0  0  0  0  0  0
   14.6322   74.2929   -5.0865 H   0  0  0  0  0  0  0  0  0  0  0  0
   21.5326   71.9463   -4.7561 O   0  0  0  0  0  0  0  0  0  0  0  0
   22.1732   73.2923   -5.3819 P   0  0  2  0  0  0  0  0  0  0  0  0
   22.5773   72.8457   -6.8844 O   0  0  0  0  0  0  0  0  0  0  0  0
   23.3066   73.8649   -4.5810 O   0  0  0  0  0  0  0  0  0  0  0  0
   20.9202   74.2896   -5.5768 O   0  0  0  0  0  0  0  0  0  0  0  0
   18.6983   74.0400   -4.7960 O   0  0  0  0  0  0  0  0  0  0  0  0
   18.1341   76.2368   -8.2491 O   0  0  0  0  0  0  0  0  0  0  0  0
   20.0341   74.0182   -8.1992 O   0  0  0  0  0  0  0  0  0  0  0  0
   17.9419   77.5270   -5.6511 O   0  0  0  0  0  0  0  0  0  0  0  0
   18.8287   75.8017   -7.0802 C   0  0  2  0  0  0  0  0  0  0  0  0
   19.0914   74.2983   -7.1708 C   0  0  2  0  0  0  0  0  0  0  0  0
   17.9533   76.1168   -5.8652 C   0  0  1  0  0  0  0  0  0  0  0  0
   19.6251   73.7553   -5.8445 C   0  0  1  0  0  0  0  0  0  0  0  0
   18.4824   75.4365   -4.6059 C   0  0  1  0  0  0  0  0  0  0  0  0
   18.6715   76.0467   -9.0342 H   0  0  0  0  0  0  0  0  0  0  0  0
   19.7020   74.3603   -9.0436 H   0  0  0  0  0  0  0  0  0  0  0  0
   17.6073   77.9719   -6.4454 H   0  0  0  0  0  0  0  0  0  0  0  0
   16.2768   75.9355   -3.9832 O   0  0  0  0  0  0  0  0  0  0  0  0
   17.6599   75.1322   -2.3582 O   0  0  0  0  0  0  0  0  0  0  0  0
   17.4623   75.4729   -3.5149 C   0  0  0  0  0  0  0  0  0  0  0  0
  1  4  1  0
  1 24  1  0
  1  2  1  1
  1  3  2  0
 25 28  1  0
 25 24  1  0
 25 26  1  6
 25 27  2  0
  6 11  1  0
  6 12  1  0
 29 36  1  0
 29 37  1  0
  9  7  1  1
  7 13  1  0
 10  8  1  1
  8 14  1  0
  4  5  1  0
 36 28  1  1
 33 30  1  6
 30 38  1  0
 34 31  1  6
 31 39  1  0
 35 32  1  1
 32 40  1  0
 41 43  1  0
 15 19  2  0
 42 43  2  0
 16 22  2  0
 12 17  1  6
 17 19  1  0
 17 20  1  0
 18 19  1  0
 18 22  1  0
 18 23  1  0
  9 10  1  0
  9 11  1  0
 10 12  1  0
 11  5  1  6
 33 34  1  0
 33 35  1  0
 34 36  1  0
 35 37  1  0
 37 43  1  1
 20 21  2  0
 21 22  1  0
M  CHG  3   2  -1  26  -1  41  -1
M  END
>  <COMPND>  (132) 
    udp_gluA.pdb 

>  <AUTHOR>  (132) 
    GENERATED BY OPEN BABEL 3.1.1

>  <MASTER>  (132) 
        0    0    0    0    0    0    0    0   56    0   56    0

>  <minimizedAffinity>  (132) 
-6.16612

>  <CNNscore>  (132) 
0.3849597573

>  <CNNaffinity>  (132) 
3.7762756348

>  <CNN_VS>  (132) 
1.4537141323

>  <CNNaffinity_variance>  (132) 
0.7820559740

$$$$
133
     RDKit          3D

 43 45  0  0  0  0  0  0  0  0999 V2000
   21.9861   72.2495   -4.0443 P   0  0  2  0  0  0  0  0  0  0  0  0
   21.2214   73.2589   -3.0367 O   0  0  0  0  0  0  0  0  0  0  0  0
   23.2743   72.7728   -4.6085 O   0  0  0  0  0  0  0  0  0  0  0  0
   20.8538   71.8521   -5.1296 O   0  0  0  0  0  0  0  0  0  0  0  0
   20.8012   72.5733   -6.3468 C   0  0  0  0  0  0  0  0  0  0  0  0
   19.2695   70.7573   -6.7124 O   0  0  0  0  0  0  0  0  0  0  0  0
   18.9826   71.8072   -9.5065 O   0  0  0  0  0  0  0  0  0  0  0  0
   16.7314   72.7426   -8.2844 O   0  0  0  0  0  0  0  0  0  0  0  0
   19.1532   72.5254   -8.2844 C   0  0  1  0  0  0  0  0  0  0  0  0
   17.8695   72.5070   -7.4819 C   0  0  2  0  0  0  0  0  0  0  0  0
   20.0956   71.7244   -7.3964 C   0  0  1  0  0  0  0  0  0  0  0  0
   17.8879   71.1081   -6.8896 C   0  0  2  0  0  0  0  0  0  0  0  0
   18.3841   72.2997  -10.0905 H   0  0  0  0  0  0  0  0  0  0  0  0
   16.7663   73.6459   -8.6376 H   0  0  0  0  0  0  0  0  0  0  0  0
   16.3145   68.9282   -6.0244 O   0  0  0  0  0  0  0  0  0  0  0  0
   15.3832   70.9639   -1.9954 O   0  0  0  0  0  0  0  0  0  0  0  0
   17.2228   71.0422   -5.6191 N   0  0  0  0  0  0  0  0  0  0  0  0
   15.8513   69.9446   -4.0190 N   0  0  0  0  0  0  0  0  0  0  0  0
   16.4566   69.9015   -5.2818 C   0  0  0  0  0  0  0  0  0  0  0  0
   17.3341   72.0979   -4.7224 C   0  0  0  0  0  0  0  0  0  0  0  0
   16.7515   72.1245   -3.5221 C   0  0  0  0  0  0  0  0  0  0  0  0
   15.9324   70.9720   -3.0930 C   0  0  0  0  0  0  0  0  0  0  0  0
   15.3110   69.1625   -3.7627 H   0  0  0  0  0  0  0  0  0  0  0  0
   22.1347   70.9018   -3.1642 O   0  0  0  0  0  0  0  0  0  0  0  0
   21.1255   70.2055   -2.1105 P   0  0  2  0  0  0  0  0  0  0  0  0
   21.4028   68.6248   -2.3219 O   0  0  0  0  0  0  0  0  0  0  0  0
   19.6888   70.6088   -2.2753 O   0  0  0  0  0  0  0  0  0  0  0  0
   21.7525   70.5387   -0.6619 O   0  0  0  0  0  0  0  0  0  0  0  0
   23.3295   72.1846   -0.0189 O   0  0  0  0  0  0  0  0  0  0  0  0
   24.2054   69.1122    2.6005 O   0  0  0  0  0  0  0  0  0  0  0  0
   23.6402   68.5467   -0.2094 O   0  0  0  0  0  0  0  0  0  0  0  0
   22.7431   71.4474    3.5272 O   0  0  0  0  0  0  0  0  0  0  0  0
   23.3690   69.9199    1.7723 C   0  0  2  0  0  0  0  0  0  0  0  0
   23.8579   69.8472    0.3255 C   0  0  2  0  0  0  0  0  0  0  0  0
   23.4421   71.3592    2.2871 C   0  0  1  0  0  0  0  0  0  0  0  0
   23.1346   70.8727   -0.5486 C   0  0  1  0  0  0  0  0  0  0  0  0
   22.8101   72.3366    1.3003 C   0  0  1  0  0  0  0  0  0  0  0  0
   24.1750   68.1928    2.2922 H   0  0  0  0  0  0  0  0  0  0  0  0
   24.0961   67.8909    0.3406 H   0  0  0  0  0  0  0  0  0  0  0  0
   23.1354   70.8301    4.1642 H   0  0  0  0  0  0  0  0  0  0  0  0
   23.8861   74.3134    0.6401 O   0  0  0  0  0  0  0  0  0  0  0  0
   22.8686   74.3146    2.6806 O   0  0  0  0  0  0  0  0  0  0  0  0
   23.1721   73.7450    1.6431 C   0  0  0  0  0  0  0  0  0  0  0  0
  1  4  1  0
  1 24  1  0
  1  2  1  1
  1  3  2  0
 25 28  1  0
 25 24  1  0
 25 26  1  6
 25 27  2  0
  6 11  1  0
  6 12  1  0
 29 36  1  0
 29 37  1  0
  9  7  1  6
  7 13  1  0
 10  8  1  6
  8 14  1  0
  4  5  1  0
 36 28  1  1
 33 30  1  1
 30 38  1  0
 34 31  1  6
 31 39  1  0
 35 32  1  1
 32 40  1  0
 41 43  1  0
 15 19  2  0
 42 43  2  0
 16 22  2  0
 12 17  1  1
 17 19  1  0
 17 20  1  0
 18 19  1  0
 18 22  1  0
 18 23  1  0
  9 10  1  0
  9 11  1  0
 10 12  1  0
 11  5  1  1
 33 34  1  0
 33 35  1  0
 34 36  1  0
 35 37  1  0
 37 43  1  1
 20 21  2  0
 21 22  1  0
M  CHG  3   2  -1  26  -1  41  -1
M  END
>  <COMPND>  (133) 
    udp_gluA.pdb 

>  <AUTHOR>  (133) 
    GENERATED BY OPEN BABEL 3.1.1

>  <MASTER>  (133) 
        0    0    0    0    0    0    0    0   56    0   56    0

>  <minimizedAffinity>  (133) 
-8.07329

>  <CNNscore>  (133) 
0.3848849535

>  <CNNaffinity>  (133) 
4.1400909424

>  <CNN_VS>  (133) 
1.5934586525

>  <CNNaffinity_variance>  (133) 
0.2373406589

$$$$
134
     RDKit          3D

 43 45  0  0  0  0  0  0  0  0999 V2000
   22.2426   73.0919   -4.4116 P   0  0  2  0  0  0  0  0  0  0  0  0
   22.0197   74.6482   -4.7949 O   0  0  0  0  0  0  0  0  0  0  0  0
   23.6768   72.6726   -4.2734 O   0  0  0  0  0  0  0  0  0  0  0  0
   21.3802   72.2909   -5.5218 O   0  0  0  0  0  0  0  0  0  0  0  0
   20.6654   73.0367   -6.4899 C   0  0  0  0  0  0  0  0  0  0  0  0
   19.3585   71.0375   -6.7605 O   0  0  0  0  0  0  0  0  0  0  0  0
   18.8725   71.9587   -9.5724 O   0  0  0  0  0  0  0  0  0  0  0  0
   16.5564   72.6502   -8.3101 O   0  0  0  0  0  0  0  0  0  0  0  0
   18.9857   72.7294   -8.3758 C   0  0  1  0  0  0  0  0  0  0  0  0
   17.7352   72.5795   -7.5356 C   0  0  2  0  0  0  0  0  0  0  0  0
   20.0418   72.0764   -7.4947 C   0  0  1  0  0  0  0  0  0  0  0  0
   17.9402   71.2121   -6.9062 C   0  0  2  0  0  0  0  0  0  0  0  0
   18.2032   72.3566  -10.1516 H   0  0  0  0  0  0  0  0  0  0  0  0
   16.4712   73.5399   -8.6886 H   0  0  0  0  0  0  0  0  0  0  0  0
   15.9731   69.3000   -6.2345 O   0  0  0  0  0  0  0  0  0  0  0  0
   15.6360   70.8929   -1.9226 O   0  0  0  0  0  0  0  0  0  0  0  0
   17.3215   71.1047   -5.6152 N   0  0  0  0  0  0  0  0  0  0  0  0
   15.8064   70.0958   -4.0879 N   0  0  0  0  0  0  0  0  0  0  0  0
   16.3438   70.1088   -5.3817 C   0  0  0  0  0  0  0  0  0  0  0  0
   17.6850   71.9778   -4.5971 C   0  0  0  0  0  0  0  0  0  0  0  0
   17.1639   71.9530   -3.3689 C   0  0  0  0  0  0  0  0  0  0  0  0
   16.1354   70.9435   -3.0425 C   0  0  0  0  0  0  0  0  0  0  0  0
   15.1223   69.4126   -3.9020 H   0  0  0  0  0  0  0  0  0  0  0  0
   21.3581   72.9184   -3.0698 O   0  0  0  0  0  0  0  0  0  0  0  0
   21.6102   73.4337   -1.5583 P   0  0  2  0  0  0  0  0  0  0  0  0
   20.1113   73.6485   -0.9860 O   0  0  0  0  0  0  0  0  0  0  0  0
   22.4894   74.6467   -1.4598 O   0  0  0  0  0  0  0  0  0  0  0  0
   22.1648   72.1392   -0.7716 O   0  0  0  0  0  0  0  0  0  0  0  0
   20.3496   70.6475   -1.0698 O   0  0  0  0  0  0  0  0  0  0  0  0
   23.2793   68.1256    0.3879 O   0  0  0  0  0  0  0  0  0  0  0  0
   22.9049   70.7833    1.5414 O   0  0  0  0  0  0  0  0  0  0  0  0
   22.5972   68.0903   -2.4378 O   0  0  0  0  0  0  0  0  0  0  0  0
   22.7639   69.2464   -0.3305 C   0  0  2  0  0  0  0  0  0  0  0  0
   22.0057   70.1644    0.6287 C   0  0  2  0  0  0  0  0  0  0  0  0
   21.8243   68.7199   -1.4176 C   0  0  1  0  0  0  0  0  0  0  0  0
   21.2478   71.2497   -0.1370 C   0  0  1  0  0  0  0  0  0  0  0  0
   21.0127   69.8485   -2.0470 C   0  0  1  0  0  0  0  0  0  0  0  0
   23.8793   68.4358    1.0844 H   0  0  0  0  0  0  0  0  0  0  0  0
   23.3894   70.1004    2.0306 H   0  0  0  0  0  0  0  0  0  0  0  0
   23.1187   67.3701   -2.0503 H   0  0  0  0  0  0  0  0  0  0  0  0
   20.1623   69.3757   -4.1812 O   0  0  0  0  0  0  0  0  0  0  0  0
   18.8461   68.8459   -2.3962 O   0  0  0  0  0  0  0  0  0  0  0  0
   19.8823   69.3015   -2.8564 C   0  0  0  0  0  0  0  0  0  0  0  0
  1  4  1  0
  1 24  1  0
  1  2  1  6
  1  3  2  0
 25 28  1  0
 25 24  1  0
 25 26  1  1
 25 27  2  0
  6 11  1  0
  6 12  1  0
 29 36  1  0
 29 37  1  0
  9  7  1  6
  7 13  1  0
 10  8  1  6
  8 14  1  0
  4  5  1  0
 36 28  1  6
 33 30  1  1
 30 38  1  0
 34 31  1  1
 31 39  1  0
 35 32  1  6
 32 40  1  0
 41 43  1  0
 15 19  2  0
 42 43  2  0
 16 22  2  0
 12 17  1  1
 17 19  1  0
 17 20  1  0
 18 19  1  0
 18 22  1  0
 18 23  1  0
  9 10  1  0
  9 11  1  0
 10 12  1  0
 11  5  1  1
 33 34  1  0
 33 35  1  0
 34 36  1  0
 35 37  1  0
 37 43  1  6
 20 21  2  0
 21 22  1  0
M  CHG  3   2  -1  26  -1  41  -1
M  END
>  <COMPND>  (134) 
    udp_gluA.pdb 

>  <AUTHOR>  (134) 
    GENERATED BY OPEN BABEL 3.1.1

>  <MASTER>  (134) 
        0    0    0    0    0    0    0    0   56    0   56    0

>  <minimizedAffinity>  (134) 
-8.03421

>  <CNNscore>  (134) 
0.3726064861

>  <CNNaffinity>  (134) 
3.8792946339

>  <CNN_VS>  (134) 
1.4454503059

>  <CNNaffinity_variance>  (134) 
0.8611849546

$$$$
135
     RDKit          3D

 43 45  0  0  0  0  0  0  0  0999 V2000
   18.6656   69.8716   -2.9849 P   0  0  2  0  0  0  0  0  0  0  0  0
   19.0791   70.0444   -4.5400 O   0  0  0  0  0  0  0  0  0  0  0  0
   18.3311   68.4687   -2.5705 O   0  0  0  0  0  0  0  0  0  0  0  0
   17.4934   70.9661   -2.7707 O   0  0  0  0  0  0  0  0  0  0  0  0
   16.6579   71.2856   -3.8681 C   0  0  0  0  0  0  0  0  0  0  0  0
   17.8541   72.9851   -5.0758 O   0  0  0  0  0  0  0  0  0  0  0  0
   15.4848   74.7515   -4.5679 O   0  0  0  0  0  0  0  0  0  0  0  0
   15.0950   73.9590   -7.1478 O   0  0  0  0  0  0  0  0  0  0  0  0
   15.5261   73.3493   -4.8338 C   0  0  1  0  0  0  0  0  0  0  0  0
   15.8270   73.1019   -6.2968 C   0  0  2  0  0  0  0  0  0  0  0  0
   16.7626   72.7783   -4.1532 C   0  0  1  0  0  0  0  0  0  0  0  0
   17.3236   73.3556   -6.3583 C   0  0  2  0  0  0  0  0  0  0  0  0
   14.7030   75.1386   -4.9928 H   0  0  0  0  0  0  0  0  0  0  0  0
   14.1485   73.7579   -7.0727 H   0  0  0  0  0  0  0  0  0  0  0  0
   19.2416   74.3673   -8.1677 O   0  0  0  0  0  0  0  0  0  0  0  0
   19.7397   70.2682  -10.2155 O   0  0  0  0  0  0  0  0  0  0  0  0
   17.9705   72.5747   -7.3744 N   0  0  0  0  0  0  0  0  0  0  0  0
   19.4871   72.3250   -9.1865 N   0  0  0  0  0  0  0  0  0  0  0  0
   18.9194   73.1794   -8.2322 C   0  0  0  0  0  0  0  0  0  0  0  0
   17.6648   71.2262   -7.5126 C   0  0  0  0  0  0  0  0  0  0  0  0
   18.2143   70.4244   -8.4269 C   0  0  0  0  0  0  0  0  0  0  0  0
   19.2147   70.9780   -9.3630 C   0  0  0  0  0  0  0  0  0  0  0  0
   20.1491   72.7238   -9.7965 H   0  0  0  0  0  0  0  0  0  0  0  0
   19.9198   70.5243   -2.2013 O   0  0  0  0  0  0  0  0  0  0  0  0
   21.4671   70.0656   -2.1062 P   0  0  2  0  0  0  0  0  0  0  0  0
   22.2104   71.0523   -3.1523 O   0  0  0  0  0  0  0  0  0  0  0  0
   21.6934   68.6044   -2.3668 O   0  0  0  0  0  0  0  0  0  0  0  0
   21.9550   70.5700   -0.6537 O   0  0  0  0  0  0  0  0  0  0  0  0
   23.4907   72.2015    0.1139 O   0  0  0  0  0  0  0  0  0  0  0  0
   24.1703   69.0985    2.7555 O   0  0  0  0  0  0  0  0  0  0  0  0
   23.7984   68.5642   -0.0924 O   0  0  0  0  0  0  0  0  0  0  0  0
   22.6573   71.4315    3.6032 O   0  0  0  0  0  0  0  0  0  0  0  0
   23.3966   69.9187    1.8799 C   0  0  2  0  0  0  0  0  0  0  0  0
   23.9841   69.8581    0.4697 C   0  0  2  0  0  0  0  0  0  0  0  0
   23.4400   71.3524    2.4134 C   0  0  1  0  0  0  0  0  0  0  0  0
   23.3274   70.8960   -0.4416 C   0  0  1  0  0  0  0  0  0  0  0  0
   22.8819   72.3428    1.3955 C   0  0  1  0  0  0  0  0  0  0  0  0
   24.1573   68.1824    2.4363 H   0  0  0  0  0  0  0  0  0  0  0  0
   24.2124   67.9007    0.4808 H   0  0  0  0  0  0  0  0  0  0  0  0
   23.0020   70.8059    4.2593 H   0  0  0  0  0  0  0  0  0  0  0  0
   22.4407   74.1697    2.7987 O   0  0  0  0  0  0  0  0  0  0  0  0
   24.0935   74.4241    1.2487 O   0  0  0  0  0  0  0  0  0  0  0  0
   23.2253   73.7459    1.7772 C   0  0  0  0  0  0  0  0  0  0  0  0
  1  4  1  0
  1 24  1  0
  1  2  1  6
  1  3  2  0
 25 28  1  0
 25 24  1  0
 25 26  1  6
 25 27  2  0
  6 11  1  0
  6 12  1  0
 29 36  1  0
 29 37  1  0
  9  7  1  6
  7 13  1  0
 10  8  1  6
  8 14  1  0
  4  5  1  0
 36 28  1  1
 33 30  1  1
 30 38  1  0
 34 31  1  6
 31 39  1  0
 35 32  1  1
 32 40  1  0
 41 43  1  0
 15 19  2  0
 42 43  2  0
 16 22  2  0
 12 17  1  6
 17 19  1  0
 17 20  1  0
 18 19  1  0
 18 22  1  0
 18 23  1  0
  9 10  1  0
  9 11  1  0
 10 12  1  0
 11  5  1  6
 33 34  1  0
 33 35  1  0
 34 36  1  0
 35 37  1  0
 37 43  1  1
 20 21  2  0
 21 22  1  0
M  CHG  3   2  -1  26  -1  41  -1
M  END
>  <COMPND>  (135) 
    udp_gluA.pdb 

>  <AUTHOR>  (135) 
    GENERATED BY OPEN BABEL 3.1.1

>  <MASTER>  (135) 
        0    0    0    0    0    0    0    0   56    0   56    0

>  <minimizedAffinity>  (135) 
-7.14262

>  <CNNscore>  (135) 
0.3675602973

>  <CNNaffinity>  (135) 
4.0849447250

>  <CNN_VS>  (135) 
1.5014635324

>  <CNNaffinity_variance>  (135) 
0.1493450701

$$$$
136
     RDKit          3D

 43 45  0  0  0  0  0  0  0  0999 V2000
   22.3563   72.2124   -2.9704 P   0  0  2  0  0  0  0  0  0  0  0  0
   23.6543   72.1691   -3.9359 O   0  0  0  0  0  0  0  0  0  0  0  0
   22.0384   73.5619   -2.3963 O   0  0  0  0  0  0  0  0  0  0  0  0
   22.6343   71.0381   -1.8927 O   0  0  0  0  0  0  0  0  0  0  0  0
   22.3186   71.2790   -0.5337 C   0  0  0  0  0  0  0  0  0  0  0  0
   24.2716   71.7823    0.7741 O   0  0  0  0  0  0  0  0  0  0  0  0
   23.8739   69.1022    2.0588 O   0  0  0  0  0  0  0  0  0  0  0  0
   22.8530   70.8128    3.9209 O   0  0  0  0  0  0  0  0  0  0  0  0
   22.8981   70.0449    1.6143 C   0  0  1  0  0  0  0  0  0  0  0  0
   22.8305   71.2186    2.5683 C   0  0  2  0  0  0  0  0  0  0  0  0
   23.4212   70.6980    0.3422 C   0  0  1  0  0  0  0  0  0  0  0  0
   24.0632   72.0151    2.1762 C   0  0  2  0  0  0  0  0  0  0  0  0
   23.5619   68.6718    2.8706 H   0  0  0  0  0  0  0  0  0  0  0  0
   22.0474   70.3099    4.1210 H   0  0  0  0  0  0  0  0  0  0  0  0
   26.1897   73.8203    2.6190 O   0  0  0  0  0  0  0  0  0  0  0  0
   23.3117   77.3995    3.0080 O   0  0  0  0  0  0  0  0  0  0  0  0
   23.8980   73.4241    2.3960 N   0  0  0  0  0  0  0  0  0  0  0  0
   24.7542   75.6010    2.8133 N   0  0  0  0  0  0  0  0  0  0  0  0
   25.0320   74.2431    2.6088 C   0  0  0  0  0  0  0  0  0  0  0  0
   22.6249   73.9812    2.3977 C   0  0  0  0  0  0  0  0  0  0  0  0
   22.3759   75.2775    2.5940 C   0  0  0  0  0  0  0  0  0  0  0  0
   23.5057   76.2015    2.8246 C   0  0  0  0  0  0  0  0  0  0  0  0
   25.5277   76.1908    2.9657 H   0  0  0  0  0  0  0  0  0  0  0  0
   21.1919   71.5847   -3.8995 O   0  0  0  0  0  0  0  0  0  0  0  0
   19.9391   70.6313   -3.5320 P   0  0  2  0  0  0  0  0  0  0  0  0
   19.1520   71.4758   -2.3973 O   0  0  0  0  0  0  0  0  0  0  0  0
   20.3246   69.2421   -3.1129 O   0  0  0  0  0  0  0  0  0  0  0  0
   18.9802   70.6978   -4.8276 O   0  0  0  0  0  0  0  0  0  0  0  0
   19.6618   72.3399   -6.3922 O   0  0  0  0  0  0  0  0  0  0  0  0
   16.0453   71.1211   -7.9744 O   0  0  0  0  0  0  0  0  0  0  0  0
   16.3401   71.5306   -5.0969 O   0  0  0  0  0  0  0  0  0  0  0  0
   18.5381   70.2363   -9.1805 O   0  0  0  0  0  0  0  0  0  0  0  0
   17.2745   70.9694   -7.2644 C   0  0  2  0  0  0  0  0  0  0  0  0
   17.2981   71.9259   -6.0719 C   0  0  2  0  0  0  0  0  0  0  0  0
   18.4196   71.2909   -8.2274 C   0  0  1  0  0  0  0  0  0  0  0  0
   18.6832   71.9589   -5.4244 C   0  0  1  0  0  0  0  0  0  0  0  0
   19.7469   71.4311   -7.4876 C   0  0  1  0  0  0  0  0  0  0  0  0
   15.3030   70.9218   -7.3823 H   0  0  0  0  0  0  0  0  0  0  0  0
   15.4589   71.5072   -5.5010 H   0  0  0  0  0  0  0  0  0  0  0  0
   17.6998   70.1366   -9.6582 H   0  0  0  0  0  0  0  0  0  0  0  0
   21.7300   72.6765   -7.6204 O   0  0  0  0  0  0  0  0  0  0  0  0
   20.7774   72.0248   -9.5869 O   0  0  0  0  0  0  0  0  0  0  0  0
   20.7797   72.0595   -8.3655 C   0  0  0  0  0  0  0  0  0  0  0  0
  1  4  1  0
  1 24  1  0
  1  2  1  6
  1  3  2  0
 25 28  1  0
 25 24  1  0
 25 26  1  1
 25 27  2  0
  6 11  1  0
  6 12  1  0
 29 36  1  0
 29 37  1  0
  9  7  1  1
  7 13  1  0
 10  8  1  1
  8 14  1  0
  4  5  1  0
 36 28  1  6
 33 30  1  6
 30 38  1  0
 34 31  1  1
 31 39  1  0
 35 32  1  6
 32 40  1  0
 41 43  1  0
 15 19  2  0
 42 43  2  0
 16 22  2  0
 12 17  1  6
 17 19  1  0
 17 20  1  0
 18 19  1  0
 18 22  1  0
 18 23  1  0
  9 10  1  0
  9 11  1  0
 10 12  1  0
 11  5  1  6
 33 34  1  0
 33 35  1  0
 34 36  1  0
 35 37  1  0
 37 43  1  6
 20 21  2  0
 21 22  1  0
M  CHG  3   2  -1  26  -1  41  -1
M  END
>  <COMPND>  (136) 
    udp_gluA.pdb 

>  <AUTHOR>  (136) 
    GENERATED BY OPEN BABEL 3.1.1

>  <MASTER>  (136) 
        0    0    0    0    0    0    0    0   56    0   56    0

>  <minimizedAffinity>  (136) 
-7.25927

>  <CNNscore>  (136) 
0.3399143815

>  <CNNaffinity>  (136) 
4.0393352509

>  <CNN_VS>  (136) 
1.3730281591

>  <CNNaffinity_variance>  (136) 
0.0651084408

$$$$
137
     RDKit          3D

 43 45  0  0  0  0  0  0  0  0999 V2000
   22.3064   72.9780   -3.8904 P   0  0  2  0  0  0  0  0  0  0  0  0
   23.8060   72.3798   -4.0006 O   0  0  0  0  0  0  0  0  0  0  0  0
   22.2236   74.4756   -3.8435 O   0  0  0  0  0  0  0  0  0  0  0  0
   21.6696   72.1991   -2.6232 O   0  0  0  0  0  0  0  0  0  0  0  0
   22.4494   72.0676   -1.4489 C   0  0  0  0  0  0  0  0  0  0  0  0
   21.8853   69.7508   -1.1455 O   0  0  0  0  0  0  0  0  0  0  0  0
   21.5344   70.4088    1.7589 O   0  0  0  0  0  0  0  0  0  0  0  0
   23.9975   69.2399    1.7061 O   0  0  0  0  0  0  0  0  0  0  0  0
   22.4821   70.9243    0.8237 C   0  0  1  0  0  0  0  0  0  0  0  0
   23.5495   69.8900    0.5351 C   0  0  2  0  0  0  0  0  0  0  0  0
   21.7888   71.0516   -0.5259 C   0  0  1  0  0  0  0  0  0  0  0  0
   22.8290   68.9501   -0.4163 C   0  0  2  0  0  0  0  0  0  0  0  0
   21.9544   70.3186    2.6290 H   0  0  0  0  0  0  0  0  0  0  0  0
   24.4495   69.8802    2.2786 H   0  0  0  0  0  0  0  0  0  0  0  0
   23.2607   66.1635   -0.5744 O   0  0  0  0  0  0  0  0  0  0  0  0
   26.2829   66.6430   -4.0212 O   0  0  0  0  0  0  0  0  0  0  0  0
   23.7232   68.3198   -1.3458 N   0  0  0  0  0  0  0  0  0  0  0  0
   24.7663   66.4051   -2.2903 N   0  0  0  0  0  0  0  0  0  0  0  0
   23.8675   66.9122   -1.3426 C   0  0  0  0  0  0  0  0  0  0  0  0
   24.4439   69.0929   -2.2479 C   0  0  0  0  0  0  0  0  0  0  0  0
   25.2968   68.5951   -3.1454 C   0  0  0  0  0  0  0  0  0  0  0  0
   25.5061   67.1337   -3.2075 C   0  0  0  0  0  0  0  0  0  0  0  0
   24.8851   65.4278   -2.3058 H   0  0  0  0  0  0  0  0  0  0  0  0
   21.5521   72.3010   -5.1496 O   0  0  0  0  0  0  0  0  0  0  0  0
   20.0173   72.4025   -5.6473 P   0  0  2  0  0  0  0  0  0  0  0  0
   20.1327   72.1894   -7.2478 O   0  0  0  0  0  0  0  0  0  0  0  0
   19.3206   73.6687   -5.2407 O   0  0  0  0  0  0  0  0  0  0  0  0
   19.3212   71.0517   -5.1058 O   0  0  0  0  0  0  0  0  0  0  0  0
   17.7995   71.4917   -3.3452 O   0  0  0  0  0  0  0  0  0  0  0  0
   17.8135   67.3613   -3.4318 O   0  0  0  0  0  0  0  0  0  0  0  0
   20.3075   68.8568   -3.7110 O   0  0  0  0  0  0  0  0  0  0  0  0
   15.5636   68.8363   -4.5333 O   0  0  0  0  0  0  0  0  0  0  0  0
   17.9030   68.6765   -3.9796 C   0  0  2  0  0  0  0  0  0  0  0  0
   19.0625   69.4264   -3.3234 C   0  0  2  0  0  0  0  0  0  0  0  0
   16.5803   69.3949   -3.7035 C   0  0  1  0  0  0  0  0  0  0  0  0
   19.0484   70.9051   -3.7134 C   0  0  1  0  0  0  0  0  0  0  0  0
   16.6851   70.8883   -3.9989 C   0  0  1  0  0  0  0  0  0  0  0  0
   18.6431   66.8856   -3.5953 H   0  0  0  0  0  0  0  0  0  0  0  0
   20.3233   67.9184   -3.4668 H   0  0  0  0  0  0  0  0  0  0  0  0
   15.4868   67.8859   -4.3553 H   0  0  0  0  0  0  0  0  0  0  0  0
   15.1029   71.0410   -2.2741 O   0  0  0  0  0  0  0  0  0  0  0  0
   15.0079   72.6207   -3.9156 O   0  0  0  0  0  0  0  0  0  0  0  0
   15.5196   71.6258   -3.4245 C   0  0  0  0  0  0  0  0  0  0  0  0
  1  4  1  0
  1 24  1  0
  1  2  1  6
  1  3  2  0
 25 28  1  0
 25 24  1  0
 25 26  1  6
 25 27  2  0
  6 11  1  0
  6 12  1  0
 29 36  1  0
 29 37  1  0
  9  7  1  1
  7 13  1  0
 10  8  1  1
  8 14  1  0
  4  5  1  0
 36 28  1  6
 33 30  1  1
 30 38  1  0
 34 31  1  6
 31 39  1  0
 35 32  1  6
 32 40  1  0
 41 43  1  0
 15 19  2  0
 42 43  2  0
 16 22  2  0
 12 17  1  6
 17 19  1  0
 17 20  1  0
 18 19  1  0
 18 22  1  0
 18 23  1  0
  9 10  1  0
  9 11  1  0
 10 12  1  0
 11  5  1  6
 33 34  1  0
 33 35  1  0
 34 36  1  0
 35 37  1  0
 37 43  1  1
 20 21  2  0
 21 22  1  0
M  CHG  3   2  -1  26  -1  41  -1
M  END
>  <COMPND>  (137) 
    udp_gluA.pdb 

>  <AUTHOR>  (137) 
    GENERATED BY OPEN BABEL 3.1.1

>  <MASTER>  (137) 
        0    0    0    0    0    0    0    0   56    0   56    0

>  <minimizedAffinity>  (137) 
-8.62169

>  <CNNscore>  (137) 
0.3196346462

>  <CNNaffinity>  (137) 
4.1532831192

>  <CNN_VS>  (137) 
1.3275331259

>  <CNNaffinity_variance>  (137) 
0.9315495491

$$$$
138
     RDKit          3D

 43 45  0  0  0  0  0  0  0  0999 V2000
   22.6739   72.7515   -3.9701 P   0  0  2  0  0  0  0  0  0  0  0  0
   23.2964   73.9507   -4.8609 O   0  0  0  0  0  0  0  0  0  0  0  0
   23.6394   71.6590   -3.6151 O   0  0  0  0  0  0  0  0  0  0  0  0
   21.3647   72.2896   -4.8010 O   0  0  0  0  0  0  0  0  0  0  0  0
   20.9856   73.0422   -5.9388 C   0  0  0  0  0  0  0  0  0  0  0  0
   19.7327   71.0407   -6.3881 O   0  0  0  0  0  0  0  0  0  0  0  0
   19.5896   71.9906   -9.2287 O   0  0  0  0  0  0  0  0  0  0  0  0
   17.1326   72.6586   -8.2525 O   0  0  0  0  0  0  0  0  0  0  0  0
   19.5512   72.7486   -8.0193 C   0  0  1  0  0  0  0  0  0  0  0  0
   18.2081   72.5843   -7.3401 C   0  0  2  0  0  0  0  0  0  0  0  0
   20.4951   72.0905   -7.0222 C   0  0  1  0  0  0  0  0  0  0  0  0
   18.3420   71.2109   -6.7046 C   0  0  2  0  0  0  0  0  0  0  0  0
   18.9941   72.3920   -9.8813 H   0  0  0  0  0  0  0  0  0  0  0  0
   17.0895   73.5519   -8.6294 H   0  0  0  0  0  0  0  0  0  0  0  0
   16.2391   69.3609   -6.3414 O   0  0  0  0  0  0  0  0  0  0  0  0
   15.4508   70.8234   -2.0422 O   0  0  0  0  0  0  0  0  0  0  0  0
   17.5705   71.0868   -5.5004 N   0  0  0  0  0  0  0  0  0  0  0  0
   15.8478   70.0918   -4.2009 N   0  0  0  0  0  0  0  0  0  0  0  0
   16.5356   70.1251   -5.4211 C   0  0  0  0  0  0  0  0  0  0  0  0
   17.8425   71.9100   -4.4145 C   0  0  0  0  0  0  0  0  0  0  0  0
   17.1784   71.8664   -3.2578 C   0  0  0  0  0  0  0  0  0  0  0  0
   16.0814   70.8902   -3.0929 C   0  0  0  0  0  0  0  0  0  0  0  0
   15.1215   69.4317   -4.1226 H   0  0  0  0  0  0  0  0  0  0  0  0
   22.0433   73.5310   -2.7022 O   0  0  0  0  0  0  0  0  0  0  0  0
   22.7491   74.2176   -1.4200 P   0  0  2  0  0  0  0  0  0  0  0  0
   21.5848   75.1706   -0.8230 O   0  0  0  0  0  0  0  0  0  0  0  0
   24.0327   74.9310   -1.7322 O   0  0  0  0  0  0  0  0  0  0  0  0
   22.8910   73.0247   -0.3433 O   0  0  0  0  0  0  0  0  0  0  0  0
   21.6323   71.0332   -0.1004 O   0  0  0  0  0  0  0  0  0  0  0  0
   22.6294   71.8808    3.8182 O   0  0  0  0  0  0  0  0  0  0  0  0
   21.7869   74.0148    2.0098 O   0  0  0  0  0  0  0  0  0  0  0  0
   24.0114   69.7615    2.3866 O   0  0  0  0  0  0  0  0  0  0  0  0
   22.8152   71.8529    2.4031 C   0  0  2  0  0  0  0  0  0  0  0  0
   21.6842   72.6249    1.7231 C   0  0  2  0  0  0  0  0  0  0  0  0
   22.8064   70.3900    1.9537 C   0  0  1  0  0  0  0  0  0  0  0  0
   21.7196   72.4250    0.2073 C   0  0  1  0  0  0  0  0  0  0  0  0
   22.7143   70.2744    0.4349 C   0  0  1  0  0  0  0  0  0  0  0  0
   22.6314   72.8006    4.1267 H   0  0  0  0  0  0  0  0  0  0  0  0
   21.7654   74.1489    2.9699 H   0  0  0  0  0  0  0  0  0  0  0  0
   24.0823   69.8283    3.3517 H   0  0  0  0  0  0  0  0  0  0  0  0
   21.0339   68.7178   -0.0699 O   0  0  0  0  0  0  0  0  0  0  0  0
   23.1926   67.9932   -0.1886 O   0  0  0  0  0  0  0  0  0  0  0  0
   22.3770   68.8766    0.0289 C   0  0  0  0  0  0  0  0  0  0  0  0
  1  4  1  0
  1 24  1  0
  1  2  1  6
  1  3  2  0
 25 28  1  0
 25 24  1  0
 25 26  1  1
 25 27  2  0
  6 11  1  0
  6 12  1  0
 29 36  1  0
 29 37  1  0
  9  7  1  6
  7 13  1  0
 10  8  1  6
  8 14  1  0
  4  5  1  0
 36 28  1  1
 33 30  1  1
 30 38  1  0
 34 31  1  6
 31 39  1  0
 35 32  1  6
 32 40  1  0
 41 43  1  0
 15 19  2  0
 42 43  2  0
 16 22  2  0
 12 17  1  1
 17 19  1  0
 17 20  1  0
 18 19  1  0
 18 22  1  0
 18 23  1  0
  9 10  1  0
  9 11  1  0
 10 12  1  0
 11  5  1  1
 33 34  1  0
 33 35  1  0
 34 36  1  0
 35 37  1  0
 37 43  1  1
 20 21  2  0
 21 22  1  0
M  CHG  3   2  -1  26  -1  41  -1
M  END
>  <COMPND>  (138) 
    udp_gluA.pdb 

>  <AUTHOR>  (138) 
    GENERATED BY OPEN BABEL 3.1.1

>  <MASTER>  (138) 
        0    0    0    0    0    0    0    0   56    0   56    0

>  <minimizedAffinity>  (138) 
-8.21228

>  <CNNscore>  (138) 
0.3046132624

>  <CNNaffinity>  (138) 
3.9172425270

>  <CNN_VS>  (138) 
1.1932439804

>  <CNNaffinity_variance>  (138) 
0.4854534268

$$$$
139
     RDKit          3D

 43 45  0  0  0  0  0  0  0  0999 V2000
   22.7682   73.8944   -4.9681 P   0  0  2  0  0  0  0  0  0  0  0  0
   23.7928   72.7926   -4.3722 O   0  0  0  0  0  0  0  0  0  0  0  0
   23.3621   75.2532   -5.1974 O   0  0  0  0  0  0  0  0  0  0  0  0
   21.5075   73.8404   -3.9554 O   0  0  0  0  0  0  0  0  0  0  0  0
   21.0214   72.5747   -3.5477 C   0  0  0  0  0  0  0  0  0  0  0  0
   20.7484   71.2841   -1.5384 O   0  0  0  0  0  0  0  0  0  0  0  0
   21.0196   73.8773   -0.0575 O   0  0  0  0  0  0  0  0  0  0  0  0
   23.4973   72.7722    0.2175 O   0  0  0  0  0  0  0  0  0  0  0  0
   21.6772   73.4437   -1.2483 C   0  0  1  0  0  0  0  0  0  0  0  0
   22.7362   72.4137   -0.9168 C   0  0  2  0  0  0  0  0  0  0  0  0
   20.6832   72.6277   -2.0634 C   0  0  1  0  0  0  0  0  0  0  0  0
   21.9014   71.1648   -0.6900 C   0  0  2  0  0  0  0  0  0  0  0  0
   21.6351   74.4009    0.4798 H   0  0  0  0  0  0  0  0  0  0  0  0
   24.0109   73.5724    0.0225 H   0  0  0  0  0  0  0  0  0  0  0  0
   21.3074   68.6118    0.3616 O   0  0  0  0  0  0  0  0  0  0  0  0
   24.6836   66.6249   -2.0667 O   0  0  0  0  0  0  0  0  0  0  0  0
   22.6093   69.9632   -1.0303 N   0  0  0  0  0  0  0  0  0  0  0  0
   22.9902   67.6248   -0.8481 N   0  0  0  0  0  0  0  0  0  0  0  0
   22.2312   68.7316   -0.4453 C   0  0  0  0  0  0  0  0  0  0  0  0
   23.6632   70.0116   -1.9346 C   0  0  0  0  0  0  0  0  0  0  0  0
   24.3772   68.9481   -2.3089 C   0  0  0  0  0  0  0  0  0  0  0  0
   24.0474   67.6234   -1.7435 C   0  0  0  0  0  0  0  0  0  0  0  0
   22.7469   66.7566   -0.4526 H   0  0  0  0  0  0  0  0  0  0  0  0
   22.1965   73.1762   -6.2986 O   0  0  0  0  0  0  0  0  0  0  0  0
   20.9938   73.5919   -7.2957 P   0  0  2  0  0  0  0  0  0  0  0  0
   21.4198   72.9021   -8.6968 O   0  0  0  0  0  0  0  0  0  0  0  0
   20.7498   75.0706   -7.3834 O   0  0  0  0  0  0  0  0  0  0  0  0
   19.7260   72.7331   -6.7881 O   0  0  0  0  0  0  0  0  0  0  0  0
   19.5445   70.5365   -5.9213 O   0  0  0  0  0  0  0  0  0  0  0  0
   16.0434   70.8773   -8.0879 O   0  0  0  0  0  0  0  0  0  0  0  0
   18.5592   71.8947   -9.1696 O   0  0  0  0  0  0  0  0  0  0  0  0
   15.9873   71.0555   -5.1868 O   0  0  0  0  0  0  0  0  0  0  0  0
   17.1312   71.3407   -7.2880 C   0  0  2  0  0  0  0  0  0  0  0  0
   18.4502   71.0727   -8.0133 C   0  0  2  0  0  0  0  0  0  0  0  0
   17.0935   70.5877   -5.9563 C   0  0  1  0  0  0  0  0  0  0  0  0
   19.6437   71.3427   -7.0959 C   0  0  1  0  0  0  0  0  0  0  0  0
   18.3732   70.8085   -5.1550 C   0  0  1  0  0  0  0  0  0  0  0  0
   16.0471   71.3420   -8.9396 H   0  0  0  0  0  0  0  0  0  0  0  0
   17.8049   71.7287   -9.7560 H   0  0  0  0  0  0  0  0  0  0  0  0
   15.1664   70.9208   -5.6857 H   0  0  0  0  0  0  0  0  0  0  0  0
   19.6673   69.1882   -4.0588 O   0  0  0  0  0  0  0  0  0  0  0  0
   17.6012   69.6256   -3.1990 O   0  0  0  0  0  0  0  0  0  0  0  0
   18.4718   69.8278   -4.0321 C   0  0  0  0  0  0  0  0  0  0  0  0
  1  4  1  0
  1 24  1  0
  1  2  1  1
  1  3  2  0
 25 28  1  0
 25 24  1  0
 25 26  1  6
 25 27  2  0
  6 11  1  0
  6 12  1  0
 29 36  1  0
 29 37  1  0
  9  7  1  1
  7 13  1  0
 10  8  1  1
  8 14  1  0
  4  5  1  0
 36 28  1  1
 33 30  1  6
 30 38  1  0
 34 31  1  6
 31 39  1  0
 35 32  1  1
 32 40  1  0
 41 43  1  0
 15 19  2  0
 42 43  2  0
 16 22  2  0
 12 17  1  6
 17 19  1  0
 17 20  1  0
 18 19  1  0
 18 22  1  0
 18 23  1  0
  9 10  1  0
  9 11  1  0
 10 12  1  0
 11  5  1  6
 33 34  1  0
 33 35  1  0
 34 36  1  0
 35 37  1  0
 37 43  1  1
 20 21  2  0
 21 22  1  0
M  CHG  3   2  -1  26  -1  41  -1
M  END
>  <COMPND>  (139) 
    udp_gluA.pdb 

>  <AUTHOR>  (139) 
    GENERATED BY OPEN BABEL 3.1.1

>  <MASTER>  (139) 
        0    0    0    0    0    0    0    0   56    0   56    0

>  <minimizedAffinity>  (139) 
-8.11615

>  <CNNscore>  (139) 
0.3015720248

>  <CNNaffinity>  (139) 
4.1844239235

>  <CNN_VS>  (139) 
1.2619051933

>  <CNNaffinity_variance>  (139) 
0.4254355431

$$$$
140
     RDKit          3D

 43 45  0  0  0  0  0  0  0  0999 V2000
   22.1950   73.8263   -4.8564 P   0  0  2  0  0  0  0  0  0  0  0  0
   22.7652   73.9742   -6.3637 O   0  0  0  0  0  0  0  0  0  0  0  0
   22.3461   75.0486   -3.9991 O   0  0  0  0  0  0  0  0  0  0  0  0
   22.9099   72.4855   -4.3004 O   0  0  0  0  0  0  0  0  0  0  0  0
   22.8642   72.2217   -2.9101 C   0  0  0  0  0  0  0  0  0  0  0  0
   23.5460   70.4905   -1.3884 O   0  0  0  0  0  0  0  0  0  0  0  0
   21.7965   68.6534   -2.9872 O   0  0  0  0  0  0  0  0  0  0  0  0
   20.2493   69.2050   -0.8105 O   0  0  0  0  0  0  0  0  0  0  0  0
   21.5998   70.0285   -2.6572 C   0  0  1  0  0  0  0  0  0  0  0  0
   21.2063   70.1671   -1.2018 C   0  0  2  0  0  0  0  0  0  0  0  0
   22.9572   70.7177   -2.6872 C   0  0  1  0  0  0  0  0  0  0  0  0
   22.5394   69.9866   -0.4960 C   0  0  2  0  0  0  0  0  0  0  0  0
   20.9429   68.1922   -2.9745 H   0  0  0  0  0  0  0  0  0  0  0  0
   19.4187   69.3627   -1.2872 H   0  0  0  0  0  0  0  0  0  0  0  0
   23.7714   69.0190    1.8540 O   0  0  0  0  0  0  0  0  0  0  0  0
   22.7390   72.8541    4.1928 O   0  0  0  0  0  0  0  0  0  0  0  0
   22.6070   70.7115    0.7412 N   0  0  0  0  0  0  0  0  0  0  0  0
   23.2551   70.9296    3.0169 N   0  0  0  0  0  0  0  0  0  0  0  0
   23.2488   70.1351    1.8628 C   0  0  0  0  0  0  0  0  0  0  0  0
   22.0437   71.9784    0.8345 C   0  0  0  0  0  0  0  0  0  0  0  0
   22.0578   72.7236    1.9413 C   0  0  0  0  0  0  0  0  0  0  0  0
   22.7078   72.1945    3.1583 C   0  0  0  0  0  0  0  0  0  0  0  0
   23.6944   70.5487    3.8114 H   0  0  0  0  0  0  0  0  0  0  0  0
   20.6674   73.3530   -5.0910 O   0  0  0  0  0  0  0  0  0  0  0  0
   19.3480   73.5318   -4.1740 P   0  0  2  0  0  0  0  0  0  0  0  0
   18.5389   74.7202   -4.9178 O   0  0  0  0  0  0  0  0  0  0  0  0
   19.6367   73.7935   -2.7241 O   0  0  0  0  0  0  0  0  0  0  0  0
   18.4724   72.2061   -4.4536 O   0  0  0  0  0  0  0  0  0  0  0  0
   18.8039   69.8683   -4.6392 O   0  0  0  0  0  0  0  0  0  0  0  0
   16.4651   70.6515   -7.9535 O   0  0  0  0  0  0  0  0  0  0  0  0
   18.6432   72.4543   -7.2187 O   0  0  0  0  0  0  0  0  0  0  0  0
   15.2984   69.3875   -5.6100 O   0  0  0  0  0  0  0  0  0  0  0  0
   16.9380   70.8360   -6.6192 C   0  0  2  0  0  0  0  0  0  0  0  0
   18.4299   71.1691   -6.6465 C   0  0  2  0  0  0  0  0  0  0  0  0
   16.6968   69.5363   -5.8481 C   0  0  1  0  0  0  0  0  0  0  0  0
   19.0212   71.1473   -5.2363 C   0  0  1  0  0  0  0  0  0  0  0  0
   17.4222   69.5423   -4.5056 C   0  0  1  0  0  0  0  0  0  0  0  0
   16.6080   71.4648   -8.4628 H   0  0  0  0  0  0  0  0  0  0  0  0
   18.2703   72.4753   -8.1135 H   0  0  0  0  0  0  0  0  0  0  0  0
   14.8250   69.3823   -6.4566 H   0  0  0  0  0  0  0  0  0  0  0  0
   18.3603   68.1061   -2.9060 O   0  0  0  0  0  0  0  0  0  0  0  0
   16.7679   67.2307   -4.2833 O   0  0  0  0  0  0  0  0  0  0  0  0
   17.4569   68.1703   -3.9152 C   0  0  0  0  0  0  0  0  0  0  0  0
  1  4  1  0
  1 24  1  0
  1  2  1  6
  1  3  2  0
 25 28  1  0
 25 24  1  0
 25 26  1  6
 25 27  2  0
  6 11  1  0
  6 12  1  0
 29 36  1  0
 29 37  1  0
  9  7  1  1
  7 13  1  0
 10  8  1  1
  8 14  1  0
  4  5  1  0
 36 28  1  1
 33 30  1  6
 30 38  1  0
 34 31  1  1
 31 39  1  0
 35 32  1  1
 32 40  1  0
 41 43  1  0
 15 19  2  0
 42 43  2  0
 16 22  2  0
 12 17  1  1
 17 19  1  0
 17 20  1  0
 18 19  1  0
 18 22  1  0
 18 23  1  0
  9 10  1  0
  9 11  1  0
 10 12  1  0
 11  5  1  1
 33 34  1  0
 33 35  1  0
 34 36  1  0
 35 37  1  0
 37 43  1  6
 20 21  2  0
 21 22  1  0
M  CHG  3   2  -1  26  -1  41  -1
M  END
>  <COMPND>  (140) 
    udp_gluA.pdb 

>  <AUTHOR>  (140) 
    GENERATED BY OPEN BABEL 3.1.1

>  <MASTER>  (140) 
        0    0    0    0    0    0    0    0   56    0   56    0

>  <minimizedAffinity>  (140) 
-7.79384

>  <CNNscore>  (140) 
0.2856080532

>  <CNNaffinity>  (140) 
4.0561647415

>  <CNN_VS>  (140) 
1.1584733725

>  <CNNaffinity_variance>  (140) 
0.2629527450

$$$$
141
     RDKit          3D

 43 45  0  0  0  0  0  0  0  0999 V2000
   22.8511   73.3333   -3.3442 P   0  0  2  0  0  0  0  0  0  0  0  0
   22.7361   74.8501   -3.8964 O   0  0  0  0  0  0  0  0  0  0  0  0
   23.9147   72.5002   -3.9974 O   0  0  0  0  0  0  0  0  0  0  0  0
   21.3416   72.7623   -3.4598 O   0  0  0  0  0  0  0  0  0  0  0  0
   20.3778   73.5345   -4.1522 C   0  0  0  0  0  0  0  0  0  0  0  0
   18.2717   72.8009   -5.0488 O   0  0  0  0  0  0  0  0  0  0  0  0
   17.7859   71.5342   -2.3747 O   0  0  0  0  0  0  0  0  0  0  0  0
   18.5579   69.4145   -3.9067 O   0  0  0  0  0  0  0  0  0  0  0  0
   19.0063   71.6655   -3.1041 C   0  0  1  0  0  0  0  0  0  0  0  0
   19.0287   70.6963   -4.2671 C   0  0  2  0  0  0  0  0  0  0  0  0
   18.9874   73.0130   -3.8127 C   0  0  1  0  0  0  0  0  0  0  0  0
   18.1255   71.3896   -5.2728 C   0  0  2  0  0  0  0  0  0  0  0  0
   17.7748   70.6806   -1.9134 H   0  0  0  0  0  0  0  0  0  0  0  0
   19.1670   69.0149   -3.2654 H   0  0  0  0  0  0  0  0  0  0  0  0
   16.3004   70.5700   -7.2662 O   0  0  0  0  0  0  0  0  0  0  0  0
   19.6239   70.2760  -10.4460 O   0  0  0  0  0  0  0  0  0  0  0  0
   18.4869   71.0923   -6.6300 N   0  0  0  0  0  0  0  0  0  0  0  0
   17.9576   70.4233   -8.8477 N   0  0  0  0  0  0  0  0  0  0  0  0
   17.4932   70.6885   -7.5527 C   0  0  0  0  0  0  0  0  0  0  0  0
   19.8114   71.2033   -7.0352 C   0  0  0  0  0  0  0  0  0  0  0  0
   20.2389   70.9473   -8.2732 C   0  0  0  0  0  0  0  0  0  0  0  0
   19.2644   70.5189   -9.2980 C   0  0  0  0  0  0  0  0  0  0  0  0
   17.2844   70.1386   -9.5073 H   0  0  0  0  0  0  0  0  0  0  0  0
   23.0406   73.5399   -1.7523 O   0  0  0  0  0  0  0  0  0  0  0  0
   22.5704   72.6312   -0.5006 P   0  0  2  0  0  0  0  0  0  0  0  0
   23.3294   71.2249   -0.7587 O   0  0  0  0  0  0  0  0  0  0  0  0
   21.0813   72.5119   -0.3513 O   0  0  0  0  0  0  0  0  0  0  0  0
   23.3220   73.2714    0.7752 O   0  0  0  0  0  0  0  0  0  0  0  0
   25.1520   72.8042    2.2041 O   0  0  0  0  0  0  0  0  0  0  0  0
   22.1629   73.6686    4.9217 O   0  0  0  0  0  0  0  0  0  0  0  0
   21.5977   72.0300    2.5701 O   0  0  0  0  0  0  0  0  0  0  0  0
   24.2500   75.6181    4.3791 O   0  0  0  0  0  0  0  0  0  0  0  0
   22.8689   73.7698    3.6851 C   0  0  2  0  0  0  0  0  0  0  0  0
   22.9015   72.4028    3.0011 C   0  0  2  0  0  0  0  0  0  0  0  0
   24.2908   74.2464    3.9900 C   0  0  1  0  0  0  0  0  0  0  0  0
   23.8400   72.4175    1.7936 C   0  0  1  0  0  0  0  0  0  0  0  0
   25.1971   74.1123    2.7697 C   0  0  1  0  0  0  0  0  0  0  0  0
   21.2563   73.3672    4.7529 H   0  0  0  0  0  0  0  0  0  0  0  0
   20.9969   72.0189    3.3312 H   0  0  0  0  0  0  0  0  0  0  0  0
   23.6762   75.7172    5.1549 H   0  0  0  0  0  0  0  0  0  0  0  0
   27.3710   73.2386    2.6587 O   0  0  0  0  0  0  0  0  0  0  0  0
   27.0874   75.1771    3.8253 O   0  0  0  0  0  0  0  0  0  0  0  0
   26.6326   74.2616    3.1560 C   0  0  0  0  0  0  0  0  0  0  0  0
  1  4  1  0
  1 24  1  0
  1  2  1  6
  1  3  2  0
 25 28  1  0
 25 24  1  0
 25 26  1  6
 25 27  2  0
  6 11  1  0
  6 12  1  0
 29 36  1  0
 29 37  1  0
  9  7  1  6
  7 13  1  0
 10  8  1  1
  8 14  1  0
  4  5  1  0
 36 28  1  6
 33 30  1  1
 30 38  1  0
 34 31  1  6
 31 39  1  0
 35 32  1  6
 32 40  1  0
 41 43  1  0
 15 19  2  0
 42 43  2  0
 16 22  2  0
 12 17  1  6
 17 19  1  0
 17 20  1  0
 18 19  1  0
 18 22  1  0
 18 23  1  0
  9 10  1  0
  9 11  1  0
 10 12  1  0
 11  5  1  6
 33 34  1  0
 33 35  1  0
 34 36  1  0
 35 37  1  0
 37 43  1  1
 20 21  2  0
 21 22  1  0
M  CHG  3   2  -1  26  -1  41  -1
M  END
>  <COMPND>  (141) 
    udp_gluA.pdb 

>  <AUTHOR>  (141) 
    GENERATED BY OPEN BABEL 3.1.1

>  <MASTER>  (141) 
        0    0    0    0    0    0    0    0   56    0   56    0

>  <minimizedAffinity>  (141) 
-7.34111

>  <CNNscore>  (141) 
0.8972500563

>  <CNNaffinity>  (141) 
4.5510497093

>  <CNN_VS>  (141) 
4.0834298134

>  <CNNaffinity_variance>  (141) 
0.0124228476

$$$$
142
     RDKit          3D

 43 45  0  0  0  0  0  0  0  0999 V2000
   21.6217   69.6092   -1.3038 P   0  0  2  0  0  0  0  0  0  0  0  0
   23.1030   69.0652   -1.6625 O   0  0  0  0  0  0  0  0  0  0  0  0
   20.8359   68.7375   -0.3686 O   0  0  0  0  0  0  0  0  0  0  0  0
   20.9458   69.8776   -2.7491 O   0  0  0  0  0  0  0  0  0  0  0  0
   19.8256   69.0984   -3.1268 C   0  0  0  0  0  0  0  0  0  0  0  0
   18.5752   70.9483   -4.0167 O   0  0  0  0  0  0  0  0  0  0  0  0
   16.2239   69.8358   -2.5249 O   0  0  0  0  0  0  0  0  0  0  0  0
   15.7602   68.9983   -5.0783 O   0  0  0  0  0  0  0  0  0  0  0  0
   17.2827   69.1445   -3.1881 C   0  0  1  0  0  0  0  0  0  0  0  0
   17.0993   69.2211   -4.6890 C   0  0  2  0  0  0  0  0  0  0  0  0
   18.5644   69.9403   -2.9827 C   0  0  1  0  0  0  0  0  0  0  0  0
   17.5692   70.6336   -4.9925 C   0  0  2  0  0  0  0  0  0  0  0  0
   15.3943   69.3461   -2.6422 H   0  0  0  0  0  0  0  0  0  0  0  0
   15.5089   68.0855   -4.8643 H   0  0  0  0  0  0  0  0  0  0  0  0
   16.0687   70.6674   -7.3849 O   0  0  0  0  0  0  0  0  0  0  0  0
   19.8601   71.0902   -9.9715 O   0  0  0  0  0  0  0  0  0  0  0  0
   18.1387   70.7515   -6.3050 N   0  0  0  0  0  0  0  0  0  0  0  0
   17.9585   70.8769   -8.6710 N   0  0  0  0  0  0  0  0  0  0  0  0
   17.2964   70.7582   -7.4419 C   0  0  0  0  0  0  0  0  0  0  0  0
   19.5157   70.8605   -6.4563 C   0  0  0  0  0  0  0  0  0  0  0  0
   20.1322   70.9732   -7.6344 C   0  0  0  0  0  0  0  0  0  0  0  0
   19.3249   70.9874   -8.8719 C   0  0  0  0  0  0  0  0  0  0  0  0
   17.3932   70.8819   -9.4770 H   0  0  0  0  0  0  0  0  0  0  0  0
   21.9069   71.1020   -0.7531 O   0  0  0  0  0  0  0  0  0  0  0  0
   22.3817   72.4435   -1.5202 P   0  0  2  0  0  0  0  0  0  0  0  0
   21.0007   73.2640   -1.7197 O   0  0  0  0  0  0  0  0  0  0  0  0
   23.1399   72.1906   -2.7911 O   0  0  0  0  0  0  0  0  0  0  0  0
   23.1973   73.2829   -0.4099 O   0  0  0  0  0  0  0  0  0  0  0  0
   22.6818   73.9665    1.7983 O   0  0  0  0  0  0  0  0  0  0  0  0
   24.7981   77.2203    0.3834 O   0  0  0  0  0  0  0  0  0  0  0  0
   22.8237   75.8885   -1.3085 O   0  0  0  0  0  0  0  0  0  0  0  0
   26.0535   75.3504    2.2214 O   0  0  0  0  0  0  0  0  0  0  0  0
   24.4486   75.8405    0.4925 C   0  0  2  0  0  0  0  0  0  0  0  0
   22.9877   75.6488    0.0844 C   0  0  2  0  0  0  0  0  0  0  0  0
   24.6551   75.4140    1.9476 C   0  0  1  0  0  0  0  0  0  0  0  0
   22.5114   74.2314    0.4054 C   0  0  1  0  0  0  0  0  0  0  0  0
   24.0422   74.0431    2.2187 C   0  0  1  0  0  0  0  0  0  0  0  0
   24.6747   77.5138   -0.5331 H   0  0  0  0  0  0  0  0  0  0  0  0
   23.1243   76.7860   -1.5193 H   0  0  0  0  0  0  0  0  0  0  0  0
   26.4557   76.2168    2.0526 H   0  0  0  0  0  0  0  0  0  0  0  0
   23.0105   72.8453    3.9515 O   0  0  0  0  0  0  0  0  0  0  0  0
   24.6376   74.3307    4.5391 O   0  0  0  0  0  0  0  0  0  0  0  0
   23.9547   73.7821    3.6872 C   0  0  0  0  0  0  0  0  0  0  0  0
  1  4  1  0
  1 24  1  0
  1  2  1  6
  1  3  2  0
 25 28  1  0
 25 24  1  0
 25 26  1  6
 25 27  2  0
  6 11  1  0
  6 12  1  0
 29 36  1  0
 29 37  1  0
  9  7  1  1
  7 13  1  0
 10  8  1  1
  8 14  1  0
  4  5  1  0
 36 28  1  6
 33 30  1  1
 30 38  1  0
 34 31  1  6
 31 39  1  0
 35 32  1  6
 32 40  1  0
 41 43  1  0
 15 19  2  0
 42 43  2  0
 16 22  2  0
 12 17  1  6
 17 19  1  0
 17 20  1  0
 18 19  1  0
 18 22  1  0
 18 23  1  0
  9 10  1  0
  9 11  1  0
 10 12  1  0
 11  5  1  6
 33 34  1  0
 33 35  1  0
 34 36  1  0
 35 37  1  0
 37 43  1  1
 20 21  2  0
 21 22  1  0
M  CHG  3   2  -1  26  -1  41  -1
M  END
>  <COMPND>  (142) 
    udp_gluA.pdb 

>  <AUTHOR>  (142) 
    GENERATED BY OPEN BABEL 3.1.1

>  <MASTER>  (142) 
        0    0    0    0    0    0    0    0   56    0   56    0

>  <minimizedAffinity>  (142) 
-7.38423

>  <CNNscore>  (142) 
0.8260864615

>  <CNNaffinity>  (142) 
4.8006162643

>  <CNN_VS>  (142) 
3.9657239914

>  <CNNaffinity_variance>  (142) 
0.2175498903

$$$$
143
     RDKit          3D

 43 45  0  0  0  0  0  0  0  0999 V2000
   21.9500   69.5458   -1.0585 P   0  0  2  0  0  0  0  0  0  0  0  0
   23.2982   68.7667   -1.4993 O   0  0  0  0  0  0  0  0  0  0  0  0
   21.0303   68.7652   -0.1660 O   0  0  0  0  0  0  0  0  0  0  0  0
   21.3134   70.0442   -2.4600 O   0  0  0  0  0  0  0  0  0  0  0  0
   20.3690   69.2117   -3.1076 C   0  0  0  0  0  0  0  0  0  0  0  0
   18.6800   70.7594   -3.8353 O   0  0  0  0  0  0  0  0  0  0  0  0
   16.7501   69.1210   -2.2284 O   0  0  0  0  0  0  0  0  0  0  0  0
   16.2869   68.2602   -4.7741 O   0  0  0  0  0  0  0  0  0  0  0  0
   17.8805   68.6961   -2.9901 C   0  0  1  0  0  0  0  0  0  0  0  0
   17.5707   68.7645   -4.4705 C   0  0  2  0  0  0  0  0  0  0  0  0
   18.9690   69.7506   -2.8433 C   0  0  1  0  0  0  0  0  0  0  0  0
   17.6957   70.2525   -4.7504 C   0  0  2  0  0  0  0  0  0  0  0  0
   16.0412   68.4630   -2.3067 H   0  0  0  0  0  0  0  0  0  0  0  0
   16.2584   67.3099   -4.5790 H   0  0  0  0  0  0  0  0  0  0  0  0
   16.0206   70.0996   -7.0192 O   0  0  0  0  0  0  0  0  0  0  0  0
   19.4450   71.3129   -9.8556 O   0  0  0  0  0  0  0  0  0  0  0  0
   18.1236   70.5233   -6.0937 N   0  0  0  0  0  0  0  0  0  0  0  0
   17.7280   70.7030   -8.4298 N   0  0  0  0  0  0  0  0  0  0  0  0
   17.2026   70.4175   -7.1627 C   0  0  0  0  0  0  0  0  0  0  0  0
   19.4407   70.8903   -6.3413 C   0  0  0  0  0  0  0  0  0  0  0  0
   19.9268   71.1595   -7.5546 C   0  0  0  0  0  0  0  0  0  0  0  0
   19.0303   71.0714   -8.7260 C   0  0  0  0  0  0  0  0  0  0  0  0
   17.1062   70.6341   -9.1901 H   0  0  0  0  0  0  0  0  0  0  0  0
   22.5169   70.9136   -0.4100 O   0  0  0  0  0  0  0  0  0  0  0  0
   22.1754   72.4611   -0.7298 P   0  0  2  0  0  0  0  0  0  0  0  0
   20.5579   72.5011   -0.6788 O   0  0  0  0  0  0  0  0  0  0  0  0
   22.7663   72.9697   -2.0128 O   0  0  0  0  0  0  0  0  0  0  0  0
   22.6443   73.2646    0.5882 O   0  0  0  0  0  0  0  0  0  0  0  0
   24.3852   73.2976    2.1935 O   0  0  0  0  0  0  0  0  0  0  0  0
   21.0268   73.1944    4.5974 O   0  0  0  0  0  0  0  0  0  0  0  0
   21.1840   71.5315    2.2006 O   0  0  0  0  0  0  0  0  0  0  0  0
   22.5094   75.6730    4.2674 O   0  0  0  0  0  0  0  0  0  0  0  0
   21.7897   73.5285    3.4380 C   0  0  2  0  0  0  0  0  0  0  0  0
   22.2785   72.2481    2.7604 C   0  0  2  0  0  0  0  0  0  0  0  0
   22.9791   74.3819    3.8842 C   0  0  1  0  0  0  0  0  0  0  0  0
   23.2849   72.5648    1.6533 C   0  0  1  0  0  0  0  0  0  0  0  0
   23.9987   74.5473    2.7610 C   0  0  1  0  0  0  0  0  0  0  0  0
   20.2653   72.6519    4.3383 H   0  0  0  0  0  0  0  0  0  0  0  0
   20.5414   71.3274    2.8975 H   0  0  0  0  0  0  0  0  0  0  0  0
   21.8595   75.5819    4.9817 H   0  0  0  0  0  0  0  0  0  0  0  0
   26.2592   75.0165    2.3469 O   0  0  0  0  0  0  0  0  0  0  0  0
   25.4504   75.5381    4.4140 O   0  0  0  0  0  0  0  0  0  0  0  0
   25.2871   75.0885    3.2896 C   0  0  0  0  0  0  0  0  0  0  0  0
  1  4  1  0
  1 24  1  0
  1  2  1  6
  1  3  2  0
 25 28  1  0
 25 24  1  0
 25 26  1  6
 25 27  2  0
  6 11  1  0
  6 12  1  0
 29 36  1  0
 29 37  1  0
  9  7  1  1
  7 13  1  0
 10  8  1  1
  8 14  1  0
  4  5  1  0
 36 28  1  6
 33 30  1  1
 30 38  1  0
 34 31  1  6
 31 39  1  0
 35 32  1  6
 32 40  1  0
 41 43  1  0
 15 19  2  0
 42 43  2  0
 16 22  2  0
 12 17  1  6
 17 19  1  0
 17 20  1  0
 18 19  1  0
 18 22  1  0
 18 23  1  0
  9 10  1  0
  9 11  1  0
 10 12  1  0
 11  5  1  6
 33 34  1  0
 33 35  1  0
 34 36  1  0
 35 37  1  0
 37 43  1  1
 20 21  2  0
 21 22  1  0
M  CHG  3   2  -1  26  -1  41  -1
M  END
>  <COMPND>  (143) 
    udp_gluA.pdb 

>  <AUTHOR>  (143) 
    GENERATED BY OPEN BABEL 3.1.1

>  <MASTER>  (143) 
        0    0    0    0    0    0    0    0   56    0   56    0

>  <minimizedAffinity>  (143) 
-7.83293

>  <CNNscore>  (143) 
0.7868745327

>  <CNNaffinity>  (143) 
4.8501815796

>  <CNN_VS>  (143) 
3.8164844513

>  <CNNaffinity_variance>  (143) 
0.1456388682

$$$$
144
     RDKit          3D

 43 45  0  0  0  0  0  0  0  0999 V2000
   22.8777   69.8935   -2.3951 P   0  0  2  0  0  0  0  0  0  0  0  0
   23.7172   70.9245   -3.3177 O   0  0  0  0  0  0  0  0  0  0  0  0
   23.1614   68.4418   -2.6479 O   0  0  0  0  0  0  0  0  0  0  0  0
   21.3400   70.3545   -2.5978 O   0  0  0  0  0  0  0  0  0  0  0  0
   20.4209   69.4237   -3.1393 C   0  0  0  0  0  0  0  0  0  0  0  0
   18.7028   70.9097   -3.9252 O   0  0  0  0  0  0  0  0  0  0  0  0
   16.7939   69.2602   -2.3045 O   0  0  0  0  0  0  0  0  0  0  0  0
   16.3870   68.3282   -4.8347 O   0  0  0  0  0  0  0  0  0  0  0  0
   17.9449   68.8469   -3.0413 C   0  0  1  0  0  0  0  0  0  0  0  0
   17.6533   68.8725   -4.5268 C   0  0  2  0  0  0  0  0  0  0  0  0
   19.0041   69.9323   -2.9058 C   0  0  1  0  0  0  0  0  0  0  0  0
   17.7441   70.3562   -4.8405 C   0  0  2  0  0  0  0  0  0  0  0  0
   16.1032   68.5824   -2.3762 H   0  0  0  0  0  0  0  0  0  0  0  0
   16.3802   67.3823   -4.6174 H   0  0  0  0  0  0  0  0  0  0  0  0
   16.0468   70.3595   -7.0979 O   0  0  0  0  0  0  0  0  0  0  0  0
   19.5370   71.3283   -9.9481 O   0  0  0  0  0  0  0  0  0  0  0  0
   18.1829   70.6063   -6.1842 N   0  0  0  0  0  0  0  0  0  0  0  0
   17.7869   70.8410   -8.5154 N   0  0  0  0  0  0  0  0  0  0  0  0
   17.2492   70.5847   -7.2472 C   0  0  0  0  0  0  0  0  0  0  0  0
   19.5232   70.8709   -6.4383 C   0  0  0  0  0  0  0  0  0  0  0  0
   20.0207   71.1135   -7.6525 C   0  0  0  0  0  0  0  0  0  0  0  0
   19.1122   71.1086   -8.8178 C   0  0  0  0  0  0  0  0  0  0  0  0
   17.1565   70.8292   -9.2716 H   0  0  0  0  0  0  0  0  0  0  0  0
   23.2123   70.3937   -0.8949 O   0  0  0  0  0  0  0  0  0  0  0  0
   22.6007   69.9481    0.5337 P   0  0  2  0  0  0  0  0  0  0  0  0
   23.5917   68.7583    1.0054 O   0  0  0  0  0  0  0  0  0  0  0  0
   21.1501   69.5638    0.4897 O   0  0  0  0  0  0  0  0  0  0  0  0
   22.9383   71.1759    1.5243 O   0  0  0  0  0  0  0  0  0  0  0  0
   22.2258   72.6676    3.2202 O   0  0  0  0  0  0  0  0  0  0  0  0
   22.2242   75.1156   -0.1077 O   0  0  0  0  0  0  0  0  0  0  0  0
   21.1982   72.3856   -0.2770 O   0  0  0  0  0  0  0  0  0  0  0  0
   24.3548   75.3277    1.8586 O   0  0  0  0  0  0  0  0  0  0  0  0
   22.6685   74.0391    0.7180 C   0  0  2  0  0  0  0  0  0  0  0  0
   21.5197   73.0544    0.9370 C   0  0  2  0  0  0  0  0  0  0  0  0
   23.1281   74.6266    2.0542 C   0  0  1  0  0  0  0  0  0  0  0  0
   21.8854   72.0142    1.9969 C   0  0  1  0  0  0  0  0  0  0  0  0
   23.3514   73.5340    3.0957 C   0  0  1  0  0  0  0  0  0  0  0  0
   21.9271   74.7663   -0.9627 H   0  0  0  0  0  0  0  0  0  0  0  0
   20.9654   73.0396   -0.9541 H   0  0  0  0  0  0  0  0  0  0  0  0
   24.2263   76.0259    1.1977 H   0  0  0  0  0  0  0  0  0  0  0  0
   24.6549   74.7767    4.5985 O   0  0  0  0  0  0  0  0  0  0  0  0
   22.6326   74.0330    5.3442 O   0  0  0  0  0  0  0  0  0  0  0  0
   23.4749   74.1223    4.4636 C   0  0  0  0  0  0  0  0  0  0  0  0
  1  4  1  0
  1 24  1  0
  1  2  1  6
  1  3  2  0
 25 28  1  0
 25 24  1  0
 25 26  1  1
 25 27  2  0
  6 11  1  0
  6 12  1  0
 29 36  1  0
 29 37  1  0
  9  7  1  1
  7 13  1  0
 10  8  1  1
  8 14  1  0
  4  5  1  0
 36 28  1  6
 33 30  1  6
 30 38  1  0
 34 31  1  6
 31 39  1  0
 35 32  1  6
 32 40  1  0
 41 43  1  0
 15 19  2  0
 42 43  2  0
 16 22  2  0
 12 17  1  6
 17 19  1  0
 17 20  1  0
 18 19  1  0
 18 22  1  0
 18 23  1  0
  9 10  1  0
  9 11  1  0
 10 12  1  0
 11  5  1  6
 33 34  1  0
 33 35  1  0
 34 36  1  0
 35 37  1  0
 37 43  1  1
 20 21  2  0
 21 22  1  0
M  CHG  3   2  -1  26  -1  41  -1
M  END
>  <COMPND>  (144) 
    udp_gluA.pdb 

>  <AUTHOR>  (144) 
    GENERATED BY OPEN BABEL 3.1.1

>  <MASTER>  (144) 
        0    0    0    0    0    0    0    0   56    0   56    0

>  <minimizedAffinity>  (144) 
-7.94843

>  <CNNscore>  (144) 
0.6380218863

>  <CNNaffinity>  (144) 
4.7430839539

>  <CNN_VS>  (144) 
3.0261914730

>  <CNNaffinity_variance>  (144) 
0.1578487158

$$$$
145
     RDKit          3D

 43 45  0  0  0  0  0  0  0  0999 V2000
   21.7502   69.2426   -1.3841 P   0  0  2  0  0  0  0  0  0  0  0  0
   22.9348   68.2110   -1.7731 O   0  0  0  0  0  0  0  0  0  0  0  0
   20.8185   68.7619   -0.3106 O   0  0  0  0  0  0  0  0  0  0  0  0
   21.0618   69.5973   -2.8048 O   0  0  0  0  0  0  0  0  0  0  0  0
   19.8751   68.9168   -3.1697 C   0  0  0  0  0  0  0  0  0  0  0  0
   18.7326   70.8791   -3.9582 O   0  0  0  0  0  0  0  0  0  0  0  0
   16.3620   69.8948   -2.4081 O   0  0  0  0  0  0  0  0  0  0  0  0
   15.7445   69.1720   -4.9640 O   0  0  0  0  0  0  0  0  0  0  0  0
   17.3419   69.1493   -3.1310 C   0  0  1  0  0  0  0  0  0  0  0  0
   17.1098   69.2850   -4.6209 C   0  0  2  0  0  0  0  0  0  0  0  0
   18.6854   69.8432   -2.9532 C   0  0  1  0  0  0  0  0  0  0  0  0
   17.6711   70.6683   -4.9027 C   0  0  2  0  0  0  0  0  0  0  0  0
   15.4948   69.4705   -2.5068 H   0  0  0  0  0  0  0  0  0  0  0  0
   15.4347   68.2738   -4.7661 H   0  0  0  0  0  0  0  0  0  0  0  0
   16.0961   70.7048   -7.2468 O   0  0  0  0  0  0  0  0  0  0  0  0
   19.8051   71.1196   -9.9515 O   0  0  0  0  0  0  0  0  0  0  0  0
   18.1992   70.7849   -6.2325 N   0  0  0  0  0  0  0  0  0  0  0  0
   17.9449   70.9103   -8.5917 N   0  0  0  0  0  0  0  0  0  0  0  0
   17.3216   70.7931   -7.3424 C   0  0  0  0  0  0  0  0  0  0  0  0
   19.5710   70.8912   -6.4271 C   0  0  0  0  0  0  0  0  0  0  0  0
   20.1504   71.0024   -7.6240 C   0  0  0  0  0  0  0  0  0  0  0  0
   19.3046   71.0180   -8.8355 C   0  0  0  0  0  0  0  0  0  0  0  0
   17.3546   70.9162   -9.3796 H   0  0  0  0  0  0  0  0  0  0  0  0
   22.5536   70.5975   -1.0213 O   0  0  0  0  0  0  0  0  0  0  0  0
   22.0854   71.9315   -0.2371 P   0  0  2  0  0  0  0  0  0  0  0  0
   22.7583   71.7565    1.2247 O   0  0  0  0  0  0  0  0  0  0  0  0
   20.5990   72.1416   -0.2124 O   0  0  0  0  0  0  0  0  0  0  0  0
   22.9191   73.1268   -0.9287 O   0  0  0  0  0  0  0  0  0  0  0  0
   22.9267   75.3617   -1.7127 O   0  0  0  0  0  0  0  0  0  0  0  0
   23.1436   73.2308   -5.2454 O   0  0  0  0  0  0  0  0  0  0  0  0
   21.3582   72.3653   -3.1012 O   0  0  0  0  0  0  0  0  0  0  0  0
   25.5096   74.5482   -4.1883 O   0  0  0  0  0  0  0  0  0  0  0  0
   23.3739   73.4827   -3.8592 C   0  0  2  0  0  0  0  0  0  0  0  0
   22.0346   73.6167   -3.1341 C   0  0  2  0  0  0  0  0  0  0  0  0
   24.1753   74.7810   -3.7412 C   0  0  1  0  0  0  0  0  0  0  0  0
   22.2355   74.1121   -1.7012 C   0  0  1  0  0  0  0  0  0  0  0  0
   24.2237   75.2767   -2.2988 C   0  0  1  0  0  0  0  0  0  0  0  0
   22.6356   72.4103   -5.3451 H   0  0  0  0  0  0  0  0  0  0  0  0
   21.2276   72.0449   -4.0071 H   0  0  0  0  0  0  0  0  0  0  0  0
   25.4929   74.2321   -5.1052 H   0  0  0  0  0  0  0  0  0  0  0  0
   23.9959   77.4039   -1.3374 O   0  0  0  0  0  0  0  0  0  0  0  0
   25.6310   77.1405   -2.9046 O   0  0  0  0  0  0  0  0  0  0  0  0
   24.7121   76.6874   -2.2388 C   0  0  0  0  0  0  0  0  0  0  0  0
  1  4  1  0
  1 24  1  0
  1  2  1  6
  1  3  2  0
 25 28  1  0
 25 24  1  0
 25 26  1  1
 25 27  2  0
  6 11  1  0
  6 12  1  0
 29 36  1  0
 29 37  1  0
  9  7  1  1
  7 13  1  0
 10  8  1  1
  8 14  1  0
  4  5  1  0
 36 28  1  1
 33 30  1  6
 30 38  1  0
 34 31  1  1
 31 39  1  0
 35 32  1  1
 32 40  1  0
 41 43  1  0
 15 19  2  0
 42 43  2  0
 16 22  2  0
 12 17  1  6
 17 19  1  0
 17 20  1  0
 18 19  1  0
 18 22  1  0
 18 23  1  0
  9 10  1  0
  9 11  1  0
 10 12  1  0
 11  5  1  6
 33 34  1  0
 33 35  1  0
 34 36  1  0
 35 37  1  0
 37 43  1  6
 20 21  2  0
 21 22  1  0
M  CHG  3   2  -1  26  -1  41  -1
M  END
>  <COMPND>  (145) 
    udp_gluA.pdb 

>  <AUTHOR>  (145) 
    GENERATED BY OPEN BABEL 3.1.1

>  <MASTER>  (145) 
        0    0    0    0    0    0    0    0   56    0   56    0

>  <minimizedAffinity>  (145) 
-7.39219

>  <CNNscore>  (145) 
0.6086803079

>  <CNNaffinity>  (145) 
4.5380253792

>  <CNN_VS>  (145) 
2.7622067928

>  <CNNaffinity_variance>  (145) 
0.0818505511

$$$$
146
     RDKit          3D

 43 45  0  0  0  0  0  0  0  0999 V2000
   20.8693   74.5762   -4.5474 P   0  0  2  0  0  0  0  0  0  0  0  0
   19.3288   74.5156   -4.0555 O   0  0  0  0  0  0  0  0  0  0  0  0
   21.5336   75.9121   -4.3868 O   0  0  0  0  0  0  0  0  0  0  0  0
   20.8185   73.9936   -6.0560 O   0  0  0  0  0  0  0  0  0  0  0  0
   20.8535   72.5903   -6.2404 C   0  0  0  0  0  0  0  0  0  0  0  0
   19.4787   70.8828   -7.2264 O   0  0  0  0  0  0  0  0  0  0  0  0
   18.3112   73.0630   -8.9221 O   0  0  0  0  0  0  0  0  0  0  0  0
   16.4089   72.7209   -6.9985 O   0  0  0  0  0  0  0  0  0  0  0  0
   18.7422   73.1090   -7.5617 C   0  0  1  0  0  0  0  0  0  0  0  0
   17.7445   72.3988   -6.6715 C   0  0  2  0  0  0  0  0  0  0  0  0
   19.9741   72.2240   -7.4290 C   0  0  1  0  0  0  0  0  0  0  0  0
   18.0742   70.9386   -6.9306 C   0  0  2  0  0  0  0  0  0  0  0  0
   17.5250   73.6211   -9.0316 H   0  0  0  0  0  0  0  0  0  0  0  0
   16.2489   73.6605   -6.8157 H   0  0  0  0  0  0  0  0  0  0  0  0
   15.6104   69.6428   -6.4541 O   0  0  0  0  0  0  0  0  0  0  0  0
   17.1468   67.7668   -2.5344 O   0  0  0  0  0  0  0  0  0  0  0  0
   17.8031   70.1055   -5.7934 N   0  0  0  0  0  0  0  0  0  0  0  0
   16.3776   68.7105   -4.5018 N   0  0  0  0  0  0  0  0  0  0  0  0
   16.5319   69.5012   -5.6481 C   0  0  0  0  0  0  0  0  0  0  0  0
   18.7899   69.8928   -4.8384 C   0  0  0  0  0  0  0  0  0  0  0  0
   18.6279   69.1364   -3.7510 C   0  0  0  0  0  0  0  0  0  0  0  0
   17.3290   68.4697   -3.5238 C   0  0  0  0  0  0  0  0  0  0  0  0
   15.5004   68.2810   -4.3779 H   0  0  0  0  0  0  0  0  0  0  0  0
   21.5629   73.3752   -3.7172 O   0  0  0  0  0  0  0  0  0  0  0  0
   23.0687   73.2057   -3.1538 P   0  0  2  0  0  0  0  0  0  0  0  0
   23.1799   74.3735   -2.0383 O   0  0  0  0  0  0  0  0  0  0  0  0
   24.1319   73.2586   -4.2125 O   0  0  0  0  0  0  0  0  0  0  0  0
   23.0363   71.8340   -2.3054 O   0  0  0  0  0  0  0  0  0  0  0  0
   23.2969   69.6249   -3.1186 O   0  0  0  0  0  0  0  0  0  0  0  0
   20.9038   69.0241    0.1950 O   0  0  0  0  0  0  0  0  0  0  0  0
   20.4043   71.2704   -1.6047 O   0  0  0  0  0  0  0  0  0  0  0  0
   23.7309   68.3546    0.2960 O   0  0  0  0  0  0  0  0  0  0  0  0
   21.9122   69.6665   -0.5850 C   0  0  2  0  0  0  0  0  0  0  0  0
   21.2969   70.1971   -1.8802 C   0  0  2  0  0  0  0  0  0  0  0  0
   22.9988   68.6346   -0.8956 C   0  0  1  0  0  0  0  0  0  0  0  0
   22.3816   70.6855   -2.8412 C   0  0  1  0  0  0  0  0  0  0  0  0
   23.9693   69.1493   -1.9548 C   0  0  1  0  0  0  0  0  0  0  0  0
   20.2023   69.6607    0.4045 H   0  0  0  0  0  0  0  0  0  0  0  0
   19.7135   70.9676   -0.9952 H   0  0  0  0  0  0  0  0  0  0  0  0
   23.1247   68.0264    0.9784 H   0  0  0  0  0  0  0  0  0  0  0  0
   25.7863   68.5199   -3.2979 O   0  0  0  0  0  0  0  0  0  0  0  0
   24.6572   66.8528   -2.2279 O   0  0  0  0  0  0  0  0  0  0  0  0
   24.8134   68.0368   -2.4861 C   0  0  0  0  0  0  0  0  0  0  0  0
  1  4  1  0
  1 24  1  0
  1  2  1  1
  1  3  2  0
 25 28  1  0
 25 24  1  0
 25 26  1  1
 25 27  2  0
  6 11  1  0
  6 12  1  0
 29 36  1  0
 29 37  1  0
  9  7  1  6
  7 13  1  0
 10  8  1  6
  8 14  1  0
  4  5  1  0
 36 28  1  1
 33 30  1  1
 30 38  1  0
 34 31  1  1
 31 39  1  0
 35 32  1  1
 32 40  1  0
 41 43  1  0
 15 19  2  0
 42 43  2  0
 16 22  2  0
 12 17  1  1
 17 19  1  0
 17 20  1  0
 18 19  1  0
 18 22  1  0
 18 23  1  0
  9 10  1  0
  9 11  1  0
 10 12  1  0
 11  5  1  1
 33 34  1  0
 33 35  1  0
 34 36  1  0
 35 37  1  0
 37 43  1  6
 20 21  2  0
 21 22  1  0
M  CHG  3   2  -1  26  -1  41  -1
M  END
>  <COMPND>  (146) 
    udp_gluA.pdb 

>  <AUTHOR>  (146) 
    GENERATED BY OPEN BABEL 3.1.1

>  <MASTER>  (146) 
        0    0    0    0    0    0    0    0   56    0   56    0

>  <minimizedAffinity>  (146) 
-8.38316

>  <CNNscore>  (146) 
0.5953862667

>  <CNNaffinity>  (146) 
4.4330663681

>  <CNN_VS>  (146) 
2.6393868923

>  <CNNaffinity_variance>  (146) 
0.6695750356

$$$$
147
     RDKit          3D

 43 45  0  0  0  0  0  0  0  0999 V2000
   20.0365   74.0332   -2.7860 P   0  0  2  0  0  0  0  0  0  0  0  0
   19.2086   75.4214   -2.7072 O   0  0  0  0  0  0  0  0  0  0  0  0
   20.3701   73.5724   -4.1746 O   0  0  0  0  0  0  0  0  0  0  0  0
   19.1579   73.0058   -1.8969 O   0  0  0  0  0  0  0  0  0  0  0  0
   18.7185   71.7998   -2.4943 C   0  0  0  0  0  0  0  0  0  0  0  0
   17.1638   72.3316   -4.2486 O   0  0  0  0  0  0  0  0  0  0  0  0
   15.0940   70.9433   -2.5813 O   0  0  0  0  0  0  0  0  0  0  0  0
   15.7182   69.0569   -4.4489 O   0  0  0  0  0  0  0  0  0  0  0  0
   16.4756   70.6275   -2.7543 C   0  0  1  0  0  0  0  0  0  0  0  0
   16.7056   70.0108   -4.1178 C   0  0  2  0  0  0  0  0  0  0  0  0
   17.2467   71.9360   -2.8623 C   0  0  1  0  0  0  0  0  0  0  0  0
   16.6695   71.2288   -5.0250 C   0  0  2  0  0  0  0  0  0  0  0  0
   14.5809   70.1228   -2.5099 H   0  0  0  0  0  0  0  0  0  0  0  0
   15.7827   68.3012   -3.8432 H   0  0  0  0  0  0  0  0  0  0  0  0
   15.7466   70.2697   -7.5159 O   0  0  0  0  0  0  0  0  0  0  0  0
   19.9254   70.6603   -9.4209 O   0  0  0  0  0  0  0  0  0  0  0  0
   17.4949   71.0699   -6.1887 N   0  0  0  0  0  0  0  0  0  0  0  0
   17.8290   70.4642   -8.4620 N   0  0  0  0  0  0  0  0  0  0  0  0
   16.9328   70.5799   -7.3912 C   0  0  0  0  0  0  0  0  0  0  0  0
   18.8438   71.3992   -6.1326 C   0  0  0  0  0  0  0  0  0  0  0  0
   19.6854   71.2836   -7.1617 C   0  0  0  0  0  0  0  0  0  0  0  0
   19.1783   70.7783   -8.4543 C   0  0  0  0  0  0  0  0  0  0  0  0
   17.4612   70.1232   -9.3092 H   0  0  0  0  0  0  0  0  0  0  0  0
   21.3194   74.3219   -1.8460 O   0  0  0  0  0  0  0  0  0  0  0  0
   22.7228   73.5338   -1.6940 P   0  0  2  0  0  0  0  0  0  0  0  0
   23.8241   74.7152   -1.8023 O   0  0  0  0  0  0  0  0  0  0  0  0
   22.9129   72.4188   -2.6812 O   0  0  0  0  0  0  0  0  0  0  0  0
   22.7689   73.0746   -0.1483 O   0  0  0  0  0  0  0  0  0  0  0  0
   21.5628   71.0472    0.0619 O   0  0  0  0  0  0  0  0  0  0  0  0
   22.7432   71.7312    3.9615 O   0  0  0  0  0  0  0  0  0  0  0  0
   21.7683   73.9291    2.3022 O   0  0  0  0  0  0  0  0  0  0  0  0
   24.0903   69.7118    2.3621 O   0  0  0  0  0  0  0  0  0  0  0  0
   22.8567   71.7738    2.5391 C   0  0  2  0  0  0  0  0  0  0  0  0
   21.6777   72.5522    1.9547 C   0  0  2  0  0  0  0  0  0  0  0  0
   22.8529   70.3338    2.0211 C   0  0  1  0  0  0  0  0  0  0  0  0
   21.6391   72.4246    0.4312 C   0  0  1  0  0  0  0  0  0  0  0  0
   22.6852   70.2876    0.5050 C   0  0  1  0  0  0  0  0  0  0  0  0
   22.7434   72.6354    4.3133 H   0  0  0  0  0  0  0  0  0  0  0  0
   21.7935   74.0175    3.2675 H   0  0  0  0  0  0  0  0  0  0  0  0
   24.2093   69.7347    3.3245 H   0  0  0  0  0  0  0  0  0  0  0  0
   21.0134   68.7502   -0.0806 O   0  0  0  0  0  0  0  0  0  0  0  0
   23.1731   68.0255   -0.1780 O   0  0  0  0  0  0  0  0  0  0  0  0
   22.3544   68.9035    0.0499 C   0  0  0  0  0  0  0  0  0  0  0  0
  1  4  1  0
  1 24  1  0
  1  2  1  6
  1  3  2  0
 25 28  1  0
 25 24  1  0
 25 26  1  1
 25 27  2  0
  6 11  1  0
  6 12  1  0
 29 36  1  0
 29 37  1  0
  9  7  1  6
  7 13  1  0
 10  8  1  6
  8 14  1  0
  4  5  1  0
 36 28  1  6
 33 30  1  1
 30 38  1  0
 34 31  1  6
 31 39  1  0
 35 32  1  6
 32 40  1  0
 41 43  1  0
 15 19  2  0
 42 43  2  0
 16 22  2  0
 12 17  1  6
 17 19  1  0
 17 20  1  0
 18 19  1  0
 18 22  1  0
 18 23  1  0
  9 10  1  0
  9 11  1  0
 10 12  1  0
 11  5  1  6
 33 34  1  0
 33 35  1  0
 34 36  1  0
 35 37  1  0
 37 43  1  1
 20 21  2  0
 21 22  1  0
M  CHG  3   2  -1  26  -1  41  -1
M  END
>  <COMPND>  (147) 
    udp_gluA.pdb 

>  <AUTHOR>  (147) 
    GENERATED BY OPEN BABEL 3.1.1

>  <MASTER>  (147) 
        0    0    0    0    0    0    0    0   56    0   56    0

>  <minimizedAffinity>  (147) 
-7.69606

>  <CNNscore>  (147) 
0.5637387633

>  <CNNaffinity>  (147) 
4.2771692276

>  <CNN_VS>  (147) 
2.4112060070

>  <CNNaffinity_variance>  (147) 
0.2106474340

$$$$
148
     RDKit          3D

 43 45  0  0  0  0  0  0  0  0999 V2000
   21.8010   69.7287   -0.7860 P   0  0  2  0  0  0  0  0  0  0  0  0
   23.2365   69.1571   -1.2672 O   0  0  0  0  0  0  0  0  0  0  0  0
   20.9227   68.7308   -0.0899 O   0  0  0  0  0  0  0  0  0  0  0  0
   21.1816   70.3982   -2.1224 O   0  0  0  0  0  0  0  0  0  0  0  0
   20.3955   69.5918   -2.9805 C   0  0  0  0  0  0  0  0  0  0  0  0
   18.5455   70.8820   -3.8116 O   0  0  0  0  0  0  0  0  0  0  0  0
   16.7886   69.0333   -2.2344 O   0  0  0  0  0  0  0  0  0  0  0  0
   16.5481   68.0636   -4.7717 O   0  0  0  0  0  0  0  0  0  0  0  0
   17.9956   68.7484   -2.9419 C   0  0  1  0  0  0  0  0  0  0  0  0
   17.7395   68.7427   -4.4341 C   0  0  2  0  0  0  0  0  0  0  0  0
   18.9264   69.9428   -2.7830 C   0  0  1  0  0  0  0  0  0  0  0  0
   17.6756   70.2275   -4.7488 C   0  0  2  0  0  0  0  0  0  0  0  0
   16.1779   68.2843   -2.3214 H   0  0  0  0  0  0  0  0  0  0  0  0
   16.6391   67.1226   -4.5525 H   0  0  0  0  0  0  0  0  0  0  0  0
   16.0392   70.0636   -7.0449 O   0  0  0  0  0  0  0  0  0  0  0  0
   19.4770   71.3908   -9.8133 O   0  0  0  0  0  0  0  0  0  0  0  0
   18.1174   70.5247   -6.0820 N   0  0  0  0  0  0  0  0  0  0  0  0
   17.7532   70.7238   -8.4217 N   0  0  0  0  0  0  0  0  0  0  0  0
   17.2155   70.4106   -7.1663 C   0  0  0  0  0  0  0  0  0  0  0  0
   19.4292   70.9252   -6.3048 C   0  0  0  0  0  0  0  0  0  0  0  0
   19.9272   71.2204   -7.5072 C   0  0  0  0  0  0  0  0  0  0  0  0
   19.0510   71.1259   -8.6932 C   0  0  0  0  0  0  0  0  0  0  0  0
   17.1449   70.6498   -9.1922 H   0  0  0  0  0  0  0  0  0  0  0  0
   22.2035   71.0122    0.1104 O   0  0  0  0  0  0  0  0  0  0  0  0
   23.0005   71.1196    1.5128 P   0  0  2  0  0  0  0  0  0  0  0  0
   24.2720   72.0516    1.1452 O   0  0  0  0  0  0  0  0  0  0  0  0
   23.3601   69.7944    2.1198 O   0  0  0  0  0  0  0  0  0  0  0  0
   22.0682   72.0512    2.4431 O   0  0  0  0  0  0  0  0  0  0  0  0
   20.7116   73.9214    1.9224 O   0  0  0  0  0  0  0  0  0  0  0  0
   22.0714   74.8951    5.7001 O   0  0  0  0  0  0  0  0  0  0  0  0
   23.8822   73.7201    3.7316 O   0  0  0  0  0  0  0  0  0  0  0  0
   19.3459   73.9550    5.3276 O   0  0  0  0  0  0  0  0  0  0  0  0
   21.6567   74.0224    4.6491 C   0  0  2  0  0  0  0  0  0  0  0  0
   22.5759   74.2036    3.4409 C   0  0  2  0  0  0  0  0  0  0  0  0
   20.2152   74.3792    4.2794 C   0  0  1  0  0  0  0  0  0  0  0  0
   22.0296   73.4598    2.2214 C   0  0  1  0  0  0  0  0  0  0  0  0
   19.7869   73.6957    2.9840 C   0  0  1  0  0  0  0  0  0  0  0  0
   22.9850   74.6870    5.9518 H   0  0  0  0  0  0  0  0  0  0  0  0
   24.2349   74.1875    4.5046 H   0  0  0  0  0  0  0  0  0  0  0  0
   19.6078   74.3828    6.1579 H   0  0  0  0  0  0  0  0  0  0  0  0
   18.7350   74.8878    1.2595 O   0  0  0  0  0  0  0  0  0  0  0  0
   17.4414   74.2596    3.0290 O   0  0  0  0  0  0  0  0  0  0  0  0
   18.5225   74.2954    2.4607 C   0  0  0  0  0  0  0  0  0  0  0  0
  1  4  1  0
  1 24  1  0
  1  2  1  6
  1  3  2  0
 25 28  1  0
 25 24  1  0
 25 26  1  6
 25 27  2  0
  6 11  1  0
  6 12  1  0
 29 36  1  0
 29 37  1  0
  9  7  1  1
  7 13  1  0
 10  8  1  1
  8 14  1  0
  4  5  1  0
 36 28  1  1
 33 30  1  1
 30 38  1  0
 34 31  1  1
 31 39  1  0
 35 32  1  1
 32 40  1  0
 41 43  1  0
 15 19  2  0
 42 43  2  0
 16 22  2  0
 12 17  1  6
 17 19  1  0
 17 20  1  0
 18 19  1  0
 18 22  1  0
 18 23  1  0
  9 10  1  0
  9 11  1  0
 10 12  1  0
 11  5  1  6
 33 34  1  0
 33 35  1  0
 34 36  1  0
 35 37  1  0
 37 43  1  6
 20 21  2  0
 21 22  1  0
M  CHG  3   2  -1  26  -1  41  -1
M  END
>  <COMPND>  (148) 
    udp_gluA.pdb 

>  <AUTHOR>  (148) 
    GENERATED BY OPEN BABEL 3.1.1

>  <MASTER>  (148) 
        0    0    0    0    0    0    0    0   56    0   56    0

>  <minimizedAffinity>  (148) 
-7.12707

>  <CNNscore>  (148) 
0.5613455176

>  <CNNaffinity>  (148) 
4.5183615685

>  <CNN_VS>  (148) 
2.5363619328

>  <CNNaffinity_variance>  (148) 
0.0664199218

$$$$
149
     RDKit          3D

 43 45  0  0  0  0  0  0  0  0999 V2000
   20.2915   73.1716   -2.2029 P   0  0  2  0  0  0  0  0  0  0  0  0
   20.7851   73.0601   -3.7401 O   0  0  0  0  0  0  0  0  0  0  0  0
   19.1529   74.1210   -1.9704 O   0  0  0  0  0  0  0  0  0  0  0  0
   21.6488   73.4876   -1.3809 O   0  0  0  0  0  0  0  0  0  0  0  0
   21.6759   73.2183    0.0088 C   0  0  0  0  0  0  0  0  0  0  0  0
   23.8673   72.8861    0.9387 O   0  0  0  0  0  0  0  0  0  0  0  0
   23.1765   69.9702    1.0459 O   0  0  0  0  0  0  0  0  0  0  0  0
   22.7970   70.7677    3.6259 O   0  0  0  0  0  0  0  0  0  0  0  0
   22.3386   71.1059    1.2621 C   0  0  1  0  0  0  0  0  0  0  0  0
   22.6419   71.7327    2.6064 C   0  0  2  0  0  0  0  0  0  0  0  0
   22.7716   72.1998    0.2955 C   0  0  1  0  0  0  0  0  0  0  0  0
   23.9265   72.4908    2.3184 C   0  0  2  0  0  0  0  0  0  0  0  0
   22.9188   69.2578    1.6524 H   0  0  0  0  0  0  0  0  0  0  0  0
   21.9521   70.3130    3.7719 H   0  0  0  0  0  0  0  0  0  0  0  0
   26.3480   73.8951    2.6932 O   0  0  0  0  0  0  0  0  0  0  0  0
   24.3425   76.9774    5.4719 O   0  0  0  0  0  0  0  0  0  0  0  0
   24.0655   73.6635    3.1346 N   0  0  0  0  0  0  0  0  0  0  0  0
   25.3471   75.4283    4.0776 N   0  0  0  0  0  0  0  0  0  0  0  0
   25.3266   74.2935    3.2562 C   0  0  0  0  0  0  0  0  0  0  0  0
   22.9611   74.1788    3.8022 C   0  0  0  0  0  0  0  0  0  0  0  0
   22.9961   75.2614    4.5816 C   0  0  0  0  0  0  0  0  0  0  0  0
   24.2755   75.9781    4.7625 C   0  0  0  0  0  0  0  0  0  0  0  0
   26.2145   75.8828    4.1793 H   0  0  0  0  0  0  0  0  0  0  0  0
   19.9781   71.6352   -1.8101 O   0  0  0  0  0  0  0  0  0  0  0  0
   20.2630   70.2570   -2.6056 P   0  0  2  0  0  0  0  0  0  0  0  0
   20.0495   69.1235   -1.4699 O   0  0  0  0  0  0  0  0  0  0  0  0
   21.5993   70.2047   -3.2879 O   0  0  0  0  0  0  0  0  0  0  0  0
   18.9995   70.0862   -3.5940 O   0  0  0  0  0  0  0  0  0  0  0  0
   17.2278   71.6247   -3.9149 O   0  0  0  0  0  0  0  0  0  0  0  0
   15.3954   68.0330   -4.8147 O   0  0  0  0  0  0  0  0  0  0  0  0
   17.2099   68.2394   -2.5344 O   0  0  0  0  0  0  0  0  0  0  0  0
   16.1600   69.8554   -6.9466 O   0  0  0  0  0  0  0  0  0  0  0  0
   16.4792   68.9586   -4.7333 C   0  0  2  0  0  0  0  0  0  0  0  0
   16.7107   69.3484   -3.2731 C   0  0  2  0  0  0  0  0  0  0  0  0
   16.1111   70.1918   -5.5614 C   0  0  1  0  0  0  0  0  0  0  0  0
   17.7048   70.5057   -3.1668 C   0  0  1  0  0  0  0  0  0  0  0  0
   17.0780   71.3440   -5.3048 C   0  0  1  0  0  0  0  0  0  0  0  0
   15.6067   67.2410   -4.2957 H   0  0  0  0  0  0  0  0  0  0  0  0
   16.5842   67.5013   -2.5978 H   0  0  0  0  0  0  0  0  0  0  0  0
   15.5491   69.1230   -7.1233 H   0  0  0  0  0  0  0  0  0  0  0  0
   16.7140   73.6359   -4.9637 O   0  0  0  0  0  0  0  0  0  0  0  0
   16.0001   72.7523   -6.9407 O   0  0  0  0  0  0  0  0  0  0  0  0
   16.5336   72.6246   -5.8489 C   0  0  0  0  0  0  0  0  0  0  0  0
  1  4  1  0
  1 24  1  0
  1  2  1  6
  1  3  2  0
 25 28  1  0
 25 24  1  0
 25 26  1  1
 25 27  2  0
  6 11  1  0
  6 12  1  0
 29 36  1  0
 29 37  1  0
  9  7  1  6
  7 13  1  0
 10  8  1  1
  8 14  1  0
  4  5  1  0
 36 28  1  6
 33 30  1  1
 30 38  1  0
 34 31  1  1
 31 39  1  0
 35 32  1  6
 32 40  1  0
 41 43  1  0
 15 19  2  0
 42 43  2  0
 16 22  2  0
 12 17  1  1
 17 19  1  0
 17 20  1  0
 18 19  1  0
 18 22  1  0
 18 23  1  0
  9 10  1  0
  9 11  1  0
 10 12  1  0
 11  5  1  1
 33 34  1  0
 33 35  1  0
 34 36  1  0
 35 37  1  0
 37 43  1  6
 20 21  2  0
 21 22  1  0
M  CHG  3   2  -1  26  -1  41  -1
M  END
>  <COMPND>  (149) 
    udp_gluA.pdb 

>  <AUTHOR>  (149) 
    GENERATED BY OPEN BABEL 3.1.1

>  <MASTER>  (149) 
        0    0    0    0    0    0    0    0   56    0   56    0

>  <minimizedAffinity>  (149) 
-7.18463

>  <CNNscore>  (149) 
0.4552797377

>  <CNNaffinity>  (149) 
4.0657944679

>  <CNN_VS>  (149) 
1.8510738611

>  <CNNaffinity_variance>  (149) 
0.1064843684

$$$$
150
     RDKit          3D

 43 45  0  0  0  0  0  0  0  0999 V2000
   21.2218   73.4052   -2.4082 P   0  0  2  0  0  0  0  0  0  0  0  0
   21.9146   74.8379   -2.7018 O   0  0  0  0  0  0  0  0  0  0  0  0
   20.3911   73.3471   -1.1598 O   0  0  0  0  0  0  0  0  0  0  0  0
   22.4514   72.3563   -2.4835 O   0  0  0  0  0  0  0  0  0  0  0  0
   22.1923   71.0427   -2.9439 C   0  0  0  0  0  0  0  0  0  0  0  0
   24.0861   70.6989   -1.5041 O   0  0  0  0  0  0  0  0  0  0  0  0
   24.1869   67.9140   -2.6112 O   0  0  0  0  0  0  0  0  0  0  0  0
   22.9731   67.5516   -0.1964 O   0  0  0  0  0  0  0  0  0  0  0  0
   23.0522   68.7307   -2.3214 C   0  0  1  0  0  0  0  0  0  0  0  0
   22.8302   68.8078   -0.8258 C   0  0  2  0  0  0  0  0  0  0  0  0
   23.4095   70.1703   -2.6652 C   0  0  1  0  0  0  0  0  0  0  0  0
   23.8982   69.8004   -0.3992 C   0  0  2  0  0  0  0  0  0  0  0  0
   23.9827   66.9892   -2.3996 H   0  0  0  0  0  0  0  0  0  0  0  0
   22.2700   66.9557   -0.5007 H   0  0  0  0  0  0  0  0  0  0  0  0
   23.9530   68.8109    2.2455 O   0  0  0  0  0  0  0  0  0  0  0  0
   22.3938   72.7941    3.9623 O   0  0  0  0  0  0  0  0  0  0  0  0
   23.5119   70.5575    0.7577 N   0  0  0  0  0  0  0  0  0  0  0  0
   23.1754   70.7954    3.0979 N   0  0  0  0  0  0  0  0  0  0  0  0
   23.5764   69.9666    2.0418 C   0  0  0  0  0  0  0  0  0  0  0  0
   23.0771   71.8695    0.6146 C   0  0  0  0  0  0  0  0  0  0  0  0
   22.6982   72.6471    1.6308 C   0  0  0  0  0  0  0  0  0  0  0  0
   22.7349   72.1057    3.0052 C   0  0  0  0  0  0  0  0  0  0  0  0
   23.2097   70.4053    4.0013 H   0  0  0  0  0  0  0  0  0  0  0  0
   20.4077   73.1094   -3.7730 O   0  0  0  0  0  0  0  0  0  0  0  0
   18.9662   73.6335   -4.2839 P   0  0  2  0  0  0  0  0  0  0  0  0
   19.2879   74.2240   -5.7564 O   0  0  0  0  0  0  0  0  0  0  0  0
   18.3024   74.6106   -3.3573 O   0  0  0  0  0  0  0  0  0  0  0  0
   18.1168   72.2902   -4.5606 O   0  0  0  0  0  0  0  0  0  0  0  0
   18.7824   70.0209   -4.4319 O   0  0  0  0  0  0  0  0  0  0  0  0
   15.9721   69.9025   -7.4579 O   0  0  0  0  0  0  0  0  0  0  0  0
   17.9161   72.0792   -7.3267 O   0  0  0  0  0  0  0  0  0  0  0  0
   15.3035   68.9166   -4.8061 O   0  0  0  0  0  0  0  0  0  0  0  0
   16.5663   70.3754   -6.2490 C   0  0  2  0  0  0  0  0  0  0  0  0
   17.9745   70.8949   -6.5402 C   0  0  2  0  0  0  0  0  0  0  0  0
   16.6234   69.2075   -5.2617 C   0  0  1  0  0  0  0  0  0  0  0  0
   18.7259   71.1953   -5.2425 C   0  0  1  0  0  0  0  0  0  0  0  0
   17.4939   69.5413   -4.0537 C   0  0  1  0  0  0  0  0  0  0  0  0
   15.9253   70.6277   -8.1006 H   0  0  0  0  0  0  0  0  0  0  0  0
   17.4403   71.8959   -8.1515 H   0  0  0  0  0  0  0  0  0  0  0  0
   14.7391   68.7027   -5.5654 H   0  0  0  0  0  0  0  0  0  0  0  0
   18.9523   68.4746   -2.5582 O   0  0  0  0  0  0  0  0  0  0  0  0
   17.1392   67.2880   -3.2677 O   0  0  0  0  0  0  0  0  0  0  0  0
   17.8111   68.3085   -3.2716 C   0  0  0  0  0  0  0  0  0  0  0  0
  1  4  1  0
  1 24  1  0
  1  2  1  6
  1  3  2  0
 25 28  1  0
 25 24  1  0
 25 26  1  6
 25 27  2  0
  6 11  1  0
  6 12  1  0
 29 36  1  0
 29 37  1  0
  9  7  1  1
  7 13  1  0
 10  8  1  1
  8 14  1  0
  4  5  1  0
 36 28  1  1
 33 30  1  6
 30 38  1  0
 34 31  1  6
 31 39  1  0
 35 32  1  1
 32 40  1  0
 41 43  1  0
 15 19  2  0
 42 43  2  0
 16 22  2  0
 12 17  1  1
 17 19  1  0
 17 20  1  0
 18 19  1  0
 18 22  1  0
 18 23  1  0
  9 10  1  0
  9 11  1  0
 10 12  1  0
 11  5  1  1
 33 34  1  0
 33 35  1  0
 34 36  1  0
 35 37  1  0
 37 43  1  1
 20 21  2  0
 21 22  1  0
M  CHG  3   2  -1  26  -1  41  -1
M  END
>  <COMPND>  (150) 
    udp_gluA.pdb 

>  <AUTHOR>  (150) 
    GENERATED BY OPEN BABEL 3.1.1

>  <MASTER>  (150) 
        0    0    0    0    0    0    0    0   56    0   56    0

>  <minimizedAffinity>  (150) 
-7.59880

>  <CNNscore>  (150) 
0.4094521701

>  <CNNaffinity>  (150) 
4.1296992302

>  <CNN_VS>  (150) 
1.6909142733

>  <CNNaffinity_variance>  (150) 
0.5019508004

$$$$
151
     RDKit          3D

 43 45  0  0  0  0  0  0  0  0999 V2000
   22.1350   72.2421   -3.6243 P   0  0  2  0  0  0  0  0  0  0  0  0
   21.1258   71.0994   -4.1672 O   0  0  0  0  0  0  0  0  0  0  0  0
   23.5916   71.9593   -3.8480 O   0  0  0  0  0  0  0  0  0  0  0  0
   21.6889   72.4543   -2.0835 O   0  0  0  0  0  0  0  0  0  0  0  0
   22.5976   72.0909   -1.0604 C   0  0  0  0  0  0  0  0  0  0  0  0
   21.9543   69.7871   -0.8226 O   0  0  0  0  0  0  0  0  0  0  0  0
   21.7486   70.3413    2.1171 O   0  0  0  0  0  0  0  0  0  0  0  0
   24.1589   69.0820    1.9153 O   0  0  0  0  0  0  0  0  0  0  0  0
   22.6773   70.8571    1.1631 C   0  0  1  0  0  0  0  0  0  0  0  0
   23.6899   69.7952    0.7902 C   0  0  2  0  0  0  0  0  0  0  0  0
   21.9351   71.0648   -0.1501 C   0  0  1  0  0  0  0  0  0  0  0  0
   22.8941   68.9223   -0.1653 C   0  0  2  0  0  0  0  0  0  0  0  0
   22.1999   70.2004    2.9645 H   0  0  0  0  0  0  0  0  0  0  0  0
   24.6591   69.6811    2.4923 H   0  0  0  0  0  0  0  0  0  0  0  0
   23.2168   66.1301   -0.4408 O   0  0  0  0  0  0  0  0  0  0  0  0
   26.1027   66.6308   -3.9995 O   0  0  0  0  0  0  0  0  0  0  0  0
   23.7238   68.2959   -1.1553 N   0  0  0  0  0  0  0  0  0  0  0  0
   24.6546   66.3821   -2.2123 N   0  0  0  0  0  0  0  0  0  0  0  0
   23.8167   66.8850   -1.2083 C   0  0  0  0  0  0  0  0  0  0  0  0
   24.4326   69.0762   -2.0607 C   0  0  0  0  0  0  0  0  0  0  0  0
   25.2272   68.5824   -3.0123 C   0  0  0  0  0  0  0  0  0  0  0  0
   25.3802   67.1179   -3.1352 C   0  0  0  0  0  0  0  0  0  0  0  0
   24.7369   65.4026   -2.2676 H   0  0  0  0  0  0  0  0  0  0  0  0
   21.5901   73.5809   -4.3480 O   0  0  0  0  0  0  0  0  0  0  0  0
   21.7234   74.0905   -5.8765 P   0  0  2  0  0  0  0  0  0  0  0  0
   22.5624   72.9042   -6.5900 O   0  0  0  0  0  0  0  0  0  0  0  0
   22.3358   75.4537   -6.0199 O   0  0  0  0  0  0  0  0  0  0  0  0
   20.2346   73.9581   -6.4833 O   0  0  0  0  0  0  0  0  0  0  0  0
   20.2060   72.8476   -8.5750 O   0  0  0  0  0  0  0  0  0  0  0  0
   16.2810   74.0893   -8.2288 O   0  0  0  0  0  0  0  0  0  0  0  0
   18.4696   75.8687   -7.4685 O   0  0  0  0  0  0  0  0  0  0  0  0
   16.9748   71.3025   -7.7786 O   0  0  0  0  0  0  0  0  0  0  0  0
   17.5524   73.6415   -7.7588 C   0  0  2  0  0  0  0  0  0  0  0  0
   18.6320   74.6423   -8.1714 C   0  0  2  0  0  0  0  0  0  0  0  0
   17.8308   72.2714   -8.3811 C   0  0  1  0  0  0  0  0  0  0  0  0
   20.0289   74.0875   -7.8889 C   0  0  1  0  0  0  0  0  0  0  0  0
   19.2797   71.8448   -8.1635 C   0  0  1  0  0  0  0  0  0  0  0  0
   16.0826   74.9587   -7.8465 H   0  0  0  0  0  0  0  0  0  0  0  0
   17.5852   76.2262   -7.6430 H   0  0  0  0  0  0  0  0  0  0  0  0
   16.0496   71.5623   -7.9098 H   0  0  0  0  0  0  0  0  0  0  0  0
   20.7823   70.1045   -8.6272 O   0  0  0  0  0  0  0  0  0  0  0  0
   18.9699   70.3062   -9.9960 O   0  0  0  0  0  0  0  0  0  0  0  0
   19.6287   70.6859   -9.0395 C   0  0  0  0  0  0  0  0  0  0  0  0
  1  4  1  0
  1 24  1  0
  1  2  1  6
  1  3  2  0
 25 28  1  0
 25 24  1  0
 25 26  1  6
 25 27  2  0
  6 11  1  0
  6 12  1  0
 29 36  1  0
 29 37  1  0
  9  7  1  1
  7 13  1  0
 10  8  1  1
  8 14  1  0
  4  5  1  0
 36 28  1  1
 33 30  1  6
 30 38  1  0
 34 31  1  1
 31 39  1  0
 35 32  1  1
 32 40  1  0
 41 43  1  0
 15 19  2  0
 42 43  2  0
 16 22  2  0
 12 17  1  6
 17 19  1  0
 17 20  1  0
 18 19  1  0
 18 22  1  0
 18 23  1  0
  9 10  1  0
  9 11  1  0
 10 12  1  0
 11  5  1  6
 33 34  1  0
 33 35  1  0
 34 36  1  0
 35 37  1  0
 37 43  1  6
 20 21  2  0
 21 22  1  0
M  CHG  3   2  -1  26  -1  41  -1
M  END
>  <COMPND>  (151) 
    udp_gluA.pdb 

>  <AUTHOR>  (151) 
    GENERATED BY OPEN BABEL 3.1.1

>  <MASTER>  (151) 
        0    0    0    0    0    0    0    0   56    0   56    0

>  <minimizedAffinity>  (151) 
-8.31807

>  <CNNscore>  (151) 
0.3952651918

>  <CNNaffinity>  (151) 
4.3931303024

>  <CNN_VS>  (151) 
1.7364515066

>  <CNNaffinity_variance>  (151) 
0.1461946368

$$$$
152
     RDKit          3D

 43 45  0  0  0  0  0  0  0  0999 V2000
   22.0544   72.2630   -3.9707 P   0  0  2  0  0  0  0  0  0  0  0  0
   21.3157   73.2026   -2.8796 O   0  0  0  0  0  0  0  0  0  0  0  0
   23.3133   72.8365   -4.5520 O   0  0  0  0  0  0  0  0  0  0  0  0
   20.8867   71.9104   -5.0338 O   0  0  0  0  0  0  0  0  0  0  0  0
   20.8194   72.6552   -6.2359 C   0  0  0  0  0  0  0  0  0  0  0  0
   19.3109   70.8282   -6.6411 O   0  0  0  0  0  0  0  0  0  0  0  0
   19.0418   71.9114   -9.4242 O   0  0  0  0  0  0  0  0  0  0  0  0
   16.7684   72.8071   -8.2138 O   0  0  0  0  0  0  0  0  0  0  0  0
   19.1922   72.6154   -8.1912 C   0  0  1  0  0  0  0  0  0  0  0  0
   17.9004   72.5730   -7.4026 C   0  0  2  0  0  0  0  0  0  0  0  0
   20.1337   71.8127   -7.3038 C   0  0  1  0  0  0  0  0  0  0  0  0
   17.9276   71.1668   -6.8283 C   0  0  2  0  0  0  0  0  0  0  0  0
   18.4443   72.4051  -10.0080 H   0  0  0  0  0  0  0  0  0  0  0  0
   16.7973   73.7152   -8.5550 H   0  0  0  0  0  0  0  0  0  0  0  0
   16.0655   69.1522   -6.1568 O   0  0  0  0  0  0  0  0  0  0  0  0
   15.3894   70.9225   -1.9553 O   0  0  0  0  0  0  0  0  0  0  0  0
   17.2501   71.0773   -5.5658 N   0  0  0  0  0  0  0  0  0  0  0  0
   15.7298   70.0365   -4.0653 N   0  0  0  0  0  0  0  0  0  0  0  0
   16.3331   70.0259   -5.3297 C   0  0  0  0  0  0  0  0  0  0  0  0
   17.4972   72.0224   -4.5775 C   0  0  0  0  0  0  0  0  0  0  0  0
   16.9145   72.0193   -3.3770 C   0  0  0  0  0  0  0  0  0  0  0  0
   15.9429   70.9551   -3.0502 C   0  0  0  0  0  0  0  0  0  0  0  0
   15.0861   69.3153   -3.8784 H   0  0  0  0  0  0  0  0  0  0  0  0
   22.2537   70.8704   -3.1747 O   0  0  0  0  0  0  0  0  0  0  0  0
   21.3004   70.1076   -2.1150 P   0  0  2  0  0  0  0  0  0  0  0  0
   21.7617   68.5618   -2.2483 O   0  0  0  0  0  0  0  0  0  0  0  0
   19.8324   70.3358   -2.3319 O   0  0  0  0  0  0  0  0  0  0  0  0
   21.8434   70.5712   -0.6683 O   0  0  0  0  0  0  0  0  0  0  0  0
   23.3923   72.2142    0.0464 O   0  0  0  0  0  0  0  0  0  0  0  0
   24.1847   69.1168    2.6630 O   0  0  0  0  0  0  0  0  0  0  0  0
   23.7197   68.5793   -0.1706 O   0  0  0  0  0  0  0  0  0  0  0  0
   22.6843   71.4388    3.5620 O   0  0  0  0  0  0  0  0  0  0  0  0
   23.3755   69.9311    1.8144 C   0  0  2  0  0  0  0  0  0  0  0  0
   23.9149   69.8746    0.3849 C   0  0  2  0  0  0  0  0  0  0  0  0
   23.4266   71.3652    2.3463 C   0  0  1  0  0  0  0  0  0  0  0  0
   23.2198   70.9074   -0.5033 C   0  0  1  0  0  0  0  0  0  0  0  0
   22.8267   72.3512    1.3481 C   0  0  1  0  0  0  0  0  0  0  0  0
   24.1676   68.2006    2.3444 H   0  0  0  0  0  0  0  0  0  0  0  0
   24.1579   67.9189    0.3882 H   0  0  0  0  0  0  0  0  0  0  0  0
   23.0559   70.8158    4.2060 H   0  0  0  0  0  0  0  0  0  0  0  0
   24.2558   73.7846    2.5331 O   0  0  0  0  0  0  0  0  0  0  0  0
   22.5694   74.7502    1.3403 O   0  0  0  0  0  0  0  0  0  0  0  0
   23.1725   73.7569    1.7179 C   0  0  0  0  0  0  0  0  0  0  0  0
  1  4  1  0
  1 24  1  0
  1  2  1  1
  1  3  2  0
 25 28  1  0
 25 24  1  0
 25 26  1  1
 25 27  2  0
  6 11  1  0
  6 12  1  0
 29 36  1  0
 29 37  1  0
  9  7  1  6
  7 13  1  0
 10  8  1  6
  8 14  1  0
  4  5  1  0
 36 28  1  1
 33 30  1  1
 30 38  1  0
 34 31  1  6
 31 39  1  0
 35 32  1  1
 32 40  1  0
 41 43  1  0
 15 19  2  0
 42 43  2  0
 16 22  2  0
 12 17  1  1
 17 19  1  0
 17 20  1  0
 18 19  1  0
 18 22  1  0
 18 23  1  0
  9 10  1  0
  9 11  1  0
 10 12  1  0
 11  5  1  1
 33 34  1  0
 33 35  1  0
 34 36  1  0
 35 37  1  0
 37 43  1  1
 20 21  2  0
 21 22  1  0
M  CHG  3   2  -1  26  -1  41  -1
M  END
>  <COMPND>  (152) 
    udp_gluA.pdb 

>  <AUTHOR>  (152) 
    GENERATED BY OPEN BABEL 3.1.1

>  <MASTER>  (152) 
        0    0    0    0    0    0    0    0   56    0   56    0

>  <minimizedAffinity>  (152) 
-8.05042

>  <CNNscore>  (152) 
0.3779766560

>  <CNNaffinity>  (152) 
4.1293897629

>  <CNN_VS>  (152) 
1.5608129501

>  <CNNaffinity_variance>  (152) 
0.2098114043

$$$$
153
     RDKit          3D

 43 45  0  0  0  0  0  0  0  0999 V2000
   21.1709   72.9053   -2.3994 P   0  0  2  0  0  0  0  0  0  0  0  0
   22.7197   72.5116   -2.1440 O   0  0  0  0  0  0  0  0  0  0  0  0
   20.8712   73.4424   -3.7682 O   0  0  0  0  0  0  0  0  0  0  0  0
   20.8110   73.8873   -1.1650 O   0  0  0  0  0  0  0  0  0  0  0  0
   21.7861   74.8200   -0.7364 C   0  0  0  0  0  0  0  0  0  0  0  0
   21.5465   73.4844    1.2477 O   0  0  0  0  0  0  0  0  0  0  0  0
   23.0338   75.6650    2.6706 O   0  0  0  0  0  0  0  0  0  0  0  0
   24.9645   73.7773    2.2896 O   0  0  0  0  0  0  0  0  0  0  0  0
   23.2093   75.1687    1.3434 C   0  0  1  0  0  0  0  0  0  0  0  0
   23.8890   73.8162    1.3751 C   0  0  2  0  0  0  0  0  0  0  0  0
   21.8355   74.8219    0.7861 C   0  0  1  0  0  0  0  0  0  0  0  0
   22.7468   72.8985    1.7764 C   0  0  2  0  0  0  0  0  0  0  0  0
   23.8982   75.8934    3.0477 H   0  0  0  0  0  0  0  0  0  0  0  0
   25.6657   74.3777    1.9898 H   0  0  0  0  0  0  0  0  0  0  0  0
   20.6485   71.0195    1.5693 O   0  0  0  0  0  0  0  0  0  0  0  0
   23.4282   67.8469   -0.2886 O   0  0  0  0  0  0  0  0  0  0  0  0
   22.8943   71.5742    1.2424 N   0  0  0  0  0  0  0  0  0  0  0  0
   22.0352   69.4408    0.6451 N   0  0  0  0  0  0  0  0  0  0  0  0
   21.7768   70.7084    1.1832 C   0  0  0  0  0  0  0  0  0  0  0  0
   24.1339   71.1457    0.7832 C   0  0  0  0  0  0  0  0  0  0  0  0
   24.3647   69.9345    0.2728 C   0  0  0  0  0  0  0  0  0  0  0  0
   23.2504   68.9688    0.1761 C   0  0  0  0  0  0  0  0  0  0  0  0
   21.2729   68.8197    0.5954 H   0  0  0  0  0  0  0  0  0  0  0  0
   20.3838   71.5446   -2.0228 O   0  0  0  0  0  0  0  0  0  0  0  0
   20.4593   70.0625   -2.6640 P   0  0  2  0  0  0  0  0  0  0  0  0
   20.0782   69.1009   -1.4189 O   0  0  0  0  0  0  0  0  0  0  0  0
   21.7729   69.7395   -3.3153 O   0  0  0  0  0  0  0  0  0  0  0  0
   19.1848   69.9773   -3.6493 O   0  0  0  0  0  0  0  0  0  0  0  0
   17.5628   71.6515   -4.0681 O   0  0  0  0  0  0  0  0  0  0  0  0
   15.3909   68.1968   -4.7130 O   0  0  0  0  0  0  0  0  0  0  0  0
   17.2399   68.3845   -2.4591 O   0  0  0  0  0  0  0  0  0  0  0  0
   16.3021   69.7898   -6.9676 O   0  0  0  0  0  0  0  0  0  0  0  0
   16.5579   69.0190   -4.6992 C   0  0  2  0  0  0  0  0  0  0  0  0
   16.8400   69.4831   -3.2701 C   0  0  2  0  0  0  0  0  0  0  0  0
   16.2993   70.2224   -5.6085 C   0  0  1  0  0  0  0  0  0  0  0  0
   17.9398   70.5456   -3.2470 C   0  0  1  0  0  0  0  0  0  0  0  0
   17.3731   71.2926   -5.4350 C   0  0  1  0  0  0  0  0  0  0  0  0
   15.5319   67.4253   -4.1418 H   0  0  0  0  0  0  0  0  0  0  0  0
   16.5468   67.7064   -2.4694 H   0  0  0  0  0  0  0  0  0  0  0  0
   15.6231   69.1083   -7.0914 H   0  0  0  0  0  0  0  0  0  0  0  0
   16.9724   73.5868   -5.1564 O   0  0  0  0  0  0  0  0  0  0  0  0
   16.6195   72.7140   -7.2331 O   0  0  0  0  0  0  0  0  0  0  0  0
   16.9463   72.5792   -6.0635 C   0  0  0  0  0  0  0  0  0  0  0  0
  1  4  1  0
  1 24  1  0
  1  2  1  6
  1  3  2  0
 25 28  1  0
 25 24  1  0
 25 26  1  1
 25 27  2  0
  6 11  1  0
  6 12  1  0
 29 36  1  0
 29 37  1  0
  9  7  1  1
  7 13  1  0
 10  8  1  1
  8 14  1  0
  4  5  1  0
 36 28  1  6
 33 30  1  1
 30 38  1  0
 34 31  1  1
 31 39  1  0
 35 32  1  6
 32 40  1  0
 41 43  1  0
 15 19  2  0
 42 43  2  0
 16 22  2  0
 12 17  1  6
 17 19  1  0
 17 20  1  0
 18 19  1  0
 18 22  1  0
 18 23  1  0
  9 10  1  0
  9 11  1  0
 10 12  1  0
 11  5  1  6
 33 34  1  0
 33 35  1  0
 34 36  1  0
 35 37  1  0
 37 43  1  6
 20 21  2  0
 21 22  1  0
M  CHG  3   2  -1  26  -1  41  -1
M  END
>  <COMPND>  (153) 
    udp_gluA.pdb 

>  <AUTHOR>  (153) 
    GENERATED BY OPEN BABEL 3.1.1

>  <MASTER>  (153) 
        0    0    0    0    0    0    0    0   56    0   56    0

>  <minimizedAffinity>  (153) 
-7.43387

>  <CNNscore>  (153) 
0.3524854779

>  <CNNaffinity>  (153) 
3.9358124733

>  <CNN_VS>  (153) 
1.3873167038

>  <CNNaffinity_variance>  (153) 
0.5002608299

$$$$
154
     RDKit          3D

 43 45  0  0  0  0  0  0  0  0999 V2000
   22.6832   72.4535   -3.8299 P   0  0  2  0  0  0  0  0  0  0  0  0
   23.4971   73.4788   -4.7814 O   0  0  0  0  0  0  0  0  0  0  0  0
   23.4796   71.2831   -3.3323 O   0  0  0  0  0  0  0  0  0  0  0  0
   21.3625   72.0896   -4.6909 O   0  0  0  0  0  0  0  0  0  0  0  0
   21.0998   72.8274   -5.8704 C   0  0  0  0  0  0  0  0  0  0  0  0
   19.8410   70.8333   -6.3360 O   0  0  0  0  0  0  0  0  0  0  0  0
   19.7771   71.7626   -9.1862 O   0  0  0  0  0  0  0  0  0  0  0  0
   17.3025   72.4591   -8.2767 O   0  0  0  0  0  0  0  0  0  0  0  0
   19.7152   72.5302   -7.9839 C   0  0  1  0  0  0  0  0  0  0  0  0
   18.3542   72.3826   -7.3373 C   0  0  2  0  0  0  0  0  0  0  0  0
   20.6281   71.8716   -6.9587 C   0  0  1  0  0  0  0  0  0  0  0  0
   18.4601   71.0130   -6.6884 C   0  0  2  0  0  0  0  0  0  0  0  0
   19.2016   72.1641   -9.8565 H   0  0  0  0  0  0  0  0  0  0  0  0
   17.2766   73.3499   -8.6613 H   0  0  0  0  0  0  0  0  0  0  0  0
   15.8522   69.9311   -6.6211 O   0  0  0  0  0  0  0  0  0  0  0  0
   15.4750   70.6479   -2.0837 O   0  0  0  0  0  0  0  0  0  0  0  0
   17.6578   70.9048   -5.5030 N   0  0  0  0  0  0  0  0  0  0  0  0
   15.6664   70.2900   -4.3615 N   0  0  0  0  0  0  0  0  0  0  0  0
   16.3601   70.3457   -5.5776 C   0  0  0  0  0  0  0  0  0  0  0  0
   18.1576   71.3476   -4.2843 C   0  0  0  0  0  0  0  0  0  0  0  0
   17.4846   71.2878   -3.1336 C   0  0  0  0  0  0  0  0  0  0  0  0
   16.1212   70.7182   -3.1248 C   0  0  0  0  0  0  0  0  0  0  0  0
   14.7600   69.9066   -4.3887 H   0  0  0  0  0  0  0  0  0  0  0  0
   22.1054   73.4176   -2.6682 O   0  0  0  0  0  0  0  0  0  0  0  0
   22.8295   74.0887   -1.3880 P   0  0  2  0  0  0  0  0  0  0  0  0
   21.6751   75.0372   -0.7652 O   0  0  0  0  0  0  0  0  0  0  0  0
   24.1102   74.8031   -1.7094 O   0  0  0  0  0  0  0  0  0  0  0  0
   22.9833   72.8838   -0.3265 O   0  0  0  0  0  0  0  0  0  0  0  0
   21.7126   70.8947   -0.1308 O   0  0  0  0  0  0  0  0  0  0  0  0
   22.7951   71.5903    3.7950 O   0  0  0  0  0  0  0  0  0  0  0  0
   21.9351   73.7958    2.0830 O   0  0  0  0  0  0  0  0  0  0  0  0
   24.1298   69.5140    2.2593 O   0  0  0  0  0  0  0  0  0  0  0  0
   22.9524   71.6128    2.3763 C   0  0  2  0  0  0  0  0  0  0  0  0
   21.8147   72.4181    1.7480 C   0  0  2  0  0  0  0  0  0  0  0  0
   22.9219   70.1675    1.8742 C   0  0  1  0  0  0  0  0  0  0  0  0
   21.8180   72.2736    0.2255 C   0  0  1  0  0  0  0  0  0  0  0  0
   22.7985   70.1083    0.3544 C   0  0  1  0  0  0  0  0  0  0  0  0
   22.8113   72.4982    4.1367 H   0  0  0  0  0  0  0  0  0  0  0  0
   21.9340   73.8948    3.0477 H   0  0  0  0  0  0  0  0  0  0  0  0
   24.2206   69.5448    3.2246 H   0  0  0  0  0  0  0  0  0  0  0  0
   21.0955   68.5903   -0.1908 O   0  0  0  0  0  0  0  0  0  0  0  0
   23.2441   67.8431   -0.3471 O   0  0  0  0  0  0  0  0  0  0  0  0
   22.4411   68.7290   -0.0954 C   0  0  0  0  0  0  0  0  0  0  0  0
  1  4  1  0
  1 24  1  0
  1  2  1  6
  1  3  2  0
 25 28  1  0
 25 24  1  0
 25 26  1  1
 25 27  2  0
  6 11  1  0
  6 12  1  0
 29 36  1  0
 29 37  1  0
  9  7  1  6
  7 13  1  0
 10  8  1  6
  8 14  1  0
  4  5  1  0
 36 28  1  1
 33 30  1  1
 30 38  1  0
 34 31  1  6
 31 39  1  0
 35 32  1  6
 32 40  1  0
 41 43  1  0
 15 19  2  0
 42 43  2  0
 16 22  2  0
 12 17  1  1
 17 19  1  0
 17 20  1  0
 18 19  1  0
 18 22  1  0
 18 23  1  0
  9 10  1  0
  9 11  1  0
 10 12  1  0
 11  5  1  1
 33 34  1  0
 33 35  1  0
 34 36  1  0
 35 37  1  0
 37 43  1  1
 20 21  2  0
 21 22  1  0
M  CHG  3   2  -1  26  -1  41  -1
M  END
>  <COMPND>  (154) 
    udp_gluA.pdb 

>  <AUTHOR>  (154) 
    GENERATED BY OPEN BABEL 3.1.1

>  <MASTER>  (154) 
        0    0    0    0    0    0    0    0   56    0   56    0

>  <minimizedAffinity>  (154) 
-8.30020

>  <CNNscore>  (154) 
0.3359262347

>  <CNNaffinity>  (154) 
3.9430363178

>  <CNN_VS>  (154) 
1.3245693445

>  <CNNaffinity_variance>  (154) 
0.5310600996

$$$$
155
     RDKit          3D

 43 45  0  0  0  0  0  0  0  0999 V2000
   20.9391   69.4197   -1.4214 P   0  0  2  0  0  0  0  0  0  0  0  0
   22.0445   68.4427   -2.0866 O   0  0  0  0  0  0  0  0  0  0  0  0
   20.9431   69.4521    0.0789 O   0  0  0  0  0  0  0  0  0  0  0  0
   19.5493   68.9600   -2.1106 O   0  0  0  0  0  0  0  0  0  0  0  0
   19.2910   69.3601   -3.4439 C   0  0  0  0  0  0  0  0  0  0  0  0
   18.1918   71.3848   -4.1295 O   0  0  0  0  0  0  0  0  0  0  0  0
   15.6243   69.8569   -3.8755 O   0  0  0  0  0  0  0  0  0  0  0  0
   16.0694   69.8310   -6.5657 O   0  0  0  0  0  0  0  0  0  0  0  0
   16.9036   69.4064   -4.3216 C   0  0  1  0  0  0  0  0  0  0  0  0
   17.1895   69.9338   -5.7117 C   0  0  2  0  0  0  0  0  0  0  0  0
   17.9661   70.1105   -3.4888 C   0  0  1  0  0  0  0  0  0  0  0  0
   17.5787   71.3747   -5.4284 C   0  0  2  0  0  0  0  0  0  0  0  0
   14.9289   69.4207   -4.3931 H   0  0  0  0  0  0  0  0  0  0  0  0
   15.8618   68.8949   -6.7154 H   0  0  0  0  0  0  0  0  0  0  0  0
   17.6494   74.0585   -6.3053 O   0  0  0  0  0  0  0  0  0  0  0  0
   21.2056   73.2366   -9.1199 O   0  0  0  0  0  0  0  0  0  0  0  0
   18.5127   71.8891   -6.3896 N   0  0  0  0  0  0  0  0  0  0  0  0
   19.4198   73.6463   -7.7070 N   0  0  0  0  0  0  0  0  0  0  0  0
   18.4631   73.2533   -6.7619 C   0  0  0  0  0  0  0  0  0  0  0  0
   19.4646   71.0469   -6.9513 C   0  0  0  0  0  0  0  0  0  0  0  0
   20.3701   71.4361   -7.8509 C   0  0  0  0  0  0  0  0  0  0  0  0
   20.3859   72.8455   -8.2944 C   0  0  0  0  0  0  0  0  0  0  0  0
   19.4037   74.5912   -7.9834 H   0  0  0  0  0  0  0  0  0  0  0  0
   21.2412   70.8426   -2.1264 O   0  0  0  0  0  0  0  0  0  0  0  0
   22.5517   71.7886   -2.0894 P   0  0  2  0  0  0  0  0  0  0  0  0
   23.5340   71.1024   -3.1777 O   0  0  0  0  0  0  0  0  0  0  0  0
   23.1567   71.9493   -0.7248 O   0  0  0  0  0  0  0  0  0  0  0  0
   22.0801   73.1684   -2.7793 O   0  0  0  0  0  0  0  0  0  0  0  0
   20.0523   73.9638   -3.7092 O   0  0  0  0  0  0  0  0  0  0  0  0
   22.8386   75.4489   -6.3736 O   0  0  0  0  0  0  0  0  0  0  0  0
   23.0853   72.7295   -5.3353 O   0  0  0  0  0  0  0  0  0  0  0  0
   21.5895   77.2160   -4.4324 O   0  0  0  0  0  0  0  0  0  0  0  0
   22.3475   75.0288   -5.1007 C   0  0  2  0  0  0  0  0  0  0  0  0
   21.9396   73.5570   -5.1700 C   0  0  2  0  0  0  0  0  0  0  0  0
   21.1395   75.8999   -4.7488 C   0  0  1  0  0  0  0  0  0  0  0  0
   21.1989   73.1342   -3.9005 C   0  0  1  0  0  0  0  0  0  0  0  0
   20.3812   75.3419   -3.5480 C   0  0  1  0  0  0  0  0  0  0  0  0
   23.6068   74.9092   -6.6183 H   0  0  0  0  0  0  0  0  0  0  0  0
   23.5602   72.9924   -6.1389 H   0  0  0  0  0  0  0  0  0  0  0  0
   22.0740   77.5826   -5.1885 H   0  0  0  0  0  0  0  0  0  0  0  0
   18.7241   76.6651   -4.5504 O   0  0  0  0  0  0  0  0  0  0  0  0
   18.3268   75.9314   -2.4284 O   0  0  0  0  0  0  0  0  0  0  0  0
   19.0428   75.9930   -3.4166 C   0  0  0  0  0  0  0  0  0  0  0  0
  1  4  1  0
  1 24  1  0
  1  2  1  1
  1  3  2  0
 25 28  1  0
 25 24  1  0
 25 26  1  6
 25 27  2  0
  6 11  1  0
  6 12  1  0
 29 36  1  0
 29 37  1  0
  9  7  1  1
  7 13  1  0
 10  8  1  6
  8 14  1  0
  4  5  1  0
 36 28  1  1
 33 30  1  6
 30 38  1  0
 34 31  1  1
 31 39  1  0
 35 32  1  1
 32 40  1  0
 41 43  1  0
 15 19  2  0
 42 43  2  0
 16 22  2  0
 12 17  1  6
 17 19  1  0
 17 20  1  0
 18 19  1  0
 18 22  1  0
 18 23  1  0
  9 10  1  0
  9 11  1  0
 10 12  1  0
 11  5  1  6
 33 34  1  0
 33 35  1  0
 34 36  1  0
 35 37  1  0
 37 43  1  6
 20 21  2  0
 21 22  1  0
M  CHG  3   2  -1  26  -1  41  -1
M  END
>  <COMPND>  (155) 
    udp_gluA.pdb 

>  <AUTHOR>  (155) 
    GENERATED BY OPEN BABEL 3.1.1

>  <MASTER>  (155) 
        0    0    0    0    0    0    0    0   56    0   56    0

>  <minimizedAffinity>  (155) 
-6.56753

>  <CNNscore>  (155) 
0.3077079654

>  <CNNaffinity>  (155) 
3.8413174152

>  <CNN_VS>  (155) 
1.1820039749

>  <CNNaffinity_variance>  (155) 
0.7033488750

$$$$
156
     RDKit          3D

 43 45  0  0  0  0  0  0  0  0999 V2000
   22.0895   72.4790   -4.2449 P   0  0  2  0  0  0  0  0  0  0  0  0
   21.3579   73.3455   -3.0905 O   0  0  0  0  0  0  0  0  0  0  0  0
   23.2643   73.1510   -4.8930 O   0  0  0  0  0  0  0  0  0  0  0  0
   20.8837   72.0594   -5.2389 O   0  0  0  0  0  0  0  0  0  0  0  0
   20.7206   72.7808   -6.4461 C   0  0  0  0  0  0  0  0  0  0  0  0
   19.2952   70.8715   -6.7628 O   0  0  0  0  0  0  0  0  0  0  0  0
   18.8730   71.8829   -9.5539 O   0  0  0  0  0  0  0  0  0  0  0  0
   16.6002   72.6860   -8.2789 O   0  0  0  0  0  0  0  0  0  0  0  0
   19.0300   72.6185   -8.3403 C   0  0  1  0  0  0  0  0  0  0  0  0
   17.7706   72.5263   -7.5049 C   0  0  2  0  0  0  0  0  0  0  0  0
   20.0423   71.8830   -7.4728 C   0  0  1  0  0  0  0  0  0  0  0  0
   17.8905   71.1353   -6.9061 C   0  0  2  0  0  0  0  0  0  0  0  0
   18.2306   72.3336  -10.1247 H   0  0  0  0  0  0  0  0  0  0  0  0
   16.5702   73.5873   -8.6376 H   0  0  0  0  0  0  0  0  0  0  0  0
   16.0968   69.0860   -6.1582 O   0  0  0  0  0  0  0  0  0  0  0  0
   15.5442   70.8587   -1.9396 O   0  0  0  0  0  0  0  0  0  0  0  0
   17.2632   71.0370   -5.6186 N   0  0  0  0  0  0  0  0  0  0  0  0
   15.8225   69.9714   -4.0581 N   0  0  0  0  0  0  0  0  0  0  0  0
   16.3776   69.9681   -5.3446 C   0  0  0  0  0  0  0  0  0  0  0  0
   17.5282   71.9908   -4.6434 C   0  0  0  0  0  0  0  0  0  0  0  0
   16.9916   71.9806   -3.4216 C   0  0  0  0  0  0  0  0  0  0  0  0
   16.0550   70.8981   -3.0548 C   0  0  0  0  0  0  0  0  0  0  0  0
   15.2012   69.2381   -3.8447 H   0  0  0  0  0  0  0  0  0  0  0  0
   22.4385   71.0921   -3.4914 O   0  0  0  0  0  0  0  0  0  0  0  0
   21.6160   70.2501   -2.3832 P   0  0  2  0  0  0  0  0  0  0  0  0
   22.3694   68.8174   -2.3731 O   0  0  0  0  0  0  0  0  0  0  0  0
   20.1392   70.1704   -2.6415 O   0  0  0  0  0  0  0  0  0  0  0  0
   22.0137   70.9292   -0.9750 O   0  0  0  0  0  0  0  0  0  0  0  0
   21.8417   70.1799    1.2652 O   0  0  0  0  0  0  0  0  0  0  0  0
   21.0348   74.2121    1.6631 O   0  0  0  0  0  0  0  0  0  0  0  0
   19.8991   72.6864   -0.5543 O   0  0  0  0  0  0  0  0  0  0  0  0
   23.6231   73.1563    2.4609 O   0  0  0  0  0  0  0  0  0  0  0  0
   21.6445   73.0555    1.0900 C   0  0  2  0  0  0  0  0  0  0  0  0
   20.5611   72.1121    0.5667 C   0  0  2  0  0  0  0  0  0  0  0  0
   22.4692   72.3666    2.1796 C   0  0  1  0  0  0  0  0  0  0  0  0
   21.1596   70.7661    0.1558 C   0  0  1  0  0  0  0  0  0  0  0  0
   22.9238   70.9779    1.7399 C   0  0  1  0  0  0  0  0  0  0  0  0
   20.5052   74.6663    0.9889 H   0  0  0  0  0  0  0  0  0  0  0  0
   19.5172   73.5409   -0.3008 H   0  0  0  0  0  0  0  0  0  0  0  0
   23.3476   74.0429    2.7418 H   0  0  0  0  0  0  0  0  0  0  0  0
   24.2074   69.1616    2.4849 O   0  0  0  0  0  0  0  0  0  0  0  0
   23.1935   70.4412    4.0767 O   0  0  0  0  0  0  0  0  0  0  0  0
   23.4337   70.1932    2.9046 C   0  0  0  0  0  0  0  0  0  0  0  0
  1  4  1  0
  1 24  1  0
  1  2  1  1
  1  3  2  0
 25 28  1  0
 25 24  1  0
 25 26  1  1
 25 27  2  0
  6 11  1  0
  6 12  1  0
 29 36  1  0
 29 37  1  0
  9  7  1  6
  7 13  1  0
 10  8  1  6
  8 14  1  0
  4  5  1  0
 36 28  1  6
 33 30  1  1
 30 38  1  0
 34 31  1  6
 31 39  1  0
 35 32  1  6
 32 40  1  0
 41 43  1  0
 15 19  2  0
 42 43  2  0
 16 22  2  0
 12 17  1  1
 17 19  1  0
 17 20  1  0
 18 19  1  0
 18 22  1  0
 18 23  1  0
  9 10  1  0
  9 11  1  0
 10 12  1  0
 11  5  1  1
 33 34  1  0
 33 35  1  0
 34 36  1  0
 35 37  1  0
 37 43  1  1
 20 21  2  0
 21 22  1  0
M  CHG  3   2  -1  26  -1  41  -1
M  END
>  <COMPND>  (156) 
    udp_gluA.pdb 

>  <AUTHOR>  (156) 
    GENERATED BY OPEN BABEL 3.1.1

>  <MASTER>  (156) 
        0    0    0    0    0    0    0    0   56    0   56    0

>  <minimizedAffinity>  (156) 
-7.47256

>  <CNNscore>  (156) 
0.3065165281

>  <CNNaffinity>  (156) 
4.0132632256

>  <CNN_VS>  (156) 
1.2301315069

>  <CNNaffinity_variance>  (156) 
0.1715487093

$$$$
157
     RDKit          3D

 43 45  0  0  0  0  0  0  0  0999 V2000
   22.7076   73.2675   -3.4538 P   0  0  2  0  0  0  0  0  0  0  0  0
   24.1837   73.1250   -4.1018 O   0  0  0  0  0  0  0  0  0  0  0  0
   22.3954   74.6183   -2.8798 O   0  0  0  0  0  0  0  0  0  0  0  0
   22.6158   72.0263   -2.4199 O   0  0  0  0  0  0  0  0  0  0  0  0
   22.7915   72.2825   -1.0386 C   0  0  0  0  0  0  0  0  0  0  0  0
   21.9607   70.0281   -0.9683 O   0  0  0  0  0  0  0  0  0  0  0  0
   21.5330   70.4749    1.9658 O   0  0  0  0  0  0  0  0  0  0  0  0
   23.8518   69.0409    1.9132 O   0  0  0  0  0  0  0  0  0  0  0  0
   22.5793   70.9556    1.1216 C   0  0  1  0  0  0  0  0  0  0  0  0
   23.5400   69.8342    0.7872 C   0  0  2  0  0  0  0  0  0  0  0  0
   21.9758   71.2746   -0.2393 C   0  0  1  0  0  0  0  0  0  0  0  0
   22.7710   69.0663   -0.2743 C   0  0  2  0  0  0  0  0  0  0  0  0
   21.8945   70.2643    2.8414 H   0  0  0  0  0  0  0  0  0  0  0  0
   24.3410   69.5748    2.5595 H   0  0  0  0  0  0  0  0  0  0  0  0
   23.1391   66.2712   -0.4438 O   0  0  0  0  0  0  0  0  0  0  0  0
   26.1214   66.6917   -3.9328 O   0  0  0  0  0  0  0  0  0  0  0  0
   23.6378   68.4185   -1.2178 N   0  0  0  0  0  0  0  0  0  0  0  0
   24.6249   66.4834   -2.1807 N   0  0  0  0  0  0  0  0  0  0  0  0
   23.7511   67.0081   -1.2192 C   0  0  0  0  0  0  0  0  0  0  0  0
   24.3624   69.1776   -2.1286 C   0  0  0  0  0  0  0  0  0  0  0  0
   25.1912   68.6631   -3.0392 C   0  0  0  0  0  0  0  0  0  0  0  0
   25.3674   67.1976   -3.1071 C   0  0  0  0  0  0  0  0  0  0  0  0
   24.7219   65.5038   -2.1997 H   0  0  0  0  0  0  0  0  0  0  0  0
   21.7357   72.8077   -4.6608 O   0  0  0  0  0  0  0  0  0  0  0  0
   21.4607   73.4659   -6.1116 P   0  0  2  0  0  0  0  0  0  0  0  0
   22.7005   72.9282   -7.0027 O   0  0  0  0  0  0  0  0  0  0  0  0
   21.3150   74.9600   -6.0924 O   0  0  0  0  0  0  0  0  0  0  0  0
   20.1757   72.6752   -6.6828 O   0  0  0  0  0  0  0  0  0  0  0  0
   19.0775   70.8041   -5.7331 O   0  0  0  0  0  0  0  0  0  0  0  0
   18.3578   70.2454   -9.7628 O   0  0  0  0  0  0  0  0  0  0  0  0
   20.9889   71.1116   -8.8345 O   0  0  0  0  0  0  0  0  0  0  0  0
   16.2441   71.2276   -8.0255 O   0  0  0  0  0  0  0  0  0  0  0  0
   18.5797   70.9991   -8.5709 C   0  0  2  0  0  0  0  0  0  0  0  0
   19.9469   70.6423   -7.9868 C   0  0  2  0  0  0  0  0  0  0  0  0
   17.4691   70.6507   -7.5773 C   0  0  1  0  0  0  0  0  0  0  0  0
   20.1237   71.2524   -6.5957 C   0  0  1  0  0  0  0  0  0  0  0  0
   17.7801   71.1878   -6.1833 C   0  0  1  0  0  0  0  0  0  0  0  0
   19.0517   70.4504  -10.4091 H   0  0  0  0  0  0  0  0  0  0  0  0
   20.8827   70.7286   -9.7191 H   0  0  0  0  0  0  0  0  0  0  0  0
   16.0348   70.8940   -8.9119 H   0  0  0  0  0  0  0  0  0  0  0  0
   15.7130   71.2652   -5.0775 O   0  0  0  0  0  0  0  0  0  0  0  0
   17.1399   69.5834   -4.4988 O   0  0  0  0  0  0  0  0  0  0  0  0
   16.8762   70.5736   -5.1644 C   0  0  0  0  0  0  0  0  0  0  0  0
  1  4  1  0
  1 24  1  0
  1  2  1  6
  1  3  2  0
 25 28  1  0
 25 24  1  0
 25 26  1  6
 25 27  2  0
  6 11  1  0
  6 12  1  0
 29 36  1  0
 29 37  1  0
  9  7  1  1
  7 13  1  0
 10  8  1  1
  8 14  1  0
  4  5  1  0
 36 28  1  6
 33 30  1  6
 30 38  1  0
 34 31  1  6
 31 39  1  0
 35 32  1  6
 32 40  1  0
 41 43  1  0
 15 19  2  0
 42 43  2  0
 16 22  2  0
 12 17  1  6
 17 19  1  0
 17 20  1  0
 18 19  1  0
 18 22  1  0
 18 23  1  0
  9 10  1  0
  9 11  1  0
 10 12  1  0
 11  5  1  6
 33 34  1  0
 33 35  1  0
 34 36  1  0
 35 37  1  0
 37 43  1  1
 20 21  2  0
 21 22  1  0
M  CHG  3   2  -1  26  -1  41  -1
M  END
>  <COMPND>  (157) 
    udp_gluA.pdb 

>  <AUTHOR>  (157) 
    GENERATED BY OPEN BABEL 3.1.1

>  <MASTER>  (157) 
        0    0    0    0    0    0    0    0   56    0   56    0

>  <minimizedAffinity>  (157) 
-9.34903

>  <CNNscore>  (157) 
0.3027396202

>  <CNNaffinity>  (157) 
4.2301988602

>  <CNN_VS>  (157) 
1.2806488276

>  <CNNaffinity_variance>  (157) 
0.5645767450

$$$$
158
     RDKit          3D

 43 45  0  0  0  0  0  0  0  0999 V2000
   22.3331   72.8402   -3.8976 P   0  0  2  0  0  0  0  0  0  0  0  0
   23.8801   72.8371   -4.3726 O   0  0  0  0  0  0  0  0  0  0  0  0
   21.8067   74.1763   -3.4622 O   0  0  0  0  0  0  0  0  0  0  0  0
   22.2645   71.6630   -2.7897 O   0  0  0  0  0  0  0  0  0  0  0  0
   22.4328   72.0068   -1.4266 C   0  0  0  0  0  0  0  0  0  0  0  0
   21.8408   69.6876   -1.2064 O   0  0  0  0  0  0  0  0  0  0  0  0
   21.3425   70.2818    1.6901 O   0  0  0  0  0  0  0  0  0  0  0  0
   23.7985   69.0979    1.7387 O   0  0  0  0  0  0  0  0  0  0  0  0
   22.3406   70.8120    0.8176 C   0  0  1  0  0  0  0  0  0  0  0  0
   23.4158   69.7774    0.5613 C   0  0  2  0  0  0  0  0  0  0  0  0
   21.7193   70.9746   -0.5629 C   0  0  1  0  0  0  0  0  0  0  0  0
   22.7407   68.8642   -0.4477 C   0  0  2  0  0  0  0  0  0  0  0  0
   21.7161   70.1691    2.5786 H   0  0  0  0  0  0  0  0  0  0  0  0
   24.2235   69.7219    2.3485 H   0  0  0  0  0  0  0  0  0  0  0  0
   23.2520   66.0890   -0.5626 O   0  0  0  0  0  0  0  0  0  0  0  0
   26.3606   66.6158   -3.9246 O   0  0  0  0  0  0  0  0  0  0  0  0
   23.6787   68.2491   -1.3437 N   0  0  0  0  0  0  0  0  0  0  0  0
   24.8005   66.3541   -2.2363 N   0  0  0  0  0  0  0  0  0  0  0  0
   23.8608   66.8461   -1.3209 C   0  0  0  0  0  0  0  0  0  0  0  0
   24.4046   69.0324   -2.2327 C   0  0  0  0  0  0  0  0  0  0  0  0
   25.2968   68.5490   -3.0994 C   0  0  0  0  0  0  0  0  0  0  0  0
   25.5472   67.0933   -3.1394 C   0  0  0  0  0  0  0  0  0  0  0  0
   24.9460   65.3804   -2.2376 H   0  0  0  0  0  0  0  0  0  0  0  0
   21.5635   72.1933   -5.1633 O   0  0  0  0  0  0  0  0  0  0  0  0
   20.1698   72.5954   -5.8770 P   0  0  2  0  0  0  0  0  0  0  0  0
   20.3818   72.1051   -7.4051 O   0  0  0  0  0  0  0  0  0  0  0  0
   19.8024   74.0444   -5.7379 O   0  0  0  0  0  0  0  0  0  0  0  0
   19.0860   71.5683   -5.2664 O   0  0  0  0  0  0  0  0  0  0  0  0
   17.7106   71.8379   -3.3573 O   0  0  0  0  0  0  0  0  0  0  0  0
   18.2435   67.7418   -3.4379 O   0  0  0  0  0  0  0  0  0  0  0  0
   20.4836   69.5375   -3.9785 O   0  0  0  0  0  0  0  0  0  0  0  0
   15.7219   68.9025   -4.3010 O   0  0  0  0  0  0  0  0  0  0  0  0
   18.1071   69.0494   -3.9943 C   0  0  2  0  0  0  0  0  0  0  0  0
   19.2228   69.9502   -3.4639 C   0  0  2  0  0  0  0  0  0  0  0  0
   16.7391   69.5981   -3.5827 C   0  0  1  0  0  0  0  0  0  0  0  0
   18.9795   71.4091   -3.8529 C   0  0  1  0  0  0  0  0  0  0  0  0
   16.6211   71.0881   -3.8900 C   0  0  1  0  0  0  0  0  0  0  0  0
   19.1058   67.3729   -3.6862 H   0  0  0  0  0  0  0  0  0  0  0  0
   20.6443   68.6126   -3.7356 H   0  0  0  0  0  0  0  0  0  0  0  0
   15.7860   67.9528   -4.1142 H   0  0  0  0  0  0  0  0  0  0  0  0
   15.1070   70.9503   -2.1039 O   0  0  0  0  0  0  0  0  0  0  0  0
   14.8422   72.6845   -3.5605 O   0  0  0  0  0  0  0  0  0  0  0  0
   15.4365   71.6802   -3.1983 C   0  0  0  0  0  0  0  0  0  0  0  0
  1  4  1  0
  1 24  1  0
  1  2  1  6
  1  3  2  0
 25 28  1  0
 25 24  1  0
 25 26  1  6
 25 27  2  0
  6 11  1  0
  6 12  1  0
 29 36  1  0
 29 37  1  0
  9  7  1  1
  7 13  1  0
 10  8  1  1
  8 14  1  0
  4  5  1  0
 36 28  1  6
 33 30  1  1
 30 38  1  0
 34 31  1  6
 31 39  1  0
 35 32  1  6
 32 40  1  0
 41 43  1  0
 15 19  2  0
 42 43  2  0
 16 22  2  0
 12 17  1  6
 17 19  1  0
 17 20  1  0
 18 19  1  0
 18 22  1  0
 18 23  1  0
  9 10  1  0
  9 11  1  0
 10 12  1  0
 11  5  1  6
 33 34  1  0
 33 35  1  0
 34 36  1  0
 35 37  1  0
 37 43  1  1
 20 21  2  0
 21 22  1  0
M  CHG  3   2  -1  26  -1  41  -1
M  END
>  <COMPND>  (158) 
    udp_gluA.pdb 

>  <AUTHOR>  (158) 
    GENERATED BY OPEN BABEL 3.1.1

>  <MASTER>  (158) 
        0    0    0    0    0    0    0    0   56    0   56    0

>  <minimizedAffinity>  (158) 
-8.67825

>  <CNNscore>  (158) 
0.3008243740

>  <CNNaffinity>  (158) 
4.0554671288

>  <CNN_VS>  (158) 
1.2199833393

>  <CNNaffinity_variance>  (158) 
1.0500215292

$$$$
159
     RDKit          3D

 43 45  0  0  0  0  0  0  0  0999 V2000
   22.1514   72.1026   -3.4948 P   0  0  2  0  0  0  0  0  0  0  0  0
   21.6126   70.5772   -3.5343 O   0  0  0  0  0  0  0  0  0  0  0  0
   23.5830   72.2798   -3.9081 O   0  0  0  0  0  0  0  0  0  0  0  0
   21.7837   72.6060   -2.0017 O   0  0  0  0  0  0  0  0  0  0  0  0
   22.6569   72.2677   -0.9399 C   0  0  0  0  0  0  0  0  0  0  0  0
   21.9425   69.9830   -0.7219 O   0  0  0  0  0  0  0  0  0  0  0  0
   21.7751   70.5116    2.2250 O   0  0  0  0  0  0  0  0  0  0  0  0
   24.1427   69.1788    1.9922 O   0  0  0  0  0  0  0  0  0  0  0  0
   22.7130   71.0080    1.2697 C   0  0  1  0  0  0  0  0  0  0  0  0
   23.6887   69.9186    0.8781 C   0  0  2  0  0  0  0  0  0  0  0  0
   21.9686   71.2533   -0.0357 C   0  0  1  0  0  0  0  0  0  0  0  0
   22.8590   69.0818   -0.0807 C   0  0  2  0  0  0  0  0  0  0  0  0
   22.2276   70.3472    3.0676 H   0  0  0  0  0  0  0  0  0  0  0  0
   24.6657   69.7555    2.5718 H   0  0  0  0  0  0  0  0  0  0  0  0
   23.1005   66.2839   -0.3805 O   0  0  0  0  0  0  0  0  0  0  0  0
   25.9658   66.7314   -3.9628 O   0  0  0  0  0  0  0  0  0  0  0  0
   23.6614   68.4402   -1.0834 N   0  0  0  0  0  0  0  0  0  0  0  0
   24.5282   66.5095   -2.1637 N   0  0  0  0  0  0  0  0  0  0  0  0
   23.7142   67.0277   -1.1479 C   0  0  0  0  0  0  0  0  0  0  0  0
   24.3834   69.2074   -1.9895 C   0  0  0  0  0  0  0  0  0  0  0  0
   25.1549   68.6990   -2.9524 C   0  0  0  0  0  0  0  0  0  0  0  0
   25.2655   67.2318   -3.0879 C   0  0  0  0  0  0  0  0  0  0  0  0
   24.5824   65.5285   -2.2273 H   0  0  0  0  0  0  0  0  0  0  0  0
   21.0820   72.8892   -4.4172 O   0  0  0  0  0  0  0  0  0  0  0  0
   19.5951   73.4329   -4.0898 P   0  0  2  0  0  0  0  0  0  0  0  0
   19.3626   74.5739   -5.2142 O   0  0  0  0  0  0  0  0  0  0  0  0
   19.4105   73.9091   -2.6780 O   0  0  0  0  0  0  0  0  0  0  0  0
   18.6140   72.2279   -4.5235 O   0  0  0  0  0  0  0  0  0  0  0  0
   18.8989   69.8913   -4.7845 O   0  0  0  0  0  0  0  0  0  0  0  0
   16.4021   70.7927   -7.9502 O   0  0  0  0  0  0  0  0  0  0  0  0
   18.6435   72.5448   -7.2866 O   0  0  0  0  0  0  0  0  0  0  0  0
   15.3403   69.4855   -5.5807 O   0  0  0  0  0  0  0  0  0  0  0  0
   16.9471   70.9360   -6.6386 C   0  0  2  0  0  0  0  0  0  0  0  0
   18.4405   71.2484   -6.7363 C   0  0  2  0  0  0  0  0  0  0  0  0
   16.7265   69.6205   -5.8884 C   0  0  1  0  0  0  0  0  0  0  0  0
   19.1045   71.1820   -5.3602 C   0  0  1  0  0  0  0  0  0  0  0  0
   17.5212   69.5816   -4.5864 C   0  0  1  0  0  0  0  0  0  0  0  0
   16.5307   71.6167   -8.4459 H   0  0  0  0  0  0  0  0  0  0  0  0
   18.2245   72.5942   -8.1597 H   0  0  0  0  0  0  0  0  0  0  0  0
   14.8232   69.5088   -6.4010 H   0  0  0  0  0  0  0  0  0  0  0  0
   18.8380   67.8430   -3.7232 O   0  0  0  0  0  0  0  0  0  0  0  0
   16.5936   67.4707   -3.8758 O   0  0  0  0  0  0  0  0  0  0  0  0
   17.5654   68.1945   -4.0331 C   0  0  0  0  0  0  0  0  0  0  0  0
  1  4  1  0
  1 24  1  0
  1  2  1  1
  1  3  2  0
 25 28  1  0
 25 24  1  0
 25 26  1  6
 25 27  2  0
  6 11  1  0
  6 12  1  0
 29 36  1  0
 29 37  1  0
  9  7  1  1
  7 13  1  0
 10  8  1  1
  8 14  1  0
  4  5  1  0
 36 28  1  1
 33 30  1  6
 30 38  1  0
 34 31  1  1
 31 39  1  0
 35 32  1  1
 32 40  1  0
 41 43  1  0
 15 19  2  0
 42 43  2  0
 16 22  2  0
 12 17  1  6
 17 19  1  0
 17 20  1  0
 18 19  1  0
 18 22  1  0
 18 23  1  0
  9 10  1  0
  9 11  1  0
 10 12  1  0
 11  5  1  6
 33 34  1  0
 33 35  1  0
 34 36  1  0
 35 37  1  0
 37 43  1  6
 20 21  2  0
 21 22  1  0
M  CHG  3   2  -1  26  -1  41  -1
M  END
>  <COMPND>  (159) 
    udp_gluA.pdb 

>  <AUTHOR>  (159) 
    GENERATED BY OPEN BABEL 3.1.1

>  <MASTER>  (159) 
        0    0    0    0    0    0    0    0   56    0   56    0

>  <minimizedAffinity>  (159) 
-8.89463

>  <CNNscore>  (159) 
0.3002474308

>  <CNNaffinity>  (159) 
4.1008958817

>  <CNN_VS>  (159) 
1.2312834263

>  <CNNaffinity_variance>  (159) 
0.8797686696

$$$$
160
     RDKit          3D

 43 45  0  0  0  0  0  0  0  0999 V2000
   19.9987   73.0001   -3.0483 P   0  0  2  0  0  0  0  0  0  0  0  0
   19.1931   74.0958   -2.1711 O   0  0  0  0  0  0  0  0  0  0  0  0
   19.2444   72.4504   -4.2233 O   0  0  0  0  0  0  0  0  0  0  0  0
   20.4880   71.9115   -1.9558 O   0  0  0  0  0  0  0  0  0  0  0  0
   20.5500   70.5499   -2.3389 C   0  0  0  0  0  0  0  0  0  0  0  0
   22.7936   70.9558   -1.5780 O   0  0  0  0  0  0  0  0  0  0  0  0
   23.4663   68.2618   -2.7100 O   0  0  0  0  0  0  0  0  0  0  0  0
   23.2353   67.7463   -0.0422 O   0  0  0  0  0  0  0  0  0  0  0  0
   22.2708   68.6967   -2.0618 C   0  0  1  0  0  0  0  0  0  0  0  0
   22.5016   68.8309   -0.5715 C   0  0  2  0  0  0  0  0  0  0  0  0
   22.0104   70.1388   -2.4749 C   0  0  1  0  0  0  0  0  0  0  0  0
   23.2582   70.1455   -0.4866 C   0  0  2  0  0  0  0  0  0  0  0  0
   23.6533   67.3426   -2.4612 H   0  0  0  0  0  0  0  0  0  0  0  0
   22.7111   66.9331   -0.1192 H   0  0  0  0  0  0  0  0  0  0  0  0
   24.1587   69.2669    2.0419 O   0  0  0  0  0  0  0  0  0  0  0  0
   22.2661   72.8869    4.1769 O   0  0  0  0  0  0  0  0  0  0  0  0
   23.0149   70.8392    0.7465 N   0  0  0  0  0  0  0  0  0  0  0  0
   23.2143   71.0702    3.1030 N   0  0  0  0  0  0  0  0  0  0  0  0
   23.5110   70.3125    1.9624 C   0  0  0  0  0  0  0  0  0  0  0  0
   22.2941   72.0272    0.7434 C   0  0  0  0  0  0  0  0  0  0  0  0
   22.0193   72.7383    1.8387 C   0  0  0  0  0  0  0  0  0  0  0  0
   22.5008   72.2569    3.1501 C   0  0  0  0  0  0  0  0  0  0  0  0
   23.5475   70.7225    3.9617 H   0  0  0  0  0  0  0  0  0  0  0  0
   21.3662   73.7737   -3.4281 O   0  0  0  0  0  0  0  0  0  0  0  0
   22.0333   74.1082   -4.8622 P   0  0  2  0  0  0  0  0  0  0  0  0
   22.8646   72.7625   -5.2064 O   0  0  0  0  0  0  0  0  0  0  0  0
   22.8550   75.3645   -4.8812 O   0  0  0  0  0  0  0  0  0  0  0  0
   20.7981   74.1003   -5.8999 O   0  0  0  0  0  0  0  0  0  0  0  0
   21.0227   73.0743   -8.0227 O   0  0  0  0  0  0  0  0  0  0  0  0
   17.7165   75.4835   -8.5990 O   0  0  0  0  0  0  0  0  0  0  0  0
   20.0344   76.4778   -7.1249 O   0  0  0  0  0  0  0  0  0  0  0  0
   17.3896   72.6158   -8.2525 O   0  0  0  0  0  0  0  0  0  0  0  0
   18.6115   74.6545   -7.8577 C   0  0  2  0  0  0  0  0  0  0  0  0
   20.0113   75.2689   -7.8751 C   0  0  2  0  0  0  0  0  0  0  0  0
   18.6288   73.2721   -8.5138 C   0  0  1  0  0  0  0  0  0  0  0  0
   21.0411   74.3007   -7.2912 C   0  0  1  0  0  0  0  0  0  0  0  0
   19.7624   72.4097   -7.9664 C   0  0  1  0  0  0  0  0  0  0  0  0
   17.6891   76.3676   -8.2004 H   0  0  0  0  0  0  0  0  0  0  0  0
   19.3831   77.0967   -7.4897 H   0  0  0  0  0  0  0  0  0  0  0  0
   16.6597   73.1544   -8.5958 H   0  0  0  0  0  0  0  0  0  0  0  0
   19.3210   71.3397  -10.0064 O   0  0  0  0  0  0  0  0  0  0  0  0
   20.6538   70.2372   -8.5207 O   0  0  0  0  0  0  0  0  0  0  0  0
   19.9781   71.2080   -8.8275 C   0  0  0  0  0  0  0  0  0  0  0  0
  1  4  1  0
  1 24  1  0
  1  2  1  1
  1  3  2  0
 25 28  1  0
 25 24  1  0
 25 26  1  6
 25 27  2  0
  6 11  1  0
  6 12  1  0
 29 36  1  0
 29 37  1  0
  9  7  1  6
  7 13  1  0
 10  8  1  6
  8 14  1  0
  4  5  1  0
 36 28  1  1
 33 30  1  6
 30 38  1  0
 34 31  1  1
 31 39  1  0
 35 32  1  1
 32 40  1  0
 41 43  1  0
 15 19  2  0
 42 43  2  0
 16 22  2  0
 12 17  1  1
 17 19  1  0
 17 20  1  0
 18 19  1  0
 18 22  1  0
 18 23  1  0
  9 10  1  0
  9 11  1  0
 10 12  1  0
 11  5  1  1
 33 34  1  0
 33 35  1  0
 34 36  1  0
 35 37  1  0
 37 43  1  6
 20 21  2  0
 21 22  1  0
M  CHG  3   2  -1  26  -1  41  -1
M  END
>  <COMPND>  (160) 
    udp_gluA.pdb 

>  <AUTHOR>  (160) 
    GENERATED BY OPEN BABEL 3.1.1

>  <MASTER>  (160) 
        0    0    0    0    0    0    0    0   56    0   56    0

>  <minimizedAffinity>  (160) 
-7.55195

>  <CNNscore>  (160) 
0.2960971892

>  <CNNaffinity>  (160) 
3.8618957996

>  <CNN_VS>  (160) 
1.1434965134

>  <CNNaffinity_variance>  (160) 
0.2542153597

$$$$
161
     RDKit          3D

 43 45  0  0  0  0  0  0  0  0999 V2000
   22.6506   70.1019   -2.5022 P   0  0  2  0  0  0  0  0  0  0  0  0
   23.5578   71.2469   -3.1986 O   0  0  0  0  0  0  0  0  0  0  0  0
   23.0352   68.6927   -2.8458 O   0  0  0  0  0  0  0  0  0  0  0  0
   21.1346   70.5272   -2.8751 O   0  0  0  0  0  0  0  0  0  0  0  0
   20.1855   69.5048   -3.1165 C   0  0  0  0  0  0  0  0  0  0  0  0
   18.5962   71.0540   -4.0394 O   0  0  0  0  0  0  0  0  0  0  0  0
   16.5101   69.5378   -2.5094 O   0  0  0  0  0  0  0  0  0  0  0  0
   16.2150   68.5679   -5.0409 O   0  0  0  0  0  0  0  0  0  0  0  0
   17.6825   69.0518   -3.1635 C   0  0  1  0  0  0  0  0  0  0  0  0
   17.4854   69.0569   -4.6647 C   0  0  2  0  0  0  0  0  0  0  0  0
   18.7843   70.0871   -2.9834 C   0  0  1  0  0  0  0  0  0  0  0  0
   17.6696   70.5266   -5.0020 C   0  0  2  0  0  0  0  0  0  0  0  0
   15.7921   68.8930   -2.6109 H   0  0  0  0  0  0  0  0  0  0  0  0
   16.1473   67.6288   -4.8054 H   0  0  0  0  0  0  0  0  0  0  0  0
   16.1268   70.4981   -7.3674 O   0  0  0  0  0  0  0  0  0  0  0  0
   19.8224   71.2938  -10.0045 O   0  0  0  0  0  0  0  0  0  0  0  0
   18.2031   70.7236   -6.3201 N   0  0  0  0  0  0  0  0  0  0  0  0
   17.9690   70.8934   -8.6787 N   0  0  0  0  0  0  0  0  0  0  0  0
   17.3419   70.6901   -7.4423 C   0  0  0  0  0  0  0  0  0  0  0  0
   19.5636   70.9485   -6.4913 C   0  0  0  0  0  0  0  0  0  0  0  0
   20.1468   71.1406   -7.6761 C   0  0  0  0  0  0  0  0  0  0  0  0
   19.3180   71.1200   -8.8992 C   0  0  0  0  0  0  0  0  0  0  0  0
   17.3902   70.8724   -9.4748 H   0  0  0  0  0  0  0  0  0  0  0  0
   22.7533   70.4638   -0.9302 O   0  0  0  0  0  0  0  0  0  0  0  0
   22.1655   69.7093    0.3732 P   0  0  2  0  0  0  0  0  0  0  0  0
   23.4875   69.0808    1.0644 O   0  0  0  0  0  0  0  0  0  0  0  0
   21.0894   68.7068    0.0715 O   0  0  0  0  0  0  0  0  0  0  0  0
   21.7136   70.8984    1.3654 O   0  0  0  0  0  0  0  0  0  0  0  0
   21.0172   73.1325    1.0002 O   0  0  0  0  0  0  0  0  0  0  0  0
   23.2338   73.4988    4.4673 O   0  0  0  0  0  0  0  0  0  0  0  0
   24.1776   71.8108    2.2777 O   0  0  0  0  0  0  0  0  0  0  0  0
   20.3297   73.5666    4.5781 O   0  0  0  0  0  0  0  0  0  0  0  0
   22.3764   72.8450    3.5317 C   0  0  2  0  0  0  0  0  0  0  0  0
   23.0885   72.7218    2.1844 C   0  0  2  0  0  0  0  0  0  0  0  0
   21.1057   73.6854    3.3872 C   0  0  1  0  0  0  0  0  0  0  0  0
   22.1259   72.2377    1.0990 C   0  0  1  0  0  0  0  0  0  0  0  0
   20.2605   73.2187    2.2056 C   0  0  1  0  0  0  0  0  0  0  0  0
   24.0483   72.9827    4.5753 H   0  0  0  0  0  0  0  0  0  0  0  0
   24.7923   72.1116    2.9647 H   0  0  0  0  0  0  0  0  0  0  0  0
   20.8563   73.8604    5.3378 H   0  0  0  0  0  0  0  0  0  0  0  0
   18.1940   74.1761    2.7665 O   0  0  0  0  0  0  0  0  0  0  0  0
   19.2578   75.0018    0.9264 O   0  0  0  0  0  0  0  0  0  0  0  0
   19.2117   74.2290    1.8718 C   0  0  0  0  0  0  0  0  0  0  0  0
  1  4  1  0
  1 24  1  0
  1  2  1  6
  1  3  2  0
 25 28  1  0
 25 24  1  0
 25 26  1  1
 25 27  2  0
  6 11  1  0
  6 12  1  0
 29 36  1  0
 29 37  1  0
  9  7  1  1
  7 13  1  0
 10  8  1  1
  8 14  1  0
  4  5  1  0
 36 28  1  1
 33 30  1  1
 30 38  1  0
 34 31  1  1
 31 39  1  0
 35 32  1  1
 32 40  1  0
 41 43  1  0
 15 19  2  0
 42 43  2  0
 16 22  2  0
 12 17  1  6
 17 19  1  0
 17 20  1  0
 18 19  1  0
 18 22  1  0
 18 23  1  0
  9 10  1  0
  9 11  1  0
 10 12  1  0
 11  5  1  6
 33 34  1  0
 33 35  1  0
 34 36  1  0
 35 37  1  0
 37 43  1  6
 20 21  2  0
 21 22  1  0
M  CHG  3   2  -1  26  -1  41  -1
M  END
>  <COMPND>  (161) 
    udp_gluA.pdb 

>  <AUTHOR>  (161) 
    GENERATED BY OPEN BABEL 3.1.1

>  <MASTER>  (161) 
        0    0    0    0    0    0    0    0   56    0   56    0

>  <minimizedAffinity>  (161) 
-8.12436

>  <CNNscore>  (161) 
0.7290880084

>  <CNNaffinity>  (161) 
4.8173465729

>  <CNN_VS>  (161) 
3.5122697353

>  <CNNaffinity_variance>  (161) 
0.0522600636

$$$$
162
     RDKit          3D

 43 45  0  0  0  0  0  0  0  0999 V2000
   21.0854   74.3243   -4.2685 P   0  0  2  0  0  0  0  0  0  0  0  0
   19.5719   74.6260   -3.7814 O   0  0  0  0  0  0  0  0  0  0  0  0
   22.1057   75.3322   -3.8271 O   0  0  0  0  0  0  0  0  0  0  0  0
   20.9455   74.1202   -5.8675 O   0  0  0  0  0  0  0  0  0  0  0  0
   20.9974   72.8046   -6.3882 C   0  0  0  0  0  0  0  0  0  0  0  0
   19.3106   71.3527   -7.2962 O   0  0  0  0  0  0  0  0  0  0  0  0
   18.1710   73.7999   -8.6016 O   0  0  0  0  0  0  0  0  0  0  0  0
   16.5345   73.4567   -6.4475 O   0  0  0  0  0  0  0  0  0  0  0  0
   18.7931   73.6640   -7.3237 C   0  0  1  0  0  0  0  0  0  0  0  0
   17.8574   72.9707   -6.3563 C   0  0  2  0  0  0  0  0  0  0  0  0
   19.9221   72.6511   -7.4562 C   0  0  1  0  0  0  0  0  0  0  0  0
   17.9780   71.5187   -6.7866 C   0  0  2  0  0  0  0  0  0  0  0  0
   17.4461   74.4422   -8.5420 H   0  0  0  0  0  0  0  0  0  0  0  0
   16.5104   74.3842   -6.1627 H   0  0  0  0  0  0  0  0  0  0  0  0
   15.8025   69.7289   -6.5849 O   0  0  0  0  0  0  0  0  0  0  0  0
   17.3110   68.0620   -2.5612 O   0  0  0  0  0  0  0  0  0  0  0  0
   17.7777   70.6058   -5.6969 N   0  0  0  0  0  0  0  0  0  0  0  0
   16.5553   68.9011   -4.5806 N   0  0  0  0  0  0  0  0  0  0  0  0
   16.6516   69.7490   -5.6918 C   0  0  0  0  0  0  0  0  0  0  0  0
   18.6907   70.5641   -4.6502 C   0  0  0  0  0  0  0  0  0  0  0  0
   18.5856   69.7504   -3.5978 C   0  0  0  0  0  0  0  0  0  0  0  0
   17.4375   68.8239   -3.5150 C   0  0  0  0  0  0  0  0  0  0  0  0
   15.7786   68.2968   -4.5537 H   0  0  0  0  0  0  0  0  0  0  0  0
   21.3467   72.8222   -3.7319 O   0  0  0  0  0  0  0  0  0  0  0  0
   22.7041   72.0886   -3.2491 P   0  0  2  0  0  0  0  0  0  0  0  0
   23.8409   72.7612   -4.1849 O   0  0  0  0  0  0  0  0  0  0  0  0
   22.6525   70.5898   -3.3192 O   0  0  0  0  0  0  0  0  0  0  0  0
   22.9872   72.6805   -1.7753 O   0  0  0  0  0  0  0  0  0  0  0  0
   21.8547   71.0440   -0.4916 O   0  0  0  0  0  0  0  0  0  0  0  0
   24.0895   72.9782    2.3950 O   0  0  0  0  0  0  0  0  0  0  0  0
   22.7260   74.5031    0.3094 O   0  0  0  0  0  0  0  0  0  0  0  0
   24.9021   70.3579    1.4332 O   0  0  0  0  0  0  0  0  0  0  0  0
   23.8014   72.4737    1.0910 C   0  0  2  0  0  0  0  0  0  0  0  0
   22.5191   73.1187    0.5645 C   0  0  2  0  0  0  0  0  0  0  0  0
   23.6291   70.9569    1.1982 C   0  0  1  0  0  0  0  0  0  0  0  0
   22.0539   72.4389   -0.7240 C   0  0  1  0  0  0  0  0  0  0  0  0
   23.0435   70.3708   -0.0833 C   0  0  1  0  0  0  0  0  0  0  0  0
   24.2031   73.9407    2.3517 H   0  0  0  0  0  0  0  0  0  0  0  0
   23.0216   74.9407    1.1227 H   0  0  0  0  0  0  0  0  0  0  0  0
   25.2858   70.7225    2.2461 H   0  0  0  0  0  0  0  0  0  0  0  0
   21.2240   68.9261    0.2393 O   0  0  0  0  0  0  0  0  0  0  0  0
   23.3037   67.9913    0.2200 O   0  0  0  0  0  0  0  0  0  0  0  0
   22.5757   68.9694    0.1397 C   0  0  0  0  0  0  0  0  0  0  0  0
  1  4  1  0
  1 24  1  0
  1  2  1  1
  1  3  2  0
 25 28  1  0
 25 24  1  0
 25 26  1  6
 25 27  2  0
  6 11  1  0
  6 12  1  0
 29 36  1  0
 29 37  1  0
  9  7  1  6
  7 13  1  0
 10  8  1  6
  8 14  1  0
  4  5  1  0
 36 28  1  6
 33 30  1  1
 30 38  1  0
 34 31  1  6
 31 39  1  0
 35 32  1  6
 32 40  1  0
 41 43  1  0
 15 19  2  0
 42 43  2  0
 16 22  2  0
 12 17  1  1
 17 19  1  0
 17 20  1  0
 18 19  1  0
 18 22  1  0
 18 23  1  0
  9 10  1  0
  9 11  1  0
 10 12  1  0
 11  5  1  1
 33 34  1  0
 33 35  1  0
 34 36  1  0
 35 37  1  0
 37 43  1  1
 20 21  2  0
 21 22  1  0
M  CHG  3   2  -1  26  -1  41  -1
M  END
>  <COMPND>  (162) 
    udp_gluA.pdb 

>  <AUTHOR>  (162) 
    GENERATED BY OPEN BABEL 3.1.1

>  <MASTER>  (162) 
        0    0    0    0    0    0    0    0   56    0   56    0

>  <minimizedAffinity>  (162) 
-7.75230

>  <CNNscore>  (162) 
0.6737196445

>  <CNNaffinity>  (162) 
4.4313974380

>  <CNN_VS>  (162) 
2.9855194092

>  <CNNaffinity_variance>  (162) 
0.1515191644

$$$$
163
     RDKit          3D

 43 45  0  0  0  0  0  0  0  0999 V2000
   22.6116   72.4751   -3.7151 P   0  0  2  0  0  0  0  0  0  0  0  0
   22.9703   73.5291   -4.8895 O   0  0  0  0  0  0  0  0  0  0  0  0
   23.7287   71.5495   -3.3316 O   0  0  0  0  0  0  0  0  0  0  0  0
   21.2551   71.7619   -4.2342 O   0  0  0  0  0  0  0  0  0  0  0  0
   20.4862   71.0164   -3.3082 C   0  0  0  0  0  0  0  0  0  0  0  0
   18.7729   72.0910   -4.6073 O   0  0  0  0  0  0  0  0  0  0  0  0
   16.8458   71.1222   -2.5242 O   0  0  0  0  0  0  0  0  0  0  0  0
   16.4914   69.3261   -4.5452 O   0  0  0  0  0  0  0  0  0  0  0  0
   18.0128   70.4834   -3.0425 C   0  0  1  0  0  0  0  0  0  0  0  0
   17.7482   69.9615   -4.4389 C   0  0  2  0  0  0  0  0  0  0  0  0
   19.0621   71.5569   -3.2972 C   0  0  1  0  0  0  0  0  0  0  0  0
   17.8347   71.2294   -5.2712 C   0  0  2  0  0  0  0  0  0  0  0  0
   16.1610   70.4562   -2.3536 H   0  0  0  0  0  0  0  0  0  0  0  0
   16.4869   68.5247   -3.9978 H   0  0  0  0  0  0  0  0  0  0  0  0
   16.1675   70.4547   -7.4152 O   0  0  0  0  0  0  0  0  0  0  0  0
   19.7147   70.2904  -10.3537 O   0  0  0  0  0  0  0  0  0  0  0  0
   18.2963   70.9777   -6.6070 N   0  0  0  0  0  0  0  0  0  0  0  0
   17.9359   70.3726   -8.8764 N   0  0  0  0  0  0  0  0  0  0  0  0
   17.3764   70.5933   -7.6110 C   0  0  0  0  0  0  0  0  0  0  0  0
   19.6453   71.1135   -6.9118 C   0  0  0  0  0  0  0  0  0  0  0  0
   20.1637   70.8999   -8.1228 C   0  0  0  0  0  0  0  0  0  0  0  0
   19.2706   70.4943   -9.2278 C   0  0  0  0  0  0  0  0  0  0  0  0
   17.3154   70.1021   -9.5913 H   0  0  0  0  0  0  0  0  0  0  0  0
   22.0865   73.4283   -2.5200 O   0  0  0  0  0  0  0  0  0  0  0  0
   22.8646   74.0772   -1.2601 P   0  0  2  0  0  0  0  0  0  0  0  0
   21.7114   74.9346   -0.5149 O   0  0  0  0  0  0  0  0  0  0  0  0
   24.0831   74.8716   -1.6317 O   0  0  0  0  0  0  0  0  0  0  0  0
   23.1510   72.8348   -0.2719 O   0  0  0  0  0  0  0  0  0  0  0  0
   22.3678   70.6090   -0.4758 O   0  0  0  0  0  0  0  0  0  0  0  0
   22.7693   70.9870    3.6186 O   0  0  0  0  0  0  0  0  0  0  0  0
   21.6321   73.1626    2.0350 O   0  0  0  0  0  0  0  0  0  0  0  0
   24.7308   69.4782    2.0932 O   0  0  0  0  0  0  0  0  0  0  0  0
   23.0890   71.2346    2.2494 C   0  0  2  0  0  0  0  0  0  0  0  0
   21.8798   71.8500    1.5448 C   0  0  2  0  0  0  0  0  0  0  0  0
   23.4597   69.8987    1.6014 C   0  0  1  0  0  0  0  0  0  0  0  0
   22.1028   71.9167    0.0333 C   0  0  1  0  0  0  0  0  0  0  0  0
   23.5402   70.0198    0.0824 C   0  0  1  0  0  0  0  0  0  0  0  0
   22.5304   71.8220    4.0511 H   0  0  0  0  0  0  0  0  0  0  0  0
   21.4899   73.1279    2.9936 H   0  0  0  0  0  0  0  0  0  0  0  0
   24.6932   69.3974    3.0591 H   0  0  0  0  0  0  0  0  0  0  0  0
   24.2839   68.7037   -1.7111 O   0  0  0  0  0  0  0  0  0  0  0  0
   23.0398   67.6670   -0.1059 O   0  0  0  0  0  0  0  0  0  0  0  0
   23.5737   68.6695   -0.5563 C   0  0  0  0  0  0  0  0  0  0  0  0
  1  4  1  0
  1 24  1  0
  1  2  1  6
  1  3  2  0
 25 28  1  0
 25 24  1  0
 25 26  1  1
 25 27  2  0
  6 11  1  0
  6 12  1  0
 29 36  1  0
 29 37  1  0
  9  7  1  6
  7 13  1  0
 10  8  1  1
  8 14  1  0
  4  5  1  0
 36 28  1  1
 33 30  1  1
 30 38  1  0
 34 31  1  1
 31 39  1  0
 35 32  1  1
 32 40  1  0
 41 43  1  0
 15 19  2  0
 42 43  2  0
 16 22  2  0
 12 17  1  6
 17 19  1  0
 17 20  1  0
 18 19  1  0
 18 22  1  0
 18 23  1  0
  9 10  1  0
  9 11  1  0
 10 12  1  0
 11  5  1  6
 33 34  1  0
 33 35  1  0
 34 36  1  0
 35 37  1  0
 37 43  1  6
 20 21  2  0
 21 22  1  0
M  CHG  3   2  -1  26  -1  41  -1
M  END
>  <COMPND>  (163) 
    udp_gluA.pdb 

>  <AUTHOR>  (163) 
    GENERATED BY OPEN BABEL 3.1.1

>  <MASTER>  (163) 
        0    0    0    0    0    0    0    0   56    0   56    0

>  <minimizedAffinity>  (163) 
-8.24997

>  <CNNscore>  (163) 
0.6694784760

>  <CNNaffinity>  (163) 
4.4756751060

>  <CNN_VS>  (163) 
2.9963681698

>  <CNNaffinity_variance>  (163) 
0.0694256052

$$$$
164
     RDKit          3D

 43 45  0  0  0  0  0  0  0  0999 V2000
   21.4021   70.0415   -0.5115 P   0  0  2  0  0  0  0  0  0  0  0  0
   22.9597   70.3921   -0.2469 O   0  0  0  0  0  0  0  0  0  0  0  0
   21.0113   68.6247   -0.2088 O   0  0  0  0  0  0  0  0  0  0  0  0
   21.1466   70.5312   -2.0322 O   0  0  0  0  0  0  0  0  0  0  0  0
   20.4006   69.6934   -2.8960 C   0  0  0  0  0  0  0  0  0  0  0  0
   18.5094   70.9022   -3.7561 O   0  0  0  0  0  0  0  0  0  0  0  0
   16.8117   69.0021   -2.1753 O   0  0  0  0  0  0  0  0  0  0  0  0
   16.6318   67.9988   -4.7045 O   0  0  0  0  0  0  0  0  0  0  0  0
   18.0351   68.7575   -2.8694 C   0  0  1  0  0  0  0  0  0  0  0  0
   17.7929   68.7271   -4.3636 C   0  0  2  0  0  0  0  0  0  0  0  0
   18.9173   69.9887   -2.7147 C   0  0  1  0  0  0  0  0  0  0  0  0
   17.6740   70.2051   -4.6940 C   0  0  2  0  0  0  0  0  0  0  0  0
   16.2313   68.2290   -2.2599 H   0  0  0  0  0  0  0  0  0  0  0  0
   16.7575   67.0641   -4.4750 H   0  0  0  0  0  0  0  0  0  0  0  0
   16.0338   70.0621   -6.9887 O   0  0  0  0  0  0  0  0  0  0  0  0
   19.4759   71.3821   -9.7552 O   0  0  0  0  0  0  0  0  0  0  0  0
   18.1159   70.5060   -6.0263 N   0  0  0  0  0  0  0  0  0  0  0  0
   17.7500   70.7187   -8.3645 N   0  0  0  0  0  0  0  0  0  0  0  0
   17.2120   70.4027   -7.1100 C   0  0  0  0  0  0  0  0  0  0  0  0
   19.4298   70.8998   -6.2490 C   0  0  0  0  0  0  0  0  0  0  0  0
   19.9281   71.1978   -7.4505 C   0  0  0  0  0  0  0  0  0  0  0  0
   19.0498   71.1144   -8.6358 C   0  0  0  0  0  0  0  0  0  0  0  0
   17.1403   70.6521   -9.1347 H   0  0  0  0  0  0  0  0  0  0  0  0
   20.6254   71.1560    0.3646 O   0  0  0  0  0  0  0  0  0  0  0  0
   20.7896   72.7633    0.4238 P   0  0  2  0  0  0  0  0  0  0  0  0
   22.3248   72.9610    0.8973 O   0  0  0  0  0  0  0  0  0  0  0  0
   19.7801   73.4537    1.2946 O   0  0  0  0  0  0  0  0  0  0  0  0
   20.7756   73.2333   -1.1193 O   0  0  0  0  0  0  0  0  0  0  0  0
   22.4901   73.7434   -2.6716 O   0  0  0  0  0  0  0  0  0  0  0  0
   19.6100   76.5385   -3.6515 O   0  0  0  0  0  0  0  0  0  0  0  0
   20.2036   75.9422   -0.8539 O   0  0  0  0  0  0  0  0  0  0  0  0
   20.0171   74.2087   -5.3418 O   0  0  0  0  0  0  0  0  0  0  0  0
   20.1009   75.2814   -3.1860 C   0  0  2  0  0  0  0  0  0  0  0  0
   20.9849   75.5002   -1.9580 C   0  0  2  0  0  0  0  0  0  0  0  0
   20.9096   74.6415   -4.3168 C   0  0  1  0  0  0  0  0  0  0  0  0
   21.7110   74.2114   -1.5700 C   0  0  1  0  0  0  0  0  0  0  0  0
   21.7038   73.4367   -3.8208 C   0  0  1  0  0  0  0  0  0  0  0  0
   19.0927   76.9639   -2.9495 H   0  0  0  0  0  0  0  0  0  0  0  0
   19.7398   76.7596   -1.0932 H   0  0  0  0  0  0  0  0  0  0  0  0
   19.5054   74.9662   -5.6660 H   0  0  0  0  0  0  0  0  0  0  0  0
   23.8761   72.6445   -4.2150 O   0  0  0  0  0  0  0  0  0  0  0  0
   22.5616   73.0268   -6.0384 O   0  0  0  0  0  0  0  0  0  0  0  0
   22.7280   73.0255   -4.8279 C   0  0  0  0  0  0  0  0  0  0  0  0
  1  4  1  0
  1 24  1  0
  1  2  1  1
  1  3  2  0
 25 28  1  0
 25 24  1  0
 25 26  1  1
 25 27  2  0
  6 11  1  0
  6 12  1  0
 29 36  1  0
 29 37  1  0
  9  7  1  1
  7 13  1  0
 10  8  1  1
  8 14  1  0
  4  5  1  0
 36 28  1  6
 33 30  1  6
 30 38  1  0
 34 31  1  1
 31 39  1  0
 35 32  1  6
 32 40  1  0
 41 43  1  0
 15 19  2  0
 42 43  2  0
 16 22  2  0
 12 17  1  6
 17 19  1  0
 17 20  1  0
 18 19  1  0
 18 22  1  0
 18 23  1  0
  9 10  1  0
  9 11  1  0
 10 12  1  0
 11  5  1  6
 33 34  1  0
 33 35  1  0
 34 36  1  0
 35 37  1  0
 37 43  1  6
 20 21  2  0
 21 22  1  0
M  CHG  3   2  -1  26  -1  41  -1
M  END
>  <COMPND>  (164) 
    udp_gluA.pdb 

>  <AUTHOR>  (164) 
    GENERATED BY OPEN BABEL 3.1.1

>  <MASTER>  (164) 
        0    0    0    0    0    0    0    0   56    0   56    0

>  <minimizedAffinity>  (164) 
-7.03024

>  <CNNscore>  (164) 
0.6423670053

>  <CNNaffinity>  (164) 
4.4262933731

>  <CNN_VS>  (164) 
2.8433048725

>  <CNNaffinity_variance>  (164) 
0.1087597385

$$$$
165
     RDKit          3D

 43 45  0  0  0  0  0  0  0  0999 V2000
   22.8865   72.3010   -3.5785 P   0  0  2  0  0  0  0  0  0  0  0  0
   23.9243   73.1892   -4.4463 O   0  0  0  0  0  0  0  0  0  0  0  0
   23.4867   71.0998   -2.9087 O   0  0  0  0  0  0  0  0  0  0  0  0
   21.6768   71.9992   -4.6097 O   0  0  0  0  0  0  0  0  0  0  0  0
   20.9068   73.0877   -5.0859 C   0  0  0  0  0  0  0  0  0  0  0  0
   19.9884   71.3449   -6.4631 O   0  0  0  0  0  0  0  0  0  0  0  0
   18.9736   73.5382   -8.2384 O   0  0  0  0  0  0  0  0  0  0  0  0
   16.7504   72.8422   -6.8210 O   0  0  0  0  0  0  0  0  0  0  0  0
   19.0891   73.5077   -6.8156 C   0  0  1  0  0  0  0  0  0  0  0  0
   18.0107   72.6270   -6.2210 C   0  0  2  0  0  0  0  0  0  0  0  0
   20.3566   72.7412   -6.4634 C   0  0  1  0  0  0  0  0  0  0  0  0
   18.5564   71.2350   -6.4901 C   0  0  2  0  0  0  0  0  0  0  0  0
   18.1708   74.0229   -8.4877 H   0  0  0  0  0  0  0  0  0  0  0  0
   16.4462   73.7417   -6.6203 H   0  0  0  0  0  0  0  0  0  0  0  0
   16.0982   69.8454   -6.5418 O   0  0  0  0  0  0  0  0  0  0  0  0
   17.0733   67.6055   -2.6333 O   0  0  0  0  0  0  0  0  0  0  0  0
   18.1424   70.2829   -5.4986 N   0  0  0  0  0  0  0  0  0  0  0  0
   16.5858   68.7319   -4.5945 N   0  0  0  0  0  0  0  0  0  0  0  0
   16.8874   69.6403   -5.6177 C   0  0  0  0  0  0  0  0  0  0  0  0
   18.9755   69.9930   -4.4249 C   0  0  0  0  0  0  0  0  0  0  0  0
   18.6742   69.1247   -3.4575 C   0  0  0  0  0  0  0  0  0  0  0  0
   17.3813   68.4110   -3.5066 C   0  0  0  0  0  0  0  0  0  0  0  0
   15.7165   68.2736   -4.6547 H   0  0  0  0  0  0  0  0  0  0  0  0
   22.2401   73.3834   -2.5669 O   0  0  0  0  0  0  0  0  0  0  0  0
   22.8412   74.0898   -1.2427 P   0  0  2  0  0  0  0  0  0  0  0  0
   21.5945   74.9626   -0.6909 O   0  0  0  0  0  0  0  0  0  0  0  0
   24.0933   74.8827   -1.4822 O   0  0  0  0  0  0  0  0  0  0  0  0
   23.0021   72.8902   -0.1761 O   0  0  0  0  0  0  0  0  0  0  0  0
   21.7274   70.9002   -0.0200 O   0  0  0  0  0  0  0  0  0  0  0  0
   22.8504   71.4898    3.9118 O   0  0  0  0  0  0  0  0  0  0  0  0
   21.9803   73.7417    2.2667 O   0  0  0  0  0  0  0  0  0  0  0  0
   24.1638   69.4508    2.3092 O   0  0  0  0  0  0  0  0  0  0  0  0
   22.9938   71.5490    2.4927 C   0  0  2  0  0  0  0  0  0  0  0  0
   21.8525   72.3736    1.8969 C   0  0  2  0  0  0  0  0  0  0  0  0
   22.9541   70.1174    1.9532 C   0  0  1  0  0  0  0  0  0  0  0  0
   21.8405   72.2690    0.3712 C   0  0  1  0  0  0  0  0  0  0  0  0
   22.8156   70.0983    0.4337 C   0  0  1  0  0  0  0  0  0  0  0  0
   22.8727   72.3884    4.2770 H   0  0  0  0  0  0  0  0  0  0  0  0
   21.9890   73.8154    3.2335 H   0  0  0  0  0  0  0  0  0  0  0  0
   24.2641   69.4560    3.2739 H   0  0  0  0  0  0  0  0  0  0  0  0
   21.1028   68.6010   -0.1373 O   0  0  0  0  0  0  0  0  0  0  0  0
   23.2474   67.8503   -0.3288 O   0  0  0  0  0  0  0  0  0  0  0  0
   22.4496   68.7324   -0.0485 C   0  0  0  0  0  0  0  0  0  0  0  0
  1  4  1  0
  1 24  1  0
  1  2  1  6
  1  3  2  0
 25 28  1  0
 25 24  1  0
 25 26  1  1
 25 27  2  0
  6 11  1  0
  6 12  1  0
 29 36  1  0
 29 37  1  0
  9  7  1  6
  7 13  1  0
 10  8  1  6
  8 14  1  0
  4  5  1  0
 36 28  1  6
 33 30  1  1
 30 38  1  0
 34 31  1  6
 31 39  1  0
 35 32  1  6
 32 40  1  0
 41 43  1  0
 15 19  2  0
 42 43  2  0
 16 22  2  0
 12 17  1  1
 17 19  1  0
 17 20  1  0
 18 19  1  0
 18 22  1  0
 18 23  1  0
  9 10  1  0
  9 11  1  0
 10 12  1  0
 11  5  1  1
 33 34  1  0
 33 35  1  0
 34 36  1  0
 35 37  1  0
 37 43  1  1
 20 21  2  0
 21 22  1  0
M  CHG  3   2  -1  26  -1  41  -1
M  END
>  <COMPND>  (165) 
    udp_gluA.pdb 

>  <AUTHOR>  (165) 
    GENERATED BY OPEN BABEL 3.1.1

>  <MASTER>  (165) 
        0    0    0    0    0    0    0    0   56    0   56    0

>  <minimizedAffinity>  (165) 
-8.34981

>  <CNNscore>  (165) 
0.5757489204

>  <CNNaffinity>  (165) 
4.4310278893

>  <CNN_VS>  (165) 
2.5511596203

>  <CNNaffinity_variance>  (165) 
0.2783873379

$$$$
166
     RDKit          3D

 43 45  0  0  0  0  0  0  0  0999 V2000
   22.3985   73.0120   -4.1600 P   0  0  2  0  0  0  0  0  0  0  0  0
   21.9540   74.3078   -3.2985 O   0  0  0  0  0  0  0  0  0  0  0  0
   23.8805   72.8188   -4.2948 O   0  0  0  0  0  0  0  0  0  0  0  0
   21.5814   73.1691   -5.5477 O   0  0  0  0  0  0  0  0  0  0  0  0
   20.7437   72.1060   -5.9631 C   0  0  0  0  0  0  0  0  0  0  0  0
   18.4838   71.5712   -6.5833 O   0  0  0  0  0  0  0  0  0  0  0  0
   17.8388   74.4383   -5.9874 O   0  0  0  0  0  0  0  0  0  0  0  0
   16.9535   73.1514   -3.7522 O   0  0  0  0  0  0  0  0  0  0  0  0
   18.7563   73.5632   -5.3310 C   0  0  1  0  0  0  0  0  0  0  0  0
   18.0063   72.5580   -4.4829 C   0  0  2  0  0  0  0  0  0  0  0  0
   19.3957   72.6739   -6.3885 C   0  0  1  0  0  0  0  0  0  0  0  0
   17.5105   71.5721   -5.5269 C   0  0  2  0  0  0  0  0  0  0  0  0
   17.4176   75.0166   -5.3318 H   0  0  0  0  0  0  0  0  0  0  0  0
   17.3207   73.7702   -3.1008 H   0  0  0  0  0  0  0  0  0  0  0  0
   15.6471   69.6653   -6.4590 O   0  0  0  0  0  0  0  0  0  0  0  0
   17.1173   66.4919   -3.4570 O   0  0  0  0  0  0  0  0  0  0  0  0
   17.3847   70.2400   -5.0068 N   0  0  0  0  0  0  0  0  0  0  0  0
   16.3805   68.0870   -4.9622 N   0  0  0  0  0  0  0  0  0  0  0  0
   16.4160   69.3605   -5.5453 C   0  0  0  0  0  0  0  0  0  0  0  0
   18.2157   69.8164   -3.9767 C   0  0  0  0  0  0  0  0  0  0  0  0
   18.1701   68.5993   -3.4313 C   0  0  0  0  0  0  0  0  0  0  0  0
   17.1855   67.6199   -3.9359 C   0  0  0  0  0  0  0  0  0  0  0  0
   15.7127   67.4577   -5.3192 H   0  0  0  0  0  0  0  0  0  0  0  0
   21.6262   71.8009   -3.4187 O   0  0  0  0  0  0  0  0  0  0  0  0
   22.1903   70.5169   -2.6145 P   0  0  2  0  0  0  0  0  0  0  0  0
   23.7749   70.5409   -2.9440 O   0  0  0  0  0  0  0  0  0  0  0  0
   21.5065   69.2255   -2.9589 O   0  0  0  0  0  0  0  0  0  0  0  0
   22.0916   70.9325   -1.0588 O   0  0  0  0  0  0  0  0  0  0  0  0
   22.8726   73.0246   -0.2700 O   0  0  0  0  0  0  0  0  0  0  0  0
   22.8061   70.7883    3.2030 O   0  0  0  0  0  0  0  0  0  0  0  0
   23.7924   69.6250    0.7114 O   0  0  0  0  0  0  0  0  0  0  0  0
   20.7377   72.7687    2.7030 O   0  0  0  0  0  0  0  0  0  0  0  0
   22.3731   71.1904    1.9035 C   0  0  2  0  0  0  0  0  0  0  0  0
   23.5155   71.0073    0.9040 C   0  0  2  0  0  0  0  0  0  0  0  0
   21.9607   72.6623    1.9769 C   0  0  1  0  0  0  0  0  0  0  0  0
   23.1684   71.6385   -0.4451 C   0  0  1  0  0  0  0  0  0  0  0  0
   21.7547   73.2531    0.5851 C   0  0  1  0  0  0  0  0  0  0  0  0
   23.0733   69.8559    3.1809 H   0  0  0  0  0  0  0  0  0  0  0  0
   24.0131   69.2181    1.5635 H   0  0  0  0  0  0  0  0  0  0  0  0
   20.8552   72.3960    3.5907 H   0  0  0  0  0  0  0  0  0  0  0  0
   22.0614   75.1918    1.8692 O   0  0  0  0  0  0  0  0  0  0  0  0
   21.3257   75.4676   -0.2713 O   0  0  0  0  0  0  0  0  0  0  0  0
   21.6793   74.7440    0.6476 C   0  0  0  0  0  0  0  0  0  0  0  0
  1  4  1  0
  1 24  1  0
  1  2  1  1
  1  3  2  0
 25 28  1  0
 25 24  1  0
 25 26  1  6
 25 27  2  0
  6 11  1  0
  6 12  1  0
 29 36  1  0
 29 37  1  0
  9  7  1  6
  7 13  1  0
 10  8  1  6
  8 14  1  0
  4  5  1  0
 36 28  1  1
 33 30  1  1
 30 38  1  0
 34 31  1  6
 31 39  1  0
 35 32  1  1
 32 40  1  0
 41 43  1  0
 15 19  2  0
 42 43  2  0
 16 22  2  0
 12 17  1  1
 17 19  1  0
 17 20  1  0
 18 19  1  0
 18 22  1  0
 18 23  1  0
  9 10  1  0
  9 11  1  0
 10 12  1  0
 11  5  1  1
 33 34  1  0
 33 35  1  0
 34 36  1  0
 35 37  1  0
 37 43  1  1
 20 21  2  0
 21 22  1  0
M  CHG  3   2  -1  26  -1  41  -1
M  END
>  <COMPND>  (166) 
    udp_gluA.pdb 

>  <AUTHOR>  (166) 
    GENERATED BY OPEN BABEL 3.1.1

>  <MASTER>  (166) 
        0    0    0    0    0    0    0    0   56    0   56    0

>  <minimizedAffinity>  (166) 
-7.11326

>  <CNNscore>  (166) 
0.5688622594

>  <CNNaffinity>  (166) 
4.2305507660

>  <CNN_VS>  (166) 
2.4066007137

>  <CNNaffinity_variance>  (166) 
0.1576077640

$$$$
167
     RDKit          3D

 43 45  0  0  0  0  0  0  0  0999 V2000
   22.5678   69.9902   -2.3008 P   0  0  2  0  0  0  0  0  0  0  0  0
   23.8617   70.2368   -3.2410 O   0  0  0  0  0  0  0  0  0  0  0  0
   21.6572   68.8865   -2.7530 O   0  0  0  0  0  0  0  0  0  0  0  0
   21.8907   71.4547   -2.1797 O   0  0  0  0  0  0  0  0  0  0  0  0
   21.4512   72.0962   -3.3629 C   0  0  0  0  0  0  0  0  0  0  0  0
   19.4832   72.9464   -4.4501 O   0  0  0  0  0  0  0  0  0  0  0  0
   18.0015   72.1783   -1.9589 O   0  0  0  0  0  0  0  0  0  0  0  0
   17.3994   70.1368   -3.6637 O   0  0  0  0  0  0  0  0  0  0  0  0
   19.0937   71.5192   -2.6002 C   0  0  1  0  0  0  0  0  0  0  0  0
   18.6195   70.8213   -3.8574 C   0  0  2  0  0  0  0  0  0  0  0  0
   20.0235   72.5870   -3.1600 C   0  0  1  0  0  0  0  0  0  0  0  0
   18.4920   71.9795   -4.8321 C   0  0  2  0  0  0  0  0  0  0  0  0
   17.3935   71.5162   -1.5933 H   0  0  0  0  0  0  0  0  0  0  0  0
   17.5332   69.4090   -3.0357 H   0  0  0  0  0  0  0  0  0  0  0  0
   16.5030   70.9761   -6.5680 O   0  0  0  0  0  0  0  0  0  0  0  0
   19.5113   70.4810  -10.0247 O   0  0  0  0  0  0  0  0  0  0  0  0
   18.7280   71.5808   -6.1908 N   0  0  0  0  0  0  0  0  0  0  0  0
   18.0034   70.7295   -8.2876 N   0  0  0  0  0  0  0  0  0  0  0  0
   17.6596   71.0897   -6.9780 C   0  0  0  0  0  0  0  0  0  0  0  0
   20.0045   71.6794   -6.7309 C   0  0  0  0  0  0  0  0  0  0  0  0
   20.3168   71.3323   -7.9810 C   0  0  0  0  0  0  0  0  0  0  0  0
   19.2583   70.8089   -8.8694 C   0  0  0  0  0  0  0  0  0  0  0  0
   17.2766   70.3829   -8.8542 H   0  0  0  0  0  0  0  0  0  0  0  0
   23.2191   69.7690   -0.8380 O   0  0  0  0  0  0  0  0  0  0  0  0
   22.6846   70.1713    0.6337 P   0  0  2  0  0  0  0  0  0  0  0  0
   23.5285   69.1969    1.6129 O   0  0  0  0  0  0  0  0  0  0  0  0
   21.1954   70.0724    0.7964 O   0  0  0  0  0  0  0  0  0  0  0  0
   23.2911   71.6420    0.9015 O   0  0  0  0  0  0  0  0  0  0  0  0
   23.6266   73.0406    2.7832 O   0  0  0  0  0  0  0  0  0  0  0  0
   22.1849   75.7212   -0.0104 O   0  0  0  0  0  0  0  0  0  0  0  0
   20.9935   73.0663    0.2469 O   0  0  0  0  0  0  0  0  0  0  0  0
   25.0161   75.6814    0.6482 O   0  0  0  0  0  0  0  0  0  0  0  0
   22.8900   74.5664    0.4448 C   0  0  2  0  0  0  0  0  0  0  0  0
   21.9227   73.6278    1.1666 C   0  0  2  0  0  0  0  0  0  0  0  0
   23.9925   75.0310    1.3990 C   0  0  1  0  0  0  0  0  0  0  0  0
   22.6776   72.4961    1.8653 C   0  0  1  0  0  0  0  0  0  0  0  0
   24.6107   73.8556    2.1504 C   0  0  1  0  0  0  0  0  0  0  0  0
   21.4790   75.4505   -0.6184 H   0  0  0  0  0  0  0  0  0  0  0  0
   20.5111   73.7788   -0.2004 H   0  0  0  0  0  0  0  0  0  0  0  0
   24.6356   76.4315    0.1650 H   0  0  0  0  0  0  0  0  0  0  0  0
   26.7172   74.5559    2.9081 O   0  0  0  0  0  0  0  0  0  0  0  0
   25.0246   74.5111    4.4353 O   0  0  0  0  0  0  0  0  0  0  0  0
   25.4373   74.3358    3.2987 C   0  0  0  0  0  0  0  0  0  0  0  0
  1  4  1  0
  1 24  1  0
  1  2  1  6
  1  3  2  0
 25 28  1  0
 25 24  1  0
 25 26  1  1
 25 27  2  0
  6 11  1  0
  6 12  1  0
 29 36  1  0
 29 37  1  0
  9  7  1  6
  7 13  1  0
 10  8  1  1
  8 14  1  0
  4  5  1  0
 36 28  1  6
 33 30  1  1
 30 38  1  0
 34 31  1  6
 31 39  1  0
 35 32  1  6
 32 40  1  0
 41 43  1  0
 15 19  2  0
 42 43  2  0
 16 22  2  0
 12 17  1  6
 17 19  1  0
 17 20  1  0
 18 19  1  0
 18 22  1  0
 18 23  1  0
  9 10  1  0
  9 11  1  0
 10 12  1  0
 11  5  1  6
 33 34  1  0
 33 35  1  0
 34 36  1  0
 35 37  1  0
 37 43  1  1
 20 21  2  0
 21 22  1  0
M  CHG  3   2  -1  26  -1  41  -1
M  END
>  <COMPND>  (167) 
    udp_gluA.pdb 

>  <AUTHOR>  (167) 
    GENERATED BY OPEN BABEL 3.1.1

>  <MASTER>  (167) 
        0    0    0    0    0    0    0    0   56    0   56    0

>  <minimizedAffinity>  (167) 
-7.19801

>  <CNNscore>  (167) 
0.4911065996

>  <CNNaffinity>  (167) 
4.3632569313

>  <CNN_VS>  (167) 
2.1428241730

>  <CNNaffinity_variance>  (167) 
0.0600573234

$$$$
168
     RDKit          3D

 43 45  0  0  0  0  0  0  0  0999 V2000
   21.9121   72.4676   -4.0529 P   0  0  2  0  0  0  0  0  0  0  0  0
   21.4502   74.0180   -4.0959 O   0  0  0  0  0  0  0  0  0  0  0  0
   23.3967   72.2488   -4.0484 O   0  0  0  0  0  0  0  0  0  0  0  0
   21.1054   71.7877   -5.2796 O   0  0  0  0  0  0  0  0  0  0  0  0
   20.8667   72.5595   -6.4422 C   0  0  0  0  0  0  0  0  0  0  0  0
   19.3448   70.7272   -6.7649 O   0  0  0  0  0  0  0  0  0  0  0  0
   18.9939   71.7540   -9.5602 O   0  0  0  0  0  0  0  0  0  0  0  0
   16.7586   72.6780   -8.3010 O   0  0  0  0  0  0  0  0  0  0  0  0
   19.1818   72.4827   -8.3468 C   0  0  1  0  0  0  0  0  0  0  0  0
   17.9141   72.4585   -7.5193 C   0  0  2  0  0  0  0  0  0  0  0  0
   20.1485   71.6966   -7.4718 C   0  0  1  0  0  0  0  0  0  0  0  0
   17.9569   71.0643   -6.9175 C   0  0  2  0  0  0  0  0  0  0  0  0
   18.3797   72.2368  -10.1359 H   0  0  0  0  0  0  0  0  0  0  0  0
   16.7783   73.5790   -8.6613 H   0  0  0  0  0  0  0  0  0  0  0  0
   16.0313   69.1314   -6.1877 O   0  0  0  0  0  0  0  0  0  0  0  0
   15.5694   70.9202   -1.9651 O   0  0  0  0  0  0  0  0  0  0  0  0
   17.3173   71.0017   -5.6338 N   0  0  0  0  0  0  0  0  0  0  0  0
   15.8024   70.0248   -4.0856 N   0  0  0  0  0  0  0  0  0  0  0  0
   16.3634   69.9907   -5.3690 C   0  0  0  0  0  0  0  0  0  0  0  0
   17.6373   71.9329   -4.6533 C   0  0  0  0  0  0  0  0  0  0  0  0
   17.0942   71.9526   -3.4346 C   0  0  0  0  0  0  0  0  0  0  0  0
   16.0881   70.9310   -3.0773 C   0  0  0  0  0  0  0  0  0  0  0  0
   15.1341   69.3320   -3.8786 H   0  0  0  0  0  0  0  0  0  0  0  0
   21.1433   71.8959   -2.7510 O   0  0  0  0  0  0  0  0  0  0  0  0
   21.1021   70.4128   -2.1088 P   0  0  2  0  0  0  0  0  0  0  0  0
   22.2194   69.6095   -2.9612 O   0  0  0  0  0  0  0  0  0  0  0  0
   19.7426   69.7760   -2.1163 O   0  0  0  0  0  0  0  0  0  0  0  0
   21.7533   70.5835   -0.6427 O   0  0  0  0  0  0  0  0  0  0  0  0
   23.3072   72.2290    0.0553 O   0  0  0  0  0  0  0  0  0  0  0  0
   24.2203   69.0867    2.5774 O   0  0  0  0  0  0  0  0  0  0  0  0
   23.6668   68.6035   -0.2501 O   0  0  0  0  0  0  0  0  0  0  0  0
   22.7254   71.3716    3.5751 O   0  0  0  0  0  0  0  0  0  0  0  0
   23.3744   69.9092    1.7737 C   0  0  2  0  0  0  0  0  0  0  0  0
   23.8663   69.8891    0.3262 C   0  0  2  0  0  0  0  0  0  0  0  0
   23.4274   71.3322    2.3341 C   0  0  1  0  0  0  0  0  0  0  0  0
   23.1307   70.9322   -0.5162 C   0  0  1  0  0  0  0  0  0  0  0  0
   22.7838   72.3320    1.3777 C   0  0  1  0  0  0  0  0  0  0  0  0
   24.2026   68.1773    2.2399 H   0  0  0  0  0  0  0  0  0  0  0  0
   24.1307   67.9367    0.2796 H   0  0  0  0  0  0  0  0  0  0  0  0
   23.1250   70.7396    4.1929 H   0  0  0  0  0  0  0  0  0  0  0  0
   22.3303   74.1580    2.7782 O   0  0  0  0  0  0  0  0  0  0  0  0
   24.0030   74.4101    1.2493 O   0  0  0  0  0  0  0  0  0  0  0  0
   23.1264   73.7335    1.7658 C   0  0  0  0  0  0  0  0  0  0  0  0
  1  4  1  0
  1 24  1  0
  1  2  1  6
  1  3  2  0
 25 28  1  0
 25 24  1  0
 25 26  1  6
 25 27  2  0
  6 11  1  0
  6 12  1  0
 29 36  1  0
 29 37  1  0
  9  7  1  6
  7 13  1  0
 10  8  1  6
  8 14  1  0
  4  5  1  0
 36 28  1  1
 33 30  1  1
 30 38  1  0
 34 31  1  6
 31 39  1  0
 35 32  1  1
 32 40  1  0
 41 43  1  0
 15 19  2  0
 42 43  2  0
 16 22  2  0
 12 17  1  1
 17 19  1  0
 17 20  1  0
 18 19  1  0
 18 22  1  0
 18 23  1  0
  9 10  1  0
  9 11  1  0
 10 12  1  0
 11  5  1  1
 33 34  1  0
 33 35  1  0
 34 36  1  0
 35 37  1  0
 37 43  1  1
 20 21  2  0
 21 22  1  0
M  CHG  3   2  -1  26  -1  41  -1
M  END
>  <COMPND>  (168) 
    udp_gluA.pdb 

>  <AUTHOR>  (168) 
    GENERATED BY OPEN BABEL 3.1.1

>  <MASTER>  (168) 
        0    0    0    0    0    0    0    0   56    0   56    0

>  <minimizedAffinity>  (168) 
-8.06510

>  <CNNscore>  (168) 
0.4283430576

>  <CNNaffinity>  (168) 
4.1817841530

>  <CNN_VS>  (168) 
1.7912381887

>  <CNNaffinity_variance>  (168) 
0.2628173530

$$$$
169
     RDKit          3D

 43 45  0  0  0  0  0  0  0  0999 V2000
   23.1783   74.6267   -4.2800 P   0  0  2  0  0  0  0  0  0  0  0  0
   24.1834   73.3619   -4.1844 O   0  0  0  0  0  0  0  0  0  0  0  0
   23.1610   75.3232   -5.6091 O   0  0  0  0  0  0  0  0  0  0  0  0
   23.5864   75.5441   -3.0113 O   0  0  0  0  0  0  0  0  0  0  0  0
   23.6632   74.9368   -1.7346 C   0  0  0  0  0  0  0  0  0  0  0  0
   21.8613   73.9248   -0.5071 O   0  0  0  0  0  0  0  0  0  0  0  0
   21.2833   76.6720    0.5465 O   0  0  0  0  0  0  0  0  0  0  0  0
   22.6238   75.5095    2.6172 O   0  0  0  0  0  0  0  0  0  0  0  0
   22.5407   76.0635    0.2511 C   0  0  1  0  0  0  0  0  0  0  0  0
   22.8903   75.0412    1.3117 C   0  0  2  0  0  0  0  0  0  0  0  0
   22.3621   75.1922   -0.9847 C   0  0  1  0  0  0  0  0  0  0  0  0
   22.0094   73.8670    0.9205 C   0  0  2  0  0  0  0  0  0  0  0  0
   21.3724   77.2339    1.3327 H   0  0  0  0  0  0  0  0  0  0  0  0
   23.2100   76.2564    2.8186 H   0  0  0  0  0  0  0  0  0  0  0  0
   20.5348   71.4918    1.3207 O   0  0  0  0  0  0  0  0  0  0  0  0
   24.3388   69.0779    2.2937 O   0  0  0  0  0  0  0  0  0  0  0  0
   22.5892   72.6036    1.2790 N   0  0  0  0  0  0  0  0  0  0  0  0
   22.4307   70.2920    1.8059 N   0  0  0  0  0  0  0  0  0  0  0  0
   21.7595   71.4712    1.4565 C   0  0  0  0  0  0  0  0  0  0  0  0
   23.9640   72.4948    1.4494 C   0  0  0  0  0  0  0  0  0  0  0  0
   24.5893   71.3639    1.7824 C   0  0  0  0  0  0  0  0  0  0  0  0
   23.7952   70.1347    1.9873 C   0  0  0  0  0  0  0  0  0  0  0  0
   21.8739   69.4907    1.9369 H   0  0  0  0  0  0  0  0  0  0  0  0
   21.7588   73.9968   -3.8314 O   0  0  0  0  0  0  0  0  0  0  0  0
   20.4965   73.4939   -4.7073 P   0  0  2  0  0  0  0  0  0  0  0  0
   21.1787   73.0007   -6.0899 O   0  0  0  0  0  0  0  0  0  0  0  0
   19.4188   74.5243   -4.8825 O   0  0  0  0  0  0  0  0  0  0  0  0
   20.0124   72.1351   -3.9848 O   0  0  0  0  0  0  0  0  0  0  0  0
   21.7005   70.4769   -3.8857 O   0  0  0  0  0  0  0  0  0  0  0  0
   18.3964   68.3944   -2.5389 O   0  0  0  0  0  0  0  0  0  0  0  0
   18.1724   70.2192   -4.8093 O   0  0  0  0  0  0  0  0  0  0  0  0
   20.4256   69.2860   -0.6579 O   0  0  0  0  0  0  0  0  0  0  0  0
   19.2248   69.5410   -2.7311 C   0  0  2  0  0  0  0  0  0  0  0  0
   19.4014   69.7998   -4.2275 C   0  0  2  0  0  0  0  0  0  0  0  0
   20.5791   69.2612   -2.0758 C   0  0  1  0  0  0  0  0  0  0  0  0
   20.4619   70.8735   -4.4756 C   0  0  1  0  0  0  0  0  0  0  0  0
   21.6167   70.3075   -2.4724 C   0  0  1  0  0  0  0  0  0  0  0  0
   17.5300   68.5490   -2.9473 H   0  0  0  0  0  0  0  0  0  0  0  0
   17.4949   69.5427   -4.6554 H   0  0  0  0  0  0  0  0  0  0  0  0
   19.7677   68.6246   -0.3923 H   0  0  0  0  0  0  0  0  0  0  0  0
   23.8970   70.2852   -3.0211 O   0  0  0  0  0  0  0  0  0  0  0  0
   23.2739   69.1912   -1.1201 O   0  0  0  0  0  0  0  0  0  0  0  0
   22.9928   69.8551   -2.1066 C   0  0  0  0  0  0  0  0  0  0  0  0
  1  4  1  0
  1 24  1  0
  1  2  1  6
  1  3  2  0
 25 28  1  0
 25 24  1  0
 25 26  1  6
 25 27  2  0
  6 11  1  0
  6 12  1  0
 29 36  1  0
 29 37  1  0
  9  7  1  1
  7 13  1  0
 10  8  1  1
  8 14  1  0
  4  5  1  0
 36 28  1  1
 33 30  1  6
 30 38  1  0
 34 31  1  1
 31 39  1  0
 35 32  1  1
 32 40  1  0
 41 43  1  0
 15 19  2  0
 42 43  2  0
 16 22  2  0
 12 17  1  6
 17 19  1  0
 17 20  1  0
 18 19  1  0
 18 22  1  0
 18 23  1  0
  9 10  1  0
  9 11  1  0
 10 12  1  0
 11  5  1  1
 33 34  1  0
 33 35  1  0
 34 36  1  0
 35 37  1  0
 37 43  1  6
 20 21  2  0
 21 22  1  0
M  CHG  3   2  -1  26  -1  41  -1
M  END
>  <COMPND>  (169) 
    udp_gluA.pdb 

>  <AUTHOR>  (169) 
    GENERATED BY OPEN BABEL 3.1.1

>  <MASTER>  (169) 
        0    0    0    0    0    0    0    0   56    0   56    0

>  <minimizedAffinity>  (169) 
-6.48734

>  <CNNscore>  (169) 
0.4136451483

>  <CNNaffinity>  (169) 
3.8179278374

>  <CNN_VS>  (169) 
1.5792673826

>  <CNNaffinity_variance>  (169) 
0.9902591705

$$$$
170
     RDKit          3D

 43 45  0  0  0  0  0  0  0  0999 V2000
   22.5022   73.1373   -3.5166 P   0  0  2  0  0  0  0  0  0  0  0  0
   23.5255   71.9130   -3.7870 O   0  0  0  0  0  0  0  0  0  0  0  0
   23.0490   74.5001   -3.8258 O   0  0  0  0  0  0  0  0  0  0  0  0
   22.0136   72.9056   -1.9916 O   0  0  0  0  0  0  0  0  0  0  0  0
   22.8579   72.1844   -1.1133 C   0  0  0  0  0  0  0  0  0  0  0  0
   22.0220   69.9312   -1.0711 O   0  0  0  0  0  0  0  0  0  0  0  0
   21.5224   70.3689    1.8530 O   0  0  0  0  0  0  0  0  0  0  0  0
   23.8395   68.9312    1.8530 O   0  0  0  0  0  0  0  0  0  0  0  0
   22.5901   70.8507    1.0366 C   0  0  1  0  0  0  0  0  0  0  0  0
   23.5570   69.7288    0.7223 C   0  0  2  0  0  0  0  0  0  0  0  0
   22.0210   71.1752   -0.3378 C   0  0  1  0  0  0  0  0  0  0  0  0
   22.8133   68.9657   -0.3606 C   0  0  2  0  0  0  0  0  0  0  0  0
   21.8618   70.1549    2.7365 H   0  0  0  0  0  0  0  0  0  0  0  0
   24.3134   69.4621    2.5129 H   0  0  0  0  0  0  0  0  0  0  0  0
   23.2668   66.1796   -0.4540 O   0  0  0  0  0  0  0  0  0  0  0  0
   26.2450   66.5972   -3.9468 O   0  0  0  0  0  0  0  0  0  0  0  0
   23.7021   68.3196   -1.2844 N   0  0  0  0  0  0  0  0  0  0  0  0
   24.7504   66.3904   -2.1929 N   0  0  0  0  0  0  0  0  0  0  0  0
   23.8584   66.9138   -1.2477 C   0  0  0  0  0  0  0  0  0  0  0  0
   24.4059   69.0757   -2.2139 C   0  0  0  0  0  0  0  0  0  0  0  0
   25.2526   68.5625   -3.1086 C   0  0  0  0  0  0  0  0  0  0  0  0
   25.4735   67.1018   -3.1366 C   0  0  0  0  0  0  0  0  0  0  0  0
   24.8773   65.4140   -2.1853 H   0  0  0  0  0  0  0  0  0  0  0  0
   21.2019   72.7212   -4.3820 O   0  0  0  0  0  0  0  0  0  0  0  0
   19.7965   73.4841   -4.6197 P   0  0  2  0  0  0  0  0  0  0  0  0
   19.9788   74.1471   -6.0851 O   0  0  0  0  0  0  0  0  0  0  0  0
   19.4363   74.4620   -3.5390 O   0  0  0  0  0  0  0  0  0  0  0  0
   18.7210   72.3019   -4.8386 O   0  0  0  0  0  0  0  0  0  0  0  0
   19.1341   69.9721   -4.7374 O   0  0  0  0  0  0  0  0  0  0  0  0
   15.9086   70.1427   -7.3131 O   0  0  0  0  0  0  0  0  0  0  0  0
   18.0866   72.0767   -7.5373 O   0  0  0  0  0  0  0  0  0  0  0  0
   15.5351   69.2803   -4.5622 O   0  0  0  0  0  0  0  0  0  0  0  0
   16.7269   70.5594   -6.2201 C   0  0  2  0  0  0  0  0  0  0  0  0
   18.1258   70.9051   -6.7308 C   0  0  2  0  0  0  0  0  0  0  0  0
   16.7967   69.4071   -5.2154 C   0  0  1  0  0  0  0  0  0  0  0  0
   19.0920   71.1333   -5.5676 C   0  0  1  0  0  0  0  0  0  0  0  0
   17.8703   69.6531   -4.1593 C   0  0  1  0  0  0  0  0  0  0  0  0
   15.8496   70.8591   -7.9647 H   0  0  0  0  0  0  0  0  0  0  0  0
   17.4751   71.9391   -8.2773 H   0  0  0  0  0  0  0  0  0  0  0  0
   14.8429   69.1236   -5.2233 H   0  0  0  0  0  0  0  0  0  0  0  0
   17.2628   68.2413   -2.3876 O   0  0  0  0  0  0  0  0  0  0  0  0
   19.0692   67.6259   -3.6354 O   0  0  0  0  0  0  0  0  0  0  0  0
   18.1576   68.4027   -3.3937 C   0  0  0  0  0  0  0  0  0  0  0  0
  1  4  1  0
  1 24  1  0
  1  2  1  6
  1  3  2  0
 25 28  1  0
 25 24  1  0
 25 26  1  6
 25 27  2  0
  6 11  1  0
  6 12  1  0
 29 36  1  0
 29 37  1  0
  9  7  1  1
  7 13  1  0
 10  8  1  1
  8 14  1  0
  4  5  1  0
 36 28  1  1
 33 30  1  6
 30 38  1  0
 34 31  1  1
 31 39  1  0
 35 32  1  1
 32 40  1  0
 41 43  1  0
 15 19  2  0
 42 43  2  0
 16 22  2  0
 12 17  1  6
 17 19  1  0
 17 20  1  0
 18 19  1  0
 18 22  1  0
 18 23  1  0
  9 10  1  0
  9 11  1  0
 10 12  1  0
 11  5  1  6
 33 34  1  0
 33 35  1  0
 34 36  1  0
 35 37  1  0
 37 43  1  6
 20 21  2  0
 21 22  1  0
M  CHG  3   2  -1  26  -1  41  -1
M  END
>  <COMPND>  (170) 
    udp_gluA.pdb 

>  <AUTHOR>  (170) 
    GENERATED BY OPEN BABEL 3.1.1

>  <MASTER>  (170) 
        0    0    0    0    0    0    0    0   56    0   56    0

>  <minimizedAffinity>  (170) 
-8.74433

>  <CNNscore>  (170) 
0.3866997063

>  <CNNaffinity>  (170) 
4.2427301407

>  <CNN_VS>  (170) 
1.6406625509

>  <CNNaffinity_variance>  (170) 
1.0139722824

$$$$
171
     RDKit          3D

 43 45  0  0  0  0  0  0  0  0999 V2000
   22.0898   73.6855   -5.8688 P   0  0  2  0  0  0  0  0  0  0  0  0
   22.6057   73.2955   -7.3522 O   0  0  0  0  0  0  0  0  0  0  0  0
   22.1145   75.1526   -5.5548 O   0  0  0  0  0  0  0  0  0  0  0  0
   22.9695   72.7429   -4.8912 O   0  0  0  0  0  0  0  0  0  0  0  0
   23.3461   73.2484   -3.6235 C   0  0  0  0  0  0  0  0  0  0  0  0
   21.6736   71.8980   -2.5480 O   0  0  0  0  0  0  0  0  0  0  0  0
   21.2062   74.2453   -0.7417 O   0  0  0  0  0  0  0  0  0  0  0  0
   22.7441   72.6039    0.8001 O   0  0  0  0  0  0  0  0  0  0  0  0
   22.4274   73.7710   -1.3094 C   0  0  1  0  0  0  0  0  0  0  0  0
   22.8793   72.5106   -0.6026 C   0  0  2  0  0  0  0  0  0  0  0  0
   22.1261   73.2595   -2.7115 C   0  0  1  0  0  0  0  0  0  0  0  0
   21.9625   71.4625   -1.2100 C   0  0  2  0  0  0  0  0  0  0  0  0
   21.3735   74.5773    0.1547 H   0  0  0  0  0  0  0  0  0  0  0  0
   23.3482   73.2840    1.1386 H   0  0  0  0  0  0  0  0  0  0  0  0
   21.5177   69.4121    0.6805 O   0  0  0  0  0  0  0  0  0  0  0  0
   24.3604   66.5224   -1.5132 O   0  0  0  0  0  0  0  0  0  0  0  0
   22.5735   70.1646   -1.2631 N   0  0  0  0  0  0  0  0  0  0  0  0
   22.9348   67.9751   -0.4133 N   0  0  0  0  0  0  0  0  0  0  0  0
   22.2829   69.2063   -0.2634 C   0  0  0  0  0  0  0  0  0  0  0  0
   23.4476   69.8512   -2.2968 C   0  0  0  0  0  0  0  0  0  0  0  0
   24.0612   68.6733   -2.4264 C   0  0  0  0  0  0  0  0  0  0  0  0
   23.8128   67.6170   -1.4235 C   0  0  0  0  0  0  0  0  0  0  0  0
   22.7498   67.2926    0.2717 H   0  0  0  0  0  0  0  0  0  0  0  0
   20.6238   73.0077   -5.8045 O   0  0  0  0  0  0  0  0  0  0  0  0
   19.1984   73.5046   -6.3832 P   0  0  2  0  0  0  0  0  0  0  0  0
   19.3807   73.3647   -7.9856 O   0  0  0  0  0  0  0  0  0  0  0  0
   18.7914   74.8750   -5.9245 O   0  0  0  0  0  0  0  0  0  0  0  0
   18.1643   72.3315   -5.9871 O   0  0  0  0  0  0  0  0  0  0  0  0
   19.1563   70.2764   -5.3530 O   0  0  0  0  0  0  0  0  0  0  0  0
   15.1841   69.2085   -5.7402 O   0  0  0  0  0  0  0  0  0  0  0  0
   16.4399   70.9765   -7.6977 O   0  0  0  0  0  0  0  0  0  0  0  0
   16.3529   69.5491   -3.1003 O   0  0  0  0  0  0  0  0  0  0  0  0
   16.2769   70.0798   -5.4493 C   0  0  2  0  0  0  0  0  0  0  0  0
   17.1432   70.2486   -6.6977 C   0  0  2  0  0  0  0  0  0  0  0  0
   17.0926   69.4533   -4.3161 C   0  0  1  0  0  0  0  0  0  0  0  0
   18.4422   70.9849   -6.3668 C   0  0  1  0  0  0  0  0  0  0  0  0
   18.4290   70.1663   -4.1315 C   0  0  1  0  0  0  0  0  0  0  0  0
   14.6514   69.5862   -6.4577 H   0  0  0  0  0  0  0  0  0  0  0  0
   15.6144   70.5151   -7.9124 H   0  0  0  0  0  0  0  0  0  0  0  0
   15.4999   69.0993   -3.2045 H   0  0  0  0  0  0  0  0  0  0  0  0
   20.5640   69.2377   -3.8474 O   0  0  0  0  0  0  0  0  0  0  0  0
   19.0448   68.8806   -2.1849 O   0  0  0  0  0  0  0  0  0  0  0  0
   19.3446   69.3618   -3.2673 C   0  0  0  0  0  0  0  0  0  0  0  0
  1  4  1  0
  1 24  1  0
  1  2  1  6
  1  3  2  0
 25 28  1  0
 25 24  1  0
 25 26  1  6
 25 27  2  0
  6 11  1  0
  6 12  1  0
 29 36  1  0
 29 37  1  0
  9  7  1  1
  7 13  1  0
 10  8  1  1
  8 14  1  0
  4  5  1  0
 36 28  1  1
 33 30  1  6
 30 38  1  0
 34 31  1  6
 31 39  1  0
 35 32  1  1
 32 40  1  0
 41 43  1  0
 15 19  2  0
 42 43  2  0
 16 22  2  0
 12 17  1  6
 17 19  1  0
 17 20  1  0
 18 19  1  0
 18 22  1  0
 18 23  1  0
  9 10  1  0
  9 11  1  0
 10 12  1  0
 11  5  1  6
 33 34  1  0
 33 35  1  0
 34 36  1  0
 35 37  1  0
 37 43  1  1
 20 21  2  0
 21 22  1  0
M  CHG  3   2  -1  26  -1  41  -1
M  END
>  <COMPND>  (171) 
    udp_gluA.pdb 

>  <AUTHOR>  (171) 
    GENERATED BY OPEN BABEL 3.1.1

>  <MASTER>  (171) 
        0    0    0    0    0    0    0    0   56    0   56    0

>  <minimizedAffinity>  (171) 
-8.26973

>  <CNNscore>  (171) 
0.3833763599

>  <CNNaffinity>  (171) 
4.0618829727

>  <CNN_VS>  (171) 
1.5572298765

>  <CNNaffinity_variance>  (171) 
0.7427221537

$$$$
172
     RDKit          3D

 43 45  0  0  0  0  0  0  0  0999 V2000
   21.9789   72.8691   -4.1295 P   0  0  2  0  0  0  0  0  0  0  0  0
   23.2293   72.9378   -5.1546 O   0  0  0  0  0  0  0  0  0  0  0  0
   21.6042   74.1781   -3.4986 O   0  0  0  0  0  0  0  0  0  0  0  0
   22.3822   71.6846   -3.1037 O   0  0  0  0  0  0  0  0  0  0  0  0
   22.4901   71.9912   -1.7257 C   0  0  0  0  0  0  0  0  0  0  0  0
   21.8946   69.6688   -1.5543 O   0  0  0  0  0  0  0  0  0  0  0  0
   21.1496   70.2615    1.2891 O   0  0  0  0  0  0  0  0  0  0  0  0
   23.5993   69.0914    1.5465 O   0  0  0  0  0  0  0  0  0  0  0  0
   22.2150   70.7969    0.5037 C   0  0  1  0  0  0  0  0  0  0  0  0
   23.3138   69.7683    0.3403 C   0  0  2  0  0  0  0  0  0  0  0  0
   21.7119   70.9554   -0.9246 C   0  0  1  0  0  0  0  0  0  0  0  0
   22.7316   68.8508   -0.7215 C   0  0  2  0  0  0  0  0  0  0  0  0
   21.4473   70.1512    2.2062 H   0  0  0  0  0  0  0  0  0  0  0  0
   23.9677   69.7181    2.1895 H   0  0  0  0  0  0  0  0  0  0  0  0
   23.3413   66.0932   -0.7076 O   0  0  0  0  0  0  0  0  0  0  0  0
   26.6414   66.6207   -3.8818 O   0  0  0  0  0  0  0  0  0  0  0  0
   23.7455   68.2407   -1.5343 N   0  0  0  0  0  0  0  0  0  0  0  0
   24.9850   66.3587   -2.2878 N   0  0  0  0  0  0  0  0  0  0  0  0
   23.9723   66.8465   -1.4515 C   0  0  0  0  0  0  0  0  0  0  0  0
   24.5009   69.0200   -2.4020 C   0  0  0  0  0  0  0  0  0  0  0  0
   25.4627   68.5407   -3.1931 C   0  0  0  0  0  0  0  0  0  0  0  0
   25.7635   67.0942   -3.1667 C   0  0  0  0  0  0  0  0  0  0  0  0
   25.1627   65.3912   -2.2462 H   0  0  0  0  0  0  0  0  0  0  0  0
   20.8134   72.1944   -5.0235 O   0  0  0  0  0  0  0  0  0  0  0  0
   19.4274   71.4800   -4.5965 P   0  0  2  0  0  0  0  0  0  0  0  0
   19.1251   72.1038   -3.1337 O   0  0  0  0  0  0  0  0  0  0  0  0
   19.4714   69.9798   -4.6320 O   0  0  0  0  0  0  0  0  0  0  0  0
   18.3134   72.1401   -5.5587 O   0  0  0  0  0  0  0  0  0  0  0  0
   16.1058   71.9992   -4.7126 O   0  0  0  0  0  0  0  0  0  0  0  0
   15.4489   73.3831   -8.5495 O   0  0  0  0  0  0  0  0  0  0  0  0
   17.4184   71.2842   -8.0492 O   0  0  0  0  0  0  0  0  0  0  0  0
   15.2338   75.1964   -6.2874 O   0  0  0  0  0  0  0  0  0  0  0  0
   16.1649   73.2307   -7.3238 C   0  0  2  0  0  0  0  0  0  0  0  0
   16.4743   71.7514   -7.0925 C   0  0  2  0  0  0  0  0  0  0  0  0
   15.2882   73.7742   -6.1933 C   0  0  1  0  0  0  0  0  0  0  0  0
   17.0339   71.5227   -5.6878 C   0  0  1  0  0  0  0  0  0  0  0  0
   15.8471   73.3970   -4.8244 C   0  0  1  0  0  0  0  0  0  0  0  0
   15.9866   73.0444   -9.2825 H   0  0  0  0  0  0  0  0  0  0  0  0
   17.0699   71.4265   -8.9429 H   0  0  0  0  0  0  0  0  0  0  0  0
   14.8798   75.4498   -7.1542 H   0  0  0  0  0  0  0  0  0  0  0  0
   14.7709   74.9556   -3.4410 O   0  0  0  0  0  0  0  0  0  0  0  0
   14.1503   72.7719   -3.2272 O   0  0  0  0  0  0  0  0  0  0  0  0
   14.8339   73.6374   -3.7531 C   0  0  0  0  0  0  0  0  0  0  0  0
  1  4  1  0
  1 24  1  0
  1  2  1  6
  1  3  2  0
 25 28  1  0
 25 24  1  0
 25 26  1  1
 25 27  2  0
  6 11  1  0
  6 12  1  0
 29 36  1  0
 29 37  1  0
  9  7  1  1
  7 13  1  0
 10  8  1  1
  8 14  1  0
  4  5  1  0
 36 28  1  6
 33 30  1  6
 30 38  1  0
 34 31  1  6
 31 39  1  0
 35 32  1  1
 32 40  1  0
 41 43  1  0
 15 19  2  0
 42 43  2  0
 16 22  2  0
 12 17  1  6
 17 19  1  0
 17 20  1  0
 18 19  1  0
 18 22  1  0
 18 23  1  0
  9 10  1  0
  9 11  1  0
 10 12  1  0
 11  5  1  6
 33 34  1  0
 33 35  1  0
 34 36  1  0
 35 37  1  0
 37 43  1  1
 20 21  2  0
 21 22  1  0
M  CHG  3   2  -1  26  -1  41  -1
M  END
>  <COMPND>  (172) 
    udp_gluA.pdb 

>  <AUTHOR>  (172) 
    GENERATED BY OPEN BABEL 3.1.1

>  <MASTER>  (172) 
        0    0    0    0    0    0    0    0   56    0   56    0

>  <minimizedAffinity>  (172) 
-8.04541

>  <CNNscore>  (172) 
0.3420201838

>  <CNNaffinity>  (172) 
4.0903615952

>  <CNN_VS>  (172) 
1.3989862204

>  <CNNaffinity_variance>  (172) 
0.2468922585

$$$$
173
     RDKit          3D

 43 45  0  0  0  0  0  0  0  0999 V2000
   21.8208   75.4343   -5.3339 P   0  0  2  0  0  0  0  0  0  0  0  0
   21.8794   76.9543   -4.7816 O   0  0  0  0  0  0  0  0  0  0  0  0
   22.8462   75.0992   -6.3769 O   0  0  0  0  0  0  0  0  0  0  0  0
   20.2771   75.2419   -5.7789 O   0  0  0  0  0  0  0  0  0  0  0  0
   19.6553   73.9926   -5.5400 C   0  0  0  0  0  0  0  0  0  0  0  0
   19.4782   71.8596   -6.6341 O   0  0  0  0  0  0  0  0  0  0  0  0
   18.1748   73.3364   -8.8950 O   0  0  0  0  0  0  0  0  0  0  0  0
   16.0449   72.2360   -7.5956 O   0  0  0  0  0  0  0  0  0  0  0  0
   18.0769   73.5671   -7.4894 C   0  0  1  0  0  0  0  0  0  0  0  0
   17.2090   72.5079   -6.8437 C   0  0  2  0  0  0  0  0  0  0  0  0
   19.4390   73.2836   -6.8708 C   0  0  1  0  0  0  0  0  0  0  0  0
   18.1548   71.3207   -6.7804 C   0  0  2  0  0  0  0  0  0  0  0  0
   17.3163   73.5111   -9.3123 H   0  0  0  0  0  0  0  0  0  0  0  0
   15.4756   73.0220   -7.6057 H   0  0  0  0  0  0  0  0  0  0  0  0
   15.8927   69.6402   -6.5925 O   0  0  0  0  0  0  0  0  0  0  0  0
   17.1898   68.0502   -2.4653 O   0  0  0  0  0  0  0  0  0  0  0  0
   17.8767   70.4571   -5.6679 N   0  0  0  0  0  0  0  0  0  0  0  0
   16.5403   68.8507   -4.5366 N   0  0  0  0  0  0  0  0  0  0  0  0
   16.7123   69.6533   -5.6721 C   0  0  0  0  0  0  0  0  0  0  0  0
   18.7523   70.4111   -4.5898 C   0  0  0  0  0  0  0  0  0  0  0  0
   18.5750   69.6409   -3.5146 C   0  0  0  0  0  0  0  0  0  0  0  0
   17.3828   68.7712   -3.4396 C   0  0  0  0  0  0  0  0  0  0  0  0
   15.7357   68.2837   -4.5158 H   0  0  0  0  0  0  0  0  0  0  0  0
   21.9219   74.5531   -3.9826 O   0  0  0  0  0  0  0  0  0  0  0  0
   23.1696   73.7690   -3.3176 P   0  0  2  0  0  0  0  0  0  0  0  0
   24.1075   74.9672   -2.7654 O   0  0  0  0  0  0  0  0  0  0  0  0
   23.8652   72.8176   -4.2476 O   0  0  0  0  0  0  0  0  0  0  0  0
   22.5615   73.0832   -1.9901 O   0  0  0  0  0  0  0  0  0  0  0  0
   21.5051   70.9904   -1.6528 O   0  0  0  0  0  0  0  0  0  0  0  0
   19.4854   73.3942    1.0325 O   0  0  0  0  0  0  0  0  0  0  0  0
   20.1227   74.3750   -1.6445 O   0  0  0  0  0  0  0  0  0  0  0  0
   21.4913   71.5148    1.9786 O   0  0  0  0  0  0  0  0  0  0  0  0
   20.6044   72.9548    0.2626 C   0  0  2  0  0  0  0  0  0  0  0  0
   20.2598   73.0221   -1.2255 C   0  0  2  0  0  0  0  0  0  0  0  0
   20.9228   71.5146    0.6705 C   0  0  1  0  0  0  0  0  0  0  0  0
   21.3423   72.3469   -2.0688 C   0  0  1  0  0  0  0  0  0  0  0  0
   21.9151   70.8692   -0.2925 C   0  0  1  0  0  0  0  0  0  0  0  0
   19.2646   74.3074    0.7903 H   0  0  0  0  0  0  0  0  0  0  0  0
   19.4376   74.8097   -1.1134 H   0  0  0  0  0  0  0  0  0  0  0  0
   20.8697   71.9231    2.6013 H   0  0  0  0  0  0  0  0  0  0  0  0
   23.2187   68.9194   -0.3142 O   0  0  0  0  0  0  0  0  0  0  0  0
   21.0183   68.6934    0.2394 O   0  0  0  0  0  0  0  0  0  0  0  0
   21.9671   69.3901   -0.0883 C   0  0  0  0  0  0  0  0  0  0  0  0
  1  4  1  0
  1 24  1  0
  1  2  1  1
  1  3  2  0
 25 28  1  0
 25 24  1  0
 25 26  1  1
 25 27  2  0
  6 11  1  0
  6 12  1  0
 29 36  1  0
 29 37  1  0
  9  7  1  6
  7 13  1  0
 10  8  1  6
  8 14  1  0
  4  5  1  0
 36 28  1  1
 33 30  1  1
 30 38  1  0
 34 31  1  6
 31 39  1  0
 35 32  1  1
 32 40  1  0
 41 43  1  0
 15 19  2  0
 42 43  2  0
 16 22  2  0
 12 17  1  1
 17 19  1  0
 17 20  1  0
 18 19  1  0
 18 22  1  0
 18 23  1  0
  9 10  1  0
  9 11  1  0
 10 12  1  0
 11  5  1  1
 33 34  1  0
 33 35  1  0
 34 36  1  0
 35 37  1  0
 37 43  1  1
 20 21  2  0
 21 22  1  0
M  CHG  3   2  -1  26  -1  41  -1
M  END
>  <COMPND>  (173) 
    udp_gluA.pdb 

>  <AUTHOR>  (173) 
    GENERATED BY OPEN BABEL 3.1.1

>  <MASTER>  (173) 
        0    0    0    0    0    0    0    0   56    0   56    0

>  <minimizedAffinity>  (173) 
-7.45806

>  <CNNscore>  (173) 
0.3372935355

>  <CNNaffinity>  (173) 
3.9245796204

>  <CNN_VS>  (173) 
1.3237353563

>  <CNNaffinity_variance>  (173) 
0.7232192159

$$$$
174
     RDKit          3D

 43 45  0  0  0  0  0  0  0  0999 V2000
   21.3211   70.0431   -1.4339 P   0  0  2  0  0  0  0  0  0  0  0  0
   20.8617   69.1408   -0.1715 O   0  0  0  0  0  0  0  0  0  0  0  0
   21.8654   69.2710   -2.5999 O   0  0  0  0  0  0  0  0  0  0  0  0
   22.3225   71.1364   -0.7861 O   0  0  0  0  0  0  0  0  0  0  0  0
   21.9515   71.7550    0.4322 C   0  0  0  0  0  0  0  0  0  0  0  0
   24.1195   72.0655    1.4227 O   0  0  0  0  0  0  0  0  0  0  0  0
   23.0196   70.6473    3.8249 O   0  0  0  0  0  0  0  0  0  0  0  0
   22.9030   73.2667    4.5741 O   0  0  0  0  0  0  0  0  0  0  0  0
   22.3687   71.5533    2.9338 C   0  0  1  0  0  0  0  0  0  0  0  0
   22.8335   72.9703    3.1950 C   0  0  2  0  0  0  0  0  0  0  0  0
   22.9019   71.2966    1.5309 C   0  0  1  0  0  0  0  0  0  0  0  0
   24.1967   72.9838    2.5246 C   0  0  2  0  0  0  0  0  0  0  0  0
   22.6951   70.7924    4.7279 H   0  0  0  0  0  0  0  0  0  0  0  0
   22.0104   73.2459    4.9547 H   0  0  0  0  0  0  0  0  0  0  0  0
   25.7752   74.8571    3.9301 O   0  0  0  0  0  0  0  0  0  0  0  0
   25.4862   77.9378    0.5140 O   0  0  0  0  0  0  0  0  0  0  0  0
   24.5493   74.2829    2.0259 N   0  0  0  0  0  0  0  0  0  0  0  0
   25.6289   76.3900    2.2278 N   0  0  0  0  0  0  0  0  0  0  0  0
   25.3469   75.1480    2.8117 C   0  0  0  0  0  0  0  0  0  0  0  0
   24.1081   74.6877    0.7719 C   0  0  0  0  0  0  0  0  0  0  0  0
   24.3852   75.8747    0.2287 C   0  0  0  0  0  0  0  0  0  0  0  0
   25.2123   76.8379    0.9846 C   0  0  0  0  0  0  0  0  0  0  0  0
   26.1809   77.0103    2.7569 H   0  0  0  0  0  0  0  0  0  0  0  0
   19.9972   70.9113   -1.7603 O   0  0  0  0  0  0  0  0  0  0  0  0
   19.7739   72.1795   -2.7378 P   0  0  2  0  0  0  0  0  0  0  0  0
   21.2219   72.3673   -3.4367 O   0  0  0  0  0  0  0  0  0  0  0  0
   19.2577   73.4074   -2.0451 O   0  0  0  0  0  0  0  0  0  0  0  0
   18.8218   71.6254   -3.9162 O   0  0  0  0  0  0  0  0  0  0  0  0
   18.6499   69.3279   -4.4650 O   0  0  0  0  0  0  0  0  0  0  0  0
   17.3760   71.1248   -7.9602 O   0  0  0  0  0  0  0  0  0  0  0  0
   19.6760   72.1842   -6.5035 O   0  0  0  0  0  0  0  0  0  0  0  0
   15.4465   69.9098   -6.1569 O   0  0  0  0  0  0  0  0  0  0  0  0
   17.5582   71.0014   -6.5497 C   0  0  2  0  0  0  0  0  0  0  0  0
   19.0519   70.9349   -6.2306 C   0  0  2  0  0  0  0  0  0  0  0  0
   16.8587   69.7193   -6.0928 C   0  0  1  0  0  0  0  0  0  0  0  0
   19.2821   70.5734   -4.7625 C   0  0  1  0  0  0  0  0  0  0  0  0
   17.2376   69.3584   -4.6594 C   0  0  1  0  0  0  0  0  0  0  0  0
   17.8123   71.9328   -8.2734 H   0  0  0  0  0  0  0  0  0  0  0  0
   19.5337   72.4199   -7.4333 H   0  0  0  0  0  0  0  0  0  0  0  0
   15.1922   70.1402   -7.0641 H   0  0  0  0  0  0  0  0  0  0  0  0
   17.1253   67.6549   -3.0510 O   0  0  0  0  0  0  0  0  0  0  0  0
   16.2869   67.1891   -5.1196 O   0  0  0  0  0  0  0  0  0  0  0  0
   16.8244   67.9590   -4.3378 C   0  0  0  0  0  0  0  0  0  0  0  0
  1  4  1  0
  1 24  1  0
  1  2  1  1
  1  3  2  0
 25 28  1  0
 25 24  1  0
 25 26  1  6
 25 27  2  0
  6 11  1  0
  6 12  1  0
 29 36  1  0
 29 37  1  0
  9  7  1  1
  7 13  1  0
 10  8  1  1
  8 14  1  0
  4  5  1  0
 36 28  1  1
 33 30  1  6
 30 38  1  0
 34 31  1  1
 31 39  1  0
 35 32  1  1
 32 40  1  0
 41 43  1  0
 15 19  2  0
 42 43  2  0
 16 22  2  0
 12 17  1  6
 17 19  1  0
 17 20  1  0
 18 19  1  0
 18 22  1  0
 18 23  1  0
  9 10  1  0
  9 11  1  0
 10 12  1  0
 11  5  1  6
 33 34  1  0
 33 35  1  0
 34 36  1  0
 35 37  1  0
 37 43  1  6
 20 21  2  0
 21 22  1  0
M  CHG  3   2  -1  26  -1  41  -1
M  END
>  <COMPND>  (174) 
    udp_gluA.pdb 

>  <AUTHOR>  (174) 
    GENERATED BY OPEN BABEL 3.1.1

>  <MASTER>  (174) 
        0    0    0    0    0    0    0    0   56    0   56    0

>  <minimizedAffinity>  (174) 
-7.57945

>  <CNNscore>  (174) 
0.3319137990

>  <CNNaffinity>  (174) 
4.0202703476

>  <CNN_VS>  (174) 
1.3343832493

>  <CNNaffinity_variance>  (174) 
0.1005812511

$$$$
175
     RDKit          3D

 43 45  0  0  0  0  0  0  0  0999 V2000
   22.3242   69.5268    0.3220 P   0  0  2  0  0  0  0  0  0  0  0  0
   23.4963   68.6797    1.0483 O   0  0  0  0  0  0  0  0  0  0  0  0
   21.0951   68.7389   -0.0249 O   0  0  0  0  0  0  0  0  0  0  0  0
   23.0744   70.2418   -0.9205 O   0  0  0  0  0  0  0  0  0  0  0  0
   22.5418   71.4523   -1.4260 C   0  0  0  0  0  0  0  0  0  0  0  0
   22.1841   70.5837   -3.6385 O   0  0  0  0  0  0  0  0  0  0  0  0
   23.3558   73.1570   -4.6368 O   0  0  0  0  0  0  0  0  0  0  0  0
   20.6772   73.5604   -4.9509 O   0  0  0  0  0  0  0  0  0  0  0  0
   22.5225   72.9241   -3.5011 C   0  0  1  0  0  0  0  0  0  0  0  0
   21.0968   72.6669   -3.9409 C   0  0  2  0  0  0  0  0  0  0  0  0
   22.9163   71.5832   -2.8967 C   0  0  1  0  0  0  0  0  0  0  0  0
   21.1709   71.2291   -4.4259 C   0  0  2  0  0  0  0  0  0  0  0  0
   23.1228   74.0084   -5.0400 H   0  0  0  0  0  0  0  0  0  0  0  0
   20.6460   74.4618   -4.5926 H   0  0  0  0  0  0  0  0  0  0  0  0
   19.0230   71.3192   -6.2576 O   0  0  0  0  0  0  0  0  0  0  0  0
   16.4562   68.5010   -3.6665 O   0  0  0  0  0  0  0  0  0  0  0  0
   19.9296   70.5285   -4.2547 N   0  0  0  0  0  0  0  0  0  0  0  0
   17.7462   69.9163   -4.9648 N   0  0  0  0  0  0  0  0  0  0  0  0
   18.9147   70.6410   -5.2342 C   0  0  0  0  0  0  0  0  0  0  0  0
   19.7279   69.7399   -3.1285 C   0  0  0  0  0  0  0  0  0  0  0  0
   18.6087   69.0548   -2.8857 C   0  0  0  0  0  0  0  0  0  0  0  0
   17.4988   69.1191   -3.8590 C   0  0  0  0  0  0  0  0  0  0  0  0
   17.0246   69.9807   -5.6314 H   0  0  0  0  0  0  0  0  0  0  0  0
   22.0723   70.7507    1.3474 O   0  0  0  0  0  0  0  0  0  0  0  0
   22.9850   71.3354    2.5469 P   0  0  2  0  0  0  0  0  0  0  0  0
   24.3890   71.6701    1.8140 O   0  0  0  0  0  0  0  0  0  0  0  0
   23.1079   70.4193    3.7299 O   0  0  0  0  0  0  0  0  0  0  0  0
   22.3461   72.7785    2.8812 O   0  0  0  0  0  0  0  0  0  0  0  0
   23.9381   74.1318    3.9963 O   0  0  0  0  0  0  0  0  0  0  0  0
   20.6041   76.5716    4.0096 O   0  0  0  0  0  0  0  0  0  0  0  0
   20.3526   73.7172    4.5785 O   0  0  0  0  0  0  0  0  0  0  0  0
   22.7893   77.0968    2.1657 O   0  0  0  0  0  0  0  0  0  0  0  0
   21.4848   75.5712    3.4982 C   0  0  2  0  0  0  0  0  0  0  0  0
   21.5874   74.4197    4.4988 C   0  0  2  0  0  0  0  0  0  0  0  0
   22.8570   76.2139    3.2838 C   0  0  1  0  0  0  0  0  0  0  0  0
   22.6918   73.4416    4.0959 C   0  0  1  0  0  0  0  0  0  0  0  0
   23.9282   75.1620    3.0106 C   0  0  1  0  0  0  0  0  0  0  0  0
   19.7255   76.1861    4.1539 H   0  0  0  0  0  0  0  0  0  0  0  0
   19.6472   74.3319    4.8335 H   0  0  0  0  0  0  0  0  0  0  0  0
   22.1109   77.7712    2.3268 H   0  0  0  0  0  0  0  0  0  0  0  0
   25.7562   76.1419    1.9152 O   0  0  0  0  0  0  0  0  0  0  0  0
   25.9175   75.8765    4.1741 O   0  0  0  0  0  0  0  0  0  0  0  0
   25.2950   75.7535    3.1299 C   0  0  0  0  0  0  0  0  0  0  0  0
  1  4  1  0
  1 24  1  0
  1  2  1  1
  1  3  2  0
 25 28  1  0
 25 24  1  0
 25 26  1  6
 25 27  2  0
  6 11  1  0
  6 12  1  0
 29 36  1  0
 29 37  1  0
  9  7  1  6
  7 13  1  0
 10  8  1  6
  8 14  1  0
  4  5  1  0
 36 28  1  6
 33 30  1  1
 30 38  1  0
 34 31  1  6
 31 39  1  0
 35 32  1  6
 32 40  1  0
 41 43  1  0
 15 19  2  0
 42 43  2  0
 16 22  2  0
 12 17  1  1
 17 19  1  0
 17 20  1  0
 18 19  1  0
 18 22  1  0
 18 23  1  0
  9 10  1  0
  9 11  1  0
 10 12  1  0
 11  5  1  1
 33 34  1  0
 33 35  1  0
 34 36  1  0
 35 37  1  0
 37 43  1  1
 20 21  2  0
 21 22  1  0
M  CHG  3   2  -1  26  -1  41  -1
M  END
>  <COMPND>  (175) 
    udp_gluA.pdb 

>  <AUTHOR>  (175) 
    GENERATED BY OPEN BABEL 3.1.1

>  <MASTER>  (175) 
        0    0    0    0    0    0    0    0   56    0   56    0

>  <minimizedAffinity>  (175) 
-7.10749

>  <CNNscore>  (175) 
0.3225629032

>  <CNNaffinity>  (175) 
4.0730886459

>  <CNN_VS>  (175) 
1.3138272762

>  <CNNaffinity_variance>  (175) 
0.1452622116

$$$$
176
     RDKit          3D

 43 45  0  0  0  0  0  0  0  0999 V2000
   22.9283   72.3549   -3.6441 P   0  0  2  0  0  0  0  0  0  0  0  0
   23.9661   73.2968   -4.4531 O   0  0  0  0  0  0  0  0  0  0  0  0
   23.5368   71.1354   -3.0161 O   0  0  0  0  0  0  0  0  0  0  0  0
   21.7424   72.0789   -4.7096 O   0  0  0  0  0  0  0  0  0  0  0  0
   20.4040   72.2988   -4.3036 C   0  0  0  0  0  0  0  0  0  0  0  0
   18.8037   71.6663   -2.6253 O   0  0  0  0  0  0  0  0  0  0  0  0
   19.8700   68.8796   -2.9242 O   0  0  0  0  0  0  0  0  0  0  0  0
   17.5646   68.7947   -4.3782 O   0  0  0  0  0  0  0  0  0  0  0  0
   19.6868   69.8885   -3.9178 C   0  0  1  0  0  0  0  0  0  0  0  0
   18.2165   70.0405   -4.2456 C   0  0  2  0  0  0  0  0  0  0  0  0
   20.0131   71.2348   -3.2860 C   0  0  1  0  0  0  0  0  0  0  0  0
   17.7100   70.8421   -3.0588 C   0  0  2  0  0  0  0  0  0  0  0  0
   19.6673   68.0102   -3.3046 H   0  0  0  0  0  0  0  0  0  0  0  0
   17.9220   68.3230   -5.1475 H   0  0  0  0  0  0  0  0  0  0  0  0
   15.2026   70.7766   -1.7606 O   0  0  0  0  0  0  0  0  0  0  0  0
   13.5166   74.1162   -4.4529 O   0  0  0  0  0  0  0  0  0  0  0  0
   16.5981   71.6836   -3.4003 N   0  0  0  0  0  0  0  0  0  0  0  0
   14.3650   72.4393   -3.1034 N   0  0  0  0  0  0  0  0  0  0  0  0
   15.3821   71.5709   -2.6857 C   0  0  0  0  0  0  0  0  0  0  0  0
   16.7187   72.6081   -4.4306 C   0  0  0  0  0  0  0  0  0  0  0  0
   15.7404   73.4292   -4.8173 C   0  0  0  0  0  0  0  0  0  0  0  0
   14.4373   73.3748   -4.1228 C   0  0  0  0  0  0  0  0  0  0  0  0
   13.5082   72.3779   -2.6222 H   0  0  0  0  0  0  0  0  0  0  0  0
   22.2458   73.3814   -2.5985 O   0  0  0  0  0  0  0  0  0  0  0  0
   22.8276   74.0757   -1.2595 P   0  0  2  0  0  0  0  0  0  0  0  0
   21.5694   74.9340   -0.7113 O   0  0  0  0  0  0  0  0  0  0  0  0
   24.0772   74.8793   -1.4756 O   0  0  0  0  0  0  0  0  0  0  0  0
   22.9845   72.8645   -0.2055 O   0  0  0  0  0  0  0  0  0  0  0  0
   21.7097   70.8746   -0.0489 O   0  0  0  0  0  0  0  0  0  0  0  0
   22.8161   71.4760    3.8858 O   0  0  0  0  0  0  0  0  0  0  0  0
   21.9522   73.7228    2.2305 O   0  0  0  0  0  0  0  0  0  0  0  0
   24.1368   69.4327    2.2947 O   0  0  0  0  0  0  0  0  0  0  0  0
   22.9655   71.5311    2.4672 C   0  0  2  0  0  0  0  0  0  0  0  0
   21.8264   72.3536    1.8642 C   0  0  2  0  0  0  0  0  0  0  0  0
   22.9284   70.0980    1.9318 C   0  0  1  0  0  0  0  0  0  0  0  0
   21.8208   72.2446    0.3388 C   0  0  1  0  0  0  0  0  0  0  0  0
   22.7963   70.0744    0.4117 C   0  0  1  0  0  0  0  0  0  0  0  0
   22.8366   72.3757    4.2485 H   0  0  0  0  0  0  0  0  0  0  0  0
   21.9568   73.7994    3.1971 H   0  0  0  0  0  0  0  0  0  0  0  0
   24.2330   69.4409    3.2599 H   0  0  0  0  0  0  0  0  0  0  0  0
   21.0879   68.5851   -0.1926 O   0  0  0  0  0  0  0  0  0  0  0  0
   23.2308   67.8161   -0.3183 O   0  0  0  0  0  0  0  0  0  0  0  0
   22.4328   68.7069   -0.0680 C   0  0  0  0  0  0  0  0  0  0  0  0
  1  4  1  0
  1 24  1  0
  1  2  1  6
  1  3  2  0
 25 28  1  0
 25 24  1  0
 25 26  1  1
 25 27  2  0
  6 11  1  0
  6 12  1  0
 29 36  1  0
 29 37  1  0
  9  7  1  1
  7 13  1  0
 10  8  1  1
  8 14  1  0
  4  5  1  0
 36 28  1  1
 33 30  1  1
 30 38  1  0
 34 31  1  6
 31 39  1  0
 35 32  1  6
 32 40  1  0
 41 43  1  0
 15 19  2  0
 42 43  2  0
 16 22  2  0
 12 17  1  6
 17 19  1  0
 17 20  1  0
 18 19  1  0
 18 22  1  0
 18 23  1  0
  9 10  1  0
  9 11  1  0
 10 12  1  0
 11  5  1  6
 33 34  1  0
 33 35  1  0
 34 36  1  0
 35 37  1  0
 37 43  1  1
 20 21  2  0
 21 22  1  0
M  CHG  3   2  -1  26  -1  41  -1
M  END
>  <COMPND>  (176) 
    udp_gluA.pdb 

>  <AUTHOR>  (176) 
    GENERATED BY OPEN BABEL 3.1.1

>  <MASTER>  (176) 
        0    0    0    0    0    0    0    0   56    0   56    0

>  <minimizedAffinity>  (176) 
-7.55619

>  <CNNscore>  (176) 
0.3169160485

>  <CNNaffinity>  (176) 
3.7754478455

>  <CNN_VS>  (176) 
1.1965000629

>  <CNNaffinity_variance>  (176) 
0.5540451407

$$$$
177
     RDKit          3D

 43 45  0  0  0  0  0  0  0  0999 V2000
   21.8337   72.2262   -4.1839 P   0  0  2  0  0  0  0  0  0  0  0  0
   21.0364   73.3409   -3.3234 O   0  0  0  0  0  0  0  0  0  0  0  0
   23.1427   72.6847   -4.7565 O   0  0  0  0  0  0  0  0  0  0  0  0
   20.7397   71.7088   -5.2580 O   0  0  0  0  0  0  0  0  0  0  0  0
   20.5420   72.4642   -6.4390 C   0  0  0  0  0  0  0  0  0  0  0  0
   18.3454   71.5370   -6.7437 O   0  0  0  0  0  0  0  0  0  0  0  0
   19.0010   71.4250   -9.6675 O   0  0  0  0  0  0  0  0  0  0  0  0
   17.4420   73.6554   -9.4915 O   0  0  0  0  0  0  0  0  0  0  0  0
   19.3691   72.4042   -8.6958 C   0  0  1  0  0  0  0  0  0  0  0  0
   18.1778   73.2718   -8.3487 C   0  0  2  0  0  0  0  0  0  0  0  0
   19.6331   71.6844   -7.3803 C   0  0  1  0  0  0  0  0  0  0  0  0
   17.3869   72.3651   -7.4212 C   0  0  2  0  0  0  0  0  0  0  0  0
   18.8273   71.8612  -10.5168 H   0  0  0  0  0  0  0  0  0  0  0  0
   17.9886   74.2315  -10.0495 H   0  0  0  0  0  0  0  0  0  0  0  0
   14.9061   73.6143   -7.9324 O   0  0  0  0  0  0  0  0  0  0  0  0
   14.5873   75.1639   -3.6033 O   0  0  0  0  0  0  0  0  0  0  0  0
   16.6339   73.1015   -6.4457 N   0  0  0  0  0  0  0  0  0  0  0  0
   14.7502   74.3858   -5.7760 N   0  0  0  0  0  0  0  0  0  0  0  0
   15.3987   73.6906   -6.8052 C   0  0  0  0  0  0  0  0  0  0  0  0
   17.1187   73.2331   -5.1501 C   0  0  0  0  0  0  0  0  0  0  0  0
   16.4891   73.8987   -4.1798 C   0  0  0  0  0  0  0  0  0  0  0  0
   15.1928   74.5445   -4.4728 C   0  0  0  0  0  0  0  0  0  0  0  0
   13.8893   74.8062   -6.0029 H   0  0  0  0  0  0  0  0  0  0  0  0
   21.9468   70.9854   -3.1541 O   0  0  0  0  0  0  0  0  0  0  0  0
   20.8727   70.3654   -2.1170 P   0  0  2  0  0  0  0  0  0  0  0  0
   20.7819   68.8120   -2.5631 O   0  0  0  0  0  0  0  0  0  0  0  0
   19.5531   71.0810   -2.0960 O   0  0  0  0  0  0  0  0  0  0  0  0
   21.6418   70.3375   -0.6992 O   0  0  0  0  0  0  0  0  0  0  0  0
   23.1279   72.0872   -0.1166 O   0  0  0  0  0  0  0  0  0  0  0  0
   24.2536   69.1144    2.5223 O   0  0  0  0  0  0  0  0  0  0  0  0
   23.6596   68.4731   -0.2652 O   0  0  0  0  0  0  0  0  0  0  0  0
   22.6708   71.3685    3.4523 O   0  0  0  0  0  0  0  0  0  0  0  0
   23.3496   69.8564    1.7036 C   0  0  2  0  0  0  0  0  0  0  0  0
   23.8084   69.7924    0.2466 C   0  0  2  0  0  0  0  0  0  0  0  0
   23.3450   71.3051    2.1970 C   0  0  1  0  0  0  0  0  0  0  0  0
   23.0028   70.7580   -0.6237 C   0  0  1  0  0  0  0  0  0  0  0  0
   22.6308   72.2266    1.2125 C   0  0  1  0  0  0  0  0  0  0  0  0
   24.2732   68.1904    2.2273 H   0  0  0  0  0  0  0  0  0  0  0  0
   24.1681   67.8550    0.2824 H   0  0  0  0  0  0  0  0  0  0  0  0
   23.1154   70.7862    4.0879 H   0  0  0  0  0  0  0  0  0  0  0  0
   23.9201   73.7626    2.4290 O   0  0  0  0  0  0  0  0  0  0  0  0
   22.3226   74.6135    1.0423 O   0  0  0  0  0  0  0  0  0  0  0  0
   22.9124   73.6597    1.5274 C   0  0  0  0  0  0  0  0  0  0  0  0
  1  4  1  0
  1 24  1  0
  1  2  1  1
  1  3  2  0
 25 28  1  0
 25 24  1  0
 25 26  1  6
 25 27  2  0
  6 11  1  0
  6 12  1  0
 29 36  1  0
 29 37  1  0
  9  7  1  6
  7 13  1  0
 10  8  1  6
  8 14  1  0
  4  5  1  0
 36 28  1  1
 33 30  1  1
 30 38  1  0
 34 31  1  6
 31 39  1  0
 35 32  1  1
 32 40  1  0
 41 43  1  0
 15 19  2  0
 42 43  2  0
 16 22  2  0
 12 17  1  1
 17 19  1  0
 17 20  1  0
 18 19  1  0
 18 22  1  0
 18 23  1  0
  9 10  1  0
  9 11  1  0
 10 12  1  0
 11  5  1  1
 33 34  1  0
 33 35  1  0
 34 36  1  0
 35 37  1  0
 37 43  1  1
 20 21  2  0
 21 22  1  0
M  CHG  3   2  -1  26  -1  41  -1
M  END
>  <COMPND>  (177) 
    udp_gluA.pdb 

>  <AUTHOR>  (177) 
    GENERATED BY OPEN BABEL 3.1.1

>  <MASTER>  (177) 
        0    0    0    0    0    0    0    0   56    0   56    0

>  <minimizedAffinity>  (177) 
-7.18232

>  <CNNscore>  (177) 
0.2995467782

>  <CNNaffinity>  (177) 
3.8931984901

>  <CNN_VS>  (177) 
1.1661950350

>  <CNNaffinity_variance>  (177) 
0.2244461030

$$$$
178
     RDKit          3D

 43 45  0  0  0  0  0  0  0  0999 V2000
   22.3670   72.8831   -3.8763 P   0  0  2  0  0  0  0  0  0  0  0  0
   23.8900   72.8349   -4.4215 O   0  0  0  0  0  0  0  0  0  0  0  0
   21.9065   74.2300   -3.4014 O   0  0  0  0  0  0  0  0  0  0  0  0
   22.3088   71.6940   -2.7806 O   0  0  0  0  0  0  0  0  0  0  0  0
   22.4788   72.0245   -1.4145 C   0  0  0  0  0  0  0  0  0  0  0  0
   21.8581   69.7113   -1.2106 O   0  0  0  0  0  0  0  0  0  0  0  0
   21.3503   70.2954    1.6863 O   0  0  0  0  0  0  0  0  0  0  0  0
   23.7918   69.0822    1.7422 O   0  0  0  0  0  0  0  0  0  0  0  0
   22.3595   70.8185    0.8224 C   0  0  1  0  0  0  0  0  0  0  0  0
   23.4239   69.7727    0.5664 C   0  0  2  0  0  0  0  0  0  0  0  0
   21.7482   70.9961   -0.5607 C   0  0  1  0  0  0  0  0  0  0  0  0
   22.7438   68.8731   -0.4515 C   0  0  2  0  0  0  0  0  0  0  0  0
   21.7174   70.1734    2.5763 H   0  0  0  0  0  0  0  0  0  0  0  0
   24.2207   69.6978    2.3579 H   0  0  0  0  0  0  0  0  0  0  0  0
   23.2306   66.0937   -0.5716 O   0  0  0  0  0  0  0  0  0  0  0  0
   26.3563   66.6012   -3.9207 O   0  0  0  0  0  0  0  0  0  0  0  0
   23.6796   68.2520   -1.3456 N   0  0  0  0  0  0  0  0  0  0  0  0
   24.7877   66.3492   -2.2388 N   0  0  0  0  0  0  0  0  0  0  0  0
   23.8490   66.8473   -1.3257 C   0  0  0  0  0  0  0  0  0  0  0  0
   24.4158   69.0310   -2.2299 C   0  0  0  0  0  0  0  0  0  0  0  0
   25.3069   68.5418   -3.0945 C   0  0  0  0  0  0  0  0  0  0  0  0
   25.5443   67.0840   -3.1372 C   0  0  0  0  0  0  0  0  0  0  0  0
   24.9245   65.3742   -2.2421 H   0  0  0  0  0  0  0  0  0  0  0  0
   21.5195   72.2793   -5.1132 O   0  0  0  0  0  0  0  0  0  0  0  0
   20.0897   72.7115   -5.7317 P   0  0  2  0  0  0  0  0  0  0  0  0
   20.2197   72.2948   -7.2904 O   0  0  0  0  0  0  0  0  0  0  0  0
   19.7304   74.1514   -5.5044 O   0  0  0  0  0  0  0  0  0  0  0  0
   19.0399   71.6540   -5.1136 O   0  0  0  0  0  0  0  0  0  0  0  0
   17.7805   71.8082   -3.1138 O   0  0  0  0  0  0  0  0  0  0  0  0
   18.3242   67.7268   -3.4521 O   0  0  0  0  0  0  0  0  0  0  0  0
   20.5205   69.5659   -4.0255 O   0  0  0  0  0  0  0  0  0  0  0  0
   15.7506   68.9145   -4.0978 O   0  0  0  0  0  0  0  0  0  0  0  0
   18.1493   69.0619   -3.9263 C   0  0  2  0  0  0  0  0  0  0  0  0
   19.2912   69.9405   -3.4146 C   0  0  2  0  0  0  0  0  0  0  0  0
   16.8062   69.5771   -3.4042 C   0  0  1  0  0  0  0  0  0  0  0  0
   19.0190   71.4167   -3.7072 C   0  0  1  0  0  0  0  0  0  0  0  0
   16.6639   71.0808   -3.6211 C   0  0  1  0  0  0  0  0  0  0  0  0
   19.1716   67.3785   -3.7715 H   0  0  0  0  0  0  0  0  0  0  0  0
   20.6993   68.6302   -3.8441 H   0  0  0  0  0  0  0  0  0  0  0  0
   15.8297   67.9565   -3.9679 H   0  0  0  0  0  0  0  0  0  0  0  0
   15.3286   72.9389   -3.1052 O   0  0  0  0  0  0  0  0  0  0  0  0
   14.8449   70.9822   -2.0392 O   0  0  0  0  0  0  0  0  0  0  0  0
   15.5206   71.6253   -2.8283 C   0  0  0  0  0  0  0  0  0  0  0  0
  1  4  1  0
  1 24  1  0
  1  2  1  6
  1  3  2  0
 25 28  1  0
 25 24  1  0
 25 26  1  6
 25 27  2  0
  6 11  1  0
  6 12  1  0
 29 36  1  0
 29 37  1  0
  9  7  1  1
  7 13  1  0
 10  8  1  1
  8 14  1  0
  4  5  1  0
 36 28  1  6
 33 30  1  1
 30 38  1  0
 34 31  1  6
 31 39  1  0
 35 32  1  6
 32 40  1  0
 41 43  1  0
 15 19  2  0
 42 43  2  0
 16 22  2  0
 12 17  1  6
 17 19  1  0
 17 20  1  0
 18 19  1  0
 18 22  1  0
 18 23  1  0
  9 10  1  0
  9 11  1  0
 10 12  1  0
 11  5  1  6
 33 34  1  0
 33 35  1  0
 34 36  1  0
 35 37  1  0
 37 43  1  1
 20 21  2  0
 21 22  1  0
M  CHG  3   2  -1  26  -1  41  -1
M  END
>  <COMPND>  (178) 
    udp_gluA.pdb 

>  <AUTHOR>  (178) 
    GENERATED BY OPEN BABEL 3.1.1

>  <MASTER>  (178) 
        0    0    0    0    0    0    0    0   56    0   56    0

>  <minimizedAffinity>  (178) 
-8.59886

>  <CNNscore>  (178) 
0.2975744009

>  <CNNaffinity>  (178) 
4.0406069756

>  <CNN_VS>  (178) 
1.2023812532

>  <CNNaffinity_variance>  (178) 
1.0772507191

$$$$
179
     RDKit          3D

 43 45  0  0  0  0  0  0  0  0999 V2000
   22.7252   73.1751   -3.3831 P   0  0  2  0  0  0  0  0  0  0  0  0
   24.1445   72.9059   -4.1124 O   0  0  0  0  0  0  0  0  0  0  0  0
   22.5507   74.5582   -2.8276 O   0  0  0  0  0  0  0  0  0  0  0  0
   22.6030   71.9676   -2.3131 O   0  0  0  0  0  0  0  0  0  0  0  0
   22.7298   72.2694   -0.9356 C   0  0  0  0  0  0  0  0  0  0  0  0
   21.9382   70.0008   -0.8689 O   0  0  0  0  0  0  0  0  0  0  0  0
   21.5684   70.4129    2.0781 O   0  0  0  0  0  0  0  0  0  0  0  0
   23.9089   69.0185    1.9605 O   0  0  0  0  0  0  0  0  0  0  0  0
   22.5876   70.9190    1.2158 C   0  0  1  0  0  0  0  0  0  0  0  0
   23.5590   69.8170    0.8494 C   0  0  2  0  0  0  0  0  0  0  0  0
   21.9488   71.2405   -0.1284 C   0  0  1  0  0  0  0  0  0  0  0  0
   22.7795   69.0463   -0.2024 C   0  0  2  0  0  0  0  0  0  0  0  0
   21.9527   70.2002    2.9434 H   0  0  0  0  0  0  0  0  0  0  0  0
   24.4034   69.5544    2.6009 H   0  0  0  0  0  0  0  0  0  0  0  0
   23.1449   66.2562   -0.4447 O   0  0  0  0  0  0  0  0  0  0  0  0
   26.0889   66.7626   -3.9548 O   0  0  0  0  0  0  0  0  0  0  0  0
   23.6357   68.4219   -1.1709 N   0  0  0  0  0  0  0  0  0  0  0  0
   24.6116   66.5112   -2.1921 N   0  0  0  0  0  0  0  0  0  0  0  0
   23.7486   67.0120   -1.2085 C   0  0  0  0  0  0  0  0  0  0  0  0
   24.3504   69.2032   -2.0707 C   0  0  0  0  0  0  0  0  0  0  0  0
   25.1691   68.7114   -3.0028 C   0  0  0  0  0  0  0  0  0  0  0  0
   25.3441   67.2480   -3.1086 C   0  0  0  0  0  0  0  0  0  0  0  0
   24.7081   65.5324   -2.2363 H   0  0  0  0  0  0  0  0  0  0  0  0
   21.6502   72.7649   -4.5184 O   0  0  0  0  0  0  0  0  0  0  0  0
   21.3281   73.4193   -5.9611 P   0  0  2  0  0  0  0  0  0  0  0  0
   22.5487   72.8947   -6.8860 O   0  0  0  0  0  0  0  0  0  0  0  0
   21.1668   74.9117   -5.9382 O   0  0  0  0  0  0  0  0  0  0  0  0
   20.0366   72.6145   -6.4965 O   0  0  0  0  0  0  0  0  0  0  0  0
   18.9939   70.6418   -5.7025 O   0  0  0  0  0  0  0  0  0  0  0  0
   18.4124   70.3174   -9.7799 O   0  0  0  0  0  0  0  0  0  0  0  0
   20.9765   71.2292   -8.7176 O   0  0  0  0  0  0  0  0  0  0  0  0
   16.2103   71.0964   -8.0493 O   0  0  0  0  0  0  0  0  0  0  0  0
   18.5680   71.0004   -8.5360 C   0  0  2  0  0  0  0  0  0  0  0  0
   19.9324   70.6630   -7.9341 C   0  0  2  0  0  0  0  0  0  0  0  0
   17.4461   70.5425   -7.6014 C   0  0  1  0  0  0  0  0  0  0  0  0
   20.0436   71.1880   -6.5021 C   0  0  1  0  0  0  0  0  0  0  0  0
   17.6943   71.0001   -6.1670 C   0  0  1  0  0  0  0  0  0  0  0  0
   19.1146   70.5926  -10.3901 H   0  0  0  0  0  0  0  0  0  0  0  0
   20.9119   70.9005   -9.6277 H   0  0  0  0  0  0  0  0  0  0  0  0
   16.0405   70.8129   -8.9612 H   0  0  0  0  0  0  0  0  0  0  0  0
   15.9257   69.4844   -5.8909 O   0  0  0  0  0  0  0  0  0  0  0  0
   16.8188   70.3961   -4.0013 O   0  0  0  0  0  0  0  0  0  0  0  0
   16.7896   70.2841   -5.2177 C   0  0  0  0  0  0  0  0  0  0  0  0
  1  4  1  0
  1 24  1  0
  1  2  1  6
  1  3  2  0
 25 28  1  0
 25 24  1  0
 25 26  1  6
 25 27  2  0
  6 11  1  0
  6 12  1  0
 29 36  1  0
 29 37  1  0
  9  7  1  1
  7 13  1  0
 10  8  1  1
  8 14  1  0
  4  5  1  0
 36 28  1  6
 33 30  1  6
 30 38  1  0
 34 31  1  6
 31 39  1  0
 35 32  1  6
 32 40  1  0
 41 43  1  0
 15 19  2  0
 42 43  2  0
 16 22  2  0
 12 17  1  6
 17 19  1  0
 17 20  1  0
 18 19  1  0
 18 22  1  0
 18 23  1  0
  9 10  1  0
  9 11  1  0
 10 12  1  0
 11  5  1  6
 33 34  1  0
 33 35  1  0
 34 36  1  0
 35 37  1  0
 37 43  1  1
 20 21  2  0
 21 22  1  0
M  CHG  3   2  -1  26  -1  41  -1
M  END
>  <COMPND>  (179) 
    udp_gluA.pdb 

>  <AUTHOR>  (179) 
    GENERATED BY OPEN BABEL 3.1.1

>  <MASTER>  (179) 
        0    0    0    0    0    0    0    0   56    0   56    0

>  <minimizedAffinity>  (179) 
-9.61110

>  <CNNscore>  (179) 
0.2882055640

>  <CNNaffinity>  (179) 
4.2063951492

>  <CNN_VS>  (179) 
1.2123064995

>  <CNNaffinity_variance>  (179) 
0.5852345824

$$$$
180
     RDKit          3D

 43 45  0  0  0  0  0  0  0  0999 V2000
   21.4484   73.6242   -5.8543 P   0  0  2  0  0  0  0  0  0  0  0  0
   21.7427   75.2150   -5.8124 O   0  0  0  0  0  0  0  0  0  0  0  0
   22.3039   72.8466   -6.8110 O   0  0  0  0  0  0  0  0  0  0  0  0
   19.8524   73.5309   -6.1035 O   0  0  0  0  0  0  0  0  0  0  0  0
   19.2498   74.4623   -6.9832 C   0  0  0  0  0  0  0  0  0  0  0  0
   18.0852   72.4254   -7.5054 O   0  0  0  0  0  0  0  0  0  0  0  0
   16.8309   73.9414   -9.7682 O   0  0  0  0  0  0  0  0  0  0  0  0
   14.8602   73.9455   -7.8834 O   0  0  0  0  0  0  0  0  0  0  0  0
   17.1792   74.3949   -8.4599 C   0  0  1  0  0  0  0  0  0  0  0  0
   16.1982   73.8566   -7.4401 C   0  0  2  0  0  0  0  0  0  0  0  0
   18.4735   73.7042   -8.0524 C   0  0  1  0  0  0  0  0  0  0  0  0
   16.6667   72.4205   -7.2792 C   0  0  2  0  0  0  0  0  0  0  0  0
   16.0068   74.3691  -10.0502 H   0  0  0  0  0  0  0  0  0  0  0  0
   14.6096   74.8791   -7.9699 H   0  0  0  0  0  0  0  0  0  0  0  0
   16.1380   69.7047   -6.7122 O   0  0  0  0  0  0  0  0  0  0  0  0
   15.6768   70.5467   -2.2041 O   0  0  0  0  0  0  0  0  0  0  0  0
   16.4051   71.9026   -5.9661 N   0  0  0  0  0  0  0  0  0  0  0  0
   15.9078   70.1268   -4.4676 N   0  0  0  0  0  0  0  0  0  0  0  0
   16.1510   70.5219   -5.7896 C   0  0  0  0  0  0  0  0  0  0  0  0
   16.4036   72.7577   -4.8708 C   0  0  0  0  0  0  0  0  0  0  0  0
   16.1702   72.3664   -3.6166 C   0  0  0  0  0  0  0  0  0  0  0  0
   15.8950   70.9401   -3.3460 C   0  0  0  0  0  0  0  0  0  0  0  0
   15.7263   69.1705   -4.3200 H   0  0  0  0  0  0  0  0  0  0  0  0
   21.6007   73.1860   -4.3059 O   0  0  0  0  0  0  0  0  0  0  0  0
   22.9037   73.0866   -3.3541 P   0  0  2  0  0  0  0  0  0  0  0  0
   22.7758   74.3978   -2.4136 O   0  0  0  0  0  0  0  0  0  0  0  0
   24.2035   72.9838   -4.0984 O   0  0  0  0  0  0  0  0  0  0  0  0
   22.5969   71.8469   -2.3684 O   0  0  0  0  0  0  0  0  0  0  0  0
   23.0986   69.6812   -3.1852 O   0  0  0  0  0  0  0  0  0  0  0  0
   20.8101   68.8150    0.1436 O   0  0  0  0  0  0  0  0  0  0  0  0
   20.0495   70.9912   -1.6510 O   0  0  0  0  0  0  0  0  0  0  0  0
   23.6951   68.4674    0.2256 O   0  0  0  0  0  0  0  0  0  0  0  0
   21.7348   69.5667   -0.6425 C   0  0  2  0  0  0  0  0  0  0  0  0
   21.0552   70.0249   -1.9331 C   0  0  2  0  0  0  0  0  0  0  0  0
   22.9283   68.6635   -0.9611 C   0  0  1  0  0  0  0  0  0  0  0  0
   22.0718   70.6322   -2.9009 C   0  0  1  0  0  0  0  0  0  0  0  0
   23.8279   69.2840   -2.0261 C   0  0  1  0  0  0  0  0  0  0  0  0
   20.0429   69.3688    0.3582 H   0  0  0  0  0  0  0  0  0  0  0  0
   19.4012   70.6127   -1.0372 H   0  0  0  0  0  0  0  0  0  0  0  0
   23.1341   68.0731    0.9116 H   0  0  0  0  0  0  0  0  0  0  0  0
   25.6950   68.8629   -3.3818 O   0  0  0  0  0  0  0  0  0  0  0  0
   24.7677   67.0795   -2.3054 O   0  0  0  0  0  0  0  0  0  0  0  0
   24.7881   68.2735   -2.5638 C   0  0  0  0  0  0  0  0  0  0  0  0
  1  4  1  0
  1 24  1  0
  1  2  1  1
  1  3  2  0
 25 28  1  0
 25 24  1  0
 25 26  1  1
 25 27  2  0
  6 11  1  0
  6 12  1  0
 29 36  1  0
 29 37  1  0
  9  7  1  6
  7 13  1  0
 10  8  1  6
  8 14  1  0
  4  5  1  0
 36 28  1  1
 33 30  1  1
 30 38  1  0
 34 31  1  1
 31 39  1  0
 35 32  1  1
 32 40  1  0
 41 43  1  0
 15 19  2  0
 42 43  2  0
 16 22  2  0
 12 17  1  1
 17 19  1  0
 17 20  1  0
 18 19  1  0
 18 22  1  0
 18 23  1  0
  9 10  1  0
  9 11  1  0
 10 12  1  0
 11  5  1  1
 33 34  1  0
 33 35  1  0
 34 36  1  0
 35 37  1  0
 37 43  1  6
 20 21  2  0
 21 22  1  0
M  CHG  3   2  -1  26  -1  41  -1
M  END
>  <COMPND>  (180) 
    udp_gluA.pdb 

>  <AUTHOR>  (180) 
    GENERATED BY OPEN BABEL 3.1.1

>  <MASTER>  (180) 
        0    0    0    0    0    0    0    0   56    0   56    0

>  <minimizedAffinity>  (180) 
-8.43201

>  <CNNscore>  (180) 
0.2457414716

>  <CNNaffinity>  (180) 
3.6679863930

>  <CNN_VS>  (180) 
0.9013763666

>  <CNNaffinity_variance>  (180) 
0.9017880559

$$$$
181
     RDKit          3D

 43 45  0  0  0  0  0  0  0  0999 V2000
   21.2074   69.2158   -1.0294 P   0  0  2  0  0  0  0  0  0  0  0  0
   22.2207   68.5482   -2.1001 O   0  0  0  0  0  0  0  0  0  0  0  0
   21.2836   68.6450    0.3563 O   0  0  0  0  0  0  0  0  0  0  0  0
   19.7620   69.1198   -1.7503 O   0  0  0  0  0  0  0  0  0  0  0  0
   19.5936   69.7385   -3.0125 C   0  0  0  0  0  0  0  0  0  0  0  0
   18.2573   71.3672   -4.1698 O   0  0  0  0  0  0  0  0  0  0  0  0
   15.9198   70.2471   -2.6621 O   0  0  0  0  0  0  0  0  0  0  0  0
   15.6570   69.0876   -5.1162 O   0  0  0  0  0  0  0  0  0  0  0  0
   17.0613   69.5720   -3.1912 C   0  0  1  0  0  0  0  0  0  0  0  0
   16.9530   69.4609   -4.6972 C   0  0  2  0  0  0  0  0  0  0  0  0
   18.2669   70.4869   -3.0251 C   0  0  1  0  0  0  0  0  0  0  0  0
   17.3312   70.8625   -5.1449 C   0  0  2  0  0  0  0  0  0  0  0  0
   15.1367   69.6819   -2.7570 H   0  0  0  0  0  0  0  0  0  0  0  0
   15.4638   68.1881   -4.8069 H   0  0  0  0  0  0  0  0  0  0  0  0
   15.9424   70.6692   -7.5965 O   0  0  0  0  0  0  0  0  0  0  0  0
   19.8447   70.9196  -10.0364 O   0  0  0  0  0  0  0  0  0  0  0  0
   17.9595   70.8747   -6.4356 N   0  0  0  0  0  0  0  0  0  0  0  0
   17.8874   70.7931   -8.8093 N   0  0  0  0  0  0  0  0  0  0  0  0
   17.1705   70.7716   -7.6057 C   0  0  0  0  0  0  0  0  0  0  0  0
   19.3409   70.9893   -6.5336 C   0  0  0  0  0  0  0  0  0  0  0  0
   20.0099   71.0084   -7.6880 C   0  0  0  0  0  0  0  0  0  0  0  0
   19.2604   70.9047   -8.9572 C   0  0  0  0  0  0  0  0  0  0  0  0
   17.3598   70.7206   -9.6375 H   0  0  0  0  0  0  0  0  0  0  0  0
   21.5595   70.7902   -1.1294 O   0  0  0  0  0  0  0  0  0  0  0  0
   22.9706   71.5714   -1.0191 P   0  0  2  0  0  0  0  0  0  0  0  0
   22.8775   72.6720   -2.2024 O   0  0  0  0  0  0  0  0  0  0  0  0
   24.1758   70.6797   -1.0973 O   0  0  0  0  0  0  0  0  0  0  0  0
   22.8588   72.4280    0.3434 O   0  0  0  0  0  0  0  0  0  0  0  0
   24.3553   72.5076    2.1773 O   0  0  0  0  0  0  0  0  0  0  0  0
   20.7266   73.2129    4.0221 O   0  0  0  0  0  0  0  0  0  0  0  0
   20.9590   71.1746    1.9422 O   0  0  0  0  0  0  0  0  0  0  0  0
   22.5854   75.4025    3.5735 O   0  0  0  0  0  0  0  0  0  0  0  0
   21.6783   73.2567    2.9589 C   0  0  2  0  0  0  0  0  0  0  0  0
   22.0614   71.8325    2.5560 C   0  0  2  0  0  0  0  0  0  0  0  0
   22.9088   74.0182    3.4568 C   0  0  1  0  0  0  0  0  0  0  0  0
   23.2422   71.8378    1.5841 C   0  0  1  0  0  0  0  0  0  0  0  0
   24.0826   73.8711    2.4929 C   0  0  1  0  0  0  0  0  0  0  0  0
   19.9358   72.7335    3.7289 H   0  0  0  0  0  0  0  0  0  0  0  0
   20.2061   71.1679    2.5533 H   0  0  0  0  0  0  0  0  0  0  0  0
   21.8395   75.5100    4.1842 H   0  0  0  0  0  0  0  0  0  0  0  0
   25.1279   74.7474    4.4011 O   0  0  0  0  0  0  0  0  0  0  0  0
   26.4501   74.3259    2.5919 O   0  0  0  0  0  0  0  0  0  0  0  0
   25.3537   74.3283    3.1313 C   0  0  0  0  0  0  0  0  0  0  0  0
  1  4  1  0
  1 24  1  0
  1  2  1  6
  1  3  2  0
 25 28  1  0
 25 24  1  0
 25 26  1  6
 25 27  2  0
  6 11  1  0
  6 12  1  0
 29 36  1  0
 29 37  1  0
  9  7  1  6
  7 13  1  0
 10  8  1  1
  8 14  1  0
  4  5  1  0
 36 28  1  6
 33 30  1  1
 30 38  1  0
 34 31  1  6
 31 39  1  0
 35 32  1  6
 32 40  1  0
 41 43  1  0
 15 19  2  0
 42 43  2  0
 16 22  2  0
 12 17  1  6
 17 19  1  0
 17 20  1  0
 18 19  1  0
 18 22  1  0
 18 23  1  0
  9 10  1  0
  9 11  1  0
 10 12  1  0
 11  5  1  6
 33 34  1  0
 33 35  1  0
 34 36  1  0
 35 37  1  0
 37 43  1  1
 20 21  2  0
 21 22  1  0
M  CHG  3   2  -1  26  -1  41  -1
M  END
>  <COMPND>  (181) 
    udp_gluA.pdb 

>  <AUTHOR>  (181) 
    GENERATED BY OPEN BABEL 3.1.1

>  <MASTER>  (181) 
        0    0    0    0    0    0    0    0   56    0   56    0

>  <minimizedAffinity>  (181) 
-8.08843

>  <CNNscore>  (181) 
0.8611583710

>  <CNNaffinity>  (181) 
4.8462872505

>  <CNN_VS>  (181) 
4.1734209061

>  <CNNaffinity_variance>  (181) 
0.0873265415

$$$$
182
     RDKit          3D

 43 45  0  0  0  0  0  0  0  0999 V2000
   20.9979   75.2658   -2.8788 P   0  0  2  0  0  0  0  0  0  0  0  0
   21.3195   75.1938   -1.2945 O   0  0  0  0  0  0  0  0  0  0  0  0
   20.5436   76.6080   -3.3728 O   0  0  0  0  0  0  0  0  0  0  0  0
   19.9677   74.0421   -3.1222 O   0  0  0  0  0  0  0  0  0  0  0  0
   19.0268   74.1494   -4.1746 C   0  0  0  0  0  0  0  0  0  0  0  0
   17.3192   72.7490   -5.1235 O   0  0  0  0  0  0  0  0  0  0  0  0
   17.0326   71.5612   -2.3851 O   0  0  0  0  0  0  0  0  0  0  0  0
   18.5282   69.6925   -3.6917 O   0  0  0  0  0  0  0  0  0  0  0  0
   18.2089   72.0170   -3.0539 C   0  0  1  0  0  0  0  0  0  0  0  0
   18.6149   71.0323   -4.1298 C   0  0  2  0  0  0  0  0  0  0  0  0
   17.8379   73.2469   -3.8711 C   0  0  1  0  0  0  0  0  0  0  0  0
   17.6257   71.3503   -5.2380 C   0  0  2  0  0  0  0  0  0  0  0  0
   17.2448   70.7757   -1.8563 H   0  0  0  0  0  0  0  0  0  0  0  0
   19.1776   69.5402   -2.9867 H   0  0  0  0  0  0  0  0  0  0  0  0
   16.0979   70.5046   -7.4578 O   0  0  0  0  0  0  0  0  0  0  0  0
   19.8012   70.4049  -10.1999 O   0  0  0  0  0  0  0  0  0  0  0  0
   18.1652   71.0960   -6.5438 N   0  0  0  0  0  0  0  0  0  0  0  0
   17.9440   70.4548   -8.8211 N   0  0  0  0  0  0  0  0  0  0  0  0
   17.3114   70.6745   -7.5905 C   0  0  0  0  0  0  0  0  0  0  0  0
   19.5243   71.2658   -6.7779 C   0  0  0  0  0  0  0  0  0  0  0  0
   20.1128   71.0526   -7.9564 C   0  0  0  0  0  0  0  0  0  0  0  0
   19.2918   70.6095   -9.1023 C   0  0  0  0  0  0  0  0  0  0  0  0
   17.3704   70.1588   -9.5645 H   0  0  0  0  0  0  0  0  0  0  0  0
   22.3659   74.7284   -3.5516 O   0  0  0  0  0  0  0  0  0  0  0  0
   22.8467   73.2316   -3.9286 P   0  0  2  0  0  0  0  0  0  0  0  0
   24.4408   73.4007   -4.1533 O   0  0  0  0  0  0  0  0  0  0  0  0
   22.1187   72.6261   -5.0937 O   0  0  0  0  0  0  0  0  0  0  0  0
   22.7155   72.4007   -2.5521 O   0  0  0  0  0  0  0  0  0  0  0  0
   22.8127   70.0482   -2.8082 O   0  0  0  0  0  0  0  0  0  0  0  0
   21.6537   70.4168    1.1401 O   0  0  0  0  0  0  0  0  0  0  0  0
   20.4840   72.1345   -0.9132 O   0  0  0  0  0  0  0  0  0  0  0  0
   24.3922   69.6946    0.4846 O   0  0  0  0  0  0  0  0  0  0  0  0
   22.3213   70.7973   -0.0631 C   0  0  2  0  0  0  0  0  0  0  0  0
   21.2938   70.9948   -1.1779 C   0  0  2  0  0  0  0  0  0  0  0  0
   23.3008   69.6815   -0.4336 C   0  0  1  0  0  0  0  0  0  0  0  0
   21.9829   71.1769   -2.5310 C   0  0  1  0  0  0  0  0  0  0  0  0
   23.8489   69.8675   -1.8455 C   0  0  1  0  0  0  0  0  0  0  0  0
   21.0257   71.1110    1.3951 H   0  0  0  0  0  0  0  0  0  0  0  0
   20.0440   72.0259   -0.0559 H   0  0  0  0  0  0  0  0  0  0  0  0
   24.0569   69.5772    1.3872 H   0  0  0  0  0  0  0  0  0  0  0  0
   24.0445   67.5365   -1.6725 O   0  0  0  0  0  0  0  0  0  0  0  0
   25.4085   68.5866   -3.1678 O   0  0  0  0  0  0  0  0  0  0  0  0
   24.5322   68.6253   -2.3172 C   0  0  0  0  0  0  0  0  0  0  0  0
  1  4  1  0
  1 24  1  0
  1  2  1  1
  1  3  2  0
 25 28  1  0
 25 24  1  0
 25 26  1  6
 25 27  2  0
  6 11  1  0
  6 12  1  0
 29 36  1  0
 29 37  1  0
  9  7  1  6
  7 13  1  0
 10  8  1  1
  8 14  1  0
  4  5  1  0
 36 28  1  1
 33 30  1  1
 30 38  1  0
 34 31  1  1
 31 39  1  0
 35 32  1  1
 32 40  1  0
 41 43  1  0
 15 19  2  0
 42 43  2  0
 16 22  2  0
 12 17  1  6
 17 19  1  0
 17 20  1  0
 18 19  1  0
 18 22  1  0
 18 23  1  0
  9 10  1  0
  9 11  1  0
 10 12  1  0
 11  5  1  6
 33 34  1  0
 33 35  1  0
 34 36  1  0
 35 37  1  0
 37 43  1  6
 20 21  2  0
 21 22  1  0
M  CHG  3   2  -1  26  -1  41  -1
M  END
>  <COMPND>  (182) 
    udp_gluA.pdb 

>  <AUTHOR>  (182) 
    GENERATED BY OPEN BABEL 3.1.1

>  <MASTER>  (182) 
        0    0    0    0    0    0    0    0   56    0   56    0

>  <minimizedAffinity>  (182) 
-7.20437

>  <CNNscore>  (182) 
0.5576865673

>  <CNNaffinity>  (182) 
4.3676538467

>  <CNN_VS>  (182) 
2.4357819557

>  <CNNaffinity_variance>  (182) 
0.1663327217

$$$$
183
     RDKit          3D

 43 45  0  0  0  0  0  0  0  0999 V2000
   23.2063   69.1316   -2.3389 P   0  0  2  0  0  0  0  0  0  0  0  0
   24.2555   69.9743   -3.2378 O   0  0  0  0  0  0  0  0  0  0  0  0
   23.4403   67.6495   -2.3145 O   0  0  0  0  0  0  0  0  0  0  0  0
   21.7588   69.6054   -2.8847 O   0  0  0  0  0  0  0  0  0  0  0  0
   21.6877   70.7652   -3.6936 C   0  0  0  0  0  0  0  0  0  0  0  0
   19.9091   72.0860   -4.6262 O   0  0  0  0  0  0  0  0  0  0  0  0
   18.3394   71.3657   -2.1749 O   0  0  0  0  0  0  0  0  0  0  0  0
   17.3279   69.6650   -4.0512 O   0  0  0  0  0  0  0  0  0  0  0  0
   19.2734   70.5780   -2.9137 C   0  0  1  0  0  0  0  0  0  0  0  0
   18.6554   70.1177   -4.2170 C   0  0  2  0  0  0  0  0  0  0  0  0
   20.3861   71.4985   -3.3963 C   0  0  1  0  0  0  0  0  0  0  0  0
   18.7433   71.3728   -5.0684 C   0  0  2  0  0  0  0  0  0  0  0  0
   17.6190   70.7992   -1.8562 H   0  0  0  0  0  0  0  0  0  0  0  0
   17.3255   68.8644   -3.5026 H   0  0  0  0  0  0  0  0  0  0  0  0
   16.6031   70.6357   -6.7574 O   0  0  0  0  0  0  0  0  0  0  0  0
   19.3795   70.2645  -10.4176 O   0  0  0  0  0  0  0  0  0  0  0  0
   18.8787   71.0780   -6.4668 N   0  0  0  0  0  0  0  0  0  0  0  0
   17.9881   70.4506   -8.5785 N   0  0  0  0  0  0  0  0  0  0  0  0
   17.7402   70.7174   -7.2256 C   0  0  0  0  0  0  0  0  0  0  0  0
   20.1271   71.1489   -7.0729 C   0  0  0  0  0  0  0  0  0  0  0  0
   20.3478   70.8918   -8.3636 C   0  0  0  0  0  0  0  0  0  0  0  0
   19.2115   70.5071   -9.2263 C   0  0  0  0  0  0  0  0  0  0  0  0
   17.2111   70.1954   -9.1267 H   0  0  0  0  0  0  0  0  0  0  0  0
   23.3043   69.8525   -0.8954 O   0  0  0  0  0  0  0  0  0  0  0  0
   22.4423   69.6432    0.4562 P   0  0  2  0  0  0  0  0  0  0  0  0
   23.5434   69.1156    1.5190 O   0  0  0  0  0  0  0  0  0  0  0  0
   21.2549   68.7388    0.2955 O   0  0  0  0  0  0  0  0  0  0  0  0
   22.0842   71.1371    0.9487 O   0  0  0  0  0  0  0  0  0  0  0  0
   21.7513   73.1285   -0.2893 O   0  0  0  0  0  0  0  0  0  0  0  0
   23.4400   74.5755    3.1925 O   0  0  0  0  0  0  0  0  0  0  0  0
   24.4778   72.1485    1.9407 O   0  0  0  0  0  0  0  0  0  0  0  0
   20.5874   74.8760    2.7197 O   0  0  0  0  0  0  0  0  0  0  0  0
   22.6575   73.6868    2.3951 C   0  0  2  0  0  0  0  0  0  0  0  0
   23.5450   73.0354    1.3341 C   0  0  2  0  0  0  0  0  0  0  0  0
   21.5453   74.5019    1.7313 C   0  0  1  0  0  0  0  0  0  0  0  0
   22.7047   72.2574    0.3204 C   0  0  1  0  0  0  0  0  0  0  0  0
   20.8370   73.6971    0.6455 C   0  0  1  0  0  0  0  0  0  0  0  0
   24.1534   74.0796    3.6243 H   0  0  0  0  0  0  0  0  0  0  0  0
   25.0142   72.6354    2.5853 H   0  0  0  0  0  0  0  0  0  0  0  0
   21.0255   75.3887    3.4168 H   0  0  0  0  0  0  0  0  0  0  0  0
   18.8103   74.8516    0.3983 O   0  0  0  0  0  0  0  0  0  0  0  0
   20.3182   75.0213   -1.3036 O   0  0  0  0  0  0  0  0  0  0  0  0
   19.9935   74.5864   -0.2088 C   0  0  0  0  0  0  0  0  0  0  0  0
  1  4  1  0
  1 24  1  0
  1  2  1  6
  1  3  2  0
 25 28  1  0
 25 24  1  0
 25 26  1  1
 25 27  2  0
  6 11  1  0
  6 12  1  0
 29 36  1  0
 29 37  1  0
  9  7  1  1
  7 13  1  0
 10  8  1  1
  8 14  1  0
  4  5  1  0
 36 28  1  1
 33 30  1  6
 30 38  1  0
 34 31  1  1
 31 39  1  0
 35 32  1  1
 32 40  1  0
 41 43  1  0
 15 19  2  0
 42 43  2  0
 16 22  2  0
 12 17  1  6
 17 19  1  0
 17 20  1  0
 18 19  1  0
 18 22  1  0
 18 23  1  0
  9 10  1  0
  9 11  1  0
 10 12  1  0
 11  5  1  6
 33 34  1  0
 33 35  1  0
 34 36  1  0
 35 37  1  0
 37 43  1  6
 20 21  2  0
 21 22  1  0
M  CHG  3   2  -1  26  -1  41  -1
M  END
>  <COMPND>  (183) 
    udp_gluA.pdb 

>  <AUTHOR>  (183) 
    GENERATED BY OPEN BABEL 3.1.1

>  <MASTER>  (183) 
        0    0    0    0    0    0    0    0   56    0   56    0

>  <minimizedAffinity>  (183) 
-7.28542

>  <CNNscore>  (183) 
0.4878572226

>  <CNNaffinity>  (183) 
4.4240226746

>  <CNN_VS>  (183) 
2.1582913399

>  <CNNaffinity_variance>  (183) 
0.0493831038

$$$$
184
     RDKit          3D

 43 45  0  0  0  0  0  0  0  0999 V2000
   22.0896   72.7457   -4.1395 P   0  0  2  0  0  0  0  0  0  0  0  0
   21.6624   74.3065   -4.1285 O   0  0  0  0  0  0  0  0  0  0  0  0
   23.5515   72.4906   -4.3620 O   0  0  0  0  0  0  0  0  0  0  0  0
   21.0873   72.0761   -5.2189 O   0  0  0  0  0  0  0  0  0  0  0  0
   20.7710   72.8049   -6.3907 C   0  0  0  0  0  0  0  0  0  0  0  0
   19.3831   70.8636   -6.6785 O   0  0  0  0  0  0  0  0  0  0  0  0
   19.0146   71.7763   -9.5109 O   0  0  0  0  0  0  0  0  0  0  0  0
   16.6990   72.5839   -8.3185 O   0  0  0  0  0  0  0  0  0  0  0  0
   19.1303   72.5536   -8.3188 C   0  0  1  0  0  0  0  0  0  0  0  0
   17.8523   72.4685   -7.5115 C   0  0  2  0  0  0  0  0  0  0  0  0
   20.1320   71.8632   -7.4033 C   0  0  1  0  0  0  0  0  0  0  0  0
   17.9785   71.0999   -6.8643 C   0  0  2  0  0  0  0  0  0  0  0  0
   18.3796   72.1977  -10.1117 H   0  0  0  0  0  0  0  0  0  0  0  0
   16.6641   73.4725   -8.7074 H   0  0  0  0  0  0  0  0  0  0  0  0
   16.0475   69.1614   -6.1645 O   0  0  0  0  0  0  0  0  0  0  0  0
   15.5227   70.9423   -1.9458 O   0  0  0  0  0  0  0  0  0  0  0  0
   17.3213   71.0338   -5.5897 N   0  0  0  0  0  0  0  0  0  0  0  0
   15.7872   70.0509   -4.0644 N   0  0  0  0  0  0  0  0  0  0  0  0
   16.3662   70.0201   -5.3399 C   0  0  0  0  0  0  0  0  0  0  0  0
   17.6254   71.9641   -4.6034 C   0  0  0  0  0  0  0  0  0  0  0  0
   17.0653   71.9805   -3.3923 C   0  0  0  0  0  0  0  0  0  0  0  0
   16.0567   70.9561   -3.0507 C   0  0  0  0  0  0  0  0  0  0  0  0
   15.1178   69.3562   -3.8678 H   0  0  0  0  0  0  0  0  0  0  0  0
   21.5186   72.2032   -2.7280 O   0  0  0  0  0  0  0  0  0  0  0  0
   21.3099   70.6983   -2.1753 P   0  0  2  0  0  0  0  0  0  0  0  0
   22.3877   69.8396   -3.0246 O   0  0  0  0  0  0  0  0  0  0  0  0
   19.8993   70.1947   -2.2776 O   0  0  0  0  0  0  0  0  0  0  0  0
   21.9033   70.7272   -0.6754 O   0  0  0  0  0  0  0  0  0  0  0  0
   23.4252   72.3307    0.1742 O   0  0  0  0  0  0  0  0  0  0  0  0
   24.1940   69.0750    2.5984 O   0  0  0  0  0  0  0  0  0  0  0  0
   23.7862   68.7201   -0.2725 O   0  0  0  0  0  0  0  0  0  0  0  0
   22.6582   71.3229    3.6177 O   0  0  0  0  0  0  0  0  0  0  0  0
   23.3941   69.9372    1.7893 C   0  0  2  0  0  0  0  0  0  0  0  0
   23.9605   69.9778    0.3697 C   0  0  2  0  0  0  0  0  0  0  0  0
   23.4235   71.3338    2.4142 C   0  0  1  0  0  0  0  0  0  0  0  0
   23.2736   71.0614   -0.4626 C   0  0  1  0  0  0  0  0  0  0  0  0
   22.8343   72.3787    1.4709 C   0  0  1  0  0  0  0  0  0  0  0  0
   24.1903   68.1814    2.2206 H   0  0  0  0  0  0  0  0  0  0  0  0
   24.2193   68.0277    0.2504 H   0  0  0  0  0  0  0  0  0  0  0  0
   23.0228   70.6618    4.2268 H   0  0  0  0  0  0  0  0  0  0  0  0
   24.0775   73.7224    2.9374 O   0  0  0  0  0  0  0  0  0  0  0  0
   22.6777   74.7863    1.4856 O   0  0  0  0  0  0  0  0  0  0  0  0
   23.1617   73.7596    1.9379 C   0  0  0  0  0  0  0  0  0  0  0  0
  1  4  1  0
  1 24  1  0
  1  2  1  1
  1  3  2  0
 25 28  1  0
 25 24  1  0
 25 26  1  6
 25 27  2  0
  6 11  1  0
  6 12  1  0
 29 36  1  0
 29 37  1  0
  9  7  1  6
  7 13  1  0
 10  8  1  6
  8 14  1  0
  4  5  1  0
 36 28  1  1
 33 30  1  1
 30 38  1  0
 34 31  1  6
 31 39  1  0
 35 32  1  1
 32 40  1  0
 41 43  1  0
 15 19  2  0
 42 43  2  0
 16 22  2  0
 12 17  1  1
 17 19  1  0
 17 20  1  0
 18 19  1  0
 18 22  1  0
 18 23  1  0
  9 10  1  0
  9 11  1  0
 10 12  1  0
 11  5  1  1
 33 34  1  0
 33 35  1  0
 34 36  1  0
 35 37  1  0
 37 43  1  1
 20 21  2  0
 21 22  1  0
M  CHG  3   2  -1  26  -1  41  -1
M  END
>  <COMPND>  (184) 
    udp_gluA.pdb 

>  <AUTHOR>  (184) 
    GENERATED BY OPEN BABEL 3.1.1

>  <MASTER>  (184) 
        0    0    0    0    0    0    0    0   56    0   56    0

>  <minimizedAffinity>  (184) 
-8.12006

>  <CNNscore>  (184) 
0.4106744826

>  <CNNaffinity>  (184) 
4.1582593918

>  <CNN_VS>  (184) 
1.7076910734

>  <CNNaffinity_variance>  (184) 
0.2271492034

$$$$
185
     RDKit          3D

 43 45  0  0  0  0  0  0  0  0999 V2000
   18.5461   69.8741   -3.7024 P   0  0  2  0  0  0  0  0  0  0  0  0
   17.0403   70.1549   -3.1803 O   0  0  0  0  0  0  0  0  0  0  0  0
   19.0028   68.4497   -3.5828 O   0  0  0  0  0  0  0  0  0  0  0  0
   19.4410   70.9674   -2.9140 O   0  0  0  0  0  0  0  0  0  0  0  0
   20.1620   70.5519   -1.7686 C   0  0  0  0  0  0  0  0  0  0  0  0
   22.4534   71.1939   -1.4291 O   0  0  0  0  0  0  0  0  0  0  0  0
   23.1796   68.5508   -2.6450 O   0  0  0  0  0  0  0  0  0  0  0  0
   23.4839   68.0826    0.0242 O   0  0  0  0  0  0  0  0  0  0  0  0
   22.0822   68.8831   -1.7942 C   0  0  1  0  0  0  0  0  0  0  0  0
   22.5619   69.0766   -0.3713 C   0  0  2  0  0  0  0  0  0  0  0  0
   21.6082   70.2821   -2.1637 C   0  0  1  0  0  0  0  0  0  0  0  0
   23.1852   70.4606   -0.4341 C   0  0  2  0  0  0  0  0  0  0  0  0
   23.4997   67.6609   -2.4276 H   0  0  0  0  0  0  0  0  0  0  0  0
   23.0389   67.2204    0.0490 H   0  0  0  0  0  0  0  0  0  0  0  0
   20.8857   70.5157    1.2047 O   0  0  0  0  0  0  0  0  0  0  0  0
   22.9660   73.1686    4.3477 O   0  0  0  0  0  0  0  0  0  0  0  0
   23.0985   71.1580    0.8177 N   0  0  0  0  0  0  0  0  0  0  0  0
   21.9237   71.8378    2.7680 N   0  0  0  0  0  0  0  0  0  0  0  0
   21.8967   71.1224    1.5637 C   0  0  0  0  0  0  0  0  0  0  0  0
   24.1953   71.8651    1.2952 C   0  0  0  0  0  0  0  0  0  0  0  0
   24.2059   72.5421    2.4451 C   0  0  0  0  0  0  0  0  0  0  0  0
   22.9898   72.5564    3.2843 C   0  0  0  0  0  0  0  0  0  0  0  0
   21.0978   71.8295    3.3039 H   0  0  0  0  0  0  0  0  0  0  0  0
   18.5192   70.4479   -5.2133 O   0  0  0  0  0  0  0  0  0  0  0  0
   17.5411   71.5214   -5.9238 P   0  0  2  0  0  0  0  0  0  0  0  0
   17.1114   72.4944   -4.7035 O   0  0  0  0  0  0  0  0  0  0  0  0
   16.3864   70.9083   -6.6619 O   0  0  0  0  0  0  0  0  0  0  0  0
   18.5179   72.4224   -6.8384 O   0  0  0  0  0  0  0  0  0  0  0  0
   19.9013   73.6341   -5.3461 O   0  0  0  0  0  0  0  0  0  0  0  0
   21.3635   74.8419   -9.0164 O   0  0  0  0  0  0  0  0  0  0  0  0
   18.4860   74.5924   -8.5780 O   0  0  0  0  0  0  0  0  0  0  0  0
   22.8506   72.9279   -7.4113 O   0  0  0  0  0  0  0  0  0  0  0  0
   20.7696   73.9396   -8.0830 C   0  0  2  0  0  0  0  0  0  0  0  0
   19.4680   74.5384   -7.5496 C   0  0  2  0  0  0  0  0  0  0  0  0
   21.7627   73.7206   -6.9395 C   0  0  1  0  0  0  0  0  0  0  0  0
   18.9231   73.7122   -6.3836 C   0  0  1  0  0  0  0  0  0  0  0  0
   21.1086   73.0007   -5.7637 C   0  0  1  0  0  0  0  0  0  0  0  0
   20.7503   74.9962   -9.7522 H   0  0  0  0  0  0  0  0  0  0  0  0
   18.8252   75.1149   -9.3212 H   0  0  0  0  0  0  0  0  0  0  0  0
   23.2755   73.3748   -8.1600 H   0  0  0  0  0  0  0  0  0  0  0  0
   23.1809   72.5191   -4.7763 O   0  0  0  0  0  0  0  0  0  0  0  0
   21.6371   73.5901   -3.4846 O   0  0  0  0  0  0  0  0  0  0  0  0
   21.9696   73.0834   -4.5455 C   0  0  0  0  0  0  0  0  0  0  0  0
  1  4  1  0
  1 24  1  0
  1  2  1  1
  1  3  2  0
 25 28  1  0
 25 24  1  0
 25 26  1  1
 25 27  2  0
  6 11  1  0
  6 12  1  0
 29 36  1  0
 29 37  1  0
  9  7  1  6
  7 13  1  0
 10  8  1  6
  8 14  1  0
  4  5  1  0
 36 28  1  6
 33 30  1  6
 30 38  1  0
 34 31  1  6
 31 39  1  0
 35 32  1  6
 32 40  1  0
 41 43  1  0
 15 19  2  0
 42 43  2  0
 16 22  2  0
 12 17  1  1
 17 19  1  0
 17 20  1  0
 18 19  1  0
 18 22  1  0
 18 23  1  0
  9 10  1  0
  9 11  1  0
 10 12  1  0
 11  5  1  1
 33 34  1  0
 33 35  1  0
 34 36  1  0
 35 37  1  0
 37 43  1  1
 20 21  2  0
 21 22  1  0
M  CHG  3   2  -1  26  -1  41  -1
M  END
>  <COMPND>  (185) 
    udp_gluA.pdb 

>  <AUTHOR>  (185) 
    GENERATED BY OPEN BABEL 3.1.1

>  <MASTER>  (185) 
        0    0    0    0    0    0    0    0   56    0   56    0

>  <minimizedAffinity>  (185) 
-7.78088

>  <CNNscore>  (185) 
0.3910684884

>  <CNNaffinity>  (185) 
4.1687860489

>  <CNN_VS>  (185) 
1.6302808523

>  <CNNaffinity_variance>  (185) 
0.2049356401

$$$$
186
     RDKit          3D

 43 45  0  0  0  0  0  0  0  0999 V2000
   23.1300   73.6740   -4.1727 P   0  0  2  0  0  0  0  0  0  0  0  0
   24.6194   74.2968   -4.0609 O   0  0  0  0  0  0  0  0  0  0  0  0
   22.1089   74.3081   -3.2743 O   0  0  0  0  0  0  0  0  0  0  0  0
   23.3568   72.0852   -3.9670 O   0  0  0  0  0  0  0  0  0  0  0  0
   22.3555   71.3402   -3.2985 C   0  0  0  0  0  0  0  0  0  0  0  0
   23.8044   70.4239   -1.6137 O   0  0  0  0  0  0  0  0  0  0  0  0
   22.5308   67.7782   -2.2217 O   0  0  0  0  0  0  0  0  0  0  0  0
   21.2552   68.5423    0.0641 O   0  0  0  0  0  0  0  0  0  0  0  0
   21.9453   69.0803   -2.2045 C   0  0  1  0  0  0  0  0  0  0  0  0
   21.7647   69.5550   -0.7782 C   0  0  2  0  0  0  0  0  0  0  0  0
   22.9751   70.0656   -2.7402 C   0  0  1  0  0  0  0  0  0  0  0  0
   23.1767   69.9718   -0.4033 C   0  0  2  0  0  0  0  0  0  0  0  0
   21.8914   67.1313   -1.8836 H   0  0  0  0  0  0  0  0  0  0  0  0
   20.3546   68.3123   -0.2152 H   0  0  0  0  0  0  0  0  0  0  0  0
   23.7894   69.6374    2.3333 O   0  0  0  0  0  0  0  0  0  0  0  0
   23.2218   74.1292    3.1968 O   0  0  0  0  0  0  0  0  0  0  0  0
   23.1964   71.0369    0.5590 N   0  0  0  0  0  0  0  0  0  0  0  0
   23.5051   71.8747    2.7610 N   0  0  0  0  0  0  0  0  0  0  0  0
   23.5167   70.7621    1.9095 C   0  0  0  0  0  0  0  0  0  0  0  0
   22.9026   72.3358    0.1620 C   0  0  0  0  0  0  0  0  0  0  0  0
   22.8956   73.3860    0.9852 C   0  0  0  0  0  0  0  0  0  0  0  0
   23.2186   73.1849    2.4130 C   0  0  0  0  0  0  0  0  0  0  0  0
   23.7230   71.7080    3.7065 H   0  0  0  0  0  0  0  0  0  0  0  0
   22.8044   73.7931   -5.7515 O   0  0  0  0  0  0  0  0  0  0  0  0
   21.6747   74.6378   -6.5415 P   0  0  2  0  0  0  0  0  0  0  0  0
   22.3840   74.9690   -7.9584 O   0  0  0  0  0  0  0  0  0  0  0  0
   21.1788   75.8459   -5.8008 O   0  0  0  0  0  0  0  0  0  0  0  0
   20.5322   73.5571   -6.9009 O   0  0  0  0  0  0  0  0  0  0  0  0
   20.1100   71.3742   -6.0848 O   0  0  0  0  0  0  0  0  0  0  0  0
   19.0050   71.0178  -10.0497 O   0  0  0  0  0  0  0  0  0  0  0  0
   21.4183   72.4894   -9.3115 O   0  0  0  0  0  0  0  0  0  0  0  0
   16.9726   71.2074   -7.9798 O   0  0  0  0  0  0  0  0  0  0  0  0
   19.1855   71.6884   -8.8024 C   0  0  2  0  0  0  0  0  0  0  0  0
   20.6663   71.6720   -8.4221 C   0  0  2  0  0  0  0  0  0  0  0  0
   18.3567   70.9538   -7.7463 C   0  0  1  0  0  0  0  0  0  0  0  0
   20.8695   72.1741   -6.9920 C   0  0  1  0  0  0  0  0  0  0  0  0
   18.7075   71.4231   -6.3373 C   0  0  1  0  0  0  0  0  0  0  0  0
   19.5226   71.4671  -10.7364 H   0  0  0  0  0  0  0  0  0  0  0  0
   21.2938   72.1767  -10.2209 H   0  0  0  0  0  0  0  0  0  0  0  0
   16.7363   70.9134   -8.8735 H   0  0  0  0  0  0  0  0  0  0  0  0
   18.9605   70.4294   -4.2278 O   0  0  0  0  0  0  0  0  0  0  0  0
   17.1060   69.8643   -5.4280 O   0  0  0  0  0  0  0  0  0  0  0  0
   18.1495   70.4895   -5.3129 C   0  0  0  0  0  0  0  0  0  0  0  0
  1  4  1  0
  1 24  1  0
  1  2  1  6
  1  3  2  0
 25 28  1  0
 25 24  1  0
 25 26  1  6
 25 27  2  0
  6 11  1  0
  6 12  1  0
 29 36  1  0
 29 37  1  0
  9  7  1  1
  7 13  1  0
 10  8  1  1
  8 14  1  0
  4  5  1  0
 36 28  1  6
 33 30  1  6
 30 38  1  0
 34 31  1  6
 31 39  1  0
 35 32  1  6
 32 40  1  0
 41 43  1  0
 15 19  2  0
 42 43  2  0
 16 22  2  0
 12 17  1  1
 17 19  1  0
 17 20  1  0
 18 19  1  0
 18 22  1  0
 18 23  1  0
  9 10  1  0
  9 11  1  0
 10 12  1  0
 11  5  1  1
 33 34  1  0
 33 35  1  0
 34 36  1  0
 35 37  1  0
 37 43  1  1
 20 21  2  0
 21 22  1  0
M  CHG  3   2  -1  26  -1  41  -1
M  END
>  <COMPND>  (186) 
    udp_gluA.pdb 

>  <AUTHOR>  (186) 
    GENERATED BY OPEN BABEL 3.1.1

>  <MASTER>  (186) 
        0    0    0    0    0    0    0    0   56    0   56    0

>  <minimizedAffinity>  (186) 
-8.13568

>  <CNNscore>  (186) 
0.3805268407

>  <CNNaffinity>  (186) 
4.1901092529

>  <CNN_VS>  (186) 
1.5944490433

>  <CNNaffinity_variance>  (186) 
0.2525156736

$$$$
187
     RDKit          3D

 43 45  0  0  0  0  0  0  0  0999 V2000
   22.1030   73.5340   -6.0522 P   0  0  2  0  0  0  0  0  0  0  0  0
   22.6571   72.7711   -7.3674 O   0  0  0  0  0  0  0  0  0  0  0  0
   22.6791   74.9004   -5.8226 O   0  0  0  0  0  0  0  0  0  0  0  0
   22.3308   72.4657   -4.8585 O   0  0  0  0  0  0  0  0  0  0  0  0
   22.9297   72.9130   -3.6561 C   0  0  0  0  0  0  0  0  0  0  0  0
   21.5494   71.4570   -2.3323 O   0  0  0  0  0  0  0  0  0  0  0  0
   21.3224   73.7370   -0.3980 O   0  0  0  0  0  0  0  0  0  0  0  0
   23.1927   72.1401    0.7801 O   0  0  0  0  0  0  0  0  0  0  0  0
   22.4362   73.3371   -1.1966 C   0  0  1  0  0  0  0  0  0  0  0  0
   23.0680   72.0852   -0.6256 C   0  0  2  0  0  0  0  0  0  0  0  0
   21.9020   72.8428   -2.5340 C   0  0  1  0  0  0  0  0  0  0  0  0
   22.1019   71.0066   -1.0852 C   0  0  2  0  0  0  0  0  0  0  0  0
   21.6388   74.0568    0.4619 H   0  0  0  0  0  0  0  0  0  0  0  0
   23.8183   72.8417    1.0219 H   0  0  0  0  0  0  0  0  0  0  0  0
   21.4967   68.6517    0.3517 O   0  0  0  0  0  0  0  0  0  0  0  0
   24.6515   66.2126   -1.9594 O   0  0  0  0  0  0  0  0  0  0  0  0
   22.7498   69.7422   -1.2912 N   0  0  0  0  0  0  0  0  0  0  0  0
   23.0693   67.4394   -0.8000 N   0  0  0  0  0  0  0  0  0  0  0  0
   22.3714   68.6207   -0.5159 C   0  0  0  0  0  0  0  0  0  0  0  0
   23.7460   69.6218   -2.2524 C   0  0  0  0  0  0  0  0  0  0  0  0
   24.4021   68.4891   -2.5119 C   0  0  0  0  0  0  0  0  0  0  0  0
   24.0678   67.2708   -1.7456 C   0  0  0  0  0  0  0  0  0  0  0  0
   22.8247   66.6455   -0.2716 H   0  0  0  0  0  0  0  0  0  0  0  0
   20.5008   73.5056   -6.2643 O   0  0  0  0  0  0  0  0  0  0  0  0
   19.2927   73.9516   -5.2870 P   0  0  2  0  0  0  0  0  0  0  0  0
   18.2349   74.6433   -6.2984 O   0  0  0  0  0  0  0  0  0  0  0  0
   19.7170   74.8262   -4.1429 O   0  0  0  0  0  0  0  0  0  0  0  0
   18.5901   72.5677   -4.8469 O   0  0  0  0  0  0  0  0  0  0  0  0
   19.0996   70.2925   -4.4308 O   0  0  0  0  0  0  0  0  0  0  0  0
   15.9830   69.9770   -7.1243 O   0  0  0  0  0  0  0  0  0  0  0  0
   18.0822   71.9706   -7.5155 O   0  0  0  0  0  0  0  0  0  0  0  0
   15.5300   69.4543   -4.3007 O   0  0  0  0  0  0  0  0  0  0  0  0
   16.7348   70.5687   -6.0647 C   0  0  2  0  0  0  0  0  0  0  0  0
   18.1380   70.9143   -6.5638 C   0  0  2  0  0  0  0  0  0  0  0  0
   16.8116   69.5583   -4.9179 C   0  0  1  0  0  0  0  0  0  0  0  0
   19.0426   71.3353   -5.4049 C   0  0  1  0  0  0  0  0  0  0  0  0
   17.8273   69.9885   -3.8635 C   0  0  1  0  0  0  0  0  0  0  0  0
   15.9208   70.6011   -7.8645 H   0  0  0  0  0  0  0  0  0  0  0  0
   17.5096   71.7104   -8.2536 H   0  0  0  0  0  0  0  0  0  0  0  0
   14.8742   69.1812   -4.9612 H   0  0  0  0  0  0  0  0  0  0  0  0
   19.4660   68.8026   -2.6762 O   0  0  0  0  0  0  0  0  0  0  0  0
   17.3092   68.0945   -2.4615 O   0  0  0  0  0  0  0  0  0  0  0  0
   18.1357   68.8611   -2.9328 C   0  0  0  0  0  0  0  0  0  0  0  0
  1  4  1  0
  1 24  1  0
  1  2  1  6
  1  3  2  0
 25 28  1  0
 25 24  1  0
 25 26  1  6
 25 27  2  0
  6 11  1  0
  6 12  1  0
 29 36  1  0
 29 37  1  0
  9  7  1  1
  7 13  1  0
 10  8  1  1
  8 14  1  0
  4  5  1  0
 36 28  1  1
 33 30  1  6
 30 38  1  0
 34 31  1  6
 31 39  1  0
 35 32  1  1
 32 40  1  0
 41 43  1  0
 15 19  2  0
 42 43  2  0
 16 22  2  0
 12 17  1  6
 17 19  1  0
 17 20  1  0
 18 19  1  0
 18 22  1  0
 18 23  1  0
  9 10  1  0
  9 11  1  0
 10 12  1  0
 11  5  1  6
 33 34  1  0
 33 35  1  0
 34 36  1  0
 35 37  1  0
 37 43  1  1
 20 21  2  0
 21 22  1  0
M  CHG  3   2  -1  26  -1  41  -1
M  END
>  <COMPND>  (187) 
    udp_gluA.pdb 

>  <AUTHOR>  (187) 
    GENERATED BY OPEN BABEL 3.1.1

>  <MASTER>  (187) 
        0    0    0    0    0    0    0    0   56    0   56    0

>  <minimizedAffinity>  (187) 
-8.31013

>  <CNNscore>  (187) 
0.3620476425

>  <CNNaffinity>  (187) 
4.0475759506

>  <CNN_VS>  (187) 
1.4654153585

>  <CNNaffinity_variance>  (187) 
0.8782979846

$$$$
188
     RDKit          3D

 43 45  0  0  0  0  0  0  0  0999 V2000
   22.5893   72.9492   -3.4014 P   0  0  2  0  0  0  0  0  0  0  0  0
   23.8875   72.8461   -4.3619 O   0  0  0  0  0  0  0  0  0  0  0  0
   22.2676   74.3327   -2.9172 O   0  0  0  0  0  0  0  0  0  0  0  0
   22.8705   71.8491   -2.2487 O   0  0  0  0  0  0  0  0  0  0  0  0
   22.8602   72.2688   -0.8966 C   0  0  0  0  0  0  0  0  0  0  0  0
   22.0015   70.0256   -0.8060 O   0  0  0  0  0  0  0  0  0  0  0  0
   21.6866   70.4639    2.1436 O   0  0  0  0  0  0  0  0  0  0  0  0
   23.9820   68.9987    2.0007 O   0  0  0  0  0  0  0  0  0  0  0  0
   22.7082   70.9344    1.2642 C   0  0  1  0  0  0  0  0  0  0  0  0
   23.6405   69.8017    0.8902 C   0  0  2  0  0  0  0  0  0  0  0  0
   22.0601   71.2682   -0.0726 C   0  0  1  0  0  0  0  0  0  0  0  0
   22.8231   69.0495   -0.1461 C   0  0  2  0  0  0  0  0  0  0  0  0
   22.0766   70.2441    3.0046 H   0  0  0  0  0  0  0  0  0  0  0  0
   24.5016   69.5227    2.6310 H   0  0  0  0  0  0  0  0  0  0  0  0
   23.1073   66.2487   -0.3726 O   0  0  0  0  0  0  0  0  0  0  0  0
   26.0076   66.6474   -3.9325 O   0  0  0  0  0  0  0  0  0  0  0  0
   23.6461   68.3945   -1.1232 N   0  0  0  0  0  0  0  0  0  0  0  0
   24.5523   66.4500   -2.1447 N   0  0  0  0  0  0  0  0  0  0  0  0
   23.7194   66.9818   -1.1515 C   0  0  0  0  0  0  0  0  0  0  0  0
   24.3677   69.1491   -2.0401 C   0  0  0  0  0  0  0  0  0  0  0  0
   25.1574   68.6279   -2.9812 C   0  0  0  0  0  0  0  0  0  0  0  0
   25.2902   67.1595   -3.0784 C   0  0  0  0  0  0  0  0  0  0  0  0
   24.6210   65.4686   -2.1829 H   0  0  0  0  0  0  0  0  0  0  0  0
   21.4268   72.2585   -4.2870 O   0  0  0  0  0  0  0  0  0  0  0  0
   20.2527   71.2254   -3.8774 P   0  0  2  0  0  0  0  0  0  0  0  0
   19.6375   71.8797   -2.5306 O   0  0  0  0  0  0  0  0  0  0  0  0
   20.7099   69.8040   -3.7212 O   0  0  0  0  0  0  0  0  0  0  0  0
   19.1090   71.4419   -4.9943 O   0  0  0  0  0  0  0  0  0  0  0  0
   17.3946   72.9734   -5.5642 O   0  0  0  0  0  0  0  0  0  0  0  0
   15.3723   69.3722   -5.6646 O   0  0  0  0  0  0  0  0  0  0  0  0
   17.2846   69.9377   -3.5297 O   0  0  0  0  0  0  0  0  0  0  0  0
   16.1292   70.6903   -8.1427 O   0  0  0  0  0  0  0  0  0  0  0  0
   16.4979   70.2391   -5.8048 C   0  0  2  0  0  0  0  0  0  0  0  0
   16.8049   70.9006   -4.4611 C   0  0  2  0  0  0  0  0  0  0  0  0
   16.1509   71.2989   -6.8529 C   0  0  1  0  0  0  0  0  0  0  0  0
   17.8521   72.0037   -4.6209 C   0  0  1  0  0  0  0  0  0  0  0  0
   17.1768   72.4285   -6.8637 C   0  0  1  0  0  0  0  0  0  0  0  0
   15.5696   68.6903   -5.0034 H   0  0  0  0  0  0  0  0  0  0  0  0
   16.6252   69.2347   -3.4236 H   0  0  0  0  0  0  0  0  0  0  0  0
   15.4802   69.9695   -8.1492 H   0  0  0  0  0  0  0  0  0  0  0  0
   15.3895   73.3895   -8.0399 O   0  0  0  0  0  0  0  0  0  0  0  0
   17.3062   74.6139   -7.8780 O   0  0  0  0  0  0  0  0  0  0  0  0
   16.6673   73.6004   -7.6378 C   0  0  0  0  0  0  0  0  0  0  0  0
  1  4  1  0
  1 24  1  0
  1  2  1  6
  1  3  2  0
 25 28  1  0
 25 24  1  0
 25 26  1  1
 25 27  2  0
  6 11  1  0
  6 12  1  0
 29 36  1  0
 29 37  1  0
  9  7  1  1
  7 13  1  0
 10  8  1  1
  8 14  1  0
  4  5  1  0
 36 28  1  6
 33 30  1  1
 30 38  1  0
 34 31  1  1
 31 39  1  0
 35 32  1  6
 32 40  1  0
 41 43  1  0
 15 19  2  0
 42 43  2  0
 16 22  2  0
 12 17  1  6
 17 19  1  0
 17 20  1  0
 18 19  1  0
 18 22  1  0
 18 23  1  0
  9 10  1  0
  9 11  1  0
 10 12  1  0
 11  5  1  6
 33 34  1  0
 33 35  1  0
 34 36  1  0
 35 37  1  0
 37 43  1  6
 20 21  2  0
 21 22  1  0
M  CHG  3   2  -1  26  -1  41  -1
M  END
>  <COMPND>  (188) 
    udp_gluA.pdb 

>  <AUTHOR>  (188) 
    GENERATED BY OPEN BABEL 3.1.1

>  <MASTER>  (188) 
        0    0    0    0    0    0    0    0   56    0   56    0

>  <minimizedAffinity>  (188) 
-8.75217

>  <CNNscore>  (188) 
0.3550065160

>  <CNNaffinity>  (188) 
4.0869388580

>  <CNN_VS>  (188) 
1.4508899450

>  <CNNaffinity_variance>  (188) 
0.5400838256

$$$$
189
     RDKit          3D

 43 45  0  0  0  0  0  0  0  0999 V2000
   21.6143   69.4493   -1.6330 P   0  0  2  0  0  0  0  0  0  0  0  0
   20.1138   68.9015   -1.3733 O   0  0  0  0  0  0  0  0  0  0  0  0
   22.6643   68.3847   -1.7597 O   0  0  0  0  0  0  0  0  0  0  0  0
   21.8452   70.5264   -0.4479 O   0  0  0  0  0  0  0  0  0  0  0  0
   23.1392   71.0742   -0.2747 C   0  0  0  0  0  0  0  0  0  0  0  0
   24.6578   71.7212    1.4725 O   0  0  0  0  0  0  0  0  0  0  0  0
   22.8920   70.1635    3.3291 O   0  0  0  0  0  0  0  0  0  0  0  0
   22.1200   72.7375    3.7923 O   0  0  0  0  0  0  0  0  0  0  0  0
   22.5364   70.9531    2.1939 C   0  0  1  0  0  0  0  0  0  0  0  0
   22.6543   72.4263    2.5225 C   0  0  2  0  0  0  0  0  0  0  0  0
   23.6198   70.7742    1.1392 C   0  0  1  0  0  0  0  0  0  0  0  0
   24.1557   72.6464    2.4499 C   0  0  2  0  0  0  0  0  0  0  0  0
   22.2143   70.2616    4.0167 H   0  0  0  0  0  0  0  0  0  0  0  0
   21.1622   72.5812    3.7871 H   0  0  0  0  0  0  0  0  0  0  0  0
   25.9020   74.3481    3.8750 O   0  0  0  0  0  0  0  0  0  0  0  0
   25.3844   77.7496    0.8080 O   0  0  0  0  0  0  0  0  0  0  0  0
   24.4949   73.9817    2.0463 N   0  0  0  0  0  0  0  0  0  0  0  0
   25.6418   76.0410    2.3466 N   0  0  0  0  0  0  0  0  0  0  0  0
   25.3820   74.7532    2.8336 C   0  0  0  0  0  0  0  0  0  0  0  0
   23.9527   74.5134    0.8825 C   0  0  0  0  0  0  0  0  0  0  0  0
   24.2098   75.7425    0.4311 C   0  0  0  0  0  0  0  0  0  0  0  0
   25.1261   76.6140    1.1954 C   0  0  0  0  0  0  0  0  0  0  0  0
   26.2550   76.5977    2.8789 H   0  0  0  0  0  0  0  0  0  0  0  0
   21.4389   70.3813   -2.9420 O   0  0  0  0  0  0  0  0  0  0  0  0
   20.2575   71.3984   -3.3702 P   0  0  2  0  0  0  0  0  0  0  0  0
   20.7569   71.9633   -4.8026 O   0  0  0  0  0  0  0  0  0  0  0  0
   19.9634   72.4635   -2.3538 O   0  0  0  0  0  0  0  0  0  0  0  0
   19.0046   70.4452   -3.7228 O   0  0  0  0  0  0  0  0  0  0  0  0
   17.1191   71.8394   -4.0551 O   0  0  0  0  0  0  0  0  0  0  0  0
   15.5160   68.0879   -4.7064 O   0  0  0  0  0  0  0  0  0  0  0  0
   17.3857   68.5379   -2.5074 O   0  0  0  0  0  0  0  0  0  0  0  0
   16.0792   69.8442   -6.9534 O   0  0  0  0  0  0  0  0  0  0  0  0
   16.5338   69.0888   -4.7112 C   0  0  2  0  0  0  0  0  0  0  0  0
   16.7854   69.5696   -3.2818 C   0  0  2  0  0  0  0  0  0  0  0  0
   16.0525   70.2486   -5.5859 C   0  0  1  0  0  0  0  0  0  0  0  0
   17.6984   70.7965   -3.2700 C   0  0  1  0  0  0  0  0  0  0  0  0
   16.9437   71.4765   -5.4229 C   0  0  1  0  0  0  0  0  0  0  0  0
   15.7997   67.3406   -4.1566 H   0  0  0  0  0  0  0  0  0  0  0  0
   16.8119   67.7562   -2.5107 H   0  0  0  0  0  0  0  0  0  0  0  0
   15.5160   69.0633   -7.0708 H   0  0  0  0  0  0  0  0  0  0  0  0
   16.2158   72.5810   -7.3598 O   0  0  0  0  0  0  0  0  0  0  0  0
   15.8809   73.6419   -5.3695 O   0  0  0  0  0  0  0  0  0  0  0  0
   16.2926   72.6863   -6.0100 C   0  0  0  0  0  0  0  0  0  0  0  0
  1  4  1  0
  1 24  1  0
  1  2  1  1
  1  3  2  0
 25 28  1  0
 25 24  1  0
 25 26  1  6
 25 27  2  0
  6 11  1  0
  6 12  1  0
 29 36  1  0
 29 37  1  0
  9  7  1  1
  7 13  1  0
 10  8  1  1
  8 14  1  0
  4  5  1  0
 36 28  1  6
 33 30  1  1
 30 38  1  0
 34 31  1  1
 31 39  1  0
 35 32  1  6
 32 40  1  0
 41 43  1  0
 15 19  2  0
 42 43  2  0
 16 22  2  0
 12 17  1  6
 17 19  1  0
 17 20  1  0
 18 19  1  0
 18 22  1  0
 18 23  1  0
  9 10  1  0
  9 11  1  0
 10 12  1  0
 11  5  1  6
 33 34  1  0
 33 35  1  0
 34 36  1  0
 35 37  1  0
 37 43  1  6
 20 21  2  0
 21 22  1  0
M  CHG  3   2  -1  26  -1  41  -1
M  END
>  <COMPND>  (189) 
    udp_gluA.pdb 

>  <AUTHOR>  (189) 
    GENERATED BY OPEN BABEL 3.1.1

>  <MASTER>  (189) 
        0    0    0    0    0    0    0    0   56    0   56    0

>  <minimizedAffinity>  (189) 
-7.26442

>  <CNNscore>  (189) 
0.3521082997

>  <CNNaffinity>  (189) 
4.0934410095

>  <CNN_VS>  (189) 
1.4413346052

>  <CNNaffinity_variance>  (189) 
0.1079548374

$$$$
190
     RDKit          3D

 43 45  0  0  0  0  0  0  0  0999 V2000
   22.3444   73.2138   -4.0402 P   0  0  2  0  0  0  0  0  0  0  0  0
   23.8459   72.6107   -4.0664 O   0  0  0  0  0  0  0  0  0  0  0  0
   22.2382   74.6654   -4.4054 O   0  0  0  0  0  0  0  0  0  0  0  0
   21.7916   72.8164   -2.5723 O   0  0  0  0  0  0  0  0  0  0  0  0
   22.6326   72.0692   -1.7127 C   0  0  0  0  0  0  0  0  0  0  0  0
   21.9516   69.7662   -1.6126 O   0  0  0  0  0  0  0  0  0  0  0  0
   21.1255   70.3268    1.2150 O   0  0  0  0  0  0  0  0  0  0  0  0
   23.5225   69.0662    1.5332 O   0  0  0  0  0  0  0  0  0  0  0  0
   22.2363   70.8402    0.4794 C   0  0  1  0  0  0  0  0  0  0  0  0
   23.3042   69.7771    0.3326 C   0  0  2  0  0  0  0  0  0  0  0  0
   21.7908   71.0454   -0.9620 C   0  0  1  0  0  0  0  0  0  0  0  0
   22.7293   68.9025   -0.7686 C   0  0  2  0  0  0  0  0  0  0  0  0
   21.3860   70.1875    2.1393 H   0  0  0  0  0  0  0  0  0  0  0  0
   23.8890   69.6663    2.2022 H   0  0  0  0  0  0  0  0  0  0  0  0
   23.3323   66.1444   -0.6921 O   0  0  0  0  0  0  0  0  0  0  0  0
   26.6666   66.5998   -3.8415 O   0  0  0  0  0  0  0  0  0  0  0  0
   23.7502   68.2737   -1.5581 N   0  0  0  0  0  0  0  0  0  0  0  0
   24.9931   66.3740   -2.2600 N   0  0  0  0  0  0  0  0  0  0  0  0
   23.9728   66.8810   -1.4445 C   0  0  0  0  0  0  0  0  0  0  0  0
   24.5165   69.0335   -2.4335 C   0  0  0  0  0  0  0  0  0  0  0  0
   25.4854   68.5361   -3.2045 C   0  0  0  0  0  0  0  0  0  0  0  0
   25.7824   67.0898   -3.1455 C   0  0  0  0  0  0  0  0  0  0  0  0
   25.1680   65.4072   -2.1968 H   0  0  0  0  0  0  0  0  0  0  0  0
   21.5341   72.2127   -5.0169 O   0  0  0  0  0  0  0  0  0  0  0  0
   20.0221   72.2775   -5.5856 P   0  0  2  0  0  0  0  0  0  0  0  0
   20.2157   72.0544   -7.1772 O   0  0  0  0  0  0  0  0  0  0  0  0
   19.2809   73.5317   -5.2226 O   0  0  0  0  0  0  0  0  0  0  0  0
   19.3302   70.9165   -5.0648 O   0  0  0  0  0  0  0  0  0  0  0  0
   17.8626   71.3650   -3.2609 O   0  0  0  0  0  0  0  0  0  0  0  0
   17.6996   67.2423   -3.4720 O   0  0  0  0  0  0  0  0  0  0  0  0
   20.2490   68.6401   -3.7572 O   0  0  0  0  0  0  0  0  0  0  0  0
   15.4936   68.8435   -4.4823 O   0  0  0  0  0  0  0  0  0  0  0  0
   17.8343   68.5690   -3.9818 C   0  0  2  0  0  0  0  0  0  0  0  0
   19.0370   69.2490   -3.3271 C   0  0  2  0  0  0  0  0  0  0  0  0
   16.5489   69.3332   -3.6570 C   0  0  1  0  0  0  0  0  0  0  0  0
   19.0782   70.7383   -3.6722 C   0  0  1  0  0  0  0  0  0  0  0  0
   16.7113   70.8293   -3.9095 C   0  0  1  0  0  0  0  0  0  0  0  0
   18.5050   66.7376   -3.6667 H   0  0  0  0  0  0  0  0  0  0  0  0
   20.2296   67.6948   -3.5416 H   0  0  0  0  0  0  0  0  0  0  0  0
   15.3800   67.8921   -4.3314 H   0  0  0  0  0  0  0  0  0  0  0  0
   15.1318   70.9639   -2.1808 O   0  0  0  0  0  0  0  0  0  0  0  0
   15.1416   72.6512   -3.7145 O   0  0  0  0  0  0  0  0  0  0  0  0
   15.5894   71.5968   -3.2894 C   0  0  0  0  0  0  0  0  0  0  0  0
  1  4  1  0
  1 24  1  0
  1  2  1  1
  1  3  2  0
 25 28  1  0
 25 24  1  0
 25 26  1  6
 25 27  2  0
  6 11  1  0
  6 12  1  0
 29 36  1  0
 29 37  1  0
  9  7  1  1
  7 13  1  0
 10  8  1  1
  8 14  1  0
  4  5  1  0
 36 28  1  6
 33 30  1  1
 30 38  1  0
 34 31  1  6
 31 39  1  0
 35 32  1  6
 32 40  1  0
 41 43  1  0
 15 19  2  0
 42 43  2  0
 16 22  2  0
 12 17  1  6
 17 19  1  0
 17 20  1  0
 18 19  1  0
 18 22  1  0
 18 23  1  0
  9 10  1  0
  9 11  1  0
 10 12  1  0
 11  5  1  6
 33 34  1  0
 33 35  1  0
 34 36  1  0
 35 37  1  0
 37 43  1  1
 20 21  2  0
 21 22  1  0
M  CHG  3   2  -1  26  -1  41  -1
M  END
>  <COMPND>  (190) 
    udp_gluA.pdb 

>  <AUTHOR>  (190) 
    GENERATED BY OPEN BABEL 3.1.1

>  <MASTER>  (190) 
        0    0    0    0    0    0    0    0   56    0   56    0

>  <minimizedAffinity>  (190) 
-8.74611

>  <CNNscore>  (190) 
0.3449061215

>  <CNNaffinity>  (190) 
4.2418937683

>  <CNN_VS>  (190) 
1.4630551338

>  <CNNaffinity_variance>  (190) 
0.8122232556

$$$$
191
     RDKit          3D

 43 45  0  0  0  0  0  0  0  0999 V2000
   21.2884   74.1174   -4.0578 P   0  0  2  0  0  0  0  0  0  0  0  0
   20.3049   75.3608   -3.7327 O   0  0  0  0  0  0  0  0  0  0  0  0
   22.6987   74.4981   -4.4009 O   0  0  0  0  0  0  0  0  0  0  0  0
   20.4923   73.2779   -5.1889 O   0  0  0  0  0  0  0  0  0  0  0  0
   19.5309   73.9521   -5.9799 C   0  0  0  0  0  0  0  0  0  0  0  0
   19.3463   71.7468   -6.9180 O   0  0  0  0  0  0  0  0  0  0  0  0
   17.9621   73.0508   -9.2364 O   0  0  0  0  0  0  0  0  0  0  0  0
   15.8827   72.0240   -7.8018 O   0  0  0  0  0  0  0  0  0  0  0  0
   17.9020   73.3778   -7.8478 C   0  0  1  0  0  0  0  0  0  0  0  0
   17.0649   72.3581   -7.1050 C   0  0  2  0  0  0  0  0  0  0  0  0
   19.2843   73.1504   -7.2515 C   0  0  1  0  0  0  0  0  0  0  0  0
   18.0253   71.1869   -6.9876 C   0  0  2  0  0  0  0  0  0  0  0  0
   17.0900   73.1883   -9.6393 H   0  0  0  0  0  0  0  0  0  0  0  0
   15.3046   72.8022   -7.8494 H   0  0  0  0  0  0  0  0  0  0  0  0
   15.7535   69.5572   -6.5880 O   0  0  0  0  0  0  0  0  0  0  0  0
   17.2229   68.2129   -2.4314 O   0  0  0  0  0  0  0  0  0  0  0  0
   17.7889   70.4003   -5.8102 N   0  0  0  0  0  0  0  0  0  0  0  0
   16.4870   68.8900   -4.5178 N   0  0  0  0  0  0  0  0  0  0  0  0
   16.6155   69.6160   -5.7092 C   0  0  0  0  0  0  0  0  0  0  0  0
   18.7134   70.4092   -4.7729 C   0  0  0  0  0  0  0  0  0  0  0  0
   18.5772   69.7119   -3.6434 C   0  0  0  0  0  0  0  0  0  0  0  0
   17.3790   68.8674   -3.4578 C   0  0  0  0  0  0  0  0  0  0  0  0
   15.6771   68.3381   -4.4235 H   0  0  0  0  0  0  0  0  0  0  0  0
   21.1427   73.1865   -2.7444 O   0  0  0  0  0  0  0  0  0  0  0  0
   20.9344   73.5716   -1.1882 P   0  0  2  0  0  0  0  0  0  0  0  0
   19.3676   73.2532   -0.9348 O   0  0  0  0  0  0  0  0  0  0  0  0
   21.3447   74.9733   -0.8405 O   0  0  0  0  0  0  0  0  0  0  0  0
   21.7204   72.4223   -0.3734 O   0  0  0  0  0  0  0  0  0  0  0  0
   21.3701   70.0802   -0.3448 O   0  0  0  0  0  0  0  0  0  0  0  0
   22.7391   70.7725    3.4912 O   0  0  0  0  0  0  0  0  0  0  0  0
   20.8199   72.5937    2.2526 O   0  0  0  0  0  0  0  0  0  0  0  0
   24.4959   69.5746    1.5089 O   0  0  0  0  0  0  0  0  0  0  0  0
   22.6358   70.9936    2.0847 C   0  0  2  0  0  0  0  0  0  0  0  0
   21.1876   71.3250    1.7237 C   0  0  2  0  0  0  0  0  0  0  0  0
   23.0833   69.7160    1.3710 C   0  0  1  0  0  0  0  0  0  0  0  0
   20.9920   71.3420    0.2070 C   0  0  1  0  0  0  0  0  0  0  0  0
   22.7402   69.7588   -0.1153 C   0  0  1  0  0  0  0  0  0  0  0  0
   22.4597   71.5713    3.9657 H   0  0  0  0  0  0  0  0  0  0  0  0
   20.9418   72.5901    3.2146 H   0  0  0  0  0  0  0  0  0  0  0  0
   24.7276   69.5462    2.4503 H   0  0  0  0  0  0  0  0  0  0  0  0
   22.4098   68.4077   -2.0039 O   0  0  0  0  0  0  0  0  0  0  0  0
   23.3396   67.4223   -0.1699 O   0  0  0  0  0  0  0  0  0  0  0  0
   22.8744   68.4036   -0.7299 C   0  0  0  0  0  0  0  0  0  0  0  0
  1  4  1  0
  1 24  1  0
  1  2  1  1
  1  3  2  0
 25 28  1  0
 25 24  1  0
 25 26  1  1
 25 27  2  0
  6 11  1  0
  6 12  1  0
 29 36  1  0
 29 37  1  0
  9  7  1  6
  7 13  1  0
 10  8  1  6
  8 14  1  0
  4  5  1  0
 36 28  1  6
 33 30  1  1
 30 38  1  0
 34 31  1  6
 31 39  1  0
 35 32  1  6
 32 40  1  0
 41 43  1  0
 15 19  2  0
 42 43  2  0
 16 22  2  0
 12 17  1  1
 17 19  1  0
 17 20  1  0
 18 19  1  0
 18 22  1  0
 18 23  1  0
  9 10  1  0
  9 11  1  0
 10 12  1  0
 11  5  1  1
 33 34  1  0
 33 35  1  0
 34 36  1  0
 35 37  1  0
 37 43  1  1
 20 21  2  0
 21 22  1  0
M  CHG  3   2  -1  26  -1  41  -1
M  END
>  <COMPND>  (191) 
    udp_gluA.pdb 

>  <AUTHOR>  (191) 
    GENERATED BY OPEN BABEL 3.1.1

>  <MASTER>  (191) 
        0    0    0    0    0    0    0    0   56    0   56    0

>  <minimizedAffinity>  (191) 
-7.71595

>  <CNNscore>  (191) 
0.3345341682

>  <CNNaffinity>  (191) 
4.0482053757

>  <CNN_VS>  (191) 
1.3542630672

>  <CNNaffinity_variance>  (191) 
0.4236485362

$$$$
192
     RDKit          3D

 43 45  0  0  0  0  0  0  0  0999 V2000
   22.5998   73.0824   -3.3090 P   0  0  2  0  0  0  0  0  0  0  0  0
   23.7175   72.6144   -4.3817 O   0  0  0  0  0  0  0  0  0  0  0  0
   22.7610   74.4836   -2.7966 O   0  0  0  0  0  0  0  0  0  0  0  0
   22.6257   71.9167   -2.1873 O   0  0  0  0  0  0  0  0  0  0  0  0
   22.7728   72.2884   -0.8291 C   0  0  0  0  0  0  0  0  0  0  0  0
   21.9865   70.0226   -0.6693 O   0  0  0  0  0  0  0  0  0  0  0  0
   21.7939   70.4945    2.2857 O   0  0  0  0  0  0  0  0  0  0  0  0
   24.1230   69.0951    2.0563 O   0  0  0  0  0  0  0  0  0  0  0  0
   22.7596   70.9818    1.3538 C   0  0  1  0  0  0  0  0  0  0  0  0
   23.7073   69.8715    0.9522 C   0  0  2  0  0  0  0  0  0  0  0  0
   22.0415   71.2770    0.0441 C   0  0  1  0  0  0  0  0  0  0  0  0
   22.8662   69.0807   -0.0352 C   0  0  2  0  0  0  0  0  0  0  0  0
   22.2293   70.2989    3.1305 H   0  0  0  0  0  0  0  0  0  0  0  0
   24.6550   69.6433    2.6550 H   0  0  0  0  0  0  0  0  0  0  0  0
   23.0834   66.2819   -0.3453 O   0  0  0  0  0  0  0  0  0  0  0  0
   25.9515   66.7178   -3.9268 O   0  0  0  0  0  0  0  0  0  0  0  0
   23.6627   68.4359   -1.0404 N   0  0  0  0  0  0  0  0  0  0  0  0
   24.5125   66.5017   -2.1281 N   0  0  0  0  0  0  0  0  0  0  0  0
   23.7033   67.0232   -1.1102 C   0  0  0  0  0  0  0  0  0  0  0  0
   24.3910   69.2001   -1.9440 C   0  0  0  0  0  0  0  0  0  0  0  0
   25.1578   68.6886   -2.9090 C   0  0  0  0  0  0  0  0  0  0  0  0
   25.2558   67.2210   -3.0499 C   0  0  0  0  0  0  0  0  0  0  0  0
   24.5582   65.5205   -2.1953 H   0  0  0  0  0  0  0  0  0  0  0  0
   21.2109   72.8061   -4.0883 O   0  0  0  0  0  0  0  0  0  0  0  0
   19.6799   73.1146   -3.6706 P   0  0  2  0  0  0  0  0  0  0  0  0
   19.5211   74.6941   -3.9876 O   0  0  0  0  0  0  0  0  0  0  0  0
   19.3367   72.7293   -2.2607 O   0  0  0  0  0  0  0  0  0  0  0  0
   18.7917   72.3813   -4.8001 O   0  0  0  0  0  0  0  0  0  0  0  0
   18.9416   70.0211   -4.6731 O   0  0  0  0  0  0  0  0  0  0  0  0
   16.7662   70.5396   -8.1468 O   0  0  0  0  0  0  0  0  0  0  0  0
   19.0591   72.2540   -7.5657 O   0  0  0  0  0  0  0  0  0  0  0  0
   15.4376   69.6826   -5.7073 O   0  0  0  0  0  0  0  0  0  0  0  0
   17.2146   70.8601   -6.8300 C   0  0  2  0  0  0  0  0  0  0  0  0
   18.7285   71.0738   -6.8427 C   0  0  2  0  0  0  0  0  0  0  0  0
   16.8495   69.6937   -5.9090 C   0  0  1  0  0  0  0  0  0  0  0  0
   19.2764   71.1914   -5.4198 C   0  0  1  0  0  0  0  0  0  0  0  0
   17.5352   69.8199   -4.5516 C   0  0  1  0  0  0  0  0  0  0  0  0
   16.9874   71.2667   -8.7499 H   0  0  0  0  0  0  0  0  0  0  0  0
   18.7142   72.1863   -8.4694 H   0  0  0  0  0  0  0  0  0  0  0  0
   14.9892   69.6029   -6.5637 H   0  0  0  0  0  0  0  0  0  0  0  0
   16.8816   67.5673   -4.5522 O   0  0  0  0  0  0  0  0  0  0  0  0
   17.8242   68.3764   -2.6401 O   0  0  0  0  0  0  0  0  0  0  0  0
   17.4442   68.5377   -3.7901 C   0  0  0  0  0  0  0  0  0  0  0  0
  1  4  1  0
  1 24  1  0
  1  2  1  6
  1  3  2  0
 25 28  1  0
 25 24  1  0
 25 26  1  1
 25 27  2  0
  6 11  1  0
  6 12  1  0
 29 36  1  0
 29 37  1  0
  9  7  1  1
  7 13  1  0
 10  8  1  1
  8 14  1  0
  4  5  1  0
 36 28  1  1
 33 30  1  6
 30 38  1  0
 34 31  1  6
 31 39  1  0
 35 32  1  1
 32 40  1  0
 41 43  1  0
 15 19  2  0
 42 43  2  0
 16 22  2  0
 12 17  1  6
 17 19  1  0
 17 20  1  0
 18 19  1  0
 18 22  1  0
 18 23  1  0
  9 10  1  0
  9 11  1  0
 10 12  1  0
 11  5  1  6
 33 34  1  0
 33 35  1  0
 34 36  1  0
 35 37  1  0
 37 43  1  1
 20 21  2  0
 21 22  1  0
M  CHG  3   2  -1  26  -1  41  -1
M  END
>  <COMPND>  (192) 
    udp_gluA.pdb 

>  <AUTHOR>  (192) 
    GENERATED BY OPEN BABEL 3.1.1

>  <MASTER>  (192) 
        0    0    0    0    0    0    0    0   56    0   56    0

>  <minimizedAffinity>  (192) 
-8.85087

>  <CNNscore>  (192) 
0.3012574315

>  <CNNaffinity>  (192) 
4.0747404099

>  <CNN_VS>  (192) 
1.2275458574

>  <CNNaffinity_variance>  (192) 
0.9793573618

$$$$
193
     RDKit          3D

 43 45  0  0  0  0  0  0  0  0999 V2000
   19.3647   69.8463   -2.9715 P   0  0  2  0  0  0  0  0  0  0  0  0
   18.6052   68.5298   -2.4157 O   0  0  0  0  0  0  0  0  0  0  0  0
   20.2021   69.6247   -4.1968 O   0  0  0  0  0  0  0  0  0  0  0  0
   20.1505   70.4169   -1.6773 O   0  0  0  0  0  0  0  0  0  0  0  0
   19.8599   71.7299   -1.2345 C   0  0  0  0  0  0  0  0  0  0  0  0
   22.1264   71.5706   -0.4501 O   0  0  0  0  0  0  0  0  0  0  0  0
   22.6457   74.0790   -2.0090 O   0  0  0  0  0  0  0  0  0  0  0  0
   23.6504   72.1422   -3.6447 O   0  0  0  0  0  0  0  0  0  0  0  0
   21.7894   72.9806   -2.3234 C   0  0  1  0  0  0  0  0  0  0  0  0
   22.6092   71.7850   -2.7598 C   0  0  2  0  0  0  0  0  0  0  0  0
   21.1671   72.4837   -1.0256 C   0  0  1  0  0  0  0  0  0  0  0  0
   23.1256   71.2553   -1.4328 C   0  0  2  0  0  0  0  0  0  0  0  0
   23.0549   74.4136   -2.8227 H   0  0  0  0  0  0  0  0  0  0  0  0
   23.2704   72.4729   -4.4742 H   0  0  0  0  0  0  0  0  0  0  0  0
   22.4868   69.5235    0.7048 O   0  0  0  0  0  0  0  0  0  0  0  0
   23.9518   65.8211   -1.6169 O   0  0  0  0  0  0  0  0  0  0  0  0
   23.3296   69.8345   -1.4519 N   0  0  0  0  0  0  0  0  0  0  0  0
   23.2180   67.6813   -0.4532 N   0  0  0  0  0  0  0  0  0  0  0  0
   22.9748   69.0552   -0.3255 C   0  0  0  0  0  0  0  0  0  0  0  0
   23.8736   69.2270   -2.5771 C   0  0  0  0  0  0  0  0  0  0  0  0
   24.0994   67.9162   -2.6841 C   0  0  0  0  0  0  0  0  0  0  0  0
   23.7575   67.0312   -1.5513 C   0  0  0  0  0  0  0  0  0  0  0  0
   22.9810   67.1184    0.3190 H   0  0  0  0  0  0  0  0  0  0  0  0
   18.1600   70.9070   -3.1620 O   0  0  0  0  0  0  0  0  0  0  0  0
   16.9522   70.9599   -4.2353 P   0  0  2  0  0  0  0  0  0  0  0  0
   16.2452   72.3830   -3.9268 O   0  0  0  0  0  0  0  0  0  0  0  0
   16.0232   69.7821   -4.1755 O   0  0  0  0  0  0  0  0  0  0  0  0
   17.6797   71.1671   -5.6602 O   0  0  0  0  0  0  0  0  0  0  0  0
   18.9916   73.1222   -5.9157 O   0  0  0  0  0  0  0  0  0  0  0  0
   18.6800   71.8031   -9.8183 O   0  0  0  0  0  0  0  0  0  0  0  0
   16.3613   71.7350   -8.0425 O   0  0  0  0  0  0  0  0  0  0  0  0
   21.1565   71.4251   -8.3436 O   0  0  0  0  0  0  0  0  0  0  0  0
   18.7601   71.6677   -8.3994 C   0  0  2  0  0  0  0  0  0  0  0  0
   17.5853   72.3983   -7.7485 C   0  0  2  0  0  0  0  0  0  0  0  0
   20.0864   72.2775   -7.9403 C   0  0  1  0  0  0  0  0  0  0  0  0
   17.7599   72.4719   -6.2310 C   0  0  1  0  0  0  0  0  0  0  0  0
   20.1323   72.4334   -6.4231 C   0  0  1  0  0  0  0  0  0  0  0  0
   17.8449   71.4224  -10.1330 H   0  0  0  0  0  0  0  0  0  0  0  0
   16.2442   71.6845   -9.0038 H   0  0  0  0  0  0  0  0  0  0  0  0
   21.1385   71.3175   -9.3075 H   0  0  0  0  0  0  0  0  0  0  0  0
   22.4557   72.7312   -6.3016 O   0  0  0  0  0  0  0  0  0  0  0  0
   21.1476   74.4158   -5.4952 O   0  0  0  0  0  0  0  0  0  0  0  0
   21.2664   73.3162   -6.0146 C   0  0  0  0  0  0  0  0  0  0  0  0
  1  4  1  0
  1 24  1  0
  1  2  1  1
  1  3  2  0
 25 28  1  0
 25 24  1  0
 25 26  1  1
 25 27  2  0
  6 11  1  0
  6 12  1  0
 29 36  1  0
 29 37  1  0
  9  7  1  1
  7 13  1  0
 10  8  1  6
  8 14  1  0
  4  5  1  0
 36 28  1  6
 33 30  1  6
 30 38  1  0
 34 31  1  1
 31 39  1  0
 35 32  1  1
 32 40  1  0
 41 43  1  0
 15 19  2  0
 42 43  2  0
 16 22  2  0
 12 17  1  6
 17 19  1  0
 17 20  1  0
 18 19  1  0
 18 22  1  0
 18 23  1  0
  9 10  1  0
  9 11  1  0
 10 12  1  0
 11  5  1  6
 33 34  1  0
 33 35  1  0
 34 36  1  0
 35 37  1  0
 37 43  1  6
 20 21  2  0
 21 22  1  0
M  CHG  3   2  -1  26  -1  41  -1
M  END
>  <COMPND>  (193) 
    udp_gluA.pdb 

>  <AUTHOR>  (193) 
    GENERATED BY OPEN BABEL 3.1.1

>  <MASTER>  (193) 
        0    0    0    0    0    0    0    0   56    0   56    0

>  <minimizedAffinity>  (193) 
-8.25211

>  <CNNscore>  (193) 
0.2912712693

>  <CNNaffinity>  (193) 
4.1211051941

>  <CNN_VS>  (193) 
1.2003595829

>  <CNNaffinity_variance>  (193) 
0.3219717145

$$$$
194
     RDKit          3D

 43 45  0  0  0  0  0  0  0  0999 V2000
   22.3770   73.3141   -4.6464 P   0  0  2  0  0  0  0  0  0  0  0  0
   23.9043   72.8529   -4.3747 O   0  0  0  0  0  0  0  0  0  0  0  0
   22.0561   74.7197   -4.2302 O   0  0  0  0  0  0  0  0  0  0  0  0
   21.4909   72.1547   -3.9474 O   0  0  0  0  0  0  0  0  0  0  0  0
   21.5794   71.9895   -2.5440 C   0  0  0  0  0  0  0  0  0  0  0  0
   23.2240   71.0860   -1.0418 O   0  0  0  0  0  0  0  0  0  0  0  0
   22.5516   68.4086   -2.2126 O   0  0  0  0  0  0  0  0  0  0  0  0
   21.1803   68.3896    0.1444 O   0  0  0  0  0  0  0  0  0  0  0  0
   21.6949   69.5193   -1.9464 C   0  0  1  0  0  0  0  0  0  0  0  0
   21.4401   69.6399   -0.4588 C   0  0  2  0  0  0  0  0  0  0  0  0
   22.4736   70.7942   -2.2406 C   0  0  1  0  0  0  0  0  0  0  0  0
   22.7326   70.2691    0.0326 C   0  0  2  0  0  0  0  0  0  0  0  0
   22.0759   67.5823   -2.0318 H   0  0  0  0  0  0  0  0  0  0  0  0
   20.3474   68.0308   -0.2011 H   0  0  0  0  0  0  0  0  0  0  0  0
   23.6975   69.6464    2.6129 O   0  0  0  0  0  0  0  0  0  0  0  0
   21.9158   73.4997    4.4079 O   0  0  0  0  0  0  0  0  0  0  0  0
   22.5352   71.0919    1.1922 N   0  0  0  0  0  0  0  0  0  0  0  0
   22.8083   71.5657    3.5047 N   0  0  0  0  0  0  0  0  0  0  0  0
   23.0610   70.6879    2.4422 C   0  0  0  0  0  0  0  0  0  0  0  0
   21.8298   72.2843    1.0847 C   0  0  0  0  0  0  0  0  0  0  0  0
   21.5971   73.1106    2.1064 C   0  0  0  0  0  0  0  0  0  0  0  0
   22.1116   72.7618    3.4469 C   0  0  0  0  0  0  0  0  0  0  0  0
   23.1628   71.3047    4.3853 H   0  0  0  0  0  0  0  0  0  0  0  0
   22.1837   73.0180   -6.2236 O   0  0  0  0  0  0  0  0  0  0  0  0
   21.0197   73.4652   -7.2527 P   0  0  2  0  0  0  0  0  0  0  0  0
   21.4520   72.7442   -8.6360 O   0  0  0  0  0  0  0  0  0  0  0  0
   20.8319   74.9507   -7.3621 O   0  0  0  0  0  0  0  0  0  0  0  0
   19.7103   72.6589   -6.7650 O   0  0  0  0  0  0  0  0  0  0  0  0
   19.4513   70.4837   -5.8647 O   0  0  0  0  0  0  0  0  0  0  0  0
   15.9879   70.8949   -8.0790 O   0  0  0  0  0  0  0  0  0  0  0  0
   18.5462   71.8167   -9.1465 O   0  0  0  0  0  0  0  0  0  0  0  0
   15.9035   71.1233   -5.1822 O   0  0  0  0  0  0  0  0  0  0  0  0
   17.0801   71.3382   -7.2737 C   0  0  2  0  0  0  0  0  0  0  0  0
   18.3986   71.0179   -7.9783 C   0  0  2  0  0  0  0  0  0  0  0  0
   17.0036   70.6091   -5.9304 C   0  0  1  0  0  0  0  0  0  0  0  0
   19.5890   71.2667   -7.0510 C   0  0  1  0  0  0  0  0  0  0  0  0
   18.2801   70.8041   -5.1173 C   0  0  1  0  0  0  0  0  0  0  0  0
   16.0158   71.3449   -8.9381 H   0  0  0  0  0  0  0  0  0  0  0  0
   17.7941   71.6640   -9.7393 H   0  0  0  0  0  0  0  0  0  0  0  0
   15.0847   71.0054   -5.6887 H   0  0  0  0  0  0  0  0  0  0  0  0
   19.3387   68.9452   -4.1554 O   0  0  0  0  0  0  0  0  0  0  0  0
   17.5855   69.8504   -3.0126 O   0  0  0  0  0  0  0  0  0  0  0  0
   18.3354   69.8399   -3.9773 C   0  0  0  0  0  0  0  0  0  0  0  0
  1  4  1  0
  1 24  1  0
  1  2  1  1
  1  3  2  0
 25 28  1  0
 25 24  1  0
 25 26  1  6
 25 27  2  0
  6 11  1  0
  6 12  1  0
 29 36  1  0
 29 37  1  0
  9  7  1  1
  7 13  1  0
 10  8  1  1
  8 14  1  0
  4  5  1  0
 36 28  1  1
 33 30  1  6
 30 38  1  0
 34 31  1  6
 31 39  1  0
 35 32  1  1
 32 40  1  0
 41 43  1  0
 15 19  2  0
 42 43  2  0
 16 22  2  0
 12 17  1  1
 17 19  1  0
 17 20  1  0
 18 19  1  0
 18 22  1  0
 18 23  1  0
  9 10  1  0
  9 11  1  0
 10 12  1  0
 11  5  1  1
 33 34  1  0
 33 35  1  0
 34 36  1  0
 35 37  1  0
 37 43  1  1
 20 21  2  0
 21 22  1  0
M  CHG  3   2  -1  26  -1  41  -1
M  END
>  <COMPND>  (194) 
    udp_gluA.pdb 

>  <AUTHOR>  (194) 
    GENERATED BY OPEN BABEL 3.1.1

>  <MASTER>  (194) 
        0    0    0    0    0    0    0    0   56    0   56    0

>  <minimizedAffinity>  (194) 
-8.35391

>  <CNNscore>  (194) 
0.2829084396

>  <CNNaffinity>  (194) 
4.1053686142

>  <CNN_VS>  (194) 
1.1614434719

>  <CNNaffinity_variance>  (194) 
0.1895125806

$$$$
195
     RDKit          3D

 43 45  0  0  0  0  0  0  0  0999 V2000
   22.6879   73.1699   -3.4005 P   0  0  2  0  0  0  0  0  0  0  0  0
   24.1169   72.9039   -4.1120 O   0  0  0  0  0  0  0  0  0  0  0  0
   22.5018   74.5537   -2.8507 O   0  0  0  0  0  0  0  0  0  0  0  0
   22.5571   71.9646   -2.3290 O   0  0  0  0  0  0  0  0  0  0  0  0
   22.7237   72.2608   -0.9546 C   0  0  0  0  0  0  0  0  0  0  0  0
   21.9286   69.9945   -0.8580 O   0  0  0  0  0  0  0  0  0  0  0  0
   21.5874   70.4363    2.0882 O   0  0  0  0  0  0  0  0  0  0  0  0
   23.9241   69.0363    1.9622 O   0  0  0  0  0  0  0  0  0  0  0  0
   22.5994   70.9319    1.2113 C   0  0  1  0  0  0  0  0  0  0  0  0
   23.5653   69.8245    0.8467 C   0  0  2  0  0  0  0  0  0  0  0  0
   21.9485   71.2414   -0.1299 C   0  0  1  0  0  0  0  0  0  0  0  0
   22.7744   69.0449   -0.1901 C   0  0  2  0  0  0  0  0  0  0  0  0
   21.9795   70.2314    2.9519 H   0  0  0  0  0  0  0  0  0  0  0  0
   24.4256   69.5776    2.5927 H   0  0  0  0  0  0  0  0  0  0  0  0
   23.1172   66.2510   -0.4210 O   0  0  0  0  0  0  0  0  0  0  0  0
   26.0448   66.7182   -3.9501 O   0  0  0  0  0  0  0  0  0  0  0  0
   23.6203   68.4095   -1.1604 N   0  0  0  0  0  0  0  0  0  0  0  0
   24.5758   66.4864   -2.1778 N   0  0  0  0  0  0  0  0  0  0  0  0
   23.7223   66.9985   -1.1918 C   0  0  0  0  0  0  0  0  0  0  0  0
   24.3358   69.1810   -2.0680 C   0  0  0  0  0  0  0  0  0  0  0  0
   25.1454   68.6784   -3.0023 C   0  0  0  0  0  0  0  0  0  0  0  0
   25.3086   67.2132   -3.1021 C   0  0  0  0  0  0  0  0  0  0  0  0
   24.6646   65.5067   -2.2179 H   0  0  0  0  0  0  0  0  0  0  0  0
   21.6282   72.7529   -4.5476 O   0  0  0  0  0  0  0  0  0  0  0  0
   21.3150   73.4080   -5.9921 P   0  0  2  0  0  0  0  0  0  0  0  0
   22.5404   72.8824   -6.9100 O   0  0  0  0  0  0  0  0  0  0  0  0
   21.1550   74.9006   -5.9698 O   0  0  0  0  0  0  0  0  0  0  0  0
   20.0258   72.6045   -6.5351 O   0  0  0  0  0  0  0  0  0  0  0  0
   18.9660   70.6580   -5.7002 O   0  0  0  0  0  0  0  0  0  0  0  0
   18.3736   70.2581   -9.7692 O   0  0  0  0  0  0  0  0  0  0  0  0
   20.9483   71.1664   -8.7298 O   0  0  0  0  0  0  0  0  0  0  0  0
   16.1824   71.0923   -8.0507 O   0  0  0  0  0  0  0  0  0  0  0  0
   18.5381   70.9642   -8.5395 C   0  0  2  0  0  0  0  0  0  0  0  0
   19.9004   70.6259   -7.9334 C   0  0  2  0  0  0  0  0  0  0  0  0
   17.4137   70.5357   -7.5941 C   0  0  1  0  0  0  0  0  0  0  0  0
   20.0193   71.1782   -6.5122 C   0  0  1  0  0  0  0  0  0  0  0  0
   17.6690   71.0194   -6.1695 C   0  0  1  0  0  0  0  0  0  0  0  0
   19.0773   70.5144  -10.3861 H   0  0  0  0  0  0  0  0  0  0  0  0
   20.8788   70.8203   -9.6330 H   0  0  0  0  0  0  0  0  0  0  0  0
   16.0082   70.7924   -8.9566 H   0  0  0  0  0  0  0  0  0  0  0  0
   16.2228   69.2180   -5.7632 O   0  0  0  0  0  0  0  0  0  0  0  0
   16.5271   70.7106   -4.0665 O   0  0  0  0  0  0  0  0  0  0  0  0
   16.7593   70.3311   -5.2046 C   0  0  0  0  0  0  0  0  0  0  0  0
  1  4  1  0
  1 24  1  0
  1  2  1  6
  1  3  2  0
 25 28  1  0
 25 24  1  0
 25 26  1  6
 25 27  2  0
  6 11  1  0
  6 12  1  0
 29 36  1  0
 29 37  1  0
  9  7  1  1
  7 13  1  0
 10  8  1  1
  8 14  1  0
  4  5  1  0
 36 28  1  6
 33 30  1  6
 30 38  1  0
 34 31  1  6
 31 39  1  0
 35 32  1  6
 32 40  1  0
 41 43  1  0
 15 19  2  0
 42 43  2  0
 16 22  2  0
 12 17  1  6
 17 19  1  0
 17 20  1  0
 18 19  1  0
 18 22  1  0
 18 23  1  0
  9 10  1  0
  9 11  1  0
 10 12  1  0
 11  5  1  6
 33 34  1  0
 33 35  1  0
 34 36  1  0
 35 37  1  0
 37 43  1  1
 20 21  2  0
 21 22  1  0
M  CHG  3   2  -1  26  -1  41  -1
M  END
>  <COMPND>  (195) 
    udp_gluA.pdb 

>  <AUTHOR>  (195) 
    GENERATED BY OPEN BABEL 3.1.1

>  <MASTER>  (195) 
        0    0    0    0    0    0    0    0   56    0   56    0

>  <minimizedAffinity>  (195) 
-9.58073

>  <CNNscore>  (195) 
0.2817015052

>  <CNNaffinity>  (195) 
4.1987371445

>  <CNN_VS>  (195) 
1.1827905178

>  <CNNaffinity_variance>  (195) 
0.5789303184

$$$$
196
     RDKit          3D

 43 45  0  0  0  0  0  0  0  0999 V2000
   21.0735   73.2826   -5.9272 P   0  0  2  0  0  0  0  0  0  0  0  0
   22.4277   74.0759   -6.3219 O   0  0  0  0  0  0  0  0  0  0  0  0
   20.7598   72.0961   -6.7907 O   0  0  0  0  0  0  0  0  0  0  0  0
   19.9434   74.4398   -5.8856 O   0  0  0  0  0  0  0  0  0  0  0  0
   18.7953   74.2351   -5.0829 C   0  0  0  0  0  0  0  0  0  0  0  0
   17.3227   72.7761   -6.2996 O   0  0  0  0  0  0  0  0  0  0  0  0
   15.3854   75.0647   -6.3329 O   0  0  0  0  0  0  0  0  0  0  0  0
   14.4106   73.4879   -4.3330 O   0  0  0  0  0  0  0  0  0  0  0  0
   16.2987   74.6687   -5.3094 C   0  0  1  0  0  0  0  0  0  0  0  0
   15.7941   73.4246   -4.6094 C   0  0  2  0  0  0  0  0  0  0  0  0
   17.5677   74.1633   -5.9819 C   0  0  1  0  0  0  0  0  0  0  0  0
   16.1411   72.3364   -5.6112 C   0  0  2  0  0  0  0  0  0  0  0  0
   14.5666   75.3913   -5.9274 H   0  0  0  0  0  0  0  0  0  0  0  0
   14.2414   74.1953   -3.6904 H   0  0  0  0  0  0  0  0  0  0  0  0
   15.9352   69.8312   -6.8989 O   0  0  0  0  0  0  0  0  0  0  0  0
   17.1990   67.5646   -3.0898 O   0  0  0  0  0  0  0  0  0  0  0  0
   16.4105   71.0758   -4.9796 N   0  0  0  0  0  0  0  0  0  0  0  0
   16.5639   68.7046   -5.0002 N   0  0  0  0  0  0  0  0  0  0  0  0
   16.2771   69.8747   -5.7156 C   0  0  0  0  0  0  0  0  0  0  0  0
   16.8035   71.0375   -3.6473 C   0  0  0  0  0  0  0  0  0  0  0  0
   17.0736   69.9145   -2.9790 C   0  0  0  0  0  0  0  0  0  0  0  0
   16.9575   68.6161   -3.6748 C   0  0  0  0  0  0  0  0  0  0  0  0
   16.4759   67.8557   -5.4910 H   0  0  0  0  0  0  0  0  0  0  0  0
   21.2977   72.9373   -4.3641 O   0  0  0  0  0  0  0  0  0  0  0  0
   22.6282   72.9846   -3.4469 P   0  0  2  0  0  0  0  0  0  0  0  0
   22.7509   74.5500   -3.0536 O   0  0  0  0  0  0  0  0  0  0  0  0
   23.8509   72.4148   -4.1058 O   0  0  0  0  0  0  0  0  0  0  0  0
   22.2048   72.2518   -2.0735 O   0  0  0  0  0  0  0  0  0  0  0  0
   23.5408   72.0082   -0.1332 O   0  0  0  0  0  0  0  0  0  0  0  0
   21.0308   68.7398    0.1588 O   0  0  0  0  0  0  0  0  0  0  0  0
   22.1899   69.4915   -2.4153 O   0  0  0  0  0  0  0  0  0  0  0  0
   20.5994   71.0665    1.8475 O   0  0  0  0  0  0  0  0  0  0  0  0
   21.3990   70.0726   -0.1965 C   0  0  2  0  0  0  0  0  0  0  0  0
   22.5845   70.0360   -1.1613 C   0  0  2  0  0  0  0  0  0  0  0  0
   21.7791   70.8160    1.0860 C   0  0  1  0  0  0  0  0  0  0  0  0
   23.1522   71.4385   -1.3838 C   0  0  1  0  0  0  0  0  0  0  0  0
   22.4530   72.1499    0.7777 C   0  0  1  0  0  0  0  0  0  0  0  0
   20.7852   68.2480   -0.6406 H   0  0  0  0  0  0  0  0  0  0  0  0
   21.8285   68.6017   -2.2815 H   0  0  0  0  0  0  0  0  0  0  0  0
   20.1608   70.2254    2.0502 H   0  0  0  0  0  0  0  0  0  0  0  0
   22.9577   71.8650    3.0505 O   0  0  0  0  0  0  0  0  0  0  0  0
   23.7027   73.7743    2.0510 O   0  0  0  0  0  0  0  0  0  0  0  0
   23.1085   72.7078    1.9989 C   0  0  0  0  0  0  0  0  0  0  0  0
  1  4  1  0
  1 24  1  0
  1  2  1  6
  1  3  2  0
 25 28  1  0
 25 24  1  0
 25 26  1  1
 25 27  2  0
  6 11  1  0
  6 12  1  0
 29 36  1  0
 29 37  1  0
  9  7  1  6
  7 13  1  0
 10  8  1  6
  8 14  1  0
  4  5  1  0
 36 28  1  1
 33 30  1  1
 30 38  1  0
 34 31  1  6
 31 39  1  0
 35 32  1  1
 32 40  1  0
 41 43  1  0
 15 19  2  0
 42 43  2  0
 16 22  2  0
 12 17  1  1
 17 19  1  0
 17 20  1  0
 18 19  1  0
 18 22  1  0
 18 23  1  0
  9 10  1  0
  9 11  1  0
 10 12  1  0
 11  5  1  1
 33 34  1  0
 33 35  1  0
 34 36  1  0
 35 37  1  0
 37 43  1  1
 20 21  2  0
 21 22  1  0
M  CHG  3   2  -1  26  -1  41  -1
M  END
>  <COMPND>  (196) 
    udp_gluA.pdb 

>  <AUTHOR>  (196) 
    GENERATED BY OPEN BABEL 3.1.1

>  <MASTER>  (196) 
        0    0    0    0    0    0    0    0   56    0   56    0

>  <minimizedAffinity>  (196) 
-7.11441

>  <CNNscore>  (196) 
0.2804839015

>  <CNNaffinity>  (196) 
3.8551049232

>  <CNN_VS>  (196) 
1.0812948942

>  <CNNaffinity_variance>  (196) 
0.5117970109

$$$$
197
     RDKit          3D

 43 45  0  0  0  0  0  0  0  0999 V2000
   19.3205   69.0993   -3.0723 P   0  0  2  0  0  0  0  0  0  0  0  0
   19.6160   69.0986   -1.4812 O   0  0  0  0  0  0  0  0  0  0  0  0
   18.9451   67.7652   -3.6476 O   0  0  0  0  0  0  0  0  0  0  0  0
   20.6341   69.7953   -3.7111 O   0  0  0  0  0  0  0  0  0  0  0  0
   21.4483   70.5974   -2.8755 C   0  0  0  0  0  0  0  0  0  0  0  0
   23.5818   70.6728   -1.7709 O   0  0  0  0  0  0  0  0  0  0  0  0
   24.0324   67.9141   -2.8564 O   0  0  0  0  0  0  0  0  0  0  0  0
   23.3208   67.4276   -0.2693 O   0  0  0  0  0  0  0  0  0  0  0  0
   22.8250   68.5145   -2.3871 C   0  0  1  0  0  0  0  0  0  0  0  0
   22.8393   68.6085   -0.8761 C   0  0  2  0  0  0  0  0  0  0  0  0
   22.8389   69.9806   -2.7977 C   0  0  1  0  0  0  0  0  0  0  0  0
   23.7523   69.8000   -0.6428 C   0  0  2  0  0  0  0  0  0  0  0  0
   24.0464   66.9767   -2.6059 H   0  0  0  0  0  0  0  0  0  0  0  0
   22.7049   66.6987   -0.4464 H   0  0  0  0  0  0  0  0  0  0  0  0
   25.6228   70.5377    1.3405 O   0  0  0  0  0  0  0  0  0  0  0  0
   22.3727   72.5490    3.9165 O   0  0  0  0  0  0  0  0  0  0  0  0
   23.4221   70.5170    0.5562 N   0  0  0  0  0  0  0  0  0  0  0  0
   24.0021   71.5379    2.6221 N   0  0  0  0  0  0  0  0  0  0  0  0
   24.4368   70.8384    1.4885 C   0  0  0  0  0  0  0  0  0  0  0  0
   22.1071   70.8954    0.7982 C   0  0  0  0  0  0  0  0  0  0  0  0
   21.7081   71.5619    1.8833 C   0  0  0  0  0  0  0  0  0  0  0  0
   22.7058   71.9355    2.9071 C   0  0  0  0  0  0  0  0  0  0  0  0
   24.6903   71.7710    3.2865 H   0  0  0  0  0  0  0  0  0  0  0  0
   18.1897   70.2433   -3.2309 O   0  0  0  0  0  0  0  0  0  0  0  0
   17.1460   70.5454   -4.4281 P   0  0  2  0  0  0  0  0  0  0  0  0
   16.4727   71.9496   -3.9863 O   0  0  0  0  0  0  0  0  0  0  0  0
   16.1618   69.4401   -4.6805 O   0  0  0  0  0  0  0  0  0  0  0  0
   18.0728   70.9188   -5.6946 O   0  0  0  0  0  0  0  0  0  0  0  0
   19.3668   72.8887   -5.9275 O   0  0  0  0  0  0  0  0  0  0  0  0
   18.6921   71.8550   -9.8701 O   0  0  0  0  0  0  0  0  0  0  0  0
   16.5452   71.6563   -7.8989 O   0  0  0  0  0  0  0  0  0  0  0  0
   21.2910   71.3738   -8.6597 O   0  0  0  0  0  0  0  0  0  0  0  0
   18.9009   71.6174   -8.4780 C   0  0  2  0  0  0  0  0  0  0  0  0
   17.7947   72.2978   -7.6712 C   0  0  2  0  0  0  0  0  0  0  0  0
   20.2671   72.1938   -8.0996 C   0  0  1  0  0  0  0  0  0  0  0  0
   18.1078   72.2616   -6.1747 C   0  0  1  0  0  0  0  0  0  0  0  0
   20.4525   72.2395   -6.5856 C   0  0  1  0  0  0  0  0  0  0  0  0
   17.8297   71.4972  -10.1336 H   0  0  0  0  0  0  0  0  0  0  0  0
   16.3404   71.6754   -8.8465 H   0  0  0  0  0  0  0  0  0  0  0  0
   21.1844   71.3362   -9.6230 H   0  0  0  0  0  0  0  0  0  0  0  0
   21.7165   73.2263   -4.8739 O   0  0  0  0  0  0  0  0  0  0  0  0
   22.3986   73.5987   -7.0176 O   0  0  0  0  0  0  0  0  0  0  0  0
   21.6241   73.0915   -6.2201 C   0  0  0  0  0  0  0  0  0  0  0  0
  1  4  1  0
  1 24  1  0
  1  2  1  1
  1  3  2  0
 25 28  1  0
 25 24  1  0
 25 26  1  1
 25 27  2  0
  6 11  1  0
  6 12  1  0
 29 36  1  0
 29 37  1  0
  9  7  1  6
  7 13  1  0
 10  8  1  1
  8 14  1  0
  4  5  1  0
 36 28  1  6
 33 30  1  6
 30 38  1  0
 34 31  1  1
 31 39  1  0
 35 32  1  6
 32 40  1  0
 41 43  1  0
 15 19  2  0
 42 43  2  0
 16 22  2  0
 12 17  1  1
 17 19  1  0
 17 20  1  0
 18 19  1  0
 18 22  1  0
 18 23  1  0
  9 10  1  0
  9 11  1  0
 10 12  1  0
 11  5  1  1
 33 34  1  0
 33 35  1  0
 34 36  1  0
 35 37  1  0
 37 43  1  6
 20 21  2  0
 21 22  1  0
M  CHG  3   2  -1  26  -1  41  -1
M  END
>  <COMPND>  (197) 
    udp_gluA.pdb 

>  <AUTHOR>  (197) 
    GENERATED BY OPEN BABEL 3.1.1

>  <MASTER>  (197) 
        0    0    0    0    0    0    0    0   56    0   56    0

>  <minimizedAffinity>  (197) 
-8.16171

>  <CNNscore>  (197) 
0.2792286575

>  <CNNaffinity>  (197) 
4.0408549309

>  <CNN_VS>  (197) 
1.1283224821

>  <CNNaffinity_variance>  (197) 
0.2238037884

$$$$
198
     RDKit          3D

 43 45  0  0  0  0  0  0  0  0999 V2000
   21.3987   71.8524   -3.9797 P   0  0  2  0  0  0  0  0  0  0  0  0
   20.7849   72.1746   -5.4420 O   0  0  0  0  0  0  0  0  0  0  0  0
   22.8773   72.0736   -3.8504 O   0  0  0  0  0  0  0  0  0  0  0  0
   20.8824   70.3519   -3.6637 O   0  0  0  0  0  0  0  0  0  0  0  0
   19.7399   69.8717   -4.3482 C   0  0  0  0  0  0  0  0  0  0  0  0
   17.7604   70.8225   -3.3708 O   0  0  0  0  0  0  0  0  0  0  0  0
   17.0855   68.0383   -2.4853 O   0  0  0  0  0  0  0  0  0  0  0  0
   15.5010   68.3660   -4.6802 O   0  0  0  0  0  0  0  0  0  0  0  0
   17.7182   68.4755   -3.6882 C   0  0  1  0  0  0  0  0  0  0  0  0
   16.7015   69.1070   -4.6155 C   0  0  2  0  0  0  0  0  0  0  0  0
   18.6139   69.6579   -3.3449 C   0  0  1  0  0  0  0  0  0  0  0  0
   16.5100   70.4770   -3.9875 C   0  0  2  0  0  0  0  0  0  0  0  0
   16.5077   67.2832   -2.6794 H   0  0  0  0  0  0  0  0  0  0  0  0
   15.6755   67.5026   -5.0876 H   0  0  0  0  0  0  0  0  0  0  0  0
   15.1411   72.8740   -3.3897 O   0  0  0  0  0  0  0  0  0  0  0  0
   15.2732   74.2594   -7.7837 O   0  0  0  0  0  0  0  0  0  0  0  0
   16.1737   71.4817   -4.9562 N   0  0  0  0  0  0  0  0  0  0  0  0
   15.2073   73.5612   -5.5789 N   0  0  0  0  0  0  0  0  0  0  0  0
   15.4846   72.6495   -4.5519 C   0  0  0  0  0  0  0  0  0  0  0  0
   16.5271   71.3063   -6.2886 C   0  0  0  0  0  0  0  0  0  0  0  0
   16.2560   72.1843   -7.2563 C   0  0  0  0  0  0  0  0  0  0  0  0
   15.5378   73.4306   -6.9181 C   0  0  0  0  0  0  0  0  0  0  0  0
   14.7264   74.3810   -5.3221 H   0  0  0  0  0  0  0  0  0  0  0  0
   20.4933   72.7625   -2.9975 O   0  0  0  0  0  0  0  0  0  0  0  0
   20.8185   73.4130   -1.5536 P   0  0  2  0  0  0  0  0  0  0  0  0
   19.3703   73.4530   -0.8314 O   0  0  0  0  0  0  0  0  0  0  0  0
   21.5136   74.7421   -1.6194 O   0  0  0  0  0  0  0  0  0  0  0  0
   21.6359   72.2683   -0.7638 O   0  0  0  0  0  0  0  0  0  0  0  0
   21.3325   69.9282   -0.5616 O   0  0  0  0  0  0  0  0  0  0  0  0
   22.6795   70.9304    3.2132 O   0  0  0  0  0  0  0  0  0  0  0  0
   20.7268   72.6159    1.8417 O   0  0  0  0  0  0  0  0  0  0  0  0
   24.4640   69.6244    1.3261 O   0  0  0  0  0  0  0  0  0  0  0  0
   22.5747   71.0445    1.7940 C   0  0  2  0  0  0  0  0  0  0  0  0
   21.1209   71.3190    1.4086 C   0  0  2  0  0  0  0  0  0  0  0  0
   23.0491   69.7267    1.1773 C   0  0  1  0  0  0  0  0  0  0  0  0
   20.9281   71.2195   -0.1052 C   0  0  1  0  0  0  0  0  0  0  0  0
   22.7082   69.6523   -0.3082 C   0  0  1  0  0  0  0  0  0  0  0  0
   22.3833   71.7565    3.6269 H   0  0  0  0  0  0  0  0  0  0  0  0
   20.8468   72.6861    2.8014 H   0  0  0  0  0  0  0  0  0  0  0  0
   24.6943   69.6705    2.2672 H   0  0  0  0  0  0  0  0  0  0  0  0
   22.4959   68.1796   -2.1214 O   0  0  0  0  0  0  0  0  0  0  0  0
   23.2856   67.3140   -0.1653 O   0  0  0  0  0  0  0  0  0  0  0  0
   22.8707   68.2582   -0.8205 C   0  0  0  0  0  0  0  0  0  0  0  0
  1  4  1  0
  1 24  1  0
  1  2  1  6
  1  3  2  0
 25 28  1  0
 25 24  1  0
 25 26  1  1
 25 27  2  0
  6 11  1  0
  6 12  1  0
 29 36  1  0
 29 37  1  0
  9  7  1  1
  7 13  1  0
 10  8  1  1
  8 14  1  0
  4  5  1  0
 36 28  1  6
 33 30  1  1
 30 38  1  0
 34 31  1  6
 31 39  1  0
 35 32  1  6
 32 40  1  0
 41 43  1  0
 15 19  2  0
 42 43  2  0
 16 22  2  0
 12 17  1  6
 17 19  1  0
 17 20  1  0
 18 19  1  0
 18 22  1  0
 18 23  1  0
  9 10  1  0
  9 11  1  0
 10 12  1  0
 11  5  1  6
 33 34  1  0
 33 35  1  0
 34 36  1  0
 35 37  1  0
 37 43  1  1
 20 21  2  0
 21 22  1  0
M  CHG  3   2  -1  26  -1  41  -1
M  END
>  <COMPND>  (198) 
    udp_gluA.pdb 

>  <AUTHOR>  (198) 
    GENERATED BY OPEN BABEL 3.1.1

>  <MASTER>  (198) 
        0    0    0    0    0    0    0    0   56    0   56    0

>  <minimizedAffinity>  (198) 
-7.70534

>  <CNNscore>  (198) 
0.2724552453

>  <CNNaffinity>  (198) 
3.8538775444

>  <CNN_VS>  (198) 
1.0500091314

>  <CNNaffinity_variance>  (198) 
0.5552451611

$$$$
199
     RDKit          3D

 43 45  0  0  0  0  0  0  0  0999 V2000
   19.7920   70.8258   -2.5387 P   0  0  2  0  0  0  0  0  0  0  0  0
   18.5206   71.7391   -2.9489 O   0  0  0  0  0  0  0  0  0  0  0  0
   19.5896   69.3479   -2.7021 O   0  0  0  0  0  0  0  0  0  0  0  0
   20.1617   71.3233   -1.0441 O   0  0  0  0  0  0  0  0  0  0  0  0
   21.5269   71.4681   -0.6980 C   0  0  0  0  0  0  0  0  0  0  0  0
   22.0582   69.2706    0.1180 O   0  0  0  0  0  0  0  0  0  0  0  0
   22.9589   70.6262    2.6364 O   0  0  0  0  0  0  0  0  0  0  0  0
   25.3130   70.1265    1.3541 O   0  0  0  0  0  0  0  0  0  0  0  0
   23.0718   71.0667    1.2830 C   0  0  1  0  0  0  0  0  0  0  0  0
   24.1520   70.2850    0.5658 C   0  0  2  0  0  0  0  0  0  0  0  0
   21.8163   70.6300    0.5406 C   0  0  1  0  0  0  0  0  0  0  0  0
   23.4523   68.9665    0.2834 C   0  0  2  0  0  0  0  0  0  0  0  0
   23.7499   70.8938    3.1309 H   0  0  0  0  0  0  0  0  0  0  0  0
   25.7218   70.9936    1.5056 H   0  0  0  0  0  0  0  0  0  0  0  0
   23.1317   66.2241   -0.3107 O   0  0  0  0  0  0  0  0  0  0  0  0
   25.3529   66.6472   -4.3271 O   0  0  0  0  0  0  0  0  0  0  0  0
   23.9370   68.3336   -0.9105 N   0  0  0  0  0  0  0  0  0  0  0  0
   24.2392   66.4372   -2.3101 N   0  0  0  0  0  0  0  0  0  0  0  0
   23.7235   66.9495   -1.1123 C   0  0  0  0  0  0  0  0  0  0  0  0
   24.6133   69.0818   -1.8665 C   0  0  0  0  0  0  0  0  0  0  0  0
   25.0989   68.5795   -3.0034 C   0  0  0  0  0  0  0  0  0  0  0  0
   24.9191   67.1412   -3.2907 C   0  0  0  0  0  0  0  0  0  0  0  0
   24.1046   65.4754   -2.4718 H   0  0  0  0  0  0  0  0  0  0  0  0
   20.9873   71.4448   -3.4337 O   0  0  0  0  0  0  0  0  0  0  0  0
   21.0077   72.6944   -4.4592 P   0  0  2  0  0  0  0  0  0  0  0  0
   22.4388   72.5416   -5.2000 O   0  0  0  0  0  0  0  0  0  0  0  0
   20.7878   74.0291   -3.8079 O   0  0  0  0  0  0  0  0  0  0  0  0
   19.9214   72.3140   -5.5896 O   0  0  0  0  0  0  0  0  0  0  0  0
   18.8430   70.2193   -5.8308 O   0  0  0  0  0  0  0  0  0  0  0  0
   18.7076   71.6840   -9.6914 O   0  0  0  0  0  0  0  0  0  0  0  0
   21.1232   71.9868   -8.0765 O   0  0  0  0  0  0  0  0  0  0  0  0
   16.3168   71.7060   -8.0377 O   0  0  0  0  0  0  0  0  0  0  0  0
   18.7146   71.7656   -8.2662 C   0  0  2  0  0  0  0  0  0  0  0  0
   20.0138   71.1677   -7.7258 C   0  0  2  0  0  0  0  0  0  0  0  0
   17.5094   70.9817   -7.7418 C   0  0  1  0  0  0  0  0  0  0  0  0
   19.9599   71.0272   -6.2039 C   0  0  1  0  0  0  0  0  0  0  0  0
   17.5930   70.7757   -6.2321 C   0  0  1  0  0  0  0  0  0  0  0  0
   19.4649   72.1751  -10.0473 H   0  0  0  0  0  0  0  0  0  0  0  0
   21.1633   72.0804   -9.0409 H   0  0  0  0  0  0  0  0  0  0  0  0
   16.2517   71.8441   -8.9956 H   0  0  0  0  0  0  0  0  0  0  0  0
   17.0532   69.1120   -4.6693 O   0  0  0  0  0  0  0  0  0  0  0  0
   15.5440   69.5056   -6.3326 O   0  0  0  0  0  0  0  0  0  0  0  0
   16.6077   69.7467   -5.7818 C   0  0  0  0  0  0  0  0  0  0  0  0
  1  4  1  0
  1 24  1  0
  1  2  1  6
  1  3  2  0
 25 28  1  0
 25 24  1  0
 25 26  1  6
 25 27  2  0
  6 11  1  0
  6 12  1  0
 29 36  1  0
 29 37  1  0
  9  7  1  1
  7 13  1  0
 10  8  1  1
  8 14  1  0
  4  5  1  0
 36 28  1  1
 33 30  1  6
 30 38  1  0
 34 31  1  1
 31 39  1  0
 35 32  1  1
 32 40  1  0
 41 43  1  0
 15 19  2  0
 42 43  2  0
 16 22  2  0
 12 17  1  6
 17 19  1  0
 17 20  1  0
 18 19  1  0
 18 22  1  0
 18 23  1  0
  9 10  1  0
  9 11  1  0
 10 12  1  0
 11  5  1  6
 33 34  1  0
 33 35  1  0
 34 36  1  0
 35 37  1  0
 37 43  1  6
 20 21  2  0
 21 22  1  0
M  CHG  3   2  -1  26  -1  41  -1
M  END
>  <COMPND>  (199) 
    udp_gluA.pdb 

>  <AUTHOR>  (199) 
    GENERATED BY OPEN BABEL 3.1.1

>  <MASTER>  (199) 
        0    0    0    0    0    0    0    0   56    0   56    0

>  <minimizedAffinity>  (199) 
-8.59135

>  <CNNscore>  (199) 
0.2661544383

>  <CNNaffinity>  (199) 
4.2211103439

>  <CNN_VS>  (199) 
1.1234672070

>  <CNNaffinity_variance>  (199) 
0.3935718834

$$$$
200
     RDKit          3D

 43 45  0  0  0  0  0  0  0  0999 V2000
   21.6138   74.2694   -5.9124 P   0  0  2  0  0  0  0  0  0  0  0  0
   20.2494   75.1376   -5.8514 O   0  0  0  0  0  0  0  0  0  0  0  0
   22.8678   75.0723   -6.0985 O   0  0  0  0  0  0  0  0  0  0  0  0
   21.3161   73.1573   -7.0493 O   0  0  0  0  0  0  0  0  0  0  0  0
   20.8276   71.8914   -6.6454 C   0  0  0  0  0  0  0  0  0  0  0  0
   18.8982   70.5229   -7.0727 O   0  0  0  0  0  0  0  0  0  0  0  0
   18.6992   71.9503   -9.7022 O   0  0  0  0  0  0  0  0  0  0  0  0
   16.8014   73.2044   -8.1983 O   0  0  0  0  0  0  0  0  0  0  0  0
   19.1028   72.4543   -8.4288 C   0  0  1  0  0  0  0  0  0  0  0  0
   17.8989   72.6227   -7.5263 C   0  0  2  0  0  0  0  0  0  0  0  0
   19.8843   71.3589   -7.7163 C   0  0  1  0  0  0  0  0  0  0  0  0
   17.6275   71.1924   -7.0922 C   0  0  2  0  0  0  0  0  0  0  0  0
   18.1979   72.6327  -10.1763 H   0  0  0  0  0  0  0  0  0  0  0  0
   17.0238   74.1140   -8.4537 H   0  0  0  0  0  0  0  0  0  0  0  0
   16.1021   69.0106   -6.1492 O   0  0  0  0  0  0  0  0  0  0  0  0
   15.4250   71.0179   -2.0557 O   0  0  0  0  0  0  0  0  0  0  0  0
   17.0408   71.1187   -5.7841 N   0  0  0  0  0  0  0  0  0  0  0  0
   15.7655   70.0129   -4.1117 N   0  0  0  0  0  0  0  0  0  0  0  0
   16.2925   69.9778   -5.4094 C   0  0  0  0  0  0  0  0  0  0  0  0
   17.2102   72.1671   -4.8879 C   0  0  0  0  0  0  0  0  0  0  0  0
   16.7018   72.1861   -3.6542 C   0  0  0  0  0  0  0  0  0  0  0  0
   15.9063   71.0328   -3.1846 C   0  0  0  0  0  0  0  0  0  0  0  0
   15.2390   69.2305   -3.8288 H   0  0  0  0  0  0  0  0  0  0  0  0
   21.5600   73.4124   -4.5429 O   0  0  0  0  0  0  0  0  0  0  0  0
   22.0836   73.7584   -3.0530 P   0  0  2  0  0  0  0  0  0  0  0  0
   21.0221   74.8656   -2.5357 O   0  0  0  0  0  0  0  0  0  0  0  0
   23.5172   74.1998   -2.9911 O   0  0  0  0  0  0  0  0  0  0  0  0
   21.7513   72.4393   -2.1858 O   0  0  0  0  0  0  0  0  0  0  0  0
   23.2603   72.2966   -0.3660 O   0  0  0  0  0  0  0  0  0  0  0  0
   21.0451   68.8414    0.1058 O   0  0  0  0  0  0  0  0  0  0  0  0
   21.9223   69.6871   -2.5493 O   0  0  0  0  0  0  0  0  0  0  0  0
   20.5775   71.1234    1.8450 O   0  0  0  0  0  0  0  0  0  0  0  0
   21.2775   70.1996   -0.2673 C   0  0  2  0  0  0  0  0  0  0  0  0
   22.3772   70.2580   -1.3279 C   0  0  2  0  0  0  0  0  0  0  0  0
   21.7051   70.9676    0.9855 C   0  0  1  0  0  0  0  0  0  0  0  0
   22.8135   71.7010   -1.5847 C   0  0  1  0  0  0  0  0  0  0  0  0
   22.2451   72.3508    0.6337 C   0  0  1  0  0  0  0  0  0  0  0  0
   20.7722   68.3336   -0.6746 H   0  0  0  0  0  0  0  0  0  0  0  0
   21.6435   68.7714   -2.3937 H   0  0  0  0  0  0  0  0  0  0  0  0
   20.2241   70.2502    2.0762 H   0  0  0  0  0  0  0  0  0  0  0  0
   22.6044   74.2564    1.9531 O   0  0  0  0  0  0  0  0  0  0  0  0
   23.7434   72.3657    2.5248 O   0  0  0  0  0  0  0  0  0  0  0  0
   22.9554   72.9555    1.8008 C   0  0  0  0  0  0  0  0  0  0  0  0
  1  4  1  0
  1 24  1  0
  1  2  1  1
  1  3  2  0
 25 28  1  0
 25 24  1  0
 25 26  1  1
 25 27  2  0
  6 11  1  0
  6 12  1  0
 29 36  1  0
 29 37  1  0
  9  7  1  6
  7 13  1  0
 10  8  1  6
  8 14  1  0
  4  5  1  0
 36 28  1  1
 33 30  1  1
 30 38  1  0
 34 31  1  6
 31 39  1  0
 35 32  1  1
 32 40  1  0
 41 43  1  0
 15 19  2  0
 42 43  2  0
 16 22  2  0
 12 17  1  1
 17 19  1  0
 17 20  1  0
 18 19  1  0
 18 22  1  0
 18 23  1  0
  9 10  1  0
  9 11  1  0
 10 12  1  0
 11  5  1  1
 33 34  1  0
 33 35  1  0
 34 36  1  0
 35 37  1  0
 37 43  1  1
 20 21  2  0
 21 22  1  0
M  CHG  3   2  -1  26  -1  41  -1
M  END
