1
     RDKit          3D

 43 45  0  0  0  0  0  0  0  0999 V2000
   21.2239   69.7159   -0.8017 P   0  0  2  0  0  0  0  0  0  0  0  0
   22.1981   68.5004   -0.3650 O   0  0  0  0  0  0  0  0  0  0  0  0
   20.6960   70.5439    0.3327 O   0  0  0  0  0  0  0  0  0  0  0  0
   20.1071   69.0038   -1.7311 O   0  0  0  0  0  0  0  0  0  0  0  0
   19.8426   69.5523   -3.0106 C   0  0  0  0  0  0  0  0  0  0  0  0
   18.4881   71.2208   -4.0853 O   0  0  0  0  0  0  0  0  0  0  0  0
   16.1908   70.0945   -2.5218 O   0  0  0  0  0  0  0  0  0  0  0  0
   15.8284   68.9910   -4.9891 O   0  0  0  0  0  0  0  0  0  0  0  0
   17.3036   69.4180   -3.1042 C   0  0  1  0  0  0  0  0  0  0  0  0
   17.1435   69.3405   -4.6082 C   0  0  2  0  0  0  0  0  0  0  0  0
   18.5262   70.3157   -2.9603 C   0  0  1  0  0  0  0  0  0  0  0  0
   17.5223   70.7476   -5.0382 C   0  0  2  0  0  0  0  0  0  0  0  0
   15.3980   69.5404   -2.6014 H   0  0  0  0  0  0  0  0  0  0  0  0
   15.6352   68.0877   -4.6931 H   0  0  0  0  0  0  0  0  0  0  0  0
   16.0524   70.5751   -7.4440 O   0  0  0  0  0  0  0  0  0  0  0  0
   19.8674   70.8851  -10.0112 O   0  0  0  0  0  0  0  0  0  0  0  0
   18.1059   70.7811   -6.3496 N   0  0  0  0  0  0  0  0  0  0  0  0
   17.9531   70.7298   -8.7203 N   0  0  0  0  0  0  0  0  0  0  0  0
   17.2791   70.6863   -7.4932 C   0  0  0  0  0  0  0  0  0  0  0  0
   19.4835   70.9070   -6.4919 C   0  0  0  0  0  0  0  0  0  0  0  0
   20.1109   70.9457   -7.6693 C   0  0  0  0  0  0  0  0  0  0  0  0
   19.3200   70.8527   -8.9134 C   0  0  0  0  0  0  0  0  0  0  0  0
   17.3976   70.6650   -9.5308 H   0  0  0  0  0  0  0  0  0  0  0  0
   22.1192   70.5330   -1.8712 O   0  0  0  0  0  0  0  0  0  0  0  0
   22.3823   72.1185   -2.0441 P   0  0  2  0  0  0  0  0  0  0  0  0
   20.8918   72.7471   -2.0165 O   0  0  0  0  0  0  0  0  0  0  0  0
   23.1844   72.4801   -3.2606 O   0  0  0  0  0  0  0  0  0  0  0  0
   23.0443   72.5777   -0.6456 O   0  0  0  0  0  0  0  0  0  0  0  0
   22.1055   73.2342    1.4290 O   0  0  0  0  0  0  0  0  0  0  0  0
   25.1993   75.9605    1.2126 O   0  0  0  0  0  0  0  0  0  0  0  0
   25.3571   73.7818    3.0771 O   0  0  0  0  0  0  0  0  0  0  0  0
   23.7356   75.2444   -1.1801 O   0  0  0  0  0  0  0  0  0  0  0  0
   24.5606   74.6961    1.0154 C   0  0  1  0  0  0  0  0  0  0  0  0
   24.1645   74.1403    2.3847 C   0  0  1  0  0  0  0  0  0  0  0  0
   23.3263   74.8919    0.1370 C   0  0  2  0  0  0  0  0  0  0  0  0
   23.2425   72.9217    2.2423 C   0  0  1  0  0  0  0  0  0  0  0  0
   22.4527   73.6366    0.1026 C   0  0  1  0  0  0  0  0  0  0  0  0
   25.9841   75.8431    1.7691 H   0  0  0  0  0  0  0  0  0  0  0  0
   25.9306   74.5599    3.1599 H   0  0  0  0  0  0  0  0  0  0  0  0
   24.2877   76.0406   -1.1447 H   0  0  0  0  0  0  0  0  0  0  0  0
   22.8773   73.4913    4.5338 O   0  0  0  0  0  0  0  0  0  0  0  0
   22.7086   72.4476    3.5922 C   0  0  0  0  0  0  0  0  0  0  0  0
   22.5416   73.2038    5.3977 H   0  0  0  0  0  0  0  0  0  0  0  0
 25 28  1  0
 25 24  1  0
 25 26  1  6
 25 27  2  0
  1  4  1  0
  1 24  1  0
  1  2  1  1
  1  3  2  0
  6 11  1  0
  6 12  1  0
 29 36  1  0
 29 37  1  0
  9  7  1  1
  7 13  1  0
 10  8  1  1
  8 14  1  0
 37 28  1  1
  4  5  1  0
 33 30  1  1
 30 38  1  0
 34 31  1  6
 31 39  1  0
 35 32  1  6
 32 40  1  0
 41 42  1  0
 41 43  1  0
 15 19  2  0
 16 22  2  0
 12 17  1  6
 17 19  1  0
 17 20  1  0
 18 19  1  0
 18 22  1  0
 18 23  1  0
  9 10  1  0
  9 11  1  0
 10 12  1  0
 11  5  1  6
 33 34  1  0
 33 35  1  0
 34 36  1  0
 35 37  1  0
 36 42  1  1
 20 21  2  0
 21 22  1  0
M  CHG  2   2  -1  26  -1
M  END
>  <COMPND>  (1) 
    8629 

>  <AUTHOR>  (1) 
    GENERATED BY OPEN BABEL 3.1.1

>  <MASTER>  (1) 
        0    0    0    0    0    0    0    0   58    0   58    0

>  <minimizedAffinity>  (1) 
-7.35681

>  <CNNscore>  (1) 
0.9058277011

>  <CNNaffinity>  (1) 
4.8872580528

>  <CNN_VS>  (1) 
4.4270138741

>  <CNNaffinity_variance>  (1) 
0.1354226917

$$$$
2
     RDKit          3D

 43 45  0  0  0  0  0  0  0  0999 V2000
   20.8689   69.4882   -1.4521 P   0  0  2  0  0  0  0  0  0  0  0  0
   22.1203   69.0456   -2.3771 O   0  0  0  0  0  0  0  0  0  0  0  0
   21.0531   69.2525    0.0182 O   0  0  0  0  0  0  0  0  0  0  0  0
   19.6024   68.7435   -2.1299 O   0  0  0  0  0  0  0  0  0  0  0  0
   19.2089   69.1314   -3.4347 C   0  0  0  0  0  0  0  0  0  0  0  0
   18.1693   71.1497   -4.2217 O   0  0  0  0  0  0  0  0  0  0  0  0
   15.5974   70.0062   -3.1879 O   0  0  0  0  0  0  0  0  0  0  0  0
   15.4299   69.5203   -5.8660 O   0  0  0  0  0  0  0  0  0  0  0  0
   16.6997   69.3391   -3.8005 C   0  0  1  0  0  0  0  0  0  0  0  0
   16.7171   69.6114   -5.2902 C   0  0  2  0  0  0  0  0  0  0  0  0
   17.9793   70.0239   -3.3369 C   0  0  1  0  0  0  0  0  0  0  0  0
   17.2843   71.0197   -5.3463 C   0  0  2  0  0  0  0  0  0  0  0  0
   14.7688   69.5862   -3.4687 H   0  0  0  0  0  0  0  0  0  0  0  0
   15.1126   68.6057   -5.8058 H   0  0  0  0  0  0  0  0  0  0  0  0
   16.1570   72.0248   -7.7332 O   0  0  0  0  0  0  0  0  0  0  0  0
   20.2172   71.9182   -9.9115 O   0  0  0  0  0  0  0  0  0  0  0  0
   18.0238   71.2646   -6.5524 N   0  0  0  0  0  0  0  0  0  0  0  0
   18.1796   71.9711   -8.8158 N   0  0  0  0  0  0  0  0  0  0  0  0
   17.3625   71.7695   -7.6961 C   0  0  0  0  0  0  0  0  0  0  0  0
   19.3894   71.0049   -6.5928 C   0  0  0  0  0  0  0  0  0  0  0  0
   20.1541   71.2013   -7.6688 C   0  0  0  0  0  0  0  0  0  0  0  0
   19.5409   71.7269   -8.9055 C   0  0  0  0  0  0  0  0  0  0  0  0
   17.7405   72.3220   -9.6244 H   0  0  0  0  0  0  0  0  0  0  0  0
   20.6430   71.0353   -1.8624 O   0  0  0  0  0  0  0  0  0  0  0  0
   21.6069   72.3244   -1.7143 P   0  0  2  0  0  0  0  0  0  0  0  0
   20.7256   73.5219   -2.3522 O   0  0  0  0  0  0  0  0  0  0  0  0
   22.9625   72.1539   -2.3366 O   0  0  0  0  0  0  0  0  0  0  0  0
   21.6323   72.6359   -0.1308 O   0  0  0  0  0  0  0  0  0  0  0  0
   23.8104   73.2516    0.5715 O   0  0  0  0  0  0  0  0  0  0  0  0
   21.9895   72.9409    4.2645 O   0  0  0  0  0  0  0  0  0  0  0  0
   22.6442   75.5349    3.2202 O   0  0  0  0  0  0  0  0  0  0  0  0
   21.3346   71.0549    2.1685 O   0  0  0  0  0  0  0  0  0  0  0  0
   22.0610   73.2421    2.8683 C   0  0  1  0  0  0  0  0  0  0  0  0
   23.1306   74.3167    2.6636 C   0  0  1  0  0  0  0  0  0  0  0  0
   22.4219   71.9713    2.1013 C   0  0  2  0  0  0  0  0  0  0  0  0
   23.4531   74.5008    1.1746 C   0  0  1  0  0  0  0  0  0  0  0  0
   22.7725   72.2721    0.6430 C   0  0  1  0  0  0  0  0  0  0  0  0
   21.7602   73.7436    4.7572 H   0  0  0  0  0  0  0  0  0  0  0  0
   22.4439   75.4049    4.1605 H   0  0  0  0  0  0  0  0  0  0  0  0
   21.1226   70.8724    3.0967 H   0  0  0  0  0  0  0  0  0  0  0  0
   25.4622   75.4050    2.0993 O   0  0  0  0  0  0  0  0  0  0  0  0
   24.6271   75.4530    0.9571 C   0  0  0  0  0  0  0  0  0  0  0  0
   26.2139   76.0060    1.9750 H   0  0  0  0  0  0  0  0  0  0  0  0
 25 28  1  0
 25 24  1  0
 25 26  1  6
 25 27  2  0
  1  4  1  0
  1 24  1  0
  1  2  1  6
  1  3  2  0
  6 11  1  0
  6 12  1  0
 29 36  1  0
 29 37  1  0
  9  7  1  1
  7 13  1  0
 10  8  1  1
  8 14  1  0
 37 28  1  6
  4  5  1  0
 33 30  1  1
 30 38  1  0
 34 31  1  6
 31 39  1  0
 35 32  1  6
 32 40  1  0
 41 42  1  0
 41 43  1  0
 15 19  2  0
 16 22  2  0
 12 17  1  6
 17 19  1  0
 17 20  1  0
 18 19  1  0
 18 22  1  0
 18 23  1  0
  9 10  1  0
  9 11  1  0
 10 12  1  0
 11  5  1  6
 33 34  1  0
 33 35  1  0
 34 36  1  0
 35 37  1  0
 36 42  1  1
 20 21  2  0
 21 22  1  0
M  CHG  2   2  -1  26  -1
M  END
>  <COMPND>  (2) 
    8629 

>  <AUTHOR>  (2) 
    GENERATED BY OPEN BABEL 3.1.1

>  <MASTER>  (2) 
        0    0    0    0    0    0    0    0   58    0   58    0

>  <minimizedAffinity>  (2) 
-7.56620

>  <CNNscore>  (2) 
0.8815162182

>  <CNNaffinity>  (2) 
4.7255454063

>  <CNN_VS>  (2) 
4.1656451225

>  <CNNaffinity_variance>  (2) 
0.0659857467

$$$$
3
     RDKit          3D

 43 45  0  0  0  0  0  0  0  0999 V2000
   20.9224   69.9257   -1.8352 P   0  0  2  0  0  0  0  0  0  0  0  0
   20.2106   71.2696   -1.2832 O   0  0  0  0  0  0  0  0  0  0  0  0
   21.8698   70.1347   -2.9798 O   0  0  0  0  0  0  0  0  0  0  0  0
   19.6869   68.9207   -2.1203 O   0  0  0  0  0  0  0  0  0  0  0  0
   19.0434   68.9810   -3.3813 C   0  0  0  0  0  0  0  0  0  0  0  0
   18.1432   71.0679   -4.1611 O   0  0  0  0  0  0  0  0  0  0  0  0
   15.4887   70.0735   -3.1836 O   0  0  0  0  0  0  0  0  0  0  0  0
   15.3378   69.6281   -5.8697 O   0  0  0  0  0  0  0  0  0  0  0  0
   16.5583   69.3466   -3.7859 C   0  0  1  0  0  0  0  0  0  0  0  0
   16.6180   69.6337   -5.2717 C   0  0  2  0  0  0  0  0  0  0  0  0
   17.8693   69.9464   -3.2931 C   0  0  1  0  0  0  0  0  0  0  0  0
   17.2714   71.0049   -5.3016 C   0  0  2  0  0  0  0  0  0  0  0  0
   14.6408   69.7083   -3.4831 H   0  0  0  0  0  0  0  0  0  0  0  0
   14.9641   68.7342   -5.8258 H   0  0  0  0  0  0  0  0  0  0  0  0
   16.2119   71.9378   -7.7481 O   0  0  0  0  0  0  0  0  0  0  0  0
   20.3338   71.7798   -9.8039 O   0  0  0  0  0  0  0  0  0  0  0  0
   18.0451   71.2171   -6.4923 N   0  0  0  0  0  0  0  0  0  0  0  0
   18.2652   71.8586   -8.7697 N   0  0  0  0  0  0  0  0  0  0  0  0
   17.4163   71.6870   -7.6688 C   0  0  0  0  0  0  0  0  0  0  0  0
   19.4118   70.9601   -6.4856 C   0  0  0  0  0  0  0  0  0  0  0  0
   20.2071   71.1276   -7.5442 C   0  0  0  0  0  0  0  0  0  0  0  0
   19.6290   71.6157   -8.8129 C   0  0  0  0  0  0  0  0  0  0  0  0
   17.8491   72.1848   -9.6005 H   0  0  0  0  0  0  0  0  0  0  0  0
   21.5996   69.3013   -0.5068 O   0  0  0  0  0  0  0  0  0  0  0  0
   22.8075   69.8401    0.4225 P   0  0  2  0  0  0  0  0  0  0  0  0
   23.7031   70.7142   -0.6030 O   0  0  0  0  0  0  0  0  0  0  0  0
   23.5637   68.7579    1.1374 O   0  0  0  0  0  0  0  0  0  0  0  0
   22.1203   70.9300    1.3945 O   0  0  0  0  0  0  0  0  0  0  0  0
   21.1739   73.0994    1.2740 O   0  0  0  0  0  0  0  0  0  0  0  0
   23.8687   73.7246    4.3396 O   0  0  0  0  0  0  0  0  0  0  0  0
   21.0606   73.5876    4.9260 O   0  0  0  0  0  0  0  0  0  0  0  0
   24.5974   72.0465    2.0963 O   0  0  0  0  0  0  0  0  0  0  0  0
   22.9289   72.9766    3.5632 C   0  0  1  0  0  0  0  0  0  0  0  0
   21.5841   73.7050    3.6060 C   0  0  1  0  0  0  0  0  0  0  0  0
   23.4385   72.8725    2.1270 C   0  0  2  0  0  0  0  0  0  0  0  0
   20.6010   73.1136    2.5867 C   0  0  1  0  0  0  0  0  0  0  0  0
   22.3671   72.3182    1.1863 C   0  0  1  0  0  0  0  0  0  0  0  0
   23.5513   73.7939    5.2528 H   0  0  0  0  0  0  0  0  0  0  0  0
   21.6911   73.9643    5.5599 H   0  0  0  0  0  0  0  0  0  0  0  0
   25.2682   72.4082    2.6955 H   0  0  0  0  0  0  0  0  0  0  0  0
   19.5669   75.2316    2.9786 O   0  0  0  0  0  0  0  0  0  0  0  0
   19.3095   73.9239    2.5011 C   0  0  0  0  0  0  0  0  0  0  0  0
   18.7537   75.7589    2.9297 H   0  0  0  0  0  0  0  0  0  0  0  0
 25 28  1  0
 25 24  1  0
 25 26  1  6
 25 27  2  0
  1  4  1  0
  1 24  1  0
  1  2  1  1
  1  3  2  0
  6 11  1  0
  6 12  1  0
 29 36  1  0
 29 37  1  0
  9  7  1  1
  7 13  1  0
 10  8  1  1
  8 14  1  0
 37 28  1  1
  4  5  1  0
 33 30  1  1
 30 38  1  0
 34 31  1  1
 31 39  1  0
 35 32  1  1
 32 40  1  0
 41 42  1  0
 41 43  1  0
 15 19  2  0
 16 22  2  0
 12 17  1  6
 17 19  1  0
 17 20  1  0
 18 19  1  0
 18 22  1  0
 18 23  1  0
  9 10  1  0
  9 11  1  0
 10 12  1  0
 11  5  1  6
 33 34  1  0
 33 35  1  0
 34 36  1  0
 35 37  1  0
 36 42  1  6
 20 21  2  0
 21 22  1  0
M  CHG  2   2  -1  26  -1
M  END
>  <COMPND>  (3) 
    8629 

>  <AUTHOR>  (3) 
    GENERATED BY OPEN BABEL 3.1.1

>  <MASTER>  (3) 
        0    0    0    0    0    0    0    0   58    0   58    0

>  <minimizedAffinity>  (3) 
-7.36049

>  <CNNscore>  (3) 
0.8432104588

>  <CNNaffinity>  (3) 
4.7057633400

>  <CNN_VS>  (3) 
3.9679489136

>  <CNNaffinity_variance>  (3) 
0.0364712477

$$$$
4
     RDKit          3D

 43 45  0  0  0  0  0  0  0  0999 V2000
   21.3286   70.1454   -1.4435 P   0  0  2  0  0  0  0  0  0  0  0  0
   20.4869   71.3328   -0.7372 O   0  0  0  0  0  0  0  0  0  0  0  0
   22.2448   70.5874   -2.5465 O   0  0  0  0  0  0  0  0  0  0  0  0
   20.1999   69.0631   -1.8588 O   0  0  0  0  0  0  0  0  0  0  0  0
   19.6036   69.1659   -3.1401 C   0  0  0  0  0  0  0  0  0  0  0  0
   18.4242   71.0403   -4.0726 O   0  0  0  0  0  0  0  0  0  0  0  0
   16.0011   69.9787   -2.6611 O   0  0  0  0  0  0  0  0  0  0  0  0
   15.6057   69.1472   -5.2279 O   0  0  0  0  0  0  0  0  0  0  0  0
   17.0656   69.2646   -3.2873 C   0  0  1  0  0  0  0  0  0  0  0  0
   16.9362   69.3427   -4.7942 C   0  0  2  0  0  0  0  0  0  0  0  0
   18.3569   70.0340   -3.0386 C   0  0  1  0  0  0  0  0  0  0  0  0
   17.4449   70.7451   -5.0818 C   0  0  2  0  0  0  0  0  0  0  0  0
   15.1658   69.5062   -2.8060 H   0  0  0  0  0  0  0  0  0  0  0  0
   15.3284   68.2407   -5.0226 H   0  0  0  0  0  0  0  0  0  0  0  0
   16.0249   70.9210   -7.5171 O   0  0  0  0  0  0  0  0  0  0  0  0
   19.9140   71.1415   -9.9803 O   0  0  0  0  0  0  0  0  0  0  0  0
   18.0611   70.8498   -6.3743 N   0  0  0  0  0  0  0  0  0  0  0  0
   17.9625   71.0308   -8.7416 N   0  0  0  0  0  0  0  0  0  0  0  0
   17.2574   70.9316   -7.5353 C   0  0  0  0  0  0  0  0  0  0  0  0
   19.4474   70.8709   -6.4814 C   0  0  0  0  0  0  0  0  0  0  0  0
   20.1044   70.9646   -7.6394 C   0  0  0  0  0  0  0  0  0  0  0  0
   19.3392   71.0544   -8.8997 C   0  0  0  0  0  0  0  0  0  0  0  0
   17.4235   71.0887   -9.5637 H   0  0  0  0  0  0  0  0  0  0  0  0
   22.0716   69.4349   -0.1960 O   0  0  0  0  0  0  0  0  0  0  0  0
   23.4829   69.7579    0.5229 P   0  0  2  0  0  0  0  0  0  0  0  0
   24.5560   69.5971   -0.6772 O   0  0  0  0  0  0  0  0  0  0  0  0
   23.7688   68.9081    1.7271 O   0  0  0  0  0  0  0  0  0  0  0  0
   23.4371   71.3438    0.8190 O   0  0  0  0  0  0  0  0  0  0  0  0
   24.2331   72.8250    2.4890 O   0  0  0  0  0  0  0  0  0  0  0  0
   20.3226   74.1311    2.2580 O   0  0  0  0  0  0  0  0  0  0  0  0
   22.4277   75.7606    1.1806 O   0  0  0  0  0  0  0  0  0  0  0  0
   20.9158   71.3054    2.0505 O   0  0  0  0  0  0  0  0  0  0  0  0
   21.5539   73.6086    1.7517 C   0  0  1  0  0  0  0  0  0  0  0  0
   22.6570   74.6337    2.0219 C   0  0  1  0  0  0  0  0  0  0  0  0
   21.8627   72.2883    2.4551 C   0  0  2  0  0  0  0  0  0  0  0  0
   24.0451   74.0381    1.7509 C   0  0  1  0  0  0  0  0  0  0  0  0
   23.2846   71.8090    2.1575 C   0  0  1  0  0  0  0  0  0  0  0  0
   20.1204   74.9692    1.8151 H   0  0  0  0  0  0  0  0  0  0  0  0
   21.5478   76.1269    1.3613 H   0  0  0  0  0  0  0  0  0  0  0  0
   20.0198   71.6206    2.2445 H   0  0  0  0  0  0  0  0  0  0  0  0
   25.3226   75.9659    1.1503 O   0  0  0  0  0  0  0  0  0  0  0  0
   25.1662   74.9895    2.1635 C   0  0  0  0  0  0  0  0  0  0  0  0
   26.0326   76.5787    1.3995 H   0  0  0  0  0  0  0  0  0  0  0  0
 25 28  1  0
 25 24  1  0
 25 26  1  6
 25 27  2  0
  1  4  1  0
  1 24  1  0
  1  2  1  1
  1  3  2  0
  6 11  1  0
  6 12  1  0
 29 36  1  0
 29 37  1  0
  9  7  1  1
  7 13  1  0
 10  8  1  1
  8 14  1  0
 37 28  1  6
  4  5  1  0
 33 30  1  1
 30 38  1  0
 34 31  1  6
 31 39  1  0
 35 32  1  6
 32 40  1  0
 41 42  1  0
 41 43  1  0
 15 19  2  0
 16 22  2  0
 12 17  1  6
 17 19  1  0
 17 20  1  0
 18 19  1  0
 18 22  1  0
 18 23  1  0
  9 10  1  0
  9 11  1  0
 10 12  1  0
 11  5  1  6
 33 34  1  0
 33 35  1  0
 34 36  1  0
 35 37  1  0
 36 42  1  1
 20 21  2  0
 21 22  1  0
M  CHG  2   2  -1  26  -1
M  END
>  <COMPND>  (4) 
    8629 

>  <AUTHOR>  (4) 
    GENERATED BY OPEN BABEL 3.1.1

>  <MASTER>  (4) 
        0    0    0    0    0    0    0    0   58    0   58    0

>  <minimizedAffinity>  (4) 
-7.85882

>  <CNNscore>  (4) 
0.8211629987

>  <CNNaffinity>  (4) 
4.7872924805

>  <CNN_VS>  (4) 
3.9311473370

>  <CNNaffinity_variance>  (4) 
0.1103038341

$$$$
5
     RDKit          3D

 43 45  0  0  0  0  0  0  0  0999 V2000
   21.2717   69.3537   -1.0616 P   0  0  2  0  0  0  0  0  0  0  0  0
   22.4669   68.6637   -1.9059 O   0  0  0  0  0  0  0  0  0  0  0  0
   21.3009   69.0844    0.4143 O   0  0  0  0  0  0  0  0  0  0  0  0
   19.9296   68.8857   -1.8347 O   0  0  0  0  0  0  0  0  0  0  0  0
   19.6622   69.4306   -3.1151 C   0  0  0  0  0  0  0  0  0  0  0  0
   18.3777   71.1858   -4.1364 O   0  0  0  0  0  0  0  0  0  0  0  0
   16.0194   70.0607   -2.6656 O   0  0  0  0  0  0  0  0  0  0  0  0
   15.6708   69.0802   -5.1863 O   0  0  0  0  0  0  0  0  0  0  0  0
   17.1225   69.3775   -3.2587 C   0  0  1  0  0  0  0  0  0  0  0  0
   16.9883   69.3725   -4.7672 C   0  0  2  0  0  0  0  0  0  0  0  0
   18.3682   70.2305   -3.0531 C   0  0  1  0  0  0  0  0  0  0  0  0
   17.4163   70.7852   -5.1264 C   0  0  2  0  0  0  0  0  0  0  0  0
   15.2123   69.5349   -2.7839 H   0  0  0  0  0  0  0  0  0  0  0  0
   15.4456   68.1709   -4.9349 H   0  0  0  0  0  0  0  0  0  0  0  0
   15.9863   70.7777   -7.5622 O   0  0  0  0  0  0  0  0  0  0  0  0
   19.8568   71.0738  -10.0467 O   0  0  0  0  0  0  0  0  0  0  0  0
   18.0250   70.8598   -6.4245 N   0  0  0  0  0  0  0  0  0  0  0  0
   17.9147   70.9253   -8.7973 N   0  0  0  0  0  0  0  0  0  0  0  0
   17.2169   70.8479   -7.5852 C   0  0  0  0  0  0  0  0  0  0  0  0
   19.4085   70.9438   -6.5374 C   0  0  0  0  0  0  0  0  0  0  0  0
   20.0586   71.0157   -7.7008 C   0  0  0  0  0  0  0  0  0  0  0  0
   19.2883   71.0090   -8.9611 C   0  0  0  0  0  0  0  0  0  0  0  0
   17.3724   70.9183   -9.6193 H   0  0  0  0  0  0  0  0  0  0  0  0
   21.3969   70.9144   -1.4633 O   0  0  0  0  0  0  0  0  0  0  0  0
   22.4278   72.0579   -0.9707 P   0  0  2  0  0  0  0  0  0  0  0  0
   22.9610   72.6990   -2.3571 O   0  0  0  0  0  0  0  0  0  0  0  0
   23.5131   71.5579   -0.0619 O   0  0  0  0  0  0  0  0  0  0  0  0
   21.4904   73.2028   -0.3262 O   0  0  0  0  0  0  0  0  0  0  0  0
   21.2232   72.5423    1.9341 O   0  0  0  0  0  0  0  0  0  0  0  0
   19.0470   76.0507    2.0104 O   0  0  0  0  0  0  0  0  0  0  0  0
   21.6129   75.9456    3.2960 O   0  0  0  0  0  0  0  0  0  0  0  0
   18.9164   74.3206   -0.3068 O   0  0  0  0  0  0  0  0  0  0  0  0
   20.1082   75.1844    1.5997 C   0  0  1  0  0  0  0  0  0  0  0  0
   20.9133   74.7911    2.8398 C   0  0  1  0  0  0  0  0  0  0  0  0
   19.5122   73.9471    0.9310 C   0  0  2  0  0  0  0  0  0  0  0  0
   21.8997   73.6587    2.5238 C   0  0  1  0  0  0  0  0  0  0  0  0
   20.5677   72.8631    0.7056 C   0  0  1  0  0  0  0  0  0  0  0  0
   19.4187   76.8386    2.4353 H   0  0  0  0  0  0  0  0  0  0  0  0
   20.9787   76.6532    3.4916 H   0  0  0  0  0  0  0  0  0  0  0  0
   18.2499   75.0071   -0.1506 H   0  0  0  0  0  0  0  0  0  0  0  0
   22.5838   71.7281    3.7541 O   0  0  0  0  0  0  0  0  0  0  0  0
   22.6003   73.1435    3.7791 C   0  0  0  0  0  0  0  0  0  0  0  0
   23.0267   71.3861    4.5469 H   0  0  0  0  0  0  0  0  0  0  0  0
 25 28  1  0
 25 24  1  0
 25 26  1  6
 25 27  2  0
  1  4  1  0
  1 24  1  0
  1  2  1  6
  1  3  2  0
  6 11  1  0
  6 12  1  0
 29 36  1  0
 29 37  1  0
  9  7  1  1
  7 13  1  0
 10  8  1  1
  8 14  1  0
 37 28  1  6
  4  5  1  0
 33 30  1  1
 30 38  1  0
 34 31  1  6
 31 39  1  0
 35 32  1  6
 32 40  1  0
 41 42  1  0
 41 43  1  0
 15 19  2  0
 16 22  2  0
 12 17  1  6
 17 19  1  0
 17 20  1  0
 18 19  1  0
 18 22  1  0
 18 23  1  0
  9 10  1  0
  9 11  1  0
 10 12  1  0
 11  5  1  6
 33 34  1  0
 33 35  1  0
 34 36  1  0
 35 37  1  0
 36 42  1  1
 20 21  2  0
 21 22  1  0
M  CHG  2   2  -1  26  -1
M  END
>  <COMPND>  (5) 
    8629 

>  <AUTHOR>  (5) 
    GENERATED BY OPEN BABEL 3.1.1

>  <MASTER>  (5) 
        0    0    0    0    0    0    0    0   58    0   58    0

>  <minimizedAffinity>  (5) 
-7.34741

>  <CNNscore>  (5) 
0.8098220229

>  <CNNaffinity>  (5) 
4.7849588394

>  <CNN_VS>  (5) 
3.8749649525

>  <CNNaffinity_variance>  (5) 
0.0396675207

$$$$
6
     RDKit          3D

 43 45  0  0  0  0  0  0  0  0999 V2000
   22.2189   72.5094   -4.1485 P   0  0  2  0  0  0  0  0  0  0  0  0
   23.7781   72.9407   -4.1312 O   0  0  0  0  0  0  0  0  0  0  0  0
   21.9334   71.1423   -3.6000 O   0  0  0  0  0  0  0  0  0  0  0  0
   21.7632   72.7611   -5.6805 O   0  0  0  0  0  0  0  0  0  0  0  0
   20.4477   73.2264   -5.9268 C   0  0  0  0  0  0  0  0  0  0  0  0
   19.6727   71.1831   -6.9257 O   0  0  0  0  0  0  0  0  0  0  0  0
   18.4705   72.9046   -9.0662 O   0  0  0  0  0  0  0  0  0  0  0  0
   16.3186   72.3171   -7.4974 O   0  0  0  0  0  0  0  0  0  0  0  0
   18.5935   73.1581   -7.6676 C   0  0  1  0  0  0  0  0  0  0  0  0
   17.5955   72.3236   -6.8922 C   0  0  2  0  0  0  0  0  0  0  0  0
   19.9232   72.5787   -7.2010 C   0  0  1  0  0  0  0  0  0  0  0  0
   18.2542   70.9546   -6.9023 C   0  0  2  0  0  0  0  0  0  0  0  0
   17.6289   73.2659   -9.3873 H   0  0  0  0  0  0  0  0  0  0  0  0
   15.9413   73.2101   -7.4661 H   0  0  0  0  0  0  0  0  0  0  0  0
   15.8046   69.5997   -6.5265 O   0  0  0  0  0  0  0  0  0  0  0  0
   17.1038   68.0157   -2.3980 O   0  0  0  0  0  0  0  0  0  0  0  0
   17.9258   70.1802   -5.7388 N   0  0  0  0  0  0  0  0  0  0  0  0
   16.4535   68.8119   -4.4712 N   0  0  0  0  0  0  0  0  0  0  0  0
   16.6677   69.5403   -5.6484 C   0  0  0  0  0  0  0  0  0  0  0  0
   18.8462   70.0610   -4.7032 C   0  0  0  0  0  0  0  0  0  0  0  0
   18.6261   69.3638   -3.5866 C   0  0  0  0  0  0  0  0  0  0  0  0
   17.3364   68.6647   -3.4132 C   0  0  0  0  0  0  0  0  0  0  0  0
   15.5839   68.3579   -4.3860 H   0  0  0  0  0  0  0  0  0  0  0  0
   21.4987   73.7177   -3.3521 O   0  0  0  0  0  0  0  0  0  0  0  0
   21.8229   74.3841   -1.9155 P   0  0  2  0  0  0  0  0  0  0  0  0
   20.4179   75.0700   -1.4992 O   0  0  0  0  0  0  0  0  0  0  0  0
   22.9928   75.3249   -1.9235 O   0  0  0  0  0  0  0  0  0  0  0  0
   21.9787   73.1314   -0.9099 O   0  0  0  0  0  0  0  0  0  0  0  0
   23.7171   73.5888    0.6346 O   0  0  0  0  0  0  0  0  0  0  0  0
   22.8960   69.6855    1.7025 O   0  0  0  0  0  0  0  0  0  0  0  0
   22.1034   71.8283    3.4426 O   0  0  0  0  0  0  0  0  0  0  0  0
   22.8322   70.4638   -1.0849 O   0  0  0  0  0  0  0  0  0  0  0  0
   22.5839   71.0054    1.2488 C   0  0  1  0  0  0  0  0  0  0  0  0
   22.9910   71.9966    2.3408 C   0  0  1  0  0  0  0  0  0  0  0  0
   23.3504   71.2836   -0.0428 C   0  0  2  0  0  0  0  0  0  0  0  0
   22.9359   73.4413    1.8261 C   0  0  1  0  0  0  0  0  0  0  0  0
   23.2716   72.7588   -0.4398 C   0  0  1  0  0  0  0  0  0  0  0  0
   22.4121   69.5023    2.5221 H   0  0  0  0  0  0  0  0  0  0  0  0
   22.1474   70.9118    3.7578 H   0  0  0  0  0  0  0  0  0  0  0  0
   22.8880   69.5325   -0.8216 H   0  0  0  0  0  0  0  0  0  0  0  0
   24.1080   73.7059    3.8913 O   0  0  0  0  0  0  0  0  0  0  0  0
   23.4880   74.4337    2.8472 C   0  0  0  0  0  0  0  0  0  0  0  0
   24.4643   74.3247    4.5485 H   0  0  0  0  0  0  0  0  0  0  0  0
 25 28  1  0
 25 24  1  0
 25 26  1  1
 25 27  2  0
  1  4  1  0
  1 24  1  0
  1  2  1  6
  1  3  2  0
  6 11  1  0
  6 12  1  0
 29 36  1  0
 29 37  1  0
  9  7  1  6
  7 13  1  0
 10  8  1  6
  8 14  1  0
 37 28  1  1
  4  5  1  0
 33 30  1  1
 30 38  1  0
 34 31  1  1
 31 39  1  0
 35 32  1  6
 32 40  1  0
 41 42  1  0
 41 43  1  0
 15 19  2  0
 16 22  2  0
 12 17  1  1
 17 19  1  0
 17 20  1  0
 18 19  1  0
 18 22  1  0
 18 23  1  0
  9 10  1  0
  9 11  1  0
 10 12  1  0
 11  5  1  1
 33 34  1  0
 33 35  1  0
 34 36  1  0
 35 37  1  0
 36 42  1  1
 20 21  2  0
 21 22  1  0
M  CHG  2   2  -1  26  -1
M  END
>  <COMPND>  (6) 
    8629 

>  <AUTHOR>  (6) 
    GENERATED BY OPEN BABEL 3.1.1

>  <MASTER>  (6) 
        0    0    0    0    0    0    0    0   58    0   58    0

>  <minimizedAffinity>  (6) 
-6.90894

>  <CNNscore>  (6) 
0.6021115780

>  <CNNaffinity>  (6) 
4.3380365372

>  <CNN_VS>  (6) 
2.6119821072

>  <CNNaffinity_variance>  (6) 
0.1316483915

$$$$
7
     RDKit          3D

 43 45  0  0  0  0  0  0  0  0999 V2000
   21.8188   74.8591   -5.4953 P   0  0  2  0  0  0  0  0  0  0  0  0
   20.4959   75.7488   -5.2199 O   0  0  0  0  0  0  0  0  0  0  0  0
   23.0824   75.6451   -5.6878 O   0  0  0  0  0  0  0  0  0  0  0  0
   21.3929   73.9007   -6.7273 O   0  0  0  0  0  0  0  0  0  0  0  0
   20.8542   72.6231   -6.4351 C   0  0  0  0  0  0  0  0  0  0  0  0
   19.4550   70.8672   -7.2912 O   0  0  0  0  0  0  0  0  0  0  0  0
   18.2352   72.9575   -9.0615 O   0  0  0  0  0  0  0  0  0  0  0  0
   16.3895   72.7154   -7.0686 O   0  0  0  0  0  0  0  0  0  0  0  0
   18.7046   73.0739   -7.7193 C   0  0  1  0  0  0  0  0  0  0  0  0
   17.7351   72.4100   -6.7638 C   0  0  2  0  0  0  0  0  0  0  0  0
   19.9421   72.1966   -7.5772 C   0  0  1  0  0  0  0  0  0  0  0  0
   18.0591   70.9385   -6.9580 C   0  0  2  0  0  0  0  0  0  0  0  0
   17.4452   73.5094   -9.1766 H   0  0  0  0  0  0  0  0  0  0  0  0
   16.2333   73.6625   -6.9295 H   0  0  0  0  0  0  0  0  0  0  0  0
   15.6310   69.6203   -6.3705 O   0  0  0  0  0  0  0  0  0  0  0  0
   17.2652   67.9990   -2.3778 O   0  0  0  0  0  0  0  0  0  0  0  0
   17.8226   70.1644   -5.7721 N   0  0  0  0  0  0  0  0  0  0  0  0
   16.4468   68.8140   -4.3830 N   0  0  0  0  0  0  0  0  0  0  0  0
   16.5675   69.5438   -5.5725 C   0  0  0  0  0  0  0  0  0  0  0  0
   18.8291   70.0266   -4.8225 C   0  0  0  0  0  0  0  0  0  0  0  0
   18.6976   69.3282   -3.6927 C   0  0  0  0  0  0  0  0  0  0  0  0
   17.4174   68.6486   -3.4077 C   0  0  0  0  0  0  0  0  0  0  0  0
   15.5810   68.3732   -4.2223 H   0  0  0  0  0  0  0  0  0  0  0  0
   21.8429   73.8445   -4.2371 O   0  0  0  0  0  0  0  0  0  0  0  0
   23.0730   73.2718   -3.3586 P   0  0  2  0  0  0  0  0  0  0  0  0
   23.9340   74.5982   -3.0169 O   0  0  0  0  0  0  0  0  0  0  0  0
   23.8555   72.1821   -4.0324 O   0  0  0  0  0  0  0  0  0  0  0  0
   22.4065   72.8449   -1.9520 O   0  0  0  0  0  0  0  0  0  0  0  0
   22.1612   70.4903   -2.0634 O   0  0  0  0  0  0  0  0  0  0  0  0
   20.5868   71.1405    1.6982 O   0  0  0  0  0  0  0  0  0  0  0  0
   23.1691   69.9114    1.4349 O   0  0  0  0  0  0  0  0  0  0  0  0
   20.0515   73.0215   -0.4360 O   0  0  0  0  0  0  0  0  0  0  0  0
   21.4702   71.3722    0.5976 C   0  0  1  0  0  0  0  0  0  0  0  0
   22.2684   70.0915    0.3455 C   0  0  1  0  0  0  0  0  0  0  0  0
   20.6465   71.7435   -0.6340 C   0  0  2  0  0  0  0  0  0  0  0  0
   23.0403   70.1713   -0.9784 C   0  0  1  0  0  0  0  0  0  0  0  0
   21.4993   71.7467   -1.9040 C   0  0  1  0  0  0  0  0  0  0  0  0
   21.1036   70.9048    2.4836 H   0  0  0  0  0  0  0  0  0  0  0  0
   22.6691   69.8631    2.2648 H   0  0  0  0  0  0  0  0  0  0  0  0
   19.5141   73.0063    0.3707 H   0  0  0  0  0  0  0  0  0  0  0  0
   23.3121   67.8736   -0.3820 O   0  0  0  0  0  0  0  0  0  0  0  0
   23.7167   68.8472   -1.3269 C   0  0  0  0  0  0  0  0  0  0  0  0
   23.7346   67.0255   -0.5915 H   0  0  0  0  0  0  0  0  0  0  0  0
 25 28  1  0
 25 24  1  0
 25 26  1  1
 25 27  2  0
  1  4  1  0
  1 24  1  0
  1  2  1  1
  1  3  2  0
  6 11  1  0
  6 12  1  0
 29 36  1  0
 29 37  1  0
  9  7  1  6
  7 13  1  0
 10  8  1  6
  8 14  1  0
 37 28  1  1
  4  5  1  0
 33 30  1  1
 30 38  1  0
 34 31  1  1
 31 39  1  0
 35 32  1  1
 32 40  1  0
 41 42  1  0
 41 43  1  0
 15 19  2  0
 16 22  2  0
 12 17  1  1
 17 19  1  0
 17 20  1  0
 18 19  1  0
 18 22  1  0
 18 23  1  0
  9 10  1  0
  9 11  1  0
 10 12  1  0
 11  5  1  1
 33 34  1  0
 33 35  1  0
 34 36  1  0
 35 37  1  0
 36 42  1  6
 20 21  2  0
 21 22  1  0
M  CHG  2   2  -1  26  -1
M  END
>  <COMPND>  (7) 
    8629 

>  <AUTHOR>  (7) 
    GENERATED BY OPEN BABEL 3.1.1

>  <MASTER>  (7) 
        0    0    0    0    0    0    0    0   58    0   58    0

>  <minimizedAffinity>  (7) 
-7.50777

>  <CNNscore>  (7) 
0.5293833613

>  <CNNaffinity>  (7) 
4.1570043564

>  <CNN_VS>  (7) 
2.2006490231

>  <CNNaffinity_variance>  (7) 
0.6623626351

$$$$
8
     RDKit          3D

 43 45  0  0  0  0  0  0  0  0999 V2000
   21.9209   70.6548   -2.5743 P   0  0  2  0  0  0  0  0  0  0  0  0
   20.8587   71.6810   -1.9139 O   0  0  0  0  0  0  0  0  0  0  0  0
   22.7967   71.2474   -3.6389 O   0  0  0  0  0  0  0  0  0  0  0  0
   21.0125   69.3965   -3.0318 O   0  0  0  0  0  0  0  0  0  0  0  0
   19.8696   69.6431   -3.8323 C   0  0  0  0  0  0  0  0  0  0  0  0
   17.7331   70.5403   -3.1966 O   0  0  0  0  0  0  0  0  0  0  0  0
   17.0463   67.7649   -2.2929 O   0  0  0  0  0  0  0  0  0  0  0  0
   15.7892   67.9321   -4.7071 O   0  0  0  0  0  0  0  0  0  0  0  0
   17.8301   68.1821   -3.4096 C   0  0  1  0  0  0  0  0  0  0  0  0
   16.9373   68.7303   -4.5033 C   0  0  2  0  0  0  0  0  0  0  0  0
   18.6189   69.4175   -2.9939 C   0  0  1  0  0  0  0  0  0  0  0  0
   16.6011   70.1133   -3.9719 C   0  0  2  0  0  0  0  0  0  0  0  0
   16.5337   66.9769   -2.5342 H   0  0  0  0  0  0  0  0  0  0  0  0
   16.0554   67.0629   -5.0453 H   0  0  0  0  0  0  0  0  0  0  0  0
   15.2172   72.5536   -3.6438 O   0  0  0  0  0  0  0  0  0  0  0  0
   15.7778   73.6786   -8.0779 O   0  0  0  0  0  0  0  0  0  0  0  0
   16.3712   71.0631   -5.0237 N   0  0  0  0  0  0  0  0  0  0  0  0
   15.4976   73.1119   -5.8519 N   0  0  0  0  0  0  0  0  0  0  0  0
   15.6639   72.2579   -4.7541 C   0  0  0  0  0  0  0  0  0  0  0  0
   16.8451   70.8059   -6.3055 C   0  0  0  0  0  0  0  0  0  0  0  0
   16.6770   71.6299   -7.3418 C   0  0  0  0  0  0  0  0  0  0  0  0
   15.9488   72.9000   -7.1450 C   0  0  0  0  0  0  0  0  0  0  0  0
   15.0076   73.9502   -5.6879 H   0  0  0  0  0  0  0  0  0  0  0  0
   22.7176   70.0802   -1.2906 O   0  0  0  0  0  0  0  0  0  0  0  0
   22.1825   69.5333    0.1333 P   0  0  2  0  0  0  0  0  0  0  0  0
   23.4790   68.7939    0.7578 O   0  0  0  0  0  0  0  0  0  0  0  0
   20.9604   68.6663    0.0396 O   0  0  0  0  0  0  0  0  0  0  0  0
   21.9949   70.8584    1.0356 O   0  0  0  0  0  0  0  0  0  0  0  0
   23.3499   72.7650    0.6544 O   0  0  0  0  0  0  0  0  0  0  0  0
   22.2221   73.5257    4.5532 O   0  0  0  0  0  0  0  0  0  0  0  0
   21.1055   75.0944    2.4223 O   0  0  0  0  0  0  0  0  0  0  0  0
   22.8061   70.8151    3.7217 O   0  0  0  0  0  0  0  0  0  0  0  0
   22.0499   73.0456    3.2171 C   0  0  1  0  0  0  0  0  0  0  0  0
   22.2223   74.2249    2.2578 C   0  0  1  0  0  0  0  0  0  0  0  0
   23.0941   71.9667    2.9359 C   0  0  2  0  0  0  0  0  0  0  0  0
   22.3170   73.7462    0.8028 C   0  0  1  0  0  0  0  0  0  0  0  0
   23.1398   71.5980    1.4519 C   0  0  1  0  0  0  0  0  0  0  0  0
   21.5619   74.2108    4.7383 H   0  0  0  0  0  0  0  0  0  0  0  0
   21.0569   75.3890    3.3454 H   0  0  0  0  0  0  0  0  0  0  0  0
   22.7802   71.0616    4.6589 H   0  0  0  0  0  0  0  0  0  0  0  0
   21.4425   75.5513   -0.4956 O   0  0  0  0  0  0  0  0  0  0  0  0
   22.6466   74.8891   -0.1550 C   0  0  0  0  0  0  0  0  0  0  0  0
   21.6369   76.2814   -1.1046 H   0  0  0  0  0  0  0  0  0  0  0  0
 25 28  1  0
 25 24  1  0
 25 26  1  1
 25 27  2  0
  1  4  1  0
  1 24  1  0
  1  2  1  1
  1  3  2  0
  6 11  1  0
  6 12  1  0
 29 36  1  0
 29 37  1  0
  9  7  1  1
  7 13  1  0
 10  8  1  1
  8 14  1  0
 37 28  1  6
  4  5  1  0
 33 30  1  1
 30 38  1  0
 34 31  1  6
 31 39  1  0
 35 32  1  1
 32 40  1  0
 41 42  1  0
 41 43  1  0
 15 19  2  0
 16 22  2  0
 12 17  1  6
 17 19  1  0
 17 20  1  0
 18 19  1  0
 18 22  1  0
 18 23  1  0
  9 10  1  0
  9 11  1  0
 10 12  1  0
 11  5  1  6
 33 34  1  0
 33 35  1  0
 34 36  1  0
 35 37  1  0
 36 42  1  6
 20 21  2  0
 21 22  1  0
M  CHG  2   2  -1  26  -1
M  END
>  <COMPND>  (8) 
    8629 

>  <AUTHOR>  (8) 
    GENERATED BY OPEN BABEL 3.1.1

>  <MASTER>  (8) 
        0    0    0    0    0    0    0    0   58    0   58    0

>  <minimizedAffinity>  (8) 
-7.96424

>  <CNNscore>  (8) 
0.5149877071

>  <CNNaffinity>  (8) 
4.3560934067

>  <CNN_VS>  (8) 
2.2433345318

>  <CNNaffinity_variance>  (8) 
0.2444890440

$$$$
9
     RDKit          3D

 43 45  0  0  0  0  0  0  0  0999 V2000
   22.1843   73.4790   -5.8608 P   0  0  2  0  0  0  0  0  0  0  0  0
   22.7248   72.9082   -7.2748 O   0  0  0  0  0  0  0  0  0  0  0  0
   22.3243   74.9620   -5.6809 O   0  0  0  0  0  0  0  0  0  0  0  0
   22.9365   72.5634   -4.7592 O   0  0  0  0  0  0  0  0  0  0  0  0
   23.2545   73.1397   -3.5044 C   0  0  0  0  0  0  0  0  0  0  0  0
   21.6716   71.6215   -2.5229 O   0  0  0  0  0  0  0  0  0  0  0  0
   21.1111   73.7899   -0.5292 O   0  0  0  0  0  0  0  0  0  0  0  0
   22.7558   72.1160    0.8599 O   0  0  0  0  0  0  0  0  0  0  0  0
   22.3459   73.4282   -1.1455 C   0  0  1  0  0  0  0  0  0  0  0  0
   22.8745   72.1409   -0.5480 C   0  0  2  0  0  0  0  0  0  0  0  0
   22.0500   73.0143   -2.5816 C   0  0  1  0  0  0  0  0  0  0  0  0
   22.0033   71.0975   -1.2266 C   0  0  2  0  0  0  0  0  0  0  0  0
   21.2747   74.0584    0.3890 H   0  0  0  0  0  0  0  0  0  0  0  0
   23.3287   72.7974    1.2449 H   0  0  0  0  0  0  0  0  0  0  0  0
   21.4374   68.7723    0.2737 O   0  0  0  0  0  0  0  0  0  0  0  0
   24.6635   66.3369   -1.9403 O   0  0  0  0  0  0  0  0  0  0  0  0
   22.6798   69.8417   -1.3905 N   0  0  0  0  0  0  0  0  0  0  0  0
   23.0441   67.5615   -0.8300 N   0  0  0  0  0  0  0  0  0  0  0  0
   22.3203   68.7356   -0.5857 C   0  0  0  0  0  0  0  0  0  0  0  0
   23.6872   69.7162   -2.3409 C   0  0  0  0  0  0  0  0  0  0  0  0
   24.3687   68.5899   -2.5606 C   0  0  0  0  0  0  0  0  0  0  0  0
   24.0548   67.3874   -1.7622 C   0  0  0  0  0  0  0  0  0  0  0  0
   22.8112   66.7779   -0.2810 H   0  0  0  0  0  0  0  0  0  0  0  0
   20.6628   72.9355   -5.8072 O   0  0  0  0  0  0  0  0  0  0  0  0
   19.2883   73.6686   -5.3755 P   0  0  2  0  0  0  0  0  0  0  0  0
   18.8841   74.5078   -6.6983 O   0  0  0  0  0  0  0  0  0  0  0  0
   19.3976   74.4952   -4.1271 O   0  0  0  0  0  0  0  0  0  0  0  0
   18.1987   72.4805   -5.2977 O   0  0  0  0  0  0  0  0  0  0  0  0
   19.2375   70.3505   -5.3235 O   0  0  0  0  0  0  0  0  0  0  0  0
   15.3032   69.1709   -5.7488 O   0  0  0  0  0  0  0  0  0  0  0  0
   16.6554   68.7252   -3.2546 O   0  0  0  0  0  0  0  0  0  0  0  0
   16.2493   71.5546   -7.0915 O   0  0  0  0  0  0  0  0  0  0  0  0
   16.3738   69.9875   -5.2667 C   0  0  1  0  0  0  0  0  0  0  0  0
   17.3231   69.1037   -4.4552 C   0  0  1  0  0  0  0  0  0  0  0  0
   17.1028   70.6086   -6.4567 C   0  0  2  0  0  0  0  0  0  0  0  0
   18.6276   69.8439   -4.1305 C   0  0  1  0  0  0  0  0  0  0  0  0
   18.4114   71.2771   -6.0311 C   0  0  1  0  0  0  0  0  0  0  0  0
   14.8359   68.7739   -4.9982 H   0  0  0  0  0  0  0  0  0  0  0  0
   15.8332   68.2592   -3.4737 H   0  0  0  0  0  0  0  0  0  0  0  0
   15.4246   71.1191   -7.3564 H   0  0  0  0  0  0  0  0  0  0  0  0
   19.3741   68.8890   -2.0714 O   0  0  0  0  0  0  0  0  0  0  0  0
   19.6513   68.9311   -3.4591 C   0  0  0  0  0  0  0  0  0  0  0  0
   20.0177   68.3114   -1.6311 H   0  0  0  0  0  0  0  0  0  0  0  0
 25 28  1  0
 25 24  1  0
 25 26  1  6
 25 27  2  0
  1  4  1  0
  1 24  1  0
  1  2  1  6
  1  3  2  0
  6 11  1  0
  6 12  1  0
 29 36  1  0
 29 37  1  0
  9  7  1  1
  7 13  1  0
 10  8  1  1
  8 14  1  0
 37 28  1  1
  4  5  1  0
 33 30  1  6
 30 38  1  0
 34 31  1  1
 31 39  1  0
 35 32  1  1
 32 40  1  0
 41 42  1  0
 41 43  1  0
 15 19  2  0
 16 22  2  0
 12 17  1  6
 17 19  1  0
 17 20  1  0
 18 19  1  0
 18 22  1  0
 18 23  1  0
  9 10  1  0
  9 11  1  0
 10 12  1  0
 11  5  1  6
 33 34  1  0
 33 35  1  0
 34 36  1  0
 35 37  1  0
 36 42  1  6
 20 21  2  0
 21 22  1  0
M  CHG  2   2  -1  26  -1
M  END
>  <COMPND>  (9) 
    8629 

>  <AUTHOR>  (9) 
    GENERATED BY OPEN BABEL 3.1.1

>  <MASTER>  (9) 
        0    0    0    0    0    0    0    0   58    0   58    0

>  <minimizedAffinity>  (9) 
-8.29116

>  <CNNscore>  (9) 
0.3984152675

>  <CNNaffinity>  (9) 
4.0828733444

>  <CNN_VS>  (9) 
1.6266790628

>  <CNNaffinity_variance>  (9) 
0.9846206903

$$$$
10
     RDKit          3D

 43 45  0  0  0  0  0  0  0  0999 V2000
   21.9760   72.2858   -4.0690 P   0  0  2  0  0  0  0  0  0  0  0  0
   21.1939   73.2854   -3.0658 O   0  0  0  0  0  0  0  0  0  0  0  0
   23.2574   72.8272   -4.6315 O   0  0  0  0  0  0  0  0  0  0  0  0
   20.8524   71.8687   -5.1559 O   0  0  0  0  0  0  0  0  0  0  0  0
   20.7924   72.5867   -6.3760 C   0  0  0  0  0  0  0  0  0  0  0  0
   19.2733   70.7595   -6.7326 O   0  0  0  0  0  0  0  0  0  0  0  0
   18.9742   71.7991   -9.5291 O   0  0  0  0  0  0  0  0  0  0  0  0
   16.7186   72.7237   -8.3069 O   0  0  0  0  0  0  0  0  0  0  0  0
   19.1416   72.5223   -8.3108 C   0  0  1  0  0  0  0  0  0  0  0  0
   17.8598   72.4980   -7.5046 C   0  0  2  0  0  0  0  0  0  0  0  0
   20.0917   71.7300   -7.4215 C   0  0  1  0  0  0  0  0  0  0  0  0
   17.8886   71.1007   -6.9089 C   0  0  2  0  0  0  0  0  0  0  0  0
   18.3715   72.2858  -10.1137 H   0  0  0  0  0  0  0  0  0  0  0  0
   16.7464   73.6256   -8.6625 H   0  0  0  0  0  0  0  0  0  0  0  0
   16.3282   68.9145   -6.0352 O   0  0  0  0  0  0  0  0  0  0  0  0
   15.3934   70.9547   -2.0097 O   0  0  0  0  0  0  0  0  0  0  0  0
   17.2263   71.0339   -5.6368 N   0  0  0  0  0  0  0  0  0  0  0  0
   15.8642   69.9321   -4.0315 N   0  0  0  0  0  0  0  0  0  0  0  0
   16.4663   69.8909   -5.2955 C   0  0  0  0  0  0  0  0  0  0  0  0
   17.3341   72.0936   -4.7428 C   0  0  0  0  0  0  0  0  0  0  0  0
   16.7527   72.1179   -3.5417 C   0  0  0  0  0  0  0  0  0  0  0  0
   15.9407   70.9626   -3.1080 C   0  0  0  0  0  0  0  0  0  0  0  0
   15.3294   69.1469   -3.7723 H   0  0  0  0  0  0  0  0  0  0  0  0
   22.1436   70.9423   -3.1858 O   0  0  0  0  0  0  0  0  0  0  0  0
   21.1151   70.1910   -2.1906 P   0  0  2  0  0  0  0  0  0  0  0  0
   21.4634   68.6263   -2.4092 O   0  0  0  0  0  0  0  0  0  0  0  0
   19.6730   70.5419   -2.4167 O   0  0  0  0  0  0  0  0  0  0  0  0
   21.6609   70.5270   -0.7093 O   0  0  0  0  0  0  0  0  0  0  0  0
   23.2831   72.1113   -0.0199 O   0  0  0  0  0  0  0  0  0  0  0  0
   24.1088   69.1020    2.6843 O   0  0  0  0  0  0  0  0  0  0  0  0
   22.8008   71.4958    3.5825 O   0  0  0  0  0  0  0  0  0  0  0  0
   23.4144   68.4388   -0.0465 O   0  0  0  0  0  0  0  0  0  0  0  0
   23.2753   69.9137    1.8526 C   0  0  1  0  0  0  0  0  0  0  0  0
   23.4181   71.3683    2.3046 C   0  0  1  0  0  0  0  0  0  0  0  0
   23.7168   69.7567    0.3987 C   0  0  2  0  0  0  0  0  0  0  0  0
   22.7672   72.3274    1.2988 C   0  0  1  0  0  0  0  0  0  0  0  0
   23.0474   70.7897   -0.5095 C   0  0  1  0  0  0  0  0  0  0  0  0
   23.8335   69.1967    3.6088 H   0  0  0  0  0  0  0  0  0  0  0  0
   23.2207   70.8846    4.2081 H   0  0  0  0  0  0  0  0  0  0  0  0
   23.8441   67.7942    0.5363 H   0  0  0  0  0  0  0  0  0  0  0  0
   24.2846   73.8738    2.3062 O   0  0  0  0  0  0  0  0  0  0  0  0
   23.0340   73.7899    1.6480 C   0  0  0  0  0  0  0  0  0  0  0  0
   24.4679   74.7991    2.5342 H   0  0  0  0  0  0  0  0  0  0  0  0
 25 28  1  0
 25 24  1  0
 25 26  1  6
 25 27  2  0
  1  4  1  0
  1 24  1  0
  1  2  1  1
  1  3  2  0
  6 11  1  0
  6 12  1  0
 29 36  1  0
 29 37  1  0
  9  7  1  6
  7 13  1  0
 10  8  1  6
  8 14  1  0
 37 28  1  1
  4  5  1  0
 33 30  1  1
 30 38  1  0
 34 31  1  1
 31 39  1  0
 35 32  1  6
 32 40  1  0
 41 42  1  0
 41 43  1  0
 15 19  2  0
 16 22  2  0
 12 17  1  1
 17 19  1  0
 17 20  1  0
 18 19  1  0
 18 22  1  0
 18 23  1  0
  9 10  1  0
  9 11  1  0
 10 12  1  0
 11  5  1  1
 33 34  1  0
 33 35  1  0
 34 36  1  0
 35 37  1  0
 36 42  1  1
 20 21  2  0
 21 22  1  0
M  CHG  2   2  -1  26  -1
M  END
>  <COMPND>  (10) 
    8629 

>  <AUTHOR>  (10) 
    GENERATED BY OPEN BABEL 3.1.1

>  <MASTER>  (10) 
        0    0    0    0    0    0    0    0   58    0   58    0

>  <minimizedAffinity>  (10) 
-7.99866

>  <CNNscore>  (10) 
0.3811670542

>  <CNNaffinity>  (10) 
4.1257505417

>  <CNN_VS>  (10) 
1.5726001263

>  <CNNaffinity_variance>  (10) 
0.2007969618

$$$$
11
     RDKit          3D

 43 45  0  0  0  0  0  0  0  0999 V2000
   22.7480   72.7514   -4.0717 P   0  0  2  0  0  0  0  0  0  0  0  0
   24.2455   73.3314   -4.2681 O   0  0  0  0  0  0  0  0  0  0  0  0
   22.6730   71.2907   -3.7366 O   0  0  0  0  0  0  0  0  0  0  0  0
   21.9765   73.2035   -5.4201 O   0  0  0  0  0  0  0  0  0  0  0  0
   20.5640   73.3111   -5.3870 C   0  0  0  0  0  0  0  0  0  0  0  0
   19.7221   71.4538   -6.6580 O   0  0  0  0  0  0  0  0  0  0  0  0
   18.5246   73.4965   -8.4976 O   0  0  0  0  0  0  0  0  0  0  0  0
   16.3870   72.7312   -6.9870 O   0  0  0  0  0  0  0  0  0  0  0  0
   18.6783   73.5390   -7.0799 C   0  0  1  0  0  0  0  0  0  0  0  0
   17.6741   72.6213   -6.4143 C   0  0  2  0  0  0  0  0  0  0  0  0
   20.0015   72.8690   -6.7311 C   0  0  1  0  0  0  0  0  0  0  0  0
   18.2991   71.2548   -6.6386 C   0  0  2  0  0  0  0  0  0  0  0  0
   17.6865   73.9190   -8.7445 H   0  0  0  0  0  0  0  0  0  0  0  0
   16.0321   73.6178   -6.8174 H   0  0  0  0  0  0  0  0  0  0  0  0
   15.9161   69.7419   -6.5370 O   0  0  0  0  0  0  0  0  0  0  0  0
   17.1520   67.7203   -2.5839 O   0  0  0  0  0  0  0  0  0  0  0  0
   17.9724   70.3251   -5.5944 N   0  0  0  0  0  0  0  0  0  0  0  0
   16.5335   68.7364   -4.5689 N   0  0  0  0  0  0  0  0  0  0  0  0
   16.7492   69.6164   -5.6371 C   0  0  0  0  0  0  0  0  0  0  0  0
   18.8603   70.1236   -4.5433 C   0  0  0  0  0  0  0  0  0  0  0  0
   18.6391   69.2817   -3.5315 C   0  0  0  0  0  0  0  0  0  0  0  0
   17.3847   68.5023   -3.5005 C   0  0  0  0  0  0  0  0  0  0  0  0
   15.6877   68.2320   -4.5772 H   0  0  0  0  0  0  0  0  0  0  0  0
   22.1227   73.7321   -2.9491 O   0  0  0  0  0  0  0  0  0  0  0  0
   22.7526   74.3157   -1.5795 P   0  0  2  0  0  0  0  0  0  0  0  0
   21.5334   75.1686   -0.9443 O   0  0  0  0  0  0  0  0  0  0  0  0
   24.0213   75.0957   -1.7691 O   0  0  0  0  0  0  0  0  0  0  0  0
   22.8960   73.0294   -0.6152 O   0  0  0  0  0  0  0  0  0  0  0  0
   21.3334   71.2478   -0.6493 O   0  0  0  0  0  0  0  0  0  0  0  0
   22.7755   70.7873    3.1925 O   0  0  0  0  0  0  0  0  0  0  0  0
   23.5140   68.8930    1.1642 O   0  0  0  0  0  0  0  0  0  0  0  0
   22.3711   73.4416    2.1105 O   0  0  0  0  0  0  0  0  0  0  0  0
   22.8555   71.1028    1.7999 C   0  0  1  0  0  0  0  0  0  0  0  0
   22.4743   69.8538    1.0026 C   0  0  1  0  0  0  0  0  0  0  0  0
   21.8958   72.2507    1.4922 C   0  0  2  0  0  0  0  0  0  0  0  0
   22.2777   70.1837   -0.4832 C   0  0  1  0  0  0  0  0  0  0  0  0
   21.7342   72.4635   -0.0141 C   0  0  1  0  0  0  0  0  0  0  0  0
   23.3828   70.0595    3.3947 H   0  0  0  0  0  0  0  0  0  0  0  0
   23.6283   68.6939    2.1068 H   0  0  0  0  0  0  0  0  0  0  0  0
   22.4688   73.2941    3.0637 H   0  0  0  0  0  0  0  0  0  0  0  0
   22.6803   68.6609   -2.2799 O   0  0  0  0  0  0  0  0  0  0  0  0
   21.7446   68.9876   -1.2689 C   0  0  0  0  0  0  0  0  0  0  0  0
   22.3543   67.9010   -2.7879 H   0  0  0  0  0  0  0  0  0  0  0  0
 25 28  1  0
 25 24  1  0
 25 26  1  1
 25 27  2  0
  1  4  1  0
  1 24  1  0
  1  2  1  6
  1  3  2  0
  6 11  1  0
  6 12  1  0
 29 36  1  0
 29 37  1  0
  9  7  1  6
  7 13  1  0
 10  8  1  6
  8 14  1  0
 37 28  1  6
  4  5  1  0
 33 30  1  1
 30 38  1  0
 34 31  1  6
 31 39  1  0
 35 32  1  1
 32 40  1  0
 41 42  1  0
 41 43  1  0
 15 19  2  0
 16 22  2  0
 12 17  1  1
 17 19  1  0
 17 20  1  0
 18 19  1  0
 18 22  1  0
 18 23  1  0
  9 10  1  0
  9 11  1  0
 10 12  1  0
 11  5  1  1
 33 34  1  0
 33 35  1  0
 34 36  1  0
 35 37  1  0
 36 42  1  6
 20 21  2  0
 21 22  1  0
M  CHG  2   2  -1  26  -1
M  END
>  <COMPND>  (11) 
    8629 

>  <AUTHOR>  (11) 
    GENERATED BY OPEN BABEL 3.1.1

>  <MASTER>  (11) 
        0    0    0    0    0    0    0    0   58    0   58    0

>  <minimizedAffinity>  (11) 
-7.54370

>  <CNNscore>  (11) 
0.3811185360

>  <CNNaffinity>  (11) 
4.0504722595

>  <CNN_VS>  (11) 
1.5437101126

>  <CNNaffinity_variance>  (11) 
0.4954783320

$$$$
12
     RDKit          3D

 43 45  0  0  0  0  0  0  0  0999 V2000
   22.4109   72.6671   -3.4182 P   0  0  2  0  0  0  0  0  0  0  0  0
   23.7337   72.7196   -4.3482 O   0  0  0  0  0  0  0  0  0  0  0  0
   21.8247   74.0048   -3.0740 O   0  0  0  0  0  0  0  0  0  0  0  0
   22.8558   71.7505   -2.1614 O   0  0  0  0  0  0  0  0  0  0  0  0
   22.7501   72.2941   -0.8571 C   0  0  0  0  0  0  0  0  0  0  0  0
   21.9984   70.0213   -0.6493 O   0  0  0  0  0  0  0  0  0  0  0  0
   21.8537   70.5360    2.3011 O   0  0  0  0  0  0  0  0  0  0  0  0
   24.1979   69.1653    2.0511 O   0  0  0  0  0  0  0  0  0  0  0  0
   22.7953   71.0217    1.3456 C   0  0  1  0  0  0  0  0  0  0  0  0
   23.7515   69.9188    0.9421 C   0  0  2  0  0  0  0  0  0  0  0  0
   22.0487   71.2873    0.0443 C   0  0  1  0  0  0  0  0  0  0  0  0
   22.9029   69.1012   -0.0168 C   0  0  2  0  0  0  0  0  0  0  0  0
   22.3072   70.3595    3.1408 H   0  0  0  0  0  0  0  0  0  0  0  0
   24.7330   69.7292    2.6310 H   0  0  0  0  0  0  0  0  0  0  0  0
   23.0684   66.3020   -0.3563 O   0  0  0  0  0  0  0  0  0  0  0  0
   25.9538   66.7216   -3.9256 O   0  0  0  0  0  0  0  0  0  0  0  0
   23.6896   68.4518   -1.0270 N   0  0  0  0  0  0  0  0  0  0  0  0
   24.5048   66.5132   -2.1334 N   0  0  0  0  0  0  0  0  0  0  0  0
   23.7046   67.0400   -1.1115 C   0  0  0  0  0  0  0  0  0  0  0  0
   24.4350   69.2130   -1.9207 C   0  0  0  0  0  0  0  0  0  0  0  0
   25.1940   68.6953   -2.8888 C   0  0  0  0  0  0  0  0  0  0  0  0
   25.2649   67.2282   -3.0454 C   0  0  0  0  0  0  0  0  0  0  0  0
   24.5311   65.5319   -2.2111 H   0  0  0  0  0  0  0  0  0  0  0  0
   21.4225   71.6926   -4.2468 O   0  0  0  0  0  0  0  0  0  0  0  0
   20.2438   70.7045   -3.7496 P   0  0  2  0  0  0  0  0  0  0  0  0
   19.5110   71.5571   -2.5862 O   0  0  0  0  0  0  0  0  0  0  0  0
   20.7196   69.3480   -3.3169 O   0  0  0  0  0  0  0  0  0  0  0  0
   19.1860   70.6849   -4.9684 O   0  0  0  0  0  0  0  0  0  0  0  0
   19.3733   72.6853   -6.2254 O   0  0  0  0  0  0  0  0  0  0  0  0
   16.0513   71.0604   -8.0625 O   0  0  0  0  0  0  0  0  0  0  0  0
   18.5645   71.0967   -9.4520 O   0  0  0  0  0  0  0  0  0  0  0  0
   16.3915   70.7977   -5.1998 O   0  0  0  0  0  0  0  0  0  0  0  0
   17.3230   71.0325   -7.4086 C   0  0  1  0  0  0  0  0  0  0  0  0
   18.3157   71.8305   -8.2562 C   0  0  1  0  0  0  0  0  0  0  0  0
   17.1834   71.6512   -6.0190 C   0  0  2  0  0  0  0  0  0  0  0  0
   19.6260   72.0714   -7.4946 C   0  0  1  0  0  0  0  0  0  0  0  0
   18.5468   71.8941   -5.3693 C   0  0  1  0  0  0  0  0  0  0  0  0
   16.1329   70.6685   -8.9452 H   0  0  0  0  0  0  0  0  0  0  0  0
   17.7290   70.9509   -9.9231 H   0  0  0  0  0  0  0  0  0  0  0  0
   15.5310   70.6520   -5.6219 H   0  0  0  0  0  0  0  0  0  0  0  0
   21.3338   72.2181   -9.1593 O   0  0  0  0  0  0  0  0  0  0  0  0
   20.5694   72.9982   -8.2584 C   0  0  0  0  0  0  0  0  0  0  0  0
   21.9385   72.7948   -9.6526 H   0  0  0  0  0  0  0  0  0  0  0  0
 25 28  1  0
 25 24  1  0
 25 26  1  1
 25 27  2  0
  1  4  1  0
  1 24  1  0
  1  2  1  6
  1  3  2  0
  6 11  1  0
  6 12  1  0
 29 36  1  0
 29 37  1  0
  9  7  1  1
  7 13  1  0
 10  8  1  1
  8 14  1  0
 37 28  1  6
  4  5  1  0
 33 30  1  6
 30 38  1  0
 34 31  1  6
 31 39  1  0
 35 32  1  1
 32 40  1  0
 41 42  1  0
 41 43  1  0
 15 19  2  0
 16 22  2  0
 12 17  1  6
 17 19  1  0
 17 20  1  0
 18 19  1  0
 18 22  1  0
 18 23  1  0
  9 10  1  0
  9 11  1  0
 10 12  1  0
 11  5  1  6
 33 34  1  0
 33 35  1  0
 34 36  1  0
 35 37  1  0
 36 42  1  6
 20 21  2  0
 21 22  1  0
M  CHG  2   2  -1  26  -1
M  END
>  <COMPND>  (12) 
    8629 

>  <AUTHOR>  (12) 
    GENERATED BY OPEN BABEL 3.1.1

>  <MASTER>  (12) 
        0    0    0    0    0    0    0    0   58    0   58    0

>  <minimizedAffinity>  (12) 
-8.69718

>  <CNNscore>  (12) 
0.3551359475

>  <CNNaffinity>  (12) 
4.2016220093

>  <CNN_VS>  (12) 
1.4921469688

>  <CNNaffinity_variance>  (12) 
0.4334160686

$$$$
13
     RDKit          3D

 43 45  0  0  0  0  0  0  0  0999 V2000
   20.5581   72.9713   -3.0301 P   0  0  2  0  0  0  0  0  0  0  0  0
   20.9734   73.6849   -1.6388 O   0  0  0  0  0  0  0  0  0  0  0  0
   19.0830   72.7823   -3.2298 O   0  0  0  0  0  0  0  0  0  0  0  0
   21.4493   71.6211   -3.0554 O   0  0  0  0  0  0  0  0  0  0  0  0
   22.8057   71.6987   -2.6530 C   0  0  0  0  0  0  0  0  0  0  0  0
   23.8932   70.4177   -0.9354 O   0  0  0  0  0  0  0  0  0  0  0  0
   22.6923   67.9994   -2.2394 O   0  0  0  0  0  0  0  0  0  0  0  0
   21.0306   68.4175   -0.1180 O   0  0  0  0  0  0  0  0  0  0  0  0
   22.1446   69.3079   -2.0871 C   0  0  1  0  0  0  0  0  0  0  0  0
   21.7125   69.5334   -0.6533 C   0  0  2  0  0  0  0  0  0  0  0  0
   23.2800   70.3124   -2.2389 C   0  0  1  0  0  0  0  0  0  0  0  0
   23.0397   69.7945    0.0384 C   0  0  2  0  0  0  0  0  0  0  0  0
   21.9857   67.3405   -2.1468 H   0  0  0  0  0  0  0  0  0  0  0  0
   20.1930   68.2929   -0.5909 H   0  0  0  0  0  0  0  0  0  0  0  0
   24.0314   69.2278    2.6217 O   0  0  0  0  0  0  0  0  0  0  0  0
   22.4651   73.2246    4.2991 O   0  0  0  0  0  0  0  0  0  0  0  0
   22.9055   70.6695    1.1688 N   0  0  0  0  0  0  0  0  0  0  0  0
   23.2509   71.2184    3.4548 N   0  0  0  0  0  0  0  0  0  0  0  0
   23.4385   70.2901    2.4228 C   0  0  0  0  0  0  0  0  0  0  0  0
   22.2516   71.8887    1.0276 C   0  0  0  0  0  0  0  0  0  0  0  0
   22.0799   72.7621    2.0220 C   0  0  0  0  0  0  0  0  0  0  0  0
   22.6069   72.4423    3.3644 C   0  0  0  0  0  0  0  0  0  0  0  0
   23.6135   70.9754    4.3375 H   0  0  0  0  0  0  0  0  0  0  0  0
   21.2740   73.9001   -4.1428 O   0  0  0  0  0  0  0  0  0  0  0  0
   21.3486   73.7628   -5.7517 P   0  0  2  0  0  0  0  0  0  0  0  0
   22.6101   72.7764   -5.9818 O   0  0  0  0  0  0  0  0  0  0  0  0
   21.4468   75.0734   -6.4772 O   0  0  0  0  0  0  0  0  0  0  0  0
   20.0597   72.8749   -6.1460 O   0  0  0  0  0  0  0  0  0  0  0  0
   19.2597   70.6853   -5.7192 O   0  0  0  0  0  0  0  0  0  0  0  0
   18.7484   70.7878   -9.8154 O   0  0  0  0  0  0  0  0  0  0  0  0
   16.4515   70.9163   -8.0961 O   0  0  0  0  0  0  0  0  0  0  0  0
   21.0765   72.0245   -8.6195 O   0  0  0  0  0  0  0  0  0  0  0  0
   18.7741   71.3285   -8.4916 C   0  0  1  0  0  0  0  0  0  0  0  0
   17.7558   70.5656   -7.6421 C   0  0  1  0  0  0  0  0  0  0  0  0
   20.1802   71.1714   -7.9156 C   0  0  2  0  0  0  0  0  0  0  0  0
   17.9123   70.9036   -6.1534 C   0  0  1  0  0  0  0  0  0  0  0  0
   20.2155   71.4847   -6.4187 C   0  0  1  0  0  0  0  0  0  0  0  0
   17.8585   70.8848  -10.1871 H   0  0  0  0  0  0  0  0  0  0  0  0
   16.3660   70.6982   -9.0376 H   0  0  0  0  0  0  0  0  0  0  0  0
   21.0450   71.8160   -9.5657 H   0  0  0  0  0  0  0  0  0  0  0  0
   15.7408   70.6508   -5.1892 O   0  0  0  0  0  0  0  0  0  0  0  0
   17.0140   70.0376   -5.2728 C   0  0  0  0  0  0  0  0  0  0  0  0
   15.1583   70.1105   -4.6320 H   0  0  0  0  0  0  0  0  0  0  0  0
 25 28  1  0
 25 24  1  0
 25 26  1  1
 25 27  2  0
  1  4  1  0
  1 24  1  0
  1  2  1  1
  1  3  2  0
  6 11  1  0
  6 12  1  0
 29 36  1  0
 29 37  1  0
  9  7  1  1
  7 13  1  0
 10  8  1  1
  8 14  1  0
 37 28  1  6
  4  5  1  0
 33 30  1  6
 30 38  1  0
 34 31  1  6
 31 39  1  0
 35 32  1  6
 32 40  1  0
 41 42  1  0
 41 43  1  0
 15 19  2  0
 16 22  2  0
 12 17  1  1
 17 19  1  0
 17 20  1  0
 18 19  1  0
 18 22  1  0
 18 23  1  0
  9 10  1  0
  9 11  1  0
 10 12  1  0
 11  5  1  1
 33 34  1  0
 33 35  1  0
 34 36  1  0
 35 37  1  0
 36 42  1  1
 20 21  2  0
 21 22  1  0
M  CHG  2   2  -1  26  -1
M  END
>  <COMPND>  (13) 
    8629 

>  <AUTHOR>  (13) 
    GENERATED BY OPEN BABEL 3.1.1

>  <MASTER>  (13) 
        0    0    0    0    0    0    0    0   58    0   58    0

>  <minimizedAffinity>  (13) 
-8.04776

>  <CNNscore>  (13) 
0.3280758262

>  <CNNaffinity>  (13) 
4.0089945793

>  <CNN_VS>  (13) 
1.3152542114

>  <CNNaffinity_variance>  (13) 
0.2430842370

$$$$
14
     RDKit          3D

 43 45  0  0  0  0  0  0  0  0999 V2000
   22.0200   70.5382   -2.6681 P   0  0  2  0  0  0  0  0  0  0  0  0
   23.4551   69.8211   -2.8773 O   0  0  0  0  0  0  0  0  0  0  0  0
   21.8542   71.2545   -1.3602 O   0  0  0  0  0  0  0  0  0  0  0  0
   20.9506   69.3609   -2.9650 O   0  0  0  0  0  0  0  0  0  0  0  0
   19.8229   69.6589   -3.7696 C   0  0  0  0  0  0  0  0  0  0  0  0
   17.6673   70.5376   -3.1738 O   0  0  0  0  0  0  0  0  0  0  0  0
   16.9837   67.7540   -2.2936 O   0  0  0  0  0  0  0  0  0  0  0  0
   15.7739   67.9203   -4.7319 O   0  0  0  0  0  0  0  0  0  0  0  0
   17.7865   68.1810   -3.3929 C   0  0  1  0  0  0  0  0  0  0  0  0
   16.9116   68.7263   -4.5023 C   0  0  2  0  0  0  0  0  0  0  0  0
   18.5574   69.4209   -2.9572 C   0  0  1  0  0  0  0  0  0  0  0  0
   16.5543   70.1049   -3.9731 C   0  0  2  0  0  0  0  0  0  0  0  0
   16.4821   66.9630   -2.5478 H   0  0  0  0  0  0  0  0  0  0  0  0
   16.0535   67.0543   -5.0676 H   0  0  0  0  0  0  0  0  0  0  0  0
   15.2086   72.5668   -3.6474 O   0  0  0  0  0  0  0  0  0  0  0  0
   15.7830   73.6769   -8.0834 O   0  0  0  0  0  0  0  0  0  0  0  0
   16.3383   71.0567   -5.0260 N   0  0  0  0  0  0  0  0  0  0  0  0
   15.4958   73.1176   -5.8564 N   0  0  0  0  0  0  0  0  0  0  0  0
   15.6498   72.2627   -4.7576 C   0  0  0  0  0  0  0  0  0  0  0  0
   16.8072   70.7904   -6.3078 C   0  0  0  0  0  0  0  0  0  0  0  0
   16.6511   71.6155   -7.3452 C   0  0  0  0  0  0  0  0  0  0  0  0
   15.9427   72.8970   -7.1496 C   0  0  0  0  0  0  0  0  0  0  0  0
   15.0189   73.9636   -5.6932 H   0  0  0  0  0  0  0  0  0  0  0  0
   21.8921   71.4829   -3.9735 O   0  0  0  0  0  0  0  0  0  0  0  0
   22.4932   72.9509   -4.2845 P   0  0  2  0  0  0  0  0  0  0  0  0
   24.0643   72.7905   -3.9332 O   0  0  0  0  0  0  0  0  0  0  0  0
   21.8052   74.0656   -3.5511 O   0  0  0  0  0  0  0  0  0  0  0  0
   22.4462   73.0792   -5.8927 O   0  0  0  0  0  0  0  0  0  0  0  0
   21.7462   74.8992   -7.2397 O   0  0  0  0  0  0  0  0  0  0  0  0
   20.4251   71.7821   -9.6039 O   0  0  0  0  0  0  0  0  0  0  0  0
   22.7123   73.3131  -10.4240 O   0  0  0  0  0  0  0  0  0  0  0  0
   20.2100   71.6009   -6.7229 O   0  0  0  0  0  0  0  0  0  0  0  0
   21.3080   72.4438   -8.6940 C   0  0  1  0  0  0  0  0  0  0  0  0
   21.8359   73.7093   -9.3727 C   0  0  1  0  0  0  0  0  0  0  0  0
   20.5405   72.7965   -7.4212 C   0  0  2  0  0  0  0  0  0  0  0  0
   22.5743   74.6079   -8.3715 C   0  0  1  0  0  0  0  0  0  0  0  0
   21.3449   73.7331   -6.5179 C   0  0  1  0  0  0  0  0  0  0  0  0
   20.9063   71.5550  -10.4140 H   0  0  0  0  0  0  0  0  0  0  0  0
   22.2339   72.7458  -11.0489 H   0  0  0  0  0  0  0  0  0  0  0  0
   19.7007   71.0167   -7.3053 H   0  0  0  0  0  0  0  0  0  0  0  0
   23.9361   75.7071   -9.9983 O   0  0  0  0  0  0  0  0  0  0  0  0
   22.9719   75.9466   -8.9896 C   0  0  0  0  0  0  0  0  0  0  0  0
   24.1982   76.5503  -10.4008 H   0  0  0  0  0  0  0  0  0  0  0  0
 25 28  1  0
 25 24  1  0
 25 26  1  1
 25 27  2  0
  1  4  1  0
  1 24  1  0
  1  2  1  1
  1  3  2  0
  6 11  1  0
  6 12  1  0
 29 36  1  0
 29 37  1  0
  9  7  1  1
  7 13  1  0
 10  8  1  1
  8 14  1  0
 37 28  1  6
  4  5  1  0
 33 30  1  6
 30 38  1  0
 34 31  1  6
 31 39  1  0
 35 32  1  1
 32 40  1  0
 41 42  1  0
 41 43  1  0
 15 19  2  0
 16 22  2  0
 12 17  1  6
 17 19  1  0
 17 20  1  0
 18 19  1  0
 18 22  1  0
 18 23  1  0
  9 10  1  0
  9 11  1  0
 10 12  1  0
 11  5  1  6
 33 34  1  0
 33 35  1  0
 34 36  1  0
 35 37  1  0
 36 42  1  6
 20 21  2  0
 21 22  1  0
M  CHG  2   2  -1  26  -1
M  END
>  <COMPND>  (14) 
    8629 

>  <AUTHOR>  (14) 
    GENERATED BY OPEN BABEL 3.1.1

>  <MASTER>  (14) 
        0    0    0    0    0    0    0    0   58    0   58    0

>  <minimizedAffinity>  (14) 
-7.34237

>  <CNNscore>  (14) 
0.3108004034

>  <CNNaffinity>  (14) 
3.9107756615

>  <CNN_VS>  (14) 
1.2154706717

>  <CNNaffinity_variance>  (14) 
0.6169402599

$$$$
15
     RDKit          3D

 43 45  0  0  0  0  0  0  0  0999 V2000
   22.4298   72.8813   -3.6796 P   0  0  2  0  0  0  0  0  0  0  0  0
   23.8156   72.8270   -4.5128 O   0  0  0  0  0  0  0  0  0  0  0  0
   22.0340   74.2456   -3.1962 O   0  0  0  0  0  0  0  0  0  0  0  0
   22.6226   71.7577   -2.5315 O   0  0  0  0  0  0  0  0  0  0  0  0
   22.6325   72.1707   -1.1761 C   0  0  0  0  0  0  0  0  0  0  0  0
   21.8930   69.8888   -1.0351 O   0  0  0  0  0  0  0  0  0  0  0  0
   21.4619   70.4053    1.8869 O   0  0  0  0  0  0  0  0  0  0  0  0
   23.8363   69.0642    1.8643 O   0  0  0  0  0  0  0  0  0  0  0  0
   22.4839   70.9018    1.0241 C   0  0  1  0  0  0  0  0  0  0  0  0
   23.4879   69.8106    0.7161 C   0  0  2  0  0  0  0  0  0  0  0  0
   21.8613   71.1562   -0.3430 C   0  0  1  0  0  0  0  0  0  0  0  0
   22.7447   68.9811   -0.3172 C   0  0  2  0  0  0  0  0  0  0  0  0
   21.8357   70.2357    2.7663 H   0  0  0  0  0  0  0  0  0  0  0  0
   24.3067   69.6357    2.4911 H   0  0  0  0  0  0  0  0  0  0  0  0
   23.1675   66.1918   -0.4560 O   0  0  0  0  0  0  0  0  0  0  0  0
   26.1734   66.6353   -3.9214 O   0  0  0  0  0  0  0  0  0  0  0  0
   23.6320   68.3404   -1.2464 N   0  0  0  0  0  0  0  0  0  0  0  0
   24.6637   66.4149   -2.1815 N   0  0  0  0  0  0  0  0  0  0  0  0
   23.7730   66.9332   -1.2328 C   0  0  0  0  0  0  0  0  0  0  0  0
   24.3508   69.1057   -2.1584 C   0  0  0  0  0  0  0  0  0  0  0  0
   25.1972   68.5962   -3.0558 C   0  0  0  0  0  0  0  0  0  0  0  0
   25.4020   67.1343   -3.1079 C   0  0  0  0  0  0  0  0  0  0  0  0
   24.7783   65.4369   -2.1903 H   0  0  0  0  0  0  0  0  0  0  0  0
   21.3717   72.1920   -4.6886 O   0  0  0  0  0  0  0  0  0  0  0  0
   20.0130   71.3654   -4.3997 P   0  0  2  0  0  0  0  0  0  0  0  0
   19.4272   72.0691   -3.0658 O   0  0  0  0  0  0  0  0  0  0  0  0
   20.2085   69.8816   -4.2821 O   0  0  0  0  0  0  0  0  0  0  0  0
   19.0030   71.8159   -5.5753 O   0  0  0  0  0  0  0  0  0  0  0  0
   16.8850   71.0840   -4.8038 O   0  0  0  0  0  0  0  0  0  0  0  0
   15.7114   72.9193   -8.3117 O   0  0  0  0  0  0  0  0  0  0  0  0
   15.1176   74.1641   -5.7926 O   0  0  0  0  0  0  0  0  0  0  0  0
   18.1803   71.4105   -8.2274 O   0  0  0  0  0  0  0  0  0  0  0  0
   16.5023   72.7472   -7.1326 C   0  0  1  0  0  0  0  0  0  0  0  0
   15.5748   72.8204   -5.9180 C   0  0  1  0  0  0  0  0  0  0  0  0
   17.2014   71.3904   -7.1942 C   0  0  2  0  0  0  0  0  0  0  0  0
   16.3008   72.3814   -4.6393 C   0  0  1  0  0  0  0  0  0  0  0  0
   17.8494   71.0277   -5.8568 C   0  0  1  0  0  0  0  0  0  0  0  0
   15.2652   73.7792   -8.2791 H   0  0  0  0  0  0  0  0  0  0  0  0
   14.6614   74.4291   -6.6068 H   0  0  0  0  0  0  0  0  0  0  0  0
   17.7575   71.6410   -9.0688 H   0  0  0  0  0  0  0  0  0  0  0  0
   15.1540   73.6015   -2.9348 O   0  0  0  0  0  0  0  0  0  0  0  0
   15.3535   72.2958   -3.4445 C   0  0  0  0  0  0  0  0  0  0  0  0
   14.5528   73.5625   -2.1740 H   0  0  0  0  0  0  0  0  0  0  0  0
 25 28  1  0
 25 24  1  0
 25 26  1  1
 25 27  2  0
  1  4  1  0
  1 24  1  0
  1  2  1  6
  1  3  2  0
  6 11  1  0
  6 12  1  0
 29 36  1  0
 29 37  1  0
  9  7  1  1
  7 13  1  0
 10  8  1  1
  8 14  1  0
 37 28  1  1
  4  5  1  0
 33 30  1  6
 30 38  1  0
 34 31  1  1
 31 39  1  0
 35 32  1  6
 32 40  1  0
 41 42  1  0
 41 43  1  0
 15 19  2  0
 16 22  2  0
 12 17  1  6
 17 19  1  0
 17 20  1  0
 18 19  1  0
 18 22  1  0
 18 23  1  0
  9 10  1  0
  9 11  1  0
 10 12  1  0
 11  5  1  6
 33 34  1  0
 33 35  1  0
 34 36  1  0
 35 37  1  0
 36 42  1  1
 20 21  2  0
 21 22  1  0
M  CHG  2   2  -1  26  -1
M  END
>  <COMPND>  (15) 
    8629 

>  <AUTHOR>  (15) 
    GENERATED BY OPEN BABEL 3.1.1

>  <MASTER>  (15) 
        0    0    0    0    0    0    0    0   58    0   58    0

>  <minimizedAffinity>  (15) 
-8.14482

>  <CNNscore>  (15) 
0.2979234457

>  <CNNaffinity>  (15) 
4.0872621536

>  <CNN_VS>  (15) 
1.2176911831

>  <CNNaffinity_variance>  (15) 
0.2866055071

$$$$
16
     RDKit          3D

 43 45  0  0  0  0  0  0  0  0999 V2000
   21.3687   70.1918   -2.2897 P   0  0  2  0  0  0  0  0  0  0  0  0
   22.9681   70.0016   -2.4427 O   0  0  0  0  0  0  0  0  0  0  0  0
   20.8976   70.5029   -0.8994 O   0  0  0  0  0  0  0  0  0  0  0  0
   20.7527   68.8528   -2.9572 O   0  0  0  0  0  0  0  0  0  0  0  0
   19.6231   68.9774   -3.8034 C   0  0  0  0  0  0  0  0  0  0  0  0
   17.5269   69.8249   -2.9899 O   0  0  0  0  0  0  0  0  0  0  0  0
   16.7331   66.9597   -2.6011 O   0  0  0  0  0  0  0  0  0  0  0  0
   15.4736   67.6147   -4.9294 O   0  0  0  0  0  0  0  0  0  0  0  0
   17.5283   67.5437   -3.6316 C   0  0  1  0  0  0  0  0  0  0  0  0
   16.6536   68.3170   -4.5962 C   0  0  2  0  0  0  0  0  0  0  0  0
   18.3678   68.6506   -3.0061 C   0  0  1  0  0  0  0  0  0  0  0  0
   16.3754   69.5912   -3.8171 C   0  0  2  0  0  0  0  0  0  0  0  0
   16.1883   66.2496   -2.9765 H   0  0  0  0  0  0  0  0  0  0  0  0
   15.7032   66.8125   -5.4238 H   0  0  0  0  0  0  0  0  0  0  0  0
   16.5877   69.5188   -6.6327 O   0  0  0  0  0  0  0  0  0  0  0  0
   15.6040   74.0060   -7.0053 O   0  0  0  0  0  0  0  0  0  0  0  0
   16.1794   70.7259   -4.6748 N   0  0  0  0  0  0  0  0  0  0  0  0
   16.0975   71.7531   -6.8160 N   0  0  0  0  0  0  0  0  0  0  0  0
   16.3101   70.5830   -6.0759 C   0  0  0  0  0  0  0  0  0  0  0  0
   15.8610   71.9631   -4.1254 C   0  0  0  0  0  0  0  0  0  0  0  0
   15.6627   73.0695   -4.8449 C   0  0  0  0  0  0  0  0  0  0  0  0
   15.7804   73.0062   -6.3160 C   0  0  0  0  0  0  0  0  0  0  0  0
   16.1837   71.6777   -7.7940 H   0  0  0  0  0  0  0  0  0  0  0  0
   21.0318   71.3319   -3.3850 O   0  0  0  0  0  0  0  0  0  0  0  0
   20.0998   72.6494   -3.2936 P   0  0  2  0  0  0  0  0  0  0  0  0
   21.1630   73.8378   -3.0200 O   0  0  0  0  0  0  0  0  0  0  0  0
   19.0001   72.5558   -2.2757 O   0  0  0  0  0  0  0  0  0  0  0  0
   19.5923   72.8965   -4.8057 O   0  0  0  0  0  0  0  0  0  0  0  0
   20.5619   72.1318   -6.8284 O   0  0  0  0  0  0  0  0  0  0  0  0
   19.0808   75.7576   -8.1362 O   0  0  0  0  0  0  0  0  0  0  0  0
   17.8010   73.3226   -8.9611 O   0  0  0  0  0  0  0  0  0  0  0  0
   20.2383   75.5398   -5.4919 O   0  0  0  0  0  0  0  0  0  0  0  0
   19.0853   74.5545   -7.3630 C   0  0  1  0  0  0  0  0  0  0  0  0
   19.0757   73.3656   -8.3259 C   0  0  1  0  0  0  0  0  0  0  0  0
   20.3373   74.5279   -6.4883 C   0  0  2  0  0  0  0  0  0  0  0  0
   19.3480   72.0499   -7.5844 C   0  0  1  0  0  0  0  0  0  0  0  0
   20.5415   73.1594   -5.8358 C   0  0  1  0  0  0  0  0  0  0  0  0
   18.2881   75.7810   -8.6935 H   0  0  0  0  0  0  0  0  0  0  0  0
   17.6412   74.1594   -9.4252 H   0  0  0  0  0  0  0  0  0  0  0  0
   20.1096   76.4012   -5.9177 H   0  0  0  0  0  0  0  0  0  0  0  0
   18.2109   70.4803   -8.9816 O   0  0  0  0  0  0  0  0  0  0  0  0
   19.4993   70.8726   -8.5452 C   0  0  0  0  0  0  0  0  0  0  0  0
   18.2917   69.7319   -9.5941 H   0  0  0  0  0  0  0  0  0  0  0  0
 25 28  1  0
 25 24  1  0
 25 26  1  1
 25 27  2  0
  1  4  1  0
  1 24  1  0
  1  2  1  1
  1  3  2  0
  6 11  1  0
  6 12  1  0
 29 36  1  0
 29 37  1  0
  9  7  1  1
  7 13  1  0
 10  8  1  1
  8 14  1  0
 37 28  1  1
  4  5  1  0
 33 30  1  6
 30 38  1  0
 34 31  1  1
 31 39  1  0
 35 32  1  1
 32 40  1  0
 41 42  1  0
 41 43  1  0
 15 19  2  0
 16 22  2  0
 12 17  1  6
 17 19  1  0
 17 20  1  0
 18 19  1  0
 18 22  1  0
 18 23  1  0
  9 10  1  0
  9 11  1  0
 10 12  1  0
 11  5  1  6
 33 34  1  0
 33 35  1  0
 34 36  1  0
 35 37  1  0
 36 42  1  6
 20 21  2  0
 21 22  1  0
M  CHG  2   2  -1  26  -1
M  END
>  <COMPND>  (16) 
    8629 

>  <AUTHOR>  (16) 
    GENERATED BY OPEN BABEL 3.1.1

>  <MASTER>  (16) 
        0    0    0    0    0    0    0    0   58    0   58    0

>  <minimizedAffinity>  (16) 
-6.97664

>  <CNNscore>  (16) 
0.2912240922

>  <CNNaffinity>  (16) 
3.8584151268

>  <CNN_VS>  (16) 
1.1236634254

>  <CNNaffinity_variance>  (16) 
0.7682871819

$$$$
17
     RDKit          3D

 43 45  0  0  0  0  0  0  0  0999 V2000
   22.5017   72.5414   -3.6348 P   0  0  2  0  0  0  0  0  0  0  0  0
   22.0807   70.9999   -3.8875 O   0  0  0  0  0  0  0  0  0  0  0  0
   23.9241   72.8742   -3.9774 O   0  0  0  0  0  0  0  0  0  0  0  0
   22.0654   72.8168   -2.1013 O   0  0  0  0  0  0  0  0  0  0  0  0
   22.8616   72.2719   -1.0635 C   0  0  0  0  0  0  0  0  0  0  0  0
   22.0035   70.0285   -0.9937 O   0  0  0  0  0  0  0  0  0  0  0  0
   21.5563   70.4904    1.9350 O   0  0  0  0  0  0  0  0  0  0  0  0
   23.8585   69.0291    1.9085 O   0  0  0  0  0  0  0  0  0  0  0  0
   22.6152   70.9555    1.0997 C   0  0  1  0  0  0  0  0  0  0  0  0
   23.5662   69.8221    0.7761 C   0  0  2  0  0  0  0  0  0  0  0  0
   22.0268   71.2774   -0.2683 C   0  0  1  0  0  0  0  0  0  0  0  0
   22.7966   69.0595   -0.2889 C   0  0  2  0  0  0  0  0  0  0  0  0
   21.9078   70.2788    2.8146 H   0  0  0  0  0  0  0  0  0  0  0  0
   24.3484   69.5588    2.5567 H   0  0  0  0  0  0  0  0  0  0  0  0
   23.1298   66.2593   -0.4497 O   0  0  0  0  0  0  0  0  0  0  0  0
   26.1503   66.6336   -3.9106 O   0  0  0  0  0  0  0  0  0  0  0  0
   23.6635   68.3981   -1.2229 N   0  0  0  0  0  0  0  0  0  0  0  0
   24.6334   66.4479   -2.1730 N   0  0  0  0  0  0  0  0  0  0  0  0
   23.7592   66.9870   -1.2204 C   0  0  0  0  0  0  0  0  0  0  0  0
   24.4069   69.1471   -2.1285 C   0  0  0  0  0  0  0  0  0  0  0  0
   25.2370   68.6179   -3.0297 C   0  0  0  0  0  0  0  0  0  0  0  0
   25.3949   67.1506   -3.0934 C   0  0  0  0  0  0  0  0  0  0  0  0
   24.7166   65.4668   -2.1895 H   0  0  0  0  0  0  0  0  0  0  0  0
   21.3961   73.3634   -4.4803 O   0  0  0  0  0  0  0  0  0  0  0  0
   21.2791   73.6643   -6.0642 P   0  0  2  0  0  0  0  0  0  0  0  0
   22.5120   72.8265   -6.6931 O   0  0  0  0  0  0  0  0  0  0  0  0
   21.2796   75.1241   -6.4149 O   0  0  0  0  0  0  0  0  0  0  0  0
   19.9595   72.8636   -6.5358 O   0  0  0  0  0  0  0  0  0  0  0  0
   18.8856   70.9538   -5.6324 O   0  0  0  0  0  0  0  0  0  0  0  0
   18.3886   70.1505   -9.6522 O   0  0  0  0  0  0  0  0  0  0  0  0
   16.1285   70.9665   -8.0793 O   0  0  0  0  0  0  0  0  0  0  0  0
   20.8570   71.3338   -8.7105 O   0  0  0  0  0  0  0  0  0  0  0  0
   18.4845   70.9805   -8.4915 C   0  0  1  0  0  0  0  0  0  0  0  0
   17.3773   70.5727   -7.5175 C   0  0  1  0  0  0  0  0  0  0  0  0
   19.8592   70.7895   -7.8534 C   0  0  2  0  0  0  0  0  0  0  0  0
   17.5770   71.2300   -6.1452 C   0  0  1  0  0  0  0  0  0  0  0  0
   19.9355   71.4400   -6.4710 C   0  0  1  0  0  0  0  0  0  0  0  0
   17.5182   70.2674  -10.0624 H   0  0  0  0  0  0  0  0  0  0  0  0
   16.0151   70.5450   -8.9457 H   0  0  0  0  0  0  0  0  0  0  0  0
   20.7984   70.9137   -9.5823 H   0  0  0  0  0  0  0  0  0  0  0  0
   15.8093   69.6833   -5.7068 O   0  0  0  0  0  0  0  0  0  0  0  0
   16.5757   70.7152   -5.1134 C   0  0  0  0  0  0  0  0  0  0  0  0
   15.1680   69.3458   -5.0615 H   0  0  0  0  0  0  0  0  0  0  0  0
 25 28  1  0
 25 24  1  0
 25 26  1  6
 25 27  2  0
  1  4  1  0
  1 24  1  0
  1  2  1  6
  1  3  2  0
  6 11  1  0
  6 12  1  0
 29 36  1  0
 29 37  1  0
  9  7  1  1
  7 13  1  0
 10  8  1  1
  8 14  1  0
 37 28  1  6
  4  5  1  0
 33 30  1  6
 30 38  1  0
 34 31  1  6
 31 39  1  0
 35 32  1  6
 32 40  1  0
 41 42  1  0
 41 43  1  0
 15 19  2  0
 16 22  2  0
 12 17  1  6
 17 19  1  0
 17 20  1  0
 18 19  1  0
 18 22  1  0
 18 23  1  0
  9 10  1  0
  9 11  1  0
 10 12  1  0
 11  5  1  6
 33 34  1  0
 33 35  1  0
 34 36  1  0
 35 37  1  0
 36 42  1  1
 20 21  2  0
 21 22  1  0
M  CHG  2   2  -1  26  -1
M  END
>  <COMPND>  (17) 
    8629 

>  <AUTHOR>  (17) 
    GENERATED BY OPEN BABEL 3.1.1

>  <MASTER>  (17) 
        0    0    0    0    0    0    0    0   58    0   58    0

>  <minimizedAffinity>  (17) 
-9.36237

>  <CNNscore>  (17) 
0.2791835666

>  <CNNaffinity>  (17) 
4.0984926224

>  <CNN_VS>  (17) 
1.1442317963

>  <CNNaffinity_variance>  (17) 
0.6458914280

$$$$
18
     RDKit          3D

 43 45  0  0  0  0  0  0  0  0999 V2000
   22.5547   73.0053   -3.7823 P   0  0  2  0  0  0  0  0  0  0  0  0
   24.1261   73.0041   -4.1668 O   0  0  0  0  0  0  0  0  0  0  0  0
   22.0063   74.3370   -3.3612 O   0  0  0  0  0  0  0  0  0  0  0  0
   22.4198   71.8144   -2.6954 O   0  0  0  0  0  0  0  0  0  0  0  0
   22.5897   72.1282   -1.3240 C   0  0  0  0  0  0  0  0  0  0  0  0
   21.8927   69.8344   -1.1605 O   0  0  0  0  0  0  0  0  0  0  0  0
   21.4269   70.3788    1.7511 O   0  0  0  0  0  0  0  0  0  0  0  0
   23.8265   69.0834    1.7651 O   0  0  0  0  0  0  0  0  0  0  0  0
   22.4465   70.8841    0.8906 C   0  0  1  0  0  0  0  0  0  0  0  0
   23.4738   69.8086    0.6047 C   0  0  2  0  0  0  0  0  0  0  0  0
   21.8308   71.1095   -0.4847 C   0  0  1  0  0  0  0  0  0  0  0  0
   22.7553   68.9522   -0.4241 C   0  0  2  0  0  0  0  0  0  0  0  0
   21.7963   70.2273    2.6357 H   0  0  0  0  0  0  0  0  0  0  0  0
   24.2806   69.6715    2.3885 H   0  0  0  0  0  0  0  0  0  0  0  0
   23.2261   66.1692   -0.5301 O   0  0  0  0  0  0  0  0  0  0  0  0
   26.2591   66.6281   -3.9698 O   0  0  0  0  0  0  0  0  0  0  0  0
   23.6627   68.3172   -1.3379 N   0  0  0  0  0  0  0  0  0  0  0  0
   24.7358   66.3999   -2.2428 N   0  0  0  0  0  0  0  0  0  0  0  0
   23.8270   66.9127   -1.3084 C   0  0  0  0  0  0  0  0  0  0  0  0
   24.3778   69.0852   -2.2504 C   0  0  0  0  0  0  0  0  0  0  0  0
   25.2416   68.5810   -3.1340 C   0  0  0  0  0  0  0  0  0  0  0  0
   25.4713   67.1222   -3.1692 C   0  0  0  0  0  0  0  0  0  0  0  0
   24.8668   65.4239   -2.2405 H   0  0  0  0  0  0  0  0  0  0  0  0
   21.8579   72.3766   -5.0984 O   0  0  0  0  0  0  0  0  0  0  0  0
   20.3559   72.5237   -5.6773 P   0  0  2  0  0  0  0  0  0  0  0  0
   20.5324   72.2028   -7.2532 O   0  0  0  0  0  0  0  0  0  0  0  0
   19.7099   73.8466   -5.3833 O   0  0  0  0  0  0  0  0  0  0  0  0
   19.5640   71.2469   -5.0875 O   0  0  0  0  0  0  0  0  0  0  0  0
   17.9434   71.9133   -3.4918 O   0  0  0  0  0  0  0  0  0  0  0  0
   17.7597   67.8238   -2.9506 O   0  0  0  0  0  0  0  0  0  0  0  0
   15.6000   69.1773   -4.2741 O   0  0  0  0  0  0  0  0  0  0  0  0
   20.3104   69.1026   -3.4384 O   0  0  0  0  0  0  0  0  0  0  0  0
   17.9167   69.0335   -3.6970 C   0  0  1  0  0  0  0  0  0  0  0  0
   16.6316   69.8522   -3.5595 C   0  0  1  0  0  0  0  0  0  0  0  0
   19.1105   69.8098   -3.1442 C   0  0  2  0  0  0  0  0  0  0  0  0
   16.8189   71.2736   -4.1068 C   0  0  1  0  0  0  0  0  0  0  0  0
   19.1765   71.2270   -3.7161 C   0  0  1  0  0  0  0  0  0  0  0  0
   17.0036   67.3259   -3.2969 H   0  0  0  0  0  0  0  0  0  0  0  0
   15.4921   68.2810   -3.9190 H   0  0  0  0  0  0  0  0  0  0  0  0
   20.2562   68.2071   -3.0708 H   0  0  0  0  0  0  0  0  0  0  0  0
   14.7782   71.5061   -2.8860 O   0  0  0  0  0  0  0  0  0  0  0  0
   15.6016   72.1554   -3.8371 C   0  0  0  0  0  0  0  0  0  0  0  0
   13.9995   72.0559   -2.7044 H   0  0  0  0  0  0  0  0  0  0  0  0
 25 28  1  0
 25 24  1  0
 25 26  1  6
 25 27  2  0
  1  4  1  0
  1 24  1  0
  1  2  1  6
  1  3  2  0
  6 11  1  0
  6 12  1  0
 29 36  1  0
 29 37  1  0
  9  7  1  1
  7 13  1  0
 10  8  1  1
  8 14  1  0
 37 28  1  6
  4  5  1  0
 33 30  1  1
 30 38  1  0
 34 31  1  6
 31 39  1  0
 35 32  1  6
 32 40  1  0
 41 42  1  0
 41 43  1  0
 15 19  2  0
 16 22  2  0
 12 17  1  6
 17 19  1  0
 17 20  1  0
 18 19  1  0
 18 22  1  0
 18 23  1  0
  9 10  1  0
  9 11  1  0
 10 12  1  0
 11  5  1  6
 33 34  1  0
 33 35  1  0
 34 36  1  0
 35 37  1  0
 36 42  1  1
 20 21  2  0
 21 22  1  0
M  CHG  2   2  -1  26  -1
M  END
>  <COMPND>  (18) 
    8629 

>  <AUTHOR>  (18) 
    GENERATED BY OPEN BABEL 3.1.1

>  <MASTER>  (18) 
        0    0    0    0    0    0    0    0   58    0   58    0

>  <minimizedAffinity>  (18) 
-8.69374

>  <CNNscore>  (18) 
0.2748998106

>  <CNNaffinity>  (18) 
4.0158967972

>  <CNN_VS>  (18) 
1.1039692163

>  <CNNaffinity_variance>  (18) 
1.0009988546

$$$$
19
     RDKit          3D

 43 45  0  0  0  0  0  0  0  0999 V2000
   20.2004   72.9215   -2.4317 P   0  0  2  0  0  0  0  0  0  0  0  0
   20.8121   74.4042   -2.2198 O   0  0  0  0  0  0  0  0  0  0  0  0
   18.9843   72.6140   -1.6084 O   0  0  0  0  0  0  0  0  0  0  0  0
   21.4683   71.9423   -2.2051 O   0  0  0  0  0  0  0  0  0  0  0  0
   22.2270   72.0824   -1.0165 C   0  0  0  0  0  0  0  0  0  0  0  0
   21.8014   69.7540   -0.6030 O   0  0  0  0  0  0  0  0  0  0  0  0
   21.8338   70.4581    2.3115 O   0  0  0  0  0  0  0  0  0  0  0  0
   24.3097   69.3796    1.9330 O   0  0  0  0  0  0  0  0  0  0  0  0
   22.6210   70.9884    1.2464 C   0  0  1  0  0  0  0  0  0  0  0  0
   23.6779   69.9887    0.8255 C   0  0  2  0  0  0  0  0  0  0  0  0
   21.7413   71.0630    0.0047 C   0  0  1  0  0  0  0  0  0  0  0  0
   22.8685   69.0034   -0.0005 C   0  0  2  0  0  0  0  0  0  0  0  0
   22.3743   70.4014    3.1156 H   0  0  0  0  0  0  0  0  0  0  0  0
   24.8117   70.0470    2.4263 H   0  0  0  0  0  0  0  0  0  0  0  0
   23.1097   66.2137   -0.3708 O   0  0  0  0  0  0  0  0  0  0  0  0
   25.8877   66.7522   -4.0087 O   0  0  0  0  0  0  0  0  0  0  0  0
   23.6480   68.3872   -1.0367 N   0  0  0  0  0  0  0  0  0  0  0  0
   24.4926   66.4841   -2.1820 N   0  0  0  0  0  0  0  0  0  0  0  0
   23.7036   66.9773   -1.1350 C   0  0  0  0  0  0  0  0  0  0  0  0
   24.3467   69.1786   -1.9419 C   0  0  0  0  0  0  0  0  0  0  0  0
   25.0957   68.6927   -2.9340 C   0  0  0  0  0  0  0  0  0  0  0  0
   25.2068   67.2298   -3.1064 C   0  0  0  0  0  0  0  0  0  0  0  0
   24.5465   65.5048   -2.2697 H   0  0  0  0  0  0  0  0  0  0  0  0
   19.9669   72.8497   -4.0296 O   0  0  0  0  0  0  0  0  0  0  0  0
   18.6643   73.1802   -4.9279 P   0  0  2  0  0  0  0  0  0  0  0  0
   19.2313   73.1147   -6.4418 O   0  0  0  0  0  0  0  0  0  0  0  0
   17.9858   74.4724   -4.5761 O   0  0  0  0  0  0  0  0  0  0  0  0
   17.7281   71.8730   -4.7864 O   0  0  0  0  0  0  0  0  0  0  0  0
   19.0972   69.9405   -4.8729 O   0  0  0  0  0  0  0  0  0  0  0  0
   15.3909   68.1211   -4.8080 O   0  0  0  0  0  0  0  0  0  0  0  0
   17.0630   68.0163   -2.4754 O   0  0  0  0  0  0  0  0  0  0  0  0
   15.7752   70.5616   -6.3165 O   0  0  0  0  0  0  0  0  0  0  0  0
   16.3572   69.1217   -4.4756 C   0  0  1  0  0  0  0  0  0  0  0  0
   17.5231   68.4418   -3.7550 C   0  0  1  0  0  0  0  0  0  0  0  0
   16.8383   69.7968   -5.7586 C   0  0  2  0  0  0  0  0  0  0  0  0
   18.7141   69.3977   -3.6039 C   0  0  1  0  0  0  0  0  0  0  0  0
   18.0562   70.6873   -5.5058 C   0  0  1  0  0  0  0  0  0  0  0  0
   15.0810   67.6889   -3.9977 H   0  0  0  0  0  0  0  0  0  0  0  0
   16.3106   67.4137   -2.5849 H   0  0  0  0  0  0  0  0  0  0  0  0
   15.0103   69.9866   -6.4722 H   0  0  0  0  0  0  0  0  0  0  0  0
   21.0970   69.4103   -3.4294 O   0  0  0  0  0  0  0  0  0  0  0  0
   19.9425   68.6948   -3.0303 C   0  0  0  0  0  0  0  0  0  0  0  0
   21.8867   68.9746   -3.0712 H   0  0  0  0  0  0  0  0  0  0  0  0
 25 28  1  0
 25 24  1  0
 25 26  1  6
 25 27  2  0
  1  4  1  0
  1 24  1  0
  1  2  1  6
  1  3  2  0
  6 11  1  0
  6 12  1  0
 29 36  1  0
 29 37  1  0
  9  7  1  1
  7 13  1  0
 10  8  1  1
  8 14  1  0
 37 28  1  1
  4  5  1  0
 33 30  1  6
 30 38  1  0
 34 31  1  1
 31 39  1  0
 35 32  1  1
 32 40  1  0
 41 42  1  0
 41 43  1  0
 15 19  2  0
 16 22  2  0
 12 17  1  6
 17 19  1  0
 17 20  1  0
 18 19  1  0
 18 22  1  0
 18 23  1  0
  9 10  1  0
  9 11  1  0
 10 12  1  0
 11  5  1  6
 33 34  1  0
 33 35  1  0
 34 36  1  0
 35 37  1  0
 36 42  1  6
 20 21  2  0
 21 22  1  0
M  CHG  2   2  -1  26  -1
M  END
>  <COMPND>  (19) 
    8629 

>  <AUTHOR>  (19) 
    GENERATED BY OPEN BABEL 3.1.1

>  <MASTER>  (19) 
        0    0    0    0    0    0    0    0   58    0   58    0

>  <minimizedAffinity>  (19) 
-8.48920

>  <CNNscore>  (19) 
0.2678379118

>  <CNNaffinity>  (19) 
4.1452569962

>  <CNN_VS>  (19) 
1.1102570295

>  <CNNaffinity_variance>  (19) 
0.7261452079

$$$$
20
     RDKit          3D

 43 45  0  0  0  0  0  0  0  0999 V2000
   22.3356   71.4118   -3.0497 P   0  0  2  0  0  0  0  0  0  0  0  0
   23.8018   70.7560   -3.2439 O   0  0  0  0  0  0  0  0  0  0  0  0
   22.0194   72.5443   -3.9817 O   0  0  0  0  0  0  0  0  0  0  0  0
   22.2728   71.7622   -1.4714 O   0  0  0  0  0  0  0  0  0  0  0  0
   22.1952   70.6936   -0.5441 C   0  0  0  0  0  0  0  0  0  0  0  0
   23.7252   72.0374    0.7315 O   0  0  0  0  0  0  0  0  0  0  0  0
   24.6226   69.4748    2.0036 O   0  0  0  0  0  0  0  0  0  0  0  0
   22.9676   70.5304    3.8966 O   0  0  0  0  0  0  0  0  0  0  0  0
   23.3159   69.8646    1.5843 C   0  0  1  0  0  0  0  0  0  0  0  0
   22.7356   70.8794    2.5471 C   0  0  2  0  0  0  0  0  0  0  0  0
   23.4576   70.6830    0.3070 C   0  0  1  0  0  0  0  0  0  0  0  0
   23.4601   72.1510    2.1393 C   0  0  2  0  0  0  0  0  0  0  0  0
   24.5577   68.9505    2.8178 H   0  0  0  0  0  0  0  0  0  0  0  0
   22.4857   69.7155    4.1074 H   0  0  0  0  0  0  0  0  0  0  0  0
   23.2144   73.4376    4.6417 O   0  0  0  0  0  0  0  0  0  0  0  0
   20.4104   76.6618    2.9146 O   0  0  0  0  0  0  0  0  0  0  0  0
   22.6726   73.3287    2.3720 N   0  0  0  0  0  0  0  0  0  0  0  0
   21.8186   75.0420    3.7797 N   0  0  0  0  0  0  0  0  0  0  0  0
   22.6155   73.8957    3.6665 C   0  0  0  0  0  0  0  0  0  0  0  0
   21.9679   73.9095    1.3232 C   0  0  0  0  0  0  0  0  0  0  0  0
   21.2114   75.0019    1.4480 C   0  0  0  0  0  0  0  0  0  0  0  0
   21.0981   75.6561    2.7675 C   0  0  0  0  0  0  0  0  0  0  0  0
   21.7635   75.4541    4.6724 H   0  0  0  0  0  0  0  0  0  0  0  0
   21.3480   70.1386   -3.1787 O   0  0  0  0  0  0  0  0  0  0  0  0
   19.7357   70.0490   -3.2521 P   0  0  2  0  0  0  0  0  0  0  0  0
   19.2559   71.4433   -2.5865 O   0  0  0  0  0  0  0  0  0  0  0  0
   19.1575   68.8232   -2.6064 O   0  0  0  0  0  0  0  0  0  0  0  0
   19.3889   70.2054   -4.8207 O   0  0  0  0  0  0  0  0  0  0  0  0
   19.8271   71.9832   -6.3253 O   0  0  0  0  0  0  0  0  0  0  0  0
   16.1155   70.8348   -7.7239 O   0  0  0  0  0  0  0  0  0  0  0  0
   18.4607   70.2363   -9.2699 O   0  0  0  0  0  0  0  0  0  0  0  0
   16.6528   70.8262   -4.8795 O   0  0  0  0  0  0  0  0  0  0  0  0
   17.4132   70.6351   -7.1569 C   0  0  1  0  0  0  0  0  0  0  0  0
   18.4564   71.1304   -8.1604 C   0  0  1  0  0  0  0  0  0  0  0  0
   17.5119   71.4172   -5.8485 C   0  0  2  0  0  0  0  0  0  0  0  0
   19.8506   71.1973   -7.5226 C   0  0  1  0  0  0  0  0  0  0  0  0
   18.9487   71.4636   -5.3252 C   0  0  1  0  0  0  0  0  0  0  0  0
   16.0460   70.3404   -8.5548 H   0  0  0  0  0  0  0  0  0  0  0  0
   17.5745   70.2029   -9.6632 H   0  0  0  0  0  0  0  0  0  0  0  0
   15.7463   70.8030   -5.2226 H   0  0  0  0  0  0  0  0  0  0  0  0
   21.9307   72.3634   -7.6715 O   0  0  0  0  0  0  0  0  0  0  0  0
   20.8764   71.8367   -8.4559 C   0  0  0  0  0  0  0  0  0  0  0  0
   22.5914   72.7734   -8.2522 H   0  0  0  0  0  0  0  0  0  0  0  0
 25 28  1  0
 25 24  1  0
 25 26  1  1
 25 27  2  0
  1  4  1  0
  1 24  1  0
  1  2  1  6
  1  3  2  0
  6 11  1  0
  6 12  1  0
 29 36  1  0
 29 37  1  0
  9  7  1  1
  7 13  1  0
 10  8  1  1
  8 14  1  0
 37 28  1  6
  4  5  1  0
 33 30  1  6
 30 38  1  0
 34 31  1  6
 31 39  1  0
 35 32  1  1
 32 40  1  0
 41 42  1  0
 41 43  1  0
 15 19  2  0
 16 22  2  0
 12 17  1  6
 17 19  1  0
 17 20  1  0
 18 19  1  0
 18 22  1  0
 18 23  1  0
  9 10  1  0
  9 11  1  0
 10 12  1  0
 11  5  1  1
 33 34  1  0
 33 35  1  0
 34 36  1  0
 35 37  1  0
 36 42  1  6
 20 21  2  0
 21 22  1  0
M  CHG  2   2  -1  26  -1
M  END
>  <COMPND>  (20) 
    8629 

>  <AUTHOR>  (20) 
    GENERATED BY OPEN BABEL 3.1.1

>  <MASTER>  (20) 
        0    0    0    0    0    0    0    0   58    0   58    0

>  <minimizedAffinity>  (20) 
-7.48146

>  <CNNscore>  (20) 
0.2570714951

>  <CNNaffinity>  (20) 
3.9031589031

>  <CNN_VS>  (20) 
1.0033909082

>  <CNNaffinity_variance>  (20) 
0.1272688210

$$$$
21
     RDKit          3D

 43 45  0  0  0  0  0  0  0  0999 V2000
   20.8427   73.7534   -4.1965 P   0  0  2  0  0  0  0  0  0  0  0  0
   19.3618   73.6495   -3.5534 O   0  0  0  0  0  0  0  0  0  0  0  0
   21.6649   74.9106   -3.7105 O   0  0  0  0  0  0  0  0  0  0  0  0
   20.5779   73.7005   -5.7918 O   0  0  0  0  0  0  0  0  0  0  0  0
   20.9036   72.5126   -6.4922 C   0  0  0  0  0  0  0  0  0  0  0  0
   19.2731   70.9705   -7.3510 O   0  0  0  0  0  0  0  0  0  0  0  0
   18.1096   73.3103   -8.8216 O   0  0  0  0  0  0  0  0  0  0  0  0
   16.4302   73.0541   -6.6884 O   0  0  0  0  0  0  0  0  0  0  0  0
   18.7033   73.2641   -7.5252 C   0  0  1  0  0  0  0  0  0  0  0  0
   17.7617   72.6053   -6.5388 C   0  0  2  0  0  0  0  0  0  0  0  0
   19.8587   72.2721   -7.5732 C   0  0  1  0  0  0  0  0  0  0  0  0
   17.9248   71.1343   -6.8818 C   0  0  2  0  0  0  0  0  0  0  0  0
   17.3692   73.9377   -8.8158 H   0  0  0  0  0  0  0  0  0  0  0  0
   16.3782   73.9950   -6.4586 H   0  0  0  0  0  0  0  0  0  0  0  0
   15.6105   69.5718   -6.4569 O   0  0  0  0  0  0  0  0  0  0  0  0
   17.2464   67.8991   -2.4861 O   0  0  0  0  0  0  0  0  0  0  0  0
   17.7196   70.2810   -5.7456 N   0  0  0  0  0  0  0  0  0  0  0  0
   16.4270   68.7401   -4.4802 N   0  0  0  0  0  0  0  0  0  0  0  0
   16.5213   69.5391   -5.6268 C   0  0  0  0  0  0  0  0  0  0  0  0
   18.7004   70.1857   -4.7643 C   0  0  0  0  0  0  0  0  0  0  0  0
   18.5946   69.4201   -3.6762 C   0  0  0  0  0  0  0  0  0  0  0  0
   17.3738   68.6129   -3.4761 C   0  0  0  0  0  0  0  0  0  0  0  0
   15.6008   68.2145   -4.3760 H   0  0  0  0  0  0  0  0  0  0  0  0
   21.4770   72.2996   -3.8851 O   0  0  0  0  0  0  0  0  0  0  0  0
   22.8924   71.8775   -3.2283 P   0  0  2  0  0  0  0  0  0  0  0  0
   23.9607   72.7889   -4.0318 O   0  0  0  0  0  0  0  0  0  0  0  0
   23.1770   70.4042   -3.2740 O   0  0  0  0  0  0  0  0  0  0  0  0
   22.8567   72.5060   -1.7421 O   0  0  0  0  0  0  0  0  0  0  0  0
   22.3819   70.9781    0.0061 O   0  0  0  0  0  0  0  0  0  0  0  0
   21.7439   74.5187    2.0329 O   0  0  0  0  0  0  0  0  0  0  0  0
   24.0825   72.9553    2.6114 O   0  0  0  0  0  0  0  0  0  0  0  0
   20.9212   74.2687   -0.7312 O   0  0  0  0  0  0  0  0  0  0  0  0
   22.3791   73.6559    1.0855 C   0  0  1  0  0  0  0  0  0  0  0  0
   22.9831   72.4725    1.8442 C   0  0  1  0  0  0  0  0  0  0  0  0
   21.3401   73.1729    0.0752 C   0  0  2  0  0  0  0  0  0  0  0  0
   23.4469   71.3738    0.8784 C   0  0  1  0  0  0  0  0  0  0  0  0
   21.8876   72.0468   -0.8034 C   0  0  1  0  0  0  0  0  0  0  0  0
   22.3983   74.8292    2.6770 H   0  0  0  0  0  0  0  0  0  0  0  0
   23.7763   73.6488    3.2167 H   0  0  0  0  0  0  0  0  0  0  0  0
   20.5765   74.9747   -0.1633 H   0  0  0  0  0  0  0  0  0  0  0  0
   23.3365   68.9894    0.9843 O   0  0  0  0  0  0  0  0  0  0  0  0
   23.9074   70.1195    1.6178 C   0  0  0  0  0  0  0  0  0  0  0  0
   23.6212   68.1836    1.4440 H   0  0  0  0  0  0  0  0  0  0  0  0
 25 28  1  0
 25 24  1  0
 25 26  1  6
 25 27  2  0
  1  4  1  0
  1 24  1  0
  1  2  1  1
  1  3  2  0
  6 11  1  0
  6 12  1  0
 29 36  1  0
 29 37  1  0
  9  7  1  6
  7 13  1  0
 10  8  1  6
  8 14  1  0
 37 28  1  1
  4  5  1  0
 33 30  1  1
 30 38  1  0
 34 31  1  6
 31 39  1  0
 35 32  1  6
 32 40  1  0
 41 42  1  0
 41 43  1  0
 15 19  2  0
 16 22  2  0
 12 17  1  1
 17 19  1  0
 17 20  1  0
 18 19  1  0
 18 22  1  0
 18 23  1  0
  9 10  1  0
  9 11  1  0
 10 12  1  0
 11  5  1  1
 33 34  1  0
 33 35  1  0
 34 36  1  0
 35 37  1  0
 36 42  1  1
 20 21  2  0
 21 22  1  0
M  CHG  2   2  -1  26  -1
M  END
>  <COMPND>  (21) 
    8629 

>  <AUTHOR>  (21) 
    GENERATED BY OPEN BABEL 3.1.1

>  <MASTER>  (21) 
        0    0    0    0    0    0    0    0   58    0   58    0

>  <minimizedAffinity>  (21) 
-6.95906

>  <CNNscore>  (21) 
0.8435725570

>  <CNNaffinity>  (21) 
4.5181703568

>  <CNN_VS>  (21) 
3.8114044666

>  <CNNaffinity_variance>  (21) 
0.1653327495

$$$$
22
     RDKit          3D

 43 45  0  0  0  0  0  0  0  0999 V2000
   21.3941   69.5693   -2.0485 P   0  0  2  0  0  0  0  0  0  0  0  0
   21.5876   70.1991   -3.5261 O   0  0  0  0  0  0  0  0  0  0  0  0
   22.3912   68.5123   -1.6745 O   0  0  0  0  0  0  0  0  0  0  0  0
   19.8422   69.1124   -2.0212 O   0  0  0  0  0  0  0  0  0  0  0  0
   19.1287   69.0685   -3.2446 C   0  0  0  0  0  0  0  0  0  0  0  0
   18.1882   71.1170   -4.0770 O   0  0  0  0  0  0  0  0  0  0  0  0
   15.5677   70.1313   -3.0037 O   0  0  0  0  0  0  0  0  0  0  0  0
   15.3606   69.5888   -5.6682 O   0  0  0  0  0  0  0  0  0  0  0  0
   16.6312   69.3942   -3.6045 C   0  0  1  0  0  0  0  0  0  0  0  0
   16.6540   69.6286   -5.1005 C   0  0  2  0  0  0  0  0  0  0  0  0
   17.9464   70.0244   -3.1637 C   0  0  1  0  0  0  0  0  0  0  0  0
   17.2915   71.0045   -5.1941 C   0  0  2  0  0  0  0  0  0  0  0  0
   14.7172   69.7471   -3.2704 H   0  0  0  0  0  0  0  0  0  0  0  0
   14.9978   68.6933   -5.5839 H   0  0  0  0  0  0  0  0  0  0  0  0
   16.1606   71.8043   -7.6557 O   0  0  0  0  0  0  0  0  0  0  0  0
   20.2425   71.6508   -9.7901 O   0  0  0  0  0  0  0  0  0  0  0  0
   18.0356   71.1818   -6.4091 N   0  0  0  0  0  0  0  0  0  0  0  0
   18.1940   71.7274   -8.7164 N   0  0  0  0  0  0  0  0  0  0  0  0
   17.3720   71.5850   -7.5913 C   0  0  0  0  0  0  0  0  0  0  0  0
   19.4079   70.9568   -6.4204 C   0  0  0  0  0  0  0  0  0  0  0  0
   20.1773   71.0958   -7.5020 C   0  0  0  0  0  0  0  0  0  0  0  0
   19.5621   71.5143   -8.7781 C   0  0  0  0  0  0  0  0  0  0  0  0
   17.7535   72.0071   -9.5515 H   0  0  0  0  0  0  0  0  0  0  0  0
   21.4057   70.8733   -1.0932 O   0  0  0  0  0  0  0  0  0  0  0  0
   21.8831   72.3917   -1.3753 P   0  0  2  0  0  0  0  0  0  0  0  0
   20.5412   73.1056   -1.9294 O   0  0  0  0  0  0  0  0  0  0  0  0
   23.0676   72.5042   -2.2909 O   0  0  0  0  0  0  0  0  0  0  0  0
   22.1080   73.0282    0.0907 O   0  0  0  0  0  0  0  0  0  0  0  0
   24.0457   72.8683    1.4458 O   0  0  0  0  0  0  0  0  0  0  0  0
   21.1755   72.9993    4.4115 O   0  0  0  0  0  0  0  0  0  0  0  0
   22.8582   75.2834    3.9648 O   0  0  0  0  0  0  0  0  0  0  0  0
   20.6649   71.5272    1.9719 O   0  0  0  0  0  0  0  0  0  0  0  0
   21.7573   73.3242    3.1461 C   0  0  1  0  0  0  0  0  0  0  0  0
   23.1066   74.0000    3.3979 C   0  0  1  0  0  0  0  0  0  0  0  0
   21.9410   72.0416    2.3371 C   0  0  2  0  0  0  0  0  0  0  0  0
   23.9090   74.1367    2.0969 C   0  0  1  0  0  0  0  0  0  0  0  0
   22.7941   72.2780    1.0895 C   0  0  1  0  0  0  0  0  0  0  0  0
   21.0557   73.8095    4.9300 H   0  0  0  0  0  0  0  0  0  0  0  0
   22.3504   75.1830    4.7854 H   0  0  0  0  0  0  0  0  0  0  0  0
   20.1346   71.3815    2.7704 H   0  0  0  0  0  0  0  0  0  0  0  0
   25.7119   74.2928    3.6571 O   0  0  0  0  0  0  0  0  0  0  0  0
   25.3202   74.6636    2.3481 C   0  0  0  0  0  0  0  0  0  0  0  0
   26.6084   74.6212    3.8309 H   0  0  0  0  0  0  0  0  0  0  0  0
 25 28  1  0
 25 24  1  0
 25 26  1  6
 25 27  2  0
  1  4  1  0
  1 24  1  0
  1  2  1  6
  1  3  2  0
  6 11  1  0
  6 12  1  0
 29 36  1  0
 29 37  1  0
  9  7  1  1
  7 13  1  0
 10  8  1  1
  8 14  1  0
 37 28  1  6
  4  5  1  0
 33 30  1  1
 30 38  1  0
 34 31  1  6
 31 39  1  0
 35 32  1  6
 32 40  1  0
 41 42  1  0
 41 43  1  0
 15 19  2  0
 16 22  2  0
 12 17  1  6
 17 19  1  0
 17 20  1  0
 18 19  1  0
 18 22  1  0
 18 23  1  0
  9 10  1  0
  9 11  1  0
 10 12  1  0
 11  5  1  6
 33 34  1  0
 33 35  1  0
 34 36  1  0
 35 37  1  0
 36 42  1  1
 20 21  2  0
 21 22  1  0
M  CHG  2   2  -1  26  -1
M  END
>  <COMPND>  (22) 
    8629 

>  <AUTHOR>  (22) 
    GENERATED BY OPEN BABEL 3.1.1

>  <MASTER>  (22) 
        0    0    0    0    0    0    0    0   58    0   58    0

>  <minimizedAffinity>  (22) 
-7.27611

>  <CNNscore>  (22) 
0.8421611190

>  <CNNaffinity>  (22) 
4.6281752586

>  <CNN_VS>  (22) 
3.8976693153

>  <CNNaffinity_variance>  (22) 
0.0231516119

$$$$
23
     RDKit          3D

 43 45  0  0  0  0  0  0  0  0999 V2000
   21.3434   70.0122   -2.6946 P   0  0  2  0  0  0  0  0  0  0  0  0
   20.3353   70.3032   -1.4632 O   0  0  0  0  0  0  0  0  0  0  0  0
   22.2655   71.1445   -3.0398 O   0  0  0  0  0  0  0  0  0  0  0  0
   20.3684   69.5121   -3.8850 O   0  0  0  0  0  0  0  0  0  0  0  0
   19.1911   68.8023   -3.5415 C   0  0  0  0  0  0  0  0  0  0  0  0
   18.3053   70.9275   -4.2288 O   0  0  0  0  0  0  0  0  0  0  0  0
   15.6775   69.9715   -3.1464 O   0  0  0  0  0  0  0  0  0  0  0  0
   15.3870   69.5942   -5.8315 O   0  0  0  0  0  0  0  0  0  0  0  0
   16.6990   69.2347   -3.8165 C   0  0  1  0  0  0  0  0  0  0  0  0
   16.6943   69.5558   -5.2965 C   0  0  2  0  0  0  0  0  0  0  0  0
   18.0464   69.7921   -3.3744 C   0  0  1  0  0  0  0  0  0  0  0  0
   17.3784   70.9120   -5.3268 C   0  0  2  0  0  0  0  0  0  0  0  0
   14.8076   69.6332   -3.4126 H   0  0  0  0  0  0  0  0  0  0  0  0
   14.9943   68.7083   -5.7899 H   0  0  0  0  0  0  0  0  0  0  0  0
   16.2113   71.8605   -7.7177 O   0  0  0  0  0  0  0  0  0  0  0  0
   20.2398   71.7271   -9.9526 O   0  0  0  0  0  0  0  0  0  0  0  0
   18.0990   71.1347   -6.5485 N   0  0  0  0  0  0  0  0  0  0  0  0
   18.2181   71.7935   -8.8285 N   0  0  0  0  0  0  0  0  0  0  0  0
   17.4185   71.6119   -7.6929 C   0  0  0  0  0  0  0  0  0  0  0  0
   19.4652   70.8808   -6.6034 C   0  0  0  0  0  0  0  0  0  0  0  0
   20.2131   71.0579   -7.6945 C   0  0  0  0  0  0  0  0  0  0  0  0
   19.5792   71.5540   -8.9330 C   0  0  0  0  0  0  0  0  0  0  0  0
   17.7655   72.1249   -9.6378 H   0  0  0  0  0  0  0  0  0  0  0  0
   22.0892   68.6520   -2.2401 O   0  0  0  0  0  0  0  0  0  0  0  0
   23.2315   68.3886   -1.1272 P   0  0  2  0  0  0  0  0  0  0  0  0
   24.5520   69.0508   -1.7870 O   0  0  0  0  0  0  0  0  0  0  0  0
   23.3903   66.9475   -0.7374 O   0  0  0  0  0  0  0  0  0  0  0  0
   22.8479   69.3732    0.0928 O   0  0  0  0  0  0  0  0  0  0  0  0
   23.3708   71.6795   -0.0612 O   0  0  0  0  0  0  0  0  0  0  0  0
   22.9931   71.3611    4.0384 O   0  0  0  0  0  0  0  0  0  0  0  0
   20.9594   72.7141    2.5279 O   0  0  0  0  0  0  0  0  0  0  0  0
   24.2281   69.2202    2.5315 O   0  0  0  0  0  0  0  0  0  0  0  0
   22.6836   71.0629    2.6743 C   0  0  1  0  0  0  0  0  0  0  0  0
   22.2298   72.3549    1.9919 C   0  0  1  0  0  0  0  0  0  0  0  0
   23.9295   70.5027    1.9907 C   0  0  2  0  0  0  0  0  0  0  0  0
   22.1365   72.1747    0.4708 C   0  0  1  0  0  0  0  0  0  0  0  0
   23.7484   70.4098    0.4746 C   0  0  1  0  0  0  0  0  0  0  0  0
   22.2060   71.7167    4.4783 H   0  0  0  0  0  0  0  0  0  0  0  0
   21.0320   72.8243    3.4890 H   0  0  0  0  0  0  0  0  0  0  0  0
   24.3407   69.2925    3.4917 H   0  0  0  0  0  0  0  0  0  0  0  0
   22.5665   73.5177   -1.4580 O   0  0  0  0  0  0  0  0  0  0  0  0
   21.8390   73.4911   -0.2438 C   0  0  0  0  0  0  0  0  0  0  0  0
   22.3866   74.3498   -1.9239 H   0  0  0  0  0  0  0  0  0  0  0  0
 25 28  1  0
 25 24  1  0
 25 26  1  6
 25 27  2  0
  1  4  1  0
  1 24  1  0
  1  2  1  1
  1  3  2  0
  6 11  1  0
  6 12  1  0
 29 36  1  0
 29 37  1  0
  9  7  1  1
  7 13  1  0
 10  8  1  1
  8 14  1  0
 37 28  1  1
  4  5  1  0
 33 30  1  1
 30 38  1  0
 34 31  1  1
 31 39  1  0
 35 32  1  1
 32 40  1  0
 41 42  1  0
 41 43  1  0
 15 19  2  0
 16 22  2  0
 12 17  1  6
 17 19  1  0
 17 20  1  0
 18 19  1  0
 18 22  1  0
 18 23  1  0
  9 10  1  0
  9 11  1  0
 10 12  1  0
 11  5  1  6
 33 34  1  0
 33 35  1  0
 34 36  1  0
 35 37  1  0
 36 42  1  6
 20 21  2  0
 21 22  1  0
M  CHG  2   2  -1  26  -1
M  END
>  <COMPND>  (23) 
    8629 

>  <AUTHOR>  (23) 
    GENERATED BY OPEN BABEL 3.1.1

>  <MASTER>  (23) 
        0    0    0    0    0    0    0    0   58    0   58    0

>  <minimizedAffinity>  (23) 
-8.33531

>  <CNNscore>  (23) 
0.8151375651

>  <CNNaffinity>  (23) 
4.6159095764

>  <CNN_VS>  (23) 
3.7626013756

>  <CNNaffinity_variance>  (23) 
0.0847324356

$$$$
24
     RDKit          3D

 43 45  0  0  0  0  0  0  0  0999 V2000
   22.4805   69.8081   -2.2655 P   0  0  2  0  0  0  0  0  0  0  0  0
   23.7169   70.3497   -3.1574 O   0  0  0  0  0  0  0  0  0  0  0  0
   22.5644   68.3608   -1.8785 O   0  0  0  0  0  0  0  0  0  0  0  0
   21.1719   70.2329   -3.1170 O   0  0  0  0  0  0  0  0  0  0  0  0
   20.0604   69.3542   -3.1321 C   0  0  0  0  0  0  0  0  0  0  0  0
   18.7256   71.1184   -4.0699 O   0  0  0  0  0  0  0  0  0  0  0  0
   16.4654   70.0262   -2.4300 O   0  0  0  0  0  0  0  0  0  0  0  0
   15.9292   69.0375   -4.9143 O   0  0  0  0  0  0  0  0  0  0  0  0
   17.5166   69.3282   -3.0957 C   0  0  1  0  0  0  0  0  0  0  0  0
   17.2761   69.3173   -4.5909 C   0  0  2  0  0  0  0  0  0  0  0  0
   18.7825   70.1685   -2.9833 C   0  0  1  0  0  0  0  0  0  0  0  0
   17.6925   70.7236   -4.9873 C   0  0  2  0  0  0  0  0  0  0  0  0
   15.6464   69.5087   -2.4881 H   0  0  0  0  0  0  0  0  0  0  0  0
   15.7128   68.1319   -4.6426 H   0  0  0  0  0  0  0  0  0  0  0  0
   16.1051   70.5708   -7.3186 O   0  0  0  0  0  0  0  0  0  0  0  0
   19.7817   70.9695  -10.0690 O   0  0  0  0  0  0  0  0  0  0  0  0
   18.2087   70.7852   -6.3256 N   0  0  0  0  0  0  0  0  0  0  0  0
   17.9370   70.7696   -8.6862 N   0  0  0  0  0  0  0  0  0  0  0  0
   17.3264   70.6982   -7.4276 C   0  0  0  0  0  0  0  0  0  0  0  0
   19.5758   70.9307   -6.5350 C   0  0  0  0  0  0  0  0  0  0  0  0
   20.1424   70.9959   -7.7416 C   0  0  0  0  0  0  0  0  0  0  0  0
   19.2909   70.9127   -8.9458 C   0  0  0  0  0  0  0  0  0  0  0  0
   17.3421   70.7108   -9.4687 H   0  0  0  0  0  0  0  0  0  0  0  0
   22.4530   70.8372   -1.0193 O   0  0  0  0  0  0  0  0  0  0  0  0
   21.9485   72.3697   -0.9191 P   0  0  2  0  0  0  0  0  0  0  0  0
   20.3824   72.2208   -0.5413 O   0  0  0  0  0  0  0  0  0  0  0  0
   22.2137   73.1866   -2.1504 O   0  0  0  0  0  0  0  0  0  0  0  0
   22.6392   72.9401    0.4235 O   0  0  0  0  0  0  0  0  0  0  0  0
   21.8520   74.3296    2.1745 O   0  0  0  0  0  0  0  0  0  0  0  0
   25.6470   75.8988    1.7424 O   0  0  0  0  0  0  0  0  0  0  0  0
   25.0289   74.2962    4.0441 O   0  0  0  0  0  0  0  0  0  0  0  0
   24.1508   75.0741   -0.5944 O   0  0  0  0  0  0  0  0  0  0  0  0
   24.6570   74.8667    1.7512 C   0  0  1  0  0  0  0  0  0  0  0  0
   24.0419   74.8041    3.1507 C   0  0  1  0  0  0  0  0  0  0  0  0
   23.5889   75.1906    0.7084 C   0  0  2  0  0  0  0  0  0  0  0  0
   22.7946   73.9101    3.1681 C   0  0  1  0  0  0  0  0  0  0  0  0
   22.3709   74.2751    0.8442 C   0  0  1  0  0  0  0  0  0  0  0  0
   26.3284   75.6990    2.4021 H   0  0  0  0  0  0  0  0  0  0  0  0
   25.8113   74.8694    4.0232 H   0  0  0  0  0  0  0  0  0  0  0  0
   24.9207   75.6587   -0.6678 H   0  0  0  0  0  0  0  0  0  0  0  0
   20.7631   73.4555    4.3408 O   0  0  0  0  0  0  0  0  0  0  0  0
   22.0751   73.9584    4.5142 C   0  0  0  0  0  0  0  0  0  0  0  0
   20.2933   73.4799    5.1895 H   0  0  0  0  0  0  0  0  0  0  0  0
 25 28  1  0
 25 24  1  0
 25 26  1  1
 25 27  2  0
  1  4  1  0
  1 24  1  0
  1  2  1  6
  1  3  2  0
  6 11  1  0
  6 12  1  0
 29 36  1  0
 29 37  1  0
  9  7  1  1
  7 13  1  0
 10  8  1  1
  8 14  1  0
 37 28  1  1
  4  5  1  0
 33 30  1  1
 30 38  1  0
 34 31  1  1
 31 39  1  0
 35 32  1  6
 32 40  1  0
 41 42  1  0
 41 43  1  0
 15 19  2  0
 16 22  2  0
 12 17  1  6
 17 19  1  0
 17 20  1  0
 18 19  1  0
 18 22  1  0
 18 23  1  0
  9 10  1  0
  9 11  1  0
 10 12  1  0
 11  5  1  6
 33 34  1  0
 33 35  1  0
 34 36  1  0
 35 37  1  0
 36 42  1  1
 20 21  2  0
 21 22  1  0
M  CHG  2   2  -1  26  -1
M  END
>  <COMPND>  (24) 
    8629 

>  <AUTHOR>  (24) 
    GENERATED BY OPEN BABEL 3.1.1

>  <MASTER>  (24) 
        0    0    0    0    0    0    0    0   58    0   58    0

>  <minimizedAffinity>  (24) 
-7.20770

>  <CNNscore>  (24) 
0.7203362584

>  <CNNaffinity>  (24) 
4.6487874985

>  <CNN_VS>  (24) 
3.3486902714

>  <CNNaffinity_variance>  (24) 
0.0865318030

$$$$
25
     RDKit          3D

 43 45  0  0  0  0  0  0  0  0999 V2000
   22.6398   72.8830   -3.6950 P   0  0  2  0  0  0  0  0  0  0  0  0
   22.5378   73.9240   -2.4607 O   0  0  0  0  0  0  0  0  0  0  0  0
   23.9382   72.9161   -4.4464 O   0  0  0  0  0  0  0  0  0  0  0  0
   21.3135   73.1873   -4.5703 O   0  0  0  0  0  0  0  0  0  0  0  0
   21.0350   74.5288   -4.9317 C   0  0  0  0  0  0  0  0  0  0  0  0
   20.9107   73.4569   -7.0786 O   0  0  0  0  0  0  0  0  0  0  0  0
   21.0118   76.2142   -8.2525 O   0  0  0  0  0  0  0  0  0  0  0  0
   18.3584   75.6025   -8.3996 O   0  0  0  0  0  0  0  0  0  0  0  0
   20.3779   75.7658   -7.0556 C   0  0  1  0  0  0  0  0  0  0  0  0
   19.1241   74.9833   -7.3861 C   0  0  2  0  0  0  0  0  0  0  0  0
   21.2636   74.6970   -6.4275 C   0  0  1  0  0  0  0  0  0  0  0  0
   19.6941   73.6435   -7.8200 C   0  0  2  0  0  0  0  0  0  0  0  0
   20.4648   76.8977   -8.6714 H   0  0  0  0  0  0  0  0  0  0  0  0
   18.0180   76.4508   -8.0752 H   0  0  0  0  0  0  0  0  0  0  0  0
   19.1475   71.5270   -9.6087 O   0  0  0  0  0  0  0  0  0  0  0  0
   16.2620   69.5133   -6.6321 O   0  0  0  0  0  0  0  0  0  0  0  0
   18.8042   72.5526   -7.5381 N   0  0  0  0  0  0  0  0  0  0  0  0
   17.7113   70.5259   -8.1251 N   0  0  0  0  0  0  0  0  0  0  0  0
   18.5984   71.5412   -8.5051 C   0  0  0  0  0  0  0  0  0  0  0  0
   18.1468   72.4931   -6.3141 C   0  0  0  0  0  0  0  0  0  0  0  0
   17.3030   71.5188   -5.9676 C   0  0  0  0  0  0  0  0  0  0  0  0
   17.0328   70.4234   -6.9210 C   0  0  0  0  0  0  0  0  0  0  0  0
   17.5522   69.8106   -8.7829 H   0  0  0  0  0  0  0  0  0  0  0  0
   22.2998   71.4629   -3.0018 O   0  0  0  0  0  0  0  0  0  0  0  0
   21.0808   71.0167   -2.0385 P   0  0  2  0  0  0  0  0  0  0  0  0
   20.4709   69.7194   -2.7886 O   0  0  0  0  0  0  0  0  0  0  0  0
   20.0805   72.1031   -1.7685 O   0  0  0  0  0  0  0  0  0  0  0  0
   21.7981   70.4250   -0.7193 O   0  0  0  0  0  0  0  0  0  0  0  0
   23.3478   72.0494    0.0401 O   0  0  0  0  0  0  0  0  0  0  0  0
   24.1528   69.0477    2.7590 O   0  0  0  0  0  0  0  0  0  0  0  0
   22.7449   71.3989    3.6181 O   0  0  0  0  0  0  0  0  0  0  0  0
   23.5825   68.3821    0.0002 O   0  0  0  0  0  0  0  0  0  0  0  0
   23.3295   69.8411    1.8999 C   0  0  1  0  0  0  0  0  0  0  0  0
   23.4141   71.2964    2.3643 C   0  0  1  0  0  0  0  0  0  0  0  0
   23.8306   69.7052    0.4633 C   0  0  2  0  0  0  0  0  0  0  0  0
   22.7758   72.2431    1.3390 C   0  0  1  0  0  0  0  0  0  0  0  0
   23.1681   70.7248   -0.4649 C   0  0  1  0  0  0  0  0  0  0  0  0
   23.8396   69.1292    3.6727 H   0  0  0  0  0  0  0  0  0  0  0  0
   23.1573   70.7957    4.2564 H   0  0  0  0  0  0  0  0  0  0  0  0
   24.0074   67.7462    0.5959 H   0  0  0  0  0  0  0  0  0  0  0  0
   23.8214   73.7719    2.8484 O   0  0  0  0  0  0  0  0  0  0  0  0
   22.9881   73.7103    1.7056 C   0  0  0  0  0  0  0  0  0  0  0  0
   23.9654   74.6999    3.0932 H   0  0  0  0  0  0  0  0  0  0  0  0
 25 28  1  0
 25 24  1  0
 25 26  1  6
 25 27  2  0
  1  4  1  0
  1 24  1  0
  1  2  1  1
  1  3  2  0
  6 11  1  0
  6 12  1  0
 29 36  1  0
 29 37  1  0
  9  7  1  6
  7 13  1  0
 10  8  1  6
  8 14  1  0
 37 28  1  1
  4  5  1  0
 33 30  1  1
 30 38  1  0
 34 31  1  1
 31 39  1  0
 35 32  1  6
 32 40  1  0
 41 42  1  0
 41 43  1  0
 15 19  2  0
 16 22  2  0
 12 17  1  1
 17 19  1  0
 17 20  1  0
 18 19  1  0
 18 22  1  0
 18 23  1  0
  9 10  1  0
  9 11  1  0
 10 12  1  0
 11  5  1  1
 33 34  1  0
 33 35  1  0
 34 36  1  0
 35 37  1  0
 36 42  1  1
 20 21  2  0
 21 22  1  0
M  CHG  2   2  -1  26  -1
M  END
>  <COMPND>  (25) 
    8629 

>  <AUTHOR>  (25) 
    GENERATED BY OPEN BABEL 3.1.1

>  <MASTER>  (25) 
        0    0    0    0    0    0    0    0   58    0   58    0

>  <minimizedAffinity>  (25) 
-7.53081

>  <CNNscore>  (25) 
0.6183581948

>  <CNNaffinity>  (25) 
4.3187384605

>  <CNN_VS>  (25) 
2.6705272198

>  <CNNaffinity_variance>  (25) 
0.0357826464

$$$$
26
     RDKit          3D

 43 45  0  0  0  0  0  0  0  0999 V2000
   19.8379   70.1928   -2.6361 P   0  0  2  0  0  0  0  0  0  0  0  0
   20.8317   69.6730   -3.8021 O   0  0  0  0  0  0  0  0  0  0  0  0
   18.8113   69.1949   -2.1870 O   0  0  0  0  0  0  0  0  0  0  0  0
   19.2562   71.5874   -3.2147 O   0  0  0  0  0  0  0  0  0  0  0  0
   17.8512   71.7506   -3.2995 C   0  0  0  0  0  0  0  0  0  0  0  0
   18.3338   73.5281   -4.8427 O   0  0  0  0  0  0  0  0  0  0  0  0
   15.7803   74.7867   -3.9013 O   0  0  0  0  0  0  0  0  0  0  0  0
   15.0476   73.6584   -6.2733 O   0  0  0  0  0  0  0  0  0  0  0  0
   16.0897   73.4070   -4.0911 C   0  0  1  0  0  0  0  0  0  0  0  0
   16.1238   73.0741   -5.5681 C   0  0  2  0  0  0  0  0  0  0  0  0
   17.5416   73.1912   -3.6828 C   0  0  1  0  0  0  0  0  0  0  0  0
   17.4714   73.6368   -5.9869 C   0  0  2  0  0  0  0  0  0  0  0  0
   14.8577   74.9489   -4.1551 H   0  0  0  0  0  0  0  0  0  0  0  0
   14.2129   73.2675   -5.9714 H   0  0  0  0  0  0  0  0  0  0  0  0
   17.1012   74.2847   -8.7111 O   0  0  0  0  0  0  0  0  0  0  0  0
   19.7496   70.7756  -10.0945 O   0  0  0  0  0  0  0  0  0  0  0  0
   18.0528   72.9097   -7.0799 N   0  0  0  0  0  0  0  0  0  0  0  0
   18.4203   72.5370   -9.3977 N   0  0  0  0  0  0  0  0  0  0  0  0
   17.8036   73.3170   -8.4112 C   0  0  0  0  0  0  0  0  0  0  0  0
   18.8604   71.8062   -6.8265 C   0  0  0  0  0  0  0  0  0  0  0  0
   19.4401   71.0723   -7.7785 C   0  0  0  0  0  0  0  0  0  0  0  0
   19.2304   71.4307   -9.1961 C   0  0  0  0  0  0  0  0  0  0  0  0
   18.2606   72.8018  -10.3327 H   0  0  0  0  0  0  0  0  0  0  0  0
   20.8573   70.6767   -1.4787 O   0  0  0  0  0  0  0  0  0  0  0  0
   21.8390   69.8348   -0.5089 P   0  0  2  0  0  0  0  0  0  0  0  0
   20.8437   68.7695    0.1924 O   0  0  0  0  0  0  0  0  0  0  0  0
   22.6227   70.6777    0.4551 O   0  0  0  0  0  0  0  0  0  0  0  0
   22.7428   68.9497   -1.5113 O   0  0  0  0  0  0  0  0  0  0  0  0
   23.5952   66.7622   -1.1872 O   0  0  0  0  0  0  0  0  0  0  0  0
   26.6916   68.3548   -3.4068 O   0  0  0  0  0  0  0  0  0  0  0  0
   24.9222   66.4400   -4.6112 O   0  0  0  0  0  0  0  0  0  0  0  0
   25.3507   69.9821   -1.4235 O   0  0  0  0  0  0  0  0  0  0  0  0
   25.3282   68.1740   -3.0146 C   0  0  1  0  0  0  0  0  0  0  0  0
   24.9640   66.7011   -3.2111 C   0  0  1  0  0  0  0  0  0  0  0  0
   25.1730   68.5753   -1.5489 C   0  0  2  0  0  0  0  0  0  0  0  0
   23.6104   66.3743   -2.5660 C   0  0  1  0  0  0  0  0  0  0  0  0
   23.8100   68.1613   -0.9912 C   0  0  1  0  0  0  0  0  0  0  0  0
   26.7969   68.1022   -4.3366 H   0  0  0  0  0  0  0  0  0  0  0  0
   25.7827   66.6509   -5.0065 H   0  0  0  0  0  0  0  0  0  0  0  0
   26.2172   70.2315   -1.7797 H   0  0  0  0  0  0  0  0  0  0  0  0
   23.0257   64.5190   -3.9534 O   0  0  0  0  0  0  0  0  0  0  0  0
   23.3008   64.8796   -2.6123 C   0  0  0  0  0  0  0  0  0  0  0  0
   22.8271   63.5702   -3.9982 H   0  0  0  0  0  0  0  0  0  0  0  0
 25 28  1  0
 25 24  1  0
 25 26  1  1
 25 27  2  0
  1  4  1  0
  1 24  1  0
  1  2  1  6
  1  3  2  0
  6 11  1  0
  6 12  1  0
 29 36  1  0
 29 37  1  0
  9  7  1  6
  7 13  1  0
 10  8  1  6
  8 14  1  0
 37 28  1  6
  4  5  1  0
 33 30  1  1
 30 38  1  0
 34 31  1  6
 31 39  1  0
 35 32  1  6
 32 40  1  0
 41 42  1  0
 41 43  1  0
 15 19  2  0
 16 22  2  0
 12 17  1  6
 17 19  1  0
 17 20  1  0
 18 19  1  0
 18 22  1  0
 18 23  1  0
  9 10  1  0
  9 11  1  0
 10 12  1  0
 11  5  1  6
 33 34  1  0
 33 35  1  0
 34 36  1  0
 35 37  1  0
 36 42  1  1
 20 21  2  0
 21 22  1  0
M  CHG  2   2  -1  26  -1
M  END
>  <COMPND>  (26) 
    8629 

>  <AUTHOR>  (26) 
    GENERATED BY OPEN BABEL 3.1.1

>  <MASTER>  (26) 
        0    0    0    0    0    0    0    0   58    0   58    0

>  <minimizedAffinity>  (26) 
-7.51975

>  <CNNscore>  (26) 
0.6000703573

>  <CNNaffinity>  (26) 
4.6773633957

>  <CNN_VS>  (26) 
2.8067471981

>  <CNNaffinity_variance>  (26) 
0.0468141884

$$$$
27
     RDKit          3D

 43 45  0  0  0  0  0  0  0  0999 V2000
   23.0334   69.3082   -2.1542 P   0  0  2  0  0  0  0  0  0  0  0  0
   24.0200   69.9393   -3.2703 O   0  0  0  0  0  0  0  0  0  0  0  0
   23.2028   67.8361   -1.9181 O   0  0  0  0  0  0  0  0  0  0  0  0
   21.5596   69.7788   -2.6279 O   0  0  0  0  0  0  0  0  0  0  0  0
   21.4572   70.8123   -3.5919 C   0  0  0  0  0  0  0  0  0  0  0  0
   19.7538   72.1580   -4.6221 O   0  0  0  0  0  0  0  0  0  0  0  0
   18.0562   71.5002   -2.2396 O   0  0  0  0  0  0  0  0  0  0  0  0
   17.0970   69.7972   -4.1413 O   0  0  0  0  0  0  0  0  0  0  0  0
   19.0055   70.6842   -2.9239 C   0  0  1  0  0  0  0  0  0  0  0  0
   18.4408   70.2203   -4.2503 C   0  0  2  0  0  0  0  0  0  0  0  0
   20.1598   71.5760   -3.3640 C   0  0  1  0  0  0  0  0  0  0  0  0
   18.5945   71.4633   -5.1102 C   0  0  2  0  0  0  0  0  0  0  0  0
   17.3097   70.9525   -1.9485 H   0  0  0  0  0  0  0  0  0  0  0  0
   17.0518   69.0039   -3.5850 H   0  0  0  0  0  0  0  0  0  0  0  0
   16.5144   70.8064   -6.9046 O   0  0  0  0  0  0  0  0  0  0  0  0
   19.4588   70.2738  -10.4100 O   0  0  0  0  0  0  0  0  0  0  0  0
   18.7891   71.1489   -6.4975 N   0  0  0  0  0  0  0  0  0  0  0  0
   17.9822   70.5419   -8.6486 N   0  0  0  0  0  0  0  0  0  0  0  0
   17.6774   70.8316   -7.3124 C   0  0  0  0  0  0  0  0  0  0  0  0
   20.0708   71.1576   -7.0369 C   0  0  0  0  0  0  0  0  0  0  0  0
   20.3447   70.8777   -8.3128 C   0  0  0  0  0  0  0  0  0  0  0  0
   19.2395   70.5360   -9.2314 C   0  0  0  0  0  0  0  0  0  0  0  0
   17.2235   70.3176   -9.2350 H   0  0  0  0  0  0  0  0  0  0  0  0
   23.3113   70.2337   -0.8584 O   0  0  0  0  0  0  0  0  0  0  0  0
   22.7434   70.1430    0.6523 P   0  0  2  0  0  0  0  0  0  0  0  0
   23.6235   68.9547    1.3088 O   0  0  0  0  0  0  0  0  0  0  0  0
   21.2591   69.9356    0.7404 O   0  0  0  0  0  0  0  0  0  0  0  0
   23.2745   71.4877    1.3698 O   0  0  0  0  0  0  0  0  0  0  0  0
   22.6039   73.3281    2.7040 O   0  0  0  0  0  0  0  0  0  0  0  0
   23.8198   75.3697   -0.6730 O   0  0  0  0  0  0  0  0  0  0  0  0
   25.4277   75.4765    1.7042 O   0  0  0  0  0  0  0  0  0  0  0  0
   22.4266   72.8458   -0.9349 O   0  0  0  0  0  0  0  0  0  0  0  0
   23.8632   74.3281    0.3061 C   0  0  1  0  0  0  0  0  0  0  0  0
   24.0971   74.9675    1.6763 C   0  0  1  0  0  0  0  0  0  0  0  0
   22.5379   73.5688    0.2863 C   0  0  2  0  0  0  0  0  0  0  0  0
   23.8908   73.9488    2.8054 C   0  0  1  0  0  0  0  0  0  0  0  0
   22.4136   72.6183    1.4784 C   0  0  1  0  0  0  0  0  0  0  0  0
   24.6586   75.8554   -0.6659 H   0  0  0  0  0  0  0  0  0  0  0  0
   25.5449   76.1181    0.9861 H   0  0  0  0  0  0  0  0  0  0  0  0
   22.5066   73.4586   -1.6819 H   0  0  0  0  0  0  0  0  0  0  0  0
   25.2795   75.0850    4.3831 O   0  0  0  0  0  0  0  0  0  0  0  0
   23.9641   74.6009    4.1843 C   0  0  0  0  0  0  0  0  0  0  0  0
   25.3410   75.5030    5.2568 H   0  0  0  0  0  0  0  0  0  0  0  0
 25 28  1  0
 25 24  1  0
 25 26  1  1
 25 27  2  0
  1  4  1  0
  1 24  1  0
  1  2  1  6
  1  3  2  0
  6 11  1  0
  6 12  1  0
 29 36  1  0
 29 37  1  0
  9  7  1  6
  7 13  1  0
 10  8  1  1
  8 14  1  0
 37 28  1  6
  4  5  1  0
 33 30  1  6
 30 38  1  0
 34 31  1  6
 31 39  1  0
 35 32  1  6
 32 40  1  0
 41 42  1  0
 41 43  1  0
 15 19  2  0
 16 22  2  0
 12 17  1  6
 17 19  1  0
 17 20  1  0
 18 19  1  0
 18 22  1  0
 18 23  1  0
  9 10  1  0
  9 11  1  0
 10 12  1  0
 11  5  1  6
 33 34  1  0
 33 35  1  0
 34 36  1  0
 35 37  1  0
 36 42  1  1
 20 21  2  0
 21 22  1  0
M  CHG  2   2  -1  26  -1
M  END
>  <COMPND>  (27) 
    8629 

>  <AUTHOR>  (27) 
    GENERATED BY OPEN BABEL 3.1.1

>  <MASTER>  (27) 
        0    0    0    0    0    0    0    0   58    0   58    0

>  <minimizedAffinity>  (27) 
-7.59907

>  <CNNscore>  (27) 
0.5874179602

>  <CNNaffinity>  (27) 
4.5337605476

>  <CNN_VS>  (27) 
2.6632122993

>  <CNNaffinity_variance>  (27) 
0.0833335742

$$$$
28
     RDKit          3D

 43 45  0  0  0  0  0  0  0  0999 V2000
   22.2119   72.8057   -4.1763 P   0  0  2  0  0  0  0  0  0  0  0  0
   22.5407   74.3779   -3.9827 O   0  0  0  0  0  0  0  0  0  0  0  0
   23.3222   71.8736   -3.7892 O   0  0  0  0  0  0  0  0  0  0  0  0
   21.7087   72.7002   -5.7104 O   0  0  0  0  0  0  0  0  0  0  0  0
   20.4509   73.2578   -6.0493 C   0  0  0  0  0  0  0  0  0  0  0  0
   19.6894   71.1849   -6.9963 O   0  0  0  0  0  0  0  0  0  0  0  0
   18.4687   72.8447   -9.1748 O   0  0  0  0  0  0  0  0  0  0  0  0
   16.3252   72.2789   -7.5868 O   0  0  0  0  0  0  0  0  0  0  0  0
   18.5931   73.1329   -7.7832 C   0  0  1  0  0  0  0  0  0  0  0  0
   17.6035   72.3099   -6.9852 C   0  0  2  0  0  0  0  0  0  0  0  0
   19.9283   72.5753   -7.3060 C   0  0  1  0  0  0  0  0  0  0  0  0
   18.2727   70.9462   -6.9637 C   0  0  2  0  0  0  0  0  0  0  0  0
   17.6235   73.1916   -9.5024 H   0  0  0  0  0  0  0  0  0  0  0  0
   15.9411   73.1694   -7.5762 H   0  0  0  0  0  0  0  0  0  0  0  0
   15.8114   69.6326   -6.5231 O   0  0  0  0  0  0  0  0  0  0  0  0
   17.1571   68.1061   -2.3878 O   0  0  0  0  0  0  0  0  0  0  0  0
   17.9531   70.1978   -5.7809 N   0  0  0  0  0  0  0  0  0  0  0  0
   16.4835   68.8735   -4.4645 N   0  0  0  0  0  0  0  0  0  0  0  0
   16.6881   69.5772   -5.6582 C   0  0  0  0  0  0  0  0  0  0  0  0
   18.8888   70.0847   -4.7584 C   0  0  0  0  0  0  0  0  0  0  0  0
   18.6777   69.4111   -3.6257 C   0  0  0  0  0  0  0  0  0  0  0  0
   17.3817   68.7333   -3.4184 C   0  0  0  0  0  0  0  0  0  0  0  0
   15.6093   68.4332   -4.3567 H   0  0  0  0  0  0  0  0  0  0  0  0
   20.8468   72.6132   -3.3322 O   0  0  0  0  0  0  0  0  0  0  0  0
   20.4865   72.9774   -1.7991 P   0  0  2  0  0  0  0  0  0  0  0  0
   19.1252   72.1455   -1.5301 O   0  0  0  0  0  0  0  0  0  0  0  0
   20.3767   74.4496   -1.5258 O   0  0  0  0  0  0  0  0  0  0  0  0
   21.6089   72.2165   -0.9237 O   0  0  0  0  0  0  0  0  0  0  0  0
   22.1383   69.9101   -1.0528 O   0  0  0  0  0  0  0  0  0  0  0  0
   23.0757   70.5813    2.9122 O   0  0  0  0  0  0  0  0  0  0  0  0
   25.1849   70.1793    1.0049 O   0  0  0  0  0  0  0  0  0  0  0  0
   20.7721   71.8787    1.7335 O   0  0  0  0  0  0  0  0  0  0  0  0
   22.9680   70.9115    1.5249 C   0  0  1  0  0  0  0  0  0  0  0  0
   23.8124   69.9152    0.7278 C   0  0  1  0  0  0  0  0  0  0  0  0
   21.5016   70.8304    1.1048 C   0  0  2  0  0  0  0  0  0  0  0  0
   23.5382   70.0362   -0.7773 C   0  0  1  0  0  0  0  0  0  0  0  0
   21.3440   70.9120   -0.4146 C   0  0  1  0  0  0  0  0  0  0  0  0
   24.0043   70.6313    3.1855 H   0  0  0  0  0  0  0  0  0  0  0  0
   25.3446   70.1001    1.9586 H   0  0  0  0  0  0  0  0  0  0  0  0
   20.8797   71.8159    2.6949 H   0  0  0  0  0  0  0  0  0  0  0  0
   24.6018   69.4775   -2.8426 O   0  0  0  0  0  0  0  0  0  0  0  0
   24.2502   68.9478   -1.5776 C   0  0  0  0  0  0  0  0  0  0  0  0
   25.0561   68.7959   -3.3629 H   0  0  0  0  0  0  0  0  0  0  0  0
 25 28  1  0
 25 24  1  0
 25 26  1  1
 25 27  2  0
  1  4  1  0
  1 24  1  0
  1  2  1  6
  1  3  2  0
  6 11  1  0
  6 12  1  0
 29 36  1  0
 29 37  1  0
  9  7  1  6
  7 13  1  0
 10  8  1  6
  8 14  1  0
 37 28  1  6
  4  5  1  0
 33 30  1  1
 30 38  1  0
 34 31  1  6
 31 39  1  0
 35 32  1  1
 32 40  1  0
 41 42  1  0
 41 43  1  0
 15 19  2  0
 16 22  2  0
 12 17  1  1
 17 19  1  0
 17 20  1  0
 18 19  1  0
 18 22  1  0
 18 23  1  0
  9 10  1  0
  9 11  1  0
 10 12  1  0
 11  5  1  1
 33 34  1  0
 33 35  1  0
 34 36  1  0
 35 37  1  0
 36 42  1  6
 20 21  2  0
 21 22  1  0
M  CHG  2   2  -1  26  -1
M  END
>  <COMPND>  (28) 
    8629 

>  <AUTHOR>  (28) 
    GENERATED BY OPEN BABEL 3.1.1

>  <MASTER>  (28) 
        0    0    0    0    0    0    0    0   58    0   58    0

>  <minimizedAffinity>  (28) 
-7.67090

>  <CNNscore>  (28) 
0.5479926467

>  <CNNaffinity>  (28) 
4.2808365822

>  <CNN_VS>  (28) 
2.3458669186

>  <CNNaffinity_variance>  (28) 
0.5294757485

$$$$
29
     RDKit          3D

 43 45  0  0  0  0  0  0  0  0999 V2000
   21.8898   69.4684   -0.8156 P   0  0  2  0  0  0  0  0  0  0  0  0
   22.8841   68.5457   -1.6973 O   0  0  0  0  0  0  0  0  0  0  0  0
   20.9360   68.7129    0.0623 O   0  0  0  0  0  0  0  0  0  0  0  0
   21.2117   70.4571   -1.9022 O   0  0  0  0  0  0  0  0  0  0  0  0
   20.4937   69.8849   -2.9816 C   0  0  0  0  0  0  0  0  0  0  0  0
   18.5769   71.0425   -3.8531 O   0  0  0  0  0  0  0  0  0  0  0  0
   16.9243   69.1593   -2.2059 O   0  0  0  0  0  0  0  0  0  0  0  0
   16.7340   68.0862   -4.7056 O   0  0  0  0  0  0  0  0  0  0  0  0
   18.1432   68.9142   -2.9056 C   0  0  1  0  0  0  0  0  0  0  0  0
   17.8879   68.8410   -4.3966 C   0  0  2  0  0  0  0  0  0  0  0  0
   19.0088   70.1628   -2.7920 C   0  0  1  0  0  0  0  0  0  0  0  0
   17.7425   70.3081   -4.7637 C   0  0  2  0  0  0  0  0  0  0  0  0
   16.3550   68.3755   -2.2641 H   0  0  0  0  0  0  0  0  0  0  0  0
   16.8760   67.1604   -4.4536 H   0  0  0  0  0  0  0  0  0  0  0  0
   16.0887   70.0601   -7.0400 O   0  0  0  0  0  0  0  0  0  0  0  0
   19.4769   71.3799   -9.8718 O   0  0  0  0  0  0  0  0  0  0  0  0
   18.1665   70.5808   -6.1081 N   0  0  0  0  0  0  0  0  0  0  0  0
   17.7771   70.7176   -8.4481 N   0  0  0  0  0  0  0  0  0  0  0  0
   17.2580   70.4243   -7.1807 C   0  0  0  0  0  0  0  0  0  0  0  0
   19.4702   70.9989   -6.3522 C   0  0  0  0  0  0  0  0  0  0  0  0
   19.9500   71.2734   -7.5669 C   0  0  0  0  0  0  0  0  0  0  0  0
   19.0655   71.1351   -8.7419 C   0  0  0  0  0  0  0  0  0  0  0  0
   17.1623   70.6152   -9.2106 H   0  0  0  0  0  0  0  0  0  0  0  0
   22.9064   70.4431   -0.0222 O   0  0  0  0  0  0  0  0  0  0  0  0
   23.7869   70.1996    1.3113 P   0  0  2  0  0  0  0  0  0  0  0  0
   25.2715   70.6630    0.8654 O   0  0  0  0  0  0  0  0  0  0  0  0
   23.7110   68.8011    1.8521 O   0  0  0  0  0  0  0  0  0  0  0  0
   23.2950   71.3420    2.3399 O   0  0  0  0  0  0  0  0  0  0  0  0
   21.8595   73.2118    2.0950 O   0  0  0  0  0  0  0  0  0  0  0  0
   24.7701   74.9216    4.4732 O   0  0  0  0  0  0  0  0  0  0  0  0
   22.1965   74.3174    5.5954 O   0  0  0  0  0  0  0  0  0  0  0  0
   25.5189   73.0527    2.3932 O   0  0  0  0  0  0  0  0  0  0  0  0
   23.9241   73.8685    4.0034 C   0  0  1  0  0  0  0  0  0  0  0  0
   22.4690   74.2998    4.1969 C   0  0  1  0  0  0  0  0  0  0  0  0
   24.2175   73.6141    2.5260 C   0  0  2  0  0  0  0  0  0  0  0  0
   21.5076   73.3444    3.4771 C   0  0  1  0  0  0  0  0  0  0  0  0
   23.1746   72.6904    1.8940 C   0  0  1  0  0  0  0  0  0  0  0  0
   24.5892   75.0878    5.4108 H   0  0  0  0  0  0  0  0  0  0  0  0
   22.8106   74.9239    6.0382 H   0  0  0  0  0  0  0  0  0  0  0  0
   26.1699   73.6470    2.7969 H   0  0  0  0  0  0  0  0  0  0  0  0
   19.4877   73.4323    4.7504 O   0  0  0  0  0  0  0  0  0  0  0  0
   20.0647   73.8423    3.5243 C   0  0  0  0  0  0  0  0  0  0  0  0
   18.5692   73.7424    4.7945 H   0  0  0  0  0  0  0  0  0  0  0  0
 25 28  1  0
 25 24  1  0
 25 26  1  6
 25 27  2  0
  1  4  1  0
  1 24  1  0
  1  2  1  6
  1  3  2  0
  6 11  1  0
  6 12  1  0
 29 36  1  0
 29 37  1  0
  9  7  1  1
  7 13  1  0
 10  8  1  1
  8 14  1  0
 37 28  1  1
  4  5  1  0
 33 30  1  6
 30 38  1  0
 34 31  1  1
 31 39  1  0
 35 32  1  1
 32 40  1  0
 41 42  1  0
 41 43  1  0
 15 19  2  0
 16 22  2  0
 12 17  1  6
 17 19  1  0
 17 20  1  0
 18 19  1  0
 18 22  1  0
 18 23  1  0
  9 10  1  0
  9 11  1  0
 10 12  1  0
 11  5  1  6
 33 34  1  0
 33 35  1  0
 34 36  1  0
 35 37  1  0
 36 42  1  6
 20 21  2  0
 21 22  1  0
M  CHG  2   2  -1  26  -1
M  END
>  <COMPND>  (29) 
    8629 

>  <AUTHOR>  (29) 
    GENERATED BY OPEN BABEL 3.1.1

>  <MASTER>  (29) 
        0    0    0    0    0    0    0    0   58    0   58    0

>  <minimizedAffinity>  (29) 
-8.00597

>  <CNNscore>  (29) 
0.5386868119

>  <CNNaffinity>  (29) 
4.5052614212

>  <CNN_VS>  (29) 
2.4269249439

>  <CNNaffinity_variance>  (29) 
0.0813481882

$$$$
30
     RDKit          3D

 43 45  0  0  0  0  0  0  0  0999 V2000
   20.6613   69.7232   -2.7314 P   0  0  2  0  0  0  0  0  0  0  0  0
   20.1892   69.5946   -4.2734 O   0  0  0  0  0  0  0  0  0  0  0  0
   19.8942   68.8741   -1.7608 O   0  0  0  0  0  0  0  0  0  0  0  0
   20.6317   71.3159   -2.4476 O   0  0  0  0  0  0  0  0  0  0  0  0
   21.0495   72.1941   -3.4781 C   0  0  0  0  0  0  0  0  0  0  0  0
   19.8747   73.5531   -5.0740 O   0  0  0  0  0  0  0  0  0  0  0  0
   17.8676   74.0409   -2.9003 O   0  0  0  0  0  0  0  0  0  0  0  0
   16.6405   72.1441   -4.4277 O   0  0  0  0  0  0  0  0  0  0  0  0
   18.6100   72.8586   -3.1941 C   0  0  1  0  0  0  0  0  0  0  0  0
   18.0531   72.1812   -4.4288 C   0  0  2  0  0  0  0  0  0  0  0  0
   19.9978   73.2798   -3.6610 C   0  0  1  0  0  0  0  0  0  0  0  0
   18.6143   73.0473   -5.5436 C   0  0  2  0  0  0  0  0  0  0  0  0
   16.9776   73.7972   -2.5997 H   0  0  0  0  0  0  0  0  0  0  0  0
   16.3323   71.5807   -3.7008 H   0  0  0  0  0  0  0  0  0  0  0  0
   16.5627   72.2432   -7.3106 O   0  0  0  0  0  0  0  0  0  0  0  0
   19.5622   70.2143  -10.1615 O   0  0  0  0  0  0  0  0  0  0  0  0
   18.8309   72.3082   -6.7553 N   0  0  0  0  0  0  0  0  0  0  0  0
   18.0579   71.2338   -8.7288 N   0  0  0  0  0  0  0  0  0  0  0  0
   17.7320   71.9529   -7.5718 C   0  0  0  0  0  0  0  0  0  0  0  0
   20.1214   71.9435   -7.1234 C   0  0  0  0  0  0  0  0  0  0  0  0
   20.4153   71.2567   -8.2293 C   0  0  0  0  0  0  0  0  0  0  0  0
   19.3245   70.8467   -9.1371 C   0  0  0  0  0  0  0  0  0  0  0  0
   17.3084   70.9751   -9.3127 H   0  0  0  0  0  0  0  0  0  0  0  0
   22.2427   69.3970   -2.8070 O   0  0  0  0  0  0  0  0  0  0  0  0
   23.2751   68.8794   -1.6759 P   0  0  2  0  0  0  0  0  0  0  0  0
   24.6762   69.5601   -2.1130 O   0  0  0  0  0  0  0  0  0  0  0  0
   23.3308   67.3862   -1.5307 O   0  0  0  0  0  0  0  0  0  0  0  0
   22.8404   69.6660   -0.3353 O   0  0  0  0  0  0  0  0  0  0  0  0
   23.2595   71.9933   -0.1790 O   0  0  0  0  0  0  0  0  0  0  0  0
   22.8453   71.1263    3.8369 O   0  0  0  0  0  0  0  0  0  0  0  0
   20.7711   72.5750    2.4778 O   0  0  0  0  0  0  0  0  0  0  0  0
   24.1953   69.2562    2.0877 O   0  0  0  0  0  0  0  0  0  0  0  0
   22.5668   70.9955    2.4402 C   0  0  1  0  0  0  0  0  0  0  0  0
   22.0633   72.3445    1.9232 C   0  0  1  0  0  0  0  0  0  0  0  0
   23.8455   70.5841    1.7127 C   0  0  2  0  0  0  0  0  0  0  0  0
   21.9974   72.3606    0.3901 C   0  0  1  0  0  0  0  0  0  0  0  0
   23.6878   70.6822    0.1943 C   0  0  1  0  0  0  0  0  0  0  0  0
   22.0373   71.3868    4.3048 H   0  0  0  0  0  0  0  0  0  0  0  0
   20.8266   72.5619    3.4463 H   0  0  0  0  0  0  0  0  0  0  0  0
   24.2925   69.2074    3.0511 H   0  0  0  0  0  0  0  0  0  0  0  0
   20.2438   73.9079   -0.0995 O   0  0  0  0  0  0  0  0  0  0  0  0
   21.6491   73.7448   -0.1529 C   0  0  0  0  0  0  0  0  0  0  0  0
   20.0074   74.7847   -0.4418 H   0  0  0  0  0  0  0  0  0  0  0  0
 25 28  1  0
 25 24  1  0
 25 26  1  6
 25 27  2  0
  1  4  1  0
  1 24  1  0
  1  2  1  6
  1  3  2  0
  6 11  1  0
  6 12  1  0
 29 36  1  0
 29 37  1  0
  9  7  1  6
  7 13  1  0
 10  8  1  1
  8 14  1  0
 37 28  1  1
  4  5  1  0
 33 30  1  1
 30 38  1  0
 34 31  1  1
 31 39  1  0
 35 32  1  6
 32 40  1  0
 41 42  1  0
 41 43  1  0
 15 19  2  0
 16 22  2  0
 12 17  1  6
 17 19  1  0
 17 20  1  0
 18 19  1  0
 18 22  1  0
 18 23  1  0
  9 10  1  0
  9 11  1  0
 10 12  1  0
 11  5  1  6
 33 34  1  0
 33 35  1  0
 34 36  1  0
 35 37  1  0
 36 42  1  6
 20 21  2  0
 21 22  1  0
M  CHG  2   2  -1  26  -1
M  END
>  <COMPND>  (30) 
    8629 

>  <AUTHOR>  (30) 
    GENERATED BY OPEN BABEL 3.1.1

>  <MASTER>  (30) 
        0    0    0    0    0    0    0    0   58    0   58    0

>  <minimizedAffinity>  (30) 
-7.33564

>  <CNNscore>  (30) 
0.5370452404

>  <CNNaffinity>  (30) 
4.4156417847

>  <CNN_VS>  (30) 
2.3713994026

>  <CNNaffinity_variance>  (30) 
0.1833637059

$$$$
31
     RDKit          3D

 43 45  0  0  0  0  0  0  0  0999 V2000
   20.6634   73.1936   -2.6155 P   0  0  2  0  0  0  0  0  0  0  0  0
   21.5705   74.2908   -3.3842 O   0  0  0  0  0  0  0  0  0  0  0  0
   19.8267   73.7362   -1.4944 O   0  0  0  0  0  0  0  0  0  0  0  0
   21.7170   72.0349   -2.2088 O   0  0  0  0  0  0  0  0  0  0  0  0
   21.6609   70.7980   -2.8978 C   0  0  0  0  0  0  0  0  0  0  0  0
   23.7098   70.7054   -1.6459 O   0  0  0  0  0  0  0  0  0  0  0  0
   24.0214   67.9231   -2.7195 O   0  0  0  0  0  0  0  0  0  0  0  0
   23.0930   67.4848   -0.1932 O   0  0  0  0  0  0  0  0  0  0  0  0
   22.8343   68.6127   -2.3314 C   0  0  1  0  0  0  0  0  0  0  0  0
   22.7478   68.7022   -0.8221 C   0  0  2  0  0  0  0  0  0  0  0  0
   22.9903   70.0754   -2.7284 C   0  0  1  0  0  0  0  0  0  0  0  0
   23.7321   69.8182   -0.5157 C   0  0  2  0  0  0  0  0  0  0  0  0
   23.9452   66.9866   -2.4766 H   0  0  0  0  0  0  0  0  0  0  0  0
   22.4371   66.8068   -0.4187 H   0  0  0  0  0  0  0  0  0  0  0  0
   21.1310   69.9097    0.5814 O   0  0  0  0  0  0  0  0  0  0  0  0
   22.4761   72.6812    4.0092 O   0  0  0  0  0  0  0  0  0  0  0  0
   23.3744   70.5556    0.6631 N   0  0  0  0  0  0  0  0  0  0  0  0
   21.8029   71.2894    2.2874 N   0  0  0  0  0  0  0  0  0  0  0  0
   22.0396   70.5362    1.1304 C   0  0  0  0  0  0  0  0  0  0  0  0
   24.3421   71.2871    1.3431 C   0  0  0  0  0  0  0  0  0  0  0  0
   24.0998   72.0012    2.4444 C   0  0  0  0  0  0  0  0  0  0  0  0
   22.7308   72.0340    2.9982 C   0  0  0  0  0  0  0  0  0  0  0  0
   20.8801   71.2911    2.6311 H   0  0  0  0  0  0  0  0  0  0  0  0
   19.8208   72.5135   -3.8156 O   0  0  0  0  0  0  0  0  0  0  0  0
   18.2327   72.2684   -3.9915 P   0  0  2  0  0  0  0  0  0  0  0  0
   17.6360   73.7680   -4.1042 O   0  0  0  0  0  0  0  0  0  0  0  0
   17.6146   71.4360   -2.9057 O   0  0  0  0  0  0  0  0  0  0  0  0
   18.0760   71.6547   -5.4760 O   0  0  0  0  0  0  0  0  0  0  0  0
   19.4700   73.0716   -6.7665 O   0  0  0  0  0  0  0  0  0  0  0  0
   18.3900   70.3656   -9.6926 O   0  0  0  0  0  0  0  0  0  0  0  0
   21.0594   70.3194   -8.6342 O   0  0  0  0  0  0  0  0  0  0  0  0
   16.4483   71.2089   -7.7182 O   0  0  0  0  0  0  0  0  0  0  0  0
   18.7287   70.7869   -8.3685 C   0  0  1  0  0  0  0  0  0  0  0  0
   20.1383   71.3811   -8.4003 C   0  0  1  0  0  0  0  0  0  0  0  0
   17.7156   71.8307   -7.9023 C   0  0  2  0  0  0  0  0  0  0  0  0
   20.4685   72.0944   -7.0822 C   0  0  1  0  0  0  0  0  0  0  0  0
   18.1636   72.5145   -6.6093 C   0  0  1  0  0  0  0  0  0  0  0  0
   19.0291   69.7024   -9.9944 H   0  0  0  0  0  0  0  0  0  0  0  0
   20.8394   69.8770   -9.4691 H   0  0  0  0  0  0  0  0  0  0  0  0
   16.1758   70.7800   -8.5437 H   0  0  0  0  0  0  0  0  0  0  0  0
   22.4069   72.7846   -5.8677 O   0  0  0  0  0  0  0  0  0  0  0  0
   21.8059   72.8286   -7.1488 C   0  0  0  0  0  0  0  0  0  0  0  0
   23.2592   73.2478   -5.8950 H   0  0  0  0  0  0  0  0  0  0  0  0
 25 28  1  0
 25 24  1  0
 25 26  1  6
 25 27  2  0
  1  4  1  0
  1 24  1  0
  1  2  1  6
  1  3  2  0
  6 11  1  0
  6 12  1  0
 29 36  1  0
 29 37  1  0
  9  7  1  1
  7 13  1  0
 10  8  1  1
  8 14  1  0
 37 28  1  1
  4  5  1  0
 33 30  1  6
 30 38  1  0
 34 31  1  1
 31 39  1  0
 35 32  1  1
 32 40  1  0
 41 42  1  0
 41 43  1  0
 15 19  2  0
 16 22  2  0
 12 17  1  1
 17 19  1  0
 17 20  1  0
 18 19  1  0
 18 22  1  0
 18 23  1  0
  9 10  1  0
  9 11  1  0
 10 12  1  0
 11  5  1  1
 33 34  1  0
 33 35  1  0
 34 36  1  0
 35 37  1  0
 36 42  1  6
 20 21  2  0
 21 22  1  0
M  CHG  2   2  -1  26  -1
M  END
>  <COMPND>  (31) 
    8629 

>  <AUTHOR>  (31) 
    GENERATED BY OPEN BABEL 3.1.1

>  <MASTER>  (31) 
        0    0    0    0    0    0    0    0   58    0   58    0

>  <minimizedAffinity>  (31) 
-8.05045

>  <CNNscore>  (31) 
0.4779387116

>  <CNNaffinity>  (31) 
4.1837325096

>  <CNN_VS>  (31) 
1.9995677471

>  <CNNaffinity_variance>  (31) 
0.3477573693

$$$$
32
     RDKit          3D

 43 45  0  0  0  0  0  0  0  0999 V2000
   22.6176   73.2676   -3.2144 P   0  0  2  0  0  0  0  0  0  0  0  0
   23.8569   72.7308   -4.1051 O   0  0  0  0  0  0  0  0  0  0  0  0
   21.7931   74.3431   -3.8587 O   0  0  0  0  0  0  0  0  0  0  0  0
   23.2967   73.6563   -1.7982 O   0  0  0  0  0  0  0  0  0  0  0  0
   23.8441   74.9543   -1.6445 C   0  0  0  0  0  0  0  0  0  0  0  0
   22.4615   74.6371    0.2950 O   0  0  0  0  0  0  0  0  0  0  0  0
   23.4611   77.3105    1.2139 O   0  0  0  0  0  0  0  0  0  0  0  0
   24.9720   75.5757    2.6781 O   0  0  0  0  0  0  0  0  0  0  0  0
   24.1518   76.2850    0.5020 C   0  0  1  0  0  0  0  0  0  0  0  0
   24.4828   75.1335    1.4283 C   0  0  2  0  0  0  0  0  0  0  0  0
   23.1672   75.6414   -0.4663 C   0  0  1  0  0  0  0  0  0  0  0  0
   23.1434   74.4255    1.5420 C   0  0  2  0  0  0  0  0  0  0  0  0
   24.0698   77.7365    1.8384 H   0  0  0  0  0  0  0  0  0  0  0  0
   25.8254   76.0192    2.5529 H   0  0  0  0  0  0  0  0  0  0  0  0
   21.2310   72.8116    2.8518 O   0  0  0  0  0  0  0  0  0  0  0  0
   23.8012   69.0220    2.3282 O   0  0  0  0  0  0  0  0  0  0  0  0
   23.2870   73.0139    1.7614 N   0  0  0  0  0  0  0  0  0  0  0  0
   22.5122   70.9259    2.5899 N   0  0  0  0  0  0  0  0  0  0  0  0
   22.2686   72.2961    2.4307 C   0  0  0  0  0  0  0  0  0  0  0  0
   24.4276   72.3557    1.3146 C   0  0  0  0  0  0  0  0  0  0  0  0
   24.6453   71.0488    1.4755 C   0  0  0  0  0  0  0  0  0  0  0  0
   23.6303   70.2261    2.1647 C   0  0  0  0  0  0  0  0  0  0  0  0
   21.8166   70.4055    3.0537 H   0  0  0  0  0  0  0  0  0  0  0  0
   21.8053   71.9136   -2.8683 O   0  0  0  0  0  0  0  0  0  0  0  0
   20.8241   71.5499   -1.6364 P   0  0  2  0  0  0  0  0  0  0  0  0
   20.1333   72.9690   -1.2807 O   0  0  0  0  0  0  0  0  0  0  0  0
   21.5111   70.8878   -0.4772 O   0  0  0  0  0  0  0  0  0  0  0  0
   19.6410   70.6758   -2.3007 O   0  0  0  0  0  0  0  0  0  0  0  0
   19.3743   68.9521   -3.9052 O   0  0  0  0  0  0  0  0  0  0  0  0
   16.6399   71.6659   -5.3915 O   0  0  0  0  0  0  0  0  0  0  0  0
   15.7074   69.2774   -4.0977 O   0  0  0  0  0  0  0  0  0  0  0  0
   19.1447   72.6005   -4.2816 O   0  0  0  0  0  0  0  0  0  0  0  0
   17.3689   70.9759   -4.3728 C   0  0  1  0  0  0  0  0  0  0  0  0
   17.0615   69.4818   -4.4915 C   0  0  1  0  0  0  0  0  0  0  0  0
   18.8621   71.2345   -4.5654 C   0  0  2  0  0  0  0  0  0  0  0  0
   18.0051   68.6505   -3.6120 C   0  0  1  0  0  0  0  0  0  0  0  0
   19.7122   70.3220   -3.6795 C   0  0  1  0  0  0  0  0  0  0  0  0
   15.6910   71.5062   -5.2747 H   0  0  0  0  0  0  0  0  0  0  0  0
   15.1221   69.8083   -4.6606 H   0  0  0  0  0  0  0  0  0  0  0  0
   18.6006   73.1678   -4.8490 H   0  0  0  0  0  0  0  0  0  0  0  0
   16.7140   66.7153   -3.0670 O   0  0  0  0  0  0  0  0  0  0  0  0
   17.8212   67.1508   -3.8343 C   0  0  0  0  0  0  0  0  0  0  0  0
   16.5848   65.7626   -3.1988 H   0  0  0  0  0  0  0  0  0  0  0  0
 25 28  1  0
 25 24  1  0
 25 26  1  1
 25 27  2  0
  1  4  1  0
  1 24  1  0
  1  2  1  6
  1  3  2  0
  6 11  1  0
  6 12  1  0
 29 36  1  0
 29 37  1  0
  9  7  1  1
  7 13  1  0
 10  8  1  1
  8 14  1  0
 37 28  1  1
  4  5  1  0
 33 30  1  6
 30 38  1  0
 34 31  1  1
 31 39  1  0
 35 32  1  1
 32 40  1  0
 41 42  1  0
 41 43  1  0
 15 19  2  0
 16 22  2  0
 12 17  1  6
 17 19  1  0
 17 20  1  0
 18 19  1  0
 18 22  1  0
 18 23  1  0
  9 10  1  0
  9 11  1  0
 10 12  1  0
 11  5  1  6
 33 34  1  0
 33 35  1  0
 34 36  1  0
 35 37  1  0
 36 42  1  6
 20 21  2  0
 21 22  1  0
M  CHG  2   2  -1  26  -1
M  END
>  <COMPND>  (32) 
    8629 

>  <AUTHOR>  (32) 
    GENERATED BY OPEN BABEL 3.1.1

>  <MASTER>  (32) 
        0    0    0    0    0    0    0    0   58    0   58    0

>  <minimizedAffinity>  (32) 
-6.39329

>  <CNNscore>  (32) 
0.4681869745

>  <CNNaffinity>  (32) 
4.2024526596

>  <CNN_VS>  (32) 
1.9675335884

>  <CNNaffinity_variance>  (32) 
0.2126794159

$$$$
33
     RDKit          3D

 43 45  0  0  0  0  0  0  0  0999 V2000
   20.1387   74.1341   -3.0171 P   0  0  2  0  0  0  0  0  0  0  0  0
   20.0153   74.1002   -1.4043 O   0  0  0  0  0  0  0  0  0  0  0  0
   19.6630   75.4024   -3.6625 O   0  0  0  0  0  0  0  0  0  0  0  0
   19.3907   72.7805   -3.4924 O   0  0  0  0  0  0  0  0  0  0  0  0
   18.7297   71.9947   -2.5159 C   0  0  0  0  0  0  0  0  0  0  0  0
   17.0026   72.5694   -4.0845 O   0  0  0  0  0  0  0  0  0  0  0  0
   15.1547   70.9646   -2.3522 O   0  0  0  0  0  0  0  0  0  0  0  0
   15.6904   69.2466   -4.4011 O   0  0  0  0  0  0  0  0  0  0  0  0
   16.5265   70.7312   -2.6667 C   0  0  1  0  0  0  0  0  0  0  0  0
   16.6614   70.2242   -4.0874 C   0  0  2  0  0  0  0  0  0  0  0  0
   17.2268   72.0822   -2.7434 C   0  0  1  0  0  0  0  0  0  0  0  0
   16.4892   71.4995   -4.8948 C   0  0  2  0  0  0  0  0  0  0  0  0
   14.6868   70.1161   -2.2976 H   0  0  0  0  0  0  0  0  0  0  0  0
   15.8424   68.4550   -3.8618 H   0  0  0  0  0  0  0  0  0  0  0  0
   15.8290   69.8387   -7.0820 O   0  0  0  0  0  0  0  0  0  0  0  0
   19.3372   71.4497   -9.5997 O   0  0  0  0  0  0  0  0  0  0  0  0
   17.2128   71.4649   -6.1344 N   0  0  0  0  0  0  0  0  0  0  0  0
   17.5763   70.6424   -8.3339 N   0  0  0  0  0  0  0  0  0  0  0  0
   16.7993   70.5941   -7.1694 C   0  0  0  0  0  0  0  0  0  0  0  0
   18.3189   72.2883   -6.3144 C   0  0  0  0  0  0  0  0  0  0  0  0
   19.0499   72.3215   -7.4305 C   0  0  0  0  0  0  0  0  0  0  0  0
   18.6850   71.4425   -8.5603 C   0  0  0  0  0  0  0  0  0  0  0  0
   17.3072   70.0441   -9.0684 H   0  0  0  0  0  0  0  0  0  0  0  0
   21.6989   73.7949   -3.2695 O   0  0  0  0  0  0  0  0  0  0  0  0
   22.4046   72.6320   -4.1428 P   0  0  2  0  0  0  0  0  0  0  0  0
   23.9518   73.1009   -4.2035 O   0  0  0  0  0  0  0  0  0  0  0  0
   21.7739   72.4024   -5.4857 O   0  0  0  0  0  0  0  0  0  0  0  0
   22.4079   71.3399   -3.1756 O   0  0  0  0  0  0  0  0  0  0  0  0
   22.5894   71.7612   -0.8505 O   0  0  0  0  0  0  0  0  0  0  0  0
   23.5515   67.7456   -0.8706 O   0  0  0  0  0  0  0  0  0  0  0  0
   21.0070   68.5889    0.1601 O   0  0  0  0  0  0  0  0  0  0  0  0
   24.4893   69.4658   -3.0016 O   0  0  0  0  0  0  0  0  0  0  0  0
   22.8672   68.9237   -1.3057 C   0  0  1  0  0  0  0  0  0  0  0  0
   22.0784   69.4852   -0.1210 C   0  0  1  0  0  0  0  0  0  0  0  0
   23.8923   69.9424   -1.8004 C   0  0  2  0  0  0  0  0  0  0  0  0
   21.5354   70.8865   -0.4314 C   0  0  1  0  0  0  0  0  0  0  0  0
   23.2580   71.3150   -2.0320 C   0  0  1  0  0  0  0  0  0  0  0  0
   22.9062   67.0945   -0.5557 H   0  0  0  0  0  0  0  0  0  0  0  0
   21.3634   67.7076    0.3539 H   0  0  0  0  0  0  0  0  0  0  0  0
   24.8875   68.5964   -2.8417 H   0  0  0  0  0  0  0  0  0  0  0  0
   21.2957   70.8249    1.9451 O   0  0  0  0  0  0  0  0  0  0  0  0
   20.8810   71.5296    0.7894 C   0  0  0  0  0  0  0  0  0  0  0  0
   20.8872   71.2233    2.7300 H   0  0  0  0  0  0  0  0  0  0  0  0
 25 28  1  0
 25 24  1  0
 25 26  1  6
 25 27  2  0
  1  4  1  0
  1 24  1  0
  1  2  1  1
  1  3  2  0
  6 11  1  0
  6 12  1  0
 29 36  1  0
 29 37  1  0
  9  7  1  6
  7 13  1  0
 10  8  1  6
  8 14  1  0
 37 28  1  6
  4  5  1  0
 33 30  1  1
 30 38  1  0
 34 31  1  6
 31 39  1  0
 35 32  1  6
 32 40  1  0
 41 42  1  0
 41 43  1  0
 15 19  2  0
 16 22  2  0
 12 17  1  6
 17 19  1  0
 17 20  1  0
 18 19  1  0
 18 22  1  0
 18 23  1  0
  9 10  1  0
  9 11  1  0
 10 12  1  0
 11  5  1  6
 33 34  1  0
 33 35  1  0
 34 36  1  0
 35 37  1  0
 36 42  1  1
 20 21  2  0
 21 22  1  0
M  CHG  2   2  -1  26  -1
M  END
>  <COMPND>  (33) 
    8629 

>  <AUTHOR>  (33) 
    GENERATED BY OPEN BABEL 3.1.1

>  <MASTER>  (33) 
        0    0    0    0    0    0    0    0   58    0   58    0

>  <minimizedAffinity>  (33) 
-7.95481

>  <CNNscore>  (33) 
0.4102681279

>  <CNNaffinity>  (33) 
4.1017694473

>  <CNN_VS>  (33) 
1.6828253269

>  <CNNaffinity_variance>  (33) 
0.3419185877

$$$$
34
     RDKit          3D

 43 45  0  0  0  0  0  0  0  0999 V2000
   22.0473   73.6938   -6.1721 P   0  0  2  0  0  0  0  0  0  0  0  0
   22.7173   73.3763   -7.6101 O   0  0  0  0  0  0  0  0  0  0  0  0
   22.1829   75.1148   -5.7096 O   0  0  0  0  0  0  0  0  0  0  0  0
   22.6805   72.5726   -5.1925 O   0  0  0  0  0  0  0  0  0  0  0  0
   23.1042   72.9664   -3.8989 C   0  0  0  0  0  0  0  0  0  0  0  0
   21.5784   71.4944   -2.7681 O   0  0  0  0  0  0  0  0  0  0  0  0
   21.0031   73.7999   -0.9393 O   0  0  0  0  0  0  0  0  0  0  0  0
   22.7150   72.2793    0.5417 O   0  0  0  0  0  0  0  0  0  0  0  0
   22.2343   73.4192   -1.5513 C   0  0  1  0  0  0  0  0  0  0  0  0
   22.8059   72.1956   -0.8659 C   0  0  2  0  0  0  0  0  0  0  0  0
   21.9211   72.8865   -2.9440 C   0  0  1  0  0  0  0  0  0  0  0  0
   21.9478   71.0821   -1.4420 C   0  0  2  0  0  0  0  0  0  0  0  0
   21.1777   74.1438   -0.0487 H   0  0  0  0  0  0  0  0  0  0  0  0
   23.2783   73.0020    0.8599 H   0  0  0  0  0  0  0  0  0  0  0  0
   21.3579   68.8150    0.1361 O   0  0  0  0  0  0  0  0  0  0  0  0
   24.7159   66.3454   -1.8302 O   0  0  0  0  0  0  0  0  0  0  0  0
   22.6518   69.8333   -1.5211 N   0  0  0  0  0  0  0  0  0  0  0  0
   23.0303   67.5871   -0.8444 N   0  0  0  0  0  0  0  0  0  0  0  0
   22.2771   68.7571   -0.6833 C   0  0  0  0  0  0  0  0  0  0  0  0
   23.7006   69.6849   -2.4221 C   0  0  0  0  0  0  0  0  0  0  0  0
   24.4098   68.5630   -2.5625 C   0  0  0  0  0  0  0  0  0  0  0  0
   24.0825   67.3911   -1.7248 C   0  0  0  0  0  0  0  0  0  0  0  0
   22.7875   66.8242   -0.2710 H   0  0  0  0  0  0  0  0  0  0  0  0
   20.5229   73.1908   -6.3624 O   0  0  0  0  0  0  0  0  0  0  0  0
   19.1351   73.7559   -5.7559 P   0  0  2  0  0  0  0  0  0  0  0  0
   18.3586   74.3120   -7.0618 O   0  0  0  0  0  0  0  0  0  0  0  0
   19.3090   74.7682   -4.6610 O   0  0  0  0  0  0  0  0  0  0  0  0
   18.3116   72.4370   -5.3229 O   0  0  0  0  0  0  0  0  0  0  0  0
   19.2498   70.2608   -5.3419 O   0  0  0  0  0  0  0  0  0  0  0  0
   15.2707   69.2681   -5.8239 O   0  0  0  0  0  0  0  0  0  0  0  0
   16.5666   68.7526   -3.3133 O   0  0  0  0  0  0  0  0  0  0  0  0
   16.3454   71.6085   -7.1457 O   0  0  0  0  0  0  0  0  0  0  0  0
   16.3717   70.0323   -5.3247 C   0  0  1  0  0  0  0  0  0  0  0  0
   17.2675   69.1027   -4.5035 C   0  0  1  0  0  0  0  0  0  0  0  0
   17.1451   70.6218   -6.5027 C   0  0  2  0  0  0  0  0  0  0  0  0
   18.6007   69.7801   -4.1589 C   0  0  1  0  0  0  0  0  0  0  0  0
   18.4776   71.2270   -6.0574 C   0  0  1  0  0  0  0  0  0  0  0  0
   14.7752   68.8913   -5.0809 H   0  0  0  0  0  0  0  0  0  0  0  0
   15.7265   68.3263   -3.5449 H   0  0  0  0  0  0  0  0  0  0  0  0
   15.5049   71.2129   -7.4230 H   0  0  0  0  0  0  0  0  0  0  0  0
   19.2741   68.7859   -2.0932 O   0  0  0  0  0  0  0  0  0  0  0  0
   19.5714   68.8184   -3.4770 C   0  0  0  0  0  0  0  0  0  0  0  0
   19.8839   68.1775   -1.6463 H   0  0  0  0  0  0  0  0  0  0  0  0
 25 28  1  0
 25 24  1  0
 25 26  1  6
 25 27  2  0
  1  4  1  0
  1 24  1  0
  1  2  1  6
  1  3  2  0
  6 11  1  0
  6 12  1  0
 29 36  1  0
 29 37  1  0
  9  7  1  1
  7 13  1  0
 10  8  1  1
  8 14  1  0
 37 28  1  1
  4  5  1  0
 33 30  1  6
 30 38  1  0
 34 31  1  1
 31 39  1  0
 35 32  1  1
 32 40  1  0
 41 42  1  0
 41 43  1  0
 15 19  2  0
 16 22  2  0
 12 17  1  6
 17 19  1  0
 17 20  1  0
 18 19  1  0
 18 22  1  0
 18 23  1  0
  9 10  1  0
  9 11  1  0
 10 12  1  0
 11  5  1  6
 33 34  1  0
 33 35  1  0
 34 36  1  0
 35 37  1  0
 36 42  1  6
 20 21  2  0
 21 22  1  0
M  CHG  2   2  -1  26  -1
M  END
>  <COMPND>  (34) 
    8629 

>  <AUTHOR>  (34) 
    GENERATED BY OPEN BABEL 3.1.1

>  <MASTER>  (34) 
        0    0    0    0    0    0    0    0   58    0   58    0

>  <minimizedAffinity>  (34) 
-8.11291

>  <CNNscore>  (34) 
0.3772632480

>  <CNNaffinity>  (34) 
4.0599746704

>  <CNN_VS>  (34) 
1.5316792727

>  <CNNaffinity_variance>  (34) 
0.9229835272

$$$$
35
     RDKit          3D

 43 45  0  0  0  0  0  0  0  0999 V2000
   21.2256   70.4943   -2.7466 P   0  0  2  0  0  0  0  0  0  0  0  0
   20.3397   70.7024   -1.4089 O   0  0  0  0  0  0  0  0  0  0  0  0
   22.1450   71.6320   -3.0812 O   0  0  0  0  0  0  0  0  0  0  0  0
   20.1347   70.1159   -3.8800 O   0  0  0  0  0  0  0  0  0  0  0  0
   19.7052   68.7695   -3.9823 C   0  0  0  0  0  0  0  0  0  0  0  0
   17.6643   69.7890   -3.2280 O   0  0  0  0  0  0  0  0  0  0  0  0
   16.7559   67.0172   -2.5334 O   0  0  0  0  0  0  0  0  0  0  0  0
   15.4792   67.4863   -4.8970 O   0  0  0  0  0  0  0  0  0  0  0  0
   17.5546   67.4563   -3.6309 C   0  0  1  0  0  0  0  0  0  0  0  0
   16.6948   68.1653   -4.6564 C   0  0  2  0  0  0  0  0  0  0  0  0
   18.4534   68.5827   -3.1360 C   0  0  1  0  0  0  0  0  0  0  0  0
   16.4874   69.5238   -4.0087 C   0  0  2  0  0  0  0  0  0  0  0  0
   16.1736   66.2975   -2.8250 H   0  0  0  0  0  0  0  0  0  0  0  0
   15.6641   66.6282   -5.3095 H   0  0  0  0  0  0  0  0  0  0  0  0
   15.4633   72.0899   -3.4217 O   0  0  0  0  0  0  0  0  0  0  0  0
   15.9009   73.4663   -7.7984 O   0  0  0  0  0  0  0  0  0  0  0  0
   16.3232   70.5723   -4.9757 N   0  0  0  0  0  0  0  0  0  0  0  0
   15.6822   72.7732   -5.6014 N   0  0  0  0  0  0  0  0  0  0  0  0
   15.7990   71.8242   -4.5778 C   0  0  0  0  0  0  0  0  0  0  0  0
   16.6806   70.3542   -6.3018 C   0  0  0  0  0  0  0  0  0  0  0  0
   16.5618   71.2691   -7.2661 C   0  0  0  0  0  0  0  0  0  0  0  0
   16.0225   72.6036   -6.9342 C   0  0  0  0  0  0  0  0  0  0  0  0
   15.3190   73.6526   -5.3478 H   0  0  0  0  0  0  0  0  0  0  0  0
   21.9700   69.0856   -2.4741 O   0  0  0  0  0  0  0  0  0  0  0  0
   23.1664   68.6960   -1.4593 P   0  0  2  0  0  0  0  0  0  0  0  0
   24.4506   69.4486   -2.0934 O   0  0  0  0  0  0  0  0  0  0  0  0
   23.3494   67.2191   -1.2617 O   0  0  0  0  0  0  0  0  0  0  0  0
   22.8394   69.5161   -0.1082 O   0  0  0  0  0  0  0  0  0  0  0  0
   23.4529   71.8048   -0.0647 O   0  0  0  0  0  0  0  0  0  0  0  0
   22.9644   71.1755    3.9870 O   0  0  0  0  0  0  0  0  0  0  0  0
   21.0206   72.7245    2.5482 O   0  0  0  0  0  0  0  0  0  0  0  0
   24.1534   69.1143    2.3387 O   0  0  0  0  0  0  0  0  0  0  0  0
   22.6769   70.9996    2.5971 C   0  0  1  0  0  0  0  0  0  0  0  0
   22.2891   72.3590    2.0119 C   0  0  1  0  0  0  0  0  0  0  0  0
   23.9168   70.4467    1.8970 C   0  0  2  0  0  0  0  0  0  0  0  0
   22.2258   72.3046    0.4795 C   0  0  1  0  0  0  0  0  0  0  0  0
   23.7690   70.4824    0.3748 C   0  0  1  0  0  0  0  0  0  0  0  0
   22.1810   71.5259    4.4375 H   0  0  0  0  0  0  0  0  0  0  0  0
   21.0741   72.7547    3.5164 H   0  0  0  0  0  0  0  0  0  0  0  0
   24.2454   69.1052    3.3037 H   0  0  0  0  0  0  0  0  0  0  0  0
   22.8883   73.8487   -1.2193 O   0  0  0  0  0  0  0  0  0  0  0  0
   21.9957   73.6846   -0.1327 C   0  0  0  0  0  0  0  0  0  0  0  0
   22.7530   74.7226   -1.6190 H   0  0  0  0  0  0  0  0  0  0  0  0
 25 28  1  0
 25 24  1  0
 25 26  1  6
 25 27  2  0
  1  4  1  0
  1 24  1  0
  1  2  1  1
  1  3  2  0
  6 11  1  0
  6 12  1  0
 29 36  1  0
 29 37  1  0
  9  7  1  1
  7 13  1  0
 10  8  1  1
  8 14  1  0
 37 28  1  1
  4  5  1  0
 33 30  1  1
 30 38  1  0
 34 31  1  1
 31 39  1  0
 35 32  1  1
 32 40  1  0
 41 42  1  0
 41 43  1  0
 15 19  2  0
 16 22  2  0
 12 17  1  6
 17 19  1  0
 17 20  1  0
 18 19  1  0
 18 22  1  0
 18 23  1  0
  9 10  1  0
  9 11  1  0
 10 12  1  0
 11  5  1  6
 33 34  1  0
 33 35  1  0
 34 36  1  0
 35 37  1  0
 36 42  1  6
 20 21  2  0
 21 22  1  0
M  CHG  2   2  -1  26  -1
M  END
>  <COMPND>  (35) 
    8629 

>  <AUTHOR>  (35) 
    GENERATED BY OPEN BABEL 3.1.1

>  <MASTER>  (35) 
        0    0    0    0    0    0    0    0   58    0   58    0

>  <minimizedAffinity>  (35) 
-7.93326

>  <CNNscore>  (35) 
0.3693886995

>  <CNNaffinity>  (35) 
4.1590189934

>  <CNN_VS>  (35) 
1.5362945795

>  <CNNaffinity_variance>  (35) 
0.3155549169

$$$$
36
     RDKit          3D

 43 45  0  0  0  0  0  0  0  0999 V2000
   22.2184   72.4490   -3.4516 P   0  0  2  0  0  0  0  0  0  0  0  0
   23.5247   72.5035   -4.4046 O   0  0  0  0  0  0  0  0  0  0  0  0
   21.5836   73.7791   -3.1699 O   0  0  0  0  0  0  0  0  0  0  0  0
   22.7179   71.6201   -2.1549 O   0  0  0  0  0  0  0  0  0  0  0  0
   22.6305   72.2379   -0.8827 C   0  0  0  0  0  0  0  0  0  0  0  0
   22.0141   69.9436   -0.5217 O   0  0  0  0  0  0  0  0  0  0  0  0
   22.0981   70.5772    2.4078 O   0  0  0  0  0  0  0  0  0  0  0  0
   24.4777   69.3075    2.0059 O   0  0  0  0  0  0  0  0  0  0  0  0
   22.9285   71.0647    1.3552 C   0  0  1  0  0  0  0  0  0  0  0  0
   23.9004   69.9911    0.9121 C   0  0  2  0  0  0  0  0  0  0  0  0
   22.0604   71.2392    0.1152 C   0  0  1  0  0  0  0  0  0  0  0  0
   23.0145   69.0946    0.0640 C   0  0  2  0  0  0  0  0  0  0  0  0
   22.6304   70.4582    3.2106 H   0  0  0  0  0  0  0  0  0  0  0  0
   25.0318   69.9201    2.5142 H   0  0  0  0  0  0  0  0  0  0  0  0
   23.0130   66.3050   -0.3792 O   0  0  0  0  0  0  0  0  0  0  0  0
   25.8476   66.6929   -3.9925 O   0  0  0  0  0  0  0  0  0  0  0  0
   23.7430   68.4396   -0.9857 N   0  0  0  0  0  0  0  0  0  0  0  0
   24.4242   66.5005   -2.1781 N   0  0  0  0  0  0  0  0  0  0  0  0
   23.6755   67.0333   -1.1210 C   0  0  0  0  0  0  0  0  0  0  0  0
   24.5132   69.1902   -1.8673 C   0  0  0  0  0  0  0  0  0  0  0  0
   25.2223   68.6666   -2.8694 C   0  0  0  0  0  0  0  0  0  0  0  0
   25.2061   67.2046   -3.0801 C   0  0  0  0  0  0  0  0  0  0  0  0
   24.3927   65.5228   -2.2916 H   0  0  0  0  0  0  0  0  0  0  0  0
   21.2586   71.3927   -4.2105 O   0  0  0  0  0  0  0  0  0  0  0  0
   20.0251   70.4996   -3.6684 P   0  0  2  0  0  0  0  0  0  0  0  0
   19.3711   71.4299   -2.5177 O   0  0  0  0  0  0  0  0  0  0  0  0
   20.4165   69.1259   -3.2061 O   0  0  0  0  0  0  0  0  0  0  0  0
   18.9476   70.5192   -4.8699 O   0  0  0  0  0  0  0  0  0  0  0  0
   19.2245   72.5479   -6.0633 O   0  0  0  0  0  0  0  0  0  0  0  0
   15.9475   71.0416   -8.0741 O   0  0  0  0  0  0  0  0  0  0  0  0
   18.5146   71.0625   -9.3616 O   0  0  0  0  0  0  0  0  0  0  0  0
   16.1675   70.6962   -5.2084 O   0  0  0  0  0  0  0  0  0  0  0  0
   17.1911   70.9700   -7.3714 C   0  0  1  0  0  0  0  0  0  0  0  0
   18.2325   71.7694   -8.1570 C   0  0  1  0  0  0  0  0  0  0  0  0
   17.0082   71.5544   -5.9720 C   0  0  2  0  0  0  0  0  0  0  0  0
   19.5158   71.9628   -7.3379 C   0  0  1  0  0  0  0  0  0  0  0  0
   18.3490   71.7516   -5.2625 C   0  0  1  0  0  0  0  0  0  0  0  0
   16.0567   70.6716   -8.9633 H   0  0  0  0  0  0  0  0  0  0  0  0
   17.6960   70.9467   -9.8692 H   0  0  0  0  0  0  0  0  0  0  0  0
   15.3218   70.5796   -5.6680 H   0  0  0  0  0  0  0  0  0  0  0  0
   21.2048   72.1433   -9.0182 O   0  0  0  0  0  0  0  0  0  0  0  0
   20.5071   72.8896   -8.0382 C   0  0  0  0  0  0  0  0  0  0  0  0
   21.8391   72.7205   -9.4724 H   0  0  0  0  0  0  0  0  0  0  0  0
 25 28  1  0
 25 24  1  0
 25 26  1  1
 25 27  2  0
  1  4  1  0
  1 24  1  0
  1  2  1  6
  1  3  2  0
  6 11  1  0
  6 12  1  0
 29 36  1  0
 29 37  1  0
  9  7  1  1
  7 13  1  0
 10  8  1  1
  8 14  1  0
 37 28  1  6
  4  5  1  0
 33 30  1  6
 30 38  1  0
 34 31  1  6
 31 39  1  0
 35 32  1  1
 32 40  1  0
 41 42  1  0
 41 43  1  0
 15 19  2  0
 16 22  2  0
 12 17  1  6
 17 19  1  0
 17 20  1  0
 18 19  1  0
 18 22  1  0
 18 23  1  0
  9 10  1  0
  9 11  1  0
 10 12  1  0
 11  5  1  6
 33 34  1  0
 33 35  1  0
 34 36  1  0
 35 37  1  0
 36 42  1  6
 20 21  2  0
 21 22  1  0
M  CHG  2   2  -1  26  -1
M  END
>  <COMPND>  (36) 
    8629 

>  <AUTHOR>  (36) 
    GENERATED BY OPEN BABEL 3.1.1

>  <MASTER>  (36) 
        0    0    0    0    0    0    0    0   58    0   58    0

>  <minimizedAffinity>  (36) 
-8.52132

>  <CNNscore>  (36) 
0.3464097977

>  <CNNaffinity>  (36) 
4.2456912994

>  <CNN_VS>  (36) 
1.4707490206

>  <CNNaffinity_variance>  (36) 
0.3815551698

$$$$
37
     RDKit          3D

 43 45  0  0  0  0  0  0  0  0999 V2000
   19.9248   69.9427   -2.7131 P   0  0  2  0  0  0  0  0  0  0  0  0
   21.0836   69.9246   -3.8420 O   0  0  0  0  0  0  0  0  0  0  0  0
   19.1997   68.6421   -2.5284 O   0  0  0  0  0  0  0  0  0  0  0  0
   19.0040   71.2087   -3.1219 O   0  0  0  0  0  0  0  0  0  0  0  0
   18.6661   71.3864   -4.4865 C   0  0  0  0  0  0  0  0  0  0  0  0
   16.5106   72.3839   -4.8501 O   0  0  0  0  0  0  0  0  0  0  0  0
   15.6025   69.6589   -5.7108 O   0  0  0  0  0  0  0  0  0  0  0  0
   15.9906   70.9350   -8.0894 O   0  0  0  0  0  0  0  0  0  0  0  0
   16.8635   70.2951   -5.9123 C   0  0  1  0  0  0  0  0  0  0  0  0
   16.7480   71.3659   -6.9770 C   0  0  2  0  0  0  0  0  0  0  0  0
   17.1788   71.1163   -4.6682 C   0  0  1  0  0  0  0  0  0  0  0  0
   16.0772   72.4965   -6.2155 C   0  0  2  0  0  0  0  0  0  0  0  0
   15.3798   69.1282   -6.4923 H   0  0  0  0  0  0  0  0  0  0  0  0
   16.4590   70.2154   -8.5405 H   0  0  0  0  0  0  0  0  0  0  0  0
   14.7465   73.8335   -8.3177 O   0  0  0  0  0  0  0  0  0  0  0  0
   17.5860   77.4544   -8.0573 O   0  0  0  0  0  0  0  0  0  0  0  0
   16.4474   73.7899   -6.7171 N   0  0  0  0  0  0  0  0  0  0  0  0
   16.1613   75.6354   -8.1862 N   0  0  0  0  0  0  0  0  0  0  0  0
   15.7140   74.3728   -7.7767 C   0  0  0  0  0  0  0  0  0  0  0  0
   17.5265   74.4667   -6.1591 C   0  0  0  0  0  0  0  0  0  0  0  0
   17.9411   75.6696   -6.5620 C   0  0  0  0  0  0  0  0  0  0  0  0
   17.2291   76.3481   -7.6641 C   0  0  0  0  0  0  0  0  0  0  0  0
   15.6658   76.0608   -8.9233 H   0  0  0  0  0  0  0  0  0  0  0  0
   20.7054   70.4702   -1.3995 O   0  0  0  0  0  0  0  0  0  0  0  0
   21.8383   69.7686   -0.4847 P   0  0  2  0  0  0  0  0  0  0  0  0
   21.0101   68.6478    0.3371 O   0  0  0  0  0  0  0  0  0  0  0  0
   22.6112   70.7238    0.3780 O   0  0  0  0  0  0  0  0  0  0  0  0
   22.7406   68.9273   -1.5254 O   0  0  0  0  0  0  0  0  0  0  0  0
   23.6445   66.7587   -1.2139 O   0  0  0  0  0  0  0  0  0  0  0  0
   26.6030   68.3701   -3.6018 O   0  0  0  0  0  0  0  0  0  0  0  0
   24.8102   66.4100   -4.6936 O   0  0  0  0  0  0  0  0  0  0  0  0
   25.3319   70.0031   -1.5777 O   0  0  0  0  0  0  0  0  0  0  0  0
   25.2633   68.1726   -3.1416 C   0  0  1  0  0  0  0  0  0  0  0  0
   24.9150   66.6914   -3.3007 C   0  0  1  0  0  0  0  0  0  0  0  0
   25.1722   68.5920   -1.6756 C   0  0  2  0  0  0  0  0  0  0  0  0
   23.5998   66.3517   -2.5865 C   0  0  1  0  0  0  0  0  0  0  0  0
   23.8449   68.1637   -1.0471 C   0  0  1  0  0  0  0  0  0  0  0  0
   26.6676   68.1062   -4.5322 H   0  0  0  0  0  0  0  0  0  0  0  0
   25.6470   66.6292   -5.1329 H   0  0  0  0  0  0  0  0  0  0  0  0
   26.1758   70.2615   -1.9787 H   0  0  0  0  0  0  0  0  0  0  0  0
   22.7319   64.5147   -3.8438 O   0  0  0  0  0  0  0  0  0  0  0  0
   23.3137   64.8517   -2.5979 C   0  0  0  0  0  0  0  0  0  0  0  0
   22.5446   63.5628   -3.8656 H   0  0  0  0  0  0  0  0  0  0  0  0
 25 28  1  0
 25 24  1  0
 25 26  1  1
 25 27  2  0
  1  4  1  0
  1 24  1  0
  1  2  1  6
  1  3  2  0
  6 11  1  0
  6 12  1  0
 29 36  1  0
 29 37  1  0
  9  7  1  1
  7 13  1  0
 10  8  1  6
  8 14  1  0
 37 28  1  6
  4  5  1  0
 33 30  1  1
 30 38  1  0
 34 31  1  6
 31 39  1  0
 35 32  1  6
 32 40  1  0
 41 42  1  0
 41 43  1  0
 15 19  2  0
 16 22  2  0
 12 17  1  6
 17 19  1  0
 17 20  1  0
 18 19  1  0
 18 22  1  0
 18 23  1  0
  9 10  1  0
  9 11  1  0
 10 12  1  0
 11  5  1  6
 33 34  1  0
 33 35  1  0
 34 36  1  0
 35 37  1  0
 36 42  1  1
 20 21  2  0
 21 22  1  0
M  CHG  2   2  -1  26  -1
M  END
>  <COMPND>  (37) 
    8629 

>  <AUTHOR>  (37) 
    GENERATED BY OPEN BABEL 3.1.1

>  <MASTER>  (37) 
        0    0    0    0    0    0    0    0   58    0   58    0

>  <minimizedAffinity>  (37) 
-8.02622

>  <CNNscore>  (37) 
0.3425566852

>  <CNNaffinity>  (37) 
4.3938694000

>  <CNN_VS>  (37) 
1.5051493645

>  <CNNaffinity_variance>  (37) 
0.0706412941

$$$$
38
     RDKit          3D

 43 45  0  0  0  0  0  0  0  0999 V2000
   21.8402   72.3410   -0.7286 P   0  0  2  0  0  0  0  0  0  0  0  0
   23.1694   71.6402   -0.1291 O   0  0  0  0  0  0  0  0  0  0  0  0
   22.0947   73.4749   -1.6777 O   0  0  0  0  0  0  0  0  0  0  0  0
   20.9677   72.7059    0.5842 O   0  0  0  0  0  0  0  0  0  0  0  0
   21.3955   73.7801    1.4033 C   0  0  0  0  0  0  0  0  0  0  0  0
   22.6384   73.4287    3.4295 O   0  0  0  0  0  0  0  0  0  0  0  0
   19.9983   73.5383    4.8468 O   0  0  0  0  0  0  0  0  0  0  0  0
   21.0176   76.0275    5.2955 O   0  0  0  0  0  0  0  0  0  0  0  0
   20.4432   74.2763    3.7098 C   0  0  1  0  0  0  0  0  0  0  0  0
   21.4314   75.3443    4.1299 C   0  0  2  0  0  0  0  0  0  0  0  0
   21.3119   73.3547    2.8627 C   0  0  1  0  0  0  0  0  0  0  0  0
   22.6982   74.5340    4.3459 C   0  0  2  0  0  0  0  0  0  0  0  0
   19.4412   74.1061    5.4028 H   0  0  0  0  0  0  0  0  0  0  0  0
   20.2084   76.5280    5.1070 H   0  0  0  0  0  0  0  0  0  0  0  0
   23.9533   76.2348    6.2193 O   0  0  0  0  0  0  0  0  0  0  0  0
   27.2527   77.4050    3.2216 O   0  0  0  0  0  0  0  0  0  0  0  0
   23.8868   75.2949    4.0818 N   0  0  0  0  0  0  0  0  0  0  0  0
   25.5952   76.8159    4.7253 N   0  0  0  0  0  0  0  0  0  0  0  0
   24.4362   76.1195    5.0910 C   0  0  0  0  0  0  0  0  0  0  0  0
   24.4953   75.2188    2.8336 C   0  0  0  0  0  0  0  0  0  0  0  0
   25.5995   75.8902    2.5004 C   0  0  0  0  0  0  0  0  0  0  0  0
   26.2368   76.7743    3.4975 C   0  0  0  0  0  0  0  0  0  0  0  0
   25.9955   77.3970    5.4122 H   0  0  0  0  0  0  0  0  0  0  0  0
   21.0306   71.0968   -1.3686 O   0  0  0  0  0  0  0  0  0  0  0  0
   21.1323   69.5079   -1.0895 P   0  0  2  0  0  0  0  0  0  0  0  0
   19.8972   68.9018   -1.9409 O   0  0  0  0  0  0  0  0  0  0  0  0
   21.1228   69.1368    0.3652 O   0  0  0  0  0  0  0  0  0  0  0  0
   22.4509   69.0358   -1.8916 O   0  0  0  0  0  0  0  0  0  0  0  0
   23.3238   66.9124   -1.3036 O   0  0  0  0  0  0  0  0  0  0  0  0
   26.5848   68.4271   -3.3340 O   0  0  0  0  0  0  0  0  0  0  0  0
   24.9967   66.3614   -4.5419 O   0  0  0  0  0  0  0  0  0  0  0  0
   25.0086   70.1616   -1.6350 O   0  0  0  0  0  0  0  0  0  0  0  0
   25.1941   68.2314   -3.0637 C   0  0  1  0  0  0  0  0  0  0  0  0
   24.8905   66.7357   -3.1711 C   0  0  1  0  0  0  0  0  0  0  0  0
   24.8816   68.7439   -1.6591 C   0  0  2  0  0  0  0  0  0  0  0  0
   23.4880   66.4154   -2.6369 C   0  0  1  0  0  0  0  0  0  0  0  0
   23.4809   68.3293   -1.2052 C   0  0  1  0  0  0  0  0  0  0  0  0
   26.7897   68.1042   -4.2246 H   0  0  0  0  0  0  0  0  0  0  0  0
   25.8868   66.5693   -4.8670 H   0  0  0  0  0  0  0  0  0  0  0  0
   25.8996   70.4113   -1.9241 H   0  0  0  0  0  0  0  0  0  0  0  0
   22.8088   64.4868   -3.8731 O   0  0  0  0  0  0  0  0  0  0  0  0
   23.2241   64.9120   -2.5882 C   0  0  0  0  0  0  0  0  0  0  0  0
   22.6375   63.5317   -3.8572 H   0  0  0  0  0  0  0  0  0  0  0  0
 25 28  1  0
 25 24  1  0
 25 26  1  6
 25 27  2  0
  1  4  1  0
  1 24  1  0
  1  2  1  1
  1  3  2  0
  6 11  1  0
  6 12  1  0
 29 36  1  0
 29 37  1  0
  9  7  1  1
  7 13  1  0
 10  8  1  1
  8 14  1  0
 37 28  1  6
  4  5  1  0
 33 30  1  1
 30 38  1  0
 34 31  1  6
 31 39  1  0
 35 32  1  6
 32 40  1  0
 41 42  1  0
 41 43  1  0
 15 19  2  0
 16 22  2  0
 12 17  1  6
 17 19  1  0
 17 20  1  0
 18 19  1  0
 18 22  1  0
 18 23  1  0
  9 10  1  0
  9 11  1  0
 10 12  1  0
 11  5  1  6
 33 34  1  0
 33 35  1  0
 34 36  1  0
 35 37  1  0
 36 42  1  1
 20 21  2  0
 21 22  1  0
M  CHG  2   2  -1  26  -1
M  END
>  <COMPND>  (38) 
    8629 

>  <AUTHOR>  (38) 
    GENERATED BY OPEN BABEL 3.1.1

>  <MASTER>  (38) 
        0    0    0    0    0    0    0    0   58    0   58    0

>  <minimizedAffinity>  (38) 
-7.29090

>  <CNNscore>  (38) 
0.3395221531

>  <CNNaffinity>  (38) 
4.3393030167

>  <CNN_VS>  (38) 
1.4732894897

>  <CNNaffinity_variance>  (38) 
0.0946441889

$$$$
39
     RDKit          3D

 43 45  0  0  0  0  0  0  0  0999 V2000
   20.9702   74.5701   -5.2734 P   0  0  2  0  0  0  0  0  0  0  0  0
   19.6894   75.3273   -4.6382 O   0  0  0  0  0  0  0  0  0  0  0  0
   22.0782   75.4731   -5.7300 O   0  0  0  0  0  0  0  0  0  0  0  0
   20.3310   73.6123   -6.4100 O   0  0  0  0  0  0  0  0  0  0  0  0
   20.8897   72.3243   -6.6013 C   0  0  0  0  0  0  0  0  0  0  0  0
   19.2002   70.6515   -6.9496 O   0  0  0  0  0  0  0  0  0  0  0  0
   18.8606   71.8317   -9.6850 O   0  0  0  0  0  0  0  0  0  0  0  0
   16.7562   72.8938   -8.3139 O   0  0  0  0  0  0  0  0  0  0  0  0
   19.1490   72.4850   -8.4499 C   0  0  1  0  0  0  0  0  0  0  0  0
   17.9100   72.5367   -7.5805 C   0  0  2  0  0  0  0  0  0  0  0  0
   20.0671   71.5766   -7.6417 C   0  0  1  0  0  0  0  0  0  0  0  0
   17.8442   71.1178   -7.0413 C   0  0  2  0  0  0  0  0  0  0  0  0
   18.2758   72.3931  -10.2187 H   0  0  0  0  0  0  0  0  0  0  0  0
   16.8463   73.8044   -8.6355 H   0  0  0  0  0  0  0  0  0  0  0  0
   15.9491   69.1763   -6.2557 O   0  0  0  0  0  0  0  0  0  0  0  0
   15.5927   70.9705   -2.0255 O   0  0  0  0  0  0  0  0  0  0  0  0
   17.2400   71.0538   -5.7404 N   0  0  0  0  0  0  0  0  0  0  0  0
   15.7733   70.0712   -4.1500 N   0  0  0  0  0  0  0  0  0  0  0  0
   16.2987   70.0395   -5.4480 C   0  0  0  0  0  0  0  0  0  0  0  0
   17.5825   71.9897   -4.7705 C   0  0  0  0  0  0  0  0  0  0  0  0
   17.0714   72.0070   -3.5377 C   0  0  0  0  0  0  0  0  0  0  0  0
   16.0810   70.9814   -3.1512 C   0  0  0  0  0  0  0  0  0  0  0  0
   15.1153   69.3743   -3.9237 H   0  0  0  0  0  0  0  0  0  0  0  0
   21.3884   73.5265   -4.1119 O   0  0  0  0  0  0  0  0  0  0  0  0
   22.8275   73.1840   -3.4604 P   0  0  2  0  0  0  0  0  0  0  0  0
   23.1406   74.4833   -2.5485 O   0  0  0  0  0  0  0  0  0  0  0  0
   23.8959   72.8598   -4.4640 O   0  0  0  0  0  0  0  0  0  0  0  0
   22.5258   72.0051   -2.4002 O   0  0  0  0  0  0  0  0  0  0  0  0
   23.1519   69.8438   -3.1440 O   0  0  0  0  0  0  0  0  0  0  0  0
   20.8382   68.7784    0.1059 O   0  0  0  0  0  0  0  0  0  0  0  0
   23.6930   68.4981    0.2450 O   0  0  0  0  0  0  0  0  0  0  0  0
   20.0408   71.0017   -1.5675 O   0  0  0  0  0  0  0  0  0  0  0  0
   21.7548   69.5931   -0.6299 C   0  0  1  0  0  0  0  0  0  0  0  0
   22.9848   68.7475   -0.9660 C   0  0  1  0  0  0  0  0  0  0  0  0
   21.0737   70.0827   -1.9065 C   0  0  2  0  0  0  0  0  0  0  0  0
   23.8903   69.4641   -1.9768 C   0  0  1  0  0  0  0  0  0  0  0  0
   22.0717   70.7363   -2.8641 C   0  0  1  0  0  0  0  0  0  0  0  0
   21.2643   68.4646    0.9180 H   0  0  0  0  0  0  0  0  0  0  0  0
   23.1100   68.0458    0.8747 H   0  0  0  0  0  0  0  0  0  0  0  0
   19.4155   70.5760   -0.9612 H   0  0  0  0  0  0  0  0  0  0  0  0
   24.5864   67.7909   -3.5340 O   0  0  0  0  0  0  0  0  0  0  0  0
   25.0398   68.5748   -2.4458 C   0  0  0  0  0  0  0  0  0  0  0  0
   25.3077   67.2201   -3.8432 H   0  0  0  0  0  0  0  0  0  0  0  0
 25 28  1  0
 25 24  1  0
 25 26  1  1
 25 27  2  0
  1  4  1  0
  1 24  1  0
  1  2  1  1
  1  3  2  0
  6 11  1  0
  6 12  1  0
 29 36  1  0
 29 37  1  0
  9  7  1  6
  7 13  1  0
 10  8  1  6
  8 14  1  0
 37 28  1  1
  4  5  1  0
 33 30  1  6
 30 38  1  0
 34 31  1  1
 31 39  1  0
 35 32  1  1
 32 40  1  0
 41 42  1  0
 41 43  1  0
 15 19  2  0
 16 22  2  0
 12 17  1  1
 17 19  1  0
 17 20  1  0
 18 19  1  0
 18 22  1  0
 18 23  1  0
  9 10  1  0
  9 11  1  0
 10 12  1  0
 11  5  1  1
 33 34  1  0
 33 35  1  0
 34 36  1  0
 35 37  1  0
 36 42  1  6
 20 21  2  0
 21 22  1  0
M  CHG  2   2  -1  26  -1
M  END
>  <COMPND>  (39) 
    8629 

>  <AUTHOR>  (39) 
    GENERATED BY OPEN BABEL 3.1.1

>  <MASTER>  (39) 
        0    0    0    0    0    0    0    0   58    0   58    0

>  <minimizedAffinity>  (39) 
-8.37553

>  <CNNscore>  (39) 
0.3210004568

>  <CNNaffinity>  (39) 
3.8709139824

>  <CNN_VS>  (39) 
1.2425651550

>  <CNNaffinity_variance>  (39) 
0.8644512296

$$$$
40
     RDKit          3D

 43 45  0  0  0  0  0  0  0  0999 V2000
   21.3238   74.6702   -5.6603 P   0  0  2  0  0  0  0  0  0  0  0  0
   20.0519   75.6013   -5.2959 O   0  0  0  0  0  0  0  0  0  0  0  0
   22.5853   75.4171   -5.9795 O   0  0  0  0  0  0  0  0  0  0  0  0
   20.7700   73.6954   -6.8270 O   0  0  0  0  0  0  0  0  0  0  0  0
   20.8474   72.2943   -6.6307 C   0  0  0  0  0  0  0  0  0  0  0  0
   19.1064   70.6802   -7.0018 O   0  0  0  0  0  0  0  0  0  0  0  0
   18.7683   71.9430   -9.7004 O   0  0  0  0  0  0  0  0  0  0  0  0
   16.7119   73.0273   -8.2749 O   0  0  0  0  0  0  0  0  0  0  0  0
   19.0902   72.5543   -8.4521 C   0  0  1  0  0  0  0  0  0  0  0  0
   17.8637   72.6178   -7.5660 C   0  0  2  0  0  0  0  0  0  0  0  0
   19.9913   71.5986   -7.6801 C   0  0  1  0  0  0  0  0  0  0  0  0
   17.7634   71.1874   -7.0639 C   0  0  2  0  0  0  0  0  0  0  0  0
   18.1936   72.5350  -10.2115 H   0  0  0  0  0  0  0  0  0  0  0  0
   16.8244   73.9433   -8.5733 H   0  0  0  0  0  0  0  0  0  0  0  0
   15.8945   69.2209   -6.2775 O   0  0  0  0  0  0  0  0  0  0  0  0
   15.5649   70.9721   -2.0271 O   0  0  0  0  0  0  0  0  0  0  0  0
   17.1732   71.1056   -5.7576 N   0  0  0  0  0  0  0  0  0  0  0  0
   15.7321   70.0944   -4.1617 N   0  0  0  0  0  0  0  0  0  0  0  0
   16.2444   70.0798   -5.4653 C   0  0  0  0  0  0  0  0  0  0  0  0
   17.5168   72.0356   -4.7825 C   0  0  0  0  0  0  0  0  0  0  0  0
   17.0183   72.0365   -3.5445 C   0  0  0  0  0  0  0  0  0  0  0  0
   16.0415   70.9981   -3.1576 C   0  0  0  0  0  0  0  0  0  0  0  0
   15.0829   69.3893   -3.9353 H   0  0  0  0  0  0  0  0  0  0  0  0
   21.4303   73.6845   -4.3835 O   0  0  0  0  0  0  0  0  0  0  0  0
   22.6956   73.2640   -3.4698 P   0  0  2  0  0  0  0  0  0  0  0  0
   22.9430   74.5739   -2.5531 O   0  0  0  0  0  0  0  0  0  0  0  0
   23.8979   72.8188   -4.2510 O   0  0  0  0  0  0  0  0  0  0  0  0
   22.1131   72.1569   -2.4499 O   0  0  0  0  0  0  0  0  0  0  0  0
   23.4457   71.9691   -0.4992 O   0  0  0  0  0  0  0  0  0  0  0  0
   20.9972   68.6908    0.0563 O   0  0  0  0  0  0  0  0  0  0  0  0
   20.6414   71.0206    1.6974 O   0  0  0  0  0  0  0  0  0  0  0  0
   21.9332   69.3604   -2.5999 O   0  0  0  0  0  0  0  0  0  0  0  0
   21.3213   70.0185   -0.3652 C   0  0  1  0  0  0  0  0  0  0  0  0
   21.7759   70.8132    0.8606 C   0  0  1  0  0  0  0  0  0  0  0  0
   22.4362   69.9532   -1.4073 C   0  0  2  0  0  0  0  0  0  0  0  0
   22.3914   72.1582    0.4518 C   0  0  1  0  0  0  0  0  0  0  0  0
   23.0121   71.3386   -1.7060 C   0  0  1  0  0  0  0  0  0  0  0  0
   20.2895   68.7252    0.7177 H   0  0  0  0  0  0  0  0  0  0  0  0
   20.2619   70.1636    1.9480 H   0  0  0  0  0  0  0  0  0  0  0  0
   21.5718   68.4839   -2.3976 H   0  0  0  0  0  0  0  0  0  0  0  0
   21.9728   73.6574    2.2646 O   0  0  0  0  0  0  0  0  0  0  0  0
   22.9938   72.8976    1.6445 C   0  0  0  0  0  0  0  0  0  0  0  0
   22.3416   74.1332    3.0257 H   0  0  0  0  0  0  0  0  0  0  0  0
 25 28  1  0
 25 24  1  0
 25 26  1  1
 25 27  2  0
  1  4  1  0
  1 24  1  0
  1  2  1  1
  1  3  2  0
  6 11  1  0
  6 12  1  0
 29 36  1  0
 29 37  1  0
  9  7  1  6
  7 13  1  0
 10  8  1  6
  8 14  1  0
 37 28  1  1
  4  5  1  0
 33 30  1  1
 30 38  1  0
 34 31  1  1
 31 39  1  0
 35 32  1  6
 32 40  1  0
 41 42  1  0
 41 43  1  0
 15 19  2  0
 16 22  2  0
 12 17  1  1
 17 19  1  0
 17 20  1  0
 18 19  1  0
 18 22  1  0
 18 23  1  0
  9 10  1  0
  9 11  1  0
 10 12  1  0
 11  5  1  1
 33 34  1  0
 33 35  1  0
 34 36  1  0
 35 37  1  0
 36 42  1  1
 20 21  2  0
 21 22  1  0
M  CHG  2   2  -1  26  -1
M  END
>  <COMPND>  (40) 
    8629 

>  <AUTHOR>  (40) 
    GENERATED BY OPEN BABEL 3.1.1

>  <MASTER>  (40) 
        0    0    0    0    0    0    0    0   58    0   58    0

>  <minimizedAffinity>  (40) 
-7.61339

>  <CNNscore>  (40) 
0.3013997674

>  <CNNaffinity>  (40) 
3.8959803581

>  <CNN_VS>  (40) 
1.1742476225

>  <CNNaffinity_variance>  (40) 
0.4754636884

$$$$
41
     RDKit          3D

 43 45  0  0  0  0  0  0  0  0999 V2000
   22.6845   72.9051   -3.9454 P   0  0  2  0  0  0  0  0  0  0  0  0
   22.9093   74.0162   -5.0996 O   0  0  0  0  0  0  0  0  0  0  0  0
   23.8788   72.0454   -3.6520 O   0  0  0  0  0  0  0  0  0  0  0  0
   21.3516   72.1187   -4.4176 O   0  0  0  0  0  0  0  0  0  0  0  0
   20.6351   71.3645   -3.4555 C   0  0  0  0  0  0  0  0  0  0  0  0
   18.8340   72.3025   -4.7401 O   0  0  0  0  0  0  0  0  0  0  0  0
   17.0280   71.3844   -2.5295 O   0  0  0  0  0  0  0  0  0  0  0  0
   16.6625   69.4648   -4.4316 O   0  0  0  0  0  0  0  0  0  0  0  0
   18.1960   70.7591   -3.0588 C   0  0  1  0  0  0  0  0  0  0  0  0
   17.8983   70.1498   -4.4130 C   0  0  2  0  0  0  0  0  0  0  0  0
   19.1939   71.8539   -3.4151 C   0  0  1  0  0  0  0  0  0  0  0  0
   17.9034   71.3714   -5.3162 C   0  0  2  0  0  0  0  0  0  0  0  0
   16.3761   70.7050   -2.2943 H   0  0  0  0  0  0  0  0  0  0  0  0
   16.7097   68.6962   -3.8419 H   0  0  0  0  0  0  0  0  0  0  0  0
   16.1855   70.4153   -7.3441 O   0  0  0  0  0  0  0  0  0  0  0  0
   19.6189   70.2149  -10.4121 O   0  0  0  0  0  0  0  0  0  0  0  0
   18.3217   71.0615   -6.6542 N   0  0  0  0  0  0  0  0  0  0  0  0
   17.8964   70.3165   -8.8701 N   0  0  0  0  0  0  0  0  0  0  0  0
   17.3799   70.5865   -7.5964 C   0  0  0  0  0  0  0  0  0  0  0  0
   19.6526   71.2297   -7.0206 C   0  0  0  0  0  0  0  0  0  0  0  0
   20.1294   70.9664   -8.2390 C   0  0  0  0  0  0  0  0  0  0  0  0
   19.2111   70.4663   -9.2824 C   0  0  0  0  0  0  0  0  0  0  0  0
   17.2587   69.9841   -9.5430 H   0  0  0  0  0  0  0  0  0  0  0  0
   22.1635   73.7832   -2.6922 O   0  0  0  0  0  0  0  0  0  0  0  0
   22.9673   74.4656   -1.4670 P   0  0  2  0  0  0  0  0  0  0  0  0
   21.8993   75.5211   -0.8647 O   0  0  0  0  0  0  0  0  0  0  0  0
   24.2845   75.0716   -1.8567 O   0  0  0  0  0  0  0  0  0  0  0  0
   23.0693   73.3060   -0.3490 O   0  0  0  0  0  0  0  0  0  0  0  0
   21.4908   71.5384   -0.3251 O   0  0  0  0  0  0  0  0  0  0  0  0
   22.7878   71.3178    3.5890 O   0  0  0  0  0  0  0  0  0  0  0  0
   23.5800   69.2896    1.7163 O   0  0  0  0  0  0  0  0  0  0  0  0
   22.4501   73.8990    2.3231 O   0  0  0  0  0  0  0  0  0  0  0  0
   22.9215   71.5412    2.1827 C   0  0  1  0  0  0  0  0  0  0  0  0
   22.5567   70.2460    1.4546 C   0  0  1  0  0  0  0  0  0  0  0  0
   21.9854   72.6741    1.7661 C   0  0  2  0  0  0  0  0  0  0  0  0
   22.4175   70.4799   -0.0557 C   0  0  1  0  0  0  0  0  0  0  0  0
   21.8807   72.7896    0.2444 C   0  0  1  0  0  0  0  0  0  0  0  0
   23.3799   70.5999    3.8601 H   0  0  0  0  0  0  0  0  0  0  0  0
   23.6580   69.1514    2.6734 H   0  0  0  0  0  0  0  0  0  0  0  0
   22.5117   73.8131    3.2868 H   0  0  0  0  0  0  0  0  0  0  0  0
   21.2235   68.4210    0.1543 O   0  0  0  0  0  0  0  0  0  0  0  0
   21.9011   69.2394   -0.7814 C   0  0  0  0  0  0  0  0  0  0  0  0
   20.8890   67.6277   -0.2936 H   0  0  0  0  0  0  0  0  0  0  0  0
 25 28  1  0
 25 24  1  0
 25 26  1  1
 25 27  2  0
  1  4  1  0
  1 24  1  0
  1  2  1  6
  1  3  2  0
  6 11  1  0
  6 12  1  0
 29 36  1  0
 29 37  1  0
  9  7  1  6
  7 13  1  0
 10  8  1  1
  8 14  1  0
 37 28  1  6
  4  5  1  0
 33 30  1  1
 30 38  1  0
 34 31  1  6
 31 39  1  0
 35 32  1  6
 32 40  1  0
 41 42  1  0
 41 43  1  0
 15 19  2  0
 16 22  2  0
 12 17  1  6
 17 19  1  0
 17 20  1  0
 18 19  1  0
 18 22  1  0
 18 23  1  0
  9 10  1  0
  9 11  1  0
 10 12  1  0
 11  5  1  6
 33 34  1  0
 33 35  1  0
 34 36  1  0
 35 37  1  0
 36 42  1  6
 20 21  2  0
 21 22  1  0
M  CHG  2   2  -1  26  -1
M  END
>  <COMPND>  (41) 
    8629 

>  <AUTHOR>  (41) 
    GENERATED BY OPEN BABEL 3.1.1

>  <MASTER>  (41) 
        0    0    0    0    0    0    0    0   58    0   58    0

>  <minimizedAffinity>  (41) 
-7.78745

>  <CNNscore>  (41) 
0.8402907252

>  <CNNaffinity>  (41) 
4.5709772110

>  <CNN_VS>  (41) 
3.8409497738

>  <CNNaffinity_variance>  (41) 
0.0942453444

$$$$
42
     RDKit          3D

 43 45  0  0  0  0  0  0  0  0999 V2000
   21.1275   69.9715   -1.0292 P   0  0  2  0  0  0  0  0  0  0  0  0
   22.5782   69.4111   -1.4751 O   0  0  0  0  0  0  0  0  0  0  0  0
   20.9360   70.1277    0.4508 O   0  0  0  0  0  0  0  0  0  0  0  0
   20.0841   68.9830   -1.7722 O   0  0  0  0  0  0  0  0  0  0  0  0
   19.6616   69.3090   -3.0849 C   0  0  0  0  0  0  0  0  0  0  0  0
   18.4007   71.1071   -4.0599 O   0  0  0  0  0  0  0  0  0  0  0  0
   16.0242   69.9662   -2.6310 O   0  0  0  0  0  0  0  0  0  0  0  0
   15.6751   69.0628   -5.1802 O   0  0  0  0  0  0  0  0  0  0  0  0
   17.1221   69.2883   -3.2394 C   0  0  1  0  0  0  0  0  0  0  0  0
   16.9940   69.3282   -4.7479 C   0  0  2  0  0  0  0  0  0  0  0  0
   18.3762   70.1211   -3.0046 C   0  0  1  0  0  0  0  0  0  0  0  0
   17.4389   70.7459   -5.0646 C   0  0  2  0  0  0  0  0  0  0  0  0
   15.2118   69.4531   -2.7675 H   0  0  0  0  0  0  0  0  0  0  0  0
   15.4389   68.1492   -4.9561 H   0  0  0  0  0  0  0  0  0  0  0  0
   16.0213   70.7810   -7.5074 O   0  0  0  0  0  0  0  0  0  0  0  0
   19.9024   71.1512   -9.9652 O   0  0  0  0  0  0  0  0  0  0  0  0
   18.0537   70.8510   -6.3578 N   0  0  0  0  0  0  0  0  0  0  0  0
   17.9550   70.9655   -8.7292 N   0  0  0  0  0  0  0  0  0  0  0  0
   17.2515   70.8587   -7.5226 C   0  0  0  0  0  0  0  0  0  0  0  0
   19.4373   70.9454   -6.4617 C   0  0  0  0  0  0  0  0  0  0  0  0
   20.0928   71.0452   -7.6200 C   0  0  0  0  0  0  0  0  0  0  0  0
   19.3289   71.0605   -8.8842 C   0  0  0  0  0  0  0  0  0  0  0  0
   17.4169   70.9725   -9.5539 H   0  0  0  0  0  0  0  0  0  0  0  0
   20.9925   71.3433   -1.8736 O   0  0  0  0  0  0  0  0  0  0  0  0
   21.6650   72.7965   -1.6523 P   0  0  2  0  0  0  0  0  0  0  0  0
   20.7534   73.7704   -2.5677 O   0  0  0  0  0  0  0  0  0  0  0  0
   23.1327   72.8492   -1.9635 O   0  0  0  0  0  0  0  0  0  0  0  0
   21.2884   73.1940   -0.1340 O   0  0  0  0  0  0  0  0  0  0  0  0
   21.6785   75.0270    1.3167 O   0  0  0  0  0  0  0  0  0  0  0  0
   22.6811   71.9401    3.8695 O   0  0  0  0  0  0  0  0  0  0  0  0
   20.2327   73.3833    4.2827 O   0  0  0  0  0  0  0  0  0  0  0  0
   23.3986   71.7888    1.0692 O   0  0  0  0  0  0  0  0  0  0  0  0
   21.9460   72.5773    2.8212 C   0  0  1  0  0  0  0  0  0  0  0  0
   21.2633   73.8182    3.4000 C   0  0  1  0  0  0  0  0  0  0  0  0
   22.9093   72.9667    1.7014 C   0  0  2  0  0  0  0  0  0  0  0  0
   20.6777   74.6980    2.2873 C   0  0  1  0  0  0  0  0  0  0  0  0
   22.2405   73.8813    0.6737 C   0  0  1  0  0  0  0  0  0  0  0  0
   22.0752   71.6899    4.5835 H   0  0  0  0  0  0  0  0  0  0  0  0
   20.6157   72.8284    4.9803 H   0  0  0  0  0  0  0  0  0  0  0  0
   23.8199   71.2184    1.7302 H   0  0  0  0  0  0  0  0  0  0  0  0
   18.9923   75.7393    3.6229 O   0  0  0  0  0  0  0  0  0  0  0  0
   20.1312   76.0170    2.8291 C   0  0  0  0  0  0  0  0  0  0  0  0
   18.6339   76.5697    3.9747 H   0  0  0  0  0  0  0  0  0  0  0  0
 25 28  1  0
 25 24  1  0
 25 26  1  6
 25 27  2  0
  1  4  1  0
  1 24  1  0
  1  2  1  1
  1  3  2  0
  6 11  1  0
  6 12  1  0
 29 36  1  0
 29 37  1  0
  9  7  1  1
  7 13  1  0
 10  8  1  1
  8 14  1  0
 37 28  1  1
  4  5  1  0
 33 30  1  1
 30 38  1  0
 34 31  1  1
 31 39  1  0
 35 32  1  6
 32 40  1  0
 41 42  1  0
 41 43  1  0
 15 19  2  0
 16 22  2  0
 12 17  1  6
 17 19  1  0
 17 20  1  0
 18 19  1  0
 18 22  1  0
 18 23  1  0
  9 10  1  0
  9 11  1  0
 10 12  1  0
 11  5  1  6
 33 34  1  0
 33 35  1  0
 34 36  1  0
 35 37  1  0
 36 42  1  1
 20 21  2  0
 21 22  1  0
M  CHG  2   2  -1  26  -1
M  END
>  <COMPND>  (42) 
    8629 

>  <AUTHOR>  (42) 
    GENERATED BY OPEN BABEL 3.1.1

>  <MASTER>  (42) 
        0    0    0    0    0    0    0    0   58    0   58    0

>  <minimizedAffinity>  (42) 
-7.13755

>  <CNNscore>  (42) 
0.7862757444

>  <CNNaffinity>  (42) 
4.7556247711

>  <CNN_VS>  (42) 
3.7392323017

>  <CNNaffinity_variance>  (42) 
0.0702523142

$$$$
43
     RDKit          3D

 43 45  0  0  0  0  0  0  0  0999 V2000
   22.7897   70.0747   -2.5473 P   0  0  2  0  0  0  0  0  0  0  0  0
   23.6596   71.2411   -3.2545 O   0  0  0  0  0  0  0  0  0  0  0  0
   23.3192   68.6840   -2.7399 O   0  0  0  0  0  0  0  0  0  0  0  0
   21.2849   70.3339   -3.0823 O   0  0  0  0  0  0  0  0  0  0  0  0
   20.3843   69.2407   -3.1235 C   0  0  0  0  0  0  0  0  0  0  0  0
   18.6645   70.7575   -3.8414 O   0  0  0  0  0  0  0  0  0  0  0  0
   16.7699   69.0708   -2.2424 O   0  0  0  0  0  0  0  0  0  0  0  0
   16.3218   68.2137   -4.7922 O   0  0  0  0  0  0  0  0  0  0  0  0
   17.9070   68.6729   -3.0068 C   0  0  1  0  0  0  0  0  0  0  0  0
   17.5960   68.7431   -4.4873 C   0  0  2  0  0  0  0  0  0  0  0  0
   18.9746   69.7492   -2.8547 C   0  0  1  0  0  0  0  0  0  0  0  0
   17.6895   70.2350   -4.7586 C   0  0  2  0  0  0  0  0  0  0  0  0
   16.0746   68.3986   -2.3238 H   0  0  0  0  0  0  0  0  0  0  0  0
   16.3129   67.2625   -4.6028 H   0  0  0  0  0  0  0  0  0  0  0  0
   15.9988   70.1304   -7.0188 O   0  0  0  0  0  0  0  0  0  0  0  0
   19.4153   71.3558   -9.8590 O   0  0  0  0  0  0  0  0  0  0  0  0
   18.1108   70.5223   -6.1007 N   0  0  0  0  0  0  0  0  0  0  0  0
   17.7013   70.7408   -8.4311 N   0  0  0  0  0  0  0  0  0  0  0  0
   17.1831   70.4397   -7.1651 C   0  0  0  0  0  0  0  0  0  0  0  0
   19.4307   70.8815   -6.3507 C   0  0  0  0  0  0  0  0  0  0  0  0
   19.9094   71.1643   -7.5641 C   0  0  0  0  0  0  0  0  0  0  0  0
   19.0054   71.1016   -8.7306 C   0  0  0  0  0  0  0  0  0  0  0  0
   17.0733   70.6895   -9.1880 H   0  0  0  0  0  0  0  0  0  0  0  0
   22.7162   70.5592   -1.0069 O   0  0  0  0  0  0  0  0  0  0  0  0
   22.3194   69.7585    0.3400 P   0  0  2  0  0  0  0  0  0  0  0  0
   23.7218   69.1012    0.8077 O   0  0  0  0  0  0  0  0  0  0  0  0
   21.2017   68.7719    0.1627 O   0  0  0  0  0  0  0  0  0  0  0  0
   22.0264   70.9123    1.4299 O   0  0  0  0  0  0  0  0  0  0  0  0
   21.1870   73.1240    1.2871 O   0  0  0  0  0  0  0  0  0  0  0  0
   24.2314   73.7480    4.0061 O   0  0  0  0  0  0  0  0  0  0  0  0
   21.5015   73.8047    4.8964 O   0  0  0  0  0  0  0  0  0  0  0  0
   24.6205   71.9174    1.7976 O   0  0  0  0  0  0  0  0  0  0  0  0
   23.1742   73.0171    3.3789 C   0  0  1  0  0  0  0  0  0  0  0  0
   21.8821   73.8236    3.5234 C   0  0  1  0  0  0  0  0  0  0  0  0
   23.5167   72.8100    1.9047 C   0  0  2  0  0  0  0  0  0  0  0  0
   20.7635   73.2388    2.6507 C   0  0  1  0  0  0  0  0  0  0  0  0
   22.3209   72.2713    1.1173 C   0  0  1  0  0  0  0  0  0  0  0  0
   24.0204   73.8824    4.9425 H   0  0  0  0  0  0  0  0  0  0  0  0
   22.2167   74.1761    5.4365 H   0  0  0  0  0  0  0  0  0  0  0  0
   25.3710   72.2699    2.3000 H   0  0  0  0  0  0  0  0  0  0  0  0
   19.8718   75.4031    3.1298 O   0  0  0  0  0  0  0  0  0  0  0  0
   19.5144   74.1173    2.6574 C   0  0  0  0  0  0  0  0  0  0  0  0
   19.0866   75.9733    3.1393 H   0  0  0  0  0  0  0  0  0  0  0  0
 25 28  1  0
 25 24  1  0
 25 26  1  1
 25 27  2  0
  1  4  1  0
  1 24  1  0
  1  2  1  6
  1  3  2  0
  6 11  1  0
  6 12  1  0
 29 36  1  0
 29 37  1  0
  9  7  1  1
  7 13  1  0
 10  8  1  1
  8 14  1  0
 37 28  1  1
  4  5  1  0
 33 30  1  1
 30 38  1  0
 34 31  1  1
 31 39  1  0
 35 32  1  1
 32 40  1  0
 41 42  1  0
 41 43  1  0
 15 19  2  0
 16 22  2  0
 12 17  1  6
 17 19  1  0
 17 20  1  0
 18 19  1  0
 18 22  1  0
 18 23  1  0
  9 10  1  0
  9 11  1  0
 10 12  1  0
 11  5  1  6
 33 34  1  0
 33 35  1  0
 34 36  1  0
 35 37  1  0
 36 42  1  6
 20 21  2  0
 21 22  1  0
M  CHG  2   2  -1  26  -1
M  END
>  <COMPND>  (43) 
    8629 

>  <AUTHOR>  (43) 
    GENERATED BY OPEN BABEL 3.1.1

>  <MASTER>  (43) 
        0    0    0    0    0    0    0    0   58    0   58    0

>  <minimizedAffinity>  (43) 
-8.04739

>  <CNNscore>  (43) 
0.7766071558

>  <CNNaffinity>  (43) 
4.8463592529

>  <CNN_VS>  (43) 
3.7637171745

>  <CNNaffinity_variance>  (43) 
0.1233091801

$$$$
44
     RDKit          3D

 43 45  0  0  0  0  0  0  0  0999 V2000
   21.2129   69.7642   -1.0225 P   0  0  2  0  0  0  0  0  0  0  0  0
   22.5457   69.1646   -1.7162 O   0  0  0  0  0  0  0  0  0  0  0  0
   21.1996   69.7098    0.4770 O   0  0  0  0  0  0  0  0  0  0  0  0
   20.0046   68.9849   -1.7645 O   0  0  0  0  0  0  0  0  0  0  0  0
   19.6456   69.3859   -3.0753 C   0  0  0  0  0  0  0  0  0  0  0  0
   18.3818   71.1678   -4.0760 O   0  0  0  0  0  0  0  0  0  0  0  0
   16.0020   70.0284   -2.6516 O   0  0  0  0  0  0  0  0  0  0  0  0
   15.6743   69.0984   -5.1941 O   0  0  0  0  0  0  0  0  0  0  0  0
   17.1074   69.3504   -3.2462 C   0  0  1  0  0  0  0  0  0  0  0  0
   16.9890   69.3749   -4.7559 C   0  0  2  0  0  0  0  0  0  0  0  0
   18.3555   70.1920   -3.0114 C   0  0  1  0  0  0  0  0  0  0  0  0
   17.4286   70.7918   -5.0834 C   0  0  2  0  0  0  0  0  0  0  0  0
   15.1931   69.5097   -2.7884 H   0  0  0  0  0  0  0  0  0  0  0  0
   15.4414   68.1858   -4.9626 H   0  0  0  0  0  0  0  0  0  0  0  0
   16.0211   70.9311   -7.5283 O   0  0  0  0  0  0  0  0  0  0  0  0
   19.9223   71.1553   -9.9720 O   0  0  0  0  0  0  0  0  0  0  0  0
   18.0513   70.8875   -6.3735 N   0  0  0  0  0  0  0  0  0  0  0  0
   17.9648   71.0428   -8.7431 N   0  0  0  0  0  0  0  0  0  0  0  0
   17.2537   70.9510   -7.5398 C   0  0  0  0  0  0  0  0  0  0  0  0
   19.4381   70.9181   -6.4731 C   0  0  0  0  0  0  0  0  0  0  0  0
   20.1009   71.0046   -7.6283 C   0  0  0  0  0  0  0  0  0  0  0  0
   19.3421   71.0753   -8.8937 C   0  0  0  0  0  0  0  0  0  0  0  0
   17.4300   71.0879   -9.5688 H   0  0  0  0  0  0  0  0  0  0  0  0
   21.1192   71.2541   -1.6424 O   0  0  0  0  0  0  0  0  0  0  0  0
   21.7083   72.6632   -1.1129 P   0  0  2  0  0  0  0  0  0  0  0  0
   23.1670   72.2633   -0.5387 O   0  0  0  0  0  0  0  0  0  0  0  0
   20.8249   73.3666   -0.1236 O   0  0  0  0  0  0  0  0  0  0  0  0
   22.0154   73.5073   -2.4538 O   0  0  0  0  0  0  0  0  0  0  0  0
   22.1704   75.6831   -3.3805 O   0  0  0  0  0  0  0  0  0  0  0  0
   18.9258   74.2851   -5.5180 O   0  0  0  0  0  0  0  0  0  0  0  0
   21.4607   74.5976   -6.8312 O   0  0  0  0  0  0  0  0  0  0  0  0
   19.2234   73.5878   -2.7243 O   0  0  0  0  0  0  0  0  0  0  0  0
   20.1862   74.1861   -4.8495 C   0  0  1  0  0  0  0  0  0  0  0  0
   21.1715   75.1300   -5.5415 C   0  0  1  0  0  0  0  0  0  0  0  0
   20.0060   74.5772   -3.3839 C   0  0  2  0  0  0  0  0  0  0  0  0
   22.4615   75.2806   -4.7241 C   0  0  1  0  0  0  0  0  0  0  0  0
   21.3510   74.7486   -2.6755 C   0  0  1  0  0  0  0  0  0  0  0  0
   19.0332   74.0375   -6.4490 H   0  0  0  0  0  0  0  0  0  0  0  0
   20.6378   74.5070   -7.3369 H   0  0  0  0  0  0  0  0  0  0  0  0
   18.3745   73.4890   -3.1820 H   0  0  0  0  0  0  0  0  0  0  0  0
   23.8754   75.8661   -6.5590 O   0  0  0  0  0  0  0  0  0  0  0  0
   23.3926   76.3374   -5.3144 C   0  0  0  0  0  0  0  0  0  0  0  0
   24.4692   76.5286   -6.9467 H   0  0  0  0  0  0  0  0  0  0  0  0
 25 28  1  0
 25 24  1  0
 25 26  1  1
 25 27  2  0
  1  4  1  0
  1 24  1  0
  1  2  1  6
  1  3  2  0
  6 11  1  0
  6 12  1  0
 29 36  1  0
 29 37  1  0
  9  7  1  1
  7 13  1  0
 10  8  1  1
  8 14  1  0
 37 28  1  6
  4  5  1  0
 33 30  1  6
 30 38  1  0
 34 31  1  6
 31 39  1  0
 35 32  1  1
 32 40  1  0
 41 42  1  0
 41 43  1  0
 15 19  2  0
 16 22  2  0
 12 17  1  6
 17 19  1  0
 17 20  1  0
 18 19  1  0
 18 22  1  0
 18 23  1  0
  9 10  1  0
  9 11  1  0
 10 12  1  0
 11  5  1  6
 33 34  1  0
 33 35  1  0
 34 36  1  0
 35 37  1  0
 36 42  1  6
 20 21  2  0
 21 22  1  0
M  CHG  2   2  -1  26  -1
M  END
>  <COMPND>  (44) 
    8629 

>  <AUTHOR>  (44) 
    GENERATED BY OPEN BABEL 3.1.1

>  <MASTER>  (44) 
        0    0    0    0    0    0    0    0   58    0   58    0

>  <minimizedAffinity>  (44) 
-6.52984

>  <CNNscore>  (44) 
0.7764437795

>  <CNNaffinity>  (44) 
4.5483961105

>  <CNN_VS>  (44) 
3.5315737724

>  <CNNaffinity_variance>  (44) 
0.1070876122

$$$$
45
     RDKit          3D

 43 45  0  0  0  0  0  0  0  0999 V2000
   20.8039   69.8215   -1.9216 P   0  0  2  0  0  0  0  0  0  0  0  0
   22.1405   68.9797   -2.2716 O   0  0  0  0  0  0  0  0  0  0  0  0
   20.8021   70.4752   -0.5710 O   0  0  0  0  0  0  0  0  0  0  0  0
   19.6019   68.7740   -2.1969 O   0  0  0  0  0  0  0  0  0  0  0  0
   19.1669   68.5795   -3.5313 C   0  0  0  0  0  0  0  0  0  0  0  0
   16.9769   69.0031   -2.6379 O   0  0  0  0  0  0  0  0  0  0  0  0
   15.9362   67.3259   -4.8951 O   0  0  0  0  0  0  0  0  0  0  0  0
   15.4729   69.8641   -5.7779 O   0  0  0  0  0  0  0  0  0  0  0  0
   17.0365   68.2339   -4.8785 C   0  0  1  0  0  0  0  0  0  0  0  0
   16.5380   69.6639   -4.8712 C   0  0  2  0  0  0  0  0  0  0  0  0
   17.7135   68.1260   -3.5179 C   0  0  1  0  0  0  0  0  0  0  0  0
   16.1145   69.8425   -3.4231 C   0  0  2  0  0  0  0  0  0  0  0  0
   15.4882   67.3766   -5.7545 H   0  0  0  0  0  0  0  0  0  0  0  0
   15.7926   69.7395   -6.6851 H   0  0  0  0  0  0  0  0  0  0  0  0
   14.3151   71.1344   -1.6706 O   0  0  0  0  0  0  0  0  0  0  0  0
   16.7393   75.0527   -1.7763 O   0  0  0  0  0  0  0  0  0  0  0  0
   16.2514   71.1999   -2.9758 N   0  0  0  0  0  0  0  0  0  0  0  0
   15.5237   73.0843   -1.7245 N   0  0  0  0  0  0  0  0  0  0  0  0
   15.2921   71.7539   -2.0965 C   0  0  0  0  0  0  0  0  0  0  0  0
   17.3279   71.9668   -3.4083 C   0  0  0  0  0  0  0  0  0  0  0  0
   17.5337   73.2345   -3.0453 C   0  0  0  0  0  0  0  0  0  0  0  0
   16.5778   73.8884   -2.1285 C   0  0  0  0  0  0  0  0  0  0  0  0
   14.8682   73.4914   -1.1128 H   0  0  0  0  0  0  0  0  0  0  0  0
   20.6842   70.8470   -3.1655 O   0  0  0  0  0  0  0  0  0  0  0  0
   21.3690   72.2884   -3.4226 P   0  0  2  0  0  0  0  0  0  0  0  0
   22.8603   71.9072   -3.9208 O   0  0  0  0  0  0  0  0  0  0  0  0
   21.3285   73.2092   -2.2375 O   0  0  0  0  0  0  0  0  0  0  0  0
   20.6331   72.8611   -4.7400 O   0  0  0  0  0  0  0  0  0  0  0  0
   19.2251   71.8378   -6.3484 O   0  0  0  0  0  0  0  0  0  0  0  0
   21.4584   74.2384   -8.8585 O   0  0  0  0  0  0  0  0  0  0  0  0
   18.7205   74.9143   -8.3155 O   0  0  0  0  0  0  0  0  0  0  0  0
   22.7250   72.9280   -6.6094 O   0  0  0  0  0  0  0  0  0  0  0  0
   20.7789   73.8954   -7.6478 C   0  0  1  0  0  0  0  0  0  0  0  0
   19.3034   73.6591   -7.9764 C   0  0  1  0  0  0  0  0  0  0  0  0
   21.4083   72.6325   -7.0626 C   0  0  2  0  0  0  0  0  0  0  0  0
   18.5647   73.0308   -6.7871 C   0  0  1  0  0  0  0  0  0  0  0  0
   20.5692   72.0615   -5.9180 C   0  0  1  0  0  0  0  0  0  0  0  0
   21.0640   75.0398   -9.2349 H   0  0  0  0  0  0  0  0  0  0  0  0
   19.1965   75.3006   -9.0675 H   0  0  0  0  0  0  0  0  0  0  0  0
   23.2461   73.2884   -7.3432 H   0  0  0  0  0  0  0  0  0  0  0  0
   16.2889   73.7508   -6.8927 O   0  0  0  0  0  0  0  0  0  0  0  0
   17.1319   72.6417   -7.1446 C   0  0  0  0  0  0  0  0  0  0  0  0
   15.3737   73.5178   -7.1160 H   0  0  0  0  0  0  0  0  0  0  0  0
 25 28  1  0
 25 24  1  0
 25 26  1  6
 25 27  2  0
  1  4  1  0
  1 24  1  0
  1  2  1  6
  1  3  2  0
  6 11  1  0
  6 12  1  0
 29 36  1  0
 29 37  1  0
  9  7  1  1
  7 13  1  0
 10  8  1  6
  8 14  1  0
 37 28  1  1
  4  5  1  0
 33 30  1  6
 30 38  1  0
 34 31  1  1
 31 39  1  0
 35 32  1  1
 32 40  1  0
 41 42  1  0
 41 43  1  0
 15 19  2  0
 16 22  2  0
 12 17  1  1
 17 19  1  0
 17 20  1  0
 18 19  1  0
 18 22  1  0
 18 23  1  0
  9 10  1  0
  9 11  1  0
 10 12  1  0
 11  5  1  6
 33 34  1  0
 33 35  1  0
 34 36  1  0
 35 37  1  0
 36 42  1  6
 20 21  2  0
 21 22  1  0
M  CHG  2   2  -1  26  -1
M  END
>  <COMPND>  (45) 
    8629 

>  <AUTHOR>  (45) 
    GENERATED BY OPEN BABEL 3.1.1

>  <MASTER>  (45) 
        0    0    0    0    0    0    0    0   58    0   58    0

>  <minimizedAffinity>  (45) 
-6.76272

>  <CNNscore>  (45) 
0.5624417663

>  <CNNaffinity>  (45) 
4.1085944176

>  <CNN_VS>  (45) 
2.3108451366

>  <CNNaffinity_variance>  (45) 
0.6034767628

$$$$
46
     RDKit          3D

 43 45  0  0  0  0  0  0  0  0999 V2000
   21.9876   69.3356   -0.9493 P   0  0  2  0  0  0  0  0  0  0  0  0
   21.2533   68.4572    0.1937 O   0  0  0  0  0  0  0  0  0  0  0  0
   23.1123   68.6400   -1.6584 O   0  0  0  0  0  0  0  0  0  0  0  0
   22.3785   70.7106   -0.1913 O   0  0  0  0  0  0  0  0  0  0  0  0
   23.7398   70.9451    0.1245 C   0  0  0  0  0  0  0  0  0  0  0  0
   24.8058   72.0504    1.9726 O   0  0  0  0  0  0  0  0  0  0  0  0
   22.7168   70.7700    3.7010 O   0  0  0  0  0  0  0  0  0  0  0  0
   21.7796   73.3158    3.4231 O   0  0  0  0  0  0  0  0  0  0  0  0
   22.6005   71.2817    2.3743 C   0  0  1  0  0  0  0  0  0  0  0  0
   22.5959   72.7960    2.3934 C   0  0  2  0  0  0  0  0  0  0  0  0
   23.8992   70.9768    1.6383 C   0  0  1  0  0  0  0  0  0  0  0  0
   24.0676   73.1130    2.5977 C   0  0  2  0  0  0  0  0  0  0  0  0
   21.8989   70.9525    4.1906 H   0  0  0  0  0  0  0  0  0  0  0  0
   20.8533   73.0878    3.2477 H   0  0  0  0  0  0  0  0  0  0  0  0
   25.7867   75.0043    3.8001 O   0  0  0  0  0  0  0  0  0  0  0  0
   25.4543   77.8659    0.2025 O   0  0  0  0  0  0  0  0  0  0  0  0
   24.4475   74.3607    1.9974 N   0  0  0  0  0  0  0  0  0  0  0  0
   25.6199   76.4275    2.0077 N   0  0  0  0  0  0  0  0  0  0  0  0
   25.3155   75.2402    2.6856 C   0  0  0  0  0  0  0  0  0  0  0  0
   23.9611   74.7013    0.7399 C   0  0  0  0  0  0  0  0  0  0  0  0
   24.2600   75.8380    0.1077 C   0  0  0  0  0  0  0  0  0  0  0  0
   25.1606   76.8117    0.7579 C   0  0  0  0  0  0  0  0  0  0  0  0
   26.2226   77.0557    2.4681 H   0  0  0  0  0  0  0  0  0  0  0  0
   20.7639   69.7833   -1.9059 O   0  0  0  0  0  0  0  0  0  0  0  0
   20.1414   71.2415   -2.2210 P   0  0  2  0  0  0  0  0  0  0  0  0
   21.3419   71.9970   -2.9992 O   0  0  0  0  0  0  0  0  0  0  0  0
   19.6343   71.9689   -1.0096 O   0  0  0  0  0  0  0  0  0  0  0  0
   19.0256   70.9728   -3.3558 O   0  0  0  0  0  0  0  0  0  0  0  0
   18.7023   68.8869   -4.4335 O   0  0  0  0  0  0  0  0  0  0  0  0
   17.3281   71.3906   -7.4158 O   0  0  0  0  0  0  0  0  0  0  0  0
   15.4565   69.8089   -5.9180 O   0  0  0  0  0  0  0  0  0  0  0  0
   19.6222   72.1606   -5.8273 O   0  0  0  0  0  0  0  0  0  0  0  0
   17.5440   70.9668   -6.0671 C   0  0  1  0  0  0  0  0  0  0  0  0
   16.8666   69.6083   -5.8769 C   0  0  1  0  0  0  0  0  0  0  0  0
   19.0463   70.8588   -5.8123 C   0  0  2  0  0  0  0  0  0  0  0  0
   17.2764   68.9665   -4.5445 C   0  0  1  0  0  0  0  0  0  0  0  0
   19.3452   70.1621   -4.4836 C   0  0  1  0  0  0  0  0  0  0  0  0
   16.3761   71.4616   -7.5840 H   0  0  0  0  0  0  0  0  0  0  0  0
   15.2110   70.2151   -6.7641 H   0  0  0  0  0  0  0  0  0  0  0  0
   19.4262   72.5910   -6.6736 H   0  0  0  0  0  0  0  0  0  0  0  0
   16.9667   67.1051   -3.0789 O   0  0  0  0  0  0  0  0  0  0  0  0
   16.7381   67.5442   -4.4052 C   0  0  0  0  0  0  0  0  0  0  0  0
   16.6289   66.2013   -2.9754 H   0  0  0  0  0  0  0  0  0  0  0  0
 25 28  1  0
 25 24  1  0
 25 26  1  6
 25 27  2  0
  1  4  1  0
  1 24  1  0
  1  2  1  1
  1  3  2  0
  6 11  1  0
  6 12  1  0
 29 36  1  0
 29 37  1  0
  9  7  1  1
  7 13  1  0
 10  8  1  1
  8 14  1  0
 37 28  1  1
  4  5  1  0
 33 30  1  6
 30 38  1  0
 34 31  1  1
 31 39  1  0
 35 32  1  1
 32 40  1  0
 41 42  1  0
 41 43  1  0
 15 19  2  0
 16 22  2  0
 12 17  1  6
 17 19  1  0
 17 20  1  0
 18 19  1  0
 18 22  1  0
 18 23  1  0
  9 10  1  0
  9 11  1  0
 10 12  1  0
 11  5  1  6
 33 34  1  0
 33 35  1  0
 34 36  1  0
 35 37  1  0
 36 42  1  6
 20 21  2  0
 21 22  1  0
M  CHG  2   2  -1  26  -1
M  END
>  <COMPND>  (46) 
    8629 

>  <AUTHOR>  (46) 
    GENERATED BY OPEN BABEL 3.1.1

>  <MASTER>  (46) 
        0    0    0    0    0    0    0    0   58    0   58    0

>  <minimizedAffinity>  (46) 
-7.34236

>  <CNNscore>  (46) 
0.5372642279

>  <CNNaffinity>  (46) 
4.2090063095

>  <CNN_VS>  (46) 
2.2613484859

>  <CNNaffinity_variance>  (46) 
0.1219243780

$$$$
47
     RDKit          3D

 43 45  0  0  0  0  0  0  0  0999 V2000
   20.8775   69.7343   -1.9533 P   0  0  2  0  0  0  0  0  0  0  0  0
   22.0868   68.6691   -2.0956 O   0  0  0  0  0  0  0  0  0  0  0  0
   20.9209   70.5807   -0.7151 O   0  0  0  0  0  0  0  0  0  0  0  0
   19.5449   68.8368   -2.1445 O   0  0  0  0  0  0  0  0  0  0  0  0
   19.1362   68.5051   -3.4601 C   0  0  0  0  0  0  0  0  0  0  0  0
   16.9586   69.1038   -2.6393 O   0  0  0  0  0  0  0  0  0  0  0  0
   15.8643   67.3238   -4.7898 O   0  0  0  0  0  0  0  0  0  0  0  0
   15.5477   69.8121   -5.8596 O   0  0  0  0  0  0  0  0  0  0  0  0
   17.0104   68.1730   -4.8180 C   0  0  1  0  0  0  0  0  0  0  0  0
   16.5875   69.6235   -4.9216 C   0  0  2  0  0  0  0  0  0  0  0  0
   17.6610   68.1289   -3.4410 C   0  0  1  0  0  0  0  0  0  0  0  0
   16.1529   69.9275   -3.4979 C   0  0  2  0  0  0  0  0  0  0  0  0
   15.4322   67.3353   -5.6588 H   0  0  0  0  0  0  0  0  0  0  0  0
   15.8736   69.6062   -6.7496 H   0  0  0  0  0  0  0  0  0  0  0  0
   14.5088   71.3761   -1.7157 O   0  0  0  0  0  0  0  0  0  0  0  0
   17.0204   75.2070   -2.2236 O   0  0  0  0  0  0  0  0  0  0  0  0
   16.3544   71.3048   -3.1461 N   0  0  0  0  0  0  0  0  0  0  0  0
   15.7608   73.2823   -1.9699 N   0  0  0  0  0  0  0  0  0  0  0  0
   15.4707   71.9393   -2.2423 C   0  0  0  0  0  0  0  0  0  0  0  0
   17.4188   72.0117   -3.6949 C   0  0  0  0  0  0  0  0  0  0  0  0
   17.6810   73.2924   -3.4259 C   0  0  0  0  0  0  0  0  0  0  0  0
   16.8057   74.0288   -2.4912 C   0  0  0  0  0  0  0  0  0  0  0  0
   15.1584   73.7451   -1.3432 H   0  0  0  0  0  0  0  0  0  0  0  0
   20.9588   70.5637   -3.3383 O   0  0  0  0  0  0  0  0  0  0  0  0
   21.7530   71.9192   -3.7189 P   0  0  2  0  0  0  0  0  0  0  0  0
   23.3033   71.5183   -3.4874 O   0  0  0  0  0  0  0  0  0  0  0  0
   21.3056   73.1303   -2.9528 O   0  0  0  0  0  0  0  0  0  0  0  0
   21.5997   72.0465   -5.3205 O   0  0  0  0  0  0  0  0  0  0  0  0
   21.0499   74.1188   -6.3304 O   0  0  0  0  0  0  0  0  0  0  0  0
   19.7762   71.5700   -9.3190 O   0  0  0  0  0  0  0  0  0  0  0  0
   22.1623   73.1221   -9.7005 O   0  0  0  0  0  0  0  0  0  0  0  0
   19.3716   70.8563   -6.5429 O   0  0  0  0  0  0  0  0  0  0  0  0
   20.6215   72.0061   -8.2510 C   0  0  1  0  0  0  0  0  0  0  0  0
   21.2347   73.3517   -8.6436 C   0  0  1  0  0  0  0  0  0  0  0  0
   19.7869   72.1462   -6.9793 C   0  0  2  0  0  0  0  0  0  0  0  0
   21.9381   74.0096   -7.4488 C   0  0  1  0  0  0  0  0  0  0  0  0
   20.5636   72.8568   -5.8693 C   0  0  1  0  0  0  0  0  0  0  0  0
   20.3001   71.4786  -10.1294 H   0  0  0  0  0  0  0  0  0  0  0  0
   21.7055   72.7060  -10.4485 H   0  0  0  0  0  0  0  0  0  0  0  0
   18.8809   70.4170   -7.2543 H   0  0  0  0  0  0  0  0  0  0  0  0
   23.7235   75.3364   -8.3210 O   0  0  0  0  0  0  0  0  0  0  0  0
   22.4200   75.4214   -7.7753 C   0  0  0  0  0  0  0  0  0  0  0  0
   24.0430   76.2276   -8.5340 H   0  0  0  0  0  0  0  0  0  0  0  0
 25 28  1  0
 25 24  1  0
 25 26  1  6
 25 27  2  0
  1  4  1  0
  1 24  1  0
  1  2  1  1
  1  3  2  0
  6 11  1  0
  6 12  1  0
 29 36  1  0
 29 37  1  0
  9  7  1  1
  7 13  1  0
 10  8  1  6
  8 14  1  0
 37 28  1  6
  4  5  1  0
 33 30  1  6
 30 38  1  0
 34 31  1  6
 31 39  1  0
 35 32  1  1
 32 40  1  0
 41 42  1  0
 41 43  1  0
 15 19  2  0
 16 22  2  0
 12 17  1  1
 17 19  1  0
 17 20  1  0
 18 19  1  0
 18 22  1  0
 18 23  1  0
  9 10  1  0
  9 11  1  0
 10 12  1  0
 11  5  1  6
 33 34  1  0
 33 35  1  0
 34 36  1  0
 35 37  1  0
 36 42  1  6
 20 21  2  0
 21 22  1  0
M  CHG  2   2  -1  26  -1
M  END
>  <COMPND>  (47) 
    8629 

>  <AUTHOR>  (47) 
    GENERATED BY OPEN BABEL 3.1.1

>  <MASTER>  (47) 
        0    0    0    0    0    0    0    0   58    0   58    0

>  <minimizedAffinity>  (47) 
-6.98395

>  <CNNscore>  (47) 
0.5261190534

>  <CNNaffinity>  (47) 
4.1438837051

>  <CNN_VS>  (47) 
2.1801762581

>  <CNNaffinity_variance>  (47) 
0.2864909172

$$$$
48
     RDKit          3D

 43 45  0  0  0  0  0  0  0  0999 V2000
   20.7914   69.3801   -2.2170 P   0  0  2  0  0  0  0  0  0  0  0  0
   20.7209   70.1693   -0.8065 O   0  0  0  0  0  0  0  0  0  0  0  0
   21.1834   70.2221   -3.3955 O   0  0  0  0  0  0  0  0  0  0  0  0
   19.3528   68.6474   -2.3245 O   0  0  0  0  0  0  0  0  0  0  0  0
   18.8506   68.3290   -3.6107 C   0  0  0  0  0  0  0  0  0  0  0  0
   16.8840   69.2088   -2.5468 O   0  0  0  0  0  0  0  0  0  0  0  0
   15.3566   68.1072   -4.8802 O   0  0  0  0  0  0  0  0  0  0  0  0
   15.5489   70.7574   -5.4933 O   0  0  0  0  0  0  0  0  0  0  0  0
   16.6576   68.6919   -4.8484 C   0  0  1  0  0  0  0  0  0  0  0  0
   16.5552   70.1932   -4.6774 C   0  0  2  0  0  0  0  0  0  0  0  0
   17.3305   68.2689   -3.5485 C   0  0  1  0  0  0  0  0  0  0  0  0
   16.2463   70.3212   -3.1954 C   0  0  2  0  0  0  0  0  0  0  0  0
   14.9074   68.3630   -5.7015 H   0  0  0  0  0  0  0  0  0  0  0  0
   15.7915   70.6509   -6.4264 H   0  0  0  0  0  0  0  0  0  0  0  0
   14.7424   72.0755   -1.5710 O   0  0  0  0  0  0  0  0  0  0  0  0
   18.2935   74.9748   -1.0973 O   0  0  0  0  0  0  0  0  0  0  0  0
   16.7530   71.5415   -2.6337 N   0  0  0  0  0  0  0  0  0  0  0  0
   16.5118   73.5176   -1.3363 N   0  0  0  0  0  0  0  0  0  0  0  0
   15.9150   72.3515   -1.8323 C   0  0  0  0  0  0  0  0  0  0  0  0
   18.0673   71.9240   -2.8789 C   0  0  0  0  0  0  0  0  0  0  0  0
   18.6209   73.0397   -2.3995 C   0  0  0  0  0  0  0  0  0  0  0  0
   17.8134   73.9416   -1.5530 C   0  0  0  0  0  0  0  0  0  0  0  0
   15.9470   74.0977   -0.7757 H   0  0  0  0  0  0  0  0  0  0  0  0
   21.7992   68.1569   -1.8991 O   0  0  0  0  0  0  0  0  0  0  0  0
   23.2568   68.1366   -1.2006 P   0  0  2  0  0  0  0  0  0  0  0  0
   24.1239   69.1450   -2.1219 O   0  0  0  0  0  0  0  0  0  0  0  0
   23.8505   66.7653   -1.0553 O   0  0  0  0  0  0  0  0  0  0  0  0
   23.0539   68.9285    0.1911 O   0  0  0  0  0  0  0  0  0  0  0  0
   23.8959   71.1263   -0.0875 O   0  0  0  0  0  0  0  0  0  0  0  0
   22.9291   71.2936    3.9234 O   0  0  0  0  0  0  0  0  0  0  0  0
   21.3168   72.7114    2.0159 O   0  0  0  0  0  0  0  0  0  0  0  0
   24.0593   68.8722    2.8104 O   0  0  0  0  0  0  0  0  0  0  0  0
   22.7695   70.8910    2.5604 C   0  0  1  0  0  0  0  0  0  0  0  0
   22.5886   72.1479    1.7071 C   0  0  1  0  0  0  0  0  0  0  0  0
   24.0104   70.1163    2.1203 C   0  0  2  0  0  0  0  0  0  0  0  0
   22.6783   71.8192    0.2108 C   0  0  1  0  0  0  0  0  0  0  0  0
   24.0248   69.8849    0.6083 C   0  0  1  0  0  0  0  0  0  0  0  0
   22.1443   71.7856    4.2093 H   0  0  0  0  0  0  0  0  0  0  0  0
   21.2731   72.9139    2.9637 H   0  0  0  0  0  0  0  0  0  0  0  0
   24.0499   69.0324    3.7665 H   0  0  0  0  0  0  0  0  0  0  0  0
   22.2038   72.7275   -1.9477 O   0  0  0  0  0  0  0  0  0  0  0  0
   22.6583   73.0781   -0.6535 C   0  0  0  0  0  0  0  0  0  0  0  0
   22.1856   73.5191   -2.5087 H   0  0  0  0  0  0  0  0  0  0  0  0
 25 28  1  0
 25 24  1  0
 25 26  1  6
 25 27  2  0
  1  4  1  0
  1 24  1  0
  1  2  1  1
  1  3  2  0
  6 11  1  0
  6 12  1  0
 29 36  1  0
 29 37  1  0
  9  7  1  1
  7 13  1  0
 10  8  1  6
  8 14  1  0
 37 28  1  1
  4  5  1  0
 33 30  1  1
 30 38  1  0
 34 31  1  6
 31 39  1  0
 35 32  1  1
 32 40  1  0
 41 42  1  0
 41 43  1  0
 15 19  2  0
 16 22  2  0
 12 17  1  1
 17 19  1  0
 17 20  1  0
 18 19  1  0
 18 22  1  0
 18 23  1  0
  9 10  1  0
  9 11  1  0
 10 12  1  0
 11  5  1  6
 33 34  1  0
 33 35  1  0
 34 36  1  0
 35 37  1  0
 36 42  1  6
 20 21  2  0
 21 22  1  0
M  CHG  2   2  -1  26  -1
M  END
>  <COMPND>  (48) 
    8629 

>  <AUTHOR>  (48) 
    GENERATED BY OPEN BABEL 3.1.1

>  <MASTER>  (48) 
        0    0    0    0    0    0    0    0   58    0   58    0

>  <minimizedAffinity>  (48) 
-7.95979

>  <CNNscore>  (48) 
0.5257017016

>  <CNNaffinity>  (48) 
4.2277607918

>  <CNN_VS>  (48) 
2.2225410938

>  <CNNaffinity_variance>  (48) 
0.2741858363

$$$$
49
     RDKit          3D

 43 45  0  0  0  0  0  0  0  0999 V2000
   21.5067   70.9616   -3.1972 P   0  0  2  0  0  0  0  0  0  0  0  0
   20.8517   71.5726   -1.8500 O   0  0  0  0  0  0  0  0  0  0  0  0
   22.4996   71.8552   -3.8808 O   0  0  0  0  0  0  0  0  0  0  0  0
   20.2282   70.5224   -4.0862 O   0  0  0  0  0  0  0  0  0  0  0  0
   19.8185   69.1662   -4.0574 C   0  0  0  0  0  0  0  0  0  0  0  0
   17.8000   70.2284   -3.3016 O   0  0  0  0  0  0  0  0  0  0  0  0
   16.9380   67.5097   -2.3759 O   0  0  0  0  0  0  0  0  0  0  0  0
   15.5704   67.8018   -4.7171 O   0  0  0  0  0  0  0  0  0  0  0  0
   17.6919   67.8723   -3.5315 C   0  0  1  0  0  0  0  0  0  0  0  0
   16.7893   68.5017   -4.5721 C   0  0  2  0  0  0  0  0  0  0  0  0
   18.6005   69.0353   -3.1532 C   0  0  1  0  0  0  0  0  0  0  0  0
   16.5966   69.9024   -4.0161 C   0  0  2  0  0  0  0  0  0  0  0  0
   16.3504   66.7684   -2.5929 H   0  0  0  0  0  0  0  0  0  0  0  0
   15.7459   66.9170   -5.0737 H   0  0  0  0  0  0  0  0  0  0  0  0
   15.3411   72.4016   -3.6216 O   0  0  0  0  0  0  0  0  0  0  0  0
   15.8527   73.5641   -8.0519 O   0  0  0  0  0  0  0  0  0  0  0  0
   16.3889   70.8778   -5.0490 N   0  0  0  0  0  0  0  0  0  0  0  0
   15.5970   72.9785   -5.8279 N   0  0  0  0  0  0  0  0  0  0  0  0
   15.7470   72.1013   -4.7462 C   0  0  0  0  0  0  0  0  0  0  0  0
   16.8199   70.6171   -6.3452 C   0  0  0  0  0  0  0  0  0  0  0  0
   16.6681   71.4636   -7.3658 C   0  0  0  0  0  0  0  0  0  0  0  0
   16.0073   72.7643   -7.1342 C   0  0  0  0  0  0  0  0  0  0  0  0
   15.1523   73.8369   -5.6407 H   0  0  0  0  0  0  0  0  0  0  0  0
   22.1070   69.5456   -2.6997 O   0  0  0  0  0  0  0  0  0  0  0  0
   23.4904   69.1855   -1.9449 P   0  0  2  0  0  0  0  0  0  0  0  0
   24.6179   69.5269   -3.0538 O   0  0  0  0  0  0  0  0  0  0  0  0
   23.5526   67.7842   -1.4097 O   0  0  0  0  0  0  0  0  0  0  0  0
   23.6571   70.3368   -0.8261 O   0  0  0  0  0  0  0  0  0  0  0  0
   24.4540   70.8407    1.3481 O   0  0  0  0  0  0  0  0  0  0  0  0
   20.4030   71.2903    2.0097 O   0  0  0  0  0  0  0  0  0  0  0  0
   22.0892   73.6128    1.9065 O   0  0  0  0  0  0  0  0  0  0  0  0
   21.3578   69.1718    0.2835 O   0  0  0  0  0  0  0  0  0  0  0  0
   21.6156   71.3608    1.2547 C   0  0  1  0  0  0  0  0  0  0  0  0
   22.5884   72.2812    1.9946 C   0  0  1  0  0  0  0  0  0  0  0  0
   22.2016   69.9566    1.1193 C   0  0  2  0  0  0  0  0  0  0  0  0
   23.9972   72.1976    1.3918 C   0  0  1  0  0  0  0  0  0  0  0  0
   23.6234   69.9898    0.5558 C   0  0  1  0  0  0  0  0  0  0  0  0
   20.0255   72.1786    2.0989 H   0  0  0  0  0  0  0  0  0  0  0  0
   21.1990   73.6518    2.2900 H   0  0  0  0  0  0  0  0  0  0  0  0
   20.4608   69.1584    0.6511 H   0  0  0  0  0  0  0  0  0  0  0  0
   24.8733   74.3604    1.9052 O   0  0  0  0  0  0  0  0  0  0  0  0
   25.0173   72.9856    2.2107 C   0  0  0  0  0  0  0  0  0  0  0  0
   25.5161   74.8743    2.4194 H   0  0  0  0  0  0  0  0  0  0  0  0
 25 28  1  0
 25 24  1  0
 25 26  1  6
 25 27  2  0
  1  4  1  0
  1 24  1  0
  1  2  1  1
  1  3  2  0
  6 11  1  0
  6 12  1  0
 29 36  1  0
 29 37  1  0
  9  7  1  1
  7 13  1  0
 10  8  1  1
  8 14  1  0
 37 28  1  6
  4  5  1  0
 33 30  1  1
 30 38  1  0
 34 31  1  6
 31 39  1  0
 35 32  1  6
 32 40  1  0
 41 42  1  0
 41 43  1  0
 15 19  2  0
 16 22  2  0
 12 17  1  6
 17 19  1  0
 17 20  1  0
 18 19  1  0
 18 22  1  0
 18 23  1  0
  9 10  1  0
  9 11  1  0
 10 12  1  0
 11  5  1  6
 33 34  1  0
 33 35  1  0
 34 36  1  0
 35 37  1  0
 36 42  1  1
 20 21  2  0
 21 22  1  0
M  CHG  2   2  -1  26  -1
M  END
>  <COMPND>  (49) 
    8629 

>  <AUTHOR>  (49) 
    GENERATED BY OPEN BABEL 3.1.1

>  <MASTER>  (49) 
        0    0    0    0    0    0    0    0   58    0   58    0

>  <minimizedAffinity>  (49) 
-8.34723

>  <CNNscore>  (49) 
0.4893020988

>  <CNNaffinity>  (49) 
4.3777499199

>  <CNN_VS>  (49) 
2.1420421600

>  <CNNaffinity_variance>  (49) 
0.2525123060

$$$$
50
     RDKit          3D

 43 45  0  0  0  0  0  0  0  0999 V2000
   20.5174   74.5790   -4.4859 P   0  0  2  0  0  0  0  0  0  0  0  0
   19.2903   74.7680   -3.4487 O   0  0  0  0  0  0  0  0  0  0  0  0
   21.3200   75.8188   -4.7507 O   0  0  0  0  0  0  0  0  0  0  0  0
   19.8290   73.8975   -5.7819 O   0  0  0  0  0  0  0  0  0  0  0  0
   20.5527   72.9051   -6.4885 C   0  0  0  0  0  0  0  0  0  0  0  0
   19.3165   71.0343   -7.3521 O   0  0  0  0  0  0  0  0  0  0  0  0
   17.9639   73.0039   -9.1638 O   0  0  0  0  0  0  0  0  0  0  0  0
   16.1076   72.6291   -7.2015 O   0  0  0  0  0  0  0  0  0  0  0  0
   18.3976   73.1691   -7.8147 C   0  0  1  0  0  0  0  0  0  0  0  0
   17.4677   72.4365   -6.8701 C   0  0  2  0  0  0  0  0  0  0  0  0
   19.6994   72.3965   -7.6423 C   0  0  1  0  0  0  0  0  0  0  0  0
   17.9135   70.9946   -7.0443 C   0  0  2  0  0  0  0  0  0  0  0  0
   17.1340   73.4888   -9.2981 H   0  0  0  0  0  0  0  0  0  0  0  0
   15.8726   73.5615   -7.0744 H   0  0  0  0  0  0  0  0  0  0  0  0
   15.5519   69.5673   -6.4414 O   0  0  0  0  0  0  0  0  0  0  0  0
   17.2786   68.0341   -2.4528 O   0  0  0  0  0  0  0  0  0  0  0  0
   17.7188   70.2137   -5.8553 N   0  0  0  0  0  0  0  0  0  0  0  0
   16.4137   68.8049   -4.4560 N   0  0  0  0  0  0  0  0  0  0  0  0
   16.4947   69.5363   -5.6478 C   0  0  0  0  0  0  0  0  0  0  0  0
   18.7352   70.1252   -4.9103 C   0  0  0  0  0  0  0  0  0  0  0  0
   18.6416   69.4246   -3.7782 C   0  0  0  0  0  0  0  0  0  0  0  0
   17.3956   68.6873   -3.4851 C   0  0  0  0  0  0  0  0  0  0  0  0
   15.5699   68.3250   -4.2899 H   0  0  0  0  0  0  0  0  0  0  0  0
   21.3572   73.3597   -3.8372 O   0  0  0  0  0  0  0  0  0  0  0  0
   22.8606   73.3024   -3.2461 P   0  0  2  0  0  0  0  0  0  0  0  0
   23.0025   74.7072   -2.4562 O   0  0  0  0  0  0  0  0  0  0  0  0
   23.9206   73.0649   -4.2824 O   0  0  0  0  0  0  0  0  0  0  0  0
   22.8000   72.1850   -2.0830 O   0  0  0  0  0  0  0  0  0  0  0  0
   21.8340   70.0239   -2.1974 O   0  0  0  0  0  0  0  0  0  0  0  0
   21.1030   70.8639    1.7789 O   0  0  0  0  0  0  0  0  0  0  0  0
   23.1187   68.9401    1.0834 O   0  0  0  0  0  0  0  0  0  0  0  0
   20.8606   72.9559   -0.2070 O   0  0  0  0  0  0  0  0  0  0  0  0
   21.8435   70.8935    0.5557 C   0  0  1  0  0  0  0  0  0  0  0  0
   22.1665   69.4526    0.1556 C   0  0  1  0  0  0  0  0  0  0  0  0
   21.0011   71.5746   -0.5213 C   0  0  2  0  0  0  0  0  0  0  0  0
   22.7229   69.3858   -1.2730 C   0  0  1  0  0  0  0  0  0  0  0  0
   21.6182   71.4071   -1.9109 C   0  0  1  0  0  0  0  0  0  0  0  0
   21.6325   70.4331    2.4671 H   0  0  0  0  0  0  0  0  0  0  0  0
   22.7553   68.9883    1.9816 H   0  0  0  0  0  0  0  0  0  0  0  0
   20.4686   73.0485    0.6748 H   0  0  0  0  0  0  0  0  0  0  0  0
   23.8884   67.3263   -0.9429 O   0  0  0  0  0  0  0  0  0  0  0  0
   22.9039   67.9463   -1.7496 C   0  0  0  0  0  0  0  0  0  0  0  0
   24.0139   66.4093   -1.2346 H   0  0  0  0  0  0  0  0  0  0  0  0
 25 28  1  0
 25 24  1  0
 25 26  1  1
 25 27  2  0
  1  4  1  0
  1 24  1  0
  1  2  1  1
  1  3  2  0
  6 11  1  0
  6 12  1  0
 29 36  1  0
 29 37  1  0
  9  7  1  6
  7 13  1  0
 10  8  1  6
  8 14  1  0
 37 28  1  1
  4  5  1  0
 33 30  1  1
 30 38  1  0
 34 31  1  1
 31 39  1  0
 35 32  1  1
 32 40  1  0
 41 42  1  0
 41 43  1  0
 15 19  2  0
 16 22  2  0
 12 17  1  1
 17 19  1  0
 17 20  1  0
 18 19  1  0
 18 22  1  0
 18 23  1  0
  9 10  1  0
  9 11  1  0
 10 12  1  0
 11  5  1  1
 33 34  1  0
 33 35  1  0
 34 36  1  0
 35 37  1  0
 36 42  1  6
 20 21  2  0
 21 22  1  0
M  CHG  2   2  -1  26  -1
M  END
>  <COMPND>  (50) 
    8629 

>  <AUTHOR>  (50) 
    GENERATED BY OPEN BABEL 3.1.1

>  <MASTER>  (50) 
        0    0    0    0    0    0    0    0   58    0   58    0

>  <minimizedAffinity>  (50) 
-7.62355

>  <CNNscore>  (50) 
0.4852328002

>  <CNNaffinity>  (50) 
4.1553311348

>  <CNN_VS>  (50) 
2.0163030624

>  <CNNaffinity_variance>  (50) 
0.7025473118

$$$$
51
     RDKit          3D

 43 45  0  0  0  0  0  0  0  0999 V2000
   22.0378   72.7196   -4.2092 P   0  0  2  0  0  0  0  0  0  0  0  0
   21.5950   74.2757   -4.1960 O   0  0  0  0  0  0  0  0  0  0  0  0
   23.5054   72.4800   -4.4092 O   0  0  0  0  0  0  0  0  0  0  0  0
   21.0598   72.0468   -5.3086 O   0  0  0  0  0  0  0  0  0  0  0  0
   20.7314   72.7926   -6.4679 C   0  0  0  0  0  0  0  0  0  0  0  0
   19.3253   70.8652   -6.7539 O   0  0  0  0  0  0  0  0  0  0  0  0
   18.9105   71.8175   -9.5667 O   0  0  0  0  0  0  0  0  0  0  0  0
   16.6231   72.6265   -8.3218 O   0  0  0  0  0  0  0  0  0  0  0  0
   19.0535   72.5784   -8.3684 C   0  0  1  0  0  0  0  0  0  0  0  0
   17.7905   72.4923   -7.5370 C   0  0  2  0  0  0  0  0  0  0  0  0
   20.0679   71.8689   -7.4802 C   0  0  1  0  0  0  0  0  0  0  0  0
   17.9188   71.1141   -6.9108 C   0  0  2  0  0  0  0  0  0  0  0  0
   18.2677   72.2513  -10.1502 H   0  0  0  0  0  0  0  0  0  0  0  0
   16.5871   73.5197   -8.6981 H   0  0  0  0  0  0  0  0  0  0  0  0
   16.0872   69.1013   -6.1548 O   0  0  0  0  0  0  0  0  0  0  0  0
   15.5488   70.9141   -1.9518 O   0  0  0  0  0  0  0  0  0  0  0  0
   17.2850   71.0356   -5.6249 N   0  0  0  0  0  0  0  0  0  0  0  0
   15.8207   70.0055   -4.0626 N   0  0  0  0  0  0  0  0  0  0  0  0
   16.3798   69.9851   -5.3467 C   0  0  0  0  0  0  0  0  0  0  0  0
   17.5633   71.9931   -4.6556 C   0  0  0  0  0  0  0  0  0  0  0  0
   17.0208   71.9991   -3.4362 C   0  0  0  0  0  0  0  0  0  0  0  0
   16.0646   70.9361   -3.0650 C   0  0  0  0  0  0  0  0  0  0  0  0
   15.1869   69.2835   -3.8463 H   0  0  0  0  0  0  0  0  0  0  0  0
   21.4496   72.1625   -2.8104 O   0  0  0  0  0  0  0  0  0  0  0  0
   21.2753   70.6534   -2.2580 P   0  0  2  0  0  0  0  0  0  0  0  0
   22.4294   69.8353   -3.0431 O   0  0  0  0  0  0  0  0  0  0  0  0
   19.8935   70.0917   -2.4279 O   0  0  0  0  0  0  0  0  0  0  0  0
   21.7885   70.7161   -0.7291 O   0  0  0  0  0  0  0  0  0  0  0  0
   23.2692   72.3314    0.1737 O   0  0  0  0  0  0  0  0  0  0  0  0
   24.2281   69.1294    2.5982 O   0  0  0  0  0  0  0  0  0  0  0  0
   22.7224   71.3241    3.6773 O   0  0  0  0  0  0  0  0  0  0  0  0
   23.6680   68.6982   -0.2089 O   0  0  0  0  0  0  0  0  0  0  0  0
   23.3637   69.9611    1.8194 C   0  0  1  0  0  0  0  0  0  0  0  0
   23.3863   71.3692    2.4173 C   0  0  1  0  0  0  0  0  0  0  0  0
   23.8599   69.9823    0.3748 C   0  0  2  0  0  0  0  0  0  0  0  0
   22.6987   72.3773    1.4868 C   0  0  1  0  0  0  0  0  0  0  0  0
   23.1454   71.0528   -0.4521 C   0  0  1  0  0  0  0  0  0  0  0  0
   23.9183   69.1112    3.5165 H   0  0  0  0  0  0  0  0  0  0  0  0
   23.1662   70.6835    4.2552 H   0  0  0  0  0  0  0  0  0  0  0  0
   24.1254   68.0295    0.3235 H   0  0  0  0  0  0  0  0  0  0  0  0
   23.9394   73.8628    2.8877 O   0  0  0  0  0  0  0  0  0  0  0  0
   22.8475   73.8121    1.9880 C   0  0  0  0  0  0  0  0  0  0  0  0
   24.0464   74.7702    3.2146 H   0  0  0  0  0  0  0  0  0  0  0  0
 25 28  1  0
 25 24  1  0
 25 26  1  6
 25 27  2  0
  1  4  1  0
  1 24  1  0
  1  2  1  1
  1  3  2  0
  6 11  1  0
  6 12  1  0
 29 36  1  0
 29 37  1  0
  9  7  1  6
  7 13  1  0
 10  8  1  6
  8 14  1  0
 37 28  1  1
  4  5  1  0
 33 30  1  1
 30 38  1  0
 34 31  1  1
 31 39  1  0
 35 32  1  6
 32 40  1  0
 41 42  1  0
 41 43  1  0
 15 19  2  0
 16 22  2  0
 12 17  1  1
 17 19  1  0
 17 20  1  0
 18 19  1  0
 18 22  1  0
 18 23  1  0
  9 10  1  0
  9 11  1  0
 10 12  1  0
 11  5  1  1
 33 34  1  0
 33 35  1  0
 34 36  1  0
 35 37  1  0
 36 42  1  1
 20 21  2  0
 21 22  1  0
M  CHG  2   2  -1  26  -1
M  END
>  <COMPND>  (51) 
    8629 

>  <AUTHOR>  (51) 
    GENERATED BY OPEN BABEL 3.1.1

>  <MASTER>  (51) 
        0    0    0    0    0    0    0    0   58    0   58    0

>  <minimizedAffinity>  (51) 
-8.06318

>  <CNNscore>  (51) 
0.4017186165

>  <CNNaffinity>  (51) 
4.1243462563

>  <CNN_VS>  (51) 
1.6568266153

>  <CNNaffinity_variance>  (51) 
0.2185825408

$$$$
52
     RDKit          3D

 43 45  0  0  0  0  0  0  0  0999 V2000
   22.1542   73.0862   -3.8954 P   0  0  2  0  0  0  0  0  0  0  0  0
   22.9717   72.8130   -5.2645 O   0  0  0  0  0  0  0  0  0  0  0  0
   22.3122   74.4660   -3.3275 O   0  0  0  0  0  0  0  0  0  0  0  0
   22.6036   71.8715   -2.9257 O   0  0  0  0  0  0  0  0  0  0  0  0
   22.7074   72.1200   -1.5345 C   0  0  0  0  0  0  0  0  0  0  0  0
   21.9741   69.8328   -1.4647 O   0  0  0  0  0  0  0  0  0  0  0  0
   21.2308   70.3542    1.3930 O   0  0  0  0  0  0  0  0  0  0  0  0
   23.6040   69.0316    1.6280 O   0  0  0  0  0  0  0  0  0  0  0  0
   22.3351   70.8562    0.6420 C   0  0  1  0  0  0  0  0  0  0  0  0
   23.3742   69.7720    0.4465 C   0  0  2  0  0  0  0  0  0  0  0  0
   21.8595   71.1018   -0.7844 C   0  0  1  0  0  0  0  0  0  0  0  0
   22.7513   68.9337   -0.6569 C   0  0  2  0  0  0  0  0  0  0  0  0
   21.5102   70.1900    2.3079 H   0  0  0  0  0  0  0  0  0  0  0  0
   24.0008   69.6085    2.2992 H   0  0  0  0  0  0  0  0  0  0  0  0
   23.3045   66.1640   -0.6365 O   0  0  0  0  0  0  0  0  0  0  0  0
   26.5562   66.6037   -3.8729 O   0  0  0  0  0  0  0  0  0  0  0  0
   23.7372   68.2974   -1.4842 N   0  0  0  0  0  0  0  0  0  0  0  0
   24.9230   66.3852   -2.2481 N   0  0  0  0  0  0  0  0  0  0  0  0
   23.9375   66.9000   -1.3962 C   0  0  0  0  0  0  0  0  0  0  0  0
   24.4928   69.0571   -2.3706 C   0  0  0  0  0  0  0  0  0  0  0  0
   25.4297   68.5510   -3.1753 C   0  0  0  0  0  0  0  0  0  0  0  0
   25.7012   67.0993   -3.1454 C   0  0  0  0  0  0  0  0  0  0  0  0
   25.0803   65.4140   -2.2040 H   0  0  0  0  0  0  0  0  0  0  0  0
   20.6377   72.6919   -4.2928 O   0  0  0  0  0  0  0  0  0  0  0  0
   19.2376   72.9550   -3.5290 P   0  0  2  0  0  0  0  0  0  0  0  0
   18.5546   74.1337   -4.4017 O   0  0  0  0  0  0  0  0  0  0  0  0
   19.3832   73.2708   -2.0685 O   0  0  0  0  0  0  0  0  0  0  0  0
   18.3477   71.6460   -3.8448 O   0  0  0  0  0  0  0  0  0  0  0  0
   18.8674   69.4181   -4.4637 O   0  0  0  0  0  0  0  0  0  0  0  0
   15.6818   70.0831   -7.0055 O   0  0  0  0  0  0  0  0  0  0  0  0
   15.3505   68.3488   -4.7404 O   0  0  0  0  0  0  0  0  0  0  0  0
   17.5819   72.2043   -6.4861 O   0  0  0  0  0  0  0  0  0  0  0  0
   16.4283   70.2072   -5.7919 C   0  0  1  0  0  0  0  0  0  0  0  0
   16.6181   68.8089   -5.2006 C   0  0  1  0  0  0  0  0  0  0  0  0
   17.7799   70.8484   -6.1006 C   0  0  2  0  0  0  0  0  0  0  0  0
   17.6304   68.8279   -4.0474 C   0  0  1  0  0  0  0  0  0  0  0  0
   18.7286   70.7708   -4.9031 C   0  0  1  0  0  0  0  0  0  0  0  0
   14.8222   69.6771   -6.8163 H   0  0  0  0  0  0  0  0  0  0  0  0
   14.7203   68.3421   -5.4781 H   0  0  0  0  0  0  0  0  0  0  0  0
   16.9799   72.2399   -7.2452 H   0  0  0  0  0  0  0  0  0  0  0  0
   16.8562   66.9530   -2.7847 O   0  0  0  0  0  0  0  0  0  0  0  0
   17.9534   67.4218   -3.5467 C   0  0  0  0  0  0  0  0  0  0  0  0
   17.0475   66.0589   -2.4597 H   0  0  0  0  0  0  0  0  0  0  0  0
 25 28  1  0
 25 24  1  0
 25 26  1  6
 25 27  2  0
  1  4  1  0
  1 24  1  0
  1  2  1  6
  1  3  2  0
  6 11  1  0
  6 12  1  0
 29 36  1  0
 29 37  1  0
  9  7  1  1
  7 13  1  0
 10  8  1  1
  8 14  1  0
 37 28  1  1
  4  5  1  0
 33 30  1  6
 30 38  1  0
 34 31  1  1
 31 39  1  0
 35 32  1  1
 32 40  1  0
 41 42  1  0
 41 43  1  0
 15 19  2  0
 16 22  2  0
 12 17  1  6
 17 19  1  0
 17 20  1  0
 18 19  1  0
 18 22  1  0
 18 23  1  0
  9 10  1  0
  9 11  1  0
 10 12  1  0
 11  5  1  6
 33 34  1  0
 33 35  1  0
 34 36  1  0
 35 37  1  0
 36 42  1  6
 20 21  2  0
 21 22  1  0
M  CHG  2   2  -1  26  -1
M  END
>  <COMPND>  (52) 
    8629 

>  <AUTHOR>  (52) 
    GENERATED BY OPEN BABEL 3.1.1

>  <MASTER>  (52) 
        0    0    0    0    0    0    0    0   58    0   58    0

>  <minimizedAffinity>  (52) 
-8.62870

>  <CNNscore>  (52) 
0.3954216838

>  <CNNaffinity>  (52) 
4.2722845078

>  <CNN_VS>  (52) 
1.6893539429

>  <CNNaffinity_variance>  (52) 
0.9511462450

$$$$
53
     RDKit          3D

 43 45  0  0  0  0  0  0  0  0999 V2000
   22.6479   73.0290   -3.6215 P   0  0  2  0  0  0  0  0  0  0  0  0
   23.0918   73.8219   -4.9600 O   0  0  0  0  0  0  0  0  0  0  0  0
   22.7873   73.8089   -2.3472 O   0  0  0  0  0  0  0  0  0  0  0  0
   23.4844   71.6459   -3.6939 O   0  0  0  0  0  0  0  0  0  0  0  0
   22.8986   70.4725   -3.1573 C   0  0  0  0  0  0  0  0  0  0  0  0
   24.5080   70.1887   -1.3958 O   0  0  0  0  0  0  0  0  0  0  0  0
   24.6180   67.3064   -2.2150 O   0  0  0  0  0  0  0  0  0  0  0  0
   23.0072   67.2382   -0.0156 O   0  0  0  0  0  0  0  0  0  0  0  0
   23.5033   68.1966   -2.1943 C   0  0  1  0  0  0  0  0  0  0  0  0
   23.0450   68.4323   -0.7702 C   0  0  2  0  0  0  0  0  0  0  0  0
   23.9988   69.5785   -2.6019 C   0  0  1  0  0  0  0  0  0  0  0  0
   24.0883   69.4126   -0.2616 C   0  0  2  0  0  0  0  0  0  0  0  0
   24.3262   66.4171   -1.9584 H   0  0  0  0  0  0  0  0  0  0  0  0
   22.3284   66.6478   -0.3781 H   0  0  0  0  0  0  0  0  0  0  0  0
   24.1049   68.8698    2.5102 O   0  0  0  0  0  0  0  0  0  0  0  0
   22.0549   72.8789    3.4933 O   0  0  0  0  0  0  0  0  0  0  0  0
   23.5658   70.2972    0.7413 N   0  0  0  0  0  0  0  0  0  0  0  0
   23.0843   70.8665    2.9974 N   0  0  0  0  0  0  0  0  0  0  0  0
   23.6220   69.9295    2.1059 C   0  0  0  0  0  0  0  0  0  0  0  0
   23.0058   71.5142    0.3681 C   0  0  0  0  0  0  0  0  0  0  0  0
   22.4963   72.3961    1.2306 C   0  0  0  0  0  0  0  0  0  0  0  0
   22.5157   72.0887    2.6753 C   0  0  0  0  0  0  0  0  0  0  0  0
   23.1121   70.6317    3.9534 H   0  0  0  0  0  0  0  0  0  0  0  0
   21.1389   72.5591   -3.9609 O   0  0  0  0  0  0  0  0  0  0  0  0
   19.7924   72.5856   -3.0670 P   0  0  2  0  0  0  0  0  0  0  0  0
   19.4288   74.1602   -2.9904 O   0  0  0  0  0  0  0  0  0  0  0  0
   19.9279   71.9156   -1.7303 O   0  0  0  0  0  0  0  0  0  0  0  0
   18.6560   71.9508   -4.0213 O   0  0  0  0  0  0  0  0  0  0  0  0
   19.0405   69.6675   -4.5266 O   0  0  0  0  0  0  0  0  0  0  0  0
   16.0357   70.4488   -7.2490 O   0  0  0  0  0  0  0  0  0  0  0  0
   15.4720   68.8396   -4.9380 O   0  0  0  0  0  0  0  0  0  0  0  0
   18.0587   72.4499   -6.7174 O   0  0  0  0  0  0  0  0  0  0  0  0
   16.7310   70.5707   -6.0052 C   0  0  1  0  0  0  0  0  0  0  0  0
   16.7902   69.1888   -5.3513 C   0  0  1  0  0  0  0  0  0  0  0  0
   18.1389   71.1008   -6.2702 C   0  0  2  0  0  0  0  0  0  0  0  0
   17.7455   69.1846   -4.1504 C   0  0  1  0  0  0  0  0  0  0  0  0
   19.0217   71.0068   -5.0244 C   0  0  1  0  0  0  0  0  0  0  0  0
   15.1408   70.1131   -7.0877 H   0  0  0  0  0  0  0  0  0  0  0  0
   14.8787   68.8464   -5.7055 H   0  0  0  0  0  0  0  0  0  0  0  0
   17.4975   72.4960   -7.5066 H   0  0  0  0  0  0  0  0  0  0  0  0
   17.0428   67.6063   -2.4999 O   0  0  0  0  0  0  0  0  0  0  0  0
   17.9411   67.7815   -3.5800 C   0  0  0  0  0  0  0  0  0  0  0  0
   17.1558   66.7175   -2.1271 H   0  0  0  0  0  0  0  0  0  0  0  0
 25 28  1  0
 25 24  1  0
 25 26  1  1
 25 27  2  0
  1  4  1  0
  1 24  1  0
  1  2  1  6
  1  3  2  0
  6 11  1  0
  6 12  1  0
 29 36  1  0
 29 37  1  0
  9  7  1  1
  7 13  1  0
 10  8  1  1
  8 14  1  0
 37 28  1  1
  4  5  1  0
 33 30  1  6
 30 38  1  0
 34 31  1  1
 31 39  1  0
 35 32  1  1
 32 40  1  0
 41 42  1  0
 41 43  1  0
 15 19  2  0
 16 22  2  0
 12 17  1  1
 17 19  1  0
 17 20  1  0
 18 19  1  0
 18 22  1  0
 18 23  1  0
  9 10  1  0
  9 11  1  0
 10 12  1  0
 11  5  1  1
 33 34  1  0
 33 35  1  0
 34 36  1  0
 35 37  1  0
 36 42  1  6
 20 21  2  0
 21 22  1  0
M  CHG  2   2  -1  26  -1
M  END
>  <COMPND>  (53) 
    8629 

>  <AUTHOR>  (53) 
    GENERATED BY OPEN BABEL 3.1.1

>  <MASTER>  (53) 
        0    0    0    0    0    0    0    0   58    0   58    0

>  <minimizedAffinity>  (53) 
-7.87253

>  <CNNscore>  (53) 
0.3887915015

>  <CNNaffinity>  (53) 
4.1741151810

>  <CNN_VS>  (53) 
1.6228605509

>  <CNNaffinity_variance>  (53) 
0.5090513229

$$$$
54
     RDKit          3D

 43 45  0  0  0  0  0  0  0  0999 V2000
   21.3376   71.8482   -3.7676 P   0  0  2  0  0  0  0  0  0  0  0  0
   21.4558   72.4715   -5.2558 O   0  0  0  0  0  0  0  0  0  0  0  0
   22.4934   70.9890   -3.3466 O   0  0  0  0  0  0  0  0  0  0  0  0
   19.8885   71.1285   -3.7619 O   0  0  0  0  0  0  0  0  0  0  0  0
   19.8366   69.7132   -3.7160 C   0  0  0  0  0  0  0  0  0  0  0  0
   17.5960   70.3552   -3.1319 O   0  0  0  0  0  0  0  0  0  0  0  0
   17.0924   67.4424   -2.6293 O   0  0  0  0  0  0  0  0  0  0  0  0
   15.9791   67.8222   -5.0896 O   0  0  0  0  0  0  0  0  0  0  0  0
   17.9062   68.0584   -3.6260 C   0  0  1  0  0  0  0  0  0  0  0  0
   17.0402   68.6729   -4.7059 C   0  0  2  0  0  0  0  0  0  0  0  0
   18.5596   69.2867   -3.0050 C   0  0  1  0  0  0  0  0  0  0  0  0
   16.5551   69.9462   -4.0341 C   0  0  2  0  0  0  0  0  0  0  0  0
   16.6648   66.6551   -3.0025 H   0  0  0  0  0  0  0  0  0  0  0  0
   16.3389   67.0266   -5.5119 H   0  0  0  0  0  0  0  0  0  0  0  0
   15.2350   72.3643   -3.4111 O   0  0  0  0  0  0  0  0  0  0  0  0
   15.6755   73.9290   -7.7237 O   0  0  0  0  0  0  0  0  0  0  0  0
   16.3115   71.0032   -4.9749 N   0  0  0  0  0  0  0  0  0  0  0  0
   15.4555   73.1415   -5.5589 N   0  0  0  0  0  0  0  0  0  0  0  0
   15.6391   72.1764   -4.5605 C   0  0  0  0  0  0  0  0  0  0  0  0
   16.7381   70.8707   -6.2918 C   0  0  0  0  0  0  0  0  0  0  0  0
   16.5541   71.7997   -7.2322 C   0  0  0  0  0  0  0  0  0  0  0  0
   15.8600   73.0556   -6.8817 C   0  0  0  0  0  0  0  0  0  0  0  0
   14.9890   73.9672   -5.2934 H   0  0  0  0  0  0  0  0  0  0  0  0
   21.0985   73.1536   -2.8447 O   0  0  0  0  0  0  0  0  0  0  0  0
   20.6465   73.2926   -1.2990 P   0  0  2  0  0  0  0  0  0  0  0  0
   19.2367   72.5002   -1.2520 O   0  0  0  0  0  0  0  0  0  0  0  0
   20.5783   74.7078   -0.8026 O   0  0  0  0  0  0  0  0  0  0  0  0
   21.6724   72.3476   -0.4868 O   0  0  0  0  0  0  0  0  0  0  0  0
   21.8118   69.9846   -0.3719 O   0  0  0  0  0  0  0  0  0  0  0  0
   22.8372   70.8962    3.5227 O   0  0  0  0  0  0  0  0  0  0  0  0
   24.8555   69.9580    1.7076 O   0  0  0  0  0  0  0  0  0  0  0  0
   20.7841   72.4275    2.1739 O   0  0  0  0  0  0  0  0  0  0  0  0
   22.7896   71.0952    2.1073 C   0  0  1  0  0  0  0  0  0  0  0  0
   23.4589   69.8967    1.4317 C   0  0  1  0  0  0  0  0  0  0  0  0
   21.3312   71.2143    1.6688 C   0  0  2  0  0  0  0  0  0  0  0  0
   23.2126   69.9058   -0.0830 C   0  0  1  0  0  0  0  0  0  0  0  0
   21.1933   71.1639    0.1461 C   0  0  1  0  0  0  0  0  0  0  0  0
   23.7606   70.8203    3.8077 H   0  0  0  0  0  0  0  0  0  0  0  0
   24.9972   69.9521    2.6674 H   0  0  0  0  0  0  0  0  0  0  0  0
   20.8772   72.4471    3.1387 H   0  0  0  0  0  0  0  0  0  0  0  0
   23.1108   67.5197   -0.1538 O   0  0  0  0  0  0  0  0  0  0  0  0
   23.7361   68.6384   -0.7552 C   0  0  0  0  0  0  0  0  0  0  0  0
   23.4342   66.7058   -0.5718 H   0  0  0  0  0  0  0  0  0  0  0  0
 25 28  1  0
 25 24  1  0
 25 26  1  6
 25 27  2  0
  1  4  1  0
  1 24  1  0
  1  2  1  6
  1  3  2  0
  6 11  1  0
  6 12  1  0
 29 36  1  0
 29 37  1  0
  9  7  1  1
  7 13  1  0
 10  8  1  1
  8 14  1  0
 37 28  1  6
  4  5  1  0
 33 30  1  1
 30 38  1  0
 34 31  1  6
 31 39  1  0
 35 32  1  6
 32 40  1  0
 41 42  1  0
 41 43  1  0
 15 19  2  0
 16 22  2  0
 12 17  1  6
 17 19  1  0
 17 20  1  0
 18 19  1  0
 18 22  1  0
 18 23  1  0
  9 10  1  0
  9 11  1  0
 10 12  1  0
 11  5  1  6
 33 34  1  0
 33 35  1  0
 34 36  1  0
 35 37  1  0
 36 42  1  1
 20 21  2  0
 21 22  1  0
M  CHG  2   2  -1  26  -1
M  END
>  <COMPND>  (54) 
    8629 

>  <AUTHOR>  (54) 
    GENERATED BY OPEN BABEL 3.1.1

>  <MASTER>  (54) 
        0    0    0    0    0    0    0    0   58    0   58    0

>  <minimizedAffinity>  (54) 
-7.52622

>  <CNNscore>  (54) 
0.3698441982

>  <CNNaffinity>  (54) 
3.8981723785

>  <CNN_VS>  (54) 
1.4417164326

>  <CNNaffinity_variance>  (54) 
0.7758482099

$$$$
55
     RDKit          3D

 43 45  0  0  0  0  0  0  0  0999 V2000
   22.4045   72.8345   -3.6976 P   0  0  2  0  0  0  0  0  0  0  0  0
   23.8039   72.8325   -4.5095 O   0  0  0  0  0  0  0  0  0  0  0  0
   21.9481   74.1834   -3.2247 O   0  0  0  0  0  0  0  0  0  0  0  0
   22.6238   71.7224   -2.5430 O   0  0  0  0  0  0  0  0  0  0  0  0
   22.6349   72.1450   -1.1906 C   0  0  0  0  0  0  0  0  0  0  0  0
   21.9079   69.8600   -1.0355 O   0  0  0  0  0  0  0  0  0  0  0  0
   21.4980   70.3849    1.8881 O   0  0  0  0  0  0  0  0  0  0  0  0
   23.8787   69.0555    1.8510 O   0  0  0  0  0  0  0  0  0  0  0  0
   22.5105   70.8833    1.0153 C   0  0  1  0  0  0  0  0  0  0  0  0
   23.5174   69.7960    0.7030 C   0  0  2  0  0  0  0  0  0  0  0  0
   21.8755   71.1297   -0.3476 C   0  0  1  0  0  0  0  0  0  0  0  0
   22.7699   68.9591   -0.3212 C   0  0  2  0  0  0  0  0  0  0  0  0
   21.8797   70.2203    2.7651 H   0  0  0  0  0  0  0  0  0  0  0  0
   24.3513   69.6315    2.4719 H   0  0  0  0  0  0  0  0  0  0  0  0
   23.1854   66.1693   -0.4709 O   0  0  0  0  0  0  0  0  0  0  0  0
   26.1818   66.6174   -3.9439 O   0  0  0  0  0  0  0  0  0  0  0  0
   23.6528   68.3195   -1.2554 N   0  0  0  0  0  0  0  0  0  0  0  0
   24.6769   66.3947   -2.2002 N   0  0  0  0  0  0  0  0  0  0  0  0
   23.7904   66.9118   -1.2470 C   0  0  0  0  0  0  0  0  0  0  0  0
   24.3707   69.0862   -2.1668 C   0  0  0  0  0  0  0  0  0  0  0  0
   25.2131   68.5777   -3.0685 C   0  0  0  0  0  0  0  0  0  0  0  0
   25.4141   67.1154   -3.1263 C   0  0  0  0  0  0  0  0  0  0  0  0
   24.7891   65.4164   -2.2128 H   0  0  0  0  0  0  0  0  0  0  0  0
   21.3899   72.1013   -4.7202 O   0  0  0  0  0  0  0  0  0  0  0  0
   20.0278   71.2729   -4.4528 P   0  0  2  0  0  0  0  0  0  0  0  0
   19.4321   71.9603   -3.1149 O   0  0  0  0  0  0  0  0  0  0  0  0
   20.2206   69.7874   -4.3525 O   0  0  0  0  0  0  0  0  0  0  0  0
   19.0279   71.7395   -5.6307 O   0  0  0  0  0  0  0  0  0  0  0  0
   16.9316   70.9248   -4.8836 O   0  0  0  0  0  0  0  0  0  0  0  0
   15.6909   72.9257   -8.2760 O   0  0  0  0  0  0  0  0  0  0  0  0
   15.0961   74.0189   -5.6877 O   0  0  0  0  0  0  0  0  0  0  0  0
   18.1892   71.4636   -8.2945 O   0  0  0  0  0  0  0  0  0  0  0  0
   16.4957   72.7050   -7.1145 C   0  0  1  0  0  0  0  0  0  0  0  0
   15.5780   72.6934   -5.8904 C   0  0  1  0  0  0  0  0  0  0  0  0
   17.2202   71.3677   -7.2560 C   0  0  2  0  0  0  0  0  0  0  0  0
   16.3240   72.1995   -4.6435 C   0  0  1  0  0  0  0  0  0  0  0  0
   17.8873   70.9453   -5.9458 C   0  0  1  0  0  0  0  0  0  0  0  0
   15.2285   73.7735   -8.1927 H   0  0  0  0  0  0  0  0  0  0  0  0
   14.6276   74.3190   -6.4824 H   0  0  0  0  0  0  0  0  0  0  0  0
   17.7544   71.7314   -9.1185 H   0  0  0  0  0  0  0  0  0  0  0  0
   15.4112   70.6716   -3.0493 O   0  0  0  0  0  0  0  0  0  0  0  0
   15.3894   72.0300   -3.4476 C   0  0  0  0  0  0  0  0  0  0  0  0
   14.8211   70.5488   -2.2888 H   0  0  0  0  0  0  0  0  0  0  0  0
 25 28  1  0
 25 24  1  0
 25 26  1  1
 25 27  2  0
  1  4  1  0
  1 24  1  0
  1  2  1  6
  1  3  2  0
  6 11  1  0
  6 12  1  0
 29 36  1  0
 29 37  1  0
  9  7  1  1
  7 13  1  0
 10  8  1  1
  8 14  1  0
 37 28  1  1
  4  5  1  0
 33 30  1  6
 30 38  1  0
 34 31  1  1
 31 39  1  0
 35 32  1  6
 32 40  1  0
 41 42  1  0
 41 43  1  0
 15 19  2  0
 16 22  2  0
 12 17  1  6
 17 19  1  0
 17 20  1  0
 18 19  1  0
 18 22  1  0
 18 23  1  0
  9 10  1  0
  9 11  1  0
 10 12  1  0
 11  5  1  6
 33 34  1  0
 33 35  1  0
 34 36  1  0
 35 37  1  0
 36 42  1  1
 20 21  2  0
 21 22  1  0
M  CHG  2   2  -1  26  -1
M  END
>  <COMPND>  (55) 
    8629 

>  <AUTHOR>  (55) 
    GENERATED BY OPEN BABEL 3.1.1

>  <MASTER>  (55) 
        0    0    0    0    0    0    0    0   58    0   58    0

>  <minimizedAffinity>  (55) 
-8.52146

>  <CNNscore>  (55) 
0.3629486561

>  <CNNaffinity>  (55) 
4.1407427788

>  <CNN_VS>  (55) 
1.5028769970

>  <CNNaffinity_variance>  (55) 
0.4049572051

$$$$
56
     RDKit          3D

 43 45  0  0  0  0  0  0  0  0999 V2000
   21.4839   73.2315   -6.5365 P   0  0  2  0  0  0  0  0  0  0  0  0
   21.3641   74.8412   -6.4281 O   0  0  0  0  0  0  0  0  0  0  0  0
   22.6738   72.7347   -7.3038 O   0  0  0  0  0  0  0  0  0  0  0  0
   20.0401   72.7720   -7.1040 O   0  0  0  0  0  0  0  0  0  0  0  0
   19.0845   73.7723   -7.4106 C   0  0  0  0  0  0  0  0  0  0  0  0
   17.8284   71.7281   -7.5417 O   0  0  0  0  0  0  0  0  0  0  0  0
   15.5024   73.4296   -8.3697 O   0  0  0  0  0  0  0  0  0  0  0  0
   14.9782   72.9463   -5.7376 O   0  0  0  0  0  0  0  0  0  0  0  0
   16.5410   73.7147   -7.4342 C   0  0  1  0  0  0  0  0  0  0  0  0
   16.3277   72.9303   -6.1564 C   0  0  2  0  0  0  0  0  0  0  0  0
   17.8328   73.1082   -7.9678 C   0  0  1  0  0  0  0  0  0  0  0  0
   16.7993   71.5425   -6.5562 C   0  0  2  0  0  0  0  0  0  0  0  0
   14.6673   73.8074   -8.0506 H   0  0  0  0  0  0  0  0  0  0  0  0
   14.7258   73.8506   -5.4940 H   0  0  0  0  0  0  0  0  0  0  0  0
   16.1873   68.8469   -5.9755 O   0  0  0  0  0  0  0  0  0  0  0  0
   18.9386   68.8277   -2.2780 O   0  0  0  0  0  0  0  0  0  0  0  0
   17.3418   70.8081   -5.4481 N   0  0  0  0  0  0  0  0  0  0  0  0
   17.5579   68.8395   -4.1350 N   0  0  0  0  0  0  0  0  0  0  0  0
   16.9690   69.4590   -5.2448 C   0  0  0  0  0  0  0  0  0  0  0  0
   18.2331   71.4255   -4.5773 C   0  0  0  0  0  0  0  0  0  0  0  0
   18.7848   70.8212   -3.5230 C   0  0  0  0  0  0  0  0  0  0  0  0
   18.4481   69.4111   -3.2397 C   0  0  0  0  0  0  0  0  0  0  0  0
   17.3127   67.8996   -3.9733 H   0  0  0  0  0  0  0  0  0  0  0  0
   21.4343   72.7584   -4.9916 O   0  0  0  0  0  0  0  0  0  0  0  0
   22.5051   72.9324   -3.7932 P   0  0  2  0  0  0  0  0  0  0  0  0
   22.1870   74.4129   -3.2234 O   0  0  0  0  0  0  0  0  0  0  0  0
   23.9325   72.7221   -4.2081 O   0  0  0  0  0  0  0  0  0  0  0  0
   21.9903   71.9312   -2.6368 O   0  0  0  0  0  0  0  0  0  0  0  0
   23.3887   71.9140   -0.7235 O   0  0  0  0  0  0  0  0  0  0  0  0
   21.0583   68.6145    0.1328 O   0  0  0  0  0  0  0  0  0  0  0  0
   20.6847   71.0400    1.6246 O   0  0  0  0  0  0  0  0  0  0  0  0
   21.8897   69.1271   -2.5921 O   0  0  0  0  0  0  0  0  0  0  0  0
   21.3290   69.9188   -0.3875 C   0  0  1  0  0  0  0  0  0  0  0  0
   21.7979   70.8076    0.7661 C   0  0  1  0  0  0  0  0  0  0  0  0
   22.4120   69.8136   -1.4597 C   0  0  2  0  0  0  0  0  0  0  0  0
   22.3596   72.1382    0.2474 C   0  0  1  0  0  0  0  0  0  0  0  0
   22.9364   71.1909   -1.8699 C   0  0  1  0  0  0  0  0  0  0  0  0
   20.3711   68.6742    0.8138 H   0  0  0  0  0  0  0  0  0  0  0  0
   20.3391   70.1919    1.9448 H   0  0  0  0  0  0  0  0  0  0  0  0
   21.5613   68.2567   -2.3193 H   0  0  0  0  0  0  0  0  0  0  0  0
   21.9341   73.4606    2.1914 O   0  0  0  0  0  0  0  0  0  0  0  0
   22.9769   72.9737    1.3668 C   0  0  0  0  0  0  0  0  0  0  0  0
   22.3122   73.9940    2.9085 H   0  0  0  0  0  0  0  0  0  0  0  0
 25 28  1  0
 25 24  1  0
 25 26  1  1
 25 27  2  0
  1  4  1  0
  1 24  1  0
  1  2  1  1
  1  3  2  0
  6 11  1  0
  6 12  1  0
 29 36  1  0
 29 37  1  0
  9  7  1  6
  7 13  1  0
 10  8  1  6
  8 14  1  0
 37 28  1  1
  4  5  1  0
 33 30  1  1
 30 38  1  0
 34 31  1  1
 31 39  1  0
 35 32  1  6
 32 40  1  0
 41 42  1  0
 41 43  1  0
 15 19  2  0
 16 22  2  0
 12 17  1  1
 17 19  1  0
 17 20  1  0
 18 19  1  0
 18 22  1  0
 18 23  1  0
  9 10  1  0
  9 11  1  0
 10 12  1  0
 11  5  1  1
 33 34  1  0
 33 35  1  0
 34 36  1  0
 35 37  1  0
 36 42  1  1
 20 21  2  0
 21 22  1  0
M  CHG  2   2  -1  26  -1
M  END
>  <COMPND>  (56) 
    8629 

>  <AUTHOR>  (56) 
    GENERATED BY OPEN BABEL 3.1.1

>  <MASTER>  (56) 
        0    0    0    0    0    0    0    0   58    0   58    0

>  <minimizedAffinity>  (56) 
-7.66620

>  <CNNscore>  (56) 
0.3318587542

>  <CNNaffinity>  (56) 
3.9473423958

>  <CNN_VS>  (56) 
1.3099601269

>  <CNNaffinity_variance>  (56) 
0.4444943964

$$$$
57
     RDKit          3D

 43 45  0  0  0  0  0  0  0  0999 V2000
   22.1676   72.4475   -3.4562 P   0  0  2  0  0  0  0  0  0  0  0  0
   23.4375   72.4635   -4.4584 O   0  0  0  0  0  0  0  0  0  0  0  0
   21.5696   73.7935   -3.1694 O   0  0  0  0  0  0  0  0  0  0  0  0
   22.6998   71.6261   -2.1679 O   0  0  0  0  0  0  0  0  0  0  0  0
   22.6459   72.2517   -0.8976 C   0  0  0  0  0  0  0  0  0  0  0  0
   22.0496   69.9578   -0.5024 O   0  0  0  0  0  0  0  0  0  0  0  0
   22.1857   70.6210    2.4187 O   0  0  0  0  0  0  0  0  0  0  0  0
   24.5645   69.3605    1.9838 O   0  0  0  0  0  0  0  0  0  0  0  0
   22.9932   71.1026    1.3456 C   0  0  1  0  0  0  0  0  0  0  0  0
   23.9626   70.0300    0.8947 C   0  0  2  0  0  0  0  0  0  0  0  0
   22.1007   71.2599    0.1208 C   0  0  1  0  0  0  0  0  0  0  0  0
   23.0658   69.1201    0.0725 C   0  0  2  0  0  0  0  0  0  0  0  0
   22.7339   70.5129    3.2122 H   0  0  0  0  0  0  0  0  0  0  0  0
   25.1247   69.9811    2.4754 H   0  0  0  0  0  0  0  0  0  0  0  0
   23.0435   66.3297   -0.3643 O   0  0  0  0  0  0  0  0  0  0  0  0
   25.8362   66.6937   -4.0125 O   0  0  0  0  0  0  0  0  0  0  0  0
   23.7779   68.4588   -0.9844 N   0  0  0  0  0  0  0  0  0  0  0  0
   24.4339   66.5132   -2.1806 N   0  0  0  0  0  0  0  0  0  0  0  0
   23.7010   67.0526   -1.1157 C   0  0  0  0  0  0  0  0  0  0  0  0
   24.5415   69.2031   -1.8771 C   0  0  0  0  0  0  0  0  0  0  0  0
   25.2355   68.6734   -2.8865 C   0  0  0  0  0  0  0  0  0  0  0  0
   25.2087   67.2110   -3.0936 C   0  0  0  0  0  0  0  0  0  0  0  0
   24.3957   65.5355   -2.2913 H   0  0  0  0  0  0  0  0  0  0  0  0
   21.1595   71.4005   -4.1636 O   0  0  0  0  0  0  0  0  0  0  0  0
   19.9607   70.5038   -3.5538 P   0  0  2  0  0  0  0  0  0  0  0  0
   19.3671   71.4335   -2.3703 O   0  0  0  0  0  0  0  0  0  0  0  0
   20.3818   69.1322   -3.1118 O   0  0  0  0  0  0  0  0  0  0  0  0
   18.8191   70.5178   -4.6946 O   0  0  0  0  0  0  0  0  0  0  0  0
   19.1289   72.5889   -5.8042 O   0  0  0  0  0  0  0  0  0  0  0  0
   16.0032   71.0968   -8.0526 O   0  0  0  0  0  0  0  0  0  0  0  0
   18.6406   71.2016   -9.1845 O   0  0  0  0  0  0  0  0  0  0  0  0
   16.0609   70.6608   -5.1914 O   0  0  0  0  0  0  0  0  0  0  0  0
   17.2046   71.0222   -7.2802 C   0  0  1  0  0  0  0  0  0  0  0  0
   18.2757   71.8638   -7.9767 C   0  0  1  0  0  0  0  0  0  0  0  0
   16.9293   71.5572   -5.8761 C   0  0  2  0  0  0  0  0  0  0  0  0
   19.5049   72.0508   -7.0773 C   0  0  1  0  0  0  0  0  0  0  0  0
   18.2224   71.7526   -5.0825 C   0  0  1  0  0  0  0  0  0  0  0  0
   16.1711   70.7581   -8.9451 H   0  0  0  0  0  0  0  0  0  0  0  0
   17.8554   71.0893   -9.7431 H   0  0  0  0  0  0  0  0  0  0  0  0
   15.2459   70.5458   -5.7037 H   0  0  0  0  0  0  0  0  0  0  0  0
   21.7501   72.8652   -7.0057 O   0  0  0  0  0  0  0  0  0  0  0  0
   20.5187   73.0161   -7.6877 C   0  0  0  0  0  0  0  0  0  0  0  0
   22.4051   73.4732   -7.3837 H   0  0  0  0  0  0  0  0  0  0  0  0
 25 28  1  0
 25 24  1  0
 25 26  1  1
 25 27  2  0
  1  4  1  0
  1 24  1  0
  1  2  1  6
  1  3  2  0
  6 11  1  0
  6 12  1  0
 29 36  1  0
 29 37  1  0
  9  7  1  1
  7 13  1  0
 10  8  1  1
  8 14  1  0
 37 28  1  6
  4  5  1  0
 33 30  1  6
 30 38  1  0
 34 31  1  6
 31 39  1  0
 35 32  1  1
 32 40  1  0
 41 42  1  0
 41 43  1  0
 15 19  2  0
 16 22  2  0
 12 17  1  6
 17 19  1  0
 17 20  1  0
 18 19  1  0
 18 22  1  0
 18 23  1  0
  9 10  1  0
  9 11  1  0
 10 12  1  0
 11  5  1  6
 33 34  1  0
 33 35  1  0
 34 36  1  0
 35 37  1  0
 36 42  1  6
 20 21  2  0
 21 22  1  0
M  CHG  2   2  -1  26  -1
M  END
>  <COMPND>  (57) 
    8629 

>  <AUTHOR>  (57) 
    GENERATED BY OPEN BABEL 3.1.1

>  <MASTER>  (57) 
        0    0    0    0    0    0    0    0   58    0   58    0

>  <minimizedAffinity>  (57) 
-8.36338

>  <CNNscore>  (57) 
0.3165014982

>  <CNNaffinity>  (57) 
4.1475062370

>  <CNN_VS>  (57) 
1.3126919270

>  <CNNaffinity_variance>  (57) 
0.5277190804

$$$$
58
     RDKit          3D

 43 45  0  0  0  0  0  0  0  0999 V2000
   23.1542   73.4650   -4.1182 P   0  0  2  0  0  0  0  0  0  0  0  0
   24.5761   74.2367   -4.1062 O   0  0  0  0  0  0  0  0  0  0  0  0
   22.0414   74.1755   -3.4052 O   0  0  0  0  0  0  0  0  0  0  0  0
   23.5103   71.9860   -3.5673 O   0  0  0  0  0  0  0  0  0  0  0  0
   22.4456   71.0915   -3.2949 C   0  0  0  0  0  0  0  0  0  0  0  0
   23.8919   70.1428   -1.6269 O   0  0  0  0  0  0  0  0  0  0  0  0
   22.4740   67.5511   -2.1403 O   0  0  0  0  0  0  0  0  0  0  0  0
   21.2973   68.4272    0.1585 O   0  0  0  0  0  0  0  0  0  0  0  0
   21.9534   68.8793   -2.1385 C   0  0  1  0  0  0  0  0  0  0  0  0
   21.8339   69.3954   -0.7197 C   0  0  2  0  0  0  0  0  0  0  0  0
   23.0164   69.8007   -2.7237 C   0  0  1  0  0  0  0  0  0  0  0  0
   23.2744   69.7488   -0.3906 C   0  0  2  0  0  0  0  0  0  0  0  0
   21.8126   66.9443   -1.7712 H   0  0  0  0  0  0  0  0  0  0  0  0
   20.3799   68.2363   -0.0920 H   0  0  0  0  0  0  0  0  0  0  0  0
   23.9506   69.4470    2.3351 O   0  0  0  0  0  0  0  0  0  0  0  0
   23.6181   73.9783    3.1083 O   0  0  0  0  0  0  0  0  0  0  0  0
   23.3722   70.8328    0.5457 N   0  0  0  0  0  0  0  0  0  0  0  0
   23.7847   71.7035    2.7178 N   0  0  0  0  0  0  0  0  0  0  0  0
   23.7177   70.5737    1.8925 C   0  0  0  0  0  0  0  0  0  0  0  0
   23.1271   72.1356    0.1255 C   0  0  0  0  0  0  0  0  0  0  0  0
   23.1938   73.2019    0.9254 C   0  0  0  0  0  0  0  0  0  0  0  0
   23.5486   73.0180    2.3475 C   0  0  0  0  0  0  0  0  0  0  0  0
   24.0233   71.5472    3.6604 H   0  0  0  0  0  0  0  0  0  0  0  0
   22.8909   73.2125   -5.6930 O   0  0  0  0  0  0  0  0  0  0  0  0
   21.9111   73.9603   -6.7388 P   0  0  2  0  0  0  0  0  0  0  0  0
   22.6989   73.8272   -8.1456 O   0  0  0  0  0  0  0  0  0  0  0  0
   21.5621   75.3693   -6.3554 O   0  0  0  0  0  0  0  0  0  0  0  0
   20.6424   72.9737   -6.8870 O   0  0  0  0  0  0  0  0  0  0  0  0
   19.4321   72.2087   -8.7756 O   0  0  0  0  0  0  0  0  0  0  0  0
   16.2853   72.7879   -6.1654 O   0  0  0  0  0  0  0  0  0  0  0  0
   17.1084   70.1163   -6.8233 O   0  0  0  0  0  0  0  0  0  0  0  0
   18.5020   74.6494   -6.1903 O   0  0  0  0  0  0  0  0  0  0  0  0
   17.6199   72.4355   -6.5394 C   0  0  1  0  0  0  0  0  0  0  0  0
   17.5489   71.2722   -7.5306 C   0  0  1  0  0  0  0  0  0  0  0  0
   18.2953   73.6469   -7.1796 C   0  0  2  0  0  0  0  0  0  0  0  0
   18.9152   71.0132   -8.1796 C   0  0  1  0  0  0  0  0  0  0  0  0
   19.6236   73.2703   -7.8384 C   0  0  1  0  0  0  0  0  0  0  0  0
   15.8510   72.0232   -5.7578 H   0  0  0  0  0  0  0  0  0  0  0  0
   16.2450   70.2933   -6.4179 H   0  0  0  0  0  0  0  0  0  0  0  0
   17.6538   74.8793   -5.7810 H   0  0  0  0  0  0  0  0  0  0  0  0
   19.5345   70.4457  -10.4164 O   0  0  0  0  0  0  0  0  0  0  0  0
   18.8333   69.9630   -9.2853 C   0  0  0  0  0  0  0  0  0  0  0  0
   19.4911   69.7875  -11.1281 H   0  0  0  0  0  0  0  0  0  0  0  0
 25 28  1  0
 25 24  1  0
 25 26  1  6
 25 27  2  0
  1  4  1  0
  1 24  1  0
  1  2  1  6
  1  3  2  0
  6 11  1  0
  6 12  1  0
 29 36  1  0
 29 37  1  0
  9  7  1  1
  7 13  1  0
 10  8  1  1
  8 14  1  0
 37 28  1  1
  4  5  1  0
 33 30  1  6
 30 38  1  0
 34 31  1  1
 31 39  1  0
 35 32  1  1
 32 40  1  0
 41 42  1  0
 41 43  1  0
 15 19  2  0
 16 22  2  0
 12 17  1  1
 17 19  1  0
 17 20  1  0
 18 19  1  0
 18 22  1  0
 18 23  1  0
  9 10  1  0
  9 11  1  0
 10 12  1  0
 11  5  1  1
 33 34  1  0
 33 35  1  0
 34 36  1  0
 35 37  1  0
 36 42  1  6
 20 21  2  0
 21 22  1  0
M  CHG  2   2  -1  26  -1
M  END
>  <COMPND>  (58) 
    8629 

>  <AUTHOR>  (58) 
    GENERATED BY OPEN BABEL 3.1.1

>  <MASTER>  (58) 
        0    0    0    0    0    0    0    0   58    0   58    0

>  <minimizedAffinity>  (58) 
-7.68051

>  <CNNscore>  (58) 
0.3026988208

>  <CNNaffinity>  (58) 
3.9816498756

>  <CNN_VS>  (58) 
1.2052407265

>  <CNNaffinity_variance>  (58) 
0.2734015286

$$$$
59
     RDKit          3D

 43 45  0  0  0  0  0  0  0  0999 V2000
   20.0048   74.4217   -3.4809 P   0  0  2  0  0  0  0  0  0  0  0  0
   20.0477   74.8502   -1.9215 O   0  0  0  0  0  0  0  0  0  0  0  0
   20.3998   75.5008   -4.4458 O   0  0  0  0  0  0  0  0  0  0  0  0
   18.5179   73.8144   -3.6762 O   0  0  0  0  0  0  0  0  0  0  0  0
   17.9362   73.0927   -2.6044 C   0  0  0  0  0  0  0  0  0  0  0  0
   16.5352   72.5567   -4.4815 O   0  0  0  0  0  0  0  0  0  0  0  0
   14.8868   70.9556   -2.5554 O   0  0  0  0  0  0  0  0  0  0  0  0
   16.3682   69.0382   -3.8067 O   0  0  0  0  0  0  0  0  0  0  0  0
   16.3004   71.1441   -2.5934 C   0  0  1  0  0  0  0  0  0  0  0  0
   16.9076   70.3418   -3.7253 C   0  0  2  0  0  0  0  0  0  0  0  0
   16.5711   72.5761   -3.0377 C   0  0  1  0  0  0  0  0  0  0  0  0
   16.5635   71.1936   -4.9353 C   0  0  2  0  0  0  0  0  0  0  0  0
   14.6892   70.0480   -2.2738 H   0  0  0  0  0  0  0  0  0  0  0  0
   16.6146   68.5361   -3.0144 H   0  0  0  0  0  0  0  0  0  0  0  0
   15.9279   70.8875   -7.6703 O   0  0  0  0  0  0  0  0  0  0  0  0
   20.3739   70.7340   -8.8747 O   0  0  0  0  0  0  0  0  0  0  0  0
   17.5352   71.0716   -5.9852 N   0  0  0  0  0  0  0  0  0  0  0  0
   18.1422   70.8115   -8.2678 N   0  0  0  0  0  0  0  0  0  0  0  0
   17.1111   70.9210   -7.3260 C   0  0  0  0  0  0  0  0  0  0  0  0
   18.8918   71.1024   -5.6808 C   0  0  0  0  0  0  0  0  0  0  0  0
   19.8625   70.9953   -6.5904 C   0  0  0  0  0  0  0  0  0  0  0  0
   19.5045   70.8351   -8.0145 C   0  0  0  0  0  0  0  0  0  0  0  0
   17.8705   70.7053   -9.2084 H   0  0  0  0  0  0  0  0  0  0  0  0
   20.9429   73.1059   -3.5222 O   0  0  0  0  0  0  0  0  0  0  0  0
   22.5473   72.9422   -3.4115 P   0  0  2  0  0  0  0  0  0  0  0  0
   23.0142   74.3254   -2.7142 O   0  0  0  0  0  0  0  0  0  0  0  0
   23.2272   72.6464   -4.7169 O   0  0  0  0  0  0  0  0  0  0  0  0
   22.7656   71.8182   -2.2739 O   0  0  0  0  0  0  0  0  0  0  0  0
   22.2368   69.5103   -2.1723 O   0  0  0  0  0  0  0  0  0  0  0  0
   21.2288   70.5886    1.6841 O   0  0  0  0  0  0  0  0  0  0  0  0
   23.5980   69.0331    1.2201 O   0  0  0  0  0  0  0  0  0  0  0  0
   20.6541   72.3826   -0.5138 O   0  0  0  0  0  0  0  0  0  0  0  0
   21.9893   70.6381    0.4739 C   0  0  1  0  0  0  0  0  0  0  0  0
   22.5958   69.2546    0.2317 C   0  0  1  0  0  0  0  0  0  0  0  0
   21.0674   71.0304   -0.6792 C   0  0  2  0  0  0  0  0  0  0  0  0
   23.2010   69.1536   -1.1749 C   0  0  1  0  0  0  0  0  0  0  0  0
   21.7502   70.8469   -2.0357 C   0  0  1  0  0  0  0  0  0  0  0  0
   21.8084   70.3405    2.4204 H   0  0  0  0  0  0  0  0  0  0  0  0
   23.2029   69.1001    2.1036 H   0  0  0  0  0  0  0  0  0  0  0  0
   20.2231   72.4856    0.3484 H   0  0  0  0  0  0  0  0  0  0  0  0
   23.3004   66.8875   -0.4241 O   0  0  0  0  0  0  0  0  0  0  0  0
   23.6705   67.7361   -1.4951 C   0  0  0  0  0  0  0  0  0  0  0  0
   23.5925   65.9818   -0.6142 H   0  0  0  0  0  0  0  0  0  0  0  0
 25 28  1  0
 25 24  1  0
 25 26  1  1
 25 27  2  0
  1  4  1  0
  1 24  1  0
  1  2  1  1
  1  3  2  0
  6 11  1  0
  6 12  1  0
 29 36  1  0
 29 37  1  0
  9  7  1  6
  7 13  1  0
 10  8  1  6
  8 14  1  0
 37 28  1  1
  4  5  1  0
 33 30  1  1
 30 38  1  0
 34 31  1  1
 31 39  1  0
 35 32  1  1
 32 40  1  0
 41 42  1  0
 41 43  1  0
 15 19  2  0
 16 22  2  0
 12 17  1  6
 17 19  1  0
 17 20  1  0
 18 19  1  0
 18 22  1  0
 18 23  1  0
  9 10  1  0
  9 11  1  0
 10 12  1  0
 11  5  1  6
 33 34  1  0
 33 35  1  0
 34 36  1  0
 35 37  1  0
 36 42  1  6
 20 21  2  0
 21 22  1  0
M  CHG  2   2  -1  26  -1
M  END
>  <COMPND>  (59) 
    8629 

>  <AUTHOR>  (59) 
    GENERATED BY OPEN BABEL 3.1.1

>  <MASTER>  (59) 
        0    0    0    0    0    0    0    0   58    0   58    0

>  <minimizedAffinity>  (59) 
-7.53019

>  <CNNscore>  (59) 
0.2997474074

>  <CNNaffinity>  (59) 
4.0955414772

>  <CNN_VS>  (59) 
1.2276279926

>  <CNNaffinity_variance>  (59) 
0.3330428898

$$$$
60
     RDKit          3D

 43 45  0  0  0  0  0  0  0  0999 V2000
   21.6938   73.4317   -6.0679 P   0  0  2  0  0  0  0  0  0  0  0  0
   21.8218   75.0223   -5.8013 O   0  0  0  0  0  0  0  0  0  0  0  0
   22.6141   72.8896   -7.1218 O   0  0  0  0  0  0  0  0  0  0  0  0
   20.1133   73.2083   -6.3328 O   0  0  0  0  0  0  0  0  0  0  0  0
   19.3998   74.2038   -7.0453 C   0  0  0  0  0  0  0  0  0  0  0  0
   18.0675   72.2723   -7.5630 O   0  0  0  0  0  0  0  0  0  0  0  0
   16.8440   73.9316   -9.7402 O   0  0  0  0  0  0  0  0  0  0  0  0
   14.9526   74.0368   -7.7786 O   0  0  0  0  0  0  0  0  0  0  0  0
   17.2746   74.3265   -8.4387 C   0  0  1  0  0  0  0  0  0  0  0  0
   16.2967   73.8379   -7.3906 C   0  0  2  0  0  0  0  0  0  0  0  0
   18.5292   73.5319   -8.0983 C   0  0  1  0  0  0  0  0  0  0  0  0
   16.6619   72.3673   -7.2802 C   0  0  2  0  0  0  0  0  0  0  0  0
   16.0440   74.4261   -9.9798 H   0  0  0  0  0  0  0  0  0  0  0  0
   14.7694   74.9876   -7.8346 H   0  0  0  0  0  0  0  0  0  0  0  0
   16.1304   69.6481   -6.7312 O   0  0  0  0  0  0  0  0  0  0  0  0
   15.7211   70.4512   -2.2114 O   0  0  0  0  0  0  0  0  0  0  0  0
   16.4132   71.8381   -5.9690 N   0  0  0  0  0  0  0  0  0  0  0  0
   15.9272   70.0502   -4.4812 N   0  0  0  0  0  0  0  0  0  0  0  0
   16.1557   70.4574   -5.8017 C   0  0  0  0  0  0  0  0  0  0  0  0
   16.4264   72.6849   -4.8659 C   0  0  0  0  0  0  0  0  0  0  0  0
   16.2053   72.2810   -3.6133 C   0  0  0  0  0  0  0  0  0  0  0  0
   15.9285   70.8537   -3.3520 C   0  0  0  0  0  0  0  0  0  0  0  0
   15.7453   69.0926   -4.3405 H   0  0  0  0  0  0  0  0  0  0  0  0
   21.9087   72.7980   -4.5965 O   0  0  0  0  0  0  0  0  0  0  0  0
   22.9701   73.1562   -3.4311 P   0  0  2  0  0  0  0  0  0  0  0  0
   22.1888   74.2612   -2.5445 O   0  0  0  0  0  0  0  0  0  0  0  0
   24.3112   73.6033   -3.9364 O   0  0  0  0  0  0  0  0  0  0  0  0
   23.0117   71.8400   -2.4978 O   0  0  0  0  0  0  0  0  0  0  0  0
   23.2433   69.5896   -3.2039 O   0  0  0  0  0  0  0  0  0  0  0  0
   20.8954   68.9936    0.1401 O   0  0  0  0  0  0  0  0  0  0  0  0
   23.6666   68.2421    0.2010 O   0  0  0  0  0  0  0  0  0  0  0  0
   20.4238   71.2843   -1.5657 O   0  0  0  0  0  0  0  0  0  0  0  0
   21.9097   69.6280   -0.6435 C   0  0  1  0  0  0  0  0  0  0  0  0
   22.9694   68.5817   -0.9943 C   0  0  1  0  0  0  0  0  0  0  0  0
   21.2770   70.1985   -1.9115 C   0  0  2  0  0  0  0  0  0  0  0  0
   23.9470   69.1157   -2.0498 C   0  0  1  0  0  0  0  0  0  0  0  0
   22.3371   70.6560   -2.9150 C   0  0  1  0  0  0  0  0  0  0  0  0
   21.2904   68.6296    0.9470 H   0  0  0  0  0  0  0  0  0  0  0  0
   23.0379   67.9068    0.8594 H   0  0  0  0  0  0  0  0  0  0  0  0
   19.7571   70.9818   -0.9302 H   0  0  0  0  0  0  0  0  0  0  0  0
   25.8706   68.6387   -3.3844 O   0  0  0  0  0  0  0  0  0  0  0  0
   24.9157   68.0371   -2.5298 C   0  0  0  0  0  0  0  0  0  0  0  0
   26.4941   67.9641   -3.6974 H   0  0  0  0  0  0  0  0  0  0  0  0
 25 28  1  0
 25 24  1  0
 25 26  1  1
 25 27  2  0
  1  4  1  0
  1 24  1  0
  1  2  1  1
  1  3  2  0
  6 11  1  0
  6 12  1  0
 29 36  1  0
 29 37  1  0
  9  7  1  6
  7 13  1  0
 10  8  1  6
  8 14  1  0
 37 28  1  1
  4  5  1  0
 33 30  1  1
 30 38  1  0
 34 31  1  1
 31 39  1  0
 35 32  1  1
 32 40  1  0
 41 42  1  0
 41 43  1  0
 15 19  2  0
 16 22  2  0
 12 17  1  1
 17 19  1  0
 17 20  1  0
 18 19  1  0
 18 22  1  0
 18 23  1  0
  9 10  1  0
  9 11  1  0
 10 12  1  0
 11  5  1  1
 33 34  1  0
 33 35  1  0
 34 36  1  0
 35 37  1  0
 36 42  1  6
 20 21  2  0
 21 22  1  0
M  CHG  2   2  -1  26  -1
M  END
>  <COMPND>  (60) 
    8629 

>  <AUTHOR>  (60) 
    GENERATED BY OPEN BABEL 3.1.1

>  <MASTER>  (60) 
        0    0    0    0    0    0    0    0   58    0   58    0

>  <minimizedAffinity>  (60) 
-8.41195

>  <CNNscore>  (60) 
0.2988645732

>  <CNNaffinity>  (60) 
3.8078331947

>  <CNN_VS>  (60) 
1.1380264759

>  <CNNaffinity_variance>  (60) 
0.8185429573

$$$$
61
     RDKit          3D

 43 45  0  0  0  0  0  0  0  0999 V2000
   22.0771   69.3158   -1.8343 P   0  0  2  0  0  0  0  0  0  0  0  0
   22.3238   70.3817   -3.0260 O   0  0  0  0  0  0  0  0  0  0  0  0
   22.9450   68.0930   -1.8878 O   0  0  0  0  0  0  0  0  0  0  0  0
   20.4820   69.0477   -1.8771 O   0  0  0  0  0  0  0  0  0  0  0  0
   19.8206   69.1022   -3.1291 C   0  0  0  0  0  0  0  0  0  0  0  0
   18.5667   70.9496   -4.0170 O   0  0  0  0  0  0  0  0  0  0  0  0
   16.2151   69.8223   -2.5371 O   0  0  0  0  0  0  0  0  0  0  0  0
   15.7625   68.9903   -5.0944 O   0  0  0  0  0  0  0  0  0  0  0  0
   17.2776   69.1374   -3.1985 C   0  0  1  0  0  0  0  0  0  0  0  0
   17.1004   69.2177   -4.7004 C   0  0  2  0  0  0  0  0  0  0  0  0
   18.5562   69.9382   -2.9859 C   0  0  1  0  0  0  0  0  0  0  0  0
   17.5647   70.6334   -4.9973 C   0  0  2  0  0  0  0  0  0  0  0  0
   15.3879   69.3295   -2.6586 H   0  0  0  0  0  0  0  0  0  0  0  0
   15.5144   68.0764   -4.8847 H   0  0  0  0  0  0  0  0  0  0  0  0
   16.0725   70.6781   -7.3950 O   0  0  0  0  0  0  0  0  0  0  0  0
   19.8722   71.1149   -9.9665 O   0  0  0  0  0  0  0  0  0  0  0  0
   18.1384   70.7583   -6.3075 N   0  0  0  0  0  0  0  0  0  0  0  0
   17.9657   70.8957   -8.6734 N   0  0  0  0  0  0  0  0  0  0  0  0
   17.3008   70.7692   -7.4471 C   0  0  0  0  0  0  0  0  0  0  0  0
   19.5170   70.8685   -6.4527 C   0  0  0  0  0  0  0  0  0  0  0  0
   20.1356   70.9872   -7.6294 C   0  0  0  0  0  0  0  0  0  0  0  0
   19.3331   71.0071   -8.8694 C   0  0  0  0  0  0  0  0  0  0  0  0
   17.4025   70.9053   -9.4812 H   0  0  0  0  0  0  0  0  0  0  0  0
   22.2591   70.2122   -0.5015 O   0  0  0  0  0  0  0  0  0  0  0  0
   21.4216   71.4814    0.0468 P   0  0  2  0  0  0  0  0  0  0  0  0
   20.6746   70.8952    1.3567 O   0  0  0  0  0  0  0  0  0  0  0  0
   20.5014   72.0961   -0.9677 O   0  0  0  0  0  0  0  0  0  0  0  0
   22.5403   72.4873    0.6314 O   0  0  0  0  0  0  0  0  0  0  0  0
   22.4832   73.8938    2.5379 O   0  0  0  0  0  0  0  0  0  0  0  0
   24.6374   76.3252   -0.0113 O   0  0  0  0  0  0  0  0  0  0  0  0
   25.9702   75.0352    2.1813 O   0  0  0  0  0  0  0  0  0  0  0  0
   22.4428   74.7410   -1.0378 O   0  0  0  0  0  0  0  0  0  0  0  0
   24.2149   75.0827    0.5572 C   0  0  1  0  0  0  0  0  0  0  0  0
   24.5528   75.0985    2.0493 C   0  0  1  0  0  0  0  0  0  0  0  0
   22.7101   74.9243    0.3483 C   0  0  2  0  0  0  0  0  0  0  0  0
   23.8950   73.9195    2.7788 C   0  0  1  0  0  0  0  0  0  0  0  0
   22.1480   73.7530    1.1560 C   0  0  1  0  0  0  0  0  0  0  0  0
   25.5922   76.4317    0.1174 H   0  0  0  0  0  0  0  0  0  0  0  0
   26.3733   75.7849    1.7159 H   0  0  0  0  0  0  0  0  0  0  0  0
   22.8032   75.4891   -1.5382 H   0  0  0  0  0  0  0  0  0  0  0  0
   24.5699   75.2953    4.6120 O   0  0  0  0  0  0  0  0  0  0  0  0
   24.0880   74.0033    4.2913 C   0  0  0  0  0  0  0  0  0  0  0  0
   24.6972   75.3632    5.5716 H   0  0  0  0  0  0  0  0  0  0  0  0
 25 28  1  0
 25 24  1  0
 25 26  1  1
 25 27  2  0
  1  4  1  0
  1 24  1  0
  1  2  1  6
  1  3  2  0
  6 11  1  0
  6 12  1  0
 29 36  1  0
 29 37  1  0
  9  7  1  1
  7 13  1  0
 10  8  1  1
  8 14  1  0
 37 28  1  6
  4  5  1  0
 33 30  1  1
 30 38  1  0
 34 31  1  6
 31 39  1  0
 35 32  1  6
 32 40  1  0
 41 42  1  0
 41 43  1  0
 15 19  2  0
 16 22  2  0
 12 17  1  6
 17 19  1  0
 17 20  1  0
 18 19  1  0
 18 22  1  0
 18 23  1  0
  9 10  1  0
  9 11  1  0
 10 12  1  0
 11  5  1  6
 33 34  1  0
 33 35  1  0
 34 36  1  0
 35 37  1  0
 36 42  1  1
 20 21  2  0
 21 22  1  0
M  CHG  2   2  -1  26  -1
M  END
>  <COMPND>  (61) 
    8629 

>  <AUTHOR>  (61) 
    GENERATED BY OPEN BABEL 3.1.1

>  <MASTER>  (61) 
        0    0    0    0    0    0    0    0   58    0   58    0

>  <minimizedAffinity>  (61) 
-7.32526

>  <CNNscore>  (61) 
0.8255113959

>  <CNNaffinity>  (61) 
4.8551950455

>  <CNN_VS>  (61) 
4.0080189705

>  <CNNaffinity_variance>  (61) 
0.2308201343

$$$$
62
     RDKit          3D

 43 45  0  0  0  0  0  0  0  0999 V2000
   22.5275   70.1634   -2.4926 P   0  0  2  0  0  0  0  0  0  0  0  0
   23.4974   71.2268   -3.2314 O   0  0  0  0  0  0  0  0  0  0  0  0
   22.7638   68.7280   -2.8606 O   0  0  0  0  0  0  0  0  0  0  0  0
   21.0393   70.7275   -2.7838 O   0  0  0  0  0  0  0  0  0  0  0  0
   19.9988   69.7967   -3.0262 C   0  0  0  0  0  0  0  0  0  0  0  0
   18.5679   71.3753   -4.1371 O   0  0  0  0  0  0  0  0  0  0  0  0
   16.3458   70.2542   -2.4648 O   0  0  0  0  0  0  0  0  0  0  0  0
   15.9546   69.0310   -4.8705 O   0  0  0  0  0  0  0  0  0  0  0  0
   17.4635   69.5848   -3.0462 C   0  0  1  0  0  0  0  0  0  0  0  0
   17.2678   69.4353   -4.5405 C   0  0  2  0  0  0  0  0  0  0  0  0
   18.6617   70.5231   -2.9746 C   0  0  1  0  0  0  0  0  0  0  0  0
   17.5929   70.8320   -5.0421 C   0  0  2  0  0  0  0  0  0  0  0  0
   15.5683   69.6743   -2.4987 H   0  0  0  0  0  0  0  0  0  0  0  0
   15.7963   68.1368   -4.5299 H   0  0  0  0  0  0  0  0  0  0  0  0
   16.0669   70.5221   -7.3987 O   0  0  0  0  0  0  0  0  0  0  0  0
   19.8063   70.8134  -10.0770 O   0  0  0  0  0  0  0  0  0  0  0  0
   18.1419   70.8235   -6.3688 N   0  0  0  0  0  0  0  0  0  0  0  0
   17.9301   70.6676   -8.7304 N   0  0  0  0  0  0  0  0  0  0  0  0
   17.2889   70.6603   -7.4851 C   0  0  0  0  0  0  0  0  0  0  0  0
   19.5118   70.9761   -6.5528 C   0  0  0  0  0  0  0  0  0  0  0  0
   20.1078   70.9795   -7.7470 C   0  0  0  0  0  0  0  0  0  0  0  0
   19.2881   70.8147   -8.9647 C   0  0  0  0  0  0  0  0  0  0  0  0
   17.3558   70.5551   -9.5224 H   0  0  0  0  0  0  0  0  0  0  0  0
   22.7441   70.5008   -0.9267 O   0  0  0  0  0  0  0  0  0  0  0  0
   22.2442   69.7312    0.4041 P   0  0  2  0  0  0  0  0  0  0  0  0
   23.5843   68.9943    0.9320 O   0  0  0  0  0  0  0  0  0  0  0  0
   21.0785   68.8117    0.1819 O   0  0  0  0  0  0  0  0  0  0  0  0
   21.9747   70.9054    1.4781 O   0  0  0  0  0  0  0  0  0  0  0  0
   21.1656   73.1271    1.3160 O   0  0  0  0  0  0  0  0  0  0  0  0
   24.2572   73.7438    3.9829 O   0  0  0  0  0  0  0  0  0  0  0  0
   21.5415   73.8531    4.9105 O   0  0  0  0  0  0  0  0  0  0  0  0
   24.5882   71.8773    1.7951 O   0  0  0  0  0  0  0  0  0  0  0  0
   23.1807   73.0199    3.3809 C   0  0  1  0  0  0  0  0  0  0  0  0
   21.9027   73.8474    3.5322 C   0  0  1  0  0  0  0  0  0  0  0  0
   23.4991   72.7874    1.9051 C   0  0  2  0  0  0  0  0  0  0  0  0
   20.7633   73.2670    2.6836 C   0  0  1  0  0  0  0  0  0  0  0  0
   22.2845   72.2554    1.1423 C   0  0  1  0  0  0  0  0  0  0  0  0
   24.0616   73.8944    4.9202 H   0  0  0  0  0  0  0  0  0  0  0  0
   22.2696   74.2214    5.4353 H   0  0  0  0  0  0  0  0  0  0  0  0
   25.3508   72.2256    2.2819 H   0  0  0  0  0  0  0  0  0  0  0  0
   19.3996   74.7699    1.4225 O   0  0  0  0  0  0  0  0  0  0  0  0
   19.5273   74.1638    2.6955 C   0  0  0  0  0  0  0  0  0  0  0  0
   18.6169   75.3435    1.4151 H   0  0  0  0  0  0  0  0  0  0  0  0
 25 28  1  0
 25 24  1  0
 25 26  1  1
 25 27  2  0
  1  4  1  0
  1 24  1  0
  1  2  1  6
  1  3  2  0
  6 11  1  0
  6 12  1  0
 29 36  1  0
 29 37  1  0
  9  7  1  1
  7 13  1  0
 10  8  1  1
  8 14  1  0
 37 28  1  1
  4  5  1  0
 33 30  1  6
 30 38  1  0
 34 31  1  1
 31 39  1  0
 35 32  1  1
 32 40  1  0
 41 42  1  0
 41 43  1  0
 15 19  2  0
 16 22  2  0
 12 17  1  6
 17 19  1  0
 17 20  1  0
 18 19  1  0
 18 22  1  0
 18 23  1  0
  9 10  1  0
  9 11  1  0
 10 12  1  0
 11  5  1  6
 33 34  1  0
 33 35  1  0
 34 36  1  0
 35 37  1  0
 36 42  1  6
 20 21  2  0
 21 22  1  0
M  CHG  2   2  -1  26  -1
M  END
>  <COMPND>  (62) 
    8629 

>  <AUTHOR>  (62) 
    GENERATED BY OPEN BABEL 3.1.1

>  <MASTER>  (62) 
        0    0    0    0    0    0    0    0   58    0   58    0

>  <minimizedAffinity>  (62) 
-7.87900

>  <CNNscore>  (62) 
0.7412720919

>  <CNNaffinity>  (62) 
4.7746767998

>  <CNN_VS>  (62) 
3.5393347740

>  <CNNaffinity_variance>  (62) 
0.0381957218

$$$$
63
     RDKit          3D

 43 45  0  0  0  0  0  0  0  0999 V2000
   22.6492   73.1567   -3.8096 P   0  0  2  0  0  0  0  0  0  0  0  0
   23.2168   74.2837   -4.8221 O   0  0  0  0  0  0  0  0  0  0  0  0
   23.5908   72.0219   -3.5322 O   0  0  0  0  0  0  0  0  0  0  0  0
   21.2210   72.7444   -4.4486 O   0  0  0  0  0  0  0  0  0  0  0  0
   20.1438   73.6590   -4.3432 C   0  0  0  0  0  0  0  0  0  0  0  0
   18.1504   72.5567   -5.1080 O   0  0  0  0  0  0  0  0  0  0  0  0
   18.0635   71.2490   -2.4111 O   0  0  0  0  0  0  0  0  0  0  0  0
   19.1032   69.2845   -3.9911 O   0  0  0  0  0  0  0  0  0  0  0  0
   19.1933   71.5866   -3.2141 C   0  0  1  0  0  0  0  0  0  0  0  0
   19.3163   70.6265   -4.3789 C   0  0  2  0  0  0  0  0  0  0  0  0
   18.8920   72.9038   -3.9181 C   0  0  1  0  0  0  0  0  0  0  0  0
   18.2433   71.1392   -5.3244 C   0  0  2  0  0  0  0  0  0  0  0  0
   18.2326   70.4112   -1.9513 H   0  0  0  0  0  0  0  0  0  0  0  0
   19.8116   69.0050   -3.3904 H   0  0  0  0  0  0  0  0  0  0  0  0
   16.3574   70.4415   -7.3079 O   0  0  0  0  0  0  0  0  0  0  0  0
   19.5989   70.2366  -10.5777 O   0  0  0  0  0  0  0  0  0  0  0  0
   18.5668   70.8981   -6.7023 N   0  0  0  0  0  0  0  0  0  0  0  0
   17.9729   70.3402   -8.9344 N   0  0  0  0  0  0  0  0  0  0  0  0
   17.5454   70.5526   -7.6176 C   0  0  0  0  0  0  0  0  0  0  0  0
   19.8845   71.0053   -7.1338 C   0  0  0  0  0  0  0  0  0  0  0  0
   20.2759   70.7984   -8.3928 C   0  0  0  0  0  0  0  0  0  0  0  0
   19.2706   70.4335   -9.4118 C   0  0  0  0  0  0  0  0  0  0  0  0
   17.2787   70.0980   -9.5896 H   0  0  0  0  0  0  0  0  0  0  0  0
   22.2296   74.0166   -2.5068 O   0  0  0  0  0  0  0  0  0  0  0  0
   23.0612   74.3991   -1.1744 P   0  0  2  0  0  0  0  0  0  0  0  0
   22.0170   75.3034   -0.3321 O   0  0  0  0  0  0  0  0  0  0  0  0
   24.3804   75.0639   -1.4421 O   0  0  0  0  0  0  0  0  0  0  0  0
   23.1642   73.0175   -0.3465 O   0  0  0  0  0  0  0  0  0  0  0  0
   21.7548   71.1122   -0.3553 O   0  0  0  0  0  0  0  0  0  0  0  0
   22.7415   71.1844    3.6537 O   0  0  0  0  0  0  0  0  0  0  0  0
   23.8639   69.1602    1.9534 O   0  0  0  0  0  0  0  0  0  0  0  0
   22.2774   73.6652    2.2360 O   0  0  0  0  0  0  0  0  0  0  0  0
   22.9692   71.3582    2.2525 C   0  0  1  0  0  0  0  0  0  0  0  0
   22.7835   70.0041    1.5649 C   0  0  1  0  0  0  0  0  0  0  0  0
   21.9722   72.3791    1.7076 C   0  0  2  0  0  0  0  0  0  0  0  0
   22.7480   70.1581    0.0384 C   0  0  1  0  0  0  0  0  0  0  0  0
   21.9825   72.4181    0.1784 C   0  0  1  0  0  0  0  0  0  0  0  0
   23.3718   70.5377    4.0060 H   0  0  0  0  0  0  0  0  0  0  0  0
   23.8754   69.0716    2.9194 H   0  0  0  0  0  0  0  0  0  0  0  0
   22.2674   73.6273    3.2047 H   0  0  0  0  0  0  0  0  0  0  0  0
   23.4181   67.9000   -0.3623 O   0  0  0  0  0  0  0  0  0  0  0  0
   22.4066   68.8443   -0.6612 C   0  0  0  0  0  0  0  0  0  0  0  0
   23.2138   67.0587   -0.8007 H   0  0  0  0  0  0  0  0  0  0  0  0
 25 28  1  0
 25 24  1  0
 25 26  1  1
 25 27  2  0
  1  4  1  0
  1 24  1  0
  1  2  1  6
  1  3  2  0
  6 11  1  0
  6 12  1  0
 29 36  1  0
 29 37  1  0
  9  7  1  1
  7 13  1  0
 10  8  1  1
  8 14  1  0
 37 28  1  1
  4  5  1  0
 33 30  1  1
 30 38  1  0
 34 31  1  6
 31 39  1  0
 35 32  1  1
 32 40  1  0
 41 42  1  0
 41 43  1  0
 15 19  2  0
 16 22  2  0
 12 17  1  6
 17 19  1  0
 17 20  1  0
 18 19  1  0
 18 22  1  0
 18 23  1  0
  9 10  1  0
  9 11  1  0
 10 12  1  0
 11  5  1  6
 33 34  1  0
 33 35  1  0
 34 36  1  0
 35 37  1  0
 36 42  1  6
 20 21  2  0
 21 22  1  0
M  CHG  2   2  -1  26  -1
M  END
>  <COMPND>  (63) 
    8629 

>  <AUTHOR>  (63) 
    GENERATED BY OPEN BABEL 3.1.1

>  <MASTER>  (63) 
        0    0    0    0    0    0    0    0   58    0   58    0

>  <minimizedAffinity>  (63) 
-7.59358

>  <CNNscore>  (63) 
0.7411522865

>  <CNNaffinity>  (63) 
4.3697214127

>  <CNN_VS>  (63) 
3.2386291027

>  <CNNaffinity_variance>  (63) 
0.1127956659

$$$$
64
     RDKit          3D

 43 45  0  0  0  0  0  0  0  0999 V2000
   22.8466   70.2061   -2.6389 P   0  0  2  0  0  0  0  0  0  0  0  0
   23.6221   71.4137   -3.3856 O   0  0  0  0  0  0  0  0  0  0  0  0
   23.4251   68.8414   -2.8721 O   0  0  0  0  0  0  0  0  0  0  0  0
   21.3036   70.4008   -3.0850 O   0  0  0  0  0  0  0  0  0  0  0  0
   20.4488   69.2707   -3.0739 C   0  0  0  0  0  0  0  0  0  0  0  0
   18.6803   70.7326   -3.7873 O   0  0  0  0  0  0  0  0  0  0  0  0
   16.8409   68.9758   -2.1994 O   0  0  0  0  0  0  0  0  0  0  0  0
   16.4253   68.1165   -4.7539 O   0  0  0  0  0  0  0  0  0  0  0  0
   17.9917   68.6199   -2.9638 C   0  0  1  0  0  0  0  0  0  0  0  0
   17.6807   68.6867   -4.4444 C   0  0  2  0  0  0  0  0  0  0  0  0
   19.0225   69.7305   -2.8049 C   0  0  1  0  0  0  0  0  0  0  0  0
   17.7246   70.1822   -4.7085 C   0  0  2  0  0  0  0  0  0  0  0  0
   16.1686   68.2812   -2.2850 H   0  0  0  0  0  0  0  0  0  0  0  0
   16.4480   67.1646   -4.5691 H   0  0  0  0  0  0  0  0  0  0  0  0
   16.0292   70.0777   -6.9651 O   0  0  0  0  0  0  0  0  0  0  0  0
   19.4198   71.3822   -9.8011 O   0  0  0  0  0  0  0  0  0  0  0  0
   18.1380   70.4899   -6.0485 N   0  0  0  0  0  0  0  0  0  0  0  0
   17.7188   70.7275   -8.3754 N   0  0  0  0  0  0  0  0  0  0  0  0
   17.2085   70.4055   -7.1113 C   0  0  0  0  0  0  0  0  0  0  0  0
   19.4520   70.8706   -6.2982 C   0  0  0  0  0  0  0  0  0  0  0  0
   19.9231   71.1732   -7.5097 C   0  0  0  0  0  0  0  0  0  0  0  0
   19.0168   71.1101   -8.6745 C   0  0  0  0  0  0  0  0  0  0  0  0
   17.0895   70.6754   -9.1311 H   0  0  0  0  0  0  0  0  0  0  0  0
   22.8404   70.6789   -1.0932 O   0  0  0  0  0  0  0  0  0  0  0  0
   23.5411   70.0391    0.2155 P   0  0  2  0  0  0  0  0  0  0  0  0
   25.1004   69.9474   -0.2060 O   0  0  0  0  0  0  0  0  0  0  0  0
   22.9419   68.7361    0.6594 O   0  0  0  0  0  0  0  0  0  0  0  0
   23.4865   71.2121    1.3228 O   0  0  0  0  0  0  0  0  0  0  0  0
   22.9242   71.8774    3.5268 O   0  0  0  0  0  0  0  0  0  0  0  0
   19.7444   73.5586    1.4986 O   0  0  0  0  0  0  0  0  0  0  0  0
   21.8094   75.2535    2.5528 O   0  0  0  0  0  0  0  0  0  0  0  0
   20.7615   70.9695    0.6976 O   0  0  0  0  0  0  0  0  0  0  0  0
   21.1006   73.1424    1.6801 C   0  0  1  0  0  0  0  0  0  0  0  0
   21.6693   73.8775    2.8954 C   0  0  1  0  0  0  0  0  0  0  0  0
   21.1335   71.6313    1.9018 C   0  0  2  0  0  0  0  0  0  0  0  0
   23.0240   73.2904    3.3139 C   0  0  1  0  0  0  0  0  0  0  0  0
   22.5133   71.1580    2.3626 C   0  0  1  0  0  0  0  0  0  0  0  0
   19.7166   74.5171    1.3569 H   0  0  0  0  0  0  0  0  0  0  0  0
   20.9471   75.6119    2.2900 H   0  0  0  0  0  0  0  0  0  0  0  0
   19.8863   71.2776    0.4166 H   0  0  0  0  0  0  0  0  0  0  0  0
   24.7997   74.4897    4.3712 O   0  0  0  0  0  0  0  0  0  0  0  0
   23.5349   73.9027    4.6163 C   0  0  0  0  0  0  0  0  0  0  0  0
   25.1370   74.8837    5.1913 H   0  0  0  0  0  0  0  0  0  0  0  0
 25 28  1  0
 25 24  1  0
 25 26  1  6
 25 27  2  0
  1  4  1  0
  1 24  1  0
  1  2  1  6
  1  3  2  0
  6 11  1  0
  6 12  1  0
 29 36  1  0
 29 37  1  0
  9  7  1  1
  7 13  1  0
 10  8  1  1
  8 14  1  0
 37 28  1  6
  4  5  1  0
 33 30  1  1
 30 38  1  0
 34 31  1  6
 31 39  1  0
 35 32  1  6
 32 40  1  0
 41 42  1  0
 41 43  1  0
 15 19  2  0
 16 22  2  0
 12 17  1  6
 17 19  1  0
 17 20  1  0
 18 19  1  0
 18 22  1  0
 18 23  1  0
  9 10  1  0
  9 11  1  0
 10 12  1  0
 11  5  1  6
 33 34  1  0
 33 35  1  0
 34 36  1  0
 35 37  1  0
 36 42  1  1
 20 21  2  0
 21 22  1  0
M  CHG  2   2  -1  26  -1
M  END
>  <COMPND>  (64) 
    8629 

>  <AUTHOR>  (64) 
    GENERATED BY OPEN BABEL 3.1.1

>  <MASTER>  (64) 
        0    0    0    0    0    0    0    0   58    0   58    0

>  <minimizedAffinity>  (64) 
-7.80579

>  <CNNscore>  (64) 
0.7043997049

>  <CNNaffinity>  (64) 
4.7056365013

>  <CNN_VS>  (64) 
3.3146488667

>  <CNNaffinity_variance>  (64) 
0.0753936842

$$$$
65
     RDKit          3D

 43 45  0  0  0  0  0  0  0  0999 V2000
   21.2076   71.4676   -3.1298 P   0  0  2  0  0  0  0  0  0  0  0  0
   20.6991   72.9901   -2.9282 O   0  0  0  0  0  0  0  0  0  0  0  0
   22.6197   71.3303   -3.6181 O   0  0  0  0  0  0  0  0  0  0  0  0
   20.0715   70.7998   -4.0687 O   0  0  0  0  0  0  0  0  0  0  0  0
   19.8098   69.4140   -3.9315 C   0  0  0  0  0  0  0  0  0  0  0  0
   17.7061   70.3660   -3.2667 O   0  0  0  0  0  0  0  0  0  0  0  0
   16.9768   67.6182   -2.3134 O   0  0  0  0  0  0  0  0  0  0  0  0
   15.6767   67.7821   -4.7049 O   0  0  0  0  0  0  0  0  0  0  0  0
   17.7476   68.0037   -3.4503 C   0  0  1  0  0  0  0  0  0  0  0  0
   16.8457   68.5574   -4.5337 C   0  0  2  0  0  0  0  0  0  0  0  0
   18.5711   69.2267   -3.0662 C   0  0  1  0  0  0  0  0  0  0  0  0
   16.5501   69.9541   -4.0143 C   0  0  2  0  0  0  0  0  0  0  0  0
   16.4427   66.8386   -2.5343 H   0  0  0  0  0  0  0  0  0  0  0  0
   15.9173   66.9030   -5.0366 H   0  0  0  0  0  0  0  0  0  0  0  0
   15.3317   72.4790   -3.6698 O   0  0  0  0  0  0  0  0  0  0  0  0
   15.7190   73.4814   -8.1516 O   0  0  0  0  0  0  0  0  0  0  0  0
   16.3204   70.8953   -5.0739 N   0  0  0  0  0  0  0  0  0  0  0  0
   15.5257   72.9761   -5.9016 N   0  0  0  0  0  0  0  0  0  0  0  0
   15.7001   72.1354   -4.7949 C   0  0  0  0  0  0  0  0  0  0  0  0
   16.7090   70.5851   -6.3726 C   0  0  0  0  0  0  0  0  0  0  0  0
   16.5344   71.3973   -7.4172 C   0  0  0  0  0  0  0  0  0  0  0  0
   15.8937   72.7123   -7.2114 C   0  0  0  0  0  0  0  0  0  0  0  0
   15.0953   73.8453   -5.7313 H   0  0  0  0  0  0  0  0  0  0  0  0
   20.9266   70.7964   -1.6864 O   0  0  0  0  0  0  0  0  0  0  0  0
   21.9092   70.0097   -0.6722 P   0  0  2  0  0  0  0  0  0  0  0  0
   20.8908   69.1183    0.2144 O   0  0  0  0  0  0  0  0  0  0  0  0
   22.8090   70.9040    0.1306 O   0  0  0  0  0  0  0  0  0  0  0  0
   22.6839   68.9408   -1.6007 O   0  0  0  0  0  0  0  0  0  0  0  0
   23.5679   66.7751   -1.2204 O   0  0  0  0  0  0  0  0  0  0  0  0
   26.6501   68.3611   -3.4643 O   0  0  0  0  0  0  0  0  0  0  0  0
   24.9156   66.3911   -4.6299 O   0  0  0  0  0  0  0  0  0  0  0  0
   25.2754   70.0149   -1.5266 O   0  0  0  0  0  0  0  0  0  0  0  0
   25.2878   68.1689   -3.0738 C   0  0  1  0  0  0  0  0  0  0  0  0
   24.9469   66.6863   -3.2363 C   0  0  1  0  0  0  0  0  0  0  0  0
   25.1197   68.6029   -1.6188 C   0  0  2  0  0  0  0  0  0  0  0  0
   23.5955   66.3544   -2.5893 C   0  0  1  0  0  0  0  0  0  0  0  0
   23.7606   68.1815   -1.0572 C   0  0  1  0  0  0  0  0  0  0  0  0
   26.7635   68.0879   -4.3874 H   0  0  0  0  0  0  0  0  0  0  0  0
   25.7747   66.6056   -5.0265 H   0  0  0  0  0  0  0  0  0  0  0  0
   26.1396   70.2688   -1.8850 H   0  0  0  0  0  0  0  0  0  0  0  0
   22.7567   64.5122   -3.8589 O   0  0  0  0  0  0  0  0  0  0  0  0
   23.3088   64.8545   -2.6010 C   0  0  0  0  0  0  0  0  0  0  0  0
   22.5694   63.5603   -3.8809 H   0  0  0  0  0  0  0  0  0  0  0  0
 25 28  1  0
 25 24  1  0
 25 26  1  1
 25 27  2  0
  1  4  1  0
  1 24  1  0
  1  2  1  1
  1  3  2  0
  6 11  1  0
  6 12  1  0
 29 36  1  0
 29 37  1  0
  9  7  1  1
  7 13  1  0
 10  8  1  1
  8 14  1  0
 37 28  1  6
  4  5  1  0
 33 30  1  1
 30 38  1  0
 34 31  1  6
 31 39  1  0
 35 32  1  6
 32 40  1  0
 41 42  1  0
 41 43  1  0
 15 19  2  0
 16 22  2  0
 12 17  1  6
 17 19  1  0
 17 20  1  0
 18 19  1  0
 18 22  1  0
 18 23  1  0
  9 10  1  0
  9 11  1  0
 10 12  1  0
 11  5  1  6
 33 34  1  0
 33 35  1  0
 34 36  1  0
 35 37  1  0
 36 42  1  1
 20 21  2  0
 21 22  1  0
M  CHG  2   2  -1  26  -1
M  END
>  <COMPND>  (65) 
    8629 

>  <AUTHOR>  (65) 
    GENERATED BY OPEN BABEL 3.1.1

>  <MASTER>  (65) 
        0    0    0    0    0    0    0    0   58    0   58    0

>  <minimizedAffinity>  (65) 
-8.83062

>  <CNNscore>  (65) 
0.6884631515

>  <CNNaffinity>  (65) 
4.7407202721

>  <CNN_VS>  (65) 
3.2638111115

>  <CNNaffinity_variance>  (65) 
0.3573219180

$$$$
66
     RDKit          3D

 43 45  0  0  0  0  0  0  0  0999 V2000
   22.8302   69.5727   -1.9595 P   0  0  2  0  0  0  0  0  0  0  0  0
   23.3577   68.1688   -2.5666 O   0  0  0  0  0  0  0  0  0  0  0  0
   23.5254   70.0233   -0.7085 O   0  0  0  0  0  0  0  0  0  0  0  0
   21.2299   69.3669   -1.8388 O   0  0  0  0  0  0  0  0  0  0  0  0
   20.4751   69.2229   -3.0294 C   0  0  0  0  0  0  0  0  0  0  0  0
   18.6434   70.6241   -3.7041 O   0  0  0  0  0  0  0  0  0  0  0  0
   16.8836   68.7430   -2.1695 O   0  0  0  0  0  0  0  0  0  0  0  0
   16.5077   67.9385   -4.7479 O   0  0  0  0  0  0  0  0  0  0  0  0
   18.0494   68.4604   -2.9417 C   0  0  1  0  0  0  0  0  0  0  0  0
   17.7363   68.5551   -4.4205 C   0  0  2  0  0  0  0  0  0  0  0  0
   19.0296   69.6109   -2.7498 C   0  0  1  0  0  0  0  0  0  0  0  0
   17.7135   70.0580   -4.6421 C   0  0  2  0  0  0  0  0  0  0  0  0
   16.2429   68.0218   -2.2758 H   0  0  0  0  0  0  0  0  0  0  0  0
   16.5727   66.9838   -4.5900 H   0  0  0  0  0  0  0  0  0  0  0  0
   16.0057   70.0088   -6.8912 O   0  0  0  0  0  0  0  0  0  0  0  0
   19.3566   71.4723   -9.6967 O   0  0  0  0  0  0  0  0  0  0  0  0
   18.1133   70.4215   -5.9723 N   0  0  0  0  0  0  0  0  0  0  0  0
   17.6755   70.7377   -8.2863 N   0  0  0  0  0  0  0  0  0  0  0  0
   17.1786   70.3611   -7.0320 C   0  0  0  0  0  0  0  0  0  0  0  0
   19.4194   70.8327   -6.2153 C   0  0  0  0  0  0  0  0  0  0  0  0
   19.8778   71.1873   -7.4175 C   0  0  0  0  0  0  0  0  0  0  0  0
   18.9653   71.1523   -8.5786 C   0  0  0  0  0  0  0  0  0  0  0  0
   17.0423   70.7031   -9.0397 H   0  0  0  0  0  0  0  0  0  0  0  0
   22.9729   70.5862   -3.2107 O   0  0  0  0  0  0  0  0  0  0  0  0
   22.8901   72.1988   -3.2853 P   0  0  2  0  0  0  0  0  0  0  0  0
   21.3788   72.4695   -3.7954 O   0  0  0  0  0  0  0  0  0  0  0  0
   23.9534   72.8308   -4.1362 O   0  0  0  0  0  0  0  0  0  0  0  0
   22.8927   72.6797   -1.7447 O   0  0  0  0  0  0  0  0  0  0  0  0
   21.4761   72.3848    0.1323 O   0  0  0  0  0  0  0  0  0  0  0  0
   22.1282   76.4514    0.4302 O   0  0  0  0  0  0  0  0  0  0  0  0
   23.3738   74.6740    2.3111 O   0  0  0  0  0  0  0  0  0  0  0  0
   21.7996   75.2286   -2.1729 O   0  0  0  0  0  0  0  0  0  0  0  0
   22.4722   75.0947    0.1360 C   0  0  1  0  0  0  0  0  0  0  0  0
   22.3349   74.2757    1.4209 C   0  0  1  0  0  0  0  0  0  0  0  0
   21.5305   74.5638   -0.9432 C   0  0  2  0  0  0  0  0  0  0  0  0
   22.4268   72.7714    1.1315 C   0  0  1  0  0  0  0  0  0  0  0  0
   21.6676   73.0502   -1.1177 C   0  0  1  0  0  0  0  0  0  0  0  0
   22.7227   76.7947    1.1145 H   0  0  0  0  0  0  0  0  0  0  0  0
   23.3047   75.6259    2.4852 H   0  0  0  0  0  0  0  0  0  0  0  0
   21.7092   76.1859   -2.0493 H   0  0  0  0  0  0  0  0  0  0  0  0
   21.6135   72.7807    3.3781 O   0  0  0  0  0  0  0  0  0  0  0  0
   22.1356   71.9313    2.3731 C   0  0  0  0  0  0  0  0  0  0  0  0
   21.4231   72.2595    4.1743 H   0  0  0  0  0  0  0  0  0  0  0  0
 25 28  1  0
 25 24  1  0
 25 26  1  6
 25 27  2  0
  1  4  1  0
  1 24  1  0
  1  2  1  6
  1  3  2  0
  6 11  1  0
  6 12  1  0
 29 36  1  0
 29 37  1  0
  9  7  1  1
  7 13  1  0
 10  8  1  1
  8 14  1  0
 37 28  1  1
  4  5  1  0
 33 30  1  1
 30 38  1  0
 34 31  1  1
 31 39  1  0
 35 32  1  6
 32 40  1  0
 41 42  1  0
 41 43  1  0
 15 19  2  0
 16 22  2  0
 12 17  1  6
 17 19  1  0
 17 20  1  0
 18 19  1  0
 18 22  1  0
 18 23  1  0
  9 10  1  0
  9 11  1  0
 10 12  1  0
 11  5  1  6
 33 34  1  0
 33 35  1  0
 34 36  1  0
 35 37  1  0
 36 42  1  1
 20 21  2  0
 21 22  1  0
M  CHG  2   2  -1  26  -1
M  END
>  <COMPND>  (66) 
    8629 

>  <AUTHOR>  (66) 
    GENERATED BY OPEN BABEL 3.1.1

>  <MASTER>  (66) 
        0    0    0    0    0    0    0    0   58    0   58    0

>  <minimizedAffinity>  (66) 
-6.89602

>  <CNNscore>  (66) 
0.6552759409

>  <CNNaffinity>  (66) 
4.5283765793

>  <CNN_VS>  (66) 
2.9673361778

>  <CNNaffinity_variance>  (66) 
0.0775268152

$$$$
67
     RDKit          3D

 43 45  0  0  0  0  0  0  0  0999 V2000
   21.3763   70.9160   -3.0229 P   0  0  2  0  0  0  0  0  0  0  0  0
   20.5833   71.3123   -1.6696 O   0  0  0  0  0  0  0  0  0  0  0  0
   22.3269   71.9606   -3.5295 O   0  0  0  0  0  0  0  0  0  0  0  0
   20.2024   70.4783   -4.0469 O   0  0  0  0  0  0  0  0  0  0  0  0
   19.7844   69.1245   -4.0574 C   0  0  0  0  0  0  0  0  0  0  0  0
   17.7406   70.1536   -3.3242 O   0  0  0  0  0  0  0  0  0  0  0  0
   16.9206   67.4248   -2.3906 O   0  0  0  0  0  0  0  0  0  0  0  0
   15.5676   67.6791   -4.7446 O   0  0  0  0  0  0  0  0  0  0  0  0
   17.6775   67.7948   -3.5420 C   0  0  1  0  0  0  0  0  0  0  0  0
   16.7723   68.4020   -4.5934 C   0  0  2  0  0  0  0  0  0  0  0  0
   18.5615   68.9762   -3.1625 C   0  0  1  0  0  0  0  0  0  0  0  0
   16.5495   69.8019   -4.0469 C   0  0  2  0  0  0  0  0  0  0  0  0
   16.3484   66.6717   -2.6083 H   0  0  0  0  0  0  0  0  0  0  0  0
   15.7622   66.7958   -5.0948 H   0  0  0  0  0  0  0  0  0  0  0  0
   15.4101   72.3545   -3.6417 O   0  0  0  0  0  0  0  0  0  0  0  0
   15.7643   73.4238   -8.1107 O   0  0  0  0  0  0  0  0  0  0  0  0
   16.3327   70.7678   -5.0868 N   0  0  0  0  0  0  0  0  0  0  0  0
   15.5876   72.8849   -5.8672 N   0  0  0  0  0  0  0  0  0  0  0  0
   15.7527   72.0202   -4.7777 C   0  0  0  0  0  0  0  0  0  0  0  0
   16.6940   70.4693   -6.3961 C   0  0  0  0  0  0  0  0  0  0  0  0
   16.5287   71.3044   -7.4239 C   0  0  0  0  0  0  0  0  0  0  0  0
   15.9295   72.6336   -7.1865 C   0  0  0  0  0  0  0  0  0  0  0  0
   15.1851   73.7631   -5.6759 H   0  0  0  0  0  0  0  0  0  0  0  0
   22.0680   69.5063   -2.6392 O   0  0  0  0  0  0  0  0  0  0  0  0
   23.4736   69.1766   -1.9122 P   0  0  2  0  0  0  0  0  0  0  0  0
   24.5703   69.5254   -3.0494 O   0  0  0  0  0  0  0  0  0  0  0  0
   23.5711   67.7820   -1.3649 O   0  0  0  0  0  0  0  0  0  0  0  0
   23.6459   70.3418   -0.8087 O   0  0  0  0  0  0  0  0  0  0  0  0
   24.4578   70.8864    1.3502 O   0  0  0  0  0  0  0  0  0  0  0  0
   20.4064   71.2616    2.0548 O   0  0  0  0  0  0  0  0  0  0  0  0
   22.0438   73.6164    1.9057 O   0  0  0  0  0  0  0  0  0  0  0  0
   21.3839   69.1433    0.3411 O   0  0  0  0  0  0  0  0  0  0  0  0
   21.6085   71.3479    1.2848 C   0  0  1  0  0  0  0  0  0  0  0  0
   22.5709   72.2961    2.0027 C   0  0  1  0  0  0  0  0  0  0  0  0
   22.2212   69.9544    1.1580 C   0  0  2  0  0  0  0  0  0  0  0  0
   23.9740   72.2342    1.3842 C   0  0  1  0  0  0  0  0  0  0  0  0
   23.6354   70.0099    0.5773 C   0  0  1  0  0  0  0  0  0  0  0  0
   20.0121   72.1431    2.1387 H   0  0  0  0  0  0  0  0  0  0  0  0
   21.1575   73.6417    2.2994 H   0  0  0  0  0  0  0  0  0  0  0  0
   20.4917   69.1160    0.7195 H   0  0  0  0  0  0  0  0  0  0  0  0
   24.8555   74.4128    1.8150 O   0  0  0  0  0  0  0  0  0  0  0  0
   24.9874   73.0518    2.1821 C   0  0  0  0  0  0  0  0  0  0  0  0
   25.4941   74.9453    2.3152 H   0  0  0  0  0  0  0  0  0  0  0  0
 25 28  1  0
 25 24  1  0
 25 26  1  6
 25 27  2  0
  1  4  1  0
  1 24  1  0
  1  2  1  1
  1  3  2  0
  6 11  1  0
  6 12  1  0
 29 36  1  0
 29 37  1  0
  9  7  1  1
  7 13  1  0
 10  8  1  1
  8 14  1  0
 37 28  1  6
  4  5  1  0
 33 30  1  1
 30 38  1  0
 34 31  1  6
 31 39  1  0
 35 32  1  6
 32 40  1  0
 41 42  1  0
 41 43  1  0
 15 19  2  0
 16 22  2  0
 12 17  1  6
 17 19  1  0
 17 20  1  0
 18 19  1  0
 18 22  1  0
 18 23  1  0
  9 10  1  0
  9 11  1  0
 10 12  1  0
 11  5  1  6
 33 34  1  0
 33 35  1  0
 34 36  1  0
 35 37  1  0
 36 42  1  1
 20 21  2  0
 21 22  1  0
M  CHG  2   2  -1  26  -1
M  END
>  <COMPND>  (67) 
    8629 

>  <AUTHOR>  (67) 
    GENERATED BY OPEN BABEL 3.1.1

>  <MASTER>  (67) 
        0    0    0    0    0    0    0    0   58    0   58    0

>  <minimizedAffinity>  (67) 
-8.40570

>  <CNNscore>  (67) 
0.5313775539

>  <CNNaffinity>  (67) 
4.3816280365

>  <CNN_VS>  (67) 
2.3282988071

>  <CNNaffinity_variance>  (67) 
0.2787985206

$$$$
68
     RDKit          3D

 43 45  0  0  0  0  0  0  0  0999 V2000
   23.2307   69.1793   -2.2516 P   0  0  2  0  0  0  0  0  0  0  0  0
   24.3459   69.9402   -3.1430 O   0  0  0  0  0  0  0  0  0  0  0  0
   23.4613   67.7079   -2.0688 O   0  0  0  0  0  0  0  0  0  0  0  0
   21.8297   69.5896   -2.9492 O   0  0  0  0  0  0  0  0  0  0  0  0
   21.7885   70.7606   -3.7459 C   0  0  0  0  0  0  0  0  0  0  0  0
   20.0307   72.1332   -4.6403 O   0  0  0  0  0  0  0  0  0  0  0  0
   18.5058   71.4816   -2.1421 O   0  0  0  0  0  0  0  0  0  0  0  0
   17.3873   69.8020   -3.9764 O   0  0  0  0  0  0  0  0  0  0  0  0
   19.3916   70.6583   -2.8990 C   0  0  1  0  0  0  0  0  0  0  0  0
   18.7246   70.2094   -4.1824 C   0  0  2  0  0  0  0  0  0  0  0  0
   20.5213   71.5386   -3.4188 C   0  0  1  0  0  0  0  0  0  0  0  0
   18.8299   71.4557   -5.0449 C   0  0  2  0  0  0  0  0  0  0  0  0
   17.7760   70.9413   -1.7995 H   0  0  0  0  0  0  0  0  0  0  0  0
   17.3733   69.0060   -3.4225 H   0  0  0  0  0  0  0  0  0  0  0  0
   16.6160   70.8236   -6.6812 O   0  0  0  0  0  0  0  0  0  0  0  0
   19.2850   70.2886  -10.4003 O   0  0  0  0  0  0  0  0  0  0  0  0
   18.9174   71.1474   -6.4444 N   0  0  0  0  0  0  0  0  0  0  0  0
   17.9467   70.5579   -8.5317 N   0  0  0  0  0  0  0  0  0  0  0  0
   17.7453   70.8426   -7.1751 C   0  0  0  0  0  0  0  0  0  0  0  0
   20.1551   71.1496   -7.0784 C   0  0  0  0  0  0  0  0  0  0  0  0
   20.3303   70.8747   -8.3726 C   0  0  0  0  0  0  0  0  0  0  0  0
   19.1567   70.5460   -9.2073 C   0  0  0  0  0  0  0  0  0  0  0  0
   17.1445   70.3423   -9.0606 H   0  0  0  0  0  0  0  0  0  0  0  0
   23.2172   70.0337   -0.8794 O   0  0  0  0  0  0  0  0  0  0  0  0
   22.3758   69.8353    0.4864 P   0  0  2  0  0  0  0  0  0  0  0  0
   23.4542   69.1717    1.4935 O   0  0  0  0  0  0  0  0  0  0  0  0
   21.1125   69.0411    0.3211 O   0  0  0  0  0  0  0  0  0  0  0  0
   22.1564   71.3309    1.0520 O   0  0  0  0  0  0  0  0  0  0  0  0
   23.5015   73.2759    0.8952 O   0  0  0  0  0  0  0  0  0  0  0  0
   22.1212   73.7380    4.7594 O   0  0  0  0  0  0  0  0  0  0  0  0
   21.1141   75.4443    2.6804 O   0  0  0  0  0  0  0  0  0  0  0  0
   22.7995   71.1020    3.7740 O   0  0  0  0  0  0  0  0  0  0  0  0
   22.0402   73.3543    3.3840 C   0  0  1  0  0  0  0  0  0  0  0  0
   22.2529   74.6022    2.5247 C   0  0  1  0  0  0  0  0  0  0  0  0
   23.1172   72.3109    3.0927 C   0  0  2  0  0  0  0  0  0  0  0  0
   22.4457   74.2316    1.0480 C   0  0  1  0  0  0  0  0  0  0  0  0
   23.2611   72.0517    1.5919 C   0  0  1  0  0  0  0  0  0  0  0  0
   21.4397   74.4001    4.9511 H   0  0  0  0  0  0  0  0  0  0  0  0
   21.0033   75.6705    3.6173 H   0  0  0  0  0  0  0  0  0  0  0  0
   22.7114   71.2794    4.7230 H   0  0  0  0  0  0  0  0  0  0  0  0
   21.6232   76.1021   -0.1905 O   0  0  0  0  0  0  0  0  0  0  0  0
   22.8156   75.4448    0.1975 C   0  0  0  0  0  0  0  0  0  0  0  0
   21.8433   76.8766   -0.7322 H   0  0  0  0  0  0  0  0  0  0  0  0
 25 28  1  0
 25 24  1  0
 25 26  1  1
 25 27  2  0
  1  4  1  0
  1 24  1  0
  1  2  1  6
  1  3  2  0
  6 11  1  0
  6 12  1  0
 29 36  1  0
 29 37  1  0
  9  7  1  1
  7 13  1  0
 10  8  1  1
  8 14  1  0
 37 28  1  6
  4  5  1  0
 33 30  1  1
 30 38  1  0
 34 31  1  6
 31 39  1  0
 35 32  1  1
 32 40  1  0
 41 42  1  0
 41 43  1  0
 15 19  2  0
 16 22  2  0
 12 17  1  6
 17 19  1  0
 17 20  1  0
 18 19  1  0
 18 22  1  0
 18 23  1  0
  9 10  1  0
  9 11  1  0
 10 12  1  0
 11  5  1  6
 33 34  1  0
 33 35  1  0
 34 36  1  0
 35 37  1  0
 36 42  1  6
 20 21  2  0
 21 22  1  0
M  CHG  2   2  -1  26  -1
M  END
>  <COMPND>  (68) 
    8629 

>  <AUTHOR>  (68) 
    GENERATED BY OPEN BABEL 3.1.1

>  <MASTER>  (68) 
        0    0    0    0    0    0    0    0   58    0   58    0

>  <minimizedAffinity>  (68) 
-7.83871

>  <CNNscore>  (68) 
0.4820799232

>  <CNNaffinity>  (68) 
4.4369611740

>  <CNN_VS>  (68) 
2.1389698982

>  <CNNaffinity_variance>  (68) 
0.0390391238

$$$$
69
     RDKit          3D

 43 45  0  0  0  0  0  0  0  0999 V2000
   22.2292   74.3136   -5.6778 P   0  0  2  0  0  0  0  0  0  0  0  0
   23.0646   75.3929   -6.5465 O   0  0  0  0  0  0  0  0  0  0  0  0
   22.6020   72.8805   -5.9197 O   0  0  0  0  0  0  0  0  0  0  0  0
   20.6837   74.6959   -5.9659 O   0  0  0  0  0  0  0  0  0  0  0  0
   19.6897   73.7127   -5.7351 C   0  0  0  0  0  0  0  0  0  0  0  0
   19.3276   71.6082   -6.8367 O   0  0  0  0  0  0  0  0  0  0  0  0
   17.9489   73.1824   -8.9842 O   0  0  0  0  0  0  0  0  0  0  0  0
   15.8590   72.1739   -7.5519 O   0  0  0  0  0  0  0  0  0  0  0  0
   17.9599   73.3975   -7.5740 C   0  0  1  0  0  0  0  0  0  0  0  0
   17.0854   72.3746   -6.8793 C   0  0  2  0  0  0  0  0  0  0  0  0
   19.3460   73.0359   -7.0549 C   0  0  1  0  0  0  0  0  0  0  0  0
   17.9704   71.1398   -6.8963 C   0  0  2  0  0  0  0  0  0  0  0  0
   17.0737   73.4069   -9.3386 H   0  0  0  0  0  0  0  0  0  0  0  0
   15.3320   72.9872   -7.5132 H   0  0  0  0  0  0  0  0  0  0  0  0
   15.6438   69.5722   -6.5689 O   0  0  0  0  0  0  0  0  0  0  0  0
   17.1398   67.8609   -2.5595 O   0  0  0  0  0  0  0  0  0  0  0  0
   17.7259   70.2752   -5.7766 N   0  0  0  0  0  0  0  0  0  0  0  0
   16.3907   68.7213   -4.5729 N   0  0  0  0  0  0  0  0  0  0  0  0
   16.5247   69.5316   -5.7075 C   0  0  0  0  0  0  0  0  0  0  0  0
   18.6715   70.1707   -4.7623 C   0  0  0  0  0  0  0  0  0  0  0  0
   18.5279   69.3943   -3.6862 C   0  0  0  0  0  0  0  0  0  0  0  0
   17.3015   68.5845   -3.5373 C   0  0  0  0  0  0  0  0  0  0  0  0
   15.5617   68.1943   -4.5031 H   0  0  0  0  0  0  0  0  0  0  0  0
   22.4516   74.8194   -4.1587 O   0  0  0  0  0  0  0  0  0  0  0  0
   23.7483   74.7505   -3.1960 P   0  0  2  0  0  0  0  0  0  0  0  0
   23.5695   76.0433   -2.2397 O   0  0  0  0  0  0  0  0  0  0  0  0
   25.0572   74.6991   -3.9295 O   0  0  0  0  0  0  0  0  0  0  0  0
   23.4729   73.4875   -2.2296 O   0  0  0  0  0  0  0  0  0  0  0  0
   21.5152   72.4111   -1.4388 O   0  0  0  0  0  0  0  0  0  0  0  0
   23.7013   72.4612    2.0639 O   0  0  0  0  0  0  0  0  0  0  0  0
   23.3275   69.9832    0.6611 O   0  0  0  0  0  0  0  0  0  0  0  0
   23.8027   74.7277    0.2660 O   0  0  0  0  0  0  0  0  0  0  0  0
   23.5080   72.3682    0.6499 C   0  0  1  0  0  0  0  0  0  0  0  0
   22.5976   71.1713    0.3681 C   0  0  1  0  0  0  0  0  0  0  0  0
   22.8676   73.6609    0.1476 C   0  0  2  0  0  0  0  0  0  0  0  0
   22.1288   71.1638   -1.0932 C   0  0  1  0  0  0  0  0  0  0  0  0
   22.3928   73.5303   -1.3007 C   0  0  1  0  0  0  0  0  0  0  0  0
   24.1081   71.6437    2.3892 H   0  0  0  0  0  0  0  0  0  0  0  0
   23.6181   70.0008    1.5866 H   0  0  0  0  0  0  0  0  0  0  0  0
   24.0953   74.8002    1.1874 H   0  0  0  0  0  0  0  0  0  0  0  0
   20.8146   69.4137   -0.1345 O   0  0  0  0  0  0  0  0  0  0  0  0
   21.0960   70.0703   -1.3569 C   0  0  0  0  0  0  0  0  0  0  0  0
   20.1584   68.7153   -0.2870 H   0  0  0  0  0  0  0  0  0  0  0  0
 25 28  1  0
 25 24  1  0
 25 26  1  1
 25 27  2  0
  1  4  1  0
  1 24  1  0
  1  2  1  6
  1  3  2  0
  6 11  1  0
  6 12  1  0
 29 36  1  0
 29 37  1  0
  9  7  1  6
  7 13  1  0
 10  8  1  6
  8 14  1  0
 37 28  1  6
  4  5  1  0
 33 30  1  1
 30 38  1  0
 34 31  1  6
 31 39  1  0
 35 32  1  6
 32 40  1  0
 41 42  1  0
 41 43  1  0
 15 19  2  0
 16 22  2  0
 12 17  1  1
 17 19  1  0
 17 20  1  0
 18 19  1  0
 18 22  1  0
 18 23  1  0
  9 10  1  0
  9 11  1  0
 10 12  1  0
 11  5  1  1
 33 34  1  0
 33 35  1  0
 34 36  1  0
 35 37  1  0
 36 42  1  1
 20 21  2  0
 21 22  1  0
M  CHG  2   2  -1  26  -1
M  END
>  <COMPND>  (69) 
    8629 

>  <AUTHOR>  (69) 
    GENERATED BY OPEN BABEL 3.1.1

>  <MASTER>  (69) 
        0    0    0    0    0    0    0    0   58    0   58    0

>  <minimizedAffinity>  (69) 
-7.14738

>  <CNNscore>  (69) 
0.4292690754

>  <CNNaffinity>  (69) 
4.0951509476

>  <CNN_VS>  (69) 
1.7579216957

>  <CNNaffinity_variance>  (69) 
0.4974950850

$$$$
70
     RDKit          3D

 43 45  0  0  0  0  0  0  0  0999 V2000
   20.5208   74.6602   -3.4136 P   0  0  2  0  0  0  0  0  0  0  0  0
   19.5685   73.5190   -2.7746 O   0  0  0  0  0  0  0  0  0  0  0  0
   20.3169   76.0394   -2.8589 O   0  0  0  0  0  0  0  0  0  0  0  0
   20.2974   74.5042   -5.0085 O   0  0  0  0  0  0  0  0  0  0  0  0
   18.9735   74.3736   -5.4962 C   0  0  0  0  0  0  0  0  0  0  0  0
   19.2360   72.2171   -6.5230 O   0  0  0  0  0  0  0  0  0  0  0  0
   17.9561   73.4249   -8.9507 O   0  0  0  0  0  0  0  0  0  0  0  0
   15.8987   72.0344   -7.8237 O   0  0  0  0  0  0  0  0  0  0  0  0
   17.6825   73.6671   -7.5717 C   0  0  1  0  0  0  0  0  0  0  0  0
   16.9263   72.4996   -6.9727 C   0  0  2  0  0  0  0  0  0  0  0  0
   19.0036   73.6125   -6.8146 C   0  0  1  0  0  0  0  0  0  0  0  0
   18.0315   71.4757   -6.7766 C   0  0  2  0  0  0  0  0  0  0  0  0
   17.1273   73.4551   -9.4548 H   0  0  0  0  0  0  0  0  0  0  0  0
   15.2201   72.7211   -7.9168 H   0  0  0  0  0  0  0  0  0  0  0  0
   15.9775   69.5382   -6.7045 O   0  0  0  0  0  0  0  0  0  0  0  0
   17.1533   68.1839   -2.4589 O   0  0  0  0  0  0  0  0  0  0  0  0
   17.7784   70.6028   -5.6651 N   0  0  0  0  0  0  0  0  0  0  0  0
   16.5647   68.8653   -4.5906 N   0  0  0  0  0  0  0  0  0  0  0  0
   16.7212   69.6655   -5.7296 C   0  0  0  0  0  0  0  0  0  0  0  0
   18.5742   70.6811   -4.5273 C   0  0  0  0  0  0  0  0  0  0  0  0
   18.4111   69.9117   -3.4491 C   0  0  0  0  0  0  0  0  0  0  0  0
   17.3290   68.9063   -3.4352 C   0  0  0  0  0  0  0  0  0  0  0  0
   15.8342   68.2053   -4.6127 H   0  0  0  0  0  0  0  0  0  0  0  0
   22.0054   74.0594   -3.1942 O   0  0  0  0  0  0  0  0  0  0  0  0
   22.6771   72.6786   -3.6992 P   0  0  2  0  0  0  0  0  0  0  0  0
   24.2018   73.1070   -4.0299 O   0  0  0  0  0  0  0  0  0  0  0  0
   21.9556   72.0253   -4.8422 O   0  0  0  0  0  0  0  0  0  0  0  0
   22.7884   71.7687   -2.3708 O   0  0  0  0  0  0  0  0  0  0  0  0
   22.2274   69.4742   -2.1774 O   0  0  0  0  0  0  0  0  0  0  0  0
   21.3343   70.6979    1.6639 O   0  0  0  0  0  0  0  0  0  0  0  0
   23.6671   69.0900    1.1943 O   0  0  0  0  0  0  0  0  0  0  0  0
   20.7311   72.4258   -0.5789 O   0  0  0  0  0  0  0  0  0  0  0  0
   22.0644   70.6945    0.4342 C   0  0  1  0  0  0  0  0  0  0  0  0
   22.6436   69.2940    0.2243 C   0  0  1  0  0  0  0  0  0  0  0  0
   21.1195   71.0624   -0.7083 C   0  0  2  0  0  0  0  0  0  0  0  0
   23.2112   69.1360   -1.1928 C   0  0  1  0  0  0  0  0  0  0  0  0
   21.7648   70.8223   -2.0744 C   0  0  1  0  0  0  0  0  0  0  0  0
   21.9285   70.4656    2.3935 H   0  0  0  0  0  0  0  0  0  0  0  0
   23.2956   69.1930    2.0846 H   0  0  0  0  0  0  0  0  0  0  0  0
   20.3238   72.5647    0.2898 H   0  0  0  0  0  0  0  0  0  0  0  0
   23.1821   66.8724   -0.4283 O   0  0  0  0  0  0  0  0  0  0  0  0
   23.6508   67.7012   -1.4760 C   0  0  0  0  0  0  0  0  0  0  0  0
   23.4543   65.9561   -0.5953 H   0  0  0  0  0  0  0  0  0  0  0  0
 25 28  1  0
 25 24  1  0
 25 26  1  6
 25 27  2  0
  1  4  1  0
  1 24  1  0
  1  2  1  1
  1  3  2  0
  6 11  1  0
  6 12  1  0
 29 36  1  0
 29 37  1  0
  9  7  1  6
  7 13  1  0
 10  8  1  6
  8 14  1  0
 37 28  1  1
  4  5  1  0
 33 30  1  1
 30 38  1  0
 34 31  1  1
 31 39  1  0
 35 32  1  1
 32 40  1  0
 41 42  1  0
 41 43  1  0
 15 19  2  0
 16 22  2  0
 12 17  1  1
 17 19  1  0
 17 20  1  0
 18 19  1  0
 18 22  1  0
 18 23  1  0
  9 10  1  0
  9 11  1  0
 10 12  1  0
 11  5  1  1
 33 34  1  0
 33 35  1  0
 34 36  1  0
 35 37  1  0
 36 42  1  6
 20 21  2  0
 21 22  1  0
M  CHG  2   2  -1  26  -1
M  END
>  <COMPND>  (70) 
    8629 

>  <AUTHOR>  (70) 
    GENERATED BY OPEN BABEL 3.1.1

>  <MASTER>  (70) 
        0    0    0    0    0    0    0    0   58    0   58    0

>  <minimizedAffinity>  (70) 
-7.79884

>  <CNNscore>  (70) 
0.4224961698

>  <CNNaffinity>  (70) 
4.0375585556

>  <CNN_VS>  (70) 
1.7058529854

>  <CNNaffinity_variance>  (70) 
0.7612934113

$$$$
71
     RDKit          3D

 43 45  0  0  0  0  0  0  0  0999 V2000
   22.2009   73.4671   -5.8759 P   0  0  2  0  0  0  0  0  0  0  0  0
   22.7399   72.8890   -7.2874 O   0  0  0  0  0  0  0  0  0  0  0  0
   22.2963   74.9568   -5.7232 O   0  0  0  0  0  0  0  0  0  0  0  0
   22.9968   72.5951   -4.7696 O   0  0  0  0  0  0  0  0  0  0  0  0
   23.2957   73.1964   -3.5218 C   0  0  0  0  0  0  0  0  0  0  0  0
   21.6736   71.7041   -2.5650 O   0  0  0  0  0  0  0  0  0  0  0  0
   21.1241   73.8781   -0.5743 O   0  0  0  0  0  0  0  0  0  0  0  0
   22.7206   72.1730    0.8331 O   0  0  0  0  0  0  0  0  0  0  0  0
   22.3606   73.4960   -1.1747 C   0  0  1  0  0  0  0  0  0  0  0  0
   22.8586   72.1986   -0.5730 C   0  0  2  0  0  0  0  0  0  0  0  0
   22.0769   73.0902   -2.6156 C   0  0  1  0  0  0  0  0  0  0  0  0
   21.9787   71.1718   -1.2655 C   0  0  2  0  0  0  0  0  0  0  0  0
   21.2800   74.1418    0.3467 H   0  0  0  0  0  0  0  0  0  0  0  0
   23.3001   72.8436    1.2272 H   0  0  0  0  0  0  0  0  0  0  0  0
   21.3210   68.8418    0.1892 O   0  0  0  0  0  0  0  0  0  0  0  0
   24.5666   66.3677   -1.9522 O   0  0  0  0  0  0  0  0  0  0  0  0
   22.6354   69.9048   -1.4231 N   0  0  0  0  0  0  0  0  0  0  0  0
   22.9375   67.6117   -0.8784 N   0  0  0  0  0  0  0  0  0  0  0  0
   22.2295   68.7971   -0.6429 C   0  0  0  0  0  0  0  0  0  0  0  0
   23.6693   69.7699   -2.3432 C   0  0  0  0  0  0  0  0  0  0  0  0
   24.3353   68.6328   -2.5549 C   0  0  0  0  0  0  0  0  0  0  0  0
   23.9732   67.4280   -1.7807 C   0  0  0  0  0  0  0  0  0  0  0  0
   22.6723   66.8268   -0.3460 H   0  0  0  0  0  0  0  0  0  0  0  0
   20.6984   72.8771   -5.7914 O   0  0  0  0  0  0  0  0  0  0  0  0
   19.2657   73.6241   -5.7427 P   0  0  2  0  0  0  0  0  0  0  0  0
   19.0428   74.0991   -7.2732 O   0  0  0  0  0  0  0  0  0  0  0  0
   19.1831   74.7315   -4.7324 O   0  0  0  0  0  0  0  0  0  0  0  0
   18.1936   72.4376   -5.5239 O   0  0  0  0  0  0  0  0  0  0  0  0
   19.2138   70.3006   -5.4303 O   0  0  0  0  0  0  0  0  0  0  0  0
   15.2614   69.1340   -5.6928 O   0  0  0  0  0  0  0  0  0  0  0  0
   16.6640   68.8411   -3.2038 O   0  0  0  0  0  0  0  0  0  0  0  0
   16.1977   71.4143   -7.2104 O   0  0  0  0  0  0  0  0  0  0  0  0
   16.3490   69.9702   -5.2887 C   0  0  1  0  0  0  0  0  0  0  0  0
   17.3084   69.1328   -4.4407 C   0  0  1  0  0  0  0  0  0  0  0  0
   17.0571   70.5041   -6.5325 C   0  0  2  0  0  0  0  0  0  0  0  0
   18.6258   69.8800   -4.1937 C   0  0  1  0  0  0  0  0  0  0  0  0
   18.3801   71.1863   -6.1802 C   0  0  1  0  0  0  0  0  0  0  0  0
   14.8073   68.7921   -4.9077 H   0  0  0  0  0  0  0  0  0  0  0  0
   15.8333   68.3697   -3.3739 H   0  0  0  0  0  0  0  0  0  0  0  0
   15.3639   70.9703   -7.4282 H   0  0  0  0  0  0  0  0  0  0  0  0
   19.2758   68.8704   -2.1280 O   0  0  0  0  0  0  0  0  0  0  0  0
   19.6563   69.0036   -3.4851 C   0  0  0  0  0  0  0  0  0  0  0  0
   19.9225   68.3147   -1.6645 H   0  0  0  0  0  0  0  0  0  0  0  0
 25 28  1  0
 25 24  1  0
 25 26  1  6
 25 27  2  0
  1  4  1  0
  1 24  1  0
  1  2  1  6
  1  3  2  0
  6 11  1  0
  6 12  1  0
 29 36  1  0
 29 37  1  0
  9  7  1  1
  7 13  1  0
 10  8  1  1
  8 14  1  0
 37 28  1  1
  4  5  1  0
 33 30  1  6
 30 38  1  0
 34 31  1  1
 31 39  1  0
 35 32  1  1
 32 40  1  0
 41 42  1  0
 41 43  1  0
 15 19  2  0
 16 22  2  0
 12 17  1  6
 17 19  1  0
 17 20  1  0
 18 19  1  0
 18 22  1  0
 18 23  1  0
  9 10  1  0
  9 11  1  0
 10 12  1  0
 11  5  1  6
 33 34  1  0
 33 35  1  0
 34 36  1  0
 35 37  1  0
 36 42  1  6
 20 21  2  0
 21 22  1  0
M  CHG  2   2  -1  26  -1
M  END
>  <COMPND>  (71) 
    8629 

>  <AUTHOR>  (71) 
    GENERATED BY OPEN BABEL 3.1.1

>  <MASTER>  (71) 
        0    0    0    0    0    0    0    0   58    0   58    0

>  <minimizedAffinity>  (71) 
-8.29824

>  <CNNscore>  (71) 
0.3859630823

>  <CNNaffinity>  (71) 
4.0580492020

>  <CNN_VS>  (71) 
1.5662571192

>  <CNNaffinity_variance>  (71) 
1.0184857845

$$$$
72
     RDKit          3D

 43 45  0  0  0  0  0  0  0  0999 V2000
   22.1021   73.2978   -4.2686 P   0  0  2  0  0  0  0  0  0  0  0  0
   21.4781   74.7798   -4.4469 O   0  0  0  0  0  0  0  0  0  0  0  0
   23.6006   73.2322   -4.3078 O   0  0  0  0  0  0  0  0  0  0  0  0
   21.3307   72.4149   -5.3836 O   0  0  0  0  0  0  0  0  0  0  0  0
   20.5091   73.0828   -6.3252 C   0  0  0  0  0  0  0  0  0  0  0  0
   19.2773   71.0334   -6.5634 O   0  0  0  0  0  0  0  0  0  0  0  0
   18.8773   71.8254   -9.4276 O   0  0  0  0  0  0  0  0  0  0  0  0
   16.4913   72.4920   -8.2878 O   0  0  0  0  0  0  0  0  0  0  0  0
   18.9176   72.6466   -8.2617 C   0  0  1  0  0  0  0  0  0  0  0  0
   17.6396   72.4905   -7.4642 C   0  0  2  0  0  0  0  0  0  0  0  0
   19.9576   72.0638   -7.3130 C   0  0  1  0  0  0  0  0  0  0  0  0
   17.8610   71.1562   -6.7723 C   0  0  2  0  0  0  0  0  0  0  0  0
   18.2202   72.1781  -10.0487 H   0  0  0  0  0  0  0  0  0  0  0  0
   16.3939   73.3620   -8.7054 H   0  0  0  0  0  0  0  0  0  0  0  0
   15.9969   69.1550   -6.0663 O   0  0  0  0  0  0  0  0  0  0  0  0
   15.3643   70.9653   -1.8754 O   0  0  0  0  0  0  0  0  0  0  0  0
   17.1941   71.0802   -5.5030 N   0  0  0  0  0  0  0  0  0  0  0  0
   15.6836   70.0579   -3.9801 N   0  0  0  0  0  0  0  0  0  0  0  0
   16.2749   70.0355   -5.2496 C   0  0  0  0  0  0  0  0  0  0  0  0
   17.4542   72.0343   -4.5254 C   0  0  0  0  0  0  0  0  0  0  0  0
   16.8810   72.0423   -3.3202 C   0  0  0  0  0  0  0  0  0  0  0  0
   15.9084   70.9853   -2.9751 C   0  0  0  0  0  0  0  0  0  0  0  0
   15.0395   69.3400   -3.7812 H   0  0  0  0  0  0  0  0  0  0  0  0
   21.4425   72.7900   -2.8830 O   0  0  0  0  0  0  0  0  0  0  0  0
   21.2383   73.5414   -1.4664 P   0  0  2  0  0  0  0  0  0  0  0  0
   19.6296   73.5910   -1.3013 O   0  0  0  0  0  0  0  0  0  0  0  0
   21.9116   74.8803   -1.3774 O   0  0  0  0  0  0  0  0  0  0  0  0
   21.7286   72.4714   -0.3620 O   0  0  0  0  0  0  0  0  0  0  0  0
   23.6560   72.9861    0.9174 O   0  0  0  0  0  0  0  0  0  0  0  0
   23.5267   68.9049    1.5320 O   0  0  0  0  0  0  0  0  0  0  0  0
   22.8188   70.6842    3.6723 O   0  0  0  0  0  0  0  0  0  0  0  0
   22.8510   69.9966   -1.0625 O   0  0  0  0  0  0  0  0  0  0  0  0
   22.9781   70.2106    1.3332 C   0  0  1  0  0  0  0  0  0  0  0  0
   23.4586   71.1113    2.4729 C   0  0  1  0  0  0  0  0  0  0  0  0
   23.4512   70.7509   -0.0150 C   0  0  2  0  0  0  0  0  0  0  0  0
   23.1341   72.5842    2.1894 C   0  0  1  0  0  0  0  0  0  0  0  0
   23.1218   72.2361   -0.1753 C   0  0  1  0  0  0  0  0  0  0  0  0
   23.2298   68.5559    2.3861 H   0  0  0  0  0  0  0  0  0  0  0  0
   23.0314   69.7526    3.8395 H   0  0  0  0  0  0  0  0  0  0  0  0
   23.0671   69.0582   -0.9499 H   0  0  0  0  0  0  0  0  0  0  0  0
   23.2570   73.1372    4.5106 O   0  0  0  0  0  0  0  0  0  0  0  0
   23.7425   73.5155    3.2356 C   0  0  0  0  0  0  0  0  0  0  0  0
   23.6361   73.7212    5.1866 H   0  0  0  0  0  0  0  0  0  0  0  0
 25 28  1  0
 25 24  1  0
 25 26  1  1
 25 27  2  0
  1  4  1  0
  1 24  1  0
  1  2  1  6
  1  3  2  0
  6 11  1  0
  6 12  1  0
 29 36  1  0
 29 37  1  0
  9  7  1  6
  7 13  1  0
 10  8  1  6
  8 14  1  0
 37 28  1  1
  4  5  1  0
 33 30  1  1
 30 38  1  0
 34 31  1  1
 31 39  1  0
 35 32  1  6
 32 40  1  0
 41 42  1  0
 41 43  1  0
 15 19  2  0
 16 22  2  0
 12 17  1  1
 17 19  1  0
 17 20  1  0
 18 19  1  0
 18 22  1  0
 18 23  1  0
  9 10  1  0
  9 11  1  0
 10 12  1  0
 11  5  1  1
 33 34  1  0
 33 35  1  0
 34 36  1  0
 35 37  1  0
 36 42  1  1
 20 21  2  0
 21 22  1  0
M  CHG  2   2  -1  26  -1
M  END
>  <COMPND>  (72) 
    8629 

>  <AUTHOR>  (72) 
    GENERATED BY OPEN BABEL 3.1.1

>  <MASTER>  (72) 
        0    0    0    0    0    0    0    0   58    0   58    0

>  <minimizedAffinity>  (72) 
-7.41499

>  <CNNscore>  (72) 
0.3584315181

>  <CNNaffinity>  (72) 
4.0228829384

>  <CNN_VS>  (72) 
1.4419280291

>  <CNNaffinity_variance>  (72) 
0.2233305275

$$$$
73
     RDKit          3D

 43 45  0  0  0  0  0  0  0  0999 V2000
   21.7645   71.7723    0.7109 P   0  0  2  0  0  0  0  0  0  0  0  0
   20.8545   70.4385    0.8119 O   0  0  0  0  0  0  0  0  0  0  0  0
   21.8638   72.5693    1.9783 O   0  0  0  0  0  0  0  0  0  0  0  0
   21.1609   72.5585   -0.5680 O   0  0  0  0  0  0  0  0  0  0  0  0
   20.4156   71.8238   -1.5233 C   0  0  0  0  0  0  0  0  0  0  0  0
   20.7404   70.6495   -3.5944 O   0  0  0  0  0  0  0  0  0  0  0  0
   22.0195   73.1664   -4.6044 O   0  0  0  0  0  0  0  0  0  0  0  0
   19.5228   73.2898   -5.6942 O   0  0  0  0  0  0  0  0  0  0  0  0
   20.9121   73.0098   -3.7187 C   0  0  1  0  0  0  0  0  0  0  0  0
   19.6821   72.5731   -4.4868 C   0  0  2  0  0  0  0  0  0  0  0  0
   21.1840   71.7970   -2.8375 C   0  0  1  0  0  0  0  0  0  0  0  0
   19.9609   71.0973   -4.7154 C   0  0  2  0  0  0  0  0  0  0  0  0
   21.8690   73.9352   -5.1773 H   0  0  0  0  0  0  0  0  0  0  0  0
   19.3475   74.2229   -5.4958 H   0  0  0  0  0  0  0  0  0  0  0  0
   18.1763   71.1161   -6.9047 O   0  0  0  0  0  0  0  0  0  0  0  0
   15.3748   68.0659   -4.8826 O   0  0  0  0  0  0  0  0  0  0  0  0
   18.7575   70.3174   -4.7877 N   0  0  0  0  0  0  0  0  0  0  0  0
   16.7829   69.5972   -5.8961 N   0  0  0  0  0  0  0  0  0  0  0  0
   17.9300   70.4002   -5.9318 C   0  0  0  0  0  0  0  0  0  0  0  0
   18.4087   69.4819   -3.7322 C   0  0  0  0  0  0  0  0  0  0  0  0
   17.3107   68.7235   -3.7132 C   0  0  0  0  0  0  0  0  0  0  0  0
   16.3924   68.7515   -4.8699 C   0  0  0  0  0  0  0  0  0  0  0  0
   16.1912   69.6388   -6.6822 H   0  0  0  0  0  0  0  0  0  0  0  0
   23.1752   71.2088    0.1582 O   0  0  0  0  0  0  0  0  0  0  0  0
   24.2910   70.2712    0.8574 P   0  0  2  0  0  0  0  0  0  0  0  0
   23.4145   69.2930    1.8021 O   0  0  0  0  0  0  0  0  0  0  0  0
   25.3667   71.0293    1.5800 O   0  0  0  0  0  0  0  0  0  0  0  0
   24.8266   69.3186   -0.3303 O   0  0  0  0  0  0  0  0  0  0  0  0
   25.1544   69.2260   -2.6756 O   0  0  0  0  0  0  0  0  0  0  0  0
   22.5337   66.0635   -2.2503 O   0  0  0  0  0  0  0  0  0  0  0  0
   25.3006   65.5454   -2.8195 O   0  0  0  0  0  0  0  0  0  0  0  0
   22.1764   68.4582   -0.6638 O   0  0  0  0  0  0  0  0  0  0  0  0
   23.6022   66.9314   -1.8626 C   0  0  1  0  0  0  0  0  0  0  0  0
   24.7049   66.8360   -2.9189 C   0  0  1  0  0  0  0  0  0  0  0  0
   23.0735   68.3612   -1.7648 C   0  0  2  0  0  0  0  0  0  0  0  0
   25.7622   67.9296   -2.7163 C   0  0  1  0  0  0  0  0  0  0  0  0
   24.2097   69.3744   -1.6139 C   0  0  1  0  0  0  0  0  0  0  0  0
   22.8626   65.1539   -2.3138 H   0  0  0  0  0  0  0  0  0  0  0  0
   24.6222   64.8640   -2.9488 H   0  0  0  0  0  0  0  0  0  0  0  0
   21.4617   67.8121   -0.7713 H   0  0  0  0  0  0  0  0  0  0  0  0
   26.4335   66.9579   -4.7933 O   0  0  0  0  0  0  0  0  0  0  0  0
   26.7860   67.9523   -3.8492 C   0  0  0  0  0  0  0  0  0  0  0  0
   27.0763   66.9609   -5.5204 H   0  0  0  0  0  0  0  0  0  0  0  0
 25 28  1  0
 25 24  1  0
 25 26  1  1
 25 27  2  0
  1  4  1  0
  1 24  1  0
  1  2  1  1
  1  3  2  0
  6 11  1  0
  6 12  1  0
 29 36  1  0
 29 37  1  0
  9  7  1  6
  7 13  1  0
 10  8  1  6
  8 14  1  0
 37 28  1  1
  4  5  1  0
 33 30  1  6
 30 38  1  0
 34 31  1  1
 31 39  1  0
 35 32  1  1
 32 40  1  0
 41 42  1  0
 41 43  1  0
 15 19  2  0
 16 22  2  0
 12 17  1  1
 17 19  1  0
 17 20  1  0
 18 19  1  0
 18 22  1  0
 18 23  1  0
  9 10  1  0
  9 11  1  0
 10 12  1  0
 11  5  1  1
 33 34  1  0
 33 35  1  0
 34 36  1  0
 35 37  1  0
 36 42  1  6
 20 21  2  0
 21 22  1  0
M  CHG  2   2  -1  26  -1
M  END
>  <COMPND>  (73) 
    8629 

>  <AUTHOR>  (73) 
    GENERATED BY OPEN BABEL 3.1.1

>  <MASTER>  (73) 
        0    0    0    0    0    0    0    0   58    0   58    0

>  <minimizedAffinity>  (73) 
-6.81033

>  <CNNscore>  (73) 
0.3391737938

>  <CNNaffinity>  (73) 
4.2814712524

>  <CNN_VS>  (73) 
1.4521628618

>  <CNNaffinity_variance>  (73) 
0.2979562283

$$$$
74
     RDKit          3D

 43 45  0  0  0  0  0  0  0  0999 V2000
   22.0796   73.1883   -3.7121 P   0  0  2  0  0  0  0  0  0  0  0  0
   23.0824   72.5524   -4.8110 O   0  0  0  0  0  0  0  0  0  0  0  0
   22.5379   74.4844   -3.1109 O   0  0  0  0  0  0  0  0  0  0  0  0
   21.8306   71.9783   -2.6673 O   0  0  0  0  0  0  0  0  0  0  0  0
   22.3647   72.0932   -1.3599 C   0  0  0  0  0  0  0  0  0  0  0  0
   21.7989   69.7732   -1.0928 O   0  0  0  0  0  0  0  0  0  0  0  0
   21.4127   70.3953    1.8149 O   0  0  0  0  0  0  0  0  0  0  0  0
   23.8775   69.2291    1.7789 O   0  0  0  0  0  0  0  0  0  0  0  0
   22.3710   70.9226    0.8991 C   0  0  1  0  0  0  0  0  0  0  0  0
   23.4434   69.8932    0.6095 C   0  0  2  0  0  0  0  0  0  0  0  0
   21.6935   71.0664   -0.4580 C   0  0  1  0  0  0  0  0  0  0  0  0
   22.7346   68.9642   -0.3614 C   0  0  2  0  0  0  0  0  0  0  0  0
   21.8222   70.2948    2.6891 H   0  0  0  0  0  0  0  0  0  0  0  0
   24.3220   69.8620    2.3642 H   0  0  0  0  0  0  0  0  0  0  0  0
   23.1951   66.1824   -0.5274 O   0  0  0  0  0  0  0  0  0  0  0  0
   26.2328   66.7046   -3.9539 O   0  0  0  0  0  0  0  0  0  0  0  0
   23.6403   68.3458   -1.2880 N   0  0  0  0  0  0  0  0  0  0  0  0
   24.7071   66.4447   -2.2335 N   0  0  0  0  0  0  0  0  0  0  0  0
   23.7994   66.9404   -1.2889 C   0  0  0  0  0  0  0  0  0  0  0  0
   24.3591   69.1308   -2.1831 C   0  0  0  0  0  0  0  0  0  0  0  0
   25.2218   68.6427   -3.0768 C   0  0  0  0  0  0  0  0  0  0  0  0
   25.4461   67.1841   -3.1433 C   0  0  0  0  0  0  0  0  0  0  0  0
   24.8345   65.4684   -2.2522 H   0  0  0  0  0  0  0  0  0  0  0  0
   20.6756   73.2753   -4.5085 O   0  0  0  0  0  0  0  0  0  0  0  0
   19.1839   73.6273   -3.9949 P   0  0  2  0  0  0  0  0  0  0  0  0
   18.6244   74.6270   -5.1373 O   0  0  0  0  0  0  0  0  0  0  0  0
   19.1282   74.1853   -2.6023 O   0  0  0  0  0  0  0  0  0  0  0  0
   18.3478   72.2624   -4.2025 O   0  0  0  0  0  0  0  0  0  0  0  0
   19.0228   70.0105   -4.5024 O   0  0  0  0  0  0  0  0  0  0  0  0
   15.8838   70.1208   -7.1828 O   0  0  0  0  0  0  0  0  0  0  0  0
   15.5889   68.6866   -4.7122 O   0  0  0  0  0  0  0  0  0  0  0  0
   17.6323   72.4118   -6.9119 O   0  0  0  0  0  0  0  0  0  0  0  0
   16.5827   70.4543   -5.9805 C   0  0  1  0  0  0  0  0  0  0  0  0
   16.8396   69.1629   -5.2012 C   0  0  1  0  0  0  0  0  0  0  0  0
   17.9013   71.1353   -6.3421 C   0  0  2  0  0  0  0  0  0  0  0  0
   17.8122   69.4017   -4.0384 C   0  0  1  0  0  0  0  0  0  0  0  0
   18.8149   71.2804   -5.1237 C   0  0  1  0  0  0  0  0  0  0  0  0
   15.0453   69.6885   -6.9602 H   0  0  0  0  0  0  0  0  0  0  0  0
   14.9839   68.5403   -5.4563 H   0  0  0  0  0  0  0  0  0  0  0  0
   17.0534   72.3064   -7.6824 H   0  0  0  0  0  0  0  0  0  0  0  0
   17.0653   67.5793   -2.6856 O   0  0  0  0  0  0  0  0  0  0  0  0
   18.2052   68.0991   -3.3449 C   0  0  0  0  0  0  0  0  0  0  0  0
   17.3005   66.7499   -2.2400 H   0  0  0  0  0  0  0  0  0  0  0  0
 25 28  1  0
 25 24  1  0
 25 26  1  6
 25 27  2  0
  1  4  1  0
  1 24  1  0
  1  2  1  6
  1  3  2  0
  6 11  1  0
  6 12  1  0
 29 36  1  0
 29 37  1  0
  9  7  1  1
  7 13  1  0
 10  8  1  1
  8 14  1  0
 37 28  1  1
  4  5  1  0
 33 30  1  6
 30 38  1  0
 34 31  1  1
 31 39  1  0
 35 32  1  1
 32 40  1  0
 41 42  1  0
 41 43  1  0
 15 19  2  0
 16 22  2  0
 12 17  1  6
 17 19  1  0
 17 20  1  0
 18 19  1  0
 18 22  1  0
 18 23  1  0
  9 10  1  0
  9 11  1  0
 10 12  1  0
 11  5  1  6
 33 34  1  0
 33 35  1  0
 34 36  1  0
 35 37  1  0
 36 42  1  6
 20 21  2  0
 21 22  1  0
M  CHG  2   2  -1  26  -1
M  END
>  <COMPND>  (74) 
    8629 

>  <AUTHOR>  (74) 
    GENERATED BY OPEN BABEL 3.1.1

>  <MASTER>  (74) 
        0    0    0    0    0    0    0    0   58    0   58    0

>  <minimizedAffinity>  (74) 
-8.37481

>  <CNNscore>  (74) 
0.3335580826

>  <CNNaffinity>  (74) 
4.0990295410

>  <CNN_VS>  (74) 
1.3672643900

>  <CNNaffinity_variance>  (74) 
1.1027700901

$$$$
75
     RDKit          3D

 43 45  0  0  0  0  0  0  0  0999 V2000
   22.4116   73.2733   -4.0221 P   0  0  2  0  0  0  0  0  0  0  0  0
   23.9515   72.7815   -4.0863 O   0  0  0  0  0  0  0  0  0  0  0  0
   22.1671   74.6600   -4.5406 O   0  0  0  0  0  0  0  0  0  0  0  0
   21.9845   73.0130   -2.4834 O   0  0  0  0  0  0  0  0  0  0  0  0
   22.7716   72.1300   -1.7034 C   0  0  0  0  0  0  0  0  0  0  0  0
   22.0056   69.8525   -1.7200 O   0  0  0  0  0  0  0  0  0  0  0  0
   21.0636   70.3456    1.0836 O   0  0  0  0  0  0  0  0  0  0  0  0
   23.3961   68.9870    1.4707 O   0  0  0  0  0  0  0  0  0  0  0  0
   22.2259   70.8422    0.4219 C   0  0  1  0  0  0  0  0  0  0  0  0
   23.2624   69.7464    0.2865 C   0  0  2  0  0  0  0  0  0  0  0  0
   21.8583   71.1138   -1.0315 C   0  0  1  0  0  0  0  0  0  0  0  0
   22.7104   68.9319   -0.8711 C   0  0  2  0  0  0  0  0  0  0  0  0
   21.2736   70.1652    2.0138 H   0  0  0  0  0  0  0  0  0  0  0  0
   23.7506   69.5491    2.1772 H   0  0  0  0  0  0  0  0  0  0  0  0
   23.3560   66.1875   -0.7003 O   0  0  0  0  0  0  0  0  0  0  0  0
   26.7017   66.5911   -3.8443 O   0  0  0  0  0  0  0  0  0  0  0  0
   23.7455   68.2931   -1.6339 N   0  0  0  0  0  0  0  0  0  0  0  0
   25.0213   66.3906   -2.2660 N   0  0  0  0  0  0  0  0  0  0  0  0
   23.9899   66.9093   -1.4728 C   0  0  0  0  0  0  0  0  0  0  0  0
   24.5054   69.0370   -2.5301 C   0  0  0  0  0  0  0  0  0  0  0  0
   25.4862   68.5276   -3.2782 C   0  0  0  0  0  0  0  0  0  0  0  0
   25.8056   67.0894   -3.1701 C   0  0  0  0  0  0  0  0  0  0  0  0
   25.2097   65.4288   -2.1704 H   0  0  0  0  0  0  0  0  0  0  0  0
   21.6244   72.1084   -4.8198 O   0  0  0  0  0  0  0  0  0  0  0  0
   20.1736   72.1038   -5.5326 P   0  0  2  0  0  0  0  0  0  0  0  0
   20.5297   71.8998   -7.0975 O   0  0  0  0  0  0  0  0  0  0  0  0
   19.3405   73.3181   -5.2402 O   0  0  0  0  0  0  0  0  0  0  0  0
   19.5015   70.7073   -5.0820 O   0  0  0  0  0  0  0  0  0  0  0  0
   17.8304   71.2437   -3.4895 O   0  0  0  0  0  0  0  0  0  0  0  0
   17.4824   67.1293   -3.4507 O   0  0  0  0  0  0  0  0  0  0  0  0
   15.4354   68.7137   -4.6946 O   0  0  0  0  0  0  0  0  0  0  0  0
   20.0954   68.3554   -3.6710 O   0  0  0  0  0  0  0  0  0  0  0  0
   17.7158   68.4117   -4.0393 C   0  0  1  0  0  0  0  0  0  0  0  0
   16.4541   69.2583   -3.8603 C   0  0  1  0  0  0  0  0  0  0  0  0
   18.9075   69.0696   -3.3463 C   0  0  2  0  0  0  0  0  0  0  0  0
   16.7154   70.7259   -4.2247 C   0  0  1  0  0  0  0  0  0  0  0  0
   19.0488   70.5408   -3.7409 C   0  0  1  0  0  0  0  0  0  0  0  0
   16.7272   66.7060   -3.8865 H   0  0  0  0  0  0  0  0  0  0  0  0
   15.2804   67.7866   -4.4544 H   0  0  0  0  0  0  0  0  0  0  0  0
   19.9934   67.4256   -3.4161 H   0  0  0  0  0  0  0  0  0  0  0  0
   14.8724   71.1056   -2.7523 O   0  0  0  0  0  0  0  0  0  0  0  0
   15.5173   71.6169   -3.9042 C   0  0  0  0  0  0  0  0  0  0  0  0
   14.1079   71.6629   -2.5362 H   0  0  0  0  0  0  0  0  0  0  0  0
 25 28  1  0
 25 24  1  0
 25 26  1  6
 25 27  2  0
  1  4  1  0
  1 24  1  0
  1  2  1  1
  1  3  2  0
  6 11  1  0
  6 12  1  0
 29 36  1  0
 29 37  1  0
  9  7  1  1
  7 13  1  0
 10  8  1  1
  8 14  1  0
 37 28  1  6
  4  5  1  0
 33 30  1  1
 30 38  1  0
 34 31  1  6
 31 39  1  0
 35 32  1  6
 32 40  1  0
 41 42  1  0
 41 43  1  0
 15 19  2  0
 16 22  2  0
 12 17  1  6
 17 19  1  0
 17 20  1  0
 18 19  1  0
 18 22  1  0
 18 23  1  0
  9 10  1  0
  9 11  1  0
 10 12  1  0
 11  5  1  6
 33 34  1  0
 33 35  1  0
 34 36  1  0
 35 37  1  0
 36 42  1  1
 20 21  2  0
 21 22  1  0
M  CHG  2   2  -1  26  -1
M  END
>  <COMPND>  (75) 
    8629 

>  <AUTHOR>  (75) 
    GENERATED BY OPEN BABEL 3.1.1

>  <MASTER>  (75) 
        0    0    0    0    0    0    0    0   58    0   58    0

>  <minimizedAffinity>  (75) 
-8.68185

>  <CNNscore>  (75) 
0.3138054311

>  <CNNaffinity>  (75) 
4.1722884178

>  <CNN_VS>  (75) 
1.3092867136

>  <CNNaffinity_variance>  (75) 
0.8476157188

$$$$
76
     RDKit          3D

 43 45  0  0  0  0  0  0  0  0999 V2000
   22.0603   72.0818   -3.2934 P   0  0  2  0  0  0  0  0  0  0  0  0
   20.9238   71.3418   -4.1756 O   0  0  0  0  0  0  0  0  0  0  0  0
   23.4725   71.7123   -3.6405 O   0  0  0  0  0  0  0  0  0  0  0  0
   21.6141   71.7941   -1.7650 O   0  0  0  0  0  0  0  0  0  0  0  0
   20.8405   70.6386   -1.4926 C   0  0  0  0  0  0  0  0  0  0  0  0
   21.8243   68.7675   -0.3505 O   0  0  0  0  0  0  0  0  0  0  0  0
   22.2492   70.6373    1.9547 O   0  0  0  0  0  0  0  0  0  0  0  0
   24.7202   70.5396    0.8053 O   0  0  0  0  0  0  0  0  0  0  0  0
   22.3287   70.8987    0.5545 C   0  0  1  0  0  0  0  0  0  0  0  0
   23.5977   70.3046   -0.0201 C   0  0  2  0  0  0  0  0  0  0  0  0
   21.2500   70.0757   -0.1385 C   0  0  1  0  0  0  0  0  0  0  0  0
   23.2406   68.8310   -0.1156 C   0  0  2  0  0  0  0  0  0  0  0  0
   22.9285   71.1522    2.4187 H   0  0  0  0  0  0  0  0  0  0  0  0
   24.9073   71.4910    0.8339 H   0  0  0  0  0  0  0  0  0  0  0  0
   23.2644   66.0348   -0.5141 O   0  0  0  0  0  0  0  0  0  0  0  0
   25.8897   66.4101   -4.2834 O   0  0  0  0  0  0  0  0  0  0  0  0
   23.9220   68.1710   -1.1933 N   0  0  0  0  0  0  0  0  0  0  0  0
   24.5714   66.2239   -2.3907 N   0  0  0  0  0  0  0  0  0  0  0  0
   23.8723   66.7617   -1.3025 C   0  0  0  0  0  0  0  0  0  0  0  0
   24.6294   68.9196   -2.1277 C   0  0  0  0  0  0  0  0  0  0  0  0
   25.2919   68.3914   -3.1589 C   0  0  0  0  0  0  0  0  0  0  0  0
   25.2901   66.9260   -3.3453 C   0  0  0  0  0  0  0  0  0  0  0  0
   24.5512   65.2441   -2.4868 H   0  0  0  0  0  0  0  0  0  0  0  0
   21.7078   73.6476   -3.4862 O   0  0  0  0  0  0  0  0  0  0  0  0
   22.5856   74.8680   -4.0803 P   0  0  2  0  0  0  0  0  0  0  0  0
   24.0525   74.6124   -3.4474 O   0  0  0  0  0  0  0  0  0  0  0  0
   22.0179   76.2288   -3.7979 O   0  0  0  0  0  0  0  0  0  0  0  0
   22.7529   74.5253   -5.6486 O   0  0  0  0  0  0  0  0  0  0  0  0
   22.3786   75.9724   -7.4877 O   0  0  0  0  0  0  0  0  0  0  0  0
   21.2750   72.3943   -9.2284 O   0  0  0  0  0  0  0  0  0  0  0  0
   23.7458   73.6415   -9.9950 O   0  0  0  0  0  0  0  0  0  0  0  0
   20.5967   72.9255   -6.4648 O   0  0  0  0  0  0  0  0  0  0  0  0
   22.0386   73.2437   -8.3677 C   0  0  1  0  0  0  0  0  0  0  0  0
   22.7378   74.2965   -9.2300 C   0  0  1  0  0  0  0  0  0  0  0  0
   21.1004   73.9089   -7.3623 C   0  0  2  0  0  0  0  0  0  0  0  0
   23.3578   75.4003   -8.3627 C   0  0  1  0  0  0  0  0  0  0  0  0
   21.8030   75.0245   -6.5865 C   0  0  1  0  0  0  0  0  0  0  0  0
   21.8649   71.9685   -9.8689 H   0  0  0  0  0  0  0  0  0  0  0  0
   23.3412   72.9467  -10.5377 H   0  0  0  0  0  0  0  0  0  0  0  0
   20.1540   72.2251   -6.9681 H   0  0  0  0  0  0  0  0  0  0  0  0
   23.5711   76.3164  -10.5591 O   0  0  0  0  0  0  0  0  0  0  0  0
   23.9230   76.5409   -9.2063 C   0  0  0  0  0  0  0  0  0  0  0  0
   23.9239   77.0348  -11.1078 H   0  0  0  0  0  0  0  0  0  0  0  0
 25 28  1  0
 25 24  1  0
 25 26  1  1
 25 27  2  0
  1  4  1  0
  1 24  1  0
  1  2  1  6
  1  3  2  0
  6 11  1  0
  6 12  1  0
 29 36  1  0
 29 37  1  0
  9  7  1  1
  7 13  1  0
 10  8  1  1
  8 14  1  0
 37 28  1  6
  4  5  1  0
 33 30  1  6
 30 38  1  0
 34 31  1  1
 31 39  1  0
 35 32  1  1
 32 40  1  0
 41 42  1  0
 41 43  1  0
 15 19  2  0
 16 22  2  0
 12 17  1  6
 17 19  1  0
 17 20  1  0
 18 19  1  0
 18 22  1  0
 18 23  1  0
  9 10  1  0
  9 11  1  0
 10 12  1  0
 11  5  1  6
 33 34  1  0
 33 35  1  0
 34 36  1  0
 35 37  1  0
 36 42  1  6
 20 21  2  0
 21 22  1  0
M  CHG  2   2  -1  26  -1
M  END
>  <COMPND>  (76) 
    8629 

>  <AUTHOR>  (76) 
    GENERATED BY OPEN BABEL 3.1.1

>  <MASTER>  (76) 
        0    0    0    0    0    0    0    0   58    0   58    0

>  <minimizedAffinity>  (76) 
-7.75018

>  <CNNscore>  (76) 
0.2956755459

>  <CNNaffinity>  (76) 
4.0691804886

>  <CNN_VS>  (76) 
1.2031571865

>  <CNNaffinity_variance>  (76) 
0.2849740088

$$$$
77
     RDKit          3D

 43 45  0  0  0  0  0  0  0  0999 V2000
   22.7100   73.1367   -3.5024 P   0  0  2  0  0  0  0  0  0  0  0  0
   23.6857   71.8776   -3.7853 O   0  0  0  0  0  0  0  0  0  0  0  0
   23.3717   74.4811   -3.5798 O   0  0  0  0  0  0  0  0  0  0  0  0
   22.0125   72.7773   -2.0874 O   0  0  0  0  0  0  0  0  0  0  0  0
   22.8124   72.2114   -1.0637 C   0  0  0  0  0  0  0  0  0  0  0  0
   21.9782   69.9584   -1.0186 O   0  0  0  0  0  0  0  0  0  0  0  0
   21.4935   70.3953    1.9080 O   0  0  0  0  0  0  0  0  0  0  0  0
   23.8117   68.9593    1.8974 O   0  0  0  0  0  0  0  0  0  0  0  0
   22.5564   70.8776    1.0877 C   0  0  1  0  0  0  0  0  0  0  0  0
   23.5233   69.7568    0.7672 C   0  0  2  0  0  0  0  0  0  0  0  0
   21.9798   71.2024   -0.2846 C   0  0  1  0  0  0  0  0  0  0  0  0
   22.7739   68.9932   -0.3115 C   0  0  2  0  0  0  0  0  0  0  0  0
   21.8374   70.1815    2.7900 H   0  0  0  0  0  0  0  0  0  0  0  0
   24.2885   69.4898    2.5545 H   0  0  0  0  0  0  0  0  0  0  0  0
   23.1631   66.1999   -0.4663 O   0  0  0  0  0  0  0  0  0  0  0  0
   26.1928   66.6286   -3.9129 O   0  0  0  0  0  0  0  0  0  0  0  0
   23.6583   68.3476   -1.2402 N   0  0  0  0  0  0  0  0  0  0  0  0
   24.6712   66.4156   -2.1824 N   0  0  0  0  0  0  0  0  0  0  0  0
   23.7819   66.9387   -1.2351 C   0  0  0  0  0  0  0  0  0  0  0  0
   24.3913   69.1099   -2.1433 C   0  0  0  0  0  0  0  0  0  0  0  0
   25.2361   68.5958   -3.0395 C   0  0  0  0  0  0  0  0  0  0  0  0
   25.4232   67.1318   -3.1002 C   0  0  0  0  0  0  0  0  0  0  0  0
   24.7738   65.4363   -2.1970 H   0  0  0  0  0  0  0  0  0  0  0  0
   21.5122   72.9142   -4.5648 O   0  0  0  0  0  0  0  0  0  0  0  0
   21.1145   73.7300   -5.9024 P   0  0  2  0  0  0  0  0  0  0  0  0
   22.3673   73.4576   -6.8893 O   0  0  0  0  0  0  0  0  0  0  0  0
   20.8131   75.1824   -5.6706 O   0  0  0  0  0  0  0  0  0  0  0  0
   19.8973   72.8889   -6.5472 O   0  0  0  0  0  0  0  0  0  0  0  0
   18.8642   70.9584   -5.6402 O   0  0  0  0  0  0  0  0  0  0  0  0
   18.4029   70.1273   -9.6586 O   0  0  0  0  0  0  0  0  0  0  0  0
   16.1179   70.8969   -8.0983 O   0  0  0  0  0  0  0  0  0  0  0  0
   20.8391   71.3715   -8.7118 O   0  0  0  0  0  0  0  0  0  0  0  0
   18.4746   70.9641   -8.5010 C   0  0  1  0  0  0  0  0  0  0  0  0
   17.3732   70.5346   -7.5298 C   0  0  1  0  0  0  0  0  0  0  0  0
   19.8507   70.8077   -7.8565 C   0  0  2  0  0  0  0  0  0  0  0  0
   17.5517   71.2020   -6.1595 C   0  0  1  0  0  0  0  0  0  0  0  0
   19.9061   71.4654   -6.4764 C   0  0  1  0  0  0  0  0  0  0  0  0
   17.5318   70.2223  -10.0728 H   0  0  0  0  0  0  0  0  0  0  0  0
   16.0179   70.4693   -8.9634 H   0  0  0  0  0  0  0  0  0  0  0  0
   20.7940   70.9465   -9.5820 H   0  0  0  0  0  0  0  0  0  0  0  0
   15.8450   69.5915   -5.7094 O   0  0  0  0  0  0  0  0  0  0  0  0
   16.5584   70.6682   -5.1296 C   0  0  0  0  0  0  0  0  0  0  0  0
   15.2092   69.2416   -5.0652 H   0  0  0  0  0  0  0  0  0  0  0  0
 25 28  1  0
 25 24  1  0
 25 26  1  6
 25 27  2  0
  1  4  1  0
  1 24  1  0
  1  2  1  6
  1  3  2  0
  6 11  1  0
  6 12  1  0
 29 36  1  0
 29 37  1  0
  9  7  1  1
  7 13  1  0
 10  8  1  1
  8 14  1  0
 37 28  1  6
  4  5  1  0
 33 30  1  6
 30 38  1  0
 34 31  1  6
 31 39  1  0
 35 32  1  6
 32 40  1  0
 41 42  1  0
 41 43  1  0
 15 19  2  0
 16 22  2  0
 12 17  1  6
 17 19  1  0
 17 20  1  0
 18 19  1  0
 18 22  1  0
 18 23  1  0
  9 10  1  0
  9 11  1  0
 10 12  1  0
 11  5  1  6
 33 34  1  0
 33 35  1  0
 34 36  1  0
 35 37  1  0
 36 42  1  1
 20 21  2  0
 21 22  1  0
M  CHG  2   2  -1  26  -1
M  END
>  <COMPND>  (77) 
    8629 

>  <AUTHOR>  (77) 
    GENERATED BY OPEN BABEL 3.1.1

>  <MASTER>  (77) 
        0    0    0    0    0    0    0    0   58    0   58    0

>  <minimizedAffinity>  (77) 
-9.15159

>  <CNNscore>  (77) 
0.2909660339

>  <CNNaffinity>  (77) 
4.0921583176

>  <CNN_VS>  (77) 
1.1906790733

>  <CNNaffinity_variance>  (77) 
0.7180509567

$$$$
78
     RDKit          3D

 43 45  0  0  0  0  0  0  0  0999 V2000
   18.3779   68.7459   -3.1518 P   0  0  2  0  0  0  0  0  0  0  0  0
   17.0801   68.2246   -2.3385 O   0  0  0  0  0  0  0  0  0  0  0  0
   18.9396   67.7690   -4.1424 O   0  0  0  0  0  0  0  0  0  0  0  0
   19.3944   69.2321   -1.9907 O   0  0  0  0  0  0  0  0  0  0  0  0
   20.1187   70.4342   -2.1859 C   0  0  0  0  0  0  0  0  0  0  0  0
   22.3864   70.9658   -1.5956 O   0  0  0  0  0  0  0  0  0  0  0  0
   23.1146   68.2942   -2.7458 O   0  0  0  0  0  0  0  0  0  0  0  0
   23.1050   67.8038   -0.0632 O   0  0  0  0  0  0  0  0  0  0  0  0
   21.9490   68.6752   -2.0166 C   0  0  1  0  0  0  0  0  0  0  0  0
   22.2789   68.8427   -0.5481 C   0  0  2  0  0  0  0  0  0  0  0  0
   21.5841   70.0970   -2.4248 C   0  0  1  0  0  0  0  0  0  0  0  0
   22.9707   70.1952   -0.5328 C   0  0  2  0  0  0  0  0  0  0  0  0
   23.3668   67.3892   -2.5021 H   0  0  0  0  0  0  0  0  0  0  0  0
   22.6201   66.9643   -0.0930 H   0  0  0  0  0  0  0  0  0  0  0  0
   24.1677   69.4514    1.9151 O   0  0  0  0  0  0  0  0  0  0  0  0
   22.1728   72.9457    4.1627 O   0  0  0  0  0  0  0  0  0  0  0  0
   22.7817   70.8930    0.7076 N   0  0  0  0  0  0  0  0  0  0  0  0
   23.1736   71.1920    3.0322 N   0  0  0  0  0  0  0  0  0  0  0  0
   23.4278   70.4368    1.8802 C   0  0  0  0  0  0  0  0  0  0  0  0
   21.9636   72.0167    0.7529 C   0  0  0  0  0  0  0  0  0  0  0  0
   21.7305   72.7250    1.8598 C   0  0  0  0  0  0  0  0  0  0  0  0
   22.3674   72.3153    3.1280 C   0  0  0  0  0  0  0  0  0  0  0  0
   23.6127   70.8927    3.8612 H   0  0  0  0  0  0  0  0  0  0  0  0
   17.8684   70.1386   -3.7951 O   0  0  0  0  0  0  0  0  0  0  0  0
   16.5988   70.4702   -4.7391 P   0  0  2  0  0  0  0  0  0  0  0  0
   15.5906   71.2517   -3.7441 O   0  0  0  0  0  0  0  0  0  0  0  0
   15.9993   69.2677   -5.4089 O   0  0  0  0  0  0  0  0  0  0  0  0
   17.1307   71.6060   -5.7550 O   0  0  0  0  0  0  0  0  0  0  0  0
   16.1828   72.1300   -7.8629 O   0  0  0  0  0  0  0  0  0  0  0  0
   20.1113   73.1391   -8.6370 O   0  0  0  0  0  0  0  0  0  0  0  0
   18.1495   75.2133   -8.3255 O   0  0  0  0  0  0  0  0  0  0  0  0
   19.5093   70.8165   -7.0177 O   0  0  0  0  0  0  0  0  0  0  0  0
   18.9334   73.0071   -7.8367 C   0  0  1  0  0  0  0  0  0  0  0  0
   17.8203   73.8357   -8.4812 C   0  0  1  0  0  0  0  0  0  0  0  0
   18.5371   71.5333   -7.7710 C   0  0  2  0  0  0  0  0  0  0  0  0
   16.4610   73.5348   -7.8356 C   0  0  1  0  0  0  0  0  0  0  0  0
   17.1484   71.3486   -7.1567 C   0  0  1  0  0  0  0  0  0  0  0  0
   20.3685   74.0726   -8.6824 H   0  0  0  0  0  0  0  0  0  0  0  0
   19.0101   75.3899   -8.7370 H   0  0  0  0  0  0  0  0  0  0  0  0
   20.3839   70.9411   -7.4168 H   0  0  0  0  0  0  0  0  0  0  0  0
   14.1836   74.2474   -7.7141 O   0  0  0  0  0  0  0  0  0  0  0  0
   15.3145   74.2309   -8.5657 C   0  0  0  0  0  0  0  0  0  0  0  0
   13.4461   74.6878   -8.1655 H   0  0  0  0  0  0  0  0  0  0  0  0
 25 28  1  0
 25 24  1  0
 25 26  1  1
 25 27  2  0
  1  4  1  0
  1 24  1  0
  1  2  1  1
  1  3  2  0
  6 11  1  0
  6 12  1  0
 29 36  1  0
 29 37  1  0
  9  7  1  6
  7 13  1  0
 10  8  1  6
  8 14  1  0
 37 28  1  1
  4  5  1  0
 33 30  1  6
 30 38  1  0
 34 31  1  1
 31 39  1  0
 35 32  1  1
 32 40  1  0
 41 42  1  0
 41 43  1  0
 15 19  2  0
 16 22  2  0
 12 17  1  1
 17 19  1  0
 17 20  1  0
 18 19  1  0
 18 22  1  0
 18 23  1  0
  9 10  1  0
  9 11  1  0
 10 12  1  0
 11  5  1  1
 33 34  1  0
 33 35  1  0
 34 36  1  0
 35 37  1  0
 36 42  1  6
 20 21  2  0
 21 22  1  0
M  CHG  2   2  -1  26  -1
M  END
>  <COMPND>  (78) 
    8629 

>  <AUTHOR>  (78) 
    GENERATED BY OPEN BABEL 3.1.1

>  <MASTER>  (78) 
        0    0    0    0    0    0    0    0   58    0   58    0

>  <minimizedAffinity>  (78) 
-7.82999

>  <CNNscore>  (78) 
0.2877416313

>  <CNNaffinity>  (78) 
4.0068535805

>  <CNN_VS>  (78) 
1.1529386044

>  <CNNaffinity_variance>  (78) 
0.1200646982

$$$$
79
     RDKit          3D

 43 45  0  0  0  0  0  0  0  0999 V2000
   19.0895   70.8552   -4.3308 P   0  0  2  0  0  0  0  0  0  0  0  0
   17.4892   71.0398   -4.1813 O   0  0  0  0  0  0  0  0  0  0  0  0
   19.5536   69.4349   -4.4677 O   0  0  0  0  0  0  0  0  0  0  0  0
   19.6941   71.6739   -3.0730 O   0  0  0  0  0  0  0  0  0  0  0  0
   20.9580   71.2893   -2.5605 C   0  0  0  0  0  0  0  0  0  0  0  0
   21.2525   69.1302   -1.5477 O   0  0  0  0  0  0  0  0  0  0  0  0
   20.8825   70.5211    1.0827 O   0  0  0  0  0  0  0  0  0  0  0  0
   23.5896   70.2225    0.9438 O   0  0  0  0  0  0  0  0  0  0  0  0
   21.5307   70.9857   -0.1002 C   0  0  1  0  0  0  0  0  0  0  0  0
   22.8701   70.2995   -0.2700 C   0  0  2  0  0  0  0  0  0  0  0  0
   20.7506   70.4617   -1.2994 C   0  0  1  0  0  0  0  0  0  0  0  0
   22.4602   68.9338   -0.7943 C   0  0  2  0  0  0  0  0  0  0  0  0
   21.3626   70.8435    1.8622 H   0  0  0  0  0  0  0  0  0  0  0  0
   23.8275   71.1162    1.2361 H   0  0  0  0  0  0  0  0  0  0  0  0
   23.9248   70.3704   -2.7357 O   0  0  0  0  0  0  0  0  0  0  0  0
   26.2533   66.6088   -4.0278 O   0  0  0  0  0  0  0  0  0  0  0  0
   23.4557   68.3549   -1.6517 N   0  0  0  0  0  0  0  0  0  0  0  0
   25.0832   68.4963   -3.3774 N   0  0  0  0  0  0  0  0  0  0  0  0
   24.1330   69.1637   -2.5939 C   0  0  0  0  0  0  0  0  0  0  0  0
   23.7519   66.9998   -1.5533 C   0  0  0  0  0  0  0  0  0  0  0  0
   24.6599   66.3783   -2.3087 C   0  0  0  0  0  0  0  0  0  0  0  0
   25.4122   67.1513   -3.3179 C   0  0  0  0  0  0  0  0  0  0  0  0
   25.5673   69.0395   -4.0409 H   0  0  0  0  0  0  0  0  0  0  0  0
   19.4490   71.8046   -5.5888 O   0  0  0  0  0  0  0  0  0  0  0  0
   19.2557   71.5797   -7.1778 P   0  0  2  0  0  0  0  0  0  0  0  0
   18.1164   70.4335   -7.2545 O   0  0  0  0  0  0  0  0  0  0  0  0
   20.5224   71.2438   -7.9103 O   0  0  0  0  0  0  0  0  0  0  0  0
   18.5202   72.9206   -7.6937 O   0  0  0  0  0  0  0  0  0  0  0  0
   17.8722   74.9045   -6.5708 O   0  0  0  0  0  0  0  0  0  0  0  0
   14.6006   74.4504   -9.0490 O   0  0  0  0  0  0  0  0  0  0  0  0
   16.5072   76.5304   -9.5844 O   0  0  0  0  0  0  0  0  0  0  0  0
   15.8334   72.1248   -7.8443 O   0  0  0  0  0  0  0  0  0  0  0  0
   15.9827   74.3756   -8.6887 C   0  0  1  0  0  0  0  0  0  0  0  0
   16.4719   75.7893   -8.3680 C   0  0  1  0  0  0  0  0  0  0  0  0
   16.1325   73.4656   -7.4710 C   0  0  2  0  0  0  0  0  0  0  0  0
   17.8624   75.7604   -7.7193 C   0  0  1  0  0  0  0  0  0  0  0  0
   17.5382   73.5485   -6.8735 C   0  0  1  0  0  0  0  0  0  0  0  0
   14.4986   75.0264   -9.8219 H   0  0  0  0  0  0  0  0  0  0  0  0
   15.6232   76.5405   -9.9841 H   0  0  0  0  0  0  0  0  0  0  0  0
   14.9409   72.0856   -8.2208 H   0  0  0  0  0  0  0  0  0  0  0  0
   18.6059   77.9313   -8.3851 O   0  0  0  0  0  0  0  0  0  0  0  0
   18.3024   77.1447   -7.2478 C   0  0  0  0  0  0  0  0  0  0  0  0
   18.8872   78.8153   -8.1003 H   0  0  0  0  0  0  0  0  0  0  0  0
 25 28  1  0
 25 24  1  0
 25 26  1  1
 25 27  2  0
  1  4  1  0
  1 24  1  0
  1  2  1  1
  1  3  2  0
  6 11  1  0
  6 12  1  0
 29 36  1  0
 29 37  1  0
  9  7  1  1
  7 13  1  0
 10  8  1  1
  8 14  1  0
 37 28  1  6
  4  5  1  0
 33 30  1  1
 30 38  1  0
 34 31  1  6
 31 39  1  0
 35 32  1  6
 32 40  1  0
 41 42  1  0
 41 43  1  0
 15 19  2  0
 16 22  2  0
 12 17  1  6
 17 19  1  0
 17 20  1  0
 18 19  1  0
 18 22  1  0
 18 23  1  0
  9 10  1  0
  9 11  1  0
 10 12  1  0
 11  5  1  6
 33 34  1  0
 33 35  1  0
 34 36  1  0
 35 37  1  0
 36 42  1  1
 20 21  2  0
 21 22  1  0
M  CHG  2   2  -1  26  -1
M  END
>  <COMPND>  (79) 
    8629 

>  <AUTHOR>  (79) 
    GENERATED BY OPEN BABEL 3.1.1

>  <MASTER>  (79) 
        0    0    0    0    0    0    0    0   58    0   58    0

>  <minimizedAffinity>  (79) 
-7.60897

>  <CNNscore>  (79) 
0.2832608223

>  <CNNaffinity>  (79) 
4.0141935349

>  <CNN_VS>  (79) 
1.1370637417

>  <CNNaffinity_variance>  (79) 
0.0794478953

$$$$
80
     RDKit          3D

 43 45  0  0  0  0  0  0  0  0999 V2000
   23.1577   73.5014   -4.0633 P   0  0  2  0  0  0  0  0  0  0  0  0
   24.5662   74.2945   -3.9962 O   0  0  0  0  0  0  0  0  0  0  0  0
   22.0501   74.1068   -3.2521 O   0  0  0  0  0  0  0  0  0  0  0  0
   23.5517   71.9777   -3.6879 O   0  0  0  0  0  0  0  0  0  0  0  0
   22.5165   71.0827   -3.3200 C   0  0  0  0  0  0  0  0  0  0  0  0
   23.9223   70.3029   -1.5341 O   0  0  0  0  0  0  0  0  0  0  0  0
   22.6967   67.6060   -1.9978 O   0  0  0  0  0  0  0  0  0  0  0  0
   21.3415   68.5063    0.1906 O   0  0  0  0  0  0  0  0  0  0  0  0
   22.0965   68.8971   -2.0872 C   0  0  1  0  0  0  0  0  0  0  0  0
   21.8663   69.4669   -0.7030 C   0  0  2  0  0  0  0  0  0  0  0  0
   23.1323   69.8575   -2.6583 C   0  0  1  0  0  0  0  0  0  0  0  0
   23.2617   69.9256   -0.3150 C   0  0  2  0  0  0  0  0  0  0  0  0
   22.0540   66.9752   -1.6359 H   0  0  0  0  0  0  0  0  0  0  0  0
   20.4530   68.2465   -0.0989 H   0  0  0  0  0  0  0  0  0  0  0  0
   23.6759   69.7701    2.4746 O   0  0  0  0  0  0  0  0  0  0  0  0
   23.1557   74.3203    2.9902 O   0  0  0  0  0  0  0  0  0  0  0  0
   23.2404   71.0541    0.5723 N   0  0  0  0  0  0  0  0  0  0  0  0
   23.4167   72.0359    2.7290 N   0  0  0  0  0  0  0  0  0  0  0  0
   23.4591   70.8678    1.9572 C   0  0  0  0  0  0  0  0  0  0  0  0
   23.0048   72.3283    0.0675 C   0  0  0  0  0  0  0  0  0  0  0  0
   22.9663   73.4318    0.8171 C   0  0  0  0  0  0  0  0  0  0  0  0
   23.1850   73.3243    2.2740 C   0  0  0  0  0  0  0  0  0  0  0  0
   23.5660   71.9304    3.6967 H   0  0  0  0  0  0  0  0  0  0  0  0
   22.8619   73.4197   -5.6504 O   0  0  0  0  0  0  0  0  0  0  0  0
   21.9200   74.3247   -6.6027 P   0  0  2  0  0  0  0  0  0  0  0  0
   22.7408   74.3756   -7.9960 O   0  0  0  0  0  0  0  0  0  0  0  0
   21.5828   75.6722   -6.0330 O   0  0  0  0  0  0  0  0  0  0  0  0
   20.6407   73.3922   -6.9170 O   0  0  0  0  0  0  0  0  0  0  0  0
   20.0168   71.2573   -6.0989 O   0  0  0  0  0  0  0  0  0  0  0  0
   18.8236   70.8324  -10.0292 O   0  0  0  0  0  0  0  0  0  0  0  0
   16.8434   71.1276   -7.9701 O   0  0  0  0  0  0  0  0  0  0  0  0
   21.2645   72.2589   -9.4073 O   0  0  0  0  0  0  0  0  0  0  0  0
   19.0475   71.5359   -8.8043 C   0  0  1  0  0  0  0  0  0  0  0  0
   18.2189   70.8645   -7.7073 C   0  0  1  0  0  0  0  0  0  0  0  0
   20.5355   71.4825   -8.4628 C   0  0  2  0  0  0  0  0  0  0  0  0
   18.6077   71.3905   -6.3190 C   0  0  1  0  0  0  0  0  0  0  0  0
   20.8074   71.9824   -7.0429 C   0  0  1  0  0  0  0  0  0  0  0  0
   17.8807   70.8630  -10.2519 H   0  0  0  0  0  0  0  0  0  0  0  0
   16.6109   70.7910   -8.8498 H   0  0  0  0  0  0  0  0  0  0  0  0
   21.0841   71.9324  -10.3021 H   0  0  0  0  0  0  0  0  0  0  0  0
   16.5967   71.1393   -5.0535 O   0  0  0  0  0  0  0  0  0  0  0  0
   17.9069   70.6234   -5.1999 C   0  0  0  0  0  0  0  0  0  0  0  0
   16.1385   70.6603   -4.3447 H   0  0  0  0  0  0  0  0  0  0  0  0
 25 28  1  0
 25 24  1  0
 25 26  1  6
 25 27  2  0
  1  4  1  0
  1 24  1  0
  1  2  1  6
  1  3  2  0
  6 11  1  0
  6 12  1  0
 29 36  1  0
 29 37  1  0
  9  7  1  1
  7 13  1  0
 10  8  1  1
  8 14  1  0
 37 28  1  6
  4  5  1  0
 33 30  1  6
 30 38  1  0
 34 31  1  6
 31 39  1  0
 35 32  1  6
 32 40  1  0
 41 42  1  0
 41 43  1  0
 15 19  2  0
 16 22  2  0
 12 17  1  1
 17 19  1  0
 17 20  1  0
 18 19  1  0
 18 22  1  0
 18 23  1  0
  9 10  1  0
  9 11  1  0
 10 12  1  0
 11  5  1  1
 33 34  1  0
 33 35  1  0
 34 36  1  0
 35 37  1  0
 36 42  1  1
 20 21  2  0
 21 22  1  0
M  CHG  2   2  -1  26  -1
M  END
>  <COMPND>  (80) 
    8629 

>  <AUTHOR>  (80) 
    GENERATED BY OPEN BABEL 3.1.1

>  <MASTER>  (80) 
        0    0    0    0    0    0    0    0   58    0   58    0

>  <minimizedAffinity>  (80) 
-8.20540

>  <CNNscore>  (80) 
0.2750037313

>  <CNNaffinity>  (80) 
4.0004014969

>  <CNN_VS>  (80) 
1.1001253128

>  <CNNaffinity_variance>  (80) 
0.3938760757

$$$$
81
     RDKit          3D

 43 45  0  0  0  0  0  0  0  0999 V2000
   21.2315   69.4717   -0.9415 P   0  0  2  0  0  0  0  0  0  0  0  0
   22.4257   69.3504   -2.0262 O   0  0  0  0  0  0  0  0  0  0  0  0
   21.4503   68.7061    0.3303 O   0  0  0  0  0  0  0  0  0  0  0  0
   19.9044   69.0779   -1.7792 O   0  0  0  0  0  0  0  0  0  0  0  0
   19.7008   69.6802   -3.0456 C   0  0  0  0  0  0  0  0  0  0  0  0
   18.3582   71.3286   -4.1654 O   0  0  0  0  0  0  0  0  0  0  0  0
   16.0403   70.2182   -2.6209 O   0  0  0  0  0  0  0  0  0  0  0  0
   15.7192   69.0774   -5.0770 O   0  0  0  0  0  0  0  0  0  0  0  0
   17.1640   69.5366   -3.1762 C   0  0  1  0  0  0  0  0  0  0  0  0
   17.0273   69.4367   -4.6811 C   0  0  2  0  0  0  0  0  0  0  0  0
   18.3816   70.4402   -3.0267 C   0  0  1  0  0  0  0  0  0  0  0  0
   17.4085   70.8384   -5.1260 C   0  0  2  0  0  0  0  0  0  0  0  0
   15.2505   69.6604   -2.7045 H   0  0  0  0  0  0  0  0  0  0  0  0
   15.5241   68.1781   -4.7707 H   0  0  0  0  0  0  0  0  0  0  0  0
   15.9697   70.7107   -7.5532 O   0  0  0  0  0  0  0  0  0  0  0  0
   19.8298   70.9059  -10.0638 O   0  0  0  0  0  0  0  0  0  0  0  0
   18.0121   70.8545   -6.4286 N   0  0  0  0  0  0  0  0  0  0  0  0
   17.8929   70.8082   -8.8013 N   0  0  0  0  0  0  0  0  0  0  0  0
   17.1998   70.7848   -7.5843 C   0  0  0  0  0  0  0  0  0  0  0  0
   19.3949   70.9389   -6.5506 C   0  0  0  0  0  0  0  0  0  0  0  0
   20.0404   70.9588   -7.7185 C   0  0  0  0  0  0  0  0  0  0  0  0
   19.2655   70.8898   -8.9742 C   0  0  0  0  0  0  0  0  0  0  0  0
   17.3476   70.7604   -9.6200 H   0  0  0  0  0  0  0  0  0  0  0  0
   21.0778   71.0691   -0.7472 O   0  0  0  0  0  0  0  0  0  0  0  0
   22.1508   72.1920   -0.2994 P   0  0  2  0  0  0  0  0  0  0  0  0
   23.3937   71.3174    0.2554 O   0  0  0  0  0  0  0  0  0  0  0  0
   21.6166   73.1984    0.6783 O   0  0  0  0  0  0  0  0  0  0  0  0
   22.6836   72.8238   -1.6857 O   0  0  0  0  0  0  0  0  0  0  0  0
   20.6548   73.5748   -2.6535 O   0  0  0  0  0  0  0  0  0  0  0  0
   23.3150   75.1573   -5.3866 O   0  0  0  0  0  0  0  0  0  0  0  0
   21.9584   76.9033   -3.5538 O   0  0  0  0  0  0  0  0  0  0  0  0
   23.8031   72.5429   -4.2436 O   0  0  0  0  0  0  0  0  0  0  0  0
   22.8632   74.7552   -4.0906 C   0  0  1  0  0  0  0  0  0  0  0  0
   21.5930   75.5416   -3.7602 C   0  0  1  0  0  0  0  0  0  0  0  0
   22.5781   73.2546   -4.1046 C   0  0  2  0  0  0  0  0  0  0  0  0
   20.9020   74.9785   -2.5110 C   0  0  1  0  0  0  0  0  0  0  0  0
   21.8456   72.8070   -2.8385 C   0  0  1  0  0  0  0  0  0  0  0  0
   23.4982   76.1091   -5.3844 H   0  0  0  0  0  0  0  0  0  0  0  0
   22.3941   77.2466   -4.3497 H   0  0  0  0  0  0  0  0  0  0  0  0
   24.2571   72.8351   -5.0489 H   0  0  0  0  0  0  0  0  0  0  0  0
   19.0933   76.2123   -3.4677 O   0  0  0  0  0  0  0  0  0  0  0  0
   19.5524   75.6454   -2.2544 C   0  0  0  0  0  0  0  0  0  0  0  0
   18.2350   76.6401   -3.3196 H   0  0  0  0  0  0  0  0  0  0  0  0
 25 28  1  0
 25 24  1  0
 25 26  1  1
 25 27  2  0
  1  4  1  0
  1 24  1  0
  1  2  1  6
  1  3  2  0
  6 11  1  0
  6 12  1  0
 29 36  1  0
 29 37  1  0
  9  7  1  1
  7 13  1  0
 10  8  1  1
  8 14  1  0
 37 28  1  1
  4  5  1  0
 33 30  1  6
 30 38  1  0
 34 31  1  1
 31 39  1  0
 35 32  1  1
 32 40  1  0
 41 42  1  0
 41 43  1  0
 15 19  2  0
 16 22  2  0
 12 17  1  6
 17 19  1  0
 17 20  1  0
 18 19  1  0
 18 22  1  0
 18 23  1  0
  9 10  1  0
  9 11  1  0
 10 12  1  0
 11  5  1  6
 33 34  1  0
 33 35  1  0
 34 36  1  0
 35 37  1  0
 36 42  1  6
 20 21  2  0
 21 22  1  0
M  CHG  2   2  -1  26  -1
M  END
>  <COMPND>  (81) 
    8629 

>  <AUTHOR>  (81) 
    GENERATED BY OPEN BABEL 3.1.1

>  <MASTER>  (81) 
        0    0    0    0    0    0    0    0   58    0   58    0

>  <minimizedAffinity>  (81) 
-7.42540

>  <CNNscore>  (81) 
0.7951456904

>  <CNNaffinity>  (81) 
4.5671033859

>  <CNN_VS>  (81) 
3.6315126419

>  <CNNaffinity_variance>  (81) 
0.1637279093

$$$$
82
     RDKit          3D

 43 45  0  0  0  0  0  0  0  0999 V2000
   20.9983   71.5449   -2.9634 P   0  0  2  0  0  0  0  0  0  0  0  0
   20.2565   72.9405   -2.6177 O   0  0  0  0  0  0  0  0  0  0  0  0
   22.4209   71.6797   -3.4211 O   0  0  0  0  0  0  0  0  0  0  0  0
   19.9925   70.8170   -4.0008 O   0  0  0  0  0  0  0  0  0  0  0  0
   19.7746   69.4233   -3.8662 C   0  0  0  0  0  0  0  0  0  0  0  0
   17.6332   70.3159   -3.2406 O   0  0  0  0  0  0  0  0  0  0  0  0
   16.9497   67.5401   -2.3360 O   0  0  0  0  0  0  0  0  0  0  0  0
   15.7021   67.7009   -4.7556 O   0  0  0  0  0  0  0  0  0  0  0  0
   17.7370   67.9577   -3.4500 C   0  0  1  0  0  0  0  0  0  0  0  0
   16.8474   68.5022   -4.5480 C   0  0  2  0  0  0  0  0  0  0  0  0
   18.5210   69.1957   -3.0327 C   0  0  1  0  0  0  0  0  0  0  0  0
   16.5055   69.8851   -4.0199 C   0  0  2  0  0  0  0  0  0  0  0  0
   16.4401   66.7504   -2.5784 H   0  0  0  0  0  0  0  0  0  0  0  0
   15.9719   66.8319   -5.0915 H   0  0  0  0  0  0  0  0  0  0  0  0
   15.2892   72.4089   -3.6609 O   0  0  0  0  0  0  0  0  0  0  0  0
   15.6812   73.4385   -8.1361 O   0  0  0  0  0  0  0  0  0  0  0  0
   16.2776   70.8329   -5.0739 N   0  0  0  0  0  0  0  0  0  0  0  0
   15.4855   72.9195   -5.8895 N   0  0  0  0  0  0  0  0  0  0  0  0
   15.6582   72.0719   -4.7878 C   0  0  0  0  0  0  0  0  0  0  0  0
   16.6669   70.5303   -6.3742 C   0  0  0  0  0  0  0  0  0  0  0  0
   16.4940   71.3491   -7.4139 C   0  0  0  0  0  0  0  0  0  0  0  0
   15.8544   72.6634   -7.2006 C   0  0  0  0  0  0  0  0  0  0  0  0
   15.0558   73.7881   -5.7142 H   0  0  0  0  0  0  0  0  0  0  0  0
   20.8064   70.6857   -1.6078 O   0  0  0  0  0  0  0  0  0  0  0  0
   21.8892   69.9920   -0.6283 P   0  0  2  0  0  0  0  0  0  0  0  0
   20.9800   69.0492    0.3214 O   0  0  0  0  0  0  0  0  0  0  0  0
   22.7588   70.9645    0.1146 O   0  0  0  0  0  0  0  0  0  0  0  0
   22.6947   68.9618   -1.5743 O   0  0  0  0  0  0  0  0  0  0  0  0
   23.5437   66.7805   -1.2032 O   0  0  0  0  0  0  0  0  0  0  0  0
   26.6659   68.3368   -3.4126 O   0  0  0  0  0  0  0  0  0  0  0  0
   24.9113   66.4012   -4.6054 O   0  0  0  0  0  0  0  0  0  0  0  0
   25.3012   69.9968   -1.4730 O   0  0  0  0  0  0  0  0  0  0  0  0
   25.2979   68.1621   -3.0335 C   0  0  1  0  0  0  0  0  0  0  0  0
   24.9364   66.6859   -3.2095 C   0  0  1  0  0  0  0  0  0  0  0  0
   25.1253   68.5880   -1.5768 C   0  0  2  0  0  0  0  0  0  0  0  0
   23.5754   66.3694   -2.5750 C   0  0  1  0  0  0  0  0  0  0  0  0
   23.7559   68.1828   -1.0283 C   0  0  1  0  0  0  0  0  0  0  0  0
   26.7822   68.0686   -4.3367 H   0  0  0  0  0  0  0  0  0  0  0  0
   25.7764   66.6058   -4.9940 H   0  0  0  0  0  0  0  0  0  0  0  0
   26.1717   70.2405   -1.8231 H   0  0  0  0  0  0  0  0  0  0  0  0
   23.0162   64.4890   -3.9389 O   0  0  0  0  0  0  0  0  0  0  0  0
   23.2667   64.8740   -2.5997 C   0  0  0  0  0  0  0  0  0  0  0  0
   22.8185   63.5394   -3.9701 H   0  0  0  0  0  0  0  0  0  0  0  0
 25 28  1  0
 25 24  1  0
 25 26  1  1
 25 27  2  0
  1  4  1  0
  1 24  1  0
  1  2  1  1
  1  3  2  0
  6 11  1  0
  6 12  1  0
 29 36  1  0
 29 37  1  0
  9  7  1  1
  7 13  1  0
 10  8  1  1
  8 14  1  0
 37 28  1  6
  4  5  1  0
 33 30  1  1
 30 38  1  0
 34 31  1  6
 31 39  1  0
 35 32  1  6
 32 40  1  0
 41 42  1  0
 41 43  1  0
 15 19  2  0
 16 22  2  0
 12 17  1  6
 17 19  1  0
 17 20  1  0
 18 19  1  0
 18 22  1  0
 18 23  1  0
  9 10  1  0
  9 11  1  0
 10 12  1  0
 11  5  1  6
 33 34  1  0
 33 35  1  0
 34 36  1  0
 35 37  1  0
 36 42  1  1
 20 21  2  0
 21 22  1  0
M  CHG  2   2  -1  26  -1
M  END
>  <COMPND>  (82) 
    8629 

>  <AUTHOR>  (82) 
    GENERATED BY OPEN BABEL 3.1.1

>  <MASTER>  (82) 
        0    0    0    0    0    0    0    0   58    0   58    0

>  <minimizedAffinity>  (82) 
-8.78895

>  <CNNscore>  (82) 
0.6743857265

>  <CNNaffinity>  (82) 
4.7094755173

>  <CNN_VS>  (82) 
3.1760029793

>  <CNNaffinity_variance>  (82) 
0.3610808253

$$$$
83
     RDKit          3D

 43 45  0  0  0  0  0  0  0  0999 V2000
   20.7160   72.6490   -2.9691 P   0  0  2  0  0  0  0  0  0  0  0  0
   21.2091   73.4790   -1.6709 O   0  0  0  0  0  0  0  0  0  0  0  0
   21.4412   72.9737   -4.2419 O   0  0  0  0  0  0  0  0  0  0  0  0
   19.1150   72.8815   -2.9937 O   0  0  0  0  0  0  0  0  0  0  0  0
   18.3023   72.0791   -2.1549 C   0  0  0  0  0  0  0  0  0  0  0  0
   16.8573   72.6326   -3.9933 O   0  0  0  0  0  0  0  0  0  0  0  0
   14.7293   71.1014   -2.5379 O   0  0  0  0  0  0  0  0  0  0  0  0
   15.5543   69.3199   -4.4306 O   0  0  0  0  0  0  0  0  0  0  0  0
   16.1294   70.8412   -2.6233 C   0  0  1  0  0  0  0  0  0  0  0  0
   16.4799   70.2929   -3.9908 C   0  0  2  0  0  0  0  0  0  0  0  0
   16.8565   72.1801   -2.6215 C   0  0  1  0  0  0  0  0  0  0  0  0
   16.4609   71.5473   -4.8476 C   0  0  2  0  0  0  0  0  0  0  0  0
   14.2439   70.2610   -2.5371 H   0  0  0  0  0  0  0  0  0  0  0  0
   15.6046   68.5416   -3.8539 H   0  0  0  0  0  0  0  0  0  0  0  0
   15.8329   72.3237   -7.4897 O   0  0  0  0  0  0  0  0  0  0  0  0
   20.0345   71.1990   -9.0138 O   0  0  0  0  0  0  0  0  0  0  0  0
   17.3719   71.4684   -5.9545 N   0  0  0  0  0  0  0  0  0  0  0  0
   17.9256   71.7633   -8.2464 N   0  0  0  0  0  0  0  0  0  0  0  0
   16.9571   71.8830   -7.2415 C   0  0  0  0  0  0  0  0  0  0  0  0
   18.6608   70.9846   -5.7580 C   0  0  0  0  0  0  0  0  0  0  0  0
   19.5720   70.8755   -6.7271 C   0  0  0  0  0  0  0  0  0  0  0  0
   19.2190   71.2872   -8.1011 C   0  0  0  0  0  0  0  0  0  0  0  0
   17.6590   72.0457   -9.1513 H   0  0  0  0  0  0  0  0  0  0  0  0
   20.8524   71.1110   -2.4906 O   0  0  0  0  0  0  0  0  0  0  0  0
   22.1070   70.2978   -1.8760 P   0  0  2  0  0  0  0  0  0  0  0  0
   23.3842   70.9998   -2.5785 O   0  0  0  0  0  0  0  0  0  0  0  0
   22.0321   68.8112   -2.0716 O   0  0  0  0  0  0  0  0  0  0  0  0
   22.1815   70.7666   -0.3334 O   0  0  0  0  0  0  0  0  0  0  0  0
   23.5589   72.4875    0.5369 O   0  0  0  0  0  0  0  0  0  0  0  0
   23.3731   70.0462    3.8620 O   0  0  0  0  0  0  0  0  0  0  0  0
   21.9374   72.5334    3.8471 O   0  0  0  0  0  0  0  0  0  0  0  0
   23.5559   68.8766    1.2204 O   0  0  0  0  0  0  0  0  0  0  0  0
   22.8768   70.6718    2.6755 C   0  0  1  0  0  0  0  0  0  0  0  0
   22.9226   72.1877    2.8776 C   0  0  1  0  0  0  0  0  0  0  0  0
   23.7501   70.2605    1.4917 C   0  0  2  0  0  0  0  0  0  0  0  0
   22.6601   72.9303    1.5606 C   0  0  1  0  0  0  0  0  0  0  0  0
   23.4419   71.0934    0.2461 C   0  0  1  0  0  0  0  0  0  0  0  0
   22.8226   70.3028    4.6174 H   0  0  0  0  0  0  0  0  0  0  0  0
   22.1143   72.0574    4.6737 H   0  0  0  0  0  0  0  0  0  0  0  0
   23.7546   68.3602    2.0164 H   0  0  0  0  0  0  0  0  0  0  0  0
   23.6749   74.6782    2.8349 O   0  0  0  0  0  0  0  0  0  0  0  0
   22.8564   74.4378    1.7051 C   0  0  0  0  0  0  0  0  0  0  0  0
   23.8087   75.6336    2.9391 H   0  0  0  0  0  0  0  0  0  0  0  0
 25 28  1  0
 25 24  1  0
 25 26  1  6
 25 27  2  0
  1  4  1  0
  1 24  1  0
  1  2  1  1
  1  3  2  0
  6 11  1  0
  6 12  1  0
 29 36  1  0
 29 37  1  0
  9  7  1  6
  7 13  1  0
 10  8  1  6
  8 14  1  0
 37 28  1  1
  4  5  1  0
 33 30  1  1
 30 38  1  0
 34 31  1  1
 31 39  1  0
 35 32  1  6
 32 40  1  0
 41 42  1  0
 41 43  1  0
 15 19  2  0
 16 22  2  0
 12 17  1  6
 17 19  1  0
 17 20  1  0
 18 19  1  0
 18 22  1  0
 18 23  1  0
  9 10  1  0
  9 11  1  0
 10 12  1  0
 11  5  1  6
 33 34  1  0
 33 35  1  0
 34 36  1  0
 35 37  1  0
 36 42  1  1
 20 21  2  0
 21 22  1  0
M  CHG  2   2  -1  26  -1
M  END
>  <COMPND>  (83) 
    8629 

>  <AUTHOR>  (83) 
    GENERATED BY OPEN BABEL 3.1.1

>  <MASTER>  (83) 
        0    0    0    0    0    0    0    0   58    0   58    0

>  <minimizedAffinity>  (83) 
-7.31119

>  <CNNscore>  (83) 
0.5780977607

>  <CNNaffinity>  (83) 
4.2239046097

>  <CNN_VS>  (83) 
2.4418296814

>  <CNNaffinity_variance>  (83) 
0.0568670556

$$$$
84
     RDKit          3D

 43 45  0  0  0  0  0  0  0  0999 V2000
   22.6094   73.4440   -4.1252 P   0  0  2  0  0  0  0  0  0  0  0  0
   22.6321   74.8889   -4.8525 O   0  0  0  0  0  0  0  0  0  0  0  0
   23.8855   72.6617   -4.2297 O   0  0  0  0  0  0  0  0  0  0  0  0
   21.2927   72.7248   -4.7310 O   0  0  0  0  0  0  0  0  0  0  0  0
   20.2125   73.5382   -5.1544 C   0  0  0  0  0  0  0  0  0  0  0  0
   19.6010   71.6417   -6.4973 O   0  0  0  0  0  0  0  0  0  0  0  0
   18.3115   73.6098   -8.3560 O   0  0  0  0  0  0  0  0  0  0  0  0
   16.1835   72.6243   -6.9643 O   0  0  0  0  0  0  0  0  0  0  0  0
   18.3947   73.6346   -6.9320 C   0  0  1  0  0  0  0  0  0  0  0  0
   17.4473   72.6168   -6.3321 C   0  0  2  0  0  0  0  0  0  0  0  0
   19.7551   73.0775   -6.5317 C   0  0  1  0  0  0  0  0  0  0  0  0
   18.2023   71.3166   -6.5502 C   0  0  2  0  0  0  0  0  0  0  0  0
   17.4512   73.9614   -8.6356 H   0  0  0  0  0  0  0  0  0  0  0  0
   15.7428   73.4718   -6.7962 H   0  0  0  0  0  0  0  0  0  0  0  0
   15.8783   69.7121   -6.5024 O   0  0  0  0  0  0  0  0  0  0  0  0
   17.1949   67.5995   -2.6236 O   0  0  0  0  0  0  0  0  0  0  0  0
   17.9124   70.3388   -5.5397 N   0  0  0  0  0  0  0  0  0  0  0  0
   16.5358   68.6614   -4.5712 N   0  0  0  0  0  0  0  0  0  0  0  0
   16.7167   69.5863   -5.6075 C   0  0  0  0  0  0  0  0  0  0  0  0
   18.8087   70.1337   -4.4964 C   0  0  0  0  0  0  0  0  0  0  0  0
   18.6208   69.2487   -3.5152 C   0  0  0  0  0  0  0  0  0  0  0  0
   17.3967   68.4219   -3.5118 C   0  0  0  0  0  0  0  0  0  0  0  0
   15.7097   68.1261   -4.5975 H   0  0  0  0  0  0  0  0  0  0  0  0
   22.1634   73.8048   -2.6139 O   0  0  0  0  0  0  0  0  0  0  0  0
   23.0123   74.3845   -1.3664 P   0  0  2  0  0  0  0  0  0  0  0  0
   21.9249   75.2660   -0.5553 O   0  0  0  0  0  0  0  0  0  0  0  0
   24.2497   75.1375   -1.7609 O   0  0  0  0  0  0  0  0  0  0  0  0
   23.2817   73.1019   -0.4244 O   0  0  0  0  0  0  0  0  0  0  0  0
   22.3664   70.9249   -0.6226 O   0  0  0  0  0  0  0  0  0  0  0  0
   22.6697   71.1411    3.4898 O   0  0  0  0  0  0  0  0  0  0  0  0
   24.4788   69.4625    2.0210 O   0  0  0  0  0  0  0  0  0  0  0  0
   21.8766   73.4773    1.9756 O   0  0  0  0  0  0  0  0  0  0  0  0
   23.0680   71.3904    2.1391 C   0  0  1  0  0  0  0  0  0  0  0  0
   23.3081   70.0438    1.4536 C   0  0  1  0  0  0  0  0  0  0  0  0
   21.9613   72.1663    1.4273 C   0  0  2  0  0  0  0  0  0  0  0  0
   23.4777   70.2161   -0.0619 C   0  0  1  0  0  0  0  0  0  0  0  0
   22.2019   72.2372   -0.0817 C   0  0  1  0  0  0  0  0  0  0  0  0
   23.3683   70.6492    3.9475 H   0  0  0  0  0  0  0  0  0  0  0  0
   24.3588   69.3596    2.9781 H   0  0  0  0  0  0  0  0  0  0  0  0
   21.7239   73.4188    2.9312 H   0  0  0  0  0  0  0  0  0  0  0  0
   23.2860   67.8437    0.1477 O   0  0  0  0  0  0  0  0  0  0  0  0
   23.5609   68.8733   -0.7844 C   0  0  0  0  0  0  0  0  0  0  0  0
   23.3350   66.9832   -0.2982 H   0  0  0  0  0  0  0  0  0  0  0  0
 25 28  1  0
 25 24  1  0
 25 26  1  1
 25 27  2  0
  1  4  1  0
  1 24  1  0
  1  2  1  6
  1  3  2  0
  6 11  1  0
  6 12  1  0
 29 36  1  0
 29 37  1  0
  9  7  1  6
  7 13  1  0
 10  8  1  6
  8 14  1  0
 37 28  1  1
  4  5  1  0
 33 30  1  1
 30 38  1  0
 34 31  1  1
 31 39  1  0
 35 32  1  1
 32 40  1  0
 41 42  1  0
 41 43  1  0
 15 19  2  0
 16 22  2  0
 12 17  1  1
 17 19  1  0
 17 20  1  0
 18 19  1  0
 18 22  1  0
 18 23  1  0
  9 10  1  0
  9 11  1  0
 10 12  1  0
 11  5  1  1
 33 34  1  0
 33 35  1  0
 34 36  1  0
 35 37  1  0
 36 42  1  6
 20 21  2  0
 21 22  1  0
M  CHG  2   2  -1  26  -1
M  END
>  <COMPND>  (84) 
    8629 

>  <AUTHOR>  (84) 
    GENERATED BY OPEN BABEL 3.1.1

>  <MASTER>  (84) 
        0    0    0    0    0    0    0    0   58    0   58    0

>  <minimizedAffinity>  (84) 
-7.78711

>  <CNNscore>  (84) 
0.5704848170

>  <CNNaffinity>  (84) 
4.2738928795

>  <CNN_VS>  (84) 
2.4381909370

>  <CNNaffinity_variance>  (84) 
0.3598611057

$$$$
85
     RDKit          3D

 43 45  0  0  0  0  0  0  0  0999 V2000
   21.8967   70.6602   -2.5945 P   0  0  2  0  0  0  0  0  0  0  0  0
   20.8388   71.6786   -1.9153 O   0  0  0  0  0  0  0  0  0  0  0  0
   22.7574   71.2622   -3.6660 O   0  0  0  0  0  0  0  0  0  0  0  0
   20.9873   69.4012   -3.0483 O   0  0  0  0  0  0  0  0  0  0  0  0
   19.8403   69.6473   -3.8431 C   0  0  0  0  0  0  0  0  0  0  0  0
   17.6904   70.5179   -3.2156 O   0  0  0  0  0  0  0  0  0  0  0  0
   17.0477   67.7423   -2.2806 O   0  0  0  0  0  0  0  0  0  0  0  0
   15.7866   67.8631   -4.6954 O   0  0  0  0  0  0  0  0  0  0  0  0
   17.8242   68.1593   -3.4025 C   0  0  1  0  0  0  0  0  0  0  0  0
   16.9222   68.6813   -4.5014 C   0  0  2  0  0  0  0  0  0  0  0  0
   18.5939   69.4114   -3.0011 C   0  0  1  0  0  0  0  0  0  0  0  0
   16.5647   70.0647   -3.9851 C   0  0  2  0  0  0  0  0  0  0  0  0
   16.5474   66.9437   -2.5127 H   0  0  0  0  0  0  0  0  0  0  0  0
   16.0661   66.9944   -5.0242 H   0  0  0  0  0  0  0  0  0  0  0  0
   15.2568   72.5465   -3.6565 O   0  0  0  0  0  0  0  0  0  0  0  0
   15.6771   73.5679   -8.1310 O   0  0  0  0  0  0  0  0  0  0  0  0
   16.3193   70.9991   -5.0471 N   0  0  0  0  0  0  0  0  0  0  0  0
   15.4673   73.0531   -5.8847 N   0  0  0  0  0  0  0  0  0  0  0  0
   15.6534   72.2172   -4.7763 C   0  0  0  0  0  0  0  0  0  0  0  0
   16.7375   70.7041   -6.3402 C   0  0  0  0  0  0  0  0  0  0  0  0
   16.5512   71.5114   -7.3865 C   0  0  0  0  0  0  0  0  0  0  0  0
   15.8636   72.8038   -7.1891 C   0  0  0  0  0  0  0  0  0  0  0  0
   15.0053   73.9071   -5.7200 H   0  0  0  0  0  0  0  0  0  0  0  0
   22.7108   70.0811   -1.3237 O   0  0  0  0  0  0  0  0  0  0  0  0
   22.1950   69.5255    0.1039 P   0  0  2  0  0  0  0  0  0  0  0  0
   23.4915   68.7585    0.6940 O   0  0  0  0  0  0  0  0  0  0  0  0
   20.9577   68.6789    0.0242 O   0  0  0  0  0  0  0  0  0  0  0  0
   22.0461   70.8424    1.0251 O   0  0  0  0  0  0  0  0  0  0  0  0
   23.4983   72.6814    0.6701 O   0  0  0  0  0  0  0  0  0  0  0  0
   22.3038   73.5199    4.5329 O   0  0  0  0  0  0  0  0  0  0  0  0
   21.3187   75.1244    2.3642 O   0  0  0  0  0  0  0  0  0  0  0  0
   22.7826   70.7796    3.7323 O   0  0  0  0  0  0  0  0  0  0  0  0
   22.1450   73.0393    3.1953 C   0  0  1  0  0  0  0  0  0  0  0  0
   22.3977   74.2029    2.2345 C   0  0  1  0  0  0  0  0  0  0  0  0
   23.1448   71.9112    2.9482 C   0  0  2  0  0  0  0  0  0  0  0  0
   22.5087   73.7105    0.7852 C   0  0  1  0  0  0  0  0  0  0  0  0
   23.2128   71.5308    1.4681 C   0  0  1  0  0  0  0  0  0  0  0  0
   21.6715   74.2361    4.6964 H   0  0  0  0  0  0  0  0  0  0  0  0
   21.2593   75.4272    3.2840 H   0  0  0  0  0  0  0  0  0  0  0  0
   22.7433   71.0333    4.6671 H   0  0  0  0  0  0  0  0  0  0  0  0
   21.7622   75.5788   -0.5036 O   0  0  0  0  0  0  0  0  0  0  0  0
   22.9165   74.8303   -0.1696 C   0  0  0  0  0  0  0  0  0  0  0  0
   22.0066   76.2954   -1.1106 H   0  0  0  0  0  0  0  0  0  0  0  0
 25 28  1  0
 25 24  1  0
 25 26  1  1
 25 27  2  0
  1  4  1  0
  1 24  1  0
  1  2  1  1
  1  3  2  0
  6 11  1  0
  6 12  1  0
 29 36  1  0
 29 37  1  0
  9  7  1  1
  7 13  1  0
 10  8  1  1
  8 14  1  0
 37 28  1  6
  4  5  1  0
 33 30  1  1
 30 38  1  0
 34 31  1  6
 31 39  1  0
 35 32  1  1
 32 40  1  0
 41 42  1  0
 41 43  1  0
 15 19  2  0
 16 22  2  0
 12 17  1  6
 17 19  1  0
 17 20  1  0
 18 19  1  0
 18 22  1  0
 18 23  1  0
  9 10  1  0
  9 11  1  0
 10 12  1  0
 11  5  1  6
 33 34  1  0
 33 35  1  0
 34 36  1  0
 35 37  1  0
 36 42  1  6
 20 21  2  0
 21 22  1  0
M  CHG  2   2  -1  26  -1
M  END
>  <COMPND>  (85) 
    8629 

>  <AUTHOR>  (85) 
    GENERATED BY OPEN BABEL 3.1.1

>  <MASTER>  (85) 
        0    0    0    0    0    0    0    0   58    0   58    0

>  <minimizedAffinity>  (85) 
-8.04527

>  <CNNscore>  (85) 
0.5408293605

>  <CNNaffinity>  (85) 
4.3844633102

>  <CNN_VS>  (85) 
2.3712465763

>  <CNNaffinity_variance>  (85) 
0.2449478358

$$$$
86
     RDKit          3D

 43 45  0  0  0  0  0  0  0  0999 V2000
   22.9797   71.7821   -3.2237 P   0  0  2  0  0  0  0  0  0  0  0  0
   23.6528   70.3136   -3.1353 O   0  0  0  0  0  0  0  0  0  0  0  0
   23.6725   72.7424   -4.1452 O   0  0  0  0  0  0  0  0  0  0  0  0
   22.8639   72.2499   -1.6792 O   0  0  0  0  0  0  0  0  0  0  0  0
   22.2626   71.3667   -0.7485 C   0  0  0  0  0  0  0  0  0  0  0  0
   24.2121   71.8146    0.5829 O   0  0  0  0  0  0  0  0  0  0  0  0
   23.7609   69.1182    1.8143 O   0  0  0  0  0  0  0  0  0  0  0  0
   22.7516   70.8094    3.7005 O   0  0  0  0  0  0  0  0  0  0  0  0
   22.8041   70.0835    1.3807 C   0  0  1  0  0  0  0  0  0  0  0  0
   22.7467   71.2414    2.3551 C   0  0  2  0  0  0  0  0  0  0  0  0
   23.3482   70.7518    0.1242 C   0  0  1  0  0  0  0  0  0  0  0  0
   23.9957   72.0245    1.9879 C   0  0  2  0  0  0  0  0  0  0  0  0
   23.4353   68.6778    2.6156 H   0  0  0  0  0  0  0  0  0  0  0  0
   21.9369   70.3164    3.8850 H   0  0  0  0  0  0  0  0  0  0  0  0
   26.1398   73.7738    2.5544 O   0  0  0  0  0  0  0  0  0  0  0  0
   23.3236   77.4046    2.9105 O   0  0  0  0  0  0  0  0  0  0  0  0
   23.8514   73.4319    2.2324 N   0  0  0  0  0  0  0  0  0  0  0  0
   24.7358   75.5803    2.7311 N   0  0  0  0  0  0  0  0  0  0  0  0
   24.9921   74.2213    2.5086 C   0  0  0  0  0  0  0  0  0  0  0  0
   22.5898   74.0157    2.1967 C   0  0  0  0  0  0  0  0  0  0  0  0
   22.3622   75.3130    2.4123 C   0  0  0  0  0  0  0  0  0  0  0  0
   23.5001   76.2073    2.7076 C   0  0  0  0  0  0  0  0  0  0  0  0
   25.5154   76.1496    2.9257 H   0  0  0  0  0  0  0  0  0  0  0  0
   21.4469   71.4560   -3.6204 O   0  0  0  0  0  0  0  0  0  0  0  0
   20.1724   72.4297   -3.8216 P   0  0  2  0  0  0  0  0  0  0  0  0
   20.8098   73.9098   -3.6784 O   0  0  0  0  0  0  0  0  0  0  0  0
   19.0326   72.1529   -2.8844 O   0  0  0  0  0  0  0  0  0  0  0  0
   19.7992   72.2962   -5.3862 O   0  0  0  0  0  0  0  0  0  0  0  0
   18.5876   70.2696   -5.5901 O   0  0  0  0  0  0  0  0  0  0  0  0
   18.5912   71.4376   -9.5507 O   0  0  0  0  0  0  0  0  0  0  0  0
   16.1638   71.6055   -8.0251 O   0  0  0  0  0  0  0  0  0  0  0  0
   20.9396   71.8723   -7.9150 O   0  0  0  0  0  0  0  0  0  0  0  0
   18.5529   71.6336   -8.1346 C   0  0  1  0  0  0  0  0  0  0  0  0
   17.3245   70.9073   -7.5830 C   0  0  1  0  0  0  0  0  0  0  0  0
   19.8322   71.0707   -7.5181 C   0  0  2  0  0  0  0  0  0  0  0  0
   17.3594   70.8456   -6.0500 C   0  0  1  0  0  0  0  0  0  0  0  0
   19.7434   71.0074   -5.9922 C   0  0  1  0  0  0  0  0  0  0  0  0
   17.7820   71.7933   -9.9484 H   0  0  0  0  0  0  0  0  0  0  0  0
   16.1541   71.6377   -8.9947 H   0  0  0  0  0  0  0  0  0  0  0  0
   20.9851   71.9042   -8.8829 H   0  0  0  0  0  0  0  0  0  0  0  0
   15.7434   70.6058   -4.3065 O   0  0  0  0  0  0  0  0  0  0  0  0
   16.2269   69.9902   -5.4861 C   0  0  0  0  0  0  0  0  0  0  0  0
   15.0219   70.0725   -3.9366 H   0  0  0  0  0  0  0  0  0  0  0  0
 25 28  1  0
 25 24  1  0
 25 26  1  6
 25 27  2  0
  1  4  1  0
  1 24  1  0
  1  2  1  1
  1  3  2  0
  6 11  1  0
  6 12  1  0
 29 36  1  0
 29 37  1  0
  9  7  1  1
  7 13  1  0
 10  8  1  1
  8 14  1  0
 37 28  1  1
  4  5  1  0
 33 30  1  6
 30 38  1  0
 34 31  1  1
 31 39  1  0
 35 32  1  1
 32 40  1  0
 41 42  1  0
 41 43  1  0
 15 19  2  0
 16 22  2  0
 12 17  1  6
 17 19  1  0
 17 20  1  0
 18 19  1  0
 18 22  1  0
 18 23  1  0
  9 10  1  0
  9 11  1  0
 10 12  1  0
 11  5  1  6
 33 34  1  0
 33 35  1  0
 34 36  1  0
 35 37  1  0
 36 42  1  6
 20 21  2  0
 21 22  1  0
M  CHG  2   2  -1  26  -1
M  END
>  <COMPND>  (86) 
    8629 

>  <AUTHOR>  (86) 
    GENERATED BY OPEN BABEL 3.1.1

>  <MASTER>  (86) 
        0    0    0    0    0    0    0    0   58    0   58    0

>  <minimizedAffinity>  (86) 
-7.57322

>  <CNNscore>  (86) 
0.5020968914

>  <CNNaffinity>  (86) 
4.0807409286

>  <CNN_VS>  (86) 
2.0489273071

>  <CNNaffinity_variance>  (86) 
0.0407473817

$$$$
87
     RDKit          3D

 43 45  0  0  0  0  0  0  0  0999 V2000
   22.9852   74.2351   -3.3714 P   0  0  2  0  0  0  0  0  0  0  0  0
   24.2999   73.6463   -4.1076 O   0  0  0  0  0  0  0  0  0  0  0  0
   23.1039   75.6556   -2.9028 O   0  0  0  0  0  0  0  0  0  0  0  0
   22.6599   73.1416   -2.2242 O   0  0  0  0  0  0  0  0  0  0  0  0
   21.8919   72.0032   -2.5735 C   0  0  0  0  0  0  0  0  0  0  0  0
   23.3850   70.9848   -0.9900 O   0  0  0  0  0  0  0  0  0  0  0  0
   22.5880   68.3631   -2.2075 O   0  0  0  0  0  0  0  0  0  0  0  0
   21.0934   68.4387    0.0722 O   0  0  0  0  0  0  0  0  0  0  0  0
   21.7991   69.5303   -1.9825 C   0  0  1  0  0  0  0  0  0  0  0  0
   21.4733   69.6689   -0.5100 C   0  0  2  0  0  0  0  0  0  0  0  0
   22.6814   70.7477   -2.2290 C   0  0  1  0  0  0  0  0  0  0  0  0
   22.7794   70.2034    0.0527 C   0  0  2  0  0  0  0  0  0  0  0  0
   22.0457   67.5725   -2.0564 H   0  0  0  0  0  0  0  0  0  0  0  0
   20.2572   68.1404   -0.3185 H   0  0  0  0  0  0  0  0  0  0  0  0
   23.7924   69.6385    2.6281 O   0  0  0  0  0  0  0  0  0  0  0  0
   21.9471   73.4743    4.3953 O   0  0  0  0  0  0  0  0  0  0  0  0
   22.5791   71.0375    1.2041 N   0  0  0  0  0  0  0  0  0  0  0  0
   22.8729   71.5490    3.5059 N   0  0  0  0  0  0  0  0  0  0  0  0
   23.1295   70.6628    2.4519 C   0  0  0  0  0  0  0  0  0  0  0  0
   21.8443   72.2125    1.0891 C   0  0  0  0  0  0  0  0  0  0  0  0
   21.6076   73.0461    2.1042 C   0  0  0  0  0  0  0  0  0  0  0  0
   22.1474   72.7281    3.4419 C   0  0  0  0  0  0  0  0  0  0  0  0
   23.2462   71.3083    4.3848 H   0  0  0  0  0  0  0  0  0  0  0  0
   21.8156   73.9807   -4.4579 O   0  0  0  0  0  0  0  0  0  0  0  0
   21.8175   74.1090   -6.0693 P   0  0  2  0  0  0  0  0  0  0  0  0
   22.6484   72.8047   -6.5444 O   0  0  0  0  0  0  0  0  0  0  0  0
   22.3617   75.4107   -6.5823 O   0  0  0  0  0  0  0  0  0  0  0  0
   20.2939   73.8028   -6.5052 O   0  0  0  0  0  0  0  0  0  0  0  0
   20.2401   72.7826   -8.6436 O   0  0  0  0  0  0  0  0  0  0  0  0
   16.1914   73.3830   -8.0969 O   0  0  0  0  0  0  0  0  0  0  0  0
   17.2665   70.7253   -7.9268 O   0  0  0  0  0  0  0  0  0  0  0  0
   18.0819   75.3835   -7.2004 O   0  0  0  0  0  0  0  0  0  0  0  0
   17.5316   73.0907   -7.6922 C   0  0  1  0  0  0  0  0  0  0  0  0
   17.9954   71.8378   -8.4378 C   0  0  1  0  0  0  0  0  0  0  0  0
   18.4266   74.2810   -8.0323 C   0  0  2  0  0  0  0  0  0  0  0  0
   19.5035   71.6149   -8.2619 C   0  0  1  0  0  0  0  0  0  0  0  0
   19.9086   73.9378   -7.8707 C   0  0  1  0  0  0  0  0  0  0  0  0
   15.6179   72.6314   -7.8833 H   0  0  0  0  0  0  0  0  0  0  0  0
   16.3157   70.8789   -8.0436 H   0  0  0  0  0  0  0  0  0  0  0  0
   17.1415   75.5911   -7.3121 H   0  0  0  0  0  0  0  0  0  0  0  0
   19.0562   70.1926  -10.1290 O   0  0  0  0  0  0  0  0  0  0  0  0
   20.0157   70.4629   -9.1237 C   0  0  0  0  0  0  0  0  0  0  0  0
   19.3690   69.4617  -10.6854 H   0  0  0  0  0  0  0  0  0  0  0  0
 25 28  1  0
 25 24  1  0
 25 26  1  6
 25 27  2  0
  1  4  1  0
  1 24  1  0
  1  2  1  6
  1  3  2  0
  6 11  1  0
  6 12  1  0
 29 36  1  0
 29 37  1  0
  9  7  1  1
  7 13  1  0
 10  8  1  1
  8 14  1  0
 37 28  1  1
  4  5  1  0
 33 30  1  6
 30 38  1  0
 34 31  1  1
 31 39  1  0
 35 32  1  1
 32 40  1  0
 41 42  1  0
 41 43  1  0
 15 19  2  0
 16 22  2  0
 12 17  1  1
 17 19  1  0
 17 20  1  0
 18 19  1  0
 18 22  1  0
 18 23  1  0
  9 10  1  0
  9 11  1  0
 10 12  1  0
 11  5  1  1
 33 34  1  0
 33 35  1  0
 34 36  1  0
 35 37  1  0
 36 42  1  6
 20 21  2  0
 21 22  1  0
M  CHG  2   2  -1  26  -1
M  END
>  <COMPND>  (87) 
    8629 

>  <AUTHOR>  (87) 
    GENERATED BY OPEN BABEL 3.1.1

>  <MASTER>  (87) 
        0    0    0    0    0    0    0    0   58    0   58    0

>  <minimizedAffinity>  (87) 
-7.75177

>  <CNNscore>  (87) 
0.4087768495

>  <CNNaffinity>  (87) 
3.8396077156

>  <CNN_VS>  (87) 
1.5695427656

>  <CNNaffinity_variance>  (87) 
0.4377740026

$$$$
88
     RDKit          3D

 43 45  0  0  0  0  0  0  0  0999 V2000
   19.8070   74.0554   -4.3283 P   0  0  2  0  0  0  0  0  0  0  0  0
   19.8038   75.2425   -3.2291 O   0  0  0  0  0  0  0  0  0  0  0  0
   20.2086   74.4741   -5.7121 O   0  0  0  0  0  0  0  0  0  0  0  0
   18.3355   73.3966   -4.1928 O   0  0  0  0  0  0  0  0  0  0  0  0
   17.9553   72.8418   -2.9456 C   0  0  0  0  0  0  0  0  0  0  0  0
   16.8078   71.5477   -4.6135 O   0  0  0  0  0  0  0  0  0  0  0  0
   16.5778   69.4074   -2.5261 O   0  0  0  0  0  0  0  0  0  0  0  0
   18.6579   68.5266   -4.0539 O   0  0  0  0  0  0  0  0  0  0  0  0
   17.6454   70.3229   -2.7657 C   0  0  1  0  0  0  0  0  0  0  0  0
   18.4172   69.9181   -4.0043 C   0  0  2  0  0  0  0  0  0  0  0  0
   17.0362   71.6531   -3.1912 C   0  0  1  0  0  0  0  0  0  0  0  0
   17.4983   70.3925   -5.1172 C   0  0  2  0  0  0  0  0  0  0  0  0
   16.9422   68.5505   -2.2527 H   0  0  0  0  0  0  0  0  0  0  0  0
   19.2472   68.2741   -3.3261 H   0  0  0  0  0  0  0  0  0  0  0  0
   16.3226   70.7072   -7.6661 O   0  0  0  0  0  0  0  0  0  0  0  0
   20.3615   71.8052   -9.5956 O   0  0  0  0  0  0  0  0  0  0  0  0
   18.2191   70.7605   -6.3032 N   0  0  0  0  0  0  0  0  0  0  0  0
   18.3346   71.2538   -8.6247 N   0  0  0  0  0  0  0  0  0  0  0  0
   17.5344   70.8910   -7.5339 C   0  0  0  0  0  0  0  0  0  0  0  0
   19.5894   70.9882   -6.2386 C   0  0  0  0  0  0  0  0  0  0  0  0
   20.3383   71.3323   -7.2883 C   0  0  0  0  0  0  0  0  0  0  0  0
   19.7002   71.4897   -8.6112 C   0  0  0  0  0  0  0  0  0  0  0  0
   17.8792   71.3503   -9.4926 H   0  0  0  0  0  0  0  0  0  0  0  0
   20.7671   72.9413   -3.6574 O   0  0  0  0  0  0  0  0  0  0  0  0
   22.3771   72.8600   -3.5386 P   0  0  2  0  0  0  0  0  0  0  0  0
   22.7674   74.2572   -2.8224 O   0  0  0  0  0  0  0  0  0  0  0  0
   23.0788   72.6157   -4.8432 O   0  0  0  0  0  0  0  0  0  0  0  0
   22.6474   71.7354   -2.4129 O   0  0  0  0  0  0  0  0  0  0  0  0
   22.1841   69.4159   -2.2640 O   0  0  0  0  0  0  0  0  0  0  0  0
   21.1389   70.5451    1.5680 O   0  0  0  0  0  0  0  0  0  0  0  0
   23.5522   69.0482    1.1393 O   0  0  0  0  0  0  0  0  0  0  0  0
   20.5175   72.2759   -0.6675 O   0  0  0  0  0  0  0  0  0  0  0  0
   21.8999   70.5910    0.3579 C   0  0  1  0  0  0  0  0  0  0  0  0
   22.5459   69.2206    0.1453 C   0  0  1  0  0  0  0  0  0  0  0  0
   20.9694   70.9329   -0.8042 C   0  0  2  0  0  0  0  0  0  0  0  0
   23.1563   69.1076   -1.2582 C   0  0  1  0  0  0  0  0  0  0  0  0
   21.6596   70.7407   -2.1558 C   0  0  1  0  0  0  0  0  0  0  0  0
   21.7240   70.3289    2.3099 H   0  0  0  0  0  0  0  0  0  0  0  0
   23.1537   69.1223    2.0207 H   0  0  0  0  0  0  0  0  0  0  0  0
   20.0822   72.3846    0.1919 H   0  0  0  0  0  0  0  0  0  0  0  0
   23.3334   66.8651   -0.4527 O   0  0  0  0  0  0  0  0  0  0  0  0
   23.6664   67.6977   -1.5482 C   0  0  0  0  0  0  0  0  0  0  0  0
   23.6517   65.9644   -0.6234 H   0  0  0  0  0  0  0  0  0  0  0  0
 25 28  1  0
 25 24  1  0
 25 26  1  1
 25 27  2  0
  1  4  1  0
  1 24  1  0
  1  2  1  1
  1  3  2  0
  6 11  1  0
  6 12  1  0
 29 36  1  0
 29 37  1  0
  9  7  1  6
  7 13  1  0
 10  8  1  1
  8 14  1  0
 37 28  1  1
  4  5  1  0
 33 30  1  1
 30 38  1  0
 34 31  1  1
 31 39  1  0
 35 32  1  1
 32 40  1  0
 41 42  1  0
 41 43  1  0
 15 19  2  0
 16 22  2  0
 12 17  1  6
 17 19  1  0
 17 20  1  0
 18 19  1  0
 18 22  1  0
 18 23  1  0
  9 10  1  0
  9 11  1  0
 10 12  1  0
 11  5  1  6
 33 34  1  0
 33 35  1  0
 34 36  1  0
 35 37  1  0
 36 42  1  6
 20 21  2  0
 21 22  1  0
M  CHG  2   2  -1  26  -1
M  END
>  <COMPND>  (88) 
    8629 

>  <AUTHOR>  (88) 
    GENERATED BY OPEN BABEL 3.1.1

>  <MASTER>  (88) 
        0    0    0    0    0    0    0    0   58    0   58    0

>  <minimizedAffinity>  (88) 
-7.17780

>  <CNNscore>  (88) 
0.3999538124

>  <CNNaffinity>  (88) 
4.1514968872

>  <CNN_VS>  (88) 
1.6604070663

>  <CNNaffinity_variance>  (88) 
0.2465670854

$$$$
89
     RDKit          3D

 43 45  0  0  0  0  0  0  0  0999 V2000
   22.1218   72.6139   -4.2206 P   0  0  2  0  0  0  0  0  0  0  0  0
   21.3711   73.8630   -3.5180 O   0  0  0  0  0  0  0  0  0  0  0  0
   23.4487   72.9395   -4.8408 O   0  0  0  0  0  0  0  0  0  0  0  0
   21.0077   72.0053   -5.2237 O   0  0  0  0  0  0  0  0  0  0  0  0
   20.6296   72.7676   -6.3567 C   0  0  0  0  0  0  0  0  0  0  0  0
   19.2215   70.8459   -6.6702 O   0  0  0  0  0  0  0  0  0  0  0  0
   18.8718   71.7958   -9.4927 O   0  0  0  0  0  0  0  0  0  0  0  0
   16.5615   72.6167   -8.2987 O   0  0  0  0  0  0  0  0  0  0  0  0
   18.9921   72.5579   -8.2927 C   0  0  1  0  0  0  0  0  0  0  0  0
   17.7112   72.4786   -7.4887 C   0  0  2  0  0  0  0  0  0  0  0  0
   19.9840   71.8453   -7.3818 C   0  0  1  0  0  0  0  0  0  0  0  0
   17.8198   71.1008   -6.8579 C   0  0  2  0  0  0  0  0  0  0  0  0
   18.2435   72.2316  -10.0906 H   0  0  0  0  0  0  0  0  0  0  0  0
   16.5377   73.5096   -8.6769 H   0  0  0  0  0  0  0  0  0  0  0  0
   16.2405   68.9200   -6.0048 O   0  0  0  0  0  0  0  0  0  0  0  0
   15.3280   70.9278   -1.9579 O   0  0  0  0  0  0  0  0  0  0  0  0
   17.1581   71.0271   -5.5859 N   0  0  0  0  0  0  0  0  0  0  0  0
   15.7876   69.9214   -3.9904 N   0  0  0  0  0  0  0  0  0  0  0  0
   16.3881   69.8876   -5.2554 C   0  0  0  0  0  0  0  0  0  0  0  0
   17.2763   72.0767   -4.6813 C   0  0  0  0  0  0  0  0  0  0  0  0
   16.6963   72.0940   -3.4795 C   0  0  0  0  0  0  0  0  0  0  0  0
   15.8743   70.9419   -3.0566 C   0  0  0  0  0  0  0  0  0  0  0  0
   15.2459   69.1385   -3.7386 H   0  0  0  0  0  0  0  0  0  0  0  0
   22.1841   71.5148   -3.0369 O   0  0  0  0  0  0  0  0  0  0  0  0
   21.0082   70.8019   -2.1872 P   0  0  2  0  0  0  0  0  0  0  0  0
   20.8283   69.3748   -2.9277 O   0  0  0  0  0  0  0  0  0  0  0  0
   19.7468   71.6097   -2.0846 O   0  0  0  0  0  0  0  0  0  0  0  0
   21.6894   70.4423   -0.7689 O   0  0  0  0  0  0  0  0  0  0  0  0
   23.2580   72.0681   -0.0529 O   0  0  0  0  0  0  0  0  0  0  0  0
   24.1284   69.0743    2.6545 O   0  0  0  0  0  0  0  0  0  0  0  0
   22.7432   71.4288    3.5408 O   0  0  0  0  0  0  0  0  0  0  0  0
   23.4900   68.4006   -0.0875 O   0  0  0  0  0  0  0  0  0  0  0  0
   23.2845   69.8655    1.8134 C   0  0  1  0  0  0  0  0  0  0  0  0
   23.3812   71.3221    2.2712 C   0  0  1  0  0  0  0  0  0  0  0  0
   23.7501   69.7249    0.3654 C   0  0  2  0  0  0  0  0  0  0  0  0
   22.7183   72.2661    1.2590 C   0  0  1  0  0  0  0  0  0  0  0  0
   23.0653   70.7421   -0.5493 C   0  0  1  0  0  0  0  0  0  0  0  0
   23.8379   69.1587    3.5753 H   0  0  0  0  0  0  0  0  0  0  0  0
   23.1710   70.8274    4.1705 H   0  0  0  0  0  0  0  0  0  0  0  0
   23.9291   67.7662    0.4996 H   0  0  0  0  0  0  0  0  0  0  0  0
   22.1135   74.0587    2.7183 O   0  0  0  0  0  0  0  0  0  0  0  0
   22.9402   73.7343    1.6158 C   0  0  0  0  0  0  0  0  0  0  0  0
   22.2444   74.9902    2.9568 H   0  0  0  0  0  0  0  0  0  0  0  0
 25 28  1  0
 25 24  1  0
 25 26  1  6
 25 27  2  0
  1  4  1  0
  1 24  1  0
  1  2  1  1
  1  3  2  0
  6 11  1  0
  6 12  1  0
 29 36  1  0
 29 37  1  0
  9  7  1  6
  7 13  1  0
 10  8  1  6
  8 14  1  0
 37 28  1  1
  4  5  1  0
 33 30  1  1
 30 38  1  0
 34 31  1  1
 31 39  1  0
 35 32  1  6
 32 40  1  0
 41 42  1  0
 41 43  1  0
 15 19  2  0
 16 22  2  0
 12 17  1  1
 17 19  1  0
 17 20  1  0
 18 19  1  0
 18 22  1  0
 18 23  1  0
  9 10  1  0
  9 11  1  0
 10 12  1  0
 11  5  1  1
 33 34  1  0
 33 35  1  0
 34 36  1  0
 35 37  1  0
 36 42  1  1
 20 21  2  0
 21 22  1  0
M  CHG  2   2  -1  26  -1
M  END
>  <COMPND>  (89) 
    8629 

>  <AUTHOR>  (89) 
    GENERATED BY OPEN BABEL 3.1.1

>  <MASTER>  (89) 
        0    0    0    0    0    0    0    0   58    0   58    0

>  <minimizedAffinity>  (89) 
-7.99436

>  <CNNscore>  (89) 
0.3895684183

>  <CNNaffinity>  (89) 
4.0653133392

>  <CNN_VS>  (89) 
1.5837177038

>  <CNNaffinity_variance>  (89) 
0.2731861174

$$$$
90
     RDKit          3D

 43 45  0  0  0  0  0  0  0  0999 V2000
   21.6071   70.4336   -2.3608 P   0  0  2  0  0  0  0  0  0  0  0  0
   23.1115   69.9517   -2.0114 O   0  0  0  0  0  0  0  0  0  0  0  0
   20.8445   71.0167   -1.2077 O   0  0  0  0  0  0  0  0  0  0  0  0
   20.9377   69.1386   -3.0629 O   0  0  0  0  0  0  0  0  0  0  0  0
   19.7972   69.3277   -3.8823 C   0  0  0  0  0  0  0  0  0  0  0  0
   17.6800   70.2637   -3.2381 O   0  0  0  0  0  0  0  0  0  0  0  0
   16.9402   67.4981   -2.3465 O   0  0  0  0  0  0  0  0  0  0  0  0
   15.6821   67.7018   -4.7573 O   0  0  0  0  0  0  0  0  0  0  0  0
   17.7300   67.9051   -3.4627 C   0  0  1  0  0  0  0  0  0  0  0  0
   16.8461   68.4762   -4.5518 C   0  0  2  0  0  0  0  0  0  0  0  0
   18.5439   69.1227   -3.0425 C   0  0  1  0  0  0  0  0  0  0  0  0
   16.5383   69.8629   -4.0131 C   0  0  2  0  0  0  0  0  0  0  0  0
   16.4118   66.7215   -2.5905 H   0  0  0  0  0  0  0  0  0  0  0  0
   15.9304   66.8292   -5.1002 H   0  0  0  0  0  0  0  0  0  0  0  0
   15.4127   72.4243   -3.6253 O   0  0  0  0  0  0  0  0  0  0  0  0
   15.7669   73.4589   -8.1025 O   0  0  0  0  0  0  0  0  0  0  0  0
   16.3252   70.8223   -5.0598 N   0  0  0  0  0  0  0  0  0  0  0  0
   15.5902   72.9375   -5.8549 N   0  0  0  0  0  0  0  0  0  0  0  0
   15.7522   72.0799   -4.7592 C   0  0  0  0  0  0  0  0  0  0  0  0
   16.6834   70.5123   -6.3673 C   0  0  0  0  0  0  0  0  0  0  0  0
   16.5211   71.3407   -7.4011 C   0  0  0  0  0  0  0  0  0  0  0  0
   15.9292   72.6747   -7.1727 C   0  0  0  0  0  0  0  0  0  0  0  0
   15.1925   73.8191   -5.6695 H   0  0  0  0  0  0  0  0  0  0  0  0
   21.8286   71.4457   -3.6016 O   0  0  0  0  0  0  0  0  0  0  0  0
   22.3875   72.9618   -3.6480 P   0  0  2  0  0  0  0  0  0  0  0  0
   23.7506   72.8285   -4.5092 O   0  0  0  0  0  0  0  0  0  0  0  0
   22.5672   73.5930   -2.2978 O   0  0  0  0  0  0  0  0  0  0  0  0
   21.3652   73.7444   -4.6215 O   0  0  0  0  0  0  0  0  0  0  0  0
   19.0558   74.2572   -4.4791 O   0  0  0  0  0  0  0  0  0  0  0  0
   19.2531   73.2036   -8.4668 O   0  0  0  0  0  0  0  0  0  0  0  0
   18.9189   75.9630   -7.7441 O   0  0  0  0  0  0  0  0  0  0  0  0
   20.8077   71.7441   -6.5091 O   0  0  0  0  0  0  0  0  0  0  0  0
   19.7312   73.7697   -7.2435 C   0  0  1  0  0  0  0  0  0  0  0  0
   18.7716   74.8850   -6.8240 C   0  0  1  0  0  0  0  0  0  0  0  0
   19.7862   72.6781   -6.1763 C   0  0  2  0  0  0  0  0  0  0  0  0
   19.0646   75.3592   -5.3941 C   0  0  1  0  0  0  0  0  0  0  0  0
   20.0342   73.2614   -4.7841 C   0  0  1  0  0  0  0  0  0  0  0  0
   19.2162   73.8914   -9.1488 H   0  0  0  0  0  0  0  0  0  0  0  0
   18.7316   75.6502   -8.6431 H   0  0  0  0  0  0  0  0  0  0  0  0
   20.6391   71.3818   -7.3924 H   0  0  0  0  0  0  0  0  0  0  0  0
   18.1846   77.5696   -5.6141 O   0  0  0  0  0  0  0  0  0  0  0  0
   18.0223   76.3590   -4.8983 C   0  0  0  0  0  0  0  0  0  0  0  0
   17.5275   78.2154   -5.3092 H   0  0  0  0  0  0  0  0  0  0  0  0
 25 28  1  0
 25 24  1  0
 25 26  1  6
 25 27  2  0
  1  4  1  0
  1 24  1  0
  1  2  1  1
  1  3  2  0
  6 11  1  0
  6 12  1  0
 29 36  1  0
 29 37  1  0
  9  7  1  1
  7 13  1  0
 10  8  1  1
  8 14  1  0
 37 28  1  6
  4  5  1  0
 33 30  1  6
 30 38  1  0
 34 31  1  6
 31 39  1  0
 35 32  1  6
 32 40  1  0
 41 42  1  0
 41 43  1  0
 15 19  2  0
 16 22  2  0
 12 17  1  6
 17 19  1  0
 17 20  1  0
 18 19  1  0
 18 22  1  0
 18 23  1  0
  9 10  1  0
  9 11  1  0
 10 12  1  0
 11  5  1  6
 33 34  1  0
 33 35  1  0
 34 36  1  0
 35 37  1  0
 36 42  1  1
 20 21  2  0
 21 22  1  0
M  CHG  2   2  -1  26  -1
M  END
>  <COMPND>  (90) 
    8629 

>  <AUTHOR>  (90) 
    GENERATED BY OPEN BABEL 3.1.1

>  <MASTER>  (90) 
        0    0    0    0    0    0    0    0   58    0   58    0

>  <minimizedAffinity>  (90) 
-6.42007

>  <CNNscore>  (90) 
0.3775276840

>  <CNNaffinity>  (90) 
3.9907009602

>  <CNN_VS>  (90) 
1.5066001415

>  <CNNaffinity_variance>  (90) 
0.5978765488

$$$$
91
     RDKit          3D

 43 45  0  0  0  0  0  0  0  0999 V2000
   22.0692   71.5712   -2.9478 P   0  0  2  0  0  0  0  0  0  0  0  0
   21.8950   73.0076   -2.2241 O   0  0  0  0  0  0  0  0  0  0  0  0
   23.4760   71.2243   -3.3376 O   0  0  0  0  0  0  0  0  0  0  0  0
   20.9950   71.6128   -4.1571 O   0  0  0  0  0  0  0  0  0  0  0  0
   21.1967   72.5405   -5.2090 C   0  0  0  0  0  0  0  0  0  0  0  0
   19.5618   71.0233   -6.1028 O   0  0  0  0  0  0  0  0  0  0  0  0
   19.7593   72.6027   -8.6439 O   0  0  0  0  0  0  0  0  0  0  0  0
   17.4636   73.5601   -7.5259 O   0  0  0  0  0  0  0  0  0  0  0  0
   19.8305   73.0549   -7.2927 C   0  0  1  0  0  0  0  0  0  0  0  0
   18.4541   73.0427   -6.6609 C   0  0  2  0  0  0  0  0  0  0  0  0
   20.5626   71.9938   -6.4807 C   0  0  1  0  0  0  0  0  0  0  0  0
   18.2571   71.5659   -6.3635 C   0  0  2  0  0  0  0  0  0  0  0  0
   19.2960   73.2642   -9.1821 H   0  0  0  0  0  0  0  0  0  0  0  0
   17.6326   74.5019   -7.6845 H   0  0  0  0  0  0  0  0  0  0  0  0
   16.1565   69.6806   -6.2579 O   0  0  0  0  0  0  0  0  0  0  0  0
   15.1202   70.8055   -1.9103 O   0  0  0  0  0  0  0  0  0  0  0  0
   17.4224   71.3449   -5.2164 N   0  0  0  0  0  0  0  0  0  0  0  0
   15.6423   70.2421   -4.0931 N   0  0  0  0  0  0  0  0  0  0  0  0
   16.3945   70.3747   -5.2673 C   0  0  0  0  0  0  0  0  0  0  0  0
   17.6271   72.0856   -4.0573 C   0  0  0  0  0  0  0  0  0  0  0  0
   16.9003   71.9480   -2.9465 C   0  0  0  0  0  0  0  0  0  0  0  0
   15.8064   70.9557   -2.9164 C   0  0  0  0  0  0  0  0  0  0  0  0
   14.9204   69.5725   -4.1054 H   0  0  0  0  0  0  0  0  0  0  0  0
   21.3914   70.5490   -1.8948 O   0  0  0  0  0  0  0  0  0  0  0  0
   21.9216   69.9776   -0.4787 P   0  0  2  0  0  0  0  0  0  0  0  0
   23.4486   69.5501   -0.7994 O   0  0  0  0  0  0  0  0  0  0  0  0
   21.0778   68.8765    0.0953 O   0  0  0  0  0  0  0  0  0  0  0  0
   22.0526   71.2808    0.4644 O   0  0  0  0  0  0  0  0  0  0  0  0
   23.8911   72.7758    0.5056 O   0  0  0  0  0  0  0  0  0  0  0  0
   22.6376   73.1634    4.4209 O   0  0  0  0  0  0  0  0  0  0  0  0
   22.1804   75.3084    2.5667 O   0  0  0  0  0  0  0  0  0  0  0  0
   22.5647   70.5729    3.1311 O   0  0  0  0  0  0  0  0  0  0  0  0
   22.4731   72.9768    3.0125 C   0  0  1  0  0  0  0  0  0  0  0  0
   23.0398   74.2044    2.2966 C   0  0  1  0  0  0  0  0  0  0  0  0
   23.2187   71.7137    2.5858 C   0  0  2  0  0  0  0  0  0  0  0  0
   23.1432   73.9652    0.7843 C   0  0  1  0  0  0  0  0  0  0  0  0
   23.3067   71.5970    1.0631 C   0  0  1  0  0  0  0  0  0  0  0  0
   22.1662   73.9635    4.6984 H   0  0  0  0  0  0  0  0  0  0  0  0
   22.1234   75.4485    3.5250 H   0  0  0  0  0  0  0  0  0  0  0  0
   22.5156   70.6587    4.0955 H   0  0  0  0  0  0  0  0  0  0  0  0
   24.5065   75.9106    1.0407 O   0  0  0  0  0  0  0  0  0  0  0  0
   23.8511   75.1148    0.0705 C   0  0  0  0  0  0  0  0  0  0  0  0
   24.9617   76.6461    0.6008 H   0  0  0  0  0  0  0  0  0  0  0  0
 25 28  1  0
 25 24  1  0
 25 26  1  6
 25 27  2  0
  1  4  1  0
  1 24  1  0
  1  2  1  1
  1  3  2  0
  6 11  1  0
  6 12  1  0
 29 36  1  0
 29 37  1  0
  9  7  1  6
  7 13  1  0
 10  8  1  6
  8 14  1  0
 37 28  1  6
  4  5  1  0
 33 30  1  1
 30 38  1  0
 34 31  1  6
 31 39  1  0
 35 32  1  6
 32 40  1  0
 41 42  1  0
 41 43  1  0
 15 19  2  0
 16 22  2  0
 12 17  1  1
 17 19  1  0
 17 20  1  0
 18 19  1  0
 18 22  1  0
 18 23  1  0
  9 10  1  0
  9 11  1  0
 10 12  1  0
 11  5  1  1
 33 34  1  0
 33 35  1  0
 34 36  1  0
 35 37  1  0
 36 42  1  6
 20 21  2  0
 21 22  1  0
M  CHG  2   2  -1  26  -1
M  END
>  <COMPND>  (91) 
    8629 

>  <AUTHOR>  (91) 
    GENERATED BY OPEN BABEL 3.1.1

>  <MASTER>  (91) 
        0    0    0    0    0    0    0    0   58    0   58    0

>  <minimizedAffinity>  (91) 
-7.00992

>  <CNNscore>  (91) 
0.3567934930

>  <CNNaffinity>  (91) 
4.0859708786

>  <CNN_VS>  (91) 
1.4578478336

>  <CNNaffinity_variance>  (91) 
0.0652348250

$$$$
92
     RDKit          3D

 43 45  0  0  0  0  0  0  0  0999 V2000
   18.8690   69.6509   -3.1472 P   0  0  2  0  0  0  0  0  0  0  0  0
   18.6944   71.0091   -2.2857 O   0  0  0  0  0  0  0  0  0  0  0  0
   18.2450   68.4296   -2.5386 O   0  0  0  0  0  0  0  0  0  0  0  0
   20.4618   69.5651   -3.4186 O   0  0  0  0  0  0  0  0  0  0  0  0
   21.3004   70.5490   -2.8385 C   0  0  0  0  0  0  0  0  0  0  0  0
   23.3988   70.7334   -1.6824 O   0  0  0  0  0  0  0  0  0  0  0  0
   23.9745   67.9624   -2.6727 O   0  0  0  0  0  0  0  0  0  0  0  0
   23.2111   67.5245   -0.0917 O   0  0  0  0  0  0  0  0  0  0  0  0
   22.7353   68.5312   -2.2530 C   0  0  1  0  0  0  0  0  0  0  0  0
   22.7045   68.6703   -0.7453 C   0  0  2  0  0  0  0  0  0  0  0  0
   22.7087   69.9853   -2.7072 C   0  0  1  0  0  0  0  0  0  0  0  0
   23.5694   69.8997   -0.5246 C   0  0  2  0  0  0  0  0  0  0  0  0
   24.0146   67.0336   -2.3942 H   0  0  0  0  0  0  0  0  0  0  0  0
   22.6264   66.7697   -0.2623 H   0  0  0  0  0  0  0  0  0  0  0  0
   24.2446   69.1732    2.1201 O   0  0  0  0  0  0  0  0  0  0  0  0
   22.0283   72.8109    3.8799 O   0  0  0  0  0  0  0  0  0  0  0  0
   23.1823   70.6391    0.6437 N   0  0  0  0  0  0  0  0  0  0  0  0
   23.1407   70.9852    2.9942 N   0  0  0  0  0  0  0  0  0  0  0  0
   23.5723   70.1882    1.9263 C   0  0  0  0  0  0  0  0  0  0  0  0
   22.4247   71.7977    0.5110 C   0  0  0  0  0  0  0  0  0  0  0  0
   22.0201   72.5458    1.5395 C   0  0  0  0  0  0  0  0  0  0  0  0
   22.3852   72.1443    2.9134 C   0  0  0  0  0  0  0  0  0  0  0  0
   23.4002   70.6904    3.8972 H   0  0  0  0  0  0  0  0  0  0  0  0
   18.2755   70.0596   -4.5942 O   0  0  0  0  0  0  0  0  0  0  0  0
   16.7560   70.3080   -5.0867 P   0  0  2  0  0  0  0  0  0  0  0  0
   16.0010   70.7812   -3.7363 O   0  0  0  0  0  0  0  0  0  0  0  0
   16.1280   69.1252   -5.7652 O   0  0  0  0  0  0  0  0  0  0  0  0
   16.8341   71.6381   -5.9976 O   0  0  0  0  0  0  0  0  0  0  0  0
   15.9935   72.3877   -8.0828 O   0  0  0  0  0  0  0  0  0  0  0  0
   19.9699   73.3850   -8.5774 O   0  0  0  0  0  0  0  0  0  0  0  0
   18.0305   75.4593   -8.1480 O   0  0  0  0  0  0  0  0  0  0  0  0
   19.2551   70.9270   -7.2258 O   0  0  0  0  0  0  0  0  0  0  0  0
   18.7542   73.1995   -7.8473 C   0  0  1  0  0  0  0  0  0  0  0  0
   17.6861   74.1111   -8.4547 C   0  0  1  0  0  0  0  0  0  0  0  0
   18.3309   71.7351   -7.9464 C   0  0  2  0  0  0  0  0  0  0  0  0
   16.2936   73.7767   -7.9032 C   0  0  1  0  0  0  0  0  0  0  0  0
   16.9123   71.5201   -7.4158 C   0  0  1  0  0  0  0  0  0  0  0  0
   20.2444   74.3127   -8.5180 H   0  0  0  0  0  0  0  0  0  0  0  0
   18.9121   75.6575   -8.5013 H   0  0  0  0  0  0  0  0  0  0  0  0
   20.1492   71.0720   -7.5714 H   0  0  0  0  0  0  0  0  0  0  0  0
   13.9604   74.2869   -7.9738 O   0  0  0  0  0  0  0  0  0  0  0  0
   15.1938   74.5657   -8.6105 C   0  0  0  0  0  0  0  0  0  0  0  0
   13.2511   74.7825   -8.4131 H   0  0  0  0  0  0  0  0  0  0  0  0
 25 28  1  0
 25 24  1  0
 25 26  1  1
 25 27  2  0
  1  4  1  0
  1 24  1  0
  1  2  1  1
  1  3  2  0
  6 11  1  0
  6 12  1  0
 29 36  1  0
 29 37  1  0
  9  7  1  1
  7 13  1  0
 10  8  1  1
  8 14  1  0
 37 28  1  1
  4  5  1  0
 33 30  1  6
 30 38  1  0
 34 31  1  1
 31 39  1  0
 35 32  1  1
 32 40  1  0
 41 42  1  0
 41 43  1  0
 15 19  2  0
 16 22  2  0
 12 17  1  1
 17 19  1  0
 17 20  1  0
 18 19  1  0
 18 22  1  0
 18 23  1  0
  9 10  1  0
  9 11  1  0
 10 12  1  0
 11  5  1  1
 33 34  1  0
 33 35  1  0
 34 36  1  0
 35 37  1  0
 36 42  1  6
 20 21  2  0
 21 22  1  0
M  CHG  2   2  -1  26  -1
M  END
>  <COMPND>  (92) 
    8629 

>  <AUTHOR>  (92) 
    GENERATED BY OPEN BABEL 3.1.1

>  <MASTER>  (92) 
        0    0    0    0    0    0    0    0   58    0   58    0

>  <minimizedAffinity>  (92) 
-7.93601

>  <CNNscore>  (92) 
0.3520947993

>  <CNNaffinity>  (92) 
4.0752182007

>  <CNN_VS>  (92) 
1.4348630905

>  <CNNaffinity_variance>  (92) 
0.1074240804

$$$$
93
     RDKit          3D

 43 45  0  0  0  0  0  0  0  0999 V2000
   21.6035   70.2805   -2.4147 P   0  0  2  0  0  0  0  0  0  0  0  0
   23.1090   69.7700   -2.1144 O   0  0  0  0  0  0  0  0  0  0  0  0
   20.9512   71.0277   -1.2888 O   0  0  0  0  0  0  0  0  0  0  0  0
   20.8334   68.9475   -2.9125 O   0  0  0  0  0  0  0  0  0  0  0  0
   19.7258   69.0923   -3.7844 C   0  0  0  0  0  0  0  0  0  0  0  0
   17.5923   70.0025   -3.1571 O   0  0  0  0  0  0  0  0  0  0  0  0
   16.8086   67.1934   -2.4605 O   0  0  0  0  0  0  0  0  0  0  0  0
   15.6353   67.5512   -4.8961 O   0  0  0  0  0  0  0  0  0  0  0  0
   17.6383   67.6616   -3.5224 C   0  0  1  0  0  0  0  0  0  0  0  0
   16.7954   68.3035   -4.6045 C   0  0  2  0  0  0  0  0  0  0  0  0
   18.4432   68.8458   -3.0018 C   0  0  1  0  0  0  0  0  0  0  0  0
   16.4760   69.6573   -3.9935 C   0  0  2  0  0  0  0  0  0  0  0  0
   16.2850   66.4367   -2.7691 H   0  0  0  0  0  0  0  0  0  0  0  0
   15.8910   66.6991   -5.2826 H   0  0  0  0  0  0  0  0  0  0  0  0
   15.3913   72.2143   -3.4806 O   0  0  0  0  0  0  0  0  0  0  0  0
   15.8617   73.4983   -7.8819 O   0  0  0  0  0  0  0  0  0  0  0  0
   16.3039   70.6796   -4.9869 N   0  0  0  0  0  0  0  0  0  0  0  0
   15.6266   72.8516   -5.6725 N   0  0  0  0  0  0  0  0  0  0  0  0
   15.7485   71.9292   -4.6255 C   0  0  0  0  0  0  0  0  0  0  0  0
   16.6842   70.4385   -6.3026 C   0  0  0  0  0  0  0  0  0  0  0  0
   16.5601   71.3283   -7.2895 C   0  0  0  0  0  0  0  0  0  0  0  0
   15.9889   72.6585   -6.9961 C   0  0  0  0  0  0  0  0  0  0  0  0
   15.2418   73.7289   -5.4443 H   0  0  0  0  0  0  0  0  0  0  0  0
   21.7736   71.1323   -3.7779 O   0  0  0  0  0  0  0  0  0  0  0  0
   22.3504   72.6204   -4.0349 P   0  0  2  0  0  0  0  0  0  0  0  0
   23.9278   72.4683   -3.7090 O   0  0  0  0  0  0  0  0  0  0  0  0
   21.6561   73.6939   -3.2478 O   0  0  0  0  0  0  0  0  0  0  0  0
   22.2817   72.8143   -5.6357 O   0  0  0  0  0  0  0  0  0  0  0  0
   21.5282   74.6753   -6.8949 O   0  0  0  0  0  0  0  0  0  0  0  0
   20.2496   71.6358   -9.3803 O   0  0  0  0  0  0  0  0  0  0  0  0
   22.4944   73.2511  -10.1548 O   0  0  0  0  0  0  0  0  0  0  0  0
   20.0693   71.3246   -6.5080 O   0  0  0  0  0  0  0  0  0  0  0  0
   21.1277   72.2765   -8.4509 C   0  0  1  0  0  0  0  0  0  0  0  0
   21.6209   73.5817   -9.0786 C   0  0  1  0  0  0  0  0  0  0  0  0
   20.3664   72.5565   -7.1565 C   0  0  2  0  0  0  0  0  0  0  0  0
   22.3504   74.4520   -8.0463 C   0  0  1  0  0  0  0  0  0  0  0  0
   21.1599   73.4703   -6.2209 C   0  0  1  0  0  0  0  0  0  0  0  0
   20.7270   71.4548  -10.2042 H   0  0  0  0  0  0  0  0  0  0  0  0
   22.0217   72.7012  -10.7992 H   0  0  0  0  0  0  0  0  0  0  0  0
   19.5666   70.7552   -7.1104 H   0  0  0  0  0  0  0  0  0  0  0  0
   23.2080   75.6547   -9.9243 O   0  0  0  0  0  0  0  0  0  0  0  0
   22.7123   75.8247   -8.6091 C   0  0  0  0  0  0  0  0  0  0  0  0
   23.4422   76.5203  -10.2953 H   0  0  0  0  0  0  0  0  0  0  0  0
 25 28  1  0
 25 24  1  0
 25 26  1  1
 25 27  2  0
  1  4  1  0
  1 24  1  0
  1  2  1  1
  1  3  2  0
  6 11  1  0
  6 12  1  0
 29 36  1  0
 29 37  1  0
  9  7  1  1
  7 13  1  0
 10  8  1  1
  8 14  1  0
 37 28  1  6
  4  5  1  0
 33 30  1  6
 30 38  1  0
 34 31  1  6
 31 39  1  0
 35 32  1  1
 32 40  1  0
 41 42  1  0
 41 43  1  0
 15 19  2  0
 16 22  2  0
 12 17  1  6
 17 19  1  0
 17 20  1  0
 18 19  1  0
 18 22  1  0
 18 23  1  0
  9 10  1  0
  9 11  1  0
 10 12  1  0
 11  5  1  6
 33 34  1  0
 33 35  1  0
 34 36  1  0
 35 37  1  0
 36 42  1  6
 20 21  2  0
 21 22  1  0
M  CHG  2   2  -1  26  -1
M  END
>  <COMPND>  (93) 
    8629 

>  <AUTHOR>  (93) 
    GENERATED BY OPEN BABEL 3.1.1

>  <MASTER>  (93) 
        0    0    0    0    0    0    0    0   58    0   58    0

>  <minimizedAffinity>  (93) 
-7.42126

>  <CNNscore>  (93) 
0.3429832757

>  <CNNaffinity>  (93) 
3.9296207428

>  <CNN_VS>  (93) 
1.3477941751

>  <CNNaffinity_variance>  (93) 
0.8053399920

$$$$
94
     RDKit          3D

 43 45  0  0  0  0  0  0  0  0999 V2000
   20.8737   74.4486   -2.6420 P   0  0  2  0  0  0  0  0  0  0  0  0
   19.7506   74.3800   -1.4795 O   0  0  0  0  0  0  0  0  0  0  0  0
   21.0533   75.7989   -3.2710 O   0  0  0  0  0  0  0  0  0  0  0  0
   20.4619   73.2526   -3.6509 O   0  0  0  0  0  0  0  0  0  0  0  0
   21.1204   72.0043   -3.5243 C   0  0  0  0  0  0  0  0  0  0  0  0
   18.9549   71.1900   -2.8753 O   0  0  0  0  0  0  0  0  0  0  0  0
   20.4189   69.0768   -1.3320 O   0  0  0  0  0  0  0  0  0  0  0  0
   19.6459   67.7422   -3.5810 O   0  0  0  0  0  0  0  0  0  0  0  0
   20.7485   69.6682   -2.5878 C   0  0  1  0  0  0  0  0  0  0  0  0
   19.8349   69.1395   -3.6738 C   0  0  2  0  0  0  0  0  0  0  0  0
   20.3568   71.1394   -2.5309 C   0  0  1  0  0  0  0  0  0  0  0  0
   18.5571   69.9206   -3.4184 C   0  0  2  0  0  0  0  0  0  0  0  0
   20.6604   68.1369   -1.3441 H   0  0  0  0  0  0  0  0  0  0  0  0
   20.4869   67.2900   -3.7513 H   0  0  0  0  0  0  0  0  0  0  0  0
   16.0614   68.7226   -3.9791 O   0  0  0  0  0  0  0  0  0  0  0  0
   15.7517   70.8466   -8.0576 O   0  0  0  0  0  0  0  0  0  0  0  0
   17.8019   70.1431   -4.6191 N   0  0  0  0  0  0  0  0  0  0  0  0
   15.9091   69.7813   -6.0094 N   0  0  0  0  0  0  0  0  0  0  0  0
   16.5600   69.4919   -4.8033 C   0  0  0  0  0  0  0  0  0  0  0  0
   18.2938   70.9993   -5.5984 C   0  0  0  0  0  0  0  0  0  0  0  0
   17.6614   71.2637   -6.7436 C   0  0  0  0  0  0  0  0  0  0  0  0
   16.3578   70.6239   -7.0141 C   0  0  0  0  0  0  0  0  0  0  0  0
   15.0424   69.3387   -6.1597 H   0  0  0  0  0  0  0  0  0  0  0  0
   22.1918   73.8675   -1.9085 O   0  0  0  0  0  0  0  0  0  0  0  0
   23.0507   74.4354   -0.6624 P   0  0  2  0  0  0  0  0  0  0  0  0
   21.9641   75.2898    0.1783 O   0  0  0  0  0  0  0  0  0  0  0  0
   24.2739   75.2097   -1.0601 O   0  0  0  0  0  0  0  0  0  0  0  0
   23.3475   73.1399    0.2533 O   0  0  0  0  0  0  0  0  0  0  0  0
   22.5516   70.9493   -0.1757 O   0  0  0  0  0  0  0  0  0  0  0  0
   22.8020   70.7656    3.9419 O   0  0  0  0  0  0  0  0  0  0  0  0
   24.7125   69.3400    2.3402 O   0  0  0  0  0  0  0  0  0  0  0  0
   21.9006   73.1980    2.6571 O   0  0  0  0  0  0  0  0  0  0  0  0
   23.1999   71.1701    2.6291 C   0  0  1  0  0  0  0  0  0  0  0  0
   23.5182   69.9138    1.8160 C   0  0  1  0  0  0  0  0  0  0  0  0
   22.0605   71.9551    1.9818 C   0  0  2  0  0  0  0  0  0  0  0  0
   23.6935   70.2464    0.3282 C   0  0  1  0  0  0  0  0  0  0  0  0
   22.3119   72.1901    0.4912 C   0  0  1  0  0  0  0  0  0  0  0  0
   23.5212   70.2671    4.3586 H   0  0  0  0  0  0  0  0  0  0  0  0
   24.5886   69.1351    3.2803 H   0  0  0  0  0  0  0  0  0  0  0  0
   21.7417   73.0357    3.5996 H   0  0  0  0  0  0  0  0  0  0  0  0
   23.0270   67.9739    0.0119 O   0  0  0  0  0  0  0  0  0  0  0  0
   23.8553   68.9894   -0.5238 C   0  0  0  0  0  0  0  0  0  0  0  0
   23.1194   67.1678   -0.5205 H   0  0  0  0  0  0  0  0  0  0  0  0
 25 28  1  0
 25 24  1  0
 25 26  1  1
 25 27  2  0
  1  4  1  0
  1 24  1  0
  1  2  1  1
  1  3  2  0
  6 11  1  0
  6 12  1  0
 29 36  1  0
 29 37  1  0
  9  7  1  1
  7 13  1  0
 10  8  1  1
  8 14  1  0
 37 28  1  1
  4  5  1  0
 33 30  1  1
 30 38  1  0
 34 31  1  1
 31 39  1  0
 35 32  1  1
 32 40  1  0
 41 42  1  0
 41 43  1  0
 15 19  2  0
 16 22  2  0
 12 17  1  6
 17 19  1  0
 17 20  1  0
 18 19  1  0
 18 22  1  0
 18 23  1  0
  9 10  1  0
  9 11  1  0
 10 12  1  0
 11  5  1  6
 33 34  1  0
 33 35  1  0
 34 36  1  0
 35 37  1  0
 36 42  1  6
 20 21  2  0
 21 22  1  0
M  CHG  2   2  -1  26  -1
M  END
>  <COMPND>  (94) 
    8629 

>  <AUTHOR>  (94) 
    GENERATED BY OPEN BABEL 3.1.1

>  <MASTER>  (94) 
        0    0    0    0    0    0    0    0   58    0   58    0

>  <minimizedAffinity>  (94) 
-7.08634

>  <CNNscore>  (94) 
0.3299060762

>  <CNNaffinity>  (94) 
4.0083365440

>  <CNN_VS>  (94) 
1.3223745823

>  <CNNaffinity_variance>  (94) 
0.5257384181

$$$$
95
     RDKit          3D

 43 45  0  0  0  0  0  0  0  0999 V2000
   21.5119   72.9631   -5.0009 P   0  0  2  0  0  0  0  0  0  0  0  0
   23.1269   73.0113   -4.9179 O   0  0  0  0  0  0  0  0  0  0  0  0
   20.8322   74.2972   -4.9043 O   0  0  0  0  0  0  0  0  0  0  0  0
   21.0972   71.8800   -3.8726 O   0  0  0  0  0  0  0  0  0  0  0  0
   21.6431   72.0157   -2.5721 C   0  0  0  0  0  0  0  0  0  0  0  0
   23.2548   71.0687   -1.0623 O   0  0  0  0  0  0  0  0  0  0  0  0
   22.5193   68.4114   -2.2407 O   0  0  0  0  0  0  0  0  0  0  0  0
   21.1338   68.4240    0.1081 O   0  0  0  0  0  0  0  0  0  0  0  0
   21.6903   69.5423   -1.9778 C   0  0  1  0  0  0  0  0  0  0  0  0
   21.4296   69.6690   -0.4913 C   0  0  2  0  0  0  0  0  0  0  0  0
   22.5040   70.7977   -2.2661 C   0  0  1  0  0  0  0  0  0  0  0  0
   22.7357   70.2628    0.0082 C   0  0  2  0  0  0  0  0  0  0  0  0
   22.0211   67.5974   -2.0639 H   0  0  0  0  0  0  0  0  0  0  0  0
   20.2942   68.0877   -0.2421 H   0  0  0  0  0  0  0  0  0  0  0  0
   23.6933   69.6258    2.5879 O   0  0  0  0  0  0  0  0  0  0  0  0
   21.9765   73.5079    4.3833 O   0  0  0  0  0  0  0  0  0  0  0  0
   22.5535   71.0893    1.1679 N   0  0  0  0  0  0  0  0  0  0  0  0
   22.8379   71.5594    3.4798 N   0  0  0  0  0  0  0  0  0  0  0  0
   23.0730   70.6774    2.4173 C   0  0  0  0  0  0  0  0  0  0  0  0
   21.8665   72.2935    1.0597 C   0  0  0  0  0  0  0  0  0  0  0  0
   21.6496   73.1227    2.0828 C   0  0  0  0  0  0  0  0  0  0  0  0
   22.1597   72.7667    3.4227 C   0  0  0  0  0  0  0  0  0  0  0  0
   23.1903   71.2931    4.3599 H   0  0  0  0  0  0  0  0  0  0  0  0
   21.2425   72.1692   -6.3830 O   0  0  0  0  0  0  0  0  0  0  0  0
   19.9100   72.0359   -7.2882 P   0  0  2  0  0  0  0  0  0  0  0  0
   20.2336   70.7686   -8.2404 O   0  0  0  0  0  0  0  0  0  0  0  0
   19.5411   73.2887   -8.0287 O   0  0  0  0  0  0  0  0  0  0  0  0
   18.7766   71.5022   -6.2705 O   0  0  0  0  0  0  0  0  0  0  0  0
   17.0393   69.9018   -6.4635 O   0  0  0  0  0  0  0  0  0  0  0  0
   15.0038   72.8391   -4.3948 O   0  0  0  0  0  0  0  0  0  0  0  0
   15.7633   70.4210   -3.0443 O   0  0  0  0  0  0  0  0  0  0  0  0
   16.8933   73.5739   -6.4610 O   0  0  0  0  0  0  0  0  0  0  0  0
   16.1399   72.0490   -4.7557 C   0  0  1  0  0  0  0  0  0  0  0  0
   15.8182   70.5829   -4.4588 C   0  0  1  0  0  0  0  0  0  0  0  0
   16.4324   72.2449   -6.2421 C   0  0  2  0  0  0  0  0  0  0  0  0
   16.8768   69.6503   -5.0627 C   0  0  1  0  0  0  0  0  0  0  0  0
   17.4622   71.2357   -6.7529 C   0  0  1  0  0  0  0  0  0  0  0  0
   14.8130   72.7196   -3.4520 H   0  0  0  0  0  0  0  0  0  0  0  0
   15.0914   71.0158   -2.6754 H   0  0  0  0  0  0  0  0  0  0  0  0
   16.2325   74.2032   -6.1337 H   0  0  0  0  0  0  0  0  0  0  0  0
   15.0828   68.0864   -4.8503 O   0  0  0  0  0  0  0  0  0  0  0  0
   16.4940   68.1793   -4.9151 C   0  0  0  0  0  0  0  0  0  0  0  0
   14.8246   67.1557   -4.7566 H   0  0  0  0  0  0  0  0  0  0  0  0
 25 28  1  0
 25 24  1  0
 25 26  1  6
 25 27  2  0
  1  4  1  0
  1 24  1  0
  1  2  1  1
  1  3  2  0
  6 11  1  0
  6 12  1  0
 29 36  1  0
 29 37  1  0
  9  7  1  1
  7 13  1  0
 10  8  1  1
  8 14  1  0
 37 28  1  1
  4  5  1  0
 33 30  1  6
 30 38  1  0
 34 31  1  1
 31 39  1  0
 35 32  1  1
 32 40  1  0
 41 42  1  0
 41 43  1  0
 15 19  2  0
 16 22  2  0
 12 17  1  1
 17 19  1  0
 17 20  1  0
 18 19  1  0
 18 22  1  0
 18 23  1  0
  9 10  1  0
  9 11  1  0
 10 12  1  0
 11  5  1  1
 33 34  1  0
 33 35  1  0
 34 36  1  0
 35 37  1  0
 36 42  1  6
 20 21  2  0
 21 22  1  0
M  CHG  2   2  -1  26  -1
M  END
>  <COMPND>  (95) 
    8629 

>  <AUTHOR>  (95) 
    GENERATED BY OPEN BABEL 3.1.1

>  <MASTER>  (95) 
        0    0    0    0    0    0    0    0   58    0   58    0

>  <minimizedAffinity>  (95) 
-8.14987

>  <CNNscore>  (95) 
0.3162364364

>  <CNNaffinity>  (95) 
4.0387544632

>  <CNN_VS>  (95) 
1.2772012949

>  <CNNaffinity_variance>  (95) 
0.2881855369

$$$$
96
     RDKit          3D

 43 45  0  0  0  0  0  0  0  0999 V2000
   21.4693   72.0571   -3.8027 P   0  0  2  0  0  0  0  0  0  0  0  0
   21.4525   72.7833   -5.2483 O   0  0  0  0  0  0  0  0  0  0  0  0
   22.6242   71.1269   -3.5740 O   0  0  0  0  0  0  0  0  0  0  0  0
   19.9984   71.3933   -3.6844 O   0  0  0  0  0  0  0  0  0  0  0  0
   19.8892   69.9810   -3.7202 C   0  0  0  0  0  0  0  0  0  0  0  0
   17.6471   70.6255   -3.1443 O   0  0  0  0  0  0  0  0  0  0  0  0
   17.1567   67.7215   -2.5813 O   0  0  0  0  0  0  0  0  0  0  0  0
   16.0367   68.0464   -5.0463 O   0  0  0  0  0  0  0  0  0  0  0  0
   17.9659   68.3204   -3.5922 C   0  0  1  0  0  0  0  0  0  0  0  0
   17.0950   68.9091   -4.6824 C   0  0  2  0  0  0  0  0  0  0  0  0
   18.6155   69.5638   -2.9978 C   0  0  1  0  0  0  0  0  0  0  0  0
   16.6060   70.1939   -4.0358 C   0  0  2  0  0  0  0  0  0  0  0  0
   16.7316   66.9250   -2.9373 H   0  0  0  0  0  0  0  0  0  0  0  0
   16.3988   67.2438   -5.4531 H   0  0  0  0  0  0  0  0  0  0  0  0
   15.0782   72.5132   -3.5214 O   0  0  0  0  0  0  0  0  0  0  0  0
   15.7123   74.1022   -7.8009 O   0  0  0  0  0  0  0  0  0  0  0  0
   16.3561   71.2304   -4.9973 N   0  0  0  0  0  0  0  0  0  0  0  0
   15.3953   73.3026   -5.6526 N   0  0  0  0  0  0  0  0  0  0  0  0
   15.5750   72.3535   -4.6382 C   0  0  0  0  0  0  0  0  0  0  0  0
   16.8832   71.1274   -6.2801 C   0  0  0  0  0  0  0  0  0  0  0  0
   16.7016   72.0406   -7.2363 C   0  0  0  0  0  0  0  0  0  0  0  0
   15.8976   73.2446   -6.9430 C   0  0  0  0  0  0  0  0  0  0  0  0
   14.8543   74.0934   -5.4254 H   0  0  0  0  0  0  0  0  0  0  0  0
   21.3914   73.2991   -2.7710 O   0  0  0  0  0  0  0  0  0  0  0  0
   20.8398   73.3861   -1.2541 P   0  0  2  0  0  0  0  0  0  0  0  0
   19.2769   72.9960   -1.4046 O   0  0  0  0  0  0  0  0  0  0  0  0
   21.0867   74.7069   -0.5843 O   0  0  0  0  0  0  0  0  0  0  0  0
   21.5053   72.1212   -0.5043 O   0  0  0  0  0  0  0  0  0  0  0  0
   23.3268   72.9330    0.7762 O   0  0  0  0  0  0  0  0  0  0  0  0
   23.7446   68.8931    1.5218 O   0  0  0  0  0  0  0  0  0  0  0  0
   22.7718   70.6246    3.5962 O   0  0  0  0  0  0  0  0  0  0  0  0
   22.9631   69.8019   -1.1131 O   0  0  0  0  0  0  0  0  0  0  0  0
   23.0265   70.1052    1.2754 C   0  0  1  0  0  0  0  0  0  0  0  0
   23.3643   71.0976    2.3898 C   0  0  1  0  0  0  0  0  0  0  0  0
   23.4406   70.6630   -0.0850 C   0  0  2  0  0  0  0  0  0  0  0  0
   22.8467   72.5031    2.0555 C   0  0  1  0  0  0  0  0  0  0  0  0
   22.9148   72.0838   -0.2967 C   0  0  1  0  0  0  0  0  0  0  0  0
   23.4859   68.5335    2.3839 H   0  0  0  0  0  0  0  0  0  0  0  0
   23.1066   69.7362    3.7957 H   0  0  0  0  0  0  0  0  0  0  0  0
   23.3031   68.9057   -0.9680 H   0  0  0  0  0  0  0  0  0  0  0  0
   22.6184   73.3127    4.2919 O   0  0  0  0  0  0  0  0  0  0  0  0
   23.3083   73.5405    3.0768 C   0  0  0  0  0  0  0  0  0  0  0  0
   22.9024   73.9654    4.9514 H   0  0  0  0  0  0  0  0  0  0  0  0
 25 28  1  0
 25 24  1  0
 25 26  1  6
 25 27  2  0
  1  4  1  0
  1 24  1  0
  1  2  1  6
  1  3  2  0
  6 11  1  0
  6 12  1  0
 29 36  1  0
 29 37  1  0
  9  7  1  1
  7 13  1  0
 10  8  1  1
  8 14  1  0
 37 28  1  1
  4  5  1  0
 33 30  1  1
 30 38  1  0
 34 31  1  1
 31 39  1  0
 35 32  1  6
 32 40  1  0
 41 42  1  0
 41 43  1  0
 15 19  2  0
 16 22  2  0
 12 17  1  6
 17 19  1  0
 17 20  1  0
 18 19  1  0
 18 22  1  0
 18 23  1  0
  9 10  1  0
  9 11  1  0
 10 12  1  0
 11  5  1  6
 33 34  1  0
 33 35  1  0
 34 36  1  0
 35 37  1  0
 36 42  1  1
 20 21  2  0
 21 22  1  0
M  CHG  2   2  -1  26  -1
M  END
>  <COMPND>  (96) 
    8629 

>  <AUTHOR>  (96) 
    GENERATED BY OPEN BABEL 3.1.1

>  <MASTER>  (96) 
        0    0    0    0    0    0    0    0   58    0   58    0

>  <minimizedAffinity>  (96) 
-6.93484

>  <CNNscore>  (96) 
0.3067789972

>  <CNNaffinity>  (96) 
3.9516925812

>  <CNN_VS>  (96) 
1.2122962475

>  <CNNaffinity_variance>  (96) 
0.3626198173

$$$$
97
     RDKit          3D

 43 45  0  0  0  0  0  0  0  0999 V2000
   22.7453   68.9714    0.0290 P   0  0  2  0  0  0  0  0  0  0  0  0
   21.1318   69.0030    0.1424 O   0  0  0  0  0  0  0  0  0  0  0  0
   23.3324   67.6266   -0.2848 O   0  0  0  0  0  0  0  0  0  0  0  0
   23.2451   69.6514    1.4095 O   0  0  0  0  0  0  0  0  0  0  0  0
   24.2060   70.6907    1.3421 C   0  0  0  0  0  0  0  0  0  0  0  0
   24.3125   73.0336    1.8648 O   0  0  0  0  0  0  0  0  0  0  0  0
   22.1523   72.4926    3.8727 O   0  0  0  0  0  0  0  0  0  0  0  0
   20.7681   73.5760    1.7878 O   0  0  0  0  0  0  0  0  0  0  0  0
   22.3525   71.9129    2.5846 C   0  0  1  0  0  0  0  0  0  0  0  0
   21.9747   72.8995    1.4995 C   0  0  2  0  0  0  0  0  0  0  0  0
   23.8527   71.7597    2.3670 C   0  0  1  0  0  0  0  0  0  0  0  0
   23.1769   73.8283    1.4857 C   0  0  2  0  0  0  0  0  0  0  0  0
   21.2014   72.5999    4.0346 H   0  0  0  0  0  0  0  0  0  0  0  0
   20.0335   72.9427    1.7851 H   0  0  0  0  0  0  0  0  0  0  0  0
   24.6530   76.1917    1.0242 O   0  0  0  0  0  0  0  0  0  0  0  0
   24.0302   75.9088   -3.5335 O   0  0  0  0  0  0  0  0  0  0  0  0
   23.4164   74.3948    0.1883 N   0  0  0  0  0  0  0  0  0  0  0  0
   24.3419   76.0488   -1.2448 N   0  0  0  0  0  0  0  0  0  0  0  0
   24.1696   75.5856    0.0658 C   0  0  0  0  0  0  0  0  0  0  0  0
   22.9072   73.7705   -0.9452 C   0  0  0  0  0  0  0  0  0  0  0  0
   23.0793   74.2258   -2.1879 C   0  0  0  0  0  0  0  0  0  0  0  0
   23.8544   75.4647   -2.4032 C   0  0  0  0  0  0  0  0  0  0  0  0
   24.8630   76.8772   -1.3546 H   0  0  0  0  0  0  0  0  0  0  0  0
   23.0548   70.1139   -1.0718 O   0  0  0  0  0  0  0  0  0  0  0  0
   23.1457   70.0380   -2.6839 P   0  0  2  0  0  0  0  0  0  0  0  0
   23.9131   68.6382   -2.9467 O   0  0  0  0  0  0  0  0  0  0  0  0
   23.7983   71.2309   -3.3203 O   0  0  0  0  0  0  0  0  0  0  0  0
   21.6293   69.7684   -3.1663 O   0  0  0  0  0  0  0  0  0  0  0  0
   20.6849   71.9086   -3.5462 O   0  0  0  0  0  0  0  0  0  0  0  0
   17.4086   69.5692   -4.4649 O   0  0  0  0  0  0  0  0  0  0  0  0
   18.8390   70.8963   -6.5722 O   0  0  0  0  0  0  0  0  0  0  0  0
   19.1426   68.8271   -2.2689 O   0  0  0  0  0  0  0  0  0  0  0  0
   18.7995   69.8956   -4.4001 C   0  0  1  0  0  0  0  0  0  0  0  0
   19.0265   71.1862   -5.1898 C   0  0  1  0  0  0  0  0  0  0  0  0
   19.2009   70.0822   -2.9381 C   0  0  2  0  0  0  0  0  0  0  0  0
   20.4355   71.7437   -4.9470 C   0  0  1  0  0  0  0  0  0  0  0  0
   20.6000   70.6873   -2.8093 C   0  0  1  0  0  0  0  0  0  0  0  0
   17.1475   69.4489   -5.3905 H   0  0  0  0  0  0  0  0  0  0  0  0
   17.9457   70.5446   -6.7118 H   0  0  0  0  0  0  0  0  0  0  0  0
   18.2519   68.4547   -2.3575 H   0  0  0  0  0  0  0  0  0  0  0  0
   22.0184   73.3510   -5.7344 O   0  0  0  0  0  0  0  0  0  0  0  0
   20.6297   73.1111   -5.5987 C   0  0  0  0  0  0  0  0  0  0  0  0
   22.1571   74.2178   -6.1481 H   0  0  0  0  0  0  0  0  0  0  0  0
 25 28  1  0
 25 24  1  0
 25 26  1  1
 25 27  2  0
  1  4  1  0
  1 24  1  0
  1  2  1  1
  1  3  2  0
  6 11  1  0
  6 12  1  0
 29 36  1  0
 29 37  1  0
  9  7  1  1
  7 13  1  0
 10  8  1  1
  8 14  1  0
 37 28  1  6
  4  5  1  0
 33 30  1  1
 30 38  1  0
 34 31  1  6
 31 39  1  0
 35 32  1  1
 32 40  1  0
 41 42  1  0
 41 43  1  0
 15 19  2  0
 16 22  2  0
 12 17  1  6
 17 19  1  0
 17 20  1  0
 18 19  1  0
 18 22  1  0
 18 23  1  0
  9 10  1  0
  9 11  1  0
 10 12  1  0
 11  5  1  6
 33 34  1  0
 33 35  1  0
 34 36  1  0
 35 37  1  0
 36 42  1  6
 20 21  2  0
 21 22  1  0
M  CHG  2   2  -1  26  -1
M  END
>  <COMPND>  (97) 
    8629 

>  <AUTHOR>  (97) 
    GENERATED BY OPEN BABEL 3.1.1

>  <MASTER>  (97) 
        0    0    0    0    0    0    0    0   58    0   58    0

>  <minimizedAffinity>  (97) 
-7.13633

>  <CNNscore>  (97) 
0.2965424955

>  <CNNaffinity>  (97) 
3.8414695263

>  <CNN_VS>  (97) 
1.1391589642

>  <CNNaffinity_variance>  (97) 
0.4302426279

$$$$
98
     RDKit          3D

 43 45  0  0  0  0  0  0  0  0999 V2000
   19.0902   69.8064   -3.1526 P   0  0  2  0  0  0  0  0  0  0  0  0
   18.6608   71.2518   -2.5663 O   0  0  0  0  0  0  0  0  0  0  0  0
   18.8706   68.6529   -2.2185 O   0  0  0  0  0  0  0  0  0  0  0  0
   20.6136   70.0265   -3.6513 O   0  0  0  0  0  0  0  0  0  0  0  0
   21.4606   70.8668   -2.8868 C   0  0  0  0  0  0  0  0  0  0  0  0
   23.5204   70.8483   -1.6495 O   0  0  0  0  0  0  0  0  0  0  0  0
   23.9177   68.0736   -2.7144 O   0  0  0  0  0  0  0  0  0  0  0  0
   23.0227   67.6150   -0.1795 O   0  0  0  0  0  0  0  0  0  0  0  0
   22.7109   68.7245   -2.3203 C   0  0  1  0  0  0  0  0  0  0  0  0
   22.6323   68.8174   -0.8108 C   0  0  2  0  0  0  0  0  0  0  0  0
   22.8147   70.1900   -2.7242 C   0  0  1  0  0  0  0  0  0  0  0  0
   23.5806   69.9671   -0.5160 C   0  0  2  0  0  0  0  0  0  0  0  0
   23.8747   67.1361   -2.4671 H   0  0  0  0  0  0  0  0  0  0  0  0
   22.3883   66.9144   -0.3975 H   0  0  0  0  0  0  0  0  0  0  0  0
   24.1491   69.1363    2.1230 O   0  0  0  0  0  0  0  0  0  0  0  0
   22.0968   72.8470    3.9285 O   0  0  0  0  0  0  0  0  0  0  0  0
   23.2068   70.6971    0.6625 N   0  0  0  0  0  0  0  0  0  0  0  0
   23.1269   70.9847    3.0198 N   0  0  0  0  0  0  0  0  0  0  0  0
   23.5395   70.1922    1.9411 C   0  0  0  0  0  0  0  0  0  0  0  0
   22.5185   71.8996    0.5436 C   0  0  0  0  0  0  0  0  0  0  0  0
   22.1311   72.6427    1.5823 C   0  0  0  0  0  0  0  0  0  0  0  0
   22.4395   72.1863    2.9529 C   0  0  0  0  0  0  0  0  0  0  0  0
   23.3473   70.6527    3.9204 H   0  0  0  0  0  0  0  0  0  0  0  0
   18.2636   69.7164   -4.5388 O   0  0  0  0  0  0  0  0  0  0  0  0
   16.6830   69.5311   -4.8221 P   0  0  2  0  0  0  0  0  0  0  0  0
   16.0084   69.8563   -3.3880 O   0  0  0  0  0  0  0  0  0  0  0  0
   16.3126   68.1921   -5.3913 O   0  0  0  0  0  0  0  0  0  0  0  0
   16.2850   70.7873   -5.7541 O   0  0  0  0  0  0  0  0  0  0  0  0
   17.7920   72.4799   -6.4473 O   0  0  0  0  0  0  0  0  0  0  0  0
   14.2856   74.6604   -6.4903 O   0  0  0  0  0  0  0  0  0  0  0  0
   15.5146   73.9023   -8.9729 O   0  0  0  0  0  0  0  0  0  0  0  0
   14.7455   72.7066   -4.4045 O   0  0  0  0  0  0  0  0  0  0  0  0
   15.0965   73.4937   -6.6536 C   0  0  1  0  0  0  0  0  0  0  0  0
   16.1629   73.7946   -7.7086 C   0  0  1  0  0  0  0  0  0  0  0  0
   15.7468   73.1465   -5.3157 C   0  0  2  0  0  0  0  0  0  0  0  0
   17.2302   72.6926   -7.7476 C   0  0  1  0  0  0  0  0  0  0  0  0
   16.8273   72.0752   -5.4739 C   0  0  1  0  0  0  0  0  0  0  0  0
   13.8694   74.8859   -7.3362 H   0  0  0  0  0  0  0  0  0  0  0  0
   14.8428   74.6012   -8.9347 H   0  0  0  0  0  0  0  0  0  0  0  0
   14.0677   73.3936   -4.3127 H   0  0  0  0  0  0  0  0  0  0  0  0
   18.6031   71.9620   -9.5615 O   0  0  0  0  0  0  0  0  0  0  0  0
   18.3860   73.0484   -8.6801 C   0  0  0  0  0  0  0  0  0  0  0  0
   19.3358   72.1745  -10.1613 H   0  0  0  0  0  0  0  0  0  0  0  0
 25 28  1  0
 25 24  1  0
 25 26  1  1
 25 27  2  0
  1  4  1  0
  1 24  1  0
  1  2  1  1
  1  3  2  0
  6 11  1  0
  6 12  1  0
 29 36  1  0
 29 37  1  0
  9  7  1  1
  7 13  1  0
 10  8  1  1
  8 14  1  0
 37 28  1  6
  4  5  1  0
 33 30  1  1
 30 38  1  0
 34 31  1  6
 31 39  1  0
 35 32  1  1
 32 40  1  0
 41 42  1  0
 41 43  1  0
 15 19  2  0
 16 22  2  0
 12 17  1  1
 17 19  1  0
 17 20  1  0
 18 19  1  0
 18 22  1  0
 18 23  1  0
  9 10  1  0
  9 11  1  0
 10 12  1  0
 11  5  1  1
 33 34  1  0
 33 35  1  0
 34 36  1  0
 35 37  1  0
 36 42  1  6
 20 21  2  0
 21 22  1  0
M  CHG  2   2  -1  26  -1
M  END
>  <COMPND>  (98) 
    8629 

>  <AUTHOR>  (98) 
    GENERATED BY OPEN BABEL 3.1.1

>  <MASTER>  (98) 
        0    0    0    0    0    0    0    0   58    0   58    0

>  <minimizedAffinity>  (98) 
-7.95799

>  <CNNscore>  (98) 
0.2856356800

>  <CNNaffinity>  (98) 
4.0829229355

>  <CNN_VS>  (98) 
1.1662284136

>  <CNNaffinity_variance>  (98) 
0.0814512819

$$$$
99
     RDKit          3D

 43 45  0  0  0  0  0  0  0  0999 V2000
   22.7474   73.3142   -3.4665 P   0  0  2  0  0  0  0  0  0  0  0  0
   23.7570   72.0915   -3.7878 O   0  0  0  0  0  0  0  0  0  0  0  0
   23.3724   74.6779   -3.5008 O   0  0  0  0  0  0  0  0  0  0  0  0
   22.0594   72.8916   -2.0644 O   0  0  0  0  0  0  0  0  0  0  0  0
   22.8682   72.2899   -1.0687 C   0  0  0  0  0  0  0  0  0  0  0  0
   21.9975   70.0510   -1.0141 O   0  0  0  0  0  0  0  0  0  0  0  0
   21.5490   70.4969    1.9169 O   0  0  0  0  0  0  0  0  0  0  0  0
   23.8430   69.0228    1.8842 O   0  0  0  0  0  0  0  0  0  0  0  0
   22.6116   70.9613    1.0859 C   0  0  1  0  0  0  0  0  0  0  0  0
   23.5566   69.8246    0.7564 C   0  0  2  0  0  0  0  0  0  0  0  0
   22.0268   71.2951   -0.2809 C   0  0  1  0  0  0  0  0  0  0  0  0
   22.7842   69.0730   -0.3144 C   0  0  2  0  0  0  0  0  0  0  0  0
   21.8980   70.2777    2.7956 H   0  0  0  0  0  0  0  0  0  0  0  0
   24.3350   69.5457    2.5363 H   0  0  0  0  0  0  0  0  0  0  0  0
   23.1519   66.2757   -0.4489 O   0  0  0  0  0  0  0  0  0  0  0  0
   26.1265   66.6510   -3.9492 O   0  0  0  0  0  0  0  0  0  0  0  0
   23.6486   68.4127   -1.2515 N   0  0  0  0  0  0  0  0  0  0  0  0
   24.6326   66.4649   -2.1918 N   0  0  0  0  0  0  0  0  0  0  0  0
   23.7627   67.0030   -1.2348 C   0  0  0  0  0  0  0  0  0  0  0  0
   24.3715   69.1613   -2.1738 C   0  0  0  0  0  0  0  0  0  0  0  0
   25.1978   68.6329   -3.0790 C   0  0  0  0  0  0  0  0  0  0  0  0
   25.3740   67.1672   -3.1287 C   0  0  0  0  0  0  0  0  0  0  0  0
   24.7283   65.4848   -2.1988 H   0  0  0  0  0  0  0  0  0  0  0  0
   21.5564   73.0930   -4.5368 O   0  0  0  0  0  0  0  0  0  0  0  0
   21.3982   73.5903   -6.0667 P   0  0  2  0  0  0  0  0  0  0  0  0
   22.6437   72.8818   -6.8179 O   0  0  0  0  0  0  0  0  0  0  0  0
   21.3460   75.0821   -6.2266 O   0  0  0  0  0  0  0  0  0  0  0  0
   20.0950   72.8127   -6.6163 O   0  0  0  0  0  0  0  0  0  0  0  0
   18.9905   70.9376   -5.6777 O   0  0  0  0  0  0  0  0  0  0  0  0
   18.3941   70.1190   -9.6809 O   0  0  0  0  0  0  0  0  0  0  0  0
   16.1870   71.0040   -8.0705 O   0  0  0  0  0  0  0  0  0  0  0  0
   20.9100   71.2450   -8.7965 O   0  0  0  0  0  0  0  0  0  0  0  0
   18.5341   70.9545   -8.5286 C   0  0  1  0  0  0  0  0  0  0  0  0
   17.4362   70.5822   -7.5301 C   0  0  1  0  0  0  0  0  0  0  0  0
   19.9157   70.7327   -7.9160 C   0  0  2  0  0  0  0  0  0  0  0  0
   17.6795   71.2438   -6.1670 C   0  0  1  0  0  0  0  0  0  0  0  0
   20.0358   71.3907   -6.5402 C   0  0  1  0  0  0  0  0  0  0  0  0
   17.5191   70.2554  -10.0749 H   0  0  0  0  0  0  0  0  0  0  0  0
   16.0458   70.5795   -8.9313 H   0  0  0  0  0  0  0  0  0  0  0  0
   20.8236   70.8204   -9.6637 H   0  0  0  0  0  0  0  0  0  0  0  0
   16.3603   69.4117   -5.3847 O   0  0  0  0  0  0  0  0  0  0  0  0
   16.6859   70.7622   -5.1120 C   0  0  0  0  0  0  0  0  0  0  0  0
   15.7289   69.0916   -4.7210 H   0  0  0  0  0  0  0  0  0  0  0  0
 25 28  1  0
 25 24  1  0
 25 26  1  6
 25 27  2  0
  1  4  1  0
  1 24  1  0
  1  2  1  6
  1  3  2  0
  6 11  1  0
  6 12  1  0
 29 36  1  0
 29 37  1  0
  9  7  1  1
  7 13  1  0
 10  8  1  1
  8 14  1  0
 37 28  1  6
  4  5  1  0
 33 30  1  6
 30 38  1  0
 34 31  1  6
 31 39  1  0
 35 32  1  6
 32 40  1  0
 41 42  1  0
 41 43  1  0
 15 19  2  0
 16 22  2  0
 12 17  1  6
 17 19  1  0
 17 20  1  0
 18 19  1  0
 18 22  1  0
 18 23  1  0
  9 10  1  0
  9 11  1  0
 10 12  1  0
 11  5  1  6
 33 34  1  0
 33 35  1  0
 34 36  1  0
 35 37  1  0
 36 42  1  1
 20 21  2  0
 21 22  1  0
M  CHG  2   2  -1  26  -1
M  END
>  <COMPND>  (99) 
    8629 

>  <AUTHOR>  (99) 
    GENERATED BY OPEN BABEL 3.1.1

>  <MASTER>  (99) 
        0    0    0    0    0    0    0    0   58    0   58    0

>  <minimizedAffinity>  (99) 
-9.15796

>  <CNNscore>  (99) 
0.2844264507

>  <CNNaffinity>  (99) 
4.0927586555

>  <CNN_VS>  (99) 
1.1640888453

>  <CNNaffinity_variance>  (99) 
0.7224683166

$$$$
100
     RDKit          3D

 43 45  0  0  0  0  0  0  0  0999 V2000
   21.5071   72.1726   -3.0111 P   0  0  2  0  0  0  0  0  0  0  0  0
   20.8693   73.6294   -2.7141 O   0  0  0  0  0  0  0  0  0  0  0  0
   20.5663   71.0188   -2.8242 O   0  0  0  0  0  0  0  0  0  0  0  0
   22.8456   72.1421   -2.1027 O   0  0  0  0  0  0  0  0  0  0  0  0
   22.8310   72.8125   -0.8544 C   0  0  0  0  0  0  0  0  0  0  0  0
   23.5171   71.9495    1.2806 O   0  0  0  0  0  0  0  0  0  0  0  0
   20.7488   70.8193    1.5035 O   0  0  0  0  0  0  0  0  0  0  0  0
   20.6061   73.0527    3.0616 O   0  0  0  0  0  0  0  0  0  0  0  0
   21.1768   72.0495    0.9217 C   0  0  1  0  0  0  0  0  0  0  0  0
   21.5432   73.0436    2.0039 C   0  0  2  0  0  0  0  0  0  0  0  0
   22.5202   71.8064    0.2452 C   0  0  1  0  0  0  0  0  0  0  0  0
   22.9110   72.5458    2.4390 C   0  0  2  0  0  0  0  0  0  0  0  0
   19.8924   70.9495    1.9412 H   0  0  0  0  0  0  0  0  0  0  0  0
   19.7525   73.3769    2.7347 H   0  0  0  0  0  0  0  0  0  0  0  0
   22.8494   73.5815    5.0661 O   0  0  0  0  0  0  0  0  0  0  0  0
   26.1927   76.6168    4.1440 O   0  0  0  0  0  0  0  0  0  0  0  0
   23.7547   73.6066    2.9127 N   0  0  0  0  0  0  0  0  0  0  0  0
   24.5143   75.0919    4.6049 N   0  0  0  0  0  0  0  0  0  0  0  0
   23.6435   74.0537    4.2500 C   0  0  0  0  0  0  0  0  0  0  0  0
   24.6797   74.1918    2.0550 C   0  0  0  0  0  0  0  0  0  0  0  0
   25.5020   75.1819    2.4086 C   0  0  0  0  0  0  0  0  0  0  0  0
   25.4499   75.7071    3.7883 C   0  0  0  0  0  0  0  0  0  0  0  0
   24.4545   75.4199    5.5315 H   0  0  0  0  0  0  0  0  0  0  0  0
   22.0894   72.3296   -4.5109 O   0  0  0  0  0  0  0  0  0  0  0  0
   21.6126   73.2615   -5.7426 P   0  0  2  0  0  0  0  0  0  0  0  0
   22.6887   72.9229   -6.9023 O   0  0  0  0  0  0  0  0  0  0  0  0
   21.5047   74.7203   -5.4047 O   0  0  0  0  0  0  0  0  0  0  0  0
   20.2370   72.5900   -6.2542 O   0  0  0  0  0  0  0  0  0  0  0  0
   19.1253   70.5853   -5.6525 O   0  0  0  0  0  0  0  0  0  0  0  0
   18.4679   70.5064   -9.7283 O   0  0  0  0  0  0  0  0  0  0  0  0
   16.2915   71.1042   -7.9523 O   0  0  0  0  0  0  0  0  0  0  0  0
   21.0068   71.4345   -8.6929 O   0  0  0  0  0  0  0  0  0  0  0  0
   18.6317   71.1194   -8.4466 C   0  0  1  0  0  0  0  0  0  0  0  0
   17.5432   70.5820   -7.5154 C   0  0  1  0  0  0  0  0  0  0  0  0
   20.0188   70.7798   -7.9045 C   0  0  2  0  0  0  0  0  0  0  0  0
   17.8113   70.9851   -6.0591 C   0  0  1  0  0  0  0  0  0  0  0  0
   20.1639   71.1781   -6.4346 C   0  0  1  0  0  0  0  0  0  0  0  0
   17.5892   70.7186  -10.0783 H   0  0  0  0  0  0  0  0  0  0  0  0
   16.1345   70.8429   -8.8733 H   0  0  0  0  0  0  0  0  0  0  0  0
   20.9045   71.1738   -9.6211 H   0  0  0  0  0  0  0  0  0  0  0  0
   15.6120   71.0555   -5.1280 O   0  0  0  0  0  0  0  0  0  0  0  0
   16.8267   70.3291   -5.0935 C   0  0  0  0  0  0  0  0  0  0  0  0
   14.9756   70.6492   -4.5184 H   0  0  0  0  0  0  0  0  0  0  0  0
 25 28  1  0
 25 24  1  0
 25 26  1  6
 25 27  2  0
  1  4  1  0
  1 24  1  0
  1  2  1  1
  1  3  2  0
  6 11  1  0
  6 12  1  0
 29 36  1  0
 29 37  1  0
  9  7  1  1
  7 13  1  0
 10  8  1  1
  8 14  1  0
 37 28  1  6
  4  5  1  0
 33 30  1  6
 30 38  1  0
 34 31  1  6
 31 39  1  0
 35 32  1  6
 32 40  1  0
 41 42  1  0
 41 43  1  0
 15 19  2  0
 16 22  2  0
 12 17  1  6
 17 19  1  0
 17 20  1  0
 18 19  1  0
 18 22  1  0
 18 23  1  0
  9 10  1  0
  9 11  1  0
 10 12  1  0
 11  5  1  6
 33 34  1  0
 33 35  1  0
 34 36  1  0
 35 37  1  0
 36 42  1  1
 20 21  2  0
 21 22  1  0
M  CHG  2   2  -1  26  -1
M  END
>  <COMPND>  (100) 
    8629 

>  <AUTHOR>  (100) 
    GENERATED BY OPEN BABEL 3.1.1

>  <MASTER>  (100) 
        0    0    0    0    0    0    0    0   58    0   58    0

>  <minimizedAffinity>  (100) 
-7.44526

>  <CNNscore>  (100) 
0.2658004463

>  <CNNaffinity>  (100) 
3.7674129009

>  <CNN_VS>  (100) 
1.0013800859

>  <CNNaffinity_variance>  (100) 
0.1206624359

$$$$
101
     RDKit          3D

 43 45  0  0  0  0  0  0  0  0999 V2000
   21.3189   69.3121   -1.0384 P   0  0  2  0  0  0  0  0  0  0  0  0
   22.2593   68.8331   -2.2646 O   0  0  0  0  0  0  0  0  0  0  0  0
   21.5089   68.5511    0.2407 O   0  0  0  0  0  0  0  0  0  0  0  0
   19.8251   69.2808   -1.6593 O   0  0  0  0  0  0  0  0  0  0  0  0
   19.6188   69.8228   -2.9522 C   0  0  0  0  0  0  0  0  0  0  0  0
   18.2533   71.4040   -4.1391 O   0  0  0  0  0  0  0  0  0  0  0  0
   15.9354   70.2596   -2.6196 O   0  0  0  0  0  0  0  0  0  0  0  0
   15.7032   69.0542   -5.0546 O   0  0  0  0  0  0  0  0  0  0  0  0
   17.0909   69.5998   -3.1343 C   0  0  1  0  0  0  0  0  0  0  0  0
   16.9909   69.4616   -4.6391 C   0  0  2  0  0  0  0  0  0  0  0  0
   18.2776   70.5428   -2.9797 C   0  0  1  0  0  0  0  0  0  0  0  0
   17.3402   70.8637   -5.1082 C   0  0  2  0  0  0  0  0  0  0  0  0
   15.1645   69.6766   -2.7071 H   0  0  0  0  0  0  0  0  0  0  0  0
   15.5280   68.1565   -4.7317 H   0  0  0  0  0  0  0  0  0  0  0  0
   15.9616   70.6251   -7.5619 O   0  0  0  0  0  0  0  0  0  0  0  0
   19.8680   70.8926   -9.9928 O   0  0  0  0  0  0  0  0  0  0  0  0
   17.9720   70.8684   -6.3975 N   0  0  0  0  0  0  0  0  0  0  0  0
   17.9078   70.7587   -8.7703 N   0  0  0  0  0  0  0  0  0  0  0  0
   17.1888   70.7414   -7.5683 C   0  0  0  0  0  0  0  0  0  0  0  0
   19.3534   70.9981   -6.4917 C   0  0  0  0  0  0  0  0  0  0  0  0
   20.0240   71.0114   -7.6456 C   0  0  0  0  0  0  0  0  0  0  0  0
   19.2803   70.8840   -8.9155 C   0  0  0  0  0  0  0  0  0  0  0  0
   17.3830   70.6713   -9.5990 H   0  0  0  0  0  0  0  0  0  0  0  0
   21.6357   70.8937   -0.9337 O   0  0  0  0  0  0  0  0  0  0  0  0
   21.0222   72.0377    0.0296 P   0  0  2  0  0  0  0  0  0  0  0  0
   20.7550   71.2502    1.4173 O   0  0  0  0  0  0  0  0  0  0  0  0
   19.8148   72.7317   -0.5311 O   0  0  0  0  0  0  0  0  0  0  0  0
   22.2672   73.0142    0.3482 O   0  0  0  0  0  0  0  0  0  0  0  0
   22.3411   74.2400    2.3752 O   0  0  0  0  0  0  0  0  0  0  0  0
   24.8956   76.5601    0.1075 O   0  0  0  0  0  0  0  0  0  0  0  0
   25.9625   74.9059    2.1987 O   0  0  0  0  0  0  0  0  0  0  0  0
   22.5387   75.3983   -1.1069 O   0  0  0  0  0  0  0  0  0  0  0  0
   24.2864   75.3441    0.5496 C   0  0  1  0  0  0  0  0  0  0  0  0
   24.5728   75.1797    2.0435 C   0  0  1  0  0  0  0  0  0  0  0  0
   22.7820   75.4184    0.2956 C   0  0  2  0  0  0  0  0  0  0  0  0
   23.7339   74.0451    2.6469 C   0  0  1  0  0  0  0  0  0  0  0  0
   22.0363   74.2710    0.9795 C   0  0  1  0  0  0  0  0  0  0  0  0
   25.8511   76.5193    0.2656 H   0  0  0  0  0  0  0  0  0  0  0  0
   26.4809   75.6296    1.8132 H   0  0  0  0  0  0  0  0  0  0  0  0
   23.0159   76.1296   -1.5282 H   0  0  0  0  0  0  0  0  0  0  0  0
   22.7451   73.3184    4.6970 O   0  0  0  0  0  0  0  0  0  0  0  0
   23.8856   73.9663    4.1644 C   0  0  0  0  0  0  0  0  0  0  0  0
   22.8279   73.2609    5.6622 H   0  0  0  0  0  0  0  0  0  0  0  0
 25 28  1  0
 25 24  1  0
 25 26  1  1
 25 27  2  0
  1  4  1  0
  1 24  1  0
  1  2  1  6
  1  3  2  0
  6 11  1  0
  6 12  1  0
 29 36  1  0
 29 37  1  0
  9  7  1  6
  7 13  1  0
 10  8  1  1
  8 14  1  0
 37 28  1  6
  4  5  1  0
 33 30  1  1
 30 38  1  0
 34 31  1  6
 31 39  1  0
 35 32  1  6
 32 40  1  0
 41 42  1  0
 41 43  1  0
 15 19  2  0
 16 22  2  0
 12 17  1  6
 17 19  1  0
 17 20  1  0
 18 19  1  0
 18 22  1  0
 18 23  1  0
  9 10  1  0
  9 11  1  0
 10 12  1  0
 11  5  1  6
 33 34  1  0
 33 35  1  0
 34 36  1  0
 35 37  1  0
 36 42  1  1
 20 21  2  0
 21 22  1  0
M  CHG  2   2  -1  26  -1
M  END
>  <COMPND>  (101) 
    8629 

>  <AUTHOR>  (101) 
    GENERATED BY OPEN BABEL 3.1.1

>  <MASTER>  (101) 
        0    0    0    0    0    0    0    0   58    0   58    0

>  <minimizedAffinity>  (101) 
-7.66206

>  <CNNscore>  (101) 
0.8538028002

>  <CNNaffinity>  (101) 
4.7328386307

>  <CNN_VS>  (101) 
4.0409107208

>  <CNNaffinity_variance>  (101) 
0.1912866831

$$$$
102
     RDKit          3D

 43 45  0  0  0  0  0  0  0  0999 V2000
   21.2636   69.3002   -1.0861 P   0  0  2  0  0  0  0  0  0  0  0  0
   22.4006   68.4981   -1.9115 O   0  0  0  0  0  0  0  0  0  0  0  0
   21.2621   69.0534    0.3940 O   0  0  0  0  0  0  0  0  0  0  0  0
   19.8909   68.9350   -1.8607 O   0  0  0  0  0  0  0  0  0  0  0  0
   19.6611   69.5081   -3.1361 C   0  0  0  0  0  0  0  0  0  0  0  0
   18.3849   71.2430   -4.2015 O   0  0  0  0  0  0  0  0  0  0  0  0
   16.0269   70.1832   -2.6825 O   0  0  0  0  0  0  0  0  0  0  0  0
   15.6533   69.1305   -5.1703 O   0  0  0  0  0  0  0  0  0  0  0  0
   17.1203   69.4729   -3.2618 C   0  0  1  0  0  0  0  0  0  0  0  0
   16.9760   69.4237   -4.7686 C   0  0  2  0  0  0  0  0  0  0  0  0
   18.3744   70.3208   -3.0899 C   0  0  1  0  0  0  0  0  0  0  0  0
   17.4136   70.8212   -5.1729 C   0  0  2  0  0  0  0  0  0  0  0  0
   15.2146   69.6611   -2.7798 H   0  0  0  0  0  0  0  0  0  0  0  0
   15.4221   68.2311   -4.8903 H   0  0  0  0  0  0  0  0  0  0  0  0
   15.9698   70.7129   -7.5981 O   0  0  0  0  0  0  0  0  0  0  0  0
   19.8238   70.9426  -10.1151 O   0  0  0  0  0  0  0  0  0  0  0  0
   18.0144   70.8514   -6.4765 N   0  0  0  0  0  0  0  0  0  0  0  0
   17.8900   70.8275   -8.8494 N   0  0  0  0  0  0  0  0  0  0  0  0
   17.1997   70.7906   -7.6311 C   0  0  0  0  0  0  0  0  0  0  0  0
   19.3966   70.9407   -6.6007 C   0  0  0  0  0  0  0  0  0  0  0  0
   20.0395   70.9735   -7.7698 C   0  0  0  0  0  0  0  0  0  0  0  0
   19.2620   70.9145   -9.0245 C   0  0  0  0  0  0  0  0  0  0  0  0
   17.3431   70.7861   -9.6673 H   0  0  0  0  0  0  0  0  0  0  0  0
   21.5226   70.8381   -1.5113 O   0  0  0  0  0  0  0  0  0  0  0  0
   22.5452   71.9439   -0.9245 P   0  0  2  0  0  0  0  0  0  0  0  0
   22.9118   72.8364   -2.2232 O   0  0  0  0  0  0  0  0  0  0  0  0
   23.7350   71.3662   -0.2142 O   0  0  0  0  0  0  0  0  0  0  0  0
   21.6256   72.9081   -0.0137 O   0  0  0  0  0  0  0  0  0  0  0  0
   22.2970   74.6304    1.4694 O   0  0  0  0  0  0  0  0  0  0  0  0
   18.9870   73.2503    3.5163 O   0  0  0  0  0  0  0  0  0  0  0  0
   18.8671   75.7848    2.1711 O   0  0  0  0  0  0  0  0  0  0  0  0
   20.7317   71.3786    2.1627 O   0  0  0  0  0  0  0  0  0  0  0  0
   19.7612   73.5743    2.3583 C   0  0  1  0  0  0  0  0  0  0  0  0
   20.0791   75.0704    2.3971 C   0  0  1  0  0  0  0  0  0  0  0  0
   21.0477   72.7508    2.3715 C   0  0  2  0  0  0  0  0  0  0  0  0
   21.1244   75.4423    1.3369 C   0  0  1  0  0  0  0  0  0  0  0  0
   22.0385   73.2340    1.3109 C   0  0  1  0  0  0  0  0  0  0  0  0
   18.1685   73.7694    3.5138 H   0  0  0  0  0  0  0  0  0  0  0  0
   18.2155   75.5405    2.8470 H   0  0  0  0  0  0  0  0  0  0  0  0
   20.1040   71.0847    2.8406 H   0  0  0  0  0  0  0  0  0  0  0  0
   21.2776   77.3476    2.7705 O   0  0  0  0  0  0  0  0  0  0  0  0
   21.5725   76.8969    1.4613 C   0  0  0  0  0  0  0  0  0  0  0  0
   21.5577   78.2720    2.8644 H   0  0  0  0  0  0  0  0  0  0  0  0
 25 28  1  0
 25 24  1  0
 25 26  1  6
 25 27  2  0
  1  4  1  0
  1 24  1  0
  1  2  1  6
  1  3  2  0
  6 11  1  0
  6 12  1  0
 29 36  1  0
 29 37  1  0
  9  7  1  1
  7 13  1  0
 10  8  1  1
  8 14  1  0
 37 28  1  6
  4  5  1  0
 33 30  1  1
 30 38  1  0
 34 31  1  6
 31 39  1  0
 35 32  1  6
 32 40  1  0
 41 42  1  0
 41 43  1  0
 15 19  2  0
 16 22  2  0
 12 17  1  6
 17 19  1  0
 17 20  1  0
 18 19  1  0
 18 22  1  0
 18 23  1  0
  9 10  1  0
  9 11  1  0
 10 12  1  0
 11  5  1  6
 33 34  1  0
 33 35  1  0
 34 36  1  0
 35 37  1  0
 36 42  1  1
 20 21  2  0
 21 22  1  0
M  CHG  2   2  -1  26  -1
M  END
>  <COMPND>  (102) 
    8629 

>  <AUTHOR>  (102) 
    GENERATED BY OPEN BABEL 3.1.1

>  <MASTER>  (102) 
        0    0    0    0    0    0    0    0   58    0   58    0

>  <minimizedAffinity>  (102) 
-7.23440

>  <CNNscore>  (102) 
0.8250179291

>  <CNNaffinity>  (102) 
4.7757406235

>  <CNN_VS>  (102) 
3.9400715828

>  <CNNaffinity_variance>  (102) 
0.0570879802

$$$$
103
     RDKit          3D

 43 45  0  0  0  0  0  0  0  0999 V2000
   21.3272   69.9787   -2.6981 P   0  0  2  0  0  0  0  0  0  0  0  0
   20.3145   70.2255   -1.4607 O   0  0  0  0  0  0  0  0  0  0  0  0
   22.2244   71.1365   -3.0234 O   0  0  0  0  0  0  0  0  0  0  0  0
   20.3616   69.4797   -3.8966 O   0  0  0  0  0  0  0  0  0  0  0  0
   19.1826   68.7679   -3.5632 C   0  0  0  0  0  0  0  0  0  0  0  0
   18.3028   70.9026   -4.2287 O   0  0  0  0  0  0  0  0  0  0  0  0
   15.6691   69.9378   -3.1687 O   0  0  0  0  0  0  0  0  0  0  0  0
   15.3892   69.5932   -5.8594 O   0  0  0  0  0  0  0  0  0  0  0  0
   16.6923   69.2075   -3.8433 C   0  0  1  0  0  0  0  0  0  0  0  0
   16.6942   69.5464   -5.3193 C   0  0  2  0  0  0  0  0  0  0  0  0
   18.0386   69.7575   -3.3890 C   0  0  1  0  0  0  0  0  0  0  0  0
   17.3806   70.9018   -5.3306 C   0  0  2  0  0  0  0  0  0  0  0  0
   14.7998   69.6042   -3.4426 H   0  0  0  0  0  0  0  0  0  0  0  0
   14.9950   68.7075   -5.8300 H   0  0  0  0  0  0  0  0  0  0  0  0
   16.2230   71.8713   -7.7176 O   0  0  0  0  0  0  0  0  0  0  0  0
   20.2625   71.7683   -9.9341 O   0  0  0  0  0  0  0  0  0  0  0  0
   18.1066   71.1379   -6.5465 N   0  0  0  0  0  0  0  0  0  0  0  0
   18.2354   71.8194   -8.8193 N   0  0  0  0  0  0  0  0  0  0  0  0
   17.4306   71.6249   -7.6895 C   0  0  0  0  0  0  0  0  0  0  0  0
   19.4735   70.8874   -6.5972 C   0  0  0  0  0  0  0  0  0  0  0  0
   20.2264   71.0768   -7.6829 C   0  0  0  0  0  0  0  0  0  0  0  0
   19.5974   71.5838   -8.9195 C   0  0  0  0  0  0  0  0  0  0  0  0
   17.7860   72.1578   -9.6276 H   0  0  0  0  0  0  0  0  0  0  0  0
   22.1024   68.6266   -2.2692 O   0  0  0  0  0  0  0  0  0  0  0  0
   23.2509   68.3673   -1.1617 P   0  0  2  0  0  0  0  0  0  0  0  0
   24.5639   69.0421   -1.8238 O   0  0  0  0  0  0  0  0  0  0  0  0
   23.4219   66.9259   -0.7784 O   0  0  0  0  0  0  0  0  0  0  0  0
   22.8647   69.3440    0.0638 O   0  0  0  0  0  0  0  0  0  0  0  0
   23.4011   71.6473   -0.0901 O   0  0  0  0  0  0  0  0  0  0  0  0
   22.9644   71.3436    4.0048 O   0  0  0  0  0  0  0  0  0  0  0  0
   20.9588   72.7018    2.4618 O   0  0  0  0  0  0  0  0  0  0  0  0
   24.2098   69.1919    2.5219 O   0  0  0  0  0  0  0  0  0  0  0  0
   22.6726   71.0426    2.6374 C   0  0  1  0  0  0  0  0  0  0  0  0
   22.2348   72.3347    1.9448 C   0  0  1  0  0  0  0  0  0  0  0  0
   23.9252   70.4742    1.9731 C   0  0  2  0  0  0  0  0  0  0  0  0
   22.1619   72.1502    0.4231 C   0  0  1  0  0  0  0  0  0  0  0  0
   23.7648   70.3774    0.4549 C   0  0  1  0  0  0  0  0  0  0  0  0
   22.1730   71.7045    4.4325 H   0  0  0  0  0  0  0  0  0  0  0  0
   21.0185   72.8147    3.4235 H   0  0  0  0  0  0  0  0  0  0  0  0
   24.3093   69.2667    3.4834 H   0  0  0  0  0  0  0  0  0  0  0  0
   20.8252   73.2565   -1.2195 O   0  0  0  0  0  0  0  0  0  0  0  0
   21.8809   73.4658   -0.2997 C   0  0  0  0  0  0  0  0  0  0  0  0
   20.6351   74.0856   -1.6867 H   0  0  0  0  0  0  0  0  0  0  0  0
 25 28  1  0
 25 24  1  0
 25 26  1  6
 25 27  2  0
  1  4  1  0
  1 24  1  0
  1  2  1  1
  1  3  2  0
  6 11  1  0
  6 12  1  0
 29 36  1  0
 29 37  1  0
  9  7  1  1
  7 13  1  0
 10  8  1  1
  8 14  1  0
 37 28  1  1
  4  5  1  0
 33 30  1  1
 30 38  1  0
 34 31  1  1
 31 39  1  0
 35 32  1  1
 32 40  1  0
 41 42  1  0
 41 43  1  0
 15 19  2  0
 16 22  2  0
 12 17  1  6
 17 19  1  0
 17 20  1  0
 18 19  1  0
 18 22  1  0
 18 23  1  0
  9 10  1  0
  9 11  1  0
 10 12  1  0
 11  5  1  6
 33 34  1  0
 33 35  1  0
 34 36  1  0
 35 37  1  0
 36 42  1  6
 20 21  2  0
 21 22  1  0
M  CHG  2   2  -1  26  -1
M  END
>  <COMPND>  (103) 
    8629 

>  <AUTHOR>  (103) 
    GENERATED BY OPEN BABEL 3.1.1

>  <MASTER>  (103) 
        0    0    0    0    0    0    0    0   58    0   58    0

>  <minimizedAffinity>  (103) 
-8.33357

>  <CNNscore>  (103) 
0.7949912548

>  <CNNaffinity>  (103) 
4.5623283386

>  <CNN_VS>  (103) 
3.6270110607

>  <CNNaffinity_variance>  (103) 
0.0930934697

$$$$
104
     RDKit          3D

 43 45  0  0  0  0  0  0  0  0999 V2000
   22.7669   70.0352   -2.5877 P   0  0  2  0  0  0  0  0  0  0  0  0
   23.6377   71.2199   -3.2627 O   0  0  0  0  0  0  0  0  0  0  0  0
   23.3653   68.6641   -2.7031 O   0  0  0  0  0  0  0  0  0  0  0  0
   21.2957   70.2166   -3.2364 O   0  0  0  0  0  0  0  0  0  0  0  0
   20.3833   69.1354   -3.1559 C   0  0  0  0  0  0  0  0  0  0  0  0
   18.7005   70.7080   -3.8406 O   0  0  0  0  0  0  0  0  0  0  0  0
   16.7750   69.0605   -2.2377 O   0  0  0  0  0  0  0  0  0  0  0  0
   16.2757   68.2421   -4.7907 O   0  0  0  0  0  0  0  0  0  0  0  0
   17.8920   68.6379   -3.0181 C   0  0  1  0  0  0  0  0  0  0  0  0
   17.5677   68.7316   -4.4944 C   0  0  2  0  0  0  0  0  0  0  0  0
   18.9917   69.6815   -2.8670 C   0  0  1  0  0  0  0  0  0  0  0  0
   17.7013   70.2229   -4.7522 C   0  0  2  0  0  0  0  0  0  0  0  0
   16.0598   68.4094   -2.3181 H   0  0  0  0  0  0  0  0  0  0  0  0
   16.2414   67.2897   -4.6104 H   0  0  0  0  0  0  0  0  0  0  0  0
   15.9971   70.1345   -7.0030 O   0  0  0  0  0  0  0  0  0  0  0  0
   19.4045   71.3473   -9.8595 O   0  0  0  0  0  0  0  0  0  0  0  0
   18.1166   70.5113   -6.0960 N   0  0  0  0  0  0  0  0  0  0  0  0
   17.6951   70.7386   -8.4234 N   0  0  0  0  0  0  0  0  0  0  0  0
   17.1823   70.4372   -7.1553 C   0  0  0  0  0  0  0  0  0  0  0  0
   19.4373   70.8634   -6.3526 C   0  0  0  0  0  0  0  0  0  0  0  0
   19.9106   71.1466   -7.5679 C   0  0  0  0  0  0  0  0  0  0  0  0
   18.9996   71.0925   -8.7295 C   0  0  0  0  0  0  0  0  0  0  0  0
   17.0625   70.6931   -9.1768 H   0  0  0  0  0  0  0  0  0  0  0  0
   22.5615   70.5541   -1.0706 O   0  0  0  0  0  0  0  0  0  0  0  0
   22.2769   69.7440    0.2990 P   0  0  2  0  0  0  0  0  0  0  0  0
   23.7260   69.1311    0.6755 O   0  0  0  0  0  0  0  0  0  0  0  0
   21.1811   68.7232    0.1938 O   0  0  0  0  0  0  0  0  0  0  0  0
   22.0191   70.8904    1.4055 O   0  0  0  0  0  0  0  0  0  0  0  0
   21.1752   73.0993    1.2473 O   0  0  0  0  0  0  0  0  0  0  0  0
   24.1723   73.7347    4.0158 O   0  0  0  0  0  0  0  0  0  0  0  0
   21.4279   73.7834    4.8608 O   0  0  0  0  0  0  0  0  0  0  0  0
   24.6036   71.9040    1.8154 O   0  0  0  0  0  0  0  0  0  0  0  0
   23.1279   73.0001    3.3717 C   0  0  1  0  0  0  0  0  0  0  0  0
   21.8311   73.8026    3.4943 C   0  0  1  0  0  0  0  0  0  0  0  0
   23.4954   72.7931    1.9036 C   0  0  2  0  0  0  0  0  0  0  0  0
   20.7289   73.2136    2.6036 C   0  0  1  0  0  0  0  0  0  0  0  0
   22.3145   72.2501    1.0968 C   0  0  1  0  0  0  0  0  0  0  0  0
   23.9454   73.8691    4.9485 H   0  0  0  0  0  0  0  0  0  0  0  0
   22.1328   74.1574    5.4124 H   0  0  0  0  0  0  0  0  0  0  0  0
   25.3446   72.2591    2.3299 H   0  0  0  0  0  0  0  0  0  0  0  0
   18.6860   73.7594    3.7161 O   0  0  0  0  0  0  0  0  0  0  0  0
   19.4770   74.0882    2.5890 C   0  0  0  0  0  0  0  0  0  0  0  0
   17.8859   74.3085    3.7201 H   0  0  0  0  0  0  0  0  0  0  0  0
 25 28  1  0
 25 24  1  0
 25 26  1  1
 25 27  2  0
  1  4  1  0
  1 24  1  0
  1  2  1  6
  1  3  2  0
  6 11  1  0
  6 12  1  0
 29 36  1  0
 29 37  1  0
  9  7  1  1
  7 13  1  0
 10  8  1  1
  8 14  1  0
 37 28  1  1
  4  5  1  0
 33 30  1  1
 30 38  1  0
 34 31  1  1
 31 39  1  0
 35 32  1  1
 32 40  1  0
 41 42  1  0
 41 43  1  0
 15 19  2  0
 16 22  2  0
 12 17  1  6
 17 19  1  0
 17 20  1  0
 18 19  1  0
 18 22  1  0
 18 23  1  0
  9 10  1  0
  9 11  1  0
 10 12  1  0
 11  5  1  6
 33 34  1  0
 33 35  1  0
 34 36  1  0
 35 37  1  0
 36 42  1  6
 20 21  2  0
 21 22  1  0
M  CHG  2   2  -1  26  -1
M  END
>  <COMPND>  (104) 
    8629 

>  <AUTHOR>  (104) 
    GENERATED BY OPEN BABEL 3.1.1

>  <MASTER>  (104) 
        0    0    0    0    0    0    0    0   58    0   58    0

>  <minimizedAffinity>  (104) 
-8.09644

>  <CNNscore>  (104) 
0.7834660411

>  <CNNaffinity>  (104) 
4.8445506096

>  <CNN_VS>  (104) 
3.7955408096

>  <CNNaffinity_variance>  (104) 
0.1047822982

$$$$
105
     RDKit          3D

 43 45  0  0  0  0  0  0  0  0999 V2000
   21.3300   69.2443   -1.0555 P   0  0  2  0  0  0  0  0  0  0  0  0
   22.4335   68.4763   -1.9555 O   0  0  0  0  0  0  0  0  0  0  0  0
   21.3520   68.8997    0.4047 O   0  0  0  0  0  0  0  0  0  0  0  0
   19.9351   68.9587   -1.8240 O   0  0  0  0  0  0  0  0  0  0  0  0
   19.7194   69.5708   -3.0836 C   0  0  0  0  0  0  0  0  0  0  0  0
   18.4126   71.2829   -4.1488 O   0  0  0  0  0  0  0  0  0  0  0  0
   16.0795   70.1985   -2.6089 O   0  0  0  0  0  0  0  0  0  0  0  0
   15.7037   69.1286   -5.0889 O   0  0  0  0  0  0  0  0  0  0  0  0
   17.1785   69.5004   -3.1921 C   0  0  1  0  0  0  0  0  0  0  0  0
   17.0249   69.4418   -4.6976 C   0  0  2  0  0  0  0  0  0  0  0  0
   18.4221   70.3661   -3.0327 C   0  0  1  0  0  0  0  0  0  0  0  0
   17.4407   70.8431   -5.1115 C   0  0  2  0  0  0  0  0  0  0  0  0
   15.2737   69.6650   -2.6982 H   0  0  0  0  0  0  0  0  0  0  0  0
   15.4865   68.2276   -4.8030 H   0  0  0  0  0  0  0  0  0  0  0  0
   15.9774   70.7830   -7.5267 O   0  0  0  0  0  0  0  0  0  0  0  0
   19.8162   70.9687  -10.0704 O   0  0  0  0  0  0  0  0  0  0  0  0
   18.0322   70.8750   -6.4194 N   0  0  0  0  0  0  0  0  0  0  0  0
   17.8900   70.8757   -8.7913 N   0  0  0  0  0  0  0  0  0  0  0  0
   17.2082   70.8394   -7.5683 C   0  0  0  0  0  0  0  0  0  0  0  0
   19.4149   70.9412   -6.5531 C   0  0  0  0  0  0  0  0  0  0  0  0
   20.0496   70.9738   -7.7267 C   0  0  0  0  0  0  0  0  0  0  0  0
   19.2620   70.9402   -8.9759 C   0  0  0  0  0  0  0  0  0  0  0  0
   17.3365   70.8515   -9.6054 H   0  0  0  0  0  0  0  0  0  0  0  0
   21.6133   70.8015   -1.3836 O   0  0  0  0  0  0  0  0  0  0  0  0
   22.3214   71.9595   -0.5058 P   0  0  2  0  0  0  0  0  0  0  0  0
   23.6094   71.2112    0.1257 O   0  0  0  0  0  0  0  0  0  0  0  0
   21.4194   72.6014    0.5082 O   0  0  0  0  0  0  0  0  0  0  0  0
   22.9361   72.9796   -1.5951 O   0  0  0  0  0  0  0  0  0  0  0  0
   22.7209   75.3302   -1.8074 O   0  0  0  0  0  0  0  0  0  0  0  0
   22.6653   74.2987   -5.8054 O   0  0  0  0  0  0  0  0  0  0  0  0
   24.9855   75.5847   -4.7049 O   0  0  0  0  0  0  0  0  0  0  0  0
   21.3225   72.6240   -3.8633 O   0  0  0  0  0  0  0  0  0  0  0  0
   23.0634   74.1868   -4.4363 C   0  0  1  0  0  0  0  0  0  0  0  0
   23.7369   75.4972   -4.0240 C   0  0  1  0  0  0  0  0  0  0  0  0
   21.8281   73.9236   -3.5772 C   0  0  2  0  0  0  0  0  0  0  0  0
   23.9510   75.5562   -2.5056 C   0  0  1  0  0  0  0  0  0  0  0  0
   22.1393   74.0549   -2.0852 C   0  0  1  0  0  0  0  0  0  0  0  0
   23.4452   74.4653   -6.3564 H   0  0  0  0  0  0  0  0  0  0  0  0
   24.8363   75.5458   -5.6628 H   0  0  0  0  0  0  0  0  0  0  0  0
   21.1291   72.5538   -4.8107 H   0  0  0  0  0  0  0  0  0  0  0  0
   25.8766   76.9496   -2.2613 O   0  0  0  0  0  0  0  0  0  0  0  0
   24.4764   76.9173   -2.0545 C   0  0  0  0  0  0  0  0  0  0  0  0
   26.2247   77.8103   -1.9790 H   0  0  0  0  0  0  0  0  0  0  0  0
 25 28  1  0
 25 24  1  0
 25 26  1  1
 25 27  2  0
  1  4  1  0
  1 24  1  0
  1  2  1  6
  1  3  2  0
  6 11  1  0
  6 12  1  0
 29 36  1  0
 29 37  1  0
  9  7  1  1
  7 13  1  0
 10  8  1  1
  8 14  1  0
 37 28  1  6
  4  5  1  0
 33 30  1  6
 30 38  1  0
 34 31  1  6
 31 39  1  0
 35 32  1  1
 32 40  1  0
 41 42  1  0
 41 43  1  0
 15 19  2  0
 16 22  2  0
 12 17  1  6
 17 19  1  0
 17 20  1  0
 18 19  1  0
 18 22  1  0
 18 23  1  0
  9 10  1  0
  9 11  1  0
 10 12  1  0
 11  5  1  6
 33 34  1  0
 33 35  1  0
 34 36  1  0
 35 37  1  0
 36 42  1  6
 20 21  2  0
 21 22  1  0
M  CHG  2   2  -1  26  -1
M  END
>  <COMPND>  (105) 
    8629 

>  <AUTHOR>  (105) 
    GENERATED BY OPEN BABEL 3.1.1

>  <MASTER>  (105) 
        0    0    0    0    0    0    0    0   58    0   58    0

>  <minimizedAffinity>  (105) 
-7.22755

>  <CNNscore>  (105) 
0.7449834347

>  <CNNaffinity>  (105) 
4.5602679253

>  <CNN_VS>  (105) 
3.3973240852

>  <CNNaffinity_variance>  (105) 
0.0846205577

$$$$
106
     RDKit          3D

 43 45  0  0  0  0  0  0  0  0999 V2000
   22.2489   72.8009   -3.8958 P   0  0  2  0  0  0  0  0  0  0  0  0
   22.6052   74.3769   -3.8142 O   0  0  0  0  0  0  0  0  0  0  0  0
   23.3674   71.8775   -3.5114 O   0  0  0  0  0  0  0  0  0  0  0  0
   21.6647   72.6118   -5.3927 O   0  0  0  0  0  0  0  0  0  0  0  0
   20.5447   73.3864   -5.7843 C   0  0  0  0  0  0  0  0  0  0  0  0
   19.7074   71.4121   -6.8682 O   0  0  0  0  0  0  0  0  0  0  0  0
   18.4779   73.2648   -8.8798 O   0  0  0  0  0  0  0  0  0  0  0  0
   16.3594   72.6286   -7.2849 O   0  0  0  0  0  0  0  0  0  0  0  0
   18.6431   73.4410   -7.4738 C   0  0  1  0  0  0  0  0  0  0  0  0
   17.6521   72.5822   -6.7162 C   0  0  2  0  0  0  0  0  0  0  0  0
   19.9746   72.8163   -7.0758 C   0  0  1  0  0  0  0  0  0  0  0  0
   18.2863   71.2054   -6.8173 C   0  0  2  0  0  0  0  0  0  0  0  0
   17.6343   73.6561   -9.1576 H   0  0  0  0  0  0  0  0  0  0  0  0
   15.9986   73.5245   -7.1958 H   0  0  0  0  0  0  0  0  0  0  0  0
   15.8986   69.7233   -6.5343 O   0  0  0  0  0  0  0  0  0  0  0  0
   17.2030   68.0560   -2.4404 O   0  0  0  0  0  0  0  0  0  0  0  0
   17.9760   70.3752   -5.6878 N   0  0  0  0  0  0  0  0  0  0  0  0
   16.5501   68.8942   -4.4962 N   0  0  0  0  0  0  0  0  0  0  0  0
   16.7488   69.6734   -5.6430 C   0  0  0  0  0  0  0  0  0  0  0  0
   18.8836   70.2628   -4.6401 C   0  0  0  0  0  0  0  0  0  0  0  0
   18.6785   69.5165   -3.5529 C   0  0  0  0  0  0  0  0  0  0  0  0
   17.4212   68.7512   -3.4278 C   0  0  0  0  0  0  0  0  0  0  0  0
   15.7020   68.3966   -4.4429 H   0  0  0  0  0  0  0  0  0  0  0  0
   20.9280   72.6786   -2.9721 O   0  0  0  0  0  0  0  0  0  0  0  0
   20.4088   73.5831   -1.7371 P   0  0  2  0  0  0  0  0  0  0  0  0
   18.8853   73.0820   -1.5249 O   0  0  0  0  0  0  0  0  0  0  0  0
   20.5496   75.0618   -1.9554 O   0  0  0  0  0  0  0  0  0  0  0  0
   21.2066   73.0177   -0.4530 O   0  0  0  0  0  0  0  0  0  0  0  0
   20.8980   70.7723    0.2395 O   0  0  0  0  0  0  0  0  0  0  0  0
   22.3125   72.3652    3.7768 O   0  0  0  0  0  0  0  0  0  0  0  0
   24.0004   70.6351    2.2257 O   0  0  0  0  0  0  0  0  0  0  0  0
   20.5126   73.9084    2.1161 O   0  0  0  0  0  0  0  0  0  0  0  0
   22.2183   72.2250    2.3566 C   0  0  1  0  0  0  0  0  0  0  0  0
   22.6039   70.7906    1.9897 C   0  0  1  0  0  0  0  0  0  0  0  0
   20.7858   72.5253    1.9194 C   0  0  2  0  0  0  0  0  0  0  0  0
   22.2727   70.4860    0.5225 C   0  0  1  0  0  0  0  0  0  0  0  0
   20.5490   72.1406    0.4579 C   0  0  1  0  0  0  0  0  0  0  0  0
   23.2198   72.1763    4.0609 H   0  0  0  0  0  0  0  0  0  0  0  0
   24.1962   70.8308    3.1555 H   0  0  0  0  0  0  0  0  0  0  0  0
   20.6659   74.1393    3.0451 H   0  0  0  0  0  0  0  0  0  0  0  0
   21.2430   68.3813    0.0545 O   0  0  0  0  0  0  0  0  0  0  0  0
   22.5024   69.0162    0.1776 C   0  0  0  0  0  0  0  0  0  0  0  0
   21.3736   67.4452   -0.1652 H   0  0  0  0  0  0  0  0  0  0  0  0
 25 28  1  0
 25 24  1  0
 25 26  1  1
 25 27  2  0
  1  4  1  0
  1 24  1  0
  1  2  1  6
  1  3  2  0
  6 11  1  0
  6 12  1  0
 29 36  1  0
 29 37  1  0
  9  7  1  6
  7 13  1  0
 10  8  1  6
  8 14  1  0
 37 28  1  6
  4  5  1  0
 33 30  1  1
 30 38  1  0
 34 31  1  6
 31 39  1  0
 35 32  1  6
 32 40  1  0
 41 42  1  0
 41 43  1  0
 15 19  2  0
 16 22  2  0
 12 17  1  1
 17 19  1  0
 17 20  1  0
 18 19  1  0
 18 22  1  0
 18 23  1  0
  9 10  1  0
  9 11  1  0
 10 12  1  0
 11  5  1  1
 33 34  1  0
 33 35  1  0
 34 36  1  0
 35 37  1  0
 36 42  1  1
 20 21  2  0
 21 22  1  0
M  CHG  2   2  -1  26  -1
M  END
>  <COMPND>  (106) 
    8629 

>  <AUTHOR>  (106) 
    GENERATED BY OPEN BABEL 3.1.1

>  <MASTER>  (106) 
        0    0    0    0    0    0    0    0   58    0   58    0

>  <minimizedAffinity>  (106) 
-7.17626

>  <CNNscore>  (106) 
0.7039514184

>  <CNNaffinity>  (106) 
4.4136114120

>  <CNN_VS>  (106) 
3.1069679260

>  <CNNaffinity_variance>  (106) 
0.4007425308

$$$$
107
     RDKit          3D

 43 45  0  0  0  0  0  0  0  0999 V2000
   20.3792   74.0638   -4.4900 P   0  0  2  0  0  0  0  0  0  0  0  0
   18.9569   73.5169   -3.9464 O   0  0  0  0  0  0  0  0  0  0  0  0
   20.7325   75.4548   -4.0521 O   0  0  0  0  0  0  0  0  0  0  0  0
   20.3001   73.8292   -6.0889 O   0  0  0  0  0  0  0  0  0  0  0  0
   20.8283   72.6277   -6.6230 C   0  0  0  0  0  0  0  0  0  0  0  0
   19.4493   70.8216   -7.4040 O   0  0  0  0  0  0  0  0  0  0  0  0
   18.2057   72.8217   -9.2599 O   0  0  0  0  0  0  0  0  0  0  0  0
   16.3629   72.6426   -7.2577 O   0  0  0  0  0  0  0  0  0  0  0  0
   18.6737   72.9997   -7.9240 C   0  0  1  0  0  0  0  0  0  0  0  0
   17.7118   72.3656   -6.9410 C   0  0  2  0  0  0  0  0  0  0  0  0
   19.9212   72.1433   -7.7458 C   0  0  1  0  0  0  0  0  0  0  0  0
   18.0526   70.8909   -7.0735 C   0  0  2  0  0  0  0  0  0  0  0  0
   17.4095   73.3593   -9.3976 H   0  0  0  0  0  0  0  0  0  0  0  0
   16.1958   73.5928   -7.1584 H   0  0  0  0  0  0  0  0  0  0  0  0
   15.6249   69.6083   -6.4106 O   0  0  0  0  0  0  0  0  0  0  0  0
   17.2930   68.1355   -2.3745 O   0  0  0  0  0  0  0  0  0  0  0  0
   17.8249   70.1647   -5.8560 N   0  0  0  0  0  0  0  0  0  0  0  0
   16.4575   68.8759   -4.4015 N   0  0  0  0  0  0  0  0  0  0  0  0
   16.5692   69.5583   -5.6197 C   0  0  0  0  0  0  0  0  0  0  0  0
   18.8405   70.0590   -4.9119 C   0  0  0  0  0  0  0  0  0  0  0  0
   18.7176   69.4057   -3.7546 C   0  0  0  0  0  0  0  0  0  0  0  0
   17.4374   68.7439   -3.4304 C   0  0  0  0  0  0  0  0  0  0  0  0
   15.5915   68.4458   -4.2151 H   0  0  0  0  0  0  0  0  0  0  0  0
   21.4164   72.9223   -4.0062 O   0  0  0  0  0  0  0  0  0  0  0  0
   22.9155   73.0332   -3.4116 P   0  0  2  0  0  0  0  0  0  0  0  0
   22.7876   74.2000   -2.2982 O   0  0  0  0  0  0  0  0  0  0  0  0
   23.9722   73.2803   -4.4490 O   0  0  0  0  0  0  0  0  0  0  0  0
   23.1184   71.6774   -2.5598 O   0  0  0  0  0  0  0  0  0  0  0  0
   22.5183   69.3849   -2.5294 O   0  0  0  0  0  0  0  0  0  0  0  0
   20.9987   70.5135    1.1405 O   0  0  0  0  0  0  0  0  0  0  0  0
   23.3670   68.8931    1.0240 O   0  0  0  0  0  0  0  0  0  0  0  0
   20.7929   72.3083   -1.1214 O   0  0  0  0  0  0  0  0  0  0  0  0
   21.9255   70.5354    0.0515 C   0  0  1  0  0  0  0  0  0  0  0  0
   22.5228   69.1348   -0.0981 C   0  0  1  0  0  0  0  0  0  0  0  0
   21.1889   70.9447   -1.2227 C   0  0  2  0  0  0  0  0  0  0  0  0
   23.3200   69.0091   -1.4034 C   0  0  1  0  0  0  0  0  0  0  0  0
   22.0535   70.7347   -2.4671 C   0  0  1  0  0  0  0  0  0  0  0  0
   21.4601   70.2548    1.9527 H   0  0  0  0  0  0  0  0  0  0  0  0
   22.8516   68.9761    1.8417 H   0  0  0  0  0  0  0  0  0  0  0  0
   20.2460   72.4281   -0.3299 H   0  0  0  0  0  0  0  0  0  0  0  0
   23.2843   66.7532   -0.6169 O   0  0  0  0  0  0  0  0  0  0  0  0
   23.7919   67.5778   -1.6497 C   0  0  0  0  0  0  0  0  0  0  0  0
   23.5765   65.8391   -0.7608 H   0  0  0  0  0  0  0  0  0  0  0  0
 25 28  1  0
 25 24  1  0
 25 26  1  1
 25 27  2  0
  1  4  1  0
  1 24  1  0
  1  2  1  1
  1  3  2  0
  6 11  1  0
  6 12  1  0
 29 36  1  0
 29 37  1  0
  9  7  1  6
  7 13  1  0
 10  8  1  6
  8 14  1  0
 37 28  1  1
  4  5  1  0
 33 30  1  1
 30 38  1  0
 34 31  1  1
 31 39  1  0
 35 32  1  1
 32 40  1  0
 41 42  1  0
 41 43  1  0
 15 19  2  0
 16 22  2  0
 12 17  1  1
 17 19  1  0
 17 20  1  0
 18 19  1  0
 18 22  1  0
 18 23  1  0
  9 10  1  0
  9 11  1  0
 10 12  1  0
 11  5  1  1
 33 34  1  0
 33 35  1  0
 34 36  1  0
 35 37  1  0
 36 42  1  6
 20 21  2  0
 21 22  1  0
M  CHG  2   2  -1  26  -1
M  END
>  <COMPND>  (107) 
    8629 

>  <AUTHOR>  (107) 
    GENERATED BY OPEN BABEL 3.1.1

>  <MASTER>  (107) 
        0    0    0    0    0    0    0    0   58    0   58    0

>  <minimizedAffinity>  (107) 
-7.96055

>  <CNNscore>  (107) 
0.6451508403

>  <CNNaffinity>  (107) 
4.2866692543

>  <CNN_VS>  (107) 
2.7655482292

>  <CNNaffinity_variance>  (107) 
0.9082155228

$$$$
108
     RDKit          3D

 43 45  0  0  0  0  0  0  0  0999 V2000
   22.4073   72.8286   -3.9712 P   0  0  2  0  0  0  0  0  0  0  0  0
   21.8807   73.8828   -2.8626 O   0  0  0  0  0  0  0  0  0  0  0  0
   23.8906   72.8351   -4.1977 O   0  0  0  0  0  0  0  0  0  0  0  0
   21.4966   73.1443   -5.2708 O   0  0  0  0  0  0  0  0  0  0  0  0
   20.9815   72.0548   -6.0162 C   0  0  0  0  0  0  0  0  0  0  0  0
   18.8189   71.3331   -6.7751 O   0  0  0  0  0  0  0  0  0  0  0  0
   18.0705   74.2364   -6.8132 O   0  0  0  0  0  0  0  0  0  0  0  0
   16.9445   73.3628   -4.4883 O   0  0  0  0  0  0  0  0  0  0  0  0
   18.9148   73.5343   -5.9025 C   0  0  1  0  0  0  0  0  0  0  0  0
   18.0843   72.6792   -4.9682 C   0  0  2  0  0  0  0  0  0  0  0  0
   19.6868   72.4847   -6.6923 C   0  0  1  0  0  0  0  0  0  0  0  0
   17.7275   71.4985   -5.8552 C   0  0  2  0  0  0  0  0  0  0  0  0
   17.5674   74.9125   -6.3318 H   0  0  0  0  0  0  0  0  0  0  0  0
   17.2237   74.1048   -3.9295 H   0  0  0  0  0  0  0  0  0  0  0  0
   15.6921   69.5999   -6.3352 O   0  0  0  0  0  0  0  0  0  0  0  0
   17.1764   66.8757   -2.9268 O   0  0  0  0  0  0  0  0  0  0  0  0
   17.5588   70.2839   -5.1085 N   0  0  0  0  0  0  0  0  0  0  0  0
   16.4330   68.2449   -4.6378 N   0  0  0  0  0  0  0  0  0  0  0  0
   16.5036   69.3984   -5.4294 C   0  0  0  0  0  0  0  0  0  0  0  0
   18.4342   69.9808   -4.0714 C   0  0  0  0  0  0  0  0  0  0  0  0
   18.3524   68.8772   -3.3252 C   0  0  0  0  0  0  0  0  0  0  0  0
   17.2783   67.8998   -3.5952 C   0  0  0  0  0  0  0  0  0  0  0  0
   15.7056   67.6136   -4.8428 H   0  0  0  0  0  0  0  0  0  0  0  0
   21.8133   71.4204   -3.4447 O   0  0  0  0  0  0  0  0  0  0  0  0
   22.4699   70.2725   -2.5151 P   0  0  2  0  0  0  0  0  0  0  0  0
   23.9849   70.1651   -3.0727 O   0  0  0  0  0  0  0  0  0  0  0  0
   21.7162   68.9741   -2.5161 O   0  0  0  0  0  0  0  0  0  0  0  0
   22.6181   70.9588   -1.0619 O   0  0  0  0  0  0  0  0  0  0  0  0
   22.2039   70.0433    1.0845 O   0  0  0  0  0  0  0  0  0  0  0  0
   20.9607   73.9209    1.7699 O   0  0  0  0  0  0  0  0  0  0  0  0
   23.4258   72.9982    2.9189 O   0  0  0  0  0  0  0  0  0  0  0  0
   20.3995   72.6524   -0.7709 O   0  0  0  0  0  0  0  0  0  0  0  0
   21.7741   72.8963    1.1919 C   0  0  1  0  0  0  0  0  0  0  0  0
   22.4614   72.1330    2.3258 C   0  0  1  0  0  0  0  0  0  0  0  0
   20.8889   71.9593    0.3722 C   0  0  2  0  0  0  0  0  0  0  0  0
   23.1369   70.8572    1.8049 C   0  0  1  0  0  0  0  0  0  0  0  0
   21.6437   70.6991   -0.0547 C   0  0  1  0  0  0  0  0  0  0  0  0
   21.5167   74.5196    2.2913 H   0  0  0  0  0  0  0  0  0  0  0  0
   22.9864   73.8001    3.2432 H   0  0  0  0  0  0  0  0  0  0  0  0
   19.9235   73.4479   -0.4873 H   0  0  0  0  0  0  0  0  0  0  0  0
   23.0403   70.3674    4.1415 O   0  0  0  0  0  0  0  0  0  0  0  0
   23.6930   70.0002    2.9400 C   0  0  0  0  0  0  0  0  0  0  0  0
   23.3840   69.8298    4.8727 H   0  0  0  0  0  0  0  0  0  0  0  0
 25 28  1  0
 25 24  1  0
 25 26  1  6
 25 27  2  0
  1  4  1  0
  1 24  1  0
  1  2  1  1
  1  3  2  0
  6 11  1  0
  6 12  1  0
 29 36  1  0
 29 37  1  0
  9  7  1  6
  7 13  1  0
 10  8  1  6
  8 14  1  0
 37 28  1  6
  4  5  1  0
 33 30  1  1
 30 38  1  0
 34 31  1  6
 31 39  1  0
 35 32  1  6
 32 40  1  0
 41 42  1  0
 41 43  1  0
 15 19  2  0
 16 22  2  0
 12 17  1  1
 17 19  1  0
 17 20  1  0
 18 19  1  0
 18 22  1  0
 18 23  1  0
  9 10  1  0
  9 11  1  0
 10 12  1  0
 11  5  1  1
 33 34  1  0
 33 35  1  0
 34 36  1  0
 35 37  1  0
 36 42  1  1
 20 21  2  0
 21 22  1  0
M  CHG  2   2  -1  26  -1
M  END
>  <COMPND>  (108) 
    8629 

>  <AUTHOR>  (108) 
    GENERATED BY OPEN BABEL 3.1.1

>  <MASTER>  (108) 
        0    0    0    0    0    0    0    0   58    0   58    0

>  <minimizedAffinity>  (108) 
-7.07942

>  <CNNscore>  (108) 
0.6424567699

>  <CNNaffinity>  (108) 
4.3301796913

>  <CNN_VS>  (108) 
2.7819533348

>  <CNNaffinity_variance>  (108) 
0.1084953323

$$$$
109
     RDKit          3D

 43 45  0  0  0  0  0  0  0  0999 V2000
   21.7745   69.3565   -1.1856 P   0  0  2  0  0  0  0  0  0  0  0  0
   22.8765   68.3661   -1.8354 O   0  0  0  0  0  0  0  0  0  0  0  0
   20.8718   68.7207   -0.1695 O   0  0  0  0  0  0  0  0  0  0  0  0
   21.0373   70.0120   -2.4680 O   0  0  0  0  0  0  0  0  0  0  0  0
   19.9719   69.2998   -3.0726 C   0  0  0  0  0  0  0  0  0  0  0  0
   18.6521   71.0770   -4.0073 O   0  0  0  0  0  0  0  0  0  0  0  0
   16.3650   69.9603   -2.4221 O   0  0  0  0  0  0  0  0  0  0  0  0
   15.8717   69.0075   -4.9291 O   0  0  0  0  0  0  0  0  0  0  0  0
   17.4278   69.2724   -3.0798 C   0  0  1  0  0  0  0  0  0  0  0  0
   17.2127   69.2831   -4.5789 C   0  0  2  0  0  0  0  0  0  0  0  0
   18.6912   70.1114   -2.9338 C   0  0  1  0  0  0  0  0  0  0  0  0
   17.6349   70.6951   -4.9478 C   0  0  2  0  0  0  0  0  0  0  0  0
   15.5474   69.4434   -2.5016 H   0  0  0  0  0  0  0  0  0  0  0  0
   15.6512   68.0980   -4.6743 H   0  0  0  0  0  0  0  0  0  0  0  0
   16.0824   70.6293   -7.3064 O   0  0  0  0  0  0  0  0  0  0  0  0
   19.8103   71.0125   -9.9892 O   0  0  0  0  0  0  0  0  0  0  0  0
   18.1738   70.7763   -6.2761 N   0  0  0  0  0  0  0  0  0  0  0  0
   17.9399   70.8203   -8.6403 N   0  0  0  0  0  0  0  0  0  0  0  0
   17.3077   70.7331   -7.3934 C   0  0  0  0  0  0  0  0  0  0  0  0
   19.5468   70.8975   -6.4607 C   0  0  0  0  0  0  0  0  0  0  0  0
   20.1340   70.9782   -7.6565 C   0  0  0  0  0  0  0  0  0  0  0  0
   19.3004   70.9405   -8.8754 C   0  0  0  0  0  0  0  0  0  0  0  0
   17.3565   70.7920   -9.4332 H   0  0  0  0  0  0  0  0  0  0  0  0
   22.6713   70.5763   -0.6192 O   0  0  0  0  0  0  0  0  0  0  0  0
   22.3247   71.7447    0.4428 P   0  0  2  0  0  0  0  0  0  0  0  0
   23.7460   72.4884    0.6532 O   0  0  0  0  0  0  0  0  0  0  0  0
   21.6885   71.2545    1.7112 O   0  0  0  0  0  0  0  0  0  0  0  0
   21.4313   72.8007   -0.3889 O   0  0  0  0  0  0  0  0  0  0  0  0
   22.6415   73.4978   -2.3035 O   0  0  0  0  0  0  0  0  0  0  0  0
   19.3805   76.0093   -2.6337 O   0  0  0  0  0  0  0  0  0  0  0  0
   19.6629   73.8056   -4.4535 O   0  0  0  0  0  0  0  0  0  0  0  0
   20.4908   75.4197   -0.0262 O   0  0  0  0  0  0  0  0  0  0  0  0
   20.0614   74.7935   -2.3119 C   0  0  1  0  0  0  0  0  0  0  0  0
   20.7048   74.2516   -3.5899 C   0  0  1  0  0  0  0  0  0  0  0  0
   21.1256   75.0820   -1.2548 C   0  0  2  0  0  0  0  0  0  0  0  0
   21.6705   73.1002   -3.2786 C   0  0  1  0  0  0  0  0  0  0  0  0
   22.0632   73.8896   -1.0570 C   0  0  1  0  0  0  0  0  0  0  0  0
   18.7031   75.8330   -3.3041 H   0  0  0  0  0  0  0  0  0  0  0  0
   19.0600   74.5419   -4.6418 H   0  0  0  0  0  0  0  0  0  0  0  0
   19.9003   76.1760   -0.1646 H   0  0  0  0  0  0  0  0  0  0  0  0
   23.8179   72.9042   -4.3078 O   0  0  0  0  0  0  0  0  0  0  0  0
   22.4412   72.6494   -4.5176 C   0  0  0  0  0  0  0  0  0  0  0  0
   24.3210   72.6220   -5.0882 H   0  0  0  0  0  0  0  0  0  0  0  0
 25 28  1  0
 25 24  1  0
 25 26  1  1
 25 27  2  0
  1  4  1  0
  1 24  1  0
  1  2  1  6
  1  3  2  0
  6 11  1  0
  6 12  1  0
 29 36  1  0
 29 37  1  0
  9  7  1  1
  7 13  1  0
 10  8  1  1
  8 14  1  0
 37 28  1  6
  4  5  1  0
 33 30  1  6
 30 38  1  0
 34 31  1  6
 31 39  1  0
 35 32  1  1
 32 40  1  0
 41 42  1  0
 41 43  1  0
 15 19  2  0
 16 22  2  0
 12 17  1  6
 17 19  1  0
 17 20  1  0
 18 19  1  0
 18 22  1  0
 18 23  1  0
  9 10  1  0
  9 11  1  0
 10 12  1  0
 11  5  1  6
 33 34  1  0
 33 35  1  0
 34 36  1  0
 35 37  1  0
 36 42  1  6
 20 21  2  0
 21 22  1  0
M  CHG  2   2  -1  26  -1
M  END
>  <COMPND>  (109) 
    8629 

>  <AUTHOR>  (109) 
    GENERATED BY OPEN BABEL 3.1.1

>  <MASTER>  (109) 
        0    0    0    0    0    0    0    0   58    0   58    0

>  <minimizedAffinity>  (109) 
-7.16393

>  <CNNscore>  (109) 
0.6245207191

>  <CNNaffinity>  (109) 
4.5021553040

>  <CNN_VS>  (109) 
2.8116893768

>  <CNNaffinity_variance>  (109) 
0.0607657321

$$$$
110
     RDKit          3D

 43 45  0  0  0  0  0  0  0  0999 V2000
   20.9275   69.4323   -1.2951 P   0  0  2  0  0  0  0  0  0  0  0  0
   22.0425   68.8943   -2.3366 O   0  0  0  0  0  0  0  0  0  0  0  0
   21.1642   69.0551    0.1377 O   0  0  0  0  0  0  0  0  0  0  0  0
   19.5272   68.9305   -1.9317 O   0  0  0  0  0  0  0  0  0  0  0  0
   19.2019   69.3318   -3.2511 C   0  0  0  0  0  0  0  0  0  0  0  0
   18.1078   71.2793   -4.1367 O   0  0  0  0  0  0  0  0  0  0  0  0
   15.5564   70.0804   -3.1152 O   0  0  0  0  0  0  0  0  0  0  0  0
   15.4676   69.4888   -5.7758 O   0  0  0  0  0  0  0  0  0  0  0  0
   16.6958   69.4322   -3.6782 C   0  0  1  0  0  0  0  0  0  0  0  0
   16.7372   69.6492   -5.1765 C   0  0  2  0  0  0  0  0  0  0  0  0
   17.9388   70.1811   -3.2138 C   0  0  1  0  0  0  0  0  0  0  0  0
   17.2540   71.0745   -5.2742 C   0  0  2  0  0  0  0  0  0  0  0  0
   14.7502   69.6196   -3.3974 H   0  0  0  0  0  0  0  0  0  0  0  0
   15.1826   68.5659   -5.6875 H   0  0  0  0  0  0  0  0  0  0  0  0
   16.1501   71.9755   -7.7130 O   0  0  0  0  0  0  0  0  0  0  0  0
   20.2552   71.9087   -9.8070 O   0  0  0  0  0  0  0  0  0  0  0  0
   18.0114   71.3015   -6.4727 N   0  0  0  0  0  0  0  0  0  0  0  0
   18.1950   71.9417   -8.7536 N   0  0  0  0  0  0  0  0  0  0  0  0
   17.3607   71.7533   -7.6444 C   0  0  0  0  0  0  0  0  0  0  0  0
   19.3837   71.0767   -6.4782 C   0  0  0  0  0  0  0  0  0  0  0  0
   20.1649   71.2599   -7.5446 C   0  0  0  0  0  0  0  0  0  0  0  0
   19.5637   71.7308   -8.8090 C   0  0  0  0  0  0  0  0  0  0  0  0
   17.7637   72.2558   -9.5813 H   0  0  0  0  0  0  0  0  0  0  0  0
   20.9049   71.0239   -1.5769 O   0  0  0  0  0  0  0  0  0  0  0  0
   21.7908   72.2246   -0.9553 P   0  0  2  0  0  0  0  0  0  0  0  0
   23.2361   71.5364   -0.7207 O   0  0  0  0  0  0  0  0  0  0  0  0
   21.1986   72.8547    0.2719 O   0  0  0  0  0  0  0  0  0  0  0  0
   22.0194   73.2432   -2.1862 O   0  0  0  0  0  0  0  0  0  0  0  0
   20.3032   73.3463   -3.8174 O   0  0  0  0  0  0  0  0  0  0  0  0
   23.3534   75.1287   -5.9553 O   0  0  0  0  0  0  0  0  0  0  0  0
   21.1833   76.7339   -4.9744 O   0  0  0  0  0  0  0  0  0  0  0  0
   23.9282   72.8898   -4.2126 O   0  0  0  0  0  0  0  0  0  0  0  0
   22.5947   74.8122   -4.7849 C   0  0  1  0  0  0  0  0  0  0  0  0
   21.1627   75.3092   -4.9928 C   0  0  1  0  0  0  0  0  0  0  0  0
   22.6132   73.2997   -4.5720 C   0  0  2  0  0  0  0  0  0  0  0  0
   20.2266   74.7742   -3.9008 C   0  0  1  0  0  0  0  0  0  0  0  0
   21.6116   72.8680   -3.4993 C   0  0  1  0  0  0  0  0  0  0  0  0
   23.3460   76.0877   -6.0959 H   0  0  0  0  0  0  0  0  0  0  0  0
   21.7783   77.0588   -5.6683 H   0  0  0  0  0  0  0  0  0  0  0  0
   24.5528   73.1687   -4.8997 H   0  0  0  0  0  0  0  0  0  0  0  0
   18.3725   74.5017   -5.3830 O   0  0  0  0  0  0  0  0  0  0  0  0
   18.7665   75.1273   -4.1757 C   0  0  0  0  0  0  0  0  0  0  0  0
   17.4452   74.7174   -5.5706 H   0  0  0  0  0  0  0  0  0  0  0  0
 25 28  1  0
 25 24  1  0
 25 26  1  1
 25 27  2  0
  1  4  1  0
  1 24  1  0
  1  2  1  6
  1  3  2  0
  6 11  1  0
  6 12  1  0
 29 36  1  0
 29 37  1  0
  9  7  1  1
  7 13  1  0
 10  8  1  1
  8 14  1  0
 37 28  1  1
  4  5  1  0
 33 30  1  6
 30 38  1  0
 34 31  1  1
 31 39  1  0
 35 32  1  1
 32 40  1  0
 41 42  1  0
 41 43  1  0
 15 19  2  0
 16 22  2  0
 12 17  1  6
 17 19  1  0
 17 20  1  0
 18 19  1  0
 18 22  1  0
 18 23  1  0
  9 10  1  0
  9 11  1  0
 10 12  1  0
 11  5  1  6
 33 34  1  0
 33 35  1  0
 34 36  1  0
 35 37  1  0
 36 42  1  6
 20 21  2  0
 21 22  1  0
M  CHG  2   2  -1  26  -1
M  END
>  <COMPND>  (110) 
    8629 

>  <AUTHOR>  (110) 
    GENERATED BY OPEN BABEL 3.1.1

>  <MASTER>  (110) 
        0    0    0    0    0    0    0    0   58    0   58    0

>  <minimizedAffinity>  (110) 
-7.22055

>  <CNNscore>  (110) 
0.6157174706

>  <CNNaffinity>  (110) 
4.2909650803

>  <CNN_VS>  (110) 
2.6420221329

>  <CNNaffinity_variance>  (110) 
0.3669210970

$$$$
111
     RDKit          3D

 43 45  0  0  0  0  0  0  0  0999 V2000
   23.1644   69.5622   -2.1598 P   0  0  2  0  0  0  0  0  0  0  0  0
   23.2750   67.9685   -1.9041 O   0  0  0  0  0  0  0  0  0  0  0  0
   24.0347   70.0890   -3.2628 O   0  0  0  0  0  0  0  0  0  0  0  0
   23.4147   70.2085   -0.6978 O   0  0  0  0  0  0  0  0  0  0  0  0
   22.7855   69.6108    0.4224 C   0  0  0  0  0  0  0  0  0  0  0  0
   24.4503   71.0481    1.3902 O   0  0  0  0  0  0  0  0  0  0  0  0
   23.5062   70.0383    4.0510 O   0  0  0  0  0  0  0  0  0  0  0  0
   22.2895   72.4724    3.8733 O   0  0  0  0  0  0  0  0  0  0  0  0
   22.7535   70.3072    2.8693 C   0  0  1  0  0  0  0  0  0  0  0  0
   22.6032   71.8009    2.6701 C   0  0  2  0  0  0  0  0  0  0  0  0
   23.6053   69.9105    1.6699 C   0  0  1  0  0  0  0  0  0  0  0  0
   23.9682   72.1851    2.1250 C   0  0  2  0  0  0  0  0  0  0  0  0
   22.9824   70.2833    4.8305 H   0  0  0  0  0  0  0  0  0  0  0  0
   21.4122   72.1945    4.1796 H   0  0  0  0  0  0  0  0  0  0  0  0
   25.3272   74.6220    2.5637 O   0  0  0  0  0  0  0  0  0  0  0  0
   23.6606   76.4619   -1.3193 O   0  0  0  0  0  0  0  0  0  0  0  0
   23.9075   73.3176    1.2446 N   0  0  0  0  0  0  0  0  0  0  0  0
   24.4964   75.5361    0.6298 N   0  0  0  0  0  0  0  0  0  0  0  0
   24.6269   74.4945    1.5573 C   0  0  0  0  0  0  0  0  0  0  0  0
   23.1413   73.2543    0.0858 C   0  0  0  0  0  0  0  0  0  0  0  0
   23.0263   74.2568   -0.7877 C   0  0  0  0  0  0  0  0  0  0  0  0
   23.7461   75.5218   -0.5353 C   0  0  0  0  0  0  0  0  0  0  0  0
   24.9884   76.3660    0.8270 H   0  0  0  0  0  0  0  0  0  0  0  0
   21.5797   69.7845   -2.3888 O   0  0  0  0  0  0  0  0  0  0  0  0
   20.6745   71.1220   -2.3200 P   0  0  2  0  0  0  0  0  0  0  0  0
   21.5592   72.2105   -3.1263 O   0  0  0  0  0  0  0  0  0  0  0  0
   20.2976   71.5390   -0.9280 O   0  0  0  0  0  0  0  0  0  0  0  0
   19.4207   70.8169   -3.2896 O   0  0  0  0  0  0  0  0  0  0  0  0
   18.7522   68.8599   -4.4470 O   0  0  0  0  0  0  0  0  0  0  0  0
   17.8424   71.6740   -7.3286 O   0  0  0  0  0  0  0  0  0  0  0  0
   15.7198   70.3790   -5.8913 O   0  0  0  0  0  0  0  0  0  0  0  0
   20.2253   71.9794   -5.7137 O   0  0  0  0  0  0  0  0  0  0  0  0
   17.9752   71.1682   -5.9975 C   0  0  1  0  0  0  0  0  0  0  0  0
   17.0747   69.9390   -5.8595 C   0  0  1  0  0  0  0  0  0  0  0  0
   19.4355   70.7955   -5.7486 C   0  0  2  0  0  0  0  0  0  0  0  0
   17.3615   69.1861   -4.5534 C   0  0  1  0  0  0  0  0  0  0  0  0
   19.6036   70.0075   -4.4483 C   0  0  1  0  0  0  0  0  0  0  0  0
   16.9175   71.9130   -7.4930 H   0  0  0  0  0  0  0  0  0  0  0  0
   15.5520   70.8533   -6.7208 H   0  0  0  0  0  0  0  0  0  0  0  0
   20.1104   72.4691   -6.5425 H   0  0  0  0  0  0  0  0  0  0  0  0
   15.2259   68.1337   -4.7556 O   0  0  0  0  0  0  0  0  0  0  0  0
   16.5875   67.8724   -4.4688 C   0  0  0  0  0  0  0  0  0  0  0  0
   14.7211   67.3064   -4.7058 H   0  0  0  0  0  0  0  0  0  0  0  0
 25 28  1  0
 25 24  1  0
 25 26  1  6
 25 27  2  0
  1  4  1  0
  1 24  1  0
  1  2  1  1
  1  3  2  0
  6 11  1  0
  6 12  1  0
 29 36  1  0
 29 37  1  0
  9  7  1  1
  7 13  1  0
 10  8  1  1
  8 14  1  0
 37 28  1  1
  4  5  1  0
 33 30  1  6
 30 38  1  0
 34 31  1  1
 31 39  1  0
 35 32  1  1
 32 40  1  0
 41 42  1  0
 41 43  1  0
 15 19  2  0
 16 22  2  0
 12 17  1  6
 17 19  1  0
 17 20  1  0
 18 19  1  0
 18 22  1  0
 18 23  1  0
  9 10  1  0
  9 11  1  0
 10 12  1  0
 11  5  1  6
 33 34  1  0
 33 35  1  0
 34 36  1  0
 35 37  1  0
 36 42  1  6
 20 21  2  0
 21 22  1  0
M  CHG  2   2  -1  26  -1
M  END
>  <COMPND>  (111) 
    8629 

>  <AUTHOR>  (111) 
    GENERATED BY OPEN BABEL 3.1.1

>  <MASTER>  (111) 
        0    0    0    0    0    0    0    0   58    0   58    0

>  <minimizedAffinity>  (111) 
-7.37491

>  <CNNscore>  (111) 
0.5099447966

>  <CNNaffinity>  (111) 
4.1227693558

>  <CNN_VS>  (111) 
2.1023848057

>  <CNNaffinity_variance>  (111) 
0.0442320779

$$$$
112
     RDKit          3D

 43 45  0  0  0  0  0  0  0  0999 V2000
   20.9905   72.2807   -4.0331 P   0  0  2  0  0  0  0  0  0  0  0  0
   20.0796   73.6118   -3.9077 O   0  0  0  0  0  0  0  0  0  0  0  0
   22.4690   72.5118   -3.9239 O   0  0  0  0  0  0  0  0  0  0  0  0
   20.4865   71.5933   -5.4083 O   0  0  0  0  0  0  0  0  0  0  0  0
   20.6475   72.3091   -6.6206 C   0  0  0  0  0  0  0  0  0  0  0  0
   18.8907   70.7291   -7.0575 O   0  0  0  0  0  0  0  0  0  0  0  0
   18.5947   72.0777   -9.7191 O   0  0  0  0  0  0  0  0  0  0  0  0
   16.5376   73.1436   -8.2807 O   0  0  0  0  0  0  0  0  0  0  0  0
   18.9116   72.6466   -8.4498 C   0  0  1  0  0  0  0  0  0  0  0  0
   17.6773   72.6983   -7.5738 C   0  0  2  0  0  0  0  0  0  0  0  0
   19.7933   71.6566   -7.6989 C   0  0  1  0  0  0  0  0  0  0  0  0
   17.5546   71.2546   -7.1168 C   0  0  2  0  0  0  0  0  0  0  0  0
   18.0323   72.6922  -10.2173 H   0  0  0  0  0  0  0  0  0  0  0  0
   16.6642   74.0668   -8.5498 H   0  0  0  0  0  0  0  0  0  0  0  0
   16.2233   68.9489   -6.1738 O   0  0  0  0  0  0  0  0  0  0  0  0
   15.2744   70.9303   -2.1223 O   0  0  0  0  0  0  0  0  0  0  0  0
   16.9506   71.1403   -5.8193 N   0  0  0  0  0  0  0  0  0  0  0  0
   15.7520   69.9373   -4.1572 N   0  0  0  0  0  0  0  0  0  0  0  0
   16.3056   69.9389   -5.4438 C   0  0  0  0  0  0  0  0  0  0  0  0
   17.0017   72.2118   -4.9343 C   0  0  0  0  0  0  0  0  0  0  0  0
   16.4677   72.1947   -3.7113 C   0  0  0  0  0  0  0  0  0  0  0  0
   15.7756   70.9772   -3.2414 C   0  0  0  0  0  0  0  0  0  0  0  0
   15.2973   69.1110   -3.8740 H   0  0  0  0  0  0  0  0  0  0  0  0
   20.3753   71.3109   -2.8955 O   0  0  0  0  0  0  0  0  0  0  0  0
   21.0574   70.1352   -2.0206 P   0  0  2  0  0  0  0  0  0  0  0  0
   22.2382   69.5928   -2.9844 O   0  0  0  0  0  0  0  0  0  0  0  0
   20.0986   69.0759   -1.5596 O   0  0  0  0  0  0  0  0  0  0  0  0
   21.8258   70.9062   -0.8289 O   0  0  0  0  0  0  0  0  0  0  0  0
   21.6262   70.6425    1.5179 O   0  0  0  0  0  0  0  0  0  0  0  0
   22.2542   74.7208    1.3633 O   0  0  0  0  0  0  0  0  0  0  0  0
   24.3434   72.9998    2.3234 O   0  0  0  0  0  0  0  0  0  0  0  0
   20.6204   73.4340   -0.6503 O   0  0  0  0  0  0  0  0  0  0  0  0
   22.4174   73.3608    0.9518 C   0  0  1  0  0  0  0  0  0  0  0  0
   22.9989   72.5710    2.1260 C   0  0  1  0  0  0  0  0  0  0  0  0
   21.0578   72.7959    0.5447 C   0  0  2  0  0  0  0  0  0  0  0  0
   22.9540   71.0612    1.8546 C   0  0  1  0  0  0  0  0  0  0  0  0
   21.1123   71.2800    0.3469 C   0  0  1  0  0  0  0  0  0  0  0  0
   23.1139   75.0856    1.6226 H   0  0  0  0  0  0  0  0  0  0  0  0
   24.3578   73.9549    2.4933 H   0  0  0  0  0  0  0  0  0  0  0  0
   20.5898   74.3931   -0.5120 H   0  0  0  0  0  0  0  0  0  0  0  0
   24.2017   69.1794    2.6362 O   0  0  0  0  0  0  0  0  0  0  0  0
   23.3825   70.2479    3.0740 C   0  0  0  0  0  0  0  0  0  0  0  0
   24.4822   68.6532    3.4018 H   0  0  0  0  0  0  0  0  0  0  0  0
 25 28  1  0
 25 24  1  0
 25 26  1  6
 25 27  2  0
  1  4  1  0
  1 24  1  0
  1  2  1  1
  1  3  2  0
  6 11  1  0
  6 12  1  0
 29 36  1  0
 29 37  1  0
  9  7  1  6
  7 13  1  0
 10  8  1  6
  8 14  1  0
 37 28  1  6
  4  5  1  0
 33 30  1  1
 30 38  1  0
 34 31  1  6
 31 39  1  0
 35 32  1  6
 32 40  1  0
 41 42  1  0
 41 43  1  0
 15 19  2  0
 16 22  2  0
 12 17  1  1
 17 19  1  0
 17 20  1  0
 18 19  1  0
 18 22  1  0
 18 23  1  0
  9 10  1  0
  9 11  1  0
 10 12  1  0
 11  5  1  1
 33 34  1  0
 33 35  1  0
 34 36  1  0
 35 37  1  0
 36 42  1  1
 20 21  2  0
 21 22  1  0
M  CHG  2   2  -1  26  -1
M  END
>  <COMPND>  (112) 
    8629 

>  <AUTHOR>  (112) 
    GENERATED BY OPEN BABEL 3.1.1

>  <MASTER>  (112) 
        0    0    0    0    0    0    0    0   58    0   58    0

>  <minimizedAffinity>  (112) 
-6.90547

>  <CNNscore>  (112) 
0.4507857263

>  <CNNaffinity>  (112) 
4.0746765137

>  <CNN_VS>  (112) 
1.8368060589

>  <CNNaffinity_variance>  (112) 
0.3155880570

$$$$
113
     RDKit          3D

 43 45  0  0  0  0  0  0  0  0999 V2000
   21.2164   70.5105   -2.7284 P   0  0  2  0  0  0  0  0  0  0  0  0
   20.2955   70.8452   -1.4411 O   0  0  0  0  0  0  0  0  0  0  0  0
   22.1792   71.5935   -3.1177 O   0  0  0  0  0  0  0  0  0  0  0  0
   20.1510   70.0754   -3.8657 O   0  0  0  0  0  0  0  0  0  0  0  0
   19.7403   68.7206   -3.9246 C   0  0  0  0  0  0  0  0  0  0  0  0
   17.6909   69.7565   -3.2170 O   0  0  0  0  0  0  0  0  0  0  0  0
   16.7637   66.9975   -2.4964 O   0  0  0  0  0  0  0  0  0  0  0  0
   15.5252   67.4356   -4.8861 O   0  0  0  0  0  0  0  0  0  0  0  0
   17.5807   67.4185   -3.5876 C   0  0  1  0  0  0  0  0  0  0  0  0
   16.7390   68.1148   -4.6366 C   0  0  2  0  0  0  0  0  0  0  0  0
   18.4750   68.5495   -3.0953 C   0  0  1  0  0  0  0  0  0  0  0  0
   16.5255   69.4831   -4.0120 C   0  0  2  0  0  0  0  0  0  0  0  0
   16.1839   66.2753   -2.7866 H   0  0  0  0  0  0  0  0  0  0  0  0
   15.7140   66.5711   -5.2833 H   0  0  0  0  0  0  0  0  0  0  0  0
   15.5290   72.0703   -3.4721 O   0  0  0  0  0  0  0  0  0  0  0  0
   16.0079   73.3710   -7.8676 O   0  0  0  0  0  0  0  0  0  0  0  0
   16.3794   70.5178   -4.9965 N   0  0  0  0  0  0  0  0  0  0  0  0
   15.7684   72.7159   -5.6611 N   0  0  0  0  0  0  0  0  0  0  0  0
   15.8680   71.7822   -4.6218 C   0  0  0  0  0  0  0  0  0  0  0  0
   16.7417   70.2742   -6.3169 C   0  0  0  0  0  0  0  0  0  0  0  0
   16.6393   71.1749   -7.2964 C   0  0  0  0  0  0  0  0  0  0  0  0
   16.1142   72.5210   -6.9890 C   0  0  0  0  0  0  0  0  0  0  0  0
   15.4143   73.6036   -5.4237 H   0  0  0  0  0  0  0  0  0  0  0  0
   21.9098   69.1073   -2.3243 O   0  0  0  0  0  0  0  0  0  0  0  0
   23.0362   68.7595   -1.2183 P   0  0  2  0  0  0  0  0  0  0  0  0
   24.3949   69.3404   -1.8771 O   0  0  0  0  0  0  0  0  0  0  0  0
   23.1018   67.3075   -0.8424 O   0  0  0  0  0  0  0  0  0  0  0  0
   22.7216   69.7554    0.0123 O   0  0  0  0  0  0  0  0  0  0  0  0
   23.5430   71.9772   -0.0616 O   0  0  0  0  0  0  0  0  0  0  0  0
   22.9083   71.6431    4.0049 O   0  0  0  0  0  0  0  0  0  0  0  0
   21.1485   73.2718    2.4243 O   0  0  0  0  0  0  0  0  0  0  0  0
   23.9381   69.3857    2.5140 O   0  0  0  0  0  0  0  0  0  0  0  0
   22.6368   71.4097    2.6203 C   0  0  1  0  0  0  0  0  0  0  0  0
   22.3894   72.7604    1.9458 C   0  0  1  0  0  0  0  0  0  0  0  0
   23.8356   70.7047    1.9885 C   0  0  2  0  0  0  0  0  0  0  0  0
   22.3555   72.6187    0.4181 C   0  0  1  0  0  0  0  0  0  0  0  0
   23.7256   70.6608    0.4634 C   0  0  1  0  0  0  0  0  0  0  0  0
   22.1508   72.0901    4.4122 H   0  0  0  0  0  0  0  0  0  0  0  0
   21.1830   73.3560    3.3901 H   0  0  0  0  0  0  0  0  0  0  0  0
   24.0074   69.4271    3.4801 H   0  0  0  0  0  0  0  0  0  0  0  0
   22.9071   73.8732   -1.5392 O   0  0  0  0  0  0  0  0  0  0  0  0
   22.2676   73.9740   -0.2802 C   0  0  0  0  0  0  0  0  0  0  0  0
   22.8587   74.7284   -1.9952 H   0  0  0  0  0  0  0  0  0  0  0  0
 25 28  1  0
 25 24  1  0
 25 26  1  6
 25 27  2  0
  1  4  1  0
  1 24  1  0
  1  2  1  1
  1  3  2  0
  6 11  1  0
  6 12  1  0
 29 36  1  0
 29 37  1  0
  9  7  1  1
  7 13  1  0
 10  8  1  1
  8 14  1  0
 37 28  1  1
  4  5  1  0
 33 30  1  1
 30 38  1  0
 34 31  1  1
 31 39  1  0
 35 32  1  1
 32 40  1  0
 41 42  1  0
 41 43  1  0
 15 19  2  0
 16 22  2  0
 12 17  1  6
 17 19  1  0
 17 20  1  0
 18 19  1  0
 18 22  1  0
 18 23  1  0
  9 10  1  0
  9 11  1  0
 10 12  1  0
 11  5  1  6
 33 34  1  0
 33 35  1  0
 34 36  1  0
 35 37  1  0
 36 42  1  6
 20 21  2  0
 21 22  1  0
M  CHG  2   2  -1  26  -1
M  END
>  <COMPND>  (113) 
    8629 

>  <AUTHOR>  (113) 
    GENERATED BY OPEN BABEL 3.1.1

>  <MASTER>  (113) 
        0    0    0    0    0    0    0    0   58    0   58    0

>  <minimizedAffinity>  (113) 
-7.76802

>  <CNNscore>  (113) 
0.3614317477

>  <CNNaffinity>  (113) 
4.2183036804

>  <CNN_VS>  (113) 
1.5246288776

>  <CNNaffinity_variance>  (113) 
0.2296212614

$$$$
114
     RDKit          3D

 43 45  0  0  0  0  0  0  0  0999 V2000
   21.9053   73.4694   -6.1962 P   0  0  2  0  0  0  0  0  0  0  0  0
   22.6095   72.5920   -7.3589 O   0  0  0  0  0  0  0  0  0  0  0  0
   22.4999   74.8301   -5.9811 O   0  0  0  0  0  0  0  0  0  0  0  0
   21.9135   72.4877   -4.9100 O   0  0  0  0  0  0  0  0  0  0  0  0
   22.6137   72.9001   -3.7492 C   0  0  0  0  0  0  0  0  0  0  0  0
   21.3893   71.4407   -2.2847 O   0  0  0  0  0  0  0  0  0  0  0  0
   21.2212   73.7727   -0.4073 O   0  0  0  0  0  0  0  0  0  0  0  0
   23.2312   72.2815    0.6757 O   0  0  0  0  0  0  0  0  0  0  0  0
   22.2872   73.3867   -1.2734 C   0  0  1  0  0  0  0  0  0  0  0  0
   23.0058   72.1760   -0.7153 C   0  0  2  0  0  0  0  0  0  0  0  0
   21.6744   72.8311   -2.5529 C   0  0  1  0  0  0  0  0  0  0  0  0
   22.0484   71.0506   -1.0689 C   0  0  2  0  0  0  0  0  0  0  0  0
   21.5879   74.1311    0.4167 H   0  0  0  0  0  0  0  0  0  0  0  0
   23.8463   73.0110    0.8493 H   0  0  0  0  0  0  0  0  0  0  0  0
   21.4249   68.6433    0.2705 O   0  0  0  0  0  0  0  0  0  0  0  0
   24.7139   66.3264   -1.9778 O   0  0  0  0  0  0  0  0  0  0  0  0
   22.7256   69.8032   -1.2851 N   0  0  0  0  0  0  0  0  0  0  0  0
   23.0630   67.4916   -0.8502 N   0  0  0  0  0  0  0  0  0  0  0  0
   22.3357   68.6530   -0.5601 C   0  0  0  0  0  0  0  0  0  0  0  0
   23.7634   69.7289   -2.2077 C   0  0  0  0  0  0  0  0  0  0  0  0
   24.4478   68.6139   -2.4718 C   0  0  0  0  0  0  0  0  0  0  0  0
   24.1034   67.3678   -1.7573 C   0  0  0  0  0  0  0  0  0  0  0  0
   22.8092   66.6780   -0.3568 H   0  0  0  0  0  0  0  0  0  0  0  0
   20.3504   73.4767   -6.6377 O   0  0  0  0  0  0  0  0  0  0  0  0
   19.0182   73.8988   -5.8253 P   0  0  2  0  0  0  0  0  0  0  0  0
   17.9958   74.3470   -6.9963 O   0  0  0  0  0  0  0  0  0  0  0  0
   19.2458   74.9415   -4.7694 O   0  0  0  0  0  0  0  0  0  0  0  0
   18.4188   72.5062   -5.2718 O   0  0  0  0  0  0  0  0  0  0  0  0
   19.3476   70.3264   -5.3229 O   0  0  0  0  0  0  0  0  0  0  0  0
   15.3724   69.3633   -5.8897 O   0  0  0  0  0  0  0  0  0  0  0  0
   16.6256   68.7877   -3.3705 O   0  0  0  0  0  0  0  0  0  0  0  0
   16.4785   71.7265   -7.1433 O   0  0  0  0  0  0  0  0  0  0  0  0
   16.4686   70.1113   -5.3566 C   0  0  1  0  0  0  0  0  0  0  0  0
   17.3470   69.1600   -4.5416 C   0  0  1  0  0  0  0  0  0  0  0  0
   17.2633   70.7224   -6.5091 C   0  0  2  0  0  0  0  0  0  0  0  0
   18.6775   69.8234   -4.1612 C   0  0  1  0  0  0  0  0  0  0  0  0
   18.5912   71.3115   -6.0296 C   0  0  1  0  0  0  0  0  0  0  0  0
   14.8633   68.9730   -5.1630 H   0  0  0  0  0  0  0  0  0  0  0  0
   15.7874   68.3704   -3.6247 H   0  0  0  0  0  0  0  0  0  0  0  0
   15.6408   71.3410   -7.4425 H   0  0  0  0  0  0  0  0  0  0  0  0
   19.4494   68.9304   -2.0838 O   0  0  0  0  0  0  0  0  0  0  0  0
   19.6328   68.8426   -3.4848 C   0  0  0  0  0  0  0  0  0  0  0  0
   20.0508   68.3114   -1.6401 H   0  0  0  0  0  0  0  0  0  0  0  0
 25 28  1  0
 25 24  1  0
 25 26  1  6
 25 27  2  0
  1  4  1  0
  1 24  1  0
  1  2  1  6
  1  3  2  0
  6 11  1  0
  6 12  1  0
 29 36  1  0
 29 37  1  0
  9  7  1  1
  7 13  1  0
 10  8  1  1
  8 14  1  0
 37 28  1  1
  4  5  1  0
 33 30  1  6
 30 38  1  0
 34 31  1  1
 31 39  1  0
 35 32  1  1
 32 40  1  0
 41 42  1  0
 41 43  1  0
 15 19  2  0
 16 22  2  0
 12 17  1  6
 17 19  1  0
 17 20  1  0
 18 19  1  0
 18 22  1  0
 18 23  1  0
  9 10  1  0
  9 11  1  0
 10 12  1  0
 11  5  1  6
 33 34  1  0
 33 35  1  0
 34 36  1  0
 35 37  1  0
 36 42  1  6
 20 21  2  0
 21 22  1  0
M  CHG  2   2  -1  26  -1
M  END
>  <COMPND>  (114) 
    8629 

>  <AUTHOR>  (114) 
    GENERATED BY OPEN BABEL 3.1.1

>  <MASTER>  (114) 
        0    0    0    0    0    0    0    0   58    0   58    0

>  <minimizedAffinity>  (114) 
-8.07134

>  <CNNscore>  (114) 
0.3272052407

>  <CNNaffinity>  (114) 
3.9691042900

>  <CNN_VS>  (114) 
1.2987117767

>  <CNNaffinity_variance>  (114) 
0.9483565092

$$$$
115
     RDKit          3D

 43 45  0  0  0  0  0  0  0  0999 V2000
   19.8282   70.4758   -2.5116 P   0  0  2  0  0  0  0  0  0  0  0  0
   19.6524   68.9552   -1.9878 O   0  0  0  0  0  0  0  0  0  0  0  0
   20.8374   70.6559   -3.6073 O   0  0  0  0  0  0  0  0  0  0  0  0
   20.0994   71.3232   -1.1602 O   0  0  0  0  0  0  0  0  0  0  0  0
   21.4330   71.4511   -0.6986 C   0  0  0  0  0  0  0  0  0  0  0  0
   21.8897   69.2224    0.0750 O   0  0  0  0  0  0  0  0  0  0  0  0
   22.5950   70.4804    2.7038 O   0  0  0  0  0  0  0  0  0  0  0  0
   25.0413   70.0125    1.5935 O   0  0  0  0  0  0  0  0  0  0  0  0
   22.8160   70.9688    1.3818 C   0  0  1  0  0  0  0  0  0  0  0  0
   23.9463   70.2068    0.7218 C   0  0  2  0  0  0  0  0  0  0  0  0
   21.6202   70.5675    0.5272 C   0  0  1  0  0  0  0  0  0  0  0  0
   23.2659   68.9036    0.3384 C   0  0  2  0  0  0  0  0  0  0  0  0
   23.3456   70.7248    3.2684 H   0  0  0  0  0  0  0  0  0  0  0  0
   25.4402   70.8702    1.8079 H   0  0  0  0  0  0  0  0  0  0  0  0
   23.1578   66.1486   -0.2747 O   0  0  0  0  0  0  0  0  0  0  0  0
   25.5059   66.7420   -4.1958 O   0  0  0  0  0  0  0  0  0  0  0  0
   23.8404   68.3109   -0.8364 N   0  0  0  0  0  0  0  0  0  0  0  0
   24.3269   66.4463   -2.2267 N   0  0  0  0  0  0  0  0  0  0  0  0
   23.7312   66.9170   -1.0495 C   0  0  0  0  0  0  0  0  0  0  0  0
   24.5027   69.1095   -1.7624 C   0  0  0  0  0  0  0  0  0  0  0  0
   25.0665   68.6450   -2.8794 C   0  0  0  0  0  0  0  0  0  0  0  0
   24.9973   67.1998   -3.1772 C   0  0  0  0  0  0  0  0  0  0  0  0
   24.2638   65.4783   -2.3960 H   0  0  0  0  0  0  0  0  0  0  0  0
   18.3200   70.8997   -2.9098 O   0  0  0  0  0  0  0  0  0  0  0  0
   17.2829   70.2601   -3.9719 P   0  0  2  0  0  0  0  0  0  0  0  0
   15.8404   70.7345   -3.4137 O   0  0  0  0  0  0  0  0  0  0  0  0
   17.4207   68.7757   -4.1491 O   0  0  0  0  0  0  0  0  0  0  0  0
   17.4998   71.1178   -5.3219 O   0  0  0  0  0  0  0  0  0  0  0  0
   19.2109   70.8391   -6.9378 O   0  0  0  0  0  0  0  0  0  0  0  0
   18.6656   74.9202   -7.2512 O   0  0  0  0  0  0  0  0  0  0  0  0
   17.7369   73.1999   -9.3550 O   0  0  0  0  0  0  0  0  0  0  0  0
   18.5336   73.6408   -4.6579 O   0  0  0  0  0  0  0  0  0  0  0  0
   18.2610   73.5633   -7.0498 C   0  0  1  0  0  0  0  0  0  0  0  0
   18.6050   72.7682   -8.3108 C   0  0  1  0  0  0  0  0  0  0  0  0
   18.9998   72.9968   -5.8388 C   0  0  2  0  0  0  0  0  0  0  0  0
   18.4480   71.2599   -8.0747 C   0  0  1  0  0  0  0  0  0  0  0  0
   18.8177   71.4823   -5.7238 C   0  0  1  0  0  0  0  0  0  0  0  0
   18.1998   75.2861   -8.0185 H   0  0  0  0  0  0  0  0  0  0  0  0
   17.8455   74.1539   -9.4937 H   0  0  0  0  0  0  0  0  0  0  0  0
   18.6546   74.5989   -4.7431 H   0  0  0  0  0  0  0  0  0  0  0  0
   19.7955   71.2507  -10.0478 O   0  0  0  0  0  0  0  0  0  0  0  0
   18.9360   70.4405   -9.2674 C   0  0  0  0  0  0  0  0  0  0  0  0
   20.1141   70.7421  -10.8104 H   0  0  0  0  0  0  0  0  0  0  0  0
 25 28  1  0
 25 24  1  0
 25 26  1  1
 25 27  2  0
  1  4  1  0
  1 24  1  0
  1  2  1  1
  1  3  2  0
  6 11  1  0
  6 12  1  0
 29 36  1  0
 29 37  1  0
  9  7  1  1
  7 13  1  0
 10  8  1  1
  8 14  1  0
 37 28  1  6
  4  5  1  0
 33 30  1  6
 30 38  1  0
 34 31  1  6
 31 39  1  0
 35 32  1  1
 32 40  1  0
 41 42  1  0
 41 43  1  0
 15 19  2  0
 16 22  2  0
 12 17  1  6
 17 19  1  0
 17 20  1  0
 18 19  1  0
 18 22  1  0
 18 23  1  0
  9 10  1  0
  9 11  1  0
 10 12  1  0
 11  5  1  6
 33 34  1  0
 33 35  1  0
 34 36  1  0
 35 37  1  0
 36 42  1  6
 20 21  2  0
 21 22  1  0
M  CHG  2   2  -1  26  -1
M  END
>  <COMPND>  (115) 
    8629 

>  <AUTHOR>  (115) 
    GENERATED BY OPEN BABEL 3.1.1

>  <MASTER>  (115) 
        0    0    0    0    0    0    0    0   58    0   58    0

>  <minimizedAffinity>  (115) 
-8.00099

>  <CNNscore>  (115) 
0.3199800551

>  <CNNaffinity>  (115) 
4.2468304634

>  <CNN_VS>  (115) 
1.3589010239

>  <CNNaffinity_variance>  (115) 
0.3410758674

$$$$
116
     RDKit          3D

 43 45  0  0  0  0  0  0  0  0999 V2000
   21.5523   72.1086   -3.6158 P   0  0  2  0  0  0  0  0  0  0  0  0
   21.0048   73.4845   -2.9642 O   0  0  0  0  0  0  0  0  0  0  0  0
   20.4883   71.1270   -4.0105 O   0  0  0  0  0  0  0  0  0  0  0  0
   22.6371   71.5744   -2.5407 O   0  0  0  0  0  0  0  0  0  0  0  0
   22.5750   72.0695   -1.2145 C   0  0  0  0  0  0  0  0  0  0  0  0
   21.9158   69.7686   -1.0029 O   0  0  0  0  0  0  0  0  0  0  0  0
   21.5531   70.3359    1.9190 O   0  0  0  0  0  0  0  0  0  0  0  0
   23.9689   69.0723    1.8541 O   0  0  0  0  0  0  0  0  0  0  0  0
   22.5326   70.8458    1.0157 C   0  0  1  0  0  0  0  0  0  0  0  0
   23.5627   69.7812    0.7012 C   0  0  2  0  0  0  0  0  0  0  0  0
   21.8623   71.0494   -0.3373 C   0  0  1  0  0  0  0  0  0  0  0  0
   22.8175   68.9052   -0.2915 C   0  0  2  0  0  0  0  0  0  0  0  0
   21.9578   70.1980    2.7903 H   0  0  0  0  0  0  0  0  0  0  0  0
   24.4382   69.6725    2.4543 H   0  0  0  0  0  0  0  0  0  0  0  0
   23.1815   66.1127   -0.5098 O   0  0  0  0  0  0  0  0  0  0  0  0
   26.2230   66.5927   -3.9391 O   0  0  0  0  0  0  0  0  0  0  0  0
   23.6981   68.2731   -1.2330 N   0  0  0  0  0  0  0  0  0  0  0  0
   24.6955   66.3540   -2.2173 N   0  0  0  0  0  0  0  0  0  0  0  0
   23.8088   66.8633   -1.2600 C   0  0  0  0  0  0  0  0  0  0  0  0
   24.4402   69.0491   -2.1167 C   0  0  0  0  0  0  0  0  0  0  0  0
   25.2824   68.5480   -3.0227 C   0  0  0  0  0  0  0  0  0  0  0  0
   25.4562   67.0841   -3.1166 C   0  0  0  0  0  0  0  0  0  0  0  0
   24.7891   65.3744   -2.2542 H   0  0  0  0  0  0  0  0  0  0  0  0
   22.4758   72.6270   -4.8370 O   0  0  0  0  0  0  0  0  0  0  0  0
   22.1465   73.6188   -6.0701 P   0  0  2  0  0  0  0  0  0  0  0  0
   22.6253   72.7738   -7.3640 O   0  0  0  0  0  0  0  0  0  0  0  0
   22.7736   74.9777   -5.9513 O   0  0  0  0  0  0  0  0  0  0  0  0
   20.5353   73.6317   -6.1650 O   0  0  0  0  0  0  0  0  0  0  0  0
   19.1061   71.9908   -7.1038 O   0  0  0  0  0  0  0  0  0  0  0  0
   16.9253   75.3728   -8.0295 O   0  0  0  0  0  0  0  0  0  0  0  0
   15.9947   73.6066   -5.9649 O   0  0  0  0  0  0  0  0  0  0  0  0
   19.8146   75.4268   -8.1980 O   0  0  0  0  0  0  0  0  0  0  0  0
   17.7872   74.5558   -7.2325 C   0  0  1  0  0  0  0  0  0  0  0  0
   17.0365   73.2709   -6.8772 C   0  0  1  0  0  0  0  0  0  0  0  0
   19.0507   74.2374   -8.0296 C   0  0  2  0  0  0  0  0  0  0  0  0
   17.9792   72.2330   -6.2534 C   0  0  1  0  0  0  0  0  0  0  0  0
   19.8929   73.1587   -7.3461 C   0  0  1  0  0  0  0  0  0  0  0  0
   16.1213   75.5790   -7.5290 H   0  0  0  0  0  0  0  0  0  0  0  0
   15.4069   74.2630   -6.3708 H   0  0  0  0  0  0  0  0  0  0  0  0
   19.2705   76.1017   -8.6320 H   0  0  0  0  0  0  0  0  0  0  0  0
   18.1161   70.0836   -5.2190 O   0  0  0  0  0  0  0  0  0  0  0  0
   17.2871   70.8892   -6.0364 C   0  0  0  0  0  0  0  0  0  0  0  0
   17.6882   69.2251   -5.0722 H   0  0  0  0  0  0  0  0  0  0  0  0
 25 28  1  0
 25 24  1  0
 25 26  1  6
 25 27  2  0
  1  4  1  0
  1 24  1  0
  1  2  1  1
  1  3  2  0
  6 11  1  0
  6 12  1  0
 29 36  1  0
 29 37  1  0
  9  7  1  1
  7 13  1  0
 10  8  1  1
  8 14  1  0
 37 28  1  1
  4  5  1  0
 33 30  1  6
 30 38  1  0
 34 31  1  1
 31 39  1  0
 35 32  1  1
 32 40  1  0
 41 42  1  0
 41 43  1  0
 15 19  2  0
 16 22  2  0
 12 17  1  6
 17 19  1  0
 17 20  1  0
 18 19  1  0
 18 22  1  0
 18 23  1  0
  9 10  1  0
  9 11  1  0
 10 12  1  0
 11  5  1  6
 33 34  1  0
 33 35  1  0
 34 36  1  0
 35 37  1  0
 36 42  1  6
 20 21  2  0
 21 22  1  0
M  CHG  2   2  -1  26  -1
M  END
>  <COMPND>  (116) 
    8629 

>  <AUTHOR>  (116) 
    GENERATED BY OPEN BABEL 3.1.1

>  <MASTER>  (116) 
        0    0    0    0    0    0    0    0   58    0   58    0

>  <minimizedAffinity>  (116) 
-7.60877

>  <CNNscore>  (116) 
0.2897129357

>  <CNNaffinity>  (116) 
4.1435642242

>  <CNN_VS>  (116) 
1.2004441023

>  <CNNaffinity_variance>  (116) 
0.1729290038

$$$$
117
     RDKit          3D

 43 45  0  0  0  0  0  0  0  0999 V2000
   22.6976   73.4524   -3.4322 P   0  0  2  0  0  0  0  0  0  0  0  0
   23.7632   72.2869   -3.7839 O   0  0  0  0  0  0  0  0  0  0  0  0
   23.2580   74.8443   -3.4316 O   0  0  0  0  0  0  0  0  0  0  0  0
   22.0311   72.9626   -2.0416 O   0  0  0  0  0  0  0  0  0  0  0  0
   22.8490   72.2908   -1.0996 C   0  0  0  0  0  0  0  0  0  0  0  0
   21.9696   70.0551   -1.0539 O   0  0  0  0  0  0  0  0  0  0  0  0
   21.4925   70.5029    1.8723 O   0  0  0  0  0  0  0  0  0  0  0  0
   23.7813   69.0204    1.8633 O   0  0  0  0  0  0  0  0  0  0  0  0
   22.5653   70.9633    1.0523 C   0  0  1  0  0  0  0  0  0  0  0  0
   23.5095   69.8232    0.7326 C   0  0  2  0  0  0  0  0  0  0  0  0
   21.9959   71.2992   -0.3204 C   0  0  1  0  0  0  0  0  0  0  0  0
   22.7454   69.0743   -0.3460 C   0  0  2  0  0  0  0  0  0  0  0  0
   21.8317   70.2825    2.7546 H   0  0  0  0  0  0  0  0  0  0  0  0
   24.2685   69.5415    2.5204 H   0  0  0  0  0  0  0  0  0  0  0  0
   23.1227   66.2775   -0.4606 O   0  0  0  0  0  0  0  0  0  0  0  0
   26.1151   66.6397   -3.9471 O   0  0  0  0  0  0  0  0  0  0  0  0
   23.6170   68.4107   -1.2742 N   0  0  0  0  0  0  0  0  0  0  0  0
   24.6122   66.4601   -2.1966 N   0  0  0  0  0  0  0  0  0  0  0  0
   23.7355   67.0016   -1.2479 C   0  0  0  0  0  0  0  0  0  0  0  0
   24.3426   69.1557   -2.1974 C   0  0  0  0  0  0  0  0  0  0  0  0
   25.1754   68.6242   -3.0947 C   0  0  0  0  0  0  0  0  0  0  0  0
   25.3565   67.1587   -3.1340 C   0  0  0  0  0  0  0  0  0  0  0  0
   24.7111   65.4803   -2.1967 H   0  0  0  0  0  0  0  0  0  0  0  0
   21.5176   73.2028   -4.5085 O   0  0  0  0  0  0  0  0  0  0  0  0
   21.3895   73.6314   -6.0618 P   0  0  2  0  0  0  0  0  0  0  0  0
   22.6372   72.8741   -6.7598 O   0  0  0  0  0  0  0  0  0  0  0  0
   21.3591   75.1149   -6.2903 O   0  0  0  0  0  0  0  0  0  0  0  0
   20.0849   72.8455   -6.5961 O   0  0  0  0  0  0  0  0  0  0  0  0
   19.0083   70.9436   -5.6794 O   0  0  0  0  0  0  0  0  0  0  0  0
   18.4083   70.1717   -9.6912 O   0  0  0  0  0  0  0  0  0  0  0  0
   16.1956   71.0059   -8.0614 O   0  0  0  0  0  0  0  0  0  0  0  0
   20.9125   71.3183   -8.8002 O   0  0  0  0  0  0  0  0  0  0  0  0
   18.5415   70.9932   -8.5281 C   0  0  1  0  0  0  0  0  0  0  0  0
   17.4521   70.5931   -7.5311 C   0  0  1  0  0  0  0  0  0  0  0  0
   19.9280   70.7812   -7.9234 C   0  0  2  0  0  0  0  0  0  0  0  0
   17.6917   71.2393   -6.1599 C   0  0  1  0  0  0  0  0  0  0  0  0
   20.0446   71.4220   -6.5392 C   0  0  1  0  0  0  0  0  0  0  0  0
   17.5302   70.3020  -10.0804 H   0  0  0  0  0  0  0  0  0  0  0  0
   16.0569   70.5912   -8.9274 H   0  0  0  0  0  0  0  0  0  0  0  0
   20.8284   70.9044   -9.6728 H   0  0  0  0  0  0  0  0  0  0  0  0
   16.4550   69.3597   -5.3557 O   0  0  0  0  0  0  0  0  0  0  0  0
   16.7083   70.7305   -5.1082 C   0  0  0  0  0  0  0  0  0  0  0  0
   15.8308   69.0222   -4.6937 H   0  0  0  0  0  0  0  0  0  0  0  0
 25 28  1  0
 25 24  1  0
 25 26  1  6
 25 27  2  0
  1  4  1  0
  1 24  1  0
  1  2  1  6
  1  3  2  0
  6 11  1  0
  6 12  1  0
 29 36  1  0
 29 37  1  0
  9  7  1  1
  7 13  1  0
 10  8  1  1
  8 14  1  0
 37 28  1  6
  4  5  1  0
 33 30  1  6
 30 38  1  0
 34 31  1  6
 31 39  1  0
 35 32  1  6
 32 40  1  0
 41 42  1  0
 41 43  1  0
 15 19  2  0
 16 22  2  0
 12 17  1  6
 17 19  1  0
 17 20  1  0
 18 19  1  0
 18 22  1  0
 18 23  1  0
  9 10  1  0
  9 11  1  0
 10 12  1  0
 11  5  1  6
 33 34  1  0
 33 35  1  0
 34 36  1  0
 35 37  1  0
 36 42  1  1
 20 21  2  0
 21 22  1  0
M  CHG  2   2  -1  26  -1
M  END
>  <COMPND>  (117) 
    8629 

>  <AUTHOR>  (117) 
    GENERATED BY OPEN BABEL 3.1.1

>  <MASTER>  (117) 
        0    0    0    0    0    0    0    0   58    0   58    0

>  <minimizedAffinity>  (117) 
-9.12387

>  <CNNscore>  (117) 
0.2831376493

>  <CNNaffinity>  (117) 
4.0829935074

>  <CNN_VS>  (117) 
1.1560491323

>  <CNNaffinity_variance>  (117) 
0.7362269163

$$$$
118
     RDKit          3D

 43 45  0  0  0  0  0  0  0  0999 V2000
   19.4425   69.1982   -3.0130 P   0  0  2  0  0  0  0  0  0  0  0  0
   19.7602   69.1382   -1.4278 O   0  0  0  0  0  0  0  0  0  0  0  0
   18.9982   67.8998   -3.6199 O   0  0  0  0  0  0  0  0  0  0  0  0
   20.7772   69.8522   -3.6523 O   0  0  0  0  0  0  0  0  0  0  0  0
   21.5555   70.7219   -2.8487 C   0  0  0  0  0  0  0  0  0  0  0  0
   23.6219   70.8466   -1.6288 O   0  0  0  0  0  0  0  0  0  0  0  0
   24.1913   68.0965   -2.6795 O   0  0  0  0  0  0  0  0  0  0  0  0
   23.3487   67.5977   -0.1344 O   0  0  0  0  0  0  0  0  0  0  0  0
   22.9477   68.6699   -2.2794 C   0  0  1  0  0  0  0  0  0  0  0  0
   22.8754   68.7678   -0.7698 C   0  0  2  0  0  0  0  0  0  0  0  0
   22.9522   70.1362   -2.6933 C   0  0  1  0  0  0  0  0  0  0  0  0
   23.7488   69.9790   -0.4904 C   0  0  2  0  0  0  0  0  0  0  0  0
   24.2118   67.1599   -2.4261 H   0  0  0  0  0  0  0  0  0  0  0  0
   22.7597   66.8557   -0.3426 H   0  0  0  0  0  0  0  0  0  0  0  0
   24.2379   69.1105    2.1524 O   0  0  0  0  0  0  0  0  0  0  0  0
   22.1235   72.7909    3.9481 O   0  0  0  0  0  0  0  0  0  0  0  0
   23.3376   70.6910    0.6866 N   0  0  0  0  0  0  0  0  0  0  0  0
   23.1849   70.9438    3.0444 N   0  0  0  0  0  0  0  0  0  0  0  0
   23.6319   70.1679    1.9673 C   0  0  0  0  0  0  0  0  0  0  0  0
   22.6508   71.8940    0.5643 C   0  0  0  0  0  0  0  0  0  0  0  0
   22.2302   72.6212    1.6014 C   0  0  0  0  0  0  0  0  0  0  0  0
   22.4973   72.1451    2.9740 C   0  0  0  0  0  0  0  0  0  0  0  0
   23.3783   70.5990    3.9463 H   0  0  0  0  0  0  0  0  0  0  0  0
   18.3627   70.3961   -3.1223 O   0  0  0  0  0  0  0  0  0  0  0  0
   17.1117   70.6096   -4.1235 P   0  0  2  0  0  0  0  0  0  0  0  0
   16.5671   72.0809   -3.7283 O   0  0  0  0  0  0  0  0  0  0  0  0
   16.0751   69.5260   -4.0530 O   0  0  0  0  0  0  0  0  0  0  0  0
   17.7818   70.8006   -5.5794 O   0  0  0  0  0  0  0  0  0  0  0  0
   18.8928   72.8743   -5.8657 O   0  0  0  0  0  0  0  0  0  0  0  0
   18.7789   71.6376   -9.8038 O   0  0  0  0  0  0  0  0  0  0  0  0
   21.2718   71.6031   -8.3783 O   0  0  0  0  0  0  0  0  0  0  0  0
   16.5211   71.1295   -8.0649 O   0  0  0  0  0  0  0  0  0  0  0  0
   18.8838   71.4685   -8.3875 C   0  0  1  0  0  0  0  0  0  0  0  0
   20.1003   72.2575   -7.8992 C   0  0  1  0  0  0  0  0  0  0  0  0
   17.6071   71.9856   -7.7272 C   0  0  2  0  0  0  0  0  0  0  0  0
   20.1255   72.3446   -6.3672 C   0  0  1  0  0  0  0  0  0  0  0  0
   17.7554   72.0797   -6.2075 C   0  0  1  0  0  0  0  0  0  0  0  0
   19.5861   71.3108  -10.2292 H   0  0  0  0  0  0  0  0  0  0  0  0
   21.2432   71.5542   -9.3468 H   0  0  0  0  0  0  0  0  0  0  0  0
   16.4375   71.0786   -9.0294 H   0  0  0  0  0  0  0  0  0  0  0  0
   22.4858   72.6846   -6.2186 O   0  0  0  0  0  0  0  0  0  0  0  0
   21.2410   73.2585   -5.8646 C   0  0  0  0  0  0  0  0  0  0  0  0
   23.2052   73.2557   -5.9054 H   0  0  0  0  0  0  0  0  0  0  0  0
 25 28  1  0
 25 24  1  0
 25 26  1  1
 25 27  2  0
  1  4  1  0
  1 24  1  0
  1  2  1  1
  1  3  2  0
  6 11  1  0
  6 12  1  0
 29 36  1  0
 29 37  1  0
  9  7  1  1
  7 13  1  0
 10  8  1  1
  8 14  1  0
 37 28  1  6
  4  5  1  0
 33 30  1  6
 30 38  1  0
 34 31  1  1
 31 39  1  0
 35 32  1  1
 32 40  1  0
 41 42  1  0
 41 43  1  0
 15 19  2  0
 16 22  2  0
 12 17  1  1
 17 19  1  0
 17 20  1  0
 18 19  1  0
 18 22  1  0
 18 23  1  0
  9 10  1  0
  9 11  1  0
 10 12  1  0
 11  5  1  1
 33 34  1  0
 33 35  1  0
 34 36  1  0
 35 37  1  0
 36 42  1  6
 20 21  2  0
 21 22  1  0
M  CHG  2   2  -1  26  -1
M  END
>  <COMPND>  (118) 
    8629 

>  <AUTHOR>  (118) 
    GENERATED BY OPEN BABEL 3.1.1

>  <MASTER>  (118) 
        0    0    0    0    0    0    0    0   58    0   58    0

>  <minimizedAffinity>  (118) 
-8.52121

>  <CNNscore>  (118) 
0.2725233436

>  <CNNaffinity>  (118) 
3.9617214203

>  <CNN_VS>  (118) 
1.0796616077

>  <CNNaffinity_variance>  (118) 
0.3867842853

$$$$
119
     RDKit          3D

 43 45  0  0  0  0  0  0  0  0999 V2000
   22.5077   73.0302   -3.8280 P   0  0  2  0  0  0  0  0  0  0  0  0
   24.0920   72.8936   -4.1260 O   0  0  0  0  0  0  0  0  0  0  0  0
   22.0550   74.4023   -3.4233 O   0  0  0  0  0  0  0  0  0  0  0  0
   22.2096   71.8493   -2.7629 O   0  0  0  0  0  0  0  0  0  0  0  0
   22.5235   72.0735   -1.3994 C   0  0  0  0  0  0  0  0  0  0  0  0
   21.8752   69.7684   -1.1996 O   0  0  0  0  0  0  0  0  0  0  0  0
   21.3846   70.3522    1.7003 O   0  0  0  0  0  0  0  0  0  0  0  0
   23.8114   69.1091    1.7465 O   0  0  0  0  0  0  0  0  0  0  0  0
   22.3971   70.8645    0.8356 C   0  0  1  0  0  0  0  0  0  0  0  0
   23.4485   69.8067    0.5724 C   0  0  2  0  0  0  0  0  0  0  0  0
   21.7829   71.0532   -0.5459 C   0  0  1  0  0  0  0  0  0  0  0  0
   22.7532   68.9176   -0.4446 C   0  0  2  0  0  0  0  0  0  0  0  0
   21.7532   70.2237    2.5889 H   0  0  0  0  0  0  0  0  0  0  0  0
   24.2499   69.7174    2.3617 H   0  0  0  0  0  0  0  0  0  0  0  0
   23.2506   66.1386   -0.5316 O   0  0  0  0  0  0  0  0  0  0  0  0
   26.3239   66.6097   -3.9336 O   0  0  0  0  0  0  0  0  0  0  0  0
   23.6781   68.2868   -1.3435 N   0  0  0  0  0  0  0  0  0  0  0  0
   24.7803   66.3754   -2.2256 N   0  0  0  0  0  0  0  0  0  0  0  0
   23.8548   66.8841   -1.3054 C   0  0  0  0  0  0  0  0  0  0  0  0
   24.3980   69.0573   -2.2502 C   0  0  0  0  0  0  0  0  0  0  0  0
   25.2778   68.5570   -3.1202 C   0  0  0  0  0  0  0  0  0  0  0  0
   25.5212   67.1002   -3.1456 C   0  0  0  0  0  0  0  0  0  0  0  0
   24.9201   65.4007   -2.2170 H   0  0  0  0  0  0  0  0  0  0  0  0
   21.8329   72.4727   -5.1870 O   0  0  0  0  0  0  0  0  0  0  0  0
   20.3452   72.6644   -5.7895 P   0  0  2  0  0  0  0  0  0  0  0  0
   20.5338   72.3215   -7.3594 O   0  0  0  0  0  0  0  0  0  0  0  0
   19.7403   74.0114   -5.5182 O   0  0  0  0  0  0  0  0  0  0  0  0
   19.5020   71.4213   -5.1992 O   0  0  0  0  0  0  0  0  0  0  0  0
   17.8539   72.0243   -3.6065 O   0  0  0  0  0  0  0  0  0  0  0  0
   17.9310   67.9461   -2.9642 O   0  0  0  0  0  0  0  0  0  0  0  0
   15.6815   69.1284   -4.3020 O   0  0  0  0  0  0  0  0  0  0  0  0
   20.3930   69.3695   -3.5046 O   0  0  0  0  0  0  0  0  0  0  0  0
   18.0067   69.1443   -3.7412 C   0  0  1  0  0  0  0  0  0  0  0  0
   16.6736   69.8841   -3.6128 C   0  0  1  0  0  0  0  0  0  0  0  0
   19.1531   70.0073   -3.2176 C   0  0  2  0  0  0  0  0  0  0  0  0
   16.7676   71.3004   -4.1962 C   0  0  1  0  0  0  0  0  0  0  0  0
   19.1261   71.4113   -3.8244 C   0  0  1  0  0  0  0  0  0  0  0  0
   17.2053   67.3934   -3.2919 H   0  0  0  0  0  0  0  0  0  0  0  0
   15.6326   68.2362   -3.9243 H   0  0  0  0  0  0  0  0  0  0  0  0
   20.3977   68.4819   -3.1148 H   0  0  0  0  0  0  0  0  0  0  0  0
   14.7843   71.5009   -2.8789 O   0  0  0  0  0  0  0  0  0  0  0  0
   15.4992   72.1107   -3.9379 C   0  0  0  0  0  0  0  0  0  0  0  0
   13.9746   72.0061   -2.7031 H   0  0  0  0  0  0  0  0  0  0  0  0
 25 28  1  0
 25 24  1  0
 25 26  1  6
 25 27  2  0
  1  4  1  0
  1 24  1  0
  1  2  1  6
  1  3  2  0
  6 11  1  0
  6 12  1  0
 29 36  1  0
 29 37  1  0
  9  7  1  1
  7 13  1  0
 10  8  1  1
  8 14  1  0
 37 28  1  6
  4  5  1  0
 33 30  1  1
 30 38  1  0
 34 31  1  6
 31 39  1  0
 35 32  1  6
 32 40  1  0
 41 42  1  0
 41 43  1  0
 15 19  2  0
 16 22  2  0
 12 17  1  6
 17 19  1  0
 17 20  1  0
 18 19  1  0
 18 22  1  0
 18 23  1  0
  9 10  1  0
  9 11  1  0
 10 12  1  0
 11  5  1  6
 33 34  1  0
 33 35  1  0
 34 36  1  0
 35 37  1  0
 36 42  1  1
 20 21  2  0
 21 22  1  0
M  CHG  2   2  -1  26  -1
M  END
>  <COMPND>  (119) 
    8629 

>  <AUTHOR>  (119) 
    GENERATED BY OPEN BABEL 3.1.1

>  <MASTER>  (119) 
        0    0    0    0    0    0    0    0   58    0   58    0

>  <minimizedAffinity>  (119) 
-8.61276

>  <CNNscore>  (119) 
0.2684932351

>  <CNNaffinity>  (119) 
4.0069937706

>  <CNN_VS>  (119) 
1.0758507252

>  <CNNaffinity_variance>  (119) 
0.9761760831

$$$$
120
     RDKit          3D

 43 45  0  0  0  0  0  0  0  0999 V2000
   21.5020   72.6350   -3.0746 P   0  0  2  0  0  0  0  0  0  0  0  0
   22.5233   71.8803   -4.0770 O   0  0  0  0  0  0  0  0  0  0  0  0
   20.5349   73.5691   -3.7404 O   0  0  0  0  0  0  0  0  0  0  0  0
   22.4704   73.3014   -1.9628 O   0  0  0  0  0  0  0  0  0  0  0  0
   22.3332   74.6848   -1.6886 C   0  0  0  0  0  0  0  0  0  0  0  0
   21.5677   73.6094    0.3192 O   0  0  0  0  0  0  0  0  0  0  0  0
   22.8359   75.8876    1.7998 O   0  0  0  0  0  0  0  0  0  0  0  0
   24.6772   73.8962    2.0832 O   0  0  0  0  0  0  0  0  0  0  0  0
   23.2729   75.2287    0.6123 C   0  0  1  0  0  0  0  0  0  0  0  0
   23.8390   73.8643    0.9460 C   0  0  2  0  0  0  0  0  0  0  0  0
   22.0391   74.8696   -0.2062 C   0  0  1  0  0  0  0  0  0  0  0  0
   22.5785   73.0467    1.1716 C   0  0  2  0  0  0  0  0  0  0  0  0
   23.6067   76.1271    2.3389 H   0  0  0  0  0  0  0  0  0  0  0  0
   25.4649   74.4280    1.8897 H   0  0  0  0  0  0  0  0  0  0  0  0
   20.6539   71.0320    1.6349 O   0  0  0  0  0  0  0  0  0  0  0  0
   23.3677   67.7701   -0.1642 O   0  0  0  0  0  0  0  0  0  0  0  0
   22.7558   71.6626    0.8338 N   0  0  0  0  0  0  0  0  0  0  0  0
   22.0067   69.4095    0.7386 N   0  0  0  0  0  0  0  0  0  0  0  0
   21.7278   70.7311    1.1096 C   0  0  0  0  0  0  0  0  0  0  0  0
   23.9383   71.2411    0.2356 C   0  0  0  0  0  0  0  0  0  0  0  0
   24.1892   69.9769   -0.1109 C   0  0  0  0  0  0  0  0  0  0  0  0
   23.1670   68.9412    0.1428 C   0  0  0  0  0  0  0  0  0  0  0  0
   21.3052   68.7430    0.9214 H   0  0  0  0  0  0  0  0  0  0  0  0
   20.8127   71.4136   -2.2707 O   0  0  0  0  0  0  0  0  0  0  0  0
   20.5829   69.8675   -2.6824 P   0  0  2  0  0  0  0  0  0  0  0  0
   19.9179   69.2249   -1.3548 O   0  0  0  0  0  0  0  0  0  0  0  0
   21.8230   69.1658   -3.1555 O   0  0  0  0  0  0  0  0  0  0  0  0
   19.3833   69.9060   -3.7615 O   0  0  0  0  0  0  0  0  0  0  0  0
   17.8103   71.6028   -4.2744 O   0  0  0  0  0  0  0  0  0  0  0  0
   15.3710   68.2962   -4.6834 O   0  0  0  0  0  0  0  0  0  0  0  0
   16.2226   69.7280   -7.0228 O   0  0  0  0  0  0  0  0  0  0  0  0
   17.3515   68.3774   -2.5739 O   0  0  0  0  0  0  0  0  0  0  0  0
   16.5958   69.0299   -4.7658 C   0  0  1  0  0  0  0  0  0  0  0  0
   16.3776   70.2246   -5.6963 C   0  0  1  0  0  0  0  0  0  0  0  0
   16.9896   69.5024   -3.3675 C   0  0  2  0  0  0  0  0  0  0  0  0
   17.5572   71.2038   -5.6266 C   0  0  1  0  0  0  0  0  0  0  0  0
   18.1397   70.5099   -3.4148 C   0  0  1  0  0  0  0  0  0  0  0  0
   15.1156   67.9929   -5.5679 H   0  0  0  0  0  0  0  0  0  0  0  0
   15.4749   69.1106   -7.0529 H   0  0  0  0  0  0  0  0  0  0  0  0
   16.6151   67.7472   -2.5516 H   0  0  0  0  0  0  0  0  0  0  0  0
   17.3021   72.1549   -7.8036 O   0  0  0  0  0  0  0  0  0  0  0  0
   17.2908   72.4779   -6.4253 C   0  0  0  0  0  0  0  0  0  0  0  0
   17.1336   72.9563   -8.3243 H   0  0  0  0  0  0  0  0  0  0  0  0
 25 28  1  0
 25 24  1  0
 25 26  1  1
 25 27  2  0
  1  4  1  0
  1 24  1  0
  1  2  1  6
  1  3  2  0
  6 11  1  0
  6 12  1  0
 29 36  1  0
 29 37  1  0
  9  7  1  1
  7 13  1  0
 10  8  1  1
  8 14  1  0
 37 28  1  6
  4  5  1  0
 33 30  1  1
 30 38  1  0
 34 31  1  6
 31 39  1  0
 35 32  1  1
 32 40  1  0
 41 42  1  0
 41 43  1  0
 15 19  2  0
 16 22  2  0
 12 17  1  6
 17 19  1  0
 17 20  1  0
 18 19  1  0
 18 22  1  0
 18 23  1  0
  9 10  1  0
  9 11  1  0
 10 12  1  0
 11  5  1  6
 33 34  1  0
 33 35  1  0
 34 36  1  0
 35 37  1  0
 36 42  1  6
 20 21  2  0
 21 22  1  0
M  CHG  2   2  -1  26  -1
M  END
>  <COMPND>  (120) 
    8629 

>  <AUTHOR>  (120) 
    GENERATED BY OPEN BABEL 3.1.1

>  <MASTER>  (120) 
        0    0    0    0    0    0    0    0   58    0   58    0

>  <minimizedAffinity>  (120) 
-7.19995

>  <CNNscore>  (120) 
0.2678642273

>  <CNNaffinity>  (120) 
3.8378531933

>  <CNN_VS>  (120) 
1.0280236006

>  <CNNaffinity_variance>  (120) 
0.4533576965

$$$$
121
     RDKit          3D

 43 45  0  0  0  0  0  0  0  0999 V2000
   21.0528   69.5393   -1.3325 P   0  0  2  0  0  0  0  0  0  0  0  0
   22.2163   68.6195   -1.9788 O   0  0  0  0  0  0  0  0  0  0  0  0
   21.1061   69.6719    0.1612 O   0  0  0  0  0  0  0  0  0  0  0  0
   19.6861   68.9165   -1.9342 O   0  0  0  0  0  0  0  0  0  0  0  0
   19.3009   69.2761   -3.2496 C   0  0  0  0  0  0  0  0  0  0  0  0
   18.2022   71.2277   -4.1201 O   0  0  0  0  0  0  0  0  0  0  0  0
   15.6708   70.0704   -3.0051 O   0  0  0  0  0  0  0  0  0  0  0  0
   15.4898   69.4532   -5.6552 O   0  0  0  0  0  0  0  0  0  0  0  0
   16.7837   69.4027   -3.5974 C   0  0  1  0  0  0  0  0  0  0  0  0
   16.7797   69.6041   -5.0984 C   0  0  2  0  0  0  0  0  0  0  0  0
   18.0498   70.1410   -3.1808 C   0  0  1  0  0  0  0  0  0  0  0  0
   17.3100   71.0220   -5.2275 C   0  0  2  0  0  0  0  0  0  0  0  0
   14.8505   69.6167   -3.2566 H   0  0  0  0  0  0  0  0  0  0  0  0
   15.1967   68.5348   -5.5482 H   0  0  0  0  0  0  0  0  0  0  0  0
   16.1267   71.8383   -7.6588 O   0  0  0  0  0  0  0  0  0  0  0  0
   20.1747   71.7777   -9.8612 O   0  0  0  0  0  0  0  0  0  0  0  0
   18.0312   71.2276   -6.4518 N   0  0  0  0  0  0  0  0  0  0  0  0
   18.1433   71.8076   -8.7534 N   0  0  0  0  0  0  0  0  0  0  0  0
   17.3421   71.6369   -7.6172 C   0  0  0  0  0  0  0  0  0  0  0  0
   19.4064   71.0241   -6.4886 C   0  0  0  0  0  0  0  0  0  0  0  0
   20.1557   71.1900   -7.5805 C   0  0  0  0  0  0  0  0  0  0  0  0
   19.5132   71.6166   -8.8403 C   0  0  0  0  0  0  0  0  0  0  0  0
   17.6848   72.0921   -9.5772 H   0  0  0  0  0  0  0  0  0  0  0  0
   21.2021   70.9331   -2.1374 O   0  0  0  0  0  0  0  0  0  0  0  0
   22.5070   71.8171   -2.4964 P   0  0  2  0  0  0  0  0  0  0  0  0
   21.8793   73.1534   -3.1580 O   0  0  0  0  0  0  0  0  0  0  0  0
   23.5101   71.1103   -3.3613 O   0  0  0  0  0  0  0  0  0  0  0  0
   23.0791   72.3002   -1.0666 O   0  0  0  0  0  0  0  0  0  0  0  0
   22.0428   72.5902    1.0449 O   0  0  0  0  0  0  0  0  0  0  0  0
   24.5228   75.8917    1.0681 O   0  0  0  0  0  0  0  0  0  0  0  0
   25.1298   73.6505    2.7582 O   0  0  0  0  0  0  0  0  0  0  0  0
   23.2155   75.0850   -1.3854 O   0  0  0  0  0  0  0  0  0  0  0  0
   24.1503   74.5440    0.7675 C   0  0  1  0  0  0  0  0  0  0  0  0
   23.8843   73.8146    2.0858 C   0  0  1  0  0  0  0  0  0  0  0  0
   22.8953   74.5555   -0.1034 C   0  0  2  0  0  0  0  0  0  0  0  0
   23.2254   72.4504    1.8409 C   0  0  1  0  0  0  0  0  0  0  0  0
   22.2920   73.1567   -0.2430 C   0  0  1  0  0  0  0  0  0  0  0  0
   25.3193   75.8915    1.6205 H   0  0  0  0  0  0  0  0  0  0  0  0
   25.5356   74.5191    2.9063 H   0  0  0  0  0  0  0  0  0  0  0  0
   23.5962   75.9707   -1.2834 H   0  0  0  0  0  0  0  0  0  0  0  0
   22.8943   72.7245    4.1913 O   0  0  0  0  0  0  0  0  0  0  0  0
   22.8080   71.7745    3.1452 C   0  0  0  0  0  0  0  0  0  0  0  0
   22.6312   72.3084    5.0276 H   0  0  0  0  0  0  0  0  0  0  0  0
 25 28  1  0
 25 24  1  0
 25 26  1  6
 25 27  2  0
  1  4  1  0
  1 24  1  0
  1  2  1  6
  1  3  2  0
  6 11  1  0
  6 12  1  0
 29 36  1  0
 29 37  1  0
  9  7  1  1
  7 13  1  0
 10  8  1  1
  8 14  1  0
 37 28  1  1
  4  5  1  0
 33 30  1  1
 30 38  1  0
 34 31  1  6
 31 39  1  0
 35 32  1  6
 32 40  1  0
 41 42  1  0
 41 43  1  0
 15 19  2  0
 16 22  2  0
 12 17  1  6
 17 19  1  0
 17 20  1  0
 18 19  1  0
 18 22  1  0
 18 23  1  0
  9 10  1  0
  9 11  1  0
 10 12  1  0
 11  5  1  6
 33 34  1  0
 33 35  1  0
 34 36  1  0
 35 37  1  0
 36 42  1  1
 20 21  2  0
 21 22  1  0
M  CHG  2   2  -1  26  -1
M  END
>  <COMPND>  (121) 
    8629 

>  <AUTHOR>  (121) 
    GENERATED BY OPEN BABEL 3.1.1

>  <MASTER>  (121) 
        0    0    0    0    0    0    0    0   58    0   58    0

>  <minimizedAffinity>  (121) 
-7.51840

>  <CNNscore>  (121) 
0.9089801908

>  <CNNaffinity>  (121) 
4.7825517654

>  <CNN_VS>  (121) 
4.3472447395

>  <CNNaffinity_variance>  (121) 
0.0422091261

$$$$
122
     RDKit          3D

 43 45  0  0  0  0  0  0  0  0999 V2000
   20.9138   69.2724   -1.3669 P   0  0  2  0  0  0  0  0  0  0  0  0
   22.0966   68.5319   -2.1854 O   0  0  0  0  0  0  0  0  0  0  0  0
   20.9849   69.1221    0.1244 O   0  0  0  0  0  0  0  0  0  0  0  0
   19.5591   68.7279   -2.0641 O   0  0  0  0  0  0  0  0  0  0  0  0
   19.2334   69.1922   -3.3627 C   0  0  0  0  0  0  0  0  0  0  0  0
   18.1745   71.1846   -4.1890 O   0  0  0  0  0  0  0  0  0  0  0  0
   15.6177   70.0481   -3.1109 O   0  0  0  0  0  0  0  0  0  0  0  0
   15.4352   69.4990   -5.7758 O   0  0  0  0  0  0  0  0  0  0  0  0
   16.7203   69.3743   -3.7156 C   0  0  1  0  0  0  0  0  0  0  0  0
   16.7257   69.6122   -5.2113 C   0  0  2  0  0  0  0  0  0  0  0  0
   17.9983   70.0784   -3.2770 C   0  0  1  0  0  0  0  0  0  0  0  0
   17.2827   71.0226   -5.3040 C   0  0  2  0  0  0  0  0  0  0  0  0
   14.7901   69.6160   -3.3761 H   0  0  0  0  0  0  0  0  0  0  0  0
   15.1247   68.5839   -5.6922 H   0  0  0  0  0  0  0  0  0  0  0  0
   16.1348   71.9779   -7.7015 O   0  0  0  0  0  0  0  0  0  0  0  0
   20.1778   71.8339   -9.9094 O   0  0  0  0  0  0  0  0  0  0  0  0
   18.0122   71.2444   -6.5206 N   0  0  0  0  0  0  0  0  0  0  0  0
   18.1489   71.9056   -8.7989 N   0  0  0  0  0  0  0  0  0  0  0  0
   17.3410   71.7252   -7.6689 C   0  0  0  0  0  0  0  0  0  0  0  0
   19.3779   70.9860   -6.5666 C   0  0  0  0  0  0  0  0  0  0  0  0
   20.1338   71.1620   -7.6524 C   0  0  0  0  0  0  0  0  0  0  0  0
   19.5098   71.6618   -8.8945 C   0  0  0  0  0  0  0  0  0  0  0  0
   17.7028   72.2395   -9.6108 H   0  0  0  0  0  0  0  0  0  0  0  0
   21.0063   70.7975   -1.8944 O   0  0  0  0  0  0  0  0  0  0  0  0
   22.1133   71.9460   -1.6327 P   0  0  2  0  0  0  0  0  0  0  0  0
   21.3976   73.2853   -2.1909 O   0  0  0  0  0  0  0  0  0  0  0  0
   23.4539   71.6594   -2.2446 O   0  0  0  0  0  0  0  0  0  0  0  0
   22.1360   72.1338   -0.0298 O   0  0  0  0  0  0  0  0  0  0  0  0
   23.5486   73.5753    1.2124 O   0  0  0  0  0  0  0  0  0  0  0  0
   23.0997   70.5447    3.9810 O   0  0  0  0  0  0  0  0  0  0  0  0
   21.7803   73.0600    4.4056 O   0  0  0  0  0  0  0  0  0  0  0  0
   23.3506   69.9059    1.1687 O   0  0  0  0  0  0  0  0  0  0  0  0
   22.6873   71.4157    2.9242 C   0  0  1  0  0  0  0  0  0  0  0  0
   22.7924   72.8582    3.4232 C   0  0  1  0  0  0  0  0  0  0  0  0
   23.5946   71.1977    1.7149 C   0  0  2  0  0  0  0  0  0  0  0  0
   22.6246   73.8569    2.2701 C   0  0  1  0  0  0  0  0  0  0  0  0
   23.3820   72.2732    0.6480 C   0  0  1  0  0  0  0  0  0  0  0  0
   22.5272   70.6778    4.7518 H   0  0  0  0  0  0  0  0  0  0  0  0
   21.8974   72.4229    5.1278 H   0  0  0  0  0  0  0  0  0  0  0  0
   23.4888   69.2340    1.8538 H   0  0  0  0  0  0  0  0  0  0  0  0
   23.6427   75.2649    3.9103 O   0  0  0  0  0  0  0  0  0  0  0  0
   22.8822   75.2944    2.7165 C   0  0  0  0  0  0  0  0  0  0  0  0
   23.8145   76.1730    4.2060 H   0  0  0  0  0  0  0  0  0  0  0  0
 25 28  1  0
 25 24  1  0
 25 26  1  6
 25 27  2  0
  1  4  1  0
  1 24  1  0
  1  2  1  6
  1  3  2  0
  6 11  1  0
  6 12  1  0
 29 36  1  0
 29 37  1  0
  9  7  1  1
  7 13  1  0
 10  8  1  1
  8 14  1  0
 37 28  1  1
  4  5  1  0
 33 30  1  1
 30 38  1  0
 34 31  1  1
 31 39  1  0
 35 32  1  6
 32 40  1  0
 41 42  1  0
 41 43  1  0
 15 19  2  0
 16 22  2  0
 12 17  1  6
 17 19  1  0
 17 20  1  0
 18 19  1  0
 18 22  1  0
 18 23  1  0
  9 10  1  0
  9 11  1  0
 10 12  1  0
 11  5  1  6
 33 34  1  0
 33 35  1  0
 34 36  1  0
 35 37  1  0
 36 42  1  1
 20 21  2  0
 21 22  1  0
M  CHG  2   2  -1  26  -1
M  END
>  <COMPND>  (122) 
    8629 

>  <AUTHOR>  (122) 
    GENERATED BY OPEN BABEL 3.1.1

>  <MASTER>  (122) 
        0    0    0    0    0    0    0    0   58    0   58    0

>  <minimizedAffinity>  (122) 
-7.64808

>  <CNNscore>  (122) 
0.8333494663

>  <CNNaffinity>  (122) 
4.7202596664

>  <CNN_VS>  (122) 
3.9336259365

>  <CNNaffinity_variance>  (122) 
0.0501159206

$$$$
123
     RDKit          3D

 43 45  0  0  0  0  0  0  0  0999 V2000
   21.9546   70.7017   -2.9215 P   0  0  2  0  0  0  0  0  0  0  0  0
   21.3098   71.4419   -1.6355 O   0  0  0  0  0  0  0  0  0  0  0  0
   22.9739   71.5078   -3.6717 O   0  0  0  0  0  0  0  0  0  0  0  0
   20.6689   70.2219   -3.7785 O   0  0  0  0  0  0  0  0  0  0  0  0
   19.6825   69.4345   -3.1344 C   0  0  0  0  0  0  0  0  0  0  0  0
   18.3770   71.1753   -4.1537 O   0  0  0  0  0  0  0  0  0  0  0  0
   16.0399   70.0429   -2.6549 O   0  0  0  0  0  0  0  0  0  0  0  0
   15.6748   69.0458   -5.1667 O   0  0  0  0  0  0  0  0  0  0  0  0
   17.1421   69.3638   -3.2543 C   0  0  1  0  0  0  0  0  0  0  0  0
   16.9940   69.3492   -4.7614 C   0  0  2  0  0  0  0  0  0  0  0  0
   18.3838   70.2262   -3.0649 C   0  0  1  0  0  0  0  0  0  0  0  0
   17.4092   70.7627   -5.1325 C   0  0  2  0  0  0  0  0  0  0  0  0
   15.2352   69.5111   -2.7628 H   0  0  0  0  0  0  0  0  0  0  0  0
   15.4580   68.1365   -4.9081 H   0  0  0  0  0  0  0  0  0  0  0  0
   15.9585   70.7111   -7.5554 O   0  0  0  0  0  0  0  0  0  0  0  0
   19.8025   71.0404  -10.0766 O   0  0  0  0  0  0  0  0  0  0  0  0
   18.0055   70.8338   -6.4366 N   0  0  0  0  0  0  0  0  0  0  0  0
   17.8737   70.8753   -8.8088 N   0  0  0  0  0  0  0  0  0  0  0  0
   17.1876   70.7991   -7.5900 C   0  0  0  0  0  0  0  0  0  0  0  0
   19.3866   70.9371   -6.5624 C   0  0  0  0  0  0  0  0  0  0  0  0
   20.0255   71.0075   -7.7320 C   0  0  0  0  0  0  0  0  0  0  0  0
   19.2445   70.9776   -8.9855 C   0  0  0  0  0  0  0  0  0  0  0  0
   17.3245   70.8525   -9.6259 H   0  0  0  0  0  0  0  0  0  0  0  0
   22.5149   69.3180   -2.3014 O   0  0  0  0  0  0  0  0  0  0  0  0
   23.8397   69.0050   -1.4298 P   0  0  2  0  0  0  0  0  0  0  0  0
   25.0399   69.1932   -2.4983 O   0  0  0  0  0  0  0  0  0  0  0  0
   23.8242   67.6691   -0.7448 O   0  0  0  0  0  0  0  0  0  0  0  0
   23.9802   70.2663   -0.4326 O   0  0  0  0  0  0  0  0  0  0  0  0
   24.6005   71.0265    1.7247 O   0  0  0  0  0  0  0  0  0  0  0  0
   20.5048   71.4575    2.0257 O   0  0  0  0  0  0  0  0  0  0  0  0
   22.1624   73.7907    1.7883 O   0  0  0  0  0  0  0  0  0  0  0  0
   21.6183   69.1816    0.6256 O   0  0  0  0  0  0  0  0  0  0  0  0
   21.7709   71.4702    1.3607 C   0  0  1  0  0  0  0  0  0  0  0  0
   22.6713   72.4884    2.0630 C   0  0  1  0  0  0  0  0  0  0  0  0
   22.3845   70.0730    1.4286 C   0  0  2  0  0  0  0  0  0  0  0  0
   24.1234   72.3694    1.5808 C   0  0  1  0  0  0  0  0  0  0  0  0
   23.8449   70.0746    0.9732 C   0  0  1  0  0  0  0  0  0  0  0  0
   20.1097   72.3416    1.9858 H   0  0  0  0  0  0  0  0  0  0  0  0
   21.2449   73.8524    2.0972 H   0  0  0  0  0  0  0  0  0  0  0  0
   20.6959   69.1894    0.9241 H   0  0  0  0  0  0  0  0  0  0  0  0
   24.3757   73.7421    3.5202 O   0  0  0  0  0  0  0  0  0  0  0  0
   25.0666   73.2660    2.3799 C   0  0  0  0  0  0  0  0  0  0  0  0
   24.9639   74.3140    4.0385 H   0  0  0  0  0  0  0  0  0  0  0  0
 25 28  1  0
 25 24  1  0
 25 26  1  6
 25 27  2  0
  1  4  1  0
  1 24  1  0
  1  2  1  1
  1  3  2  0
  6 11  1  0
  6 12  1  0
 29 36  1  0
 29 37  1  0
  9  7  1  1
  7 13  1  0
 10  8  1  1
  8 14  1  0
 37 28  1  6
  4  5  1  0
 33 30  1  1
 30 38  1  0
 34 31  1  6
 31 39  1  0
 35 32  1  6
 32 40  1  0
 41 42  1  0
 41 43  1  0
 15 19  2  0
 16 22  2  0
 12 17  1  6
 17 19  1  0
 17 20  1  0
 18 19  1  0
 18 22  1  0
 18 23  1  0
  9 10  1  0
  9 11  1  0
 10 12  1  0
 11  5  1  6
 33 34  1  0
 33 35  1  0
 34 36  1  0
 35 37  1  0
 36 42  1  1
 20 21  2  0
 21 22  1  0
M  CHG  2   2  -1  26  -1
M  END
>  <COMPND>  (123) 
    8629 

>  <AUTHOR>  (123) 
    GENERATED BY OPEN BABEL 3.1.1

>  <MASTER>  (123) 
        0    0    0    0    0    0    0    0   58    0   58    0

>  <minimizedAffinity>  (123) 
-8.64643

>  <CNNscore>  (123) 
0.8297494650

>  <CNNaffinity>  (123) 
4.7583398819

>  <CNN_VS>  (123) 
3.9482300282

>  <CNNaffinity_variance>  (123) 
0.0148389563

$$$$
124
     RDKit          3D

 43 45  0  0  0  0  0  0  0  0999 V2000
   22.7868   70.0900   -2.5686 P   0  0  2  0  0  0  0  0  0  0  0  0
   23.6478   71.2722   -3.2602 O   0  0  0  0  0  0  0  0  0  0  0  0
   23.3462   68.7095   -2.7495 O   0  0  0  0  0  0  0  0  0  0  0  0
   21.2879   70.3202   -3.1325 O   0  0  0  0  0  0  0  0  0  0  0  0
   20.3887   69.2251   -3.1293 C   0  0  0  0  0  0  0  0  0  0  0  0
   18.6727   70.7480   -3.8435 O   0  0  0  0  0  0  0  0  0  0  0  0
   16.7765   69.0706   -2.2367 O   0  0  0  0  0  0  0  0  0  0  0  0
   16.3169   68.2125   -4.7840 O   0  0  0  0  0  0  0  0  0  0  0  0
   17.9095   68.6674   -3.0041 C   0  0  1  0  0  0  0  0  0  0  0  0
   17.5941   68.7371   -4.4838 C   0  0  2  0  0  0  0  0  0  0  0  0
   18.9819   69.7396   -2.8566 C   0  0  1  0  0  0  0  0  0  0  0  0
   17.6927   70.2284   -4.7570 C   0  0  2  0  0  0  0  0  0  0  0  0
   16.0782   68.4011   -2.3151 H   0  0  0  0  0  0  0  0  0  0  0  0
   16.3048   67.2616   -4.5936 H   0  0  0  0  0  0  0  0  0  0  0  0
   15.9904   70.1451   -7.0094 O   0  0  0  0  0  0  0  0  0  0  0  0
   19.4070   71.3358   -9.8642 O   0  0  0  0  0  0  0  0  0  0  0  0
   18.1109   70.5125   -6.1007 N   0  0  0  0  0  0  0  0  0  0  0  0
   17.6930   70.7383   -8.4290 N   0  0  0  0  0  0  0  0  0  0  0  0
   17.1774   70.4415   -7.1609 C   0  0  0  0  0  0  0  0  0  0  0  0
   19.4336   70.8574   -6.3566 C   0  0  0  0  0  0  0  0  0  0  0  0
   19.9097   71.1362   -7.5718 C   0  0  0  0  0  0  0  0  0  0  0  0
   18.9996   71.0849   -8.7342 C   0  0  0  0  0  0  0  0  0  0  0  0
   17.0610   70.6948   -9.1830 H   0  0  0  0  0  0  0  0  0  0  0  0
   22.6746   70.5742   -1.0304 O   0  0  0  0  0  0  0  0  0  0  0  0
   22.3106   69.7569    0.3159 P   0  0  2  0  0  0  0  0  0  0  0  0
   23.7306   69.1207    0.7591 O   0  0  0  0  0  0  0  0  0  0  0  0
   21.2078   68.7524    0.1467 O   0  0  0  0  0  0  0  0  0  0  0  0
   22.0131   70.8975    1.4184 O   0  0  0  0  0  0  0  0  0  0  0  0
   21.1491   73.0998    1.2771 O   0  0  0  0  0  0  0  0  0  0  0  0
   24.1477   73.7436    4.0421 O   0  0  0  0  0  0  0  0  0  0  0  0
   21.4052   73.7621    4.8944 O   0  0  0  0  0  0  0  0  0  0  0  0
   24.5896   71.9314    1.8284 O   0  0  0  0  0  0  0  0  0  0  0  0
   23.1082   73.0039    3.3957 C   0  0  1  0  0  0  0  0  0  0  0  0
   21.8046   73.7940    3.5270 C   0  0  1  0  0  0  0  0  0  0  0  0
   23.4737   72.8100    1.9253 C   0  0  2  0  0  0  0  0  0  0  0  0
   20.7053   73.2011    2.6352 C   0  0  1  0  0  0  0  0  0  0  0  0
   22.2956   72.2618    1.1180 C   0  0  1  0  0  0  0  0  0  0  0  0
   23.9220   73.8697    4.9762 H   0  0  0  0  0  0  0  0  0  0  0  0
   22.1082   74.1388    5.4467 H   0  0  0  0  0  0  0  0  0  0  0  0
   25.3287   72.2897    2.3433 H   0  0  0  0  0  0  0  0  0  0  0  0
   18.6473   73.7017    3.7410 O   0  0  0  0  0  0  0  0  0  0  0  0
   19.4458   74.0646    2.6297 C   0  0  0  0  0  0  0  0  0  0  0  0
   17.8422   74.2434    3.7506 H   0  0  0  0  0  0  0  0  0  0  0  0
 25 28  1  0
 25 24  1  0
 25 26  1  1
 25 27  2  0
  1  4  1  0
  1 24  1  0
  1  2  1  6
  1  3  2  0
  6 11  1  0
  6 12  1  0
 29 36  1  0
 29 37  1  0
  9  7  1  1
  7 13  1  0
 10  8  1  1
  8 14  1  0
 37 28  1  1
  4  5  1  0
 33 30  1  1
 30 38  1  0
 34 31  1  1
 31 39  1  0
 35 32  1  1
 32 40  1  0
 41 42  1  0
 41 43  1  0
 15 19  2  0
 16 22  2  0
 12 17  1  6
 17 19  1  0
 17 20  1  0
 18 19  1  0
 18 22  1  0
 18 23  1  0
  9 10  1  0
  9 11  1  0
 10 12  1  0
 11  5  1  6
 33 34  1  0
 33 35  1  0
 34 36  1  0
 35 37  1  0
 36 42  1  6
 20 21  2  0
 21 22  1  0
M  CHG  2   2  -1  26  -1
M  END
>  <COMPND>  (124) 
    8629 

>  <AUTHOR>  (124) 
    GENERATED BY OPEN BABEL 3.1.1

>  <MASTER>  (124) 
        0    0    0    0    0    0    0    0   58    0   58    0

>  <minimizedAffinity>  (124) 
-8.09198

>  <CNNscore>  (124) 
0.7708223462

>  <CNNaffinity>  (124) 
4.8441901207

>  <CNN_VS>  (124) 
3.7340099812

>  <CNNaffinity_variance>  (124) 
0.1067289487

$$$$
125
     RDKit          3D

 43 45  0  0  0  0  0  0  0  0999 V2000
   20.6163   69.8205   -1.0661 P   0  0  2  0  0  0  0  0  0  0  0  0
   21.1492   68.7991    0.0697 O   0  0  0  0  0  0  0  0  0  0  0  0
   20.0680   71.1168   -0.5459 O   0  0  0  0  0  0  0  0  0  0  0  0
   19.5922   68.9260   -1.9431 O   0  0  0  0  0  0  0  0  0  0  0  0
   19.2714   69.3562   -3.2546 C   0  0  0  0  0  0  0  0  0  0  0  0
   18.1603   71.2937   -4.1407 O   0  0  0  0  0  0  0  0  0  0  0  0
   15.6289   70.1059   -3.0582 O   0  0  0  0  0  0  0  0  0  0  0  0
   15.4903   69.4852   -5.7100 O   0  0  0  0  0  0  0  0  0  0  0  0
   16.7577   69.4517   -3.6355 C   0  0  1  0  0  0  0  0  0  0  0  0
   16.7709   69.6523   -5.1365 C   0  0  2  0  0  0  0  0  0  0  0  0
   18.0090   70.2057   -3.2028 C   0  0  1  0  0  0  0  0  0  0  0  0
   17.2853   71.0764   -5.2596 C   0  0  2  0  0  0  0  0  0  0  0  0
   14.8177   69.6420   -3.3202 H   0  0  0  0  0  0  0  0  0  0  0  0
   15.2072   68.5633   -5.6063 H   0  0  0  0  0  0  0  0  0  0  0  0
   16.1289   71.9101   -7.6980 O   0  0  0  0  0  0  0  0  0  0  0  0
   20.2008   71.8633   -9.8564 O   0  0  0  0  0  0  0  0  0  0  0  0
   18.0199   71.2903   -6.4745 N   0  0  0  0  0  0  0  0  0  0  0  0
   18.1573   71.8863   -8.7707 N   0  0  0  0  0  0  0  0  0  0  0  0
   17.3438   71.7079   -7.6445 C   0  0  0  0  0  0  0  0  0  0  0  0
   19.3954   71.0865   -6.4976 C   0  0  0  0  0  0  0  0  0  0  0  0
   20.1566   71.2598   -7.5801 C   0  0  0  0  0  0  0  0  0  0  0  0
   19.5281   71.6953   -8.8439 C   0  0  0  0  0  0  0  0  0  0  0  0
   17.7080   72.1766   -9.5975 H   0  0  0  0  0  0  0  0  0  0  0  0
   21.8937   69.9746   -2.0446 O   0  0  0  0  0  0  0  0  0  0  0  0
   23.4364   70.3381   -1.7269 P   0  0  2  0  0  0  0  0  0  0  0  0
   24.1968   69.9653   -3.1055 O   0  0  0  0  0  0  0  0  0  0  0  0
   23.9912   69.6564   -0.5098 O   0  0  0  0  0  0  0  0  0  0  0  0
   23.4718   71.9505   -1.6651 O   0  0  0  0  0  0  0  0  0  0  0  0
   21.8198   73.6429   -1.5134 O   0  0  0  0  0  0  0  0  0  0  0  0
   24.2507   75.3491   -4.3823 O   0  0  0  0  0  0  0  0  0  0  0  0
   24.2195   76.4333   -1.7230 O   0  0  0  0  0  0  0  0  0  0  0  0
   23.7804   72.4928   -4.4011 O   0  0  0  0  0  0  0  0  0  0  0  0
   23.9576   74.5802   -3.2125 C   0  0  1  0  0  0  0  0  0  0  0  0
   23.2616   75.4928   -2.2008 C   0  0  1  0  0  0  0  0  0  0  0  0
   23.0504   73.4129   -3.5968 C   0  0  2  0  0  0  0  0  0  0  0  0
   22.6791   74.6838   -1.0340 C   0  0  1  0  0  0  0  0  0  0  0  0
   22.4856   72.7066   -2.3630 C   0  0  1  0  0  0  0  0  0  0  0  0
   24.8269   76.0916   -4.1453 H   0  0  0  0  0  0  0  0  0  0  0  0
   24.5799   76.9372   -2.4696 H   0  0  0  0  0  0  0  0  0  0  0  0
   24.1324   72.9521   -5.1789 H   0  0  0  0  0  0  0  0  0  0  0  0
   22.7246   76.2660    0.7558 O   0  0  0  0  0  0  0  0  0  0  0  0
   21.8458   75.5532   -0.0950 C   0  0  0  0  0  0  0  0  0  0  0  0
   22.2081   76.8239    1.3589 H   0  0  0  0  0  0  0  0  0  0  0  0
 25 28  1  0
 25 24  1  0
 25 26  1  6
 25 27  2  0
  1  4  1  0
  1 24  1  0
  1  2  1  1
  1  3  2  0
  6 11  1  0
  6 12  1  0
 29 36  1  0
 29 37  1  0
  9  7  1  1
  7 13  1  0
 10  8  1  1
  8 14  1  0
 37 28  1  1
  4  5  1  0
 33 30  1  6
 30 38  1  0
 34 31  1  1
 31 39  1  0
 35 32  1  1
 32 40  1  0
 41 42  1  0
 41 43  1  0
 15 19  2  0
 16 22  2  0
 12 17  1  6
 17 19  1  0
 17 20  1  0
 18 19  1  0
 18 22  1  0
 18 23  1  0
  9 10  1  0
  9 11  1  0
 10 12  1  0
 11  5  1  6
 33 34  1  0
 33 35  1  0
 34 36  1  0
 35 37  1  0
 36 42  1  1
 20 21  2  0
 21 22  1  0
M  CHG  2   2  -1  26  -1
M  END
>  <COMPND>  (125) 
    8629 

>  <AUTHOR>  (125) 
    GENERATED BY OPEN BABEL 3.1.1

>  <MASTER>  (125) 
        0    0    0    0    0    0    0    0   58    0   58    0

>  <minimizedAffinity>  (125) 
-7.16636

>  <CNNscore>  (125) 
0.7543510199

>  <CNNaffinity>  (125) 
4.7983202934

>  <CNN_VS>  (125) 
3.6196177006

>  <CNNaffinity_variance>  (125) 
0.1124988198

$$$$
126
     RDKit          3D

 43 45  0  0  0  0  0  0  0  0999 V2000
   22.5890   70.1592   -2.2566 P   0  0  2  0  0  0  0  0  0  0  0  0
   23.5577   70.9142   -3.3096 O   0  0  0  0  0  0  0  0  0  0  0  0
   22.4676   68.6771   -2.4571 O   0  0  0  0  0  0  0  0  0  0  0  0
   21.2053   70.9943   -2.3341 O   0  0  0  0  0  0  0  0  0  0  0  0
   20.8828   71.6576   -3.5439 C   0  0  0  0  0  0  0  0  0  0  0  0
   19.0334   72.5336   -4.8033 O   0  0  0  0  0  0  0  0  0  0  0  0
   17.3107   71.7078   -2.4922 O   0  0  0  0  0  0  0  0  0  0  0  0
   16.8865   69.7061   -4.2948 O   0  0  0  0  0  0  0  0  0  0  0  0
   18.4619   71.0633   -3.0349 C   0  0  1  0  0  0  0  0  0  0  0  0
   18.1192   70.3946   -4.3499 C   0  0  2  0  0  0  0  0  0  0  0  0
   19.4418   72.1443   -3.4737 C   0  0  1  0  0  0  0  0  0  0  0  0
   18.0870   71.5757   -5.3049 C   0  0  2  0  0  0  0  0  0  0  0  0
   16.6705   71.0375   -2.2046 H   0  0  0  0  0  0  0  0  0  0  0  0
   16.9579   68.9640   -3.6743 H   0  0  0  0  0  0  0  0  0  0  0  0
   16.2800   70.6426   -7.2650 O   0  0  0  0  0  0  0  0  0  0  0  0
   19.6274   70.1969  -10.4016 O   0  0  0  0  0  0  0  0  0  0  0  0
   18.4591   71.2089   -6.6423 N   0  0  0  0  0  0  0  0  0  0  0  0
   17.9482   70.4216   -8.8252 N   0  0  0  0  0  0  0  0  0  0  0  0
   17.4747   70.7513   -7.5489 C   0  0  0  0  0  0  0  0  0  0  0  0
   19.7873   71.3050   -7.0430 C   0  0  0  0  0  0  0  0  0  0  0  0
   20.2228   70.9855   -8.2635 C   0  0  0  0  0  0  0  0  0  0  0  0
   19.2582   70.4988   -9.2709 C   0  0  0  0  0  0  0  0  0  0  0  0
   17.2804   70.1000   -9.4736 H   0  0  0  0  0  0  0  0  0  0  0  0
   23.1977   70.5967   -0.8245 O   0  0  0  0  0  0  0  0  0  0  0  0
   22.7011   70.2812    0.6811 P   0  0  2  0  0  0  0  0  0  0  0  0
   23.5321   68.9500    1.0746 O   0  0  0  0  0  0  0  0  0  0  0  0
   21.2125   70.1465    0.8226 O   0  0  0  0  0  0  0  0  0  0  0  0
   23.3553   71.4509    1.5805 O   0  0  0  0  0  0  0  0  0  0  0  0
   23.1286   73.1800    3.1854 O   0  0  0  0  0  0  0  0  0  0  0  0
   22.8694   75.4400   -0.2608 O   0  0  0  0  0  0  0  0  0  0  0  0
   25.2423   75.5793    1.3511 O   0  0  0  0  0  0  0  0  0  0  0  0
   21.6281   72.8273   -0.1507 O   0  0  0  0  0  0  0  0  0  0  0  0
   23.3369   74.3678    0.5621 C   0  0  1  0  0  0  0  0  0  0  0  0
   24.0301   74.9696    1.7860 C   0  0  1  0  0  0  0  0  0  0  0  0
   22.1472   73.5087    0.9862 C   0  0  2  0  0  0  0  0  0  0  0  0
   24.3215   73.8948    2.8420 C   0  0  1  0  0  0  0  0  0  0  0  0
   22.5341   72.5058    2.0745 C   0  0  1  0  0  0  0  0  0  0  0  0
   23.6201   75.9891   -0.5339 H   0  0  0  0  0  0  0  0  0  0  0  0
   25.0444   76.2556    0.6843 H   0  0  0  0  0  0  0  0  0  0  0  0
   21.3866   73.4731   -0.8323 H   0  0  0  0  0  0  0  0  0  0  0  0
   26.2612   74.7005    3.9810 O   0  0  0  0  0  0  0  0  0  0  0  0
   24.8687   74.4964    4.1346 C   0  0  0  0  0  0  0  0  0  0  0  0
   26.6230   75.0833    4.7960 H   0  0  0  0  0  0  0  0  0  0  0  0
 25 28  1  0
 25 24  1  0
 25 26  1  1
 25 27  2  0
  1  4  1  0
  1 24  1  0
  1  2  1  6
  1  3  2  0
  6 11  1  0
  6 12  1  0
 29 36  1  0
 29 37  1  0
  9  7  1  6
  7 13  1  0
 10  8  1  1
  8 14  1  0
 37 28  1  6
  4  5  1  0
 33 30  1  6
 30 38  1  0
 34 31  1  6
 31 39  1  0
 35 32  1  6
 32 40  1  0
 41 42  1  0
 41 43  1  0
 15 19  2  0
 16 22  2  0
 12 17  1  6
 17 19  1  0
 17 20  1  0
 18 19  1  0
 18 22  1  0
 18 23  1  0
  9 10  1  0
  9 11  1  0
 10 12  1  0
 11  5  1  6
 33 34  1  0
 33 35  1  0
 34 36  1  0
 35 37  1  0
 36 42  1  1
 20 21  2  0
 21 22  1  0
M  CHG  2   2  -1  26  -1
M  END
>  <COMPND>  (126) 
    8629 

>  <AUTHOR>  (126) 
    GENERATED BY OPEN BABEL 3.1.1

>  <MASTER>  (126) 
        0    0    0    0    0    0    0    0   58    0   58    0

>  <minimizedAffinity>  (126) 
-7.37396

>  <CNNscore>  (126) 
0.6237766147

>  <CNNaffinity>  (126) 
4.4995865822

>  <CNN_VS>  (126) 
2.8067369461

>  <CNNaffinity_variance>  (126) 
0.0372297429

$$$$
127
     RDKit          3D

 43 45  0  0  0  0  0  0  0  0999 V2000
   20.9605   69.6174   -1.4045 P   0  0  2  0  0  0  0  0  0  0  0  0
   22.1311   68.6473   -1.9578 O   0  0  0  0  0  0  0  0  0  0  0  0
   20.9652   69.8333    0.0804 O   0  0  0  0  0  0  0  0  0  0  0  0
   19.6056   68.9798   -2.0175 O   0  0  0  0  0  0  0  0  0  0  0  0
   19.2362   69.3225   -3.3419 C   0  0  0  0  0  0  0  0  0  0  0  0
   18.1428   71.2790   -4.2080 O   0  0  0  0  0  0  0  0  0  0  0  0
   15.5883   70.0617   -3.2164 O   0  0  0  0  0  0  0  0  0  0  0  0
   15.5156   69.5047   -5.8849 O   0  0  0  0  0  0  0  0  0  0  0  0
   16.7322   69.4233   -3.7815 C   0  0  1  0  0  0  0  0  0  0  0  0
   16.7815   69.6599   -5.2765 C   0  0  2  0  0  0  0  0  0  0  0  0
   17.9710   70.1685   -3.3005 C   0  0  1  0  0  0  0  0  0  0  0  0
   17.2958   71.0874   -5.3528 C   0  0  2  0  0  0  0  0  0  0  0  0
   14.7847   69.6030   -3.5091 H   0  0  0  0  0  0  0  0  0  0  0  0
   15.2320   68.5802   -5.8103 H   0  0  0  0  0  0  0  0  0  0  0  0
   16.3647   72.5704   -7.5691 O   0  0  0  0  0  0  0  0  0  0  0  0
   20.3115   71.9585   -9.8690 O   0  0  0  0  0  0  0  0  0  0  0  0
   18.0593   71.3316   -6.5440 N   0  0  0  0  0  0  0  0  0  0  0  0
   18.3307   72.2646   -8.7124 N   0  0  0  0  0  0  0  0  0  0  0  0
   17.4987   72.0879   -7.5995 C   0  0  0  0  0  0  0  0  0  0  0  0
   19.3490   70.8237   -6.6567 C   0  0  0  0  0  0  0  0  0  0  0  0
   20.1289   71.0001   -7.7252 C   0  0  0  0  0  0  0  0  0  0  0  0
   19.6188   71.7788   -8.8722 C   0  0  0  0  0  0  0  0  0  0  0  0
   17.9612   72.7880   -9.4603 H   0  0  0  0  0  0  0  0  0  0  0  0
   21.1581   70.9616   -2.2804 O   0  0  0  0  0  0  0  0  0  0  0  0
   22.3572   72.0453   -2.3057 P   0  0  2  0  0  0  0  0  0  0  0  0
   23.3931   71.4273   -3.3838 O   0  0  0  0  0  0  0  0  0  0  0  0
   22.9594   72.3283   -0.9599 O   0  0  0  0  0  0  0  0  0  0  0  0
   21.7257   73.3361   -3.0407 O   0  0  0  0  0  0  0  0  0  0  0  0
   20.4109   73.5783   -4.9976 O   0  0  0  0  0  0  0  0  0  0  0  0
   22.8870   76.8508   -5.4569 O   0  0  0  0  0  0  0  0  0  0  0  0
   20.1365   77.2447   -4.7304 O   0  0  0  0  0  0  0  0  0  0  0  0
   23.9493   74.3730   -4.4027 O   0  0  0  0  0  0  0  0  0  0  0  0
   22.1117   75.8958   -4.7274 C   0  0  1  0  0  0  0  0  0  0  0  0
   20.6581   76.0020   -5.1930 C   0  0  1  0  0  0  0  0  0  0  0  0
   22.6615   74.4963   -4.9967 C   0  0  2  0  0  0  0  0  0  0  0  0
   19.8175   74.8362   -4.6550 C   0  0  1  0  0  0  0  0  0  0  0  0
   21.7258   73.4096   -4.4640 C   0  0  1  0  0  0  0  0  0  0  0  0
   22.5433   77.7416   -5.2899 H   0  0  0  0  0  0  0  0  0  0  0  0
   20.6765   77.9724   -5.0768 H   0  0  0  0  0  0  0  0  0  0  0  0
   24.5324   75.0662   -4.7483 H   0  0  0  0  0  0  0  0  0  0  0  0
   18.4975   74.8346   -6.6467 O   0  0  0  0  0  0  0  0  0  0  0  0
   18.4044   74.8352   -5.2340 C   0  0  0  0  0  0  0  0  0  0  0  0
   17.6056   74.8336   -7.0289 H   0  0  0  0  0  0  0  0  0  0  0  0
 25 28  1  0
 25 24  1  0
 25 26  1  6
 25 27  2  0
  1  4  1  0
  1 24  1  0
  1  2  1  1
  1  3  2  0
  6 11  1  0
  6 12  1  0
 29 36  1  0
 29 37  1  0
  9  7  1  1
  7 13  1  0
 10  8  1  1
  8 14  1  0
 37 28  1  1
  4  5  1  0
 33 30  1  6
 30 38  1  0
 34 31  1  1
 31 39  1  0
 35 32  1  1
 32 40  1  0
 41 42  1  0
 41 43  1  0
 15 19  2  0
 16 22  2  0
 12 17  1  6
 17 19  1  0
 17 20  1  0
 18 19  1  0
 18 22  1  0
 18 23  1  0
  9 10  1  0
  9 11  1  0
 10 12  1  0
 11  5  1  6
 33 34  1  0
 33 35  1  0
 34 36  1  0
 35 37  1  0
 36 42  1  6
 20 21  2  0
 21 22  1  0
M  CHG  2   2  -1  26  -1
M  END
>  <COMPND>  (127) 
    8629 

>  <AUTHOR>  (127) 
    GENERATED BY OPEN BABEL 3.1.1

>  <MASTER>  (127) 
        0    0    0    0    0    0    0    0   58    0   58    0

>  <minimizedAffinity>  (127) 
-6.63713

>  <CNNscore>  (127) 
0.6058542728

>  <CNNaffinity>  (127) 
4.2796702385

>  <CNN_VS>  (127) 
2.5928564072

>  <CNNaffinity_variance>  (127) 
0.5297016501

$$$$
128
     RDKit          3D

 43 45  0  0  0  0  0  0  0  0999 V2000
   22.8860   72.2617   -3.7091 P   0  0  2  0  0  0  0  0  0  0  0  0
   23.9146   73.2398   -4.4854 O   0  0  0  0  0  0  0  0  0  0  0  0
   23.5070   71.0313   -3.1158 O   0  0  0  0  0  0  0  0  0  0  0  0
   21.7069   72.0038   -4.7866 O   0  0  0  0  0  0  0  0  0  0  0  0
   20.7777   73.0446   -5.0341 C   0  0  0  0  0  0  0  0  0  0  0  0
   19.7524   71.4164   -6.4734 O   0  0  0  0  0  0  0  0  0  0  0  0
   18.5997   73.7430   -7.9730 O   0  0  0  0  0  0  0  0  0  0  0  0
   16.4959   72.9189   -6.4460 O   0  0  0  0  0  0  0  0  0  0  0  0
   18.8276   73.5960   -6.5724 C   0  0  1  0  0  0  0  0  0  0  0  0
   17.8005   72.6618   -5.9677 C   0  0  2  0  0  0  0  0  0  0  0  0
   20.1200   72.8106   -6.3872 C   0  0  1  0  0  0  0  0  0  0  0  0
   18.3222   71.3005   -6.3954 C   0  0  2  0  0  0  0  0  0  0  0  0
   17.7796   74.2419   -8.1164 H   0  0  0  0  0  0  0  0  0  0  0  0
   16.2090   73.7960   -6.1476 H   0  0  0  0  0  0  0  0  0  0  0  0
   15.9209   69.8143   -6.4451 O   0  0  0  0  0  0  0  0  0  0  0  0
   17.1494   67.3590   -2.7432 O   0  0  0  0  0  0  0  0  0  0  0  0
   17.9887   70.2665   -5.4568 N   0  0  0  0  0  0  0  0  0  0  0  0
   16.5346   68.5928   -4.6019 N   0  0  0  0  0  0  0  0  0  0  0  0
   16.7564   69.5814   -5.5691 C   0  0  0  0  0  0  0  0  0  0  0  0
   18.8788   69.9409   -4.4391 C   0  0  0  0  0  0  0  0  0  0  0  0
   18.6517   68.9965   -3.5239 C   0  0  0  0  0  0  0  0  0  0  0  0
   17.3877   68.2335   -3.5705 C   0  0  0  0  0  0  0  0  0  0  0  0
   15.6825   68.1026   -4.6601 H   0  0  0  0  0  0  0  0  0  0  0  0
   22.1875   73.2475   -2.6351 O   0  0  0  0  0  0  0  0  0  0  0  0
   22.7942   74.0186   -1.3506 P   0  0  2  0  0  0  0  0  0  0  0  0
   21.5140   74.8059   -0.7516 O   0  0  0  0  0  0  0  0  0  0  0  0
   23.9721   74.8967   -1.6597 O   0  0  0  0  0  0  0  0  0  0  0  0
   23.0937   72.8512   -0.2771 O   0  0  0  0  0  0  0  0  0  0  0  0
   22.0917   70.7035   -0.2729 O   0  0  0  0  0  0  0  0  0  0  0  0
   22.7880   71.1146    3.7764 O   0  0  0  0  0  0  0  0  0  0  0  0
   24.3937   69.2963    2.2390 O   0  0  0  0  0  0  0  0  0  0  0  0
   21.9342   73.4003    2.2187 O   0  0  0  0  0  0  0  0  0  0  0  0
   23.0655   71.2802    2.3832 C   0  0  1  0  0  0  0  0  0  0  0  0
   23.1948   69.8927    1.7518 C   0  0  1  0  0  0  0  0  0  0  0  0
   21.9231   72.0611    1.7361 C   0  0  2  0  0  0  0  0  0  0  0  0
   23.2266   69.9819    0.2201 C   0  0  1  0  0  0  0  0  0  0  0  0
   22.0227   72.0467    0.2097 C   0  0  1  0  0  0  0  0  0  0  0  0
   23.5098   70.6200    4.1934 H   0  0  0  0  0  0  0  0  0  0  0  0
   24.3610   69.2463    3.2073 H   0  0  0  0  0  0  0  0  0  0  0  0
   21.8703   73.3958    3.1861 H   0  0  0  0  0  0  0  0  0  0  0  0
   24.2198   68.5454   -1.4106 O   0  0  0  0  0  0  0  0  0  0  0  0
   23.1965   68.6022   -0.4339 C   0  0  0  0  0  0  0  0  0  0  0  0
   24.2128   67.6727   -1.8349 H   0  0  0  0  0  0  0  0  0  0  0  0
 25 28  1  0
 25 24  1  0
 25 26  1  1
 25 27  2  0
  1  4  1  0
  1 24  1  0
  1  2  1  6
  1  3  2  0
  6 11  1  0
  6 12  1  0
 29 36  1  0
 29 37  1  0
  9  7  1  6
  7 13  1  0
 10  8  1  6
  8 14  1  0
 37 28  1  1
  4  5  1  0
 33 30  1  1
 30 38  1  0
 34 31  1  1
 31 39  1  0
 35 32  1  1
 32 40  1  0
 41 42  1  0
 41 43  1  0
 15 19  2  0
 16 22  2  0
 12 17  1  1
 17 19  1  0
 17 20  1  0
 18 19  1  0
 18 22  1  0
 18 23  1  0
  9 10  1  0
  9 11  1  0
 10 12  1  0
 11  5  1  1
 33 34  1  0
 33 35  1  0
 34 36  1  0
 35 37  1  0
 36 42  1  6
 20 21  2  0
 21 22  1  0
M  CHG  2   2  -1  26  -1
M  END
>  <COMPND>  (128) 
    8629 

>  <AUTHOR>  (128) 
    GENERATED BY OPEN BABEL 3.1.1

>  <MASTER>  (128) 
        0    0    0    0    0    0    0    0   58    0   58    0

>  <minimizedAffinity>  (128) 
-7.72413

>  <CNNscore>  (128) 
0.5285479426

>  <CNNaffinity>  (128) 
4.2824697495

>  <CNN_VS>  (128) 
2.2634906769

>  <CNNaffinity_variance>  (128) 
0.3008316457

$$$$
129
     RDKit          3D

 43 45  0  0  0  0  0  0  0  0999 V2000
   21.3994   70.9549   -3.0548 P   0  0  2  0  0  0  0  0  0  0  0  0
   20.6300   71.4317   -1.7140 O   0  0  0  0  0  0  0  0  0  0  0  0
   22.3817   71.9452   -3.6080 O   0  0  0  0  0  0  0  0  0  0  0  0
   20.2042   70.5177   -4.0539 O   0  0  0  0  0  0  0  0  0  0  0  0
   19.7903   69.1625   -4.0607 C   0  0  0  0  0  0  0  0  0  0  0  0
   17.7483   70.1882   -3.3179 O   0  0  0  0  0  0  0  0  0  0  0  0
   16.9362   67.4574   -2.3829 O   0  0  0  0  0  0  0  0  0  0  0  0
   15.5726   67.7117   -4.7308 O   0  0  0  0  0  0  0  0  0  0  0  0
   17.6875   67.8294   -3.5372 C   0  0  1  0  0  0  0  0  0  0  0  0
   16.7769   68.4362   -4.5842 C   0  0  2  0  0  0  0  0  0  0  0  0
   18.5715   69.0118   -3.1607 C   0  0  1  0  0  0  0  0  0  0  0  0
   16.5544   69.8353   -4.0356 C   0  0  2  0  0  0  0  0  0  0  0  0
   16.3642   66.7037   -2.5987 H   0  0  0  0  0  0  0  0  0  0  0  0
   15.7669   66.8289   -5.0825 H   0  0  0  0  0  0  0  0  0  0  0  0
   15.3965   72.3789   -3.6265 O   0  0  0  0  0  0  0  0  0  0  0  0
   15.7473   73.4596   -8.0931 O   0  0  0  0  0  0  0  0  0  0  0  0
   16.3317   70.8017   -5.0739 N   0  0  0  0  0  0  0  0  0  0  0  0
   15.5723   72.9150   -5.8508 N   0  0  0  0  0  0  0  0  0  0  0  0
   15.7426   72.0493   -4.7629 C   0  0  0  0  0  0  0  0  0  0  0  0
   16.6965   70.5084   -6.3834 C   0  0  0  0  0  0  0  0  0  0  0  0
   16.5262   71.3443   -7.4098 C   0  0  0  0  0  0  0  0  0  0  0  0
   15.9173   72.6687   -7.1703 C   0  0  0  0  0  0  0  0  0  0  0  0
   15.1633   73.7898   -5.6581 H   0  0  0  0  0  0  0  0  0  0  0  0
   22.0452   69.5385   -2.6192 O   0  0  0  0  0  0  0  0  0  0  0  0
   23.4598   69.1869   -1.9205 P   0  0  2  0  0  0  0  0  0  0  0  0
   24.5396   69.5323   -3.0747 O   0  0  0  0  0  0  0  0  0  0  0  0
   23.5510   67.7868   -1.3861 O   0  0  0  0  0  0  0  0  0  0  0  0
   23.6656   70.3410   -0.8112 O   0  0  0  0  0  0  0  0  0  0  0  0
   24.4635   70.8727    1.3561 O   0  0  0  0  0  0  0  0  0  0  0  0
   20.4084   71.2599    2.0324 O   0  0  0  0  0  0  0  0  0  0  0  0
   22.0556   73.6092    1.9062 O   0  0  0  0  0  0  0  0  0  0  0  0
   21.3907   69.1458    0.3163 O   0  0  0  0  0  0  0  0  0  0  0  0
   21.6165   71.3452    1.2717 C   0  0  1  0  0  0  0  0  0  0  0  0
   22.5770   72.2865    2.0011 C   0  0  1  0  0  0  0  0  0  0  0  0
   22.2249   69.9500    1.1431 C   0  0  2  0  0  0  0  0  0  0  0  0
   23.9844   72.2221    1.3927 C   0  0  1  0  0  0  0  0  0  0  0  0
   23.6436   70.0029    0.5732 C   0  0  1  0  0  0  0  0  0  0  0  0
   20.0167   72.1425    2.1174 H   0  0  0  0  0  0  0  0  0  0  0  0
   21.1664   73.6360    2.2934 H   0  0  0  0  0  0  0  0  0  0  0  0
   20.4956   69.1201    0.6880 H   0  0  0  0  0  0  0  0  0  0  0  0
   24.8429   74.4002    1.8700 O   0  0  0  0  0  0  0  0  0  0  0  0
   24.9949   73.0324    2.2018 C   0  0  0  0  0  0  0  0  0  0  0  0
   25.4795   74.9281    2.3777 H   0  0  0  0  0  0  0  0  0  0  0  0
 25 28  1  0
 25 24  1  0
 25 26  1  6
 25 27  2  0
  1  4  1  0
  1 24  1  0
  1  2  1  1
  1  3  2  0
  6 11  1  0
  6 12  1  0
 29 36  1  0
 29 37  1  0
  9  7  1  1
  7 13  1  0
 10  8  1  1
  8 14  1  0
 37 28  1  6
  4  5  1  0
 33 30  1  1
 30 38  1  0
 34 31  1  6
 31 39  1  0
 35 32  1  6
 32 40  1  0
 41 42  1  0
 41 43  1  0
 15 19  2  0
 16 22  2  0
 12 17  1  6
 17 19  1  0
 17 20  1  0
 18 19  1  0
 18 22  1  0
 18 23  1  0
  9 10  1  0
  9 11  1  0
 10 12  1  0
 11  5  1  6
 33 34  1  0
 33 35  1  0
 34 36  1  0
 35 37  1  0
 36 42  1  1
 20 21  2  0
 21 22  1  0
M  CHG  2   2  -1  26  -1
M  END
>  <COMPND>  (129) 
    8629 

>  <AUTHOR>  (129) 
    GENERATED BY OPEN BABEL 3.1.1

>  <MASTER>  (129) 
        0    0    0    0    0    0    0    0   58    0   58    0

>  <minimizedAffinity>  (129) 
-8.41385

>  <CNNscore>  (129) 
0.5274477601

>  <CNNaffinity>  (129) 
4.3811273575

>  <CNN_VS>  (129) 
2.3108158112

>  <CNNaffinity_variance>  (129) 
0.2751721740

$$$$
130
     RDKit          3D

 43 45  0  0  0  0  0  0  0  0999 V2000
   21.6512   75.0119   -5.1622 P   0  0  2  0  0  0  0  0  0  0  0  0
   20.8990   76.3659   -4.6949 O   0  0  0  0  0  0  0  0  0  0  0  0
   22.8850   75.2253   -5.9890 O   0  0  0  0  0  0  0  0  0  0  0  0
   20.4810   74.1382   -5.8588 O   0  0  0  0  0  0  0  0  0  0  0  0
   20.7360   72.7745   -6.1471 C   0  0  0  0  0  0  0  0  0  0  0  0
   19.4606   70.9978   -7.1423 O   0  0  0  0  0  0  0  0  0  0  0  0
   18.2369   73.1062   -8.8881 O   0  0  0  0  0  0  0  0  0  0  0  0
   16.3082   72.7026   -7.0030 O   0  0  0  0  0  0  0  0  0  0  0  0
   18.6341   73.1863   -7.5202 C   0  0  1  0  0  0  0  0  0  0  0  0
   17.6495   72.4424   -6.6423 C   0  0  2  0  0  0  0  0  0  0  0  0
   19.9012   72.3575   -7.3502 C   0  0  1  0  0  0  0  0  0  0  0  0
   18.0481   70.9954   -6.8780 C   0  0  2  0  0  0  0  0  0  0  0  0
   17.4297   73.6283   -9.0213 H   0  0  0  0  0  0  0  0  0  0  0  0
   16.1031   73.6355   -6.8346 H   0  0  0  0  0  0  0  0  0  0  0  0
   15.6383   69.5869   -6.4456 O   0  0  0  0  0  0  0  0  0  0  0  0
   17.1633   67.8340   -2.4653 O   0  0  0  0  0  0  0  0  0  0  0  0
   17.7885   70.1631   -5.7373 N   0  0  0  0  0  0  0  0  0  0  0  0
   16.3997   68.7151   -4.4642 N   0  0  0  0  0  0  0  0  0  0  0  0
   16.5451   69.5003   -5.6150 C   0  0  0  0  0  0  0  0  0  0  0  0
   18.7612   70.0104   -4.7552 C   0  0  0  0  0  0  0  0  0  0  0  0
   18.6064   69.2590   -3.6631 C   0  0  0  0  0  0  0  0  0  0  0  0
   17.3363   68.5328   -3.4591 C   0  0  0  0  0  0  0  0  0  0  0  0
   15.5414   68.2442   -4.3575 H   0  0  0  0  0  0  0  0  0  0  0  0
   21.9025   74.2356   -3.7668 O   0  0  0  0  0  0  0  0  0  0  0  0
   23.2058   73.4654   -3.2002 P   0  0  2  0  0  0  0  0  0  0  0  0
   24.1905   74.6730   -2.7650 O   0  0  0  0  0  0  0  0  0  0  0  0
   23.8123   72.4895   -4.1666 O   0  0  0  0  0  0  0  0  0  0  0  0
   22.7207   72.8125   -1.8062 O   0  0  0  0  0  0  0  0  0  0  0  0
   22.4356   70.4629   -1.9281 O   0  0  0  0  0  0  0  0  0  0  0  0
   20.6232   71.1593    1.7163 O   0  0  0  0  0  0  0  0  0  0  0  0
   23.1918   69.8774    1.6320 O   0  0  0  0  0  0  0  0  0  0  0  0
   20.2724   73.0423   -0.4541 O   0  0  0  0  0  0  0  0  0  0  0  0
   21.5838   71.3688    0.6776 C   0  0  1  0  0  0  0  0  0  0  0  0
   22.3710   70.0713    0.4836 C   0  0  1  0  0  0  0  0  0  0  0  0
   20.8532   71.7518   -0.6080 C   0  0  2  0  0  0  0  0  0  0  0  0
   23.2324   70.1304   -0.7851 C   0  0  1  0  0  0  0  0  0  0  0  0
   21.7902   71.7329   -1.8171 C   0  0  1  0  0  0  0  0  0  0  0  0
   21.0806   70.9162    2.5356 H   0  0  0  0  0  0  0  0  0  0  0  0
   22.6358   69.8424    2.4262 H   0  0  0  0  0  0  0  0  0  0  0  0
   19.6813   73.0411    0.3143 H   0  0  0  0  0  0  0  0  0  0  0  0
   23.2573   67.7859   -0.3253 O   0  0  0  0  0  0  0  0  0  0  0  0
   23.9037   68.7916   -1.0835 C   0  0  0  0  0  0  0  0  0  0  0  0
   23.6738   66.9281   -0.5053 H   0  0  0  0  0  0  0  0  0  0  0  0
 25 28  1  0
 25 24  1  0
 25 26  1  1
 25 27  2  0
  1  4  1  0
  1 24  1  0
  1  2  1  1
  1  3  2  0
  6 11  1  0
  6 12  1  0
 29 36  1  0
 29 37  1  0
  9  7  1  6
  7 13  1  0
 10  8  1  6
  8 14  1  0
 37 28  1  1
  4  5  1  0
 33 30  1  1
 30 38  1  0
 34 31  1  1
 31 39  1  0
 35 32  1  1
 32 40  1  0
 41 42  1  0
 41 43  1  0
 15 19  2  0
 16 22  2  0
 12 17  1  1
 17 19  1  0
 17 20  1  0
 18 19  1  0
 18 22  1  0
 18 23  1  0
  9 10  1  0
  9 11  1  0
 10 12  1  0
 11  5  1  1
 33 34  1  0
 33 35  1  0
 34 36  1  0
 35 37  1  0
 36 42  1  6
 20 21  2  0
 21 22  1  0
M  CHG  2   2  -1  26  -1
M  END
>  <COMPND>  (130) 
    8629 

>  <AUTHOR>  (130) 
    GENERATED BY OPEN BABEL 3.1.1

>  <MASTER>  (130) 
        0    0    0    0    0    0    0    0   58    0   58    0

>  <minimizedAffinity>  (130) 
-7.67197

>  <CNNscore>  (130) 
0.5168529153

>  <CNNaffinity>  (130) 
4.1998209953

>  <CNN_VS>  (130) 
2.1706898212

>  <CNNaffinity_variance>  (130) 
0.5612958670

$$$$
131
     RDKit          3D

 43 45  0  0  0  0  0  0  0  0999 V2000
   21.8548   71.8352   -3.8288 P   0  0  2  0  0  0  0  0  0  0  0  0
   22.8693   72.9418   -4.4319 O   0  0  0  0  0  0  0  0  0  0  0  0
   22.4825   70.5126   -3.4998 O   0  0  0  0  0  0  0  0  0  0  0  0
   20.6452   71.7912   -4.9025 O   0  0  0  0  0  0  0  0  0  0  0  0
   20.8091   72.4726   -6.1340 C   0  0  0  0  0  0  0  0  0  0  0  0
   19.2043   70.7461   -6.6004 O   0  0  0  0  0  0  0  0  0  0  0  0
   19.0385   71.9052   -9.3607 O   0  0  0  0  0  0  0  0  0  0  0  0
   16.8032   72.9053   -8.1609 O   0  0  0  0  0  0  0  0  0  0  0  0
   19.2110   72.5717   -8.1112 C   0  0  1  0  0  0  0  0  0  0  0  0
   17.9081   72.5874   -7.3394 C   0  0  2  0  0  0  0  0  0  0  0  0
   20.0923   71.6956   -7.2298 C   0  0  1  0  0  0  0  0  0  0  0  0
   17.8454   71.1691   -6.7983 C   0  0  2  0  0  0  0  0  0  0  0  0
   18.4791   72.4460   -9.9409 H   0  0  0  0  0  0  0  0  0  0  0  0
   16.8892   73.8171   -8.4801 H   0  0  0  0  0  0  0  0  0  0  0  0
   16.3040   68.9527   -5.9680 O   0  0  0  0  0  0  0  0  0  0  0  0
   15.2040   70.9799   -1.9778 O   0  0  0  0  0  0  0  0  0  0  0  0
   17.1457   71.0908   -5.5470 N   0  0  0  0  0  0  0  0  0  0  0  0
   15.7577   69.9638   -3.9818 N   0  0  0  0  0  0  0  0  0  0  0  0
   16.3991   69.9330   -5.2266 C   0  0  0  0  0  0  0  0  0  0  0  0
   17.2041   72.1540   -4.6526 C   0  0  0  0  0  0  0  0  0  0  0  0
   16.5856   72.1683   -3.4700 C   0  0  0  0  0  0  0  0  0  0  0  0
   15.7846   70.9973   -3.0588 C   0  0  0  0  0  0  0  0  0  0  0  0
   15.2313   69.1682   -3.7374 H   0  0  0  0  0  0  0  0  0  0  0  0
   21.1930   72.5983   -2.5669 O   0  0  0  0  0  0  0  0  0  0  0  0
   20.0804   72.1149   -1.4984 P   0  0  2  0  0  0  0  0  0  0  0  0
   19.5151   70.7442   -2.1458 O   0  0  0  0  0  0  0  0  0  0  0  0
   19.0253   73.1410   -1.2020 O   0  0  0  0  0  0  0  0  0  0  0  0
   20.9298   71.6380   -0.2116 O   0  0  0  0  0  0  0  0  0  0  0  0
   22.4597   72.9958    0.9852 O   0  0  0  0  0  0  0  0  0  0  0  0
   24.1576   69.3004    1.7008 O   0  0  0  0  0  0  0  0  0  0  0  0
   22.7841   70.6645    3.8222 O   0  0  0  0  0  0  0  0  0  0  0  0
   23.0134   69.8859   -0.8929 O   0  0  0  0  0  0  0  0  0  0  0  0
   23.0851   70.2229    1.4909 C   0  0  1  0  0  0  0  0  0  0  0  0
   23.1436   71.2847    2.5908 C   0  0  1  0  0  0  0  0  0  0  0  0
   23.2418   70.8657    0.1141 C   0  0  2  0  0  0  0  0  0  0  0  0
   22.1966   72.4527    2.2843 C   0  0  1  0  0  0  0  0  0  0  0  0
   22.2876   72.0472   -0.0695 C   0  0  1  0  0  0  0  0  0  0  0  0
   24.0638   68.8884    2.5731 H   0  0  0  0  0  0  0  0  0  0  0  0
   23.3895   69.9285    4.0038 H   0  0  0  0  0  0  0  0  0  0  0  0
   23.6237   69.1434   -0.7659 H   0  0  0  0  0  0  0  0  0  0  0  0
   21.5814   73.2961    4.4335 O   0  0  0  0  0  0  0  0  0  0  0  0
   22.3543   73.5949    3.2856 C   0  0  0  0  0  0  0  0  0  0  0  0
   21.6724   74.0143    5.0797 H   0  0  0  0  0  0  0  0  0  0  0  0
 25 28  1  0
 25 24  1  0
 25 26  1  6
 25 27  2  0
  1  4  1  0
  1 24  1  0
  1  2  1  6
  1  3  2  0
  6 11  1  0
  6 12  1  0
 29 36  1  0
 29 37  1  0
  9  7  1  6
  7 13  1  0
 10  8  1  6
  8 14  1  0
 37 28  1  1
  4  5  1  0
 33 30  1  1
 30 38  1  0
 34 31  1  1
 31 39  1  0
 35 32  1  6
 32 40  1  0
 41 42  1  0
 41 43  1  0
 15 19  2  0
 16 22  2  0
 12 17  1  1
 17 19  1  0
 17 20  1  0
 18 19  1  0
 18 22  1  0
 18 23  1  0
  9 10  1  0
  9 11  1  0
 10 12  1  0
 11  5  1  1
 33 34  1  0
 33 35  1  0
 34 36  1  0
 35 37  1  0
 36 42  1  1
 20 21  2  0
 21 22  1  0
M  CHG  2   2  -1  26  -1
M  END
>  <COMPND>  (131) 
    8629 

>  <AUTHOR>  (131) 
    GENERATED BY OPEN BABEL 3.1.1

>  <MASTER>  (131) 
        0    0    0    0    0    0    0    0   58    0   58    0

>  <minimizedAffinity>  (131) 
-7.05338

>  <CNNscore>  (131) 
0.3858852684

>  <CNNaffinity>  (131) 
3.9511387348

>  <CNN_VS>  (131) 
1.5246862173

>  <CNNaffinity_variance>  (131) 
0.3253856003

$$$$
132
     RDKit          3D

 43 45  0  0  0  0  0  0  0  0999 V2000
   20.1015   74.7657   -3.6727 P   0  0  2  0  0  0  0  0  0  0  0  0
   20.3690   75.6598   -2.3511 O   0  0  0  0  0  0  0  0  0  0  0  0
   20.4599   75.4291   -4.9699 O   0  0  0  0  0  0  0  0  0  0  0  0
   18.5583   74.3032   -3.5229 O   0  0  0  0  0  0  0  0  0  0  0  0
   18.2425   73.2988   -2.5745 C   0  0  0  0  0  0  0  0  0  0  0  0
   16.5031   72.9489   -4.1949 O   0  0  0  0  0  0  0  0  0  0  0  0
   15.1699   71.2445   -2.1193 O   0  0  0  0  0  0  0  0  0  0  0  0
   16.3210   69.3937   -3.7582 O   0  0  0  0  0  0  0  0  0  0  0  0
   16.5594   71.3986   -2.4035 C   0  0  1  0  0  0  0  0  0  0  0  0
   16.9180   70.6723   -3.6832 C   0  0  2  0  0  0  0  0  0  0  0  0
   16.8018   72.8536   -2.7849 C   0  0  1  0  0  0  0  0  0  0  0  0
   16.3939   71.6254   -4.7439 C   0  0  2  0  0  0  0  0  0  0  0  0
   14.9907   70.3230   -1.8728 H   0  0  0  0  0  0  0  0  0  0  0  0
   16.6872   68.8245   -3.0635 H   0  0  0  0  0  0  0  0  0  0  0  0
   15.9777   69.7182   -6.7853 O   0  0  0  0  0  0  0  0  0  0  0  0
   19.3665   71.4740   -9.3688 O   0  0  0  0  0  0  0  0  0  0  0  0
   17.1528   71.5613   -5.9610 N   0  0  0  0  0  0  0  0  0  0  0  0
   17.6653   70.5941   -8.0701 N   0  0  0  0  0  0  0  0  0  0  0  0
   16.8644   70.5638   -6.9213 C   0  0  0  0  0  0  0  0  0  0  0  0
   18.1698   72.4809   -6.1927 C   0  0  0  0  0  0  0  0  0  0  0  0
   18.9253   72.4955   -7.2928 C   0  0  0  0  0  0  0  0  0  0  0  0
   18.6888   71.4869   -8.3458 C   0  0  0  0  0  0  0  0  0  0  0  0
   17.4828   69.9084   -8.7529 H   0  0  0  0  0  0  0  0  0  0  0  0
   20.9198   73.4063   -3.3636 O   0  0  0  0  0  0  0  0  0  0  0  0
   22.4985   73.0726   -3.4597 P   0  0  2  0  0  0  0  0  0  0  0  0
   23.1878   74.3107   -2.6790 O   0  0  0  0  0  0  0  0  0  0  0  0
   23.0000   72.8671   -4.8598 O   0  0  0  0  0  0  0  0  0  0  0  0
   22.7086   71.8061   -2.4814 O   0  0  0  0  0  0  0  0  0  0  0  0
   23.3609   69.6066   -3.0758 O   0  0  0  0  0  0  0  0  0  0  0  0
   20.9012   68.7241    0.1213 O   0  0  0  0  0  0  0  0  0  0  0  0
   23.7462   68.4505    0.4032 O   0  0  0  0  0  0  0  0  0  0  0  0
   20.1860   70.8517   -1.7065 O   0  0  0  0  0  0  0  0  0  0  0  0
   21.8522   69.4963   -0.6167 C   0  0  1  0  0  0  0  0  0  0  0  0
   23.0934   68.6328   -0.8502 C   0  0  1  0  0  0  0  0  0  0  0  0
   21.2302   69.9148   -1.9476 C   0  0  2  0  0  0  0  0  0  0  0  0
   24.0453   69.2918   -1.8575 C   0  0  1  0  0  0  0  0  0  0  0  0
   22.2719   70.5138   -2.8943 C   0  0  1  0  0  0  0  0  0  0  0  0
   21.2898   68.4556    0.9678 H   0  0  0  0  0  0  0  0  0  0  0  0
   23.1342   68.0341    1.0303 H   0  0  0  0  0  0  0  0  0  0  0  0
   19.5329   70.4605   -1.1062 H   0  0  0  0  0  0  0  0  0  0  0  0
   25.7538   68.8133   -3.4579 O   0  0  0  0  0  0  0  0  0  0  0  0
   25.2119   68.3774   -2.2247 C   0  0  0  0  0  0  0  0  0  0  0  0
   26.4975   68.2407   -3.7040 H   0  0  0  0  0  0  0  0  0  0  0  0
 25 28  1  0
 25 24  1  0
 25 26  1  1
 25 27  2  0
  1  4  1  0
  1 24  1  0
  1  2  1  1
  1  3  2  0
  6 11  1  0
  6 12  1  0
 29 36  1  0
 29 37  1  0
  9  7  1  6
  7 13  1  0
 10  8  1  1
  8 14  1  0
 37 28  1  1
  4  5  1  0
 33 30  1  1
 30 38  1  0
 34 31  1  1
 31 39  1  0
 35 32  1  1
 32 40  1  0
 41 42  1  0
 41 43  1  0
 15 19  2  0
 16 22  2  0
 12 17  1  6
 17 19  1  0
 17 20  1  0
 18 19  1  0
 18 22  1  0
 18 23  1  0
  9 10  1  0
  9 11  1  0
 10 12  1  0
 11  5  1  6
 33 34  1  0
 33 35  1  0
 34 36  1  0
 35 37  1  0
 36 42  1  6
 20 21  2  0
 21 22  1  0
M  CHG  2   2  -1  26  -1
M  END
>  <COMPND>  (132) 
    8629 

>  <AUTHOR>  (132) 
    GENERATED BY OPEN BABEL 3.1.1

>  <MASTER>  (132) 
        0    0    0    0    0    0    0    0   58    0   58    0

>  <minimizedAffinity>  (132) 
-7.58308

>  <CNNscore>  (132) 
0.3529597819

>  <CNNaffinity>  (132) 
4.1098251343

>  <CNN_VS>  (132) 
1.4506030083

>  <CNNaffinity_variance>  (132) 
0.4023318887

$$$$
133
     RDKit          3D

 43 45  0  0  0  0  0  0  0  0999 V2000
   21.8472   73.5476   -6.1822 P   0  0  2  0  0  0  0  0  0  0  0  0
   22.6242   72.7925   -7.3837 O   0  0  0  0  0  0  0  0  0  0  0  0
   22.3152   74.9460   -5.9049 O   0  0  0  0  0  0  0  0  0  0  0  0
   21.9505   72.5132   -4.9424 O   0  0  0  0  0  0  0  0  0  0  0  0
   22.6037   72.9391   -3.7592 C   0  0  0  0  0  0  0  0  0  0  0  0
   21.3460   71.4568   -2.3468 O   0  0  0  0  0  0  0  0  0  0  0  0
   21.0953   73.7718   -0.4577 O   0  0  0  0  0  0  0  0  0  0  0  0
   23.0829   72.2900    0.6784 O   0  0  0  0  0  0  0  0  0  0  0  0
   22.1924   73.4025   -1.2916 C   0  0  1  0  0  0  0  0  0  0  0  0
   22.9038   72.1939   -0.7200 C   0  0  2  0  0  0  0  0  0  0  0  0
   21.6267   72.8518   -2.5947 C   0  0  1  0  0  0  0  0  0  0  0  0
   21.9690   71.0628   -1.1133 C   0  0  2  0  0  0  0  0  0  0  0  0
   21.4318   74.1267    0.3807 H   0  0  0  0  0  0  0  0  0  0  0  0
   23.6852   73.0237    0.8777 H   0  0  0  0  0  0  0  0  0  0  0  0
   21.4282   68.6783    0.3007 O   0  0  0  0  0  0  0  0  0  0  0  0
   24.7012   66.3685   -1.9782 O   0  0  0  0  0  0  0  0  0  0  0  0
   22.6643   69.8233   -1.3172 N   0  0  0  0  0  0  0  0  0  0  0  0
   23.0582   67.5301   -0.8353 N   0  0  0  0  0  0  0  0  0  0  0  0
   22.3163   68.6844   -0.5541 C   0  0  0  0  0  0  0  0  0  0  0  0
   23.6787   69.7457   -2.2654 C   0  0  0  0  0  0  0  0  0  0  0  0
   24.3775   68.6376   -2.5205 C   0  0  0  0  0  0  0  0  0  0  0  0
   24.0764   67.4033   -1.7669 C   0  0  0  0  0  0  0  0  0  0  0  0
   22.8335   66.7243   -0.3156 H   0  0  0  0  0  0  0  0  0  0  0  0
   20.2964   73.4322   -6.6233 O   0  0  0  0  0  0  0  0  0  0  0  0
   18.9401   73.8674   -5.8590 P   0  0  2  0  0  0  0  0  0  0  0  0
   17.9600   74.3125   -7.0668 O   0  0  0  0  0  0  0  0  0  0  0  0
   19.1382   74.9166   -4.8036 O   0  0  0  0  0  0  0  0  0  0  0  0
   18.3147   72.4822   -5.3160 O   0  0  0  0  0  0  0  0  0  0  0  0
   19.2864   70.3208   -5.3476 O   0  0  0  0  0  0  0  0  0  0  0  0
   15.3264   69.2716   -5.8652 O   0  0  0  0  0  0  0  0  0  0  0  0
   16.6134   68.7539   -3.3505 O   0  0  0  0  0  0  0  0  0  0  0  0
   16.3736   71.6397   -7.1592 O   0  0  0  0  0  0  0  0  0  0  0  0
   16.4121   70.0481   -5.3519 C   0  0  1  0  0  0  0  0  0  0  0  0
   17.3166   69.1251   -4.5328 C   0  0  1  0  0  0  0  0  0  0  0  0
   17.1841   70.6598   -6.5195 C   0  0  2  0  0  0  0  0  0  0  0  0
   18.6370   69.8198   -4.1733 C   0  0  1  0  0  0  0  0  0  0  0  0
   18.5042   71.2813   -6.0599 C   0  0  1  0  0  0  0  0  0  0  0  0
   14.8318   68.8807   -5.1289 H   0  0  0  0  0  0  0  0  0  0  0  0
   15.7815   68.3167   -3.5915 H   0  0  0  0  0  0  0  0  0  0  0  0
   15.5412   71.2337   -7.4457 H   0  0  0  0  0  0  0  0  0  0  0  0
   19.4174   68.9396   -2.0937 O   0  0  0  0  0  0  0  0  0  0  0  0
   19.6178   68.8671   -3.4933 C   0  0  0  0  0  0  0  0  0  0  0  0
   20.0347   68.3381   -1.6477 H   0  0  0  0  0  0  0  0  0  0  0  0
 25 28  1  0
 25 24  1  0
 25 26  1  6
 25 27  2  0
  1  4  1  0
  1 24  1  0
  1  2  1  6
  1  3  2  0
  6 11  1  0
  6 12  1  0
 29 36  1  0
 29 37  1  0
  9  7  1  1
  7 13  1  0
 10  8  1  1
  8 14  1  0
 37 28  1  1
  4  5  1  0
 33 30  1  6
 30 38  1  0
 34 31  1  1
 31 39  1  0
 35 32  1  1
 32 40  1  0
 41 42  1  0
 41 43  1  0
 15 19  2  0
 16 22  2  0
 12 17  1  6
 17 19  1  0
 17 20  1  0
 18 19  1  0
 18 22  1  0
 18 23  1  0
  9 10  1  0
  9 11  1  0
 10 12  1  0
 11  5  1  6
 33 34  1  0
 33 35  1  0
 34 36  1  0
 35 37  1  0
 36 42  1  6
 20 21  2  0
 21 22  1  0
M  CHG  2   2  -1  26  -1
M  END
>  <COMPND>  (133) 
    8629 

>  <AUTHOR>  (133) 
    GENERATED BY OPEN BABEL 3.1.1

>  <MASTER>  (133) 
        0    0    0    0    0    0    0    0   58    0   58    0

>  <minimizedAffinity>  (133) 
-8.09855

>  <CNNscore>  (133) 
0.3396544456

>  <CNNaffinity>  (133) 
3.9823997021

>  <CNN_VS>  (133) 
1.3526397943

>  <CNNaffinity_variance>  (133) 
0.9615354538

$$$$
134
     RDKit          3D

 43 45  0  0  0  0  0  0  0  0999 V2000
   22.7672   73.2791   -3.3935 P   0  0  2  0  0  0  0  0  0  0  0  0
   23.9807   72.6390   -4.2509 O   0  0  0  0  0  0  0  0  0  0  0  0
   23.0609   74.6168   -2.7805 O   0  0  0  0  0  0  0  0  0  0  0  0
   22.3625   72.1047   -2.3567 O   0  0  0  0  0  0  0  0  0  0  0  0
   22.7522   72.2360   -1.0007 C   0  0  0  0  0  0  0  0  0  0  0  0
   21.9511   69.9738   -0.8798 O   0  0  0  0  0  0  0  0  0  0  0  0
   21.6293   70.4432    2.0641 O   0  0  0  0  0  0  0  0  0  0  0  0
   23.9614   69.0354    1.9381 O   0  0  0  0  0  0  0  0  0  0  0  0
   22.6372   70.9276    1.1782 C   0  0  1  0  0  0  0  0  0  0  0  0
   23.5984   69.8145    0.8165 C   0  0  2  0  0  0  0  0  0  0  0  0
   21.9787   71.2273   -0.1627 C   0  0  1  0  0  0  0  0  0  0  0  0
   22.7985   69.0277   -0.2077 C   0  0  2  0  0  0  0  0  0  0  0  0
   22.0260   70.2451    2.9275 H   0  0  0  0  0  0  0  0  0  0  0  0
   24.4683   69.5803    2.5602 H   0  0  0  0  0  0  0  0  0  0  0  0
   23.1274   66.2305   -0.4203 O   0  0  0  0  0  0  0  0  0  0  0  0
   26.0400   66.6583   -3.9663 O   0  0  0  0  0  0  0  0  0  0  0  0
   23.6364   68.3809   -1.1777 N   0  0  0  0  0  0  0  0  0  0  0  0
   24.5772   66.4458   -2.1859 N   0  0  0  0  0  0  0  0  0  0  0  0
   23.7326   66.9700   -1.1991 C   0  0  0  0  0  0  0  0  0  0  0  0
   24.3515   69.1439   -2.0944 C   0  0  0  0  0  0  0  0  0  0  0  0
   25.1537   68.6286   -3.0284 C   0  0  0  0  0  0  0  0  0  0  0  0
   25.3099   67.1625   -3.1187 C   0  0  0  0  0  0  0  0  0  0  0  0
   24.6601   65.4651   -2.2196 H   0  0  0  0  0  0  0  0  0  0  0  0
   21.5386   73.2756   -4.4440 O   0  0  0  0  0  0  0  0  0  0  0  0
   20.0593   73.9203   -4.3495 P   0  0  2  0  0  0  0  0  0  0  0  0
   20.2452   75.3769   -5.0287 O   0  0  0  0  0  0  0  0  0  0  0  0
   19.4898   73.9528   -2.9608 O   0  0  0  0  0  0  0  0  0  0  0  0
   19.1803   73.0835   -5.4135 O   0  0  0  0  0  0  0  0  0  0  0  0
   18.9039   70.7315   -5.5049 O   0  0  0  0  0  0  0  0  0  0  0  0
   18.6238   71.5859   -9.5351 O   0  0  0  0  0  0  0  0  0  0  0  0
   16.2663   70.8327   -8.0781 O   0  0  0  0  0  0  0  0  0  0  0  0
   20.5141   73.0256   -7.8818 O   0  0  0  0  0  0  0  0  0  0  0  0
   18.4418   71.8248   -8.1368 C   0  0  1  0  0  0  0  0  0  0  0  0
   17.5877   70.6922   -7.5639 C   0  0  1  0  0  0  0  0  0  0  0  0
   19.8083   71.8653   -7.4553 C   0  0  2  0  0  0  0  0  0  0  0  0
   17.5712   70.7322   -6.0299 C   0  0  1  0  0  0  0  0  0  0  0  0
   19.6799   71.8532   -5.9310 C   0  0  1  0  0  0  0  0  0  0  0  0
   17.7599   71.5595   -9.9738 H   0  0  0  0  0  0  0  0  0  0  0  0
   16.2908   70.8062   -9.0476 H   0  0  0  0  0  0  0  0  0  0  0  0
   20.5890   73.0214   -8.8484 H   0  0  0  0  0  0  0  0  0  0  0  0
   15.4750   69.6266   -5.7257 O   0  0  0  0  0  0  0  0  0  0  0  0
   16.8563   69.5216   -5.4338 C   0  0  0  0  0  0  0  0  0  0  0  0
   15.0072   68.8626   -5.3527 H   0  0  0  0  0  0  0  0  0  0  0  0
 25 28  1  0
 25 24  1  0
 25 26  1  6
 25 27  2  0
  1  4  1  0
  1 24  1  0
  1  2  1  6
  1  3  2  0
  6 11  1  0
  6 12  1  0
 29 36  1  0
 29 37  1  0
  9  7  1  1
  7 13  1  0
 10  8  1  1
  8 14  1  0
 37 28  1  6
  4  5  1  0
 33 30  1  6
 30 38  1  0
 34 31  1  6
 31 39  1  0
 35 32  1  1
 32 40  1  0
 41 42  1  0
 41 43  1  0
 15 19  2  0
 16 22  2  0
 12 17  1  6
 17 19  1  0
 17 20  1  0
 18 19  1  0
 18 22  1  0
 18 23  1  0
  9 10  1  0
  9 11  1  0
 10 12  1  0
 11  5  1  6
 33 34  1  0
 33 35  1  0
 34 36  1  0
 35 37  1  0
 36 42  1  1
 20 21  2  0
 21 22  1  0
M  CHG  2   2  -1  26  -1
M  END
>  <COMPND>  (134) 
    8629 

>  <AUTHOR>  (134) 
    GENERATED BY OPEN BABEL 3.1.1

>  <MASTER>  (134) 
        0    0    0    0    0    0    0    0   58    0   58    0

>  <minimizedAffinity>  (134) 
-8.73423

>  <CNNscore>  (134) 
0.3395453393

>  <CNNaffinity>  (134) 
4.1263651848

>  <CNN_VS>  (134) 
1.4010881186

>  <CNNaffinity_variance>  (134) 
0.7097270489

$$$$
135
     RDKit          3D

 43 45  0  0  0  0  0  0  0  0999 V2000
   19.0583   69.8360   -3.1544 P   0  0  2  0  0  0  0  0  0  0  0  0
   18.6793   71.2028   -2.3762 O   0  0  0  0  0  0  0  0  0  0  0  0
   18.8103   68.5756   -2.3789 O   0  0  0  0  0  0  0  0  0  0  0  0
   20.5837   70.0746   -3.6382 O   0  0  0  0  0  0  0  0  0  0  0  0
   21.4344   70.8657   -2.8268 C   0  0  0  0  0  0  0  0  0  0  0  0
   23.5229   70.8169   -1.6396 O   0  0  0  0  0  0  0  0  0  0  0  0
   23.8623   68.0436   -2.7278 O   0  0  0  0  0  0  0  0  0  0  0  0
   23.0231   67.5817   -0.1745 O   0  0  0  0  0  0  0  0  0  0  0  0
   22.6729   68.7062   -2.3015 C   0  0  1  0  0  0  0  0  0  0  0  0
   22.6316   68.7919   -0.7901 C   0  0  2  0  0  0  0  0  0  0  0  0
   22.7841   70.1725   -2.7003 C   0  0  1  0  0  0  0  0  0  0  0  0
   23.6001   69.9290   -0.5124 C   0  0  2  0  0  0  0  0  0  0  0  0
   23.8144   67.1053   -2.4843 H   0  0  0  0  0  0  0  0  0  0  0  0
   22.3755   66.8896   -0.3808 H   0  0  0  0  0  0  0  0  0  0  0  0
   24.0047   68.9688    2.1129 O   0  0  0  0  0  0  0  0  0  0  0  0
   22.2680   72.8076    3.9808 O   0  0  0  0  0  0  0  0  0  0  0  0
   23.2632   70.6569    0.6785 N   0  0  0  0  0  0  0  0  0  0  0  0
   23.1398   70.8811    3.0409 N   0  0  0  0  0  0  0  0  0  0  0  0
   23.5062   70.0842    1.9487 C   0  0  0  0  0  0  0  0  0  0  0  0
   22.6987   71.9240    0.5798 C   0  0  0  0  0  0  0  0  0  0  0  0
   22.3538   72.6704    1.6311 C   0  0  0  0  0  0  0  0  0  0  0  0
   22.5745   72.1456    2.9941 C   0  0  0  0  0  0  0  0  0  0  0  0
   23.2995   70.5026    3.9359 H   0  0  0  0  0  0  0  0  0  0  0  0
   18.2178   69.9558   -4.5300 O   0  0  0  0  0  0  0  0  0  0  0  0
   16.6500   69.7141   -4.8405 P   0  0  2  0  0  0  0  0  0  0  0  0
   15.9530   69.8914   -3.3913 O   0  0  0  0  0  0  0  0  0  0  0  0
   16.3508   68.4071   -5.5159 O   0  0  0  0  0  0  0  0  0  0  0  0
   16.1931   71.0181   -5.6748 O   0  0  0  0  0  0  0  0  0  0  0  0
   17.8339   72.6118   -6.2949 O   0  0  0  0  0  0  0  0  0  0  0  0
   14.4602   74.9664   -6.6485 O   0  0  0  0  0  0  0  0  0  0  0  0
   15.8240   74.0784   -9.0149 O   0  0  0  0  0  0  0  0  0  0  0  0
   14.6636   73.0499   -4.4886 O   0  0  0  0  0  0  0  0  0  0  0  0
   15.2179   73.7557   -6.7237 C   0  0  1  0  0  0  0  0  0  0  0  0
   16.3724   73.9726   -7.7040 C   0  0  1  0  0  0  0  0  0  0  0  0
   15.7502   73.4129   -5.3336 C   0  0  2  0  0  0  0  0  0  0  0  0
   17.3799   72.8169   -7.6378 C   0  0  1  0  0  0  0  0  0  0  0  0
   16.7811   72.2839   -5.3861 C   0  0  1  0  0  0  0  0  0  0  0  0
   14.1190   75.1894   -7.5279 H   0  0  0  0  0  0  0  0  0  0  0  0
   15.1892   74.8115   -9.0429 H   0  0  0  0  0  0  0  0  0  0  0  0
   14.0182   73.7729   -4.4635 H   0  0  0  0  0  0  0  0  0  0  0  0
   18.8553   74.4830   -8.5074 O   0  0  0  0  0  0  0  0  0  0  0  0
   18.6174   73.0875   -8.4907 C   0  0  0  0  0  0  0  0  0  0  0  0
   19.6404   74.6701   -9.0463 H   0  0  0  0  0  0  0  0  0  0  0  0
 25 28  1  0
 25 24  1  0
 25 26  1  1
 25 27  2  0
  1  4  1  0
  1 24  1  0
  1  2  1  1
  1  3  2  0
  6 11  1  0
  6 12  1  0
 29 36  1  0
 29 37  1  0
  9  7  1  1
  7 13  1  0
 10  8  1  1
  8 14  1  0
 37 28  1  6
  4  5  1  0
 33 30  1  1
 30 38  1  0
 34 31  1  6
 31 39  1  0
 35 32  1  1
 32 40  1  0
 41 42  1  0
 41 43  1  0
 15 19  2  0
 16 22  2  0
 12 17  1  1
 17 19  1  0
 17 20  1  0
 18 19  1  0
 18 22  1  0
 18 23  1  0
  9 10  1  0
  9 11  1  0
 10 12  1  0
 11  5  1  1
 33 34  1  0
 33 35  1  0
 34 36  1  0
 35 37  1  0
 36 42  1  6
 20 21  2  0
 21 22  1  0
M  CHG  2   2  -1  26  -1
M  END
>  <COMPND>  (135) 
    8629 

>  <AUTHOR>  (135) 
    GENERATED BY OPEN BABEL 3.1.1

>  <MASTER>  (135) 
        0    0    0    0    0    0    0    0   58    0   58    0

>  <minimizedAffinity>  (135) 
-7.84184

>  <CNNscore>  (135) 
0.3238800466

>  <CNNaffinity>  (135) 
4.0885858536

>  <CNN_VS>  (135) 
1.3242113590

>  <CNNaffinity_variance>  (135) 
0.0741077587

$$$$
136
     RDKit          3D

 43 45  0  0  0  0  0  0  0  0999 V2000
   22.0711   72.6445   -3.8568 P   0  0  2  0  0  0  0  0  0  0  0  0
   23.3682   72.8857   -4.7932 O   0  0  0  0  0  0  0  0  0  0  0  0
   21.3839   73.8946   -3.3918 O   0  0  0  0  0  0  0  0  0  0  0  0
   22.6121   71.6641   -2.6889 O   0  0  0  0  0  0  0  0  0  0  0  0
   22.5537   72.1149   -1.3468 C   0  0  0  0  0  0  0  0  0  0  0  0
   21.8753   69.8155   -1.1837 O   0  0  0  0  0  0  0  0  0  0  0  0
   21.3708   70.3652    1.7204 O   0  0  0  0  0  0  0  0  0  0  0  0
   23.7815   69.0913    1.7666 O   0  0  0  0  0  0  0  0  0  0  0  0
   22.3959   70.8767    0.8702 C   0  0  1  0  0  0  0  0  0  0  0  0
   23.4359   69.8095    0.5998 C   0  0  2  0  0  0  0  0  0  0  0  0
   21.7942   71.0922   -0.5129 C   0  0  1  0  0  0  0  0  0  0  0  0
   22.7371   68.9434   -0.4344 C   0  0  2  0  0  0  0  0  0  0  0  0
   21.7312   70.2198    2.6098 H   0  0  0  0  0  0  0  0  0  0  0  0
   24.2231   69.6854    2.3933 H   0  0  0  0  0  0  0  0  0  0  0  0
   23.2118   66.1613   -0.5459 O   0  0  0  0  0  0  0  0  0  0  0  0
   26.3036   66.6393   -3.9303 O   0  0  0  0  0  0  0  0  0  0  0  0
   23.6606   68.3136   -1.3355 N   0  0  0  0  0  0  0  0  0  0  0  0
   24.7508   66.4016   -2.2311 N   0  0  0  0  0  0  0  0  0  0  0  0
   23.8255   66.9091   -1.3101 C   0  0  0  0  0  0  0  0  0  0  0  0
   24.3908   69.0866   -2.2317 C   0  0  0  0  0  0  0  0  0  0  0  0
   25.2702   68.5874   -3.1027 C   0  0  0  0  0  0  0  0  0  0  0  0
   25.5016   67.1289   -3.1410 C   0  0  0  0  0  0  0  0  0  0  0  0
   24.8825   65.4257   -2.2313 H   0  0  0  0  0  0  0  0  0  0  0  0
   21.1509   71.6656   -4.7557 O   0  0  0  0  0  0  0  0  0  0  0  0
   19.7311   70.9594   -4.4422 P   0  0  2  0  0  0  0  0  0  0  0  0
   19.2738   71.6472   -3.0510 O   0  0  0  0  0  0  0  0  0  0  0  0
   19.7851   69.4596   -4.4031 O   0  0  0  0  0  0  0  0  0  0  0  0
   18.7215   71.5638   -5.5468 O   0  0  0  0  0  0  0  0  0  0  0  0
   16.5371   71.1292   -4.7368 O   0  0  0  0  0  0  0  0  0  0  0  0
   15.5643   72.9829   -8.2961 O   0  0  0  0  0  0  0  0  0  0  0  0
   15.1590   74.3734   -5.8160 O   0  0  0  0  0  0  0  0  0  0  0  0
   17.8254   71.1793   -8.1783 O   0  0  0  0  0  0  0  0  0  0  0  0
   16.3403   72.7510   -7.1173 C   0  0  1  0  0  0  0  0  0  0  0  0
   15.4427   72.9795   -5.8996 C   0  0  1  0  0  0  0  0  0  0  0  0
   16.8630   71.3159   -7.1382 C   0  0  2  0  0  0  0  0  0  0  0  0
   16.1220   72.4944   -4.6118 C   0  0  1  0  0  0  0  0  0  0  0  0
   17.4751   70.9181   -5.7939 C   0  0  1  0  0  0  0  0  0  0  0  0
   15.2298   73.8926   -8.2892 H   0  0  0  0  0  0  0  0  0  0  0  0
   14.7307   74.6671   -6.6355 H   0  0  0  0  0  0  0  0  0  0  0  0
   17.4256   71.4338   -9.0240 H   0  0  0  0  0  0  0  0  0  0  0  0
   15.9632   72.5009   -2.2278 O   0  0  0  0  0  0  0  0  0  0  0  0
   15.1847   72.5672   -3.4084 C   0  0  0  0  0  0  0  0  0  0  0  0
   15.3799   72.5465   -1.4536 H   0  0  0  0  0  0  0  0  0  0  0  0
 25 28  1  0
 25 24  1  0
 25 26  1  1
 25 27  2  0
  1  4  1  0
  1 24  1  0
  1  2  1  6
  1  3  2  0
  6 11  1  0
  6 12  1  0
 29 36  1  0
 29 37  1  0
  9  7  1  1
  7 13  1  0
 10  8  1  1
  8 14  1  0
 37 28  1  1
  4  5  1  0
 33 30  1  6
 30 38  1  0
 34 31  1  1
 31 39  1  0
 35 32  1  6
 32 40  1  0
 41 42  1  0
 41 43  1  0
 15 19  2  0
 16 22  2  0
 12 17  1  6
 17 19  1  0
 17 20  1  0
 18 19  1  0
 18 22  1  0
 18 23  1  0
  9 10  1  0
  9 11  1  0
 10 12  1  0
 11  5  1  6
 33 34  1  0
 33 35  1  0
 34 36  1  0
 35 37  1  0
 36 42  1  1
 20 21  2  0
 21 22  1  0
M  CHG  2   2  -1  26  -1
M  END
>  <COMPND>  (136) 
    8629 

>  <AUTHOR>  (136) 
    GENERATED BY OPEN BABEL 3.1.1

>  <MASTER>  (136) 
        0    0    0    0    0    0    0    0   58    0   58    0

>  <minimizedAffinity>  (136) 
-8.15563

>  <CNNscore>  (136) 
0.3114848137

>  <CNNaffinity>  (136) 
4.1024961472

>  <CNN_VS>  (136) 
1.2778652906

>  <CNNaffinity_variance>  (136) 
0.2922670245

$$$$
137
     RDKit          3D

 43 45  0  0  0  0  0  0  0  0999 V2000
   22.0819   72.7495   -3.6312 P   0  0  2  0  0  0  0  0  0  0  0  0
   23.3301   72.9757   -4.6353 O   0  0  0  0  0  0  0  0  0  0  0  0
   21.4670   74.0071   -3.0910 O   0  0  0  0  0  0  0  0  0  0  0  0
   22.6550   71.7165   -2.5256 O   0  0  0  0  0  0  0  0  0  0  0  0
   22.6838   72.1251   -1.1692 C   0  0  0  0  0  0  0  0  0  0  0  0
   21.9513   69.8415   -1.0204 O   0  0  0  0  0  0  0  0  0  0  0  0
   21.5422   70.3594    1.9045 O   0  0  0  0  0  0  0  0  0  0  0  0
   23.9197   69.0244    1.8641 O   0  0  0  0  0  0  0  0  0  0  0  0
   22.5560   70.8577    1.0332 C   0  0  1  0  0  0  0  0  0  0  0  0
   23.5603   69.7689    0.7181 C   0  0  2  0  0  0  0  0  0  0  0  0
   21.9218   71.1094   -0.3291 C   0  0  1  0  0  0  0  0  0  0  0  0
   22.8110   68.9365   -0.3085 C   0  0  2  0  0  0  0  0  0  0  0  0
   21.9234   70.1915    2.7811 H   0  0  0  0  0  0  0  0  0  0  0  0
   24.3937   69.5976    2.4867 H   0  0  0  0  0  0  0  0  0  0  0  0
   23.2129   66.1455   -0.4719 O   0  0  0  0  0  0  0  0  0  0  0  0
   26.2183   66.5966   -3.9367 O   0  0  0  0  0  0  0  0  0  0  0  0
   23.6926   68.2974   -1.2442 N   0  0  0  0  0  0  0  0  0  0  0  0
   24.7089   66.3724   -2.1971 N   0  0  0  0  0  0  0  0  0  0  0  0
   23.8231   66.8891   -1.2429 C   0  0  0  0  0  0  0  0  0  0  0  0
   24.4161   69.0652   -2.1503 C   0  0  0  0  0  0  0  0  0  0  0  0
   25.2577   68.5572   -3.0530 C   0  0  0  0  0  0  0  0  0  0  0  0
   25.4515   67.0943   -3.1180 C   0  0  0  0  0  0  0  0  0  0  0  0
   24.8162   65.3937   -2.2145 H   0  0  0  0  0  0  0  0  0  0  0  0
   21.0773   71.8296   -4.5016 O   0  0  0  0  0  0  0  0  0  0  0  0
   19.6753   71.1260   -4.1114 P   0  0  2  0  0  0  0  0  0  0  0  0
   19.5096   71.4751   -2.5404 O   0  0  0  0  0  0  0  0  0  0  0  0
   19.6128   69.6602   -4.4300 O   0  0  0  0  0  0  0  0  0  0  0  0
   18.5510   72.0192   -4.8483 O   0  0  0  0  0  0  0  0  0  0  0  0
   19.2618   72.7905   -6.9735 O   0  0  0  0  0  0  0  0  0  0  0  0
   15.8358   75.0583   -6.5606 O   0  0  0  0  0  0  0  0  0  0  0  0
   15.8722   72.8699   -8.4201 O   0  0  0  0  0  0  0  0  0  0  0  0
   17.5269   74.5657   -4.2634 O   0  0  0  0  0  0  0  0  0  0  0  0
   16.6558   73.8966   -6.4070 C   0  0  1  0  0  0  0  0  0  0  0  0
   17.0425   73.3950   -7.7997 C   0  0  1  0  0  0  0  0  0  0  0  0
   17.9012   74.2674   -5.6041 C   0  0  2  0  0  0  0  0  0  0  0  0
   18.1327   72.3181   -7.7177 C   0  0  1  0  0  0  0  0  0  0  0  0
   18.9424   73.1469   -5.6271 C   0  0  1  0  0  0  0  0  0  0  0  0
   15.0430   74.8295   -7.0692 H   0  0  0  0  0  0  0  0  0  0  0  0
   15.1914   73.5597   -8.4653 H   0  0  0  0  0  0  0  0  0  0  0  0
   16.8677   75.2766   -4.2624 H   0  0  0  0  0  0  0  0  0  0  0  0
   19.2779   70.6545   -8.9944 O   0  0  0  0  0  0  0  0  0  0  0  0
   18.6453   71.9167   -9.0991 C   0  0  0  0  0  0  0  0  0  0  0  0
   19.6088   70.3861   -9.8663 H   0  0  0  0  0  0  0  0  0  0  0  0
 25 28  1  0
 25 24  1  0
 25 26  1  1
 25 27  2  0
  1  4  1  0
  1 24  1  0
  1  2  1  6
  1  3  2  0
  6 11  1  0
  6 12  1  0
 29 36  1  0
 29 37  1  0
  9  7  1  1
  7 13  1  0
 10  8  1  1
  8 14  1  0
 37 28  1  1
  4  5  1  0
 33 30  1  6
 30 38  1  0
 34 31  1  1
 31 39  1  0
 35 32  1  1
 32 40  1  0
 41 42  1  0
 41 43  1  0
 15 19  2  0
 16 22  2  0
 12 17  1  6
 17 19  1  0
 17 20  1  0
 18 19  1  0
 18 22  1  0
 18 23  1  0
  9 10  1  0
  9 11  1  0
 10 12  1  0
 11  5  1  6
 33 34  1  0
 33 35  1  0
 34 36  1  0
 35 37  1  0
 36 42  1  6
 20 21  2  0
 21 22  1  0
M  CHG  2   2  -1  26  -1
M  END
>  <COMPND>  (137) 
    8629 

>  <AUTHOR>  (137) 
    GENERATED BY OPEN BABEL 3.1.1

>  <MASTER>  (137) 
        0    0    0    0    0    0    0    0   58    0   58    0

>  <minimizedAffinity>  (137) 
-7.68552

>  <CNNscore>  (137) 
0.3064337373

>  <CNNaffinity>  (137) 
4.1842164993

>  <CNN_VS>  (137) 
1.2821850777

>  <CNNaffinity_variance>  (137) 
0.1373336166

$$$$
138
     RDKit          3D

 43 45  0  0  0  0  0  0  0  0999 V2000
   22.7242   72.7938   -3.5659 P   0  0  2  0  0  0  0  0  0  0  0  0
   22.6404   71.2131   -3.9004 O   0  0  0  0  0  0  0  0  0  0  0  0
   24.0657   73.4220   -3.8051 O   0  0  0  0  0  0  0  0  0  0  0  0
   22.1575   72.9015   -2.0542 O   0  0  0  0  0  0  0  0  0  0  0  0
   22.9182   72.3293   -1.0046 C   0  0  0  0  0  0  0  0  0  0  0  0
   22.0175   70.1017   -0.9932 O   0  0  0  0  0  0  0  0  0  0  0  0
   21.5147   70.5210    1.9329 O   0  0  0  0  0  0  0  0  0  0  0  0
   23.7895   69.0171    1.9302 O   0  0  0  0  0  0  0  0  0  0  0  0
   22.6001   70.9804    1.1290 C   0  0  1  0  0  0  0  0  0  0  0  0
   23.5368   69.8351    0.8060 C   0  0  2  0  0  0  0  0  0  0  0  0
   22.0479   71.3371   -0.2455 C   0  0  1  0  0  0  0  0  0  0  0  0
   22.7768   69.1057   -0.2888 C   0  0  2  0  0  0  0  0  0  0  0  0
   21.8427   70.2875    2.8159 H   0  0  0  0  0  0  0  0  0  0  0  0
   24.2747   69.5261    2.5981 H   0  0  0  0  0  0  0  0  0  0  0  0
   23.0907   66.3043   -0.4657 O   0  0  0  0  0  0  0  0  0  0  0  0
   26.1623   66.6802   -3.8811 O   0  0  0  0  0  0  0  0  0  0  0  0
   23.6516   68.4444   -1.2155 N   0  0  0  0  0  0  0  0  0  0  0  0
   24.6197   66.4937   -2.1663 N   0  0  0  0  0  0  0  0  0  0  0  0
   23.7365   67.0326   -1.2221 C   0  0  0  0  0  0  0  0  0  0  0  0
   24.4135   69.1942   -2.1050 C   0  0  0  0  0  0  0  0  0  0  0  0
   25.2521   68.6651   -2.9983 C   0  0  0  0  0  0  0  0  0  0  0  0
   25.3995   67.1971   -3.0707 C   0  0  0  0  0  0  0  0  0  0  0  0
   24.6956   65.5122   -2.1890 H   0  0  0  0  0  0  0  0  0  0  0  0
   21.5225   73.4165   -4.4497 O   0  0  0  0  0  0  0  0  0  0  0  0
   21.4122   73.7082   -6.0358 P   0  0  2  0  0  0  0  0  0  0  0  0
   22.6471   72.8659   -6.6547 O   0  0  0  0  0  0  0  0  0  0  0  0
   21.4152   75.1659   -6.3951 O   0  0  0  0  0  0  0  0  0  0  0  0
   20.0940   72.9055   -6.5081 O   0  0  0  0  0  0  0  0  0  0  0  0
   19.0973   70.9177   -5.6884 O   0  0  0  0  0  0  0  0  0  0  0  0
   18.4712   70.3516   -9.7305 O   0  0  0  0  0  0  0  0  0  0  0  0
   16.2526   71.0129   -8.0309 O   0  0  0  0  0  0  0  0  0  0  0  0
   20.9452   71.5354   -8.8044 O   0  0  0  0  0  0  0  0  0  0  0  0
   18.5909   71.1107   -8.5243 C   0  0  1  0  0  0  0  0  0  0  0  0
   17.5298   70.6163   -7.5392 C   0  0  1  0  0  0  0  0  0  0  0  0
   19.9921   70.9148   -7.9483 C   0  0  2  0  0  0  0  0  0  0  0  0
   17.7648   71.1925   -6.1364 C   0  0  1  0  0  0  0  0  0  0  0  0
   20.1045   71.4806   -6.5315 C   0  0  1  0  0  0  0  0  0  0  0  0
   17.5839   70.4720  -10.1016 H   0  0  0  0  0  0  0  0  0  0  0  0
   16.1169   70.6429   -8.9174 H   0  0  0  0  0  0  0  0  0  0  0  0
   20.8641   71.1685   -9.6981 H   0  0  0  0  0  0  0  0  0  0  0  0
   15.6337   71.3713   -5.0711 O   0  0  0  0  0  0  0  0  0  0  0  0
   16.8141   70.5904   -5.1041 C   0  0  0  0  0  0  0  0  0  0  0  0
   15.0190   70.9996   -4.4185 H   0  0  0  0  0  0  0  0  0  0  0  0
 25 28  1  0
 25 24  1  0
 25 26  1  6
 25 27  2  0
  1  4  1  0
  1 24  1  0
  1  2  1  6
  1  3  2  0
  6 11  1  0
  6 12  1  0
 29 36  1  0
 29 37  1  0
  9  7  1  1
  7 13  1  0
 10  8  1  1
  8 14  1  0
 37 28  1  6
  4  5  1  0
 33 30  1  6
 30 38  1  0
 34 31  1  6
 31 39  1  0
 35 32  1  6
 32 40  1  0
 41 42  1  0
 41 43  1  0
 15 19  2  0
 16 22  2  0
 12 17  1  6
 17 19  1  0
 17 20  1  0
 18 19  1  0
 18 22  1  0
 18 23  1  0
  9 10  1  0
  9 11  1  0
 10 12  1  0
 11  5  1  6
 33 34  1  0
 33 35  1  0
 34 36  1  0
 35 37  1  0
 36 42  1  1
 20 21  2  0
 21 22  1  0
M  CHG  2   2  -1  26  -1
M  END
>  <COMPND>  (138) 
    8629 

>  <AUTHOR>  (138) 
    GENERATED BY OPEN BABEL 3.1.1

>  <MASTER>  (138) 
        0    0    0    0    0    0    0    0   58    0   58    0

>  <minimizedAffinity>  (138) 
-9.10971

>  <CNNscore>  (138) 
0.2897935808

>  <CNNaffinity>  (138) 
4.1357417107

>  <CNN_VS>  (138) 
1.1985113621

>  <CNNaffinity_variance>  (138) 
0.5978776813

$$$$
139
     RDKit          3D

 43 45  0  0  0  0  0  0  0  0999 V2000
   20.5431   69.3954   -1.8173 P   0  0  2  0  0  0  0  0  0  0  0  0
   21.8002   68.7873   -2.6344 O   0  0  0  0  0  0  0  0  0  0  0  0
   20.6515   69.2990   -0.3239 O   0  0  0  0  0  0  0  0  0  0  0  0
   19.2601   68.6633   -2.4774 O   0  0  0  0  0  0  0  0  0  0  0  0
   18.8441   69.0646   -3.7711 C   0  0  0  0  0  0  0  0  0  0  0  0
   17.0773   70.6931   -3.7747 O   0  0  0  0  0  0  0  0  0  0  0  0
   15.2803   68.4665   -4.6713 O   0  0  0  0  0  0  0  0  0  0  0  0
   15.7786   69.8010   -6.9966 O   0  0  0  0  0  0  0  0  0  0  0  0
   16.6458   68.7129   -5.0028 C   0  0  1  0  0  0  0  0  0  0  0  0
   16.7506   69.8708   -5.9733 C   0  0  2  0  0  0  0  0  0  0  0  0
   17.3357   69.2720   -3.7648 C   0  0  1  0  0  0  0  0  0  0  0  0
   16.5517   71.0675   -5.0587 C   0  0  2  0  0  0  0  0  0  0  0  0
   14.8190   68.1085   -5.4465 H   0  0  0  0  0  0  0  0  0  0  0  0
   15.9480   69.0235   -7.5512 H   0  0  0  0  0  0  0  0  0  0  0  0
   15.6229   72.7608   -7.1197 O   0  0  0  0  0  0  0  0  0  0  0  0
   19.3011   75.5151   -6.7644 O   0  0  0  0  0  0  0  0  0  0  0  0
   17.2464   72.2344   -5.5247 N   0  0  0  0  0  0  0  0  0  0  0  0
   17.4550   74.1309   -6.9410 N   0  0  0  0  0  0  0  0  0  0  0  0
   16.6942   73.0162   -6.5659 C   0  0  0  0  0  0  0  0  0  0  0  0
   18.4610   72.5932   -4.9504 C   0  0  0  0  0  0  0  0  0  0  0  0
   19.1748   73.6586   -5.3204 C   0  0  0  0  0  0  0  0  0  0  0  0
   18.6682   74.5284   -6.4015 C   0  0  0  0  0  0  0  0  0  0  0  0
   17.0902   74.6902   -7.6648 H   0  0  0  0  0  0  0  0  0  0  0  0
   20.4341   70.9038   -2.3880 O   0  0  0  0  0  0  0  0  0  0  0  0
   21.2251   72.2531   -1.9794 P   0  0  2  0  0  0  0  0  0  0  0  0
   20.0409   73.3440   -1.8212 O   0  0  0  0  0  0  0  0  0  0  0  0
   22.3064   72.6482   -2.9431 O   0  0  0  0  0  0  0  0  0  0  0  0
   21.7373   71.9859   -0.4723 O   0  0  0  0  0  0  0  0  0  0  0  0
   23.2776   73.2389    0.8215 O   0  0  0  0  0  0  0  0  0  0  0  0
   24.1881   69.4529    2.1954 O   0  0  0  0  0  0  0  0  0  0  0  0
   22.7628   71.2744    3.8980 O   0  0  0  0  0  0  0  0  0  0  0  0
   23.5684   69.8634   -0.6022 O   0  0  0  0  0  0  0  0  0  0  0  0
   23.3341   70.4927    1.7109 C   0  0  1  0  0  0  0  0  0  0  0  0
   23.4061   71.6671    2.6887 C   0  0  1  0  0  0  0  0  0  0  0  0
   23.8059   70.9196    0.3222 C   0  0  2  0  0  0  0  0  0  0  0  0
   22.7310   72.9158    2.1055 C   0  0  1  0  0  0  0  0  0  0  0  0
   23.1076   72.1986   -0.1432 C   0  0  1  0  0  0  0  0  0  0  0  0
   23.8936   69.1769    3.0767 H   0  0  0  0  0  0  0  0  0  0  0  0
   23.1984   70.4847    4.2556 H   0  0  0  0  0  0  0  0  0  0  0  0
   24.0160   69.0596   -0.2965 H   0  0  0  0  0  0  0  0  0  0  0  0
   22.4552   75.2810    2.3020 O   0  0  0  0  0  0  0  0  0  0  0  0
   22.9284   74.1411    2.9954 C   0  0  0  0  0  0  0  0  0  0  0  0
   22.5742   76.0685    2.8565 H   0  0  0  0  0  0  0  0  0  0  0  0
 25 28  1  0
 25 24  1  0
 25 26  1  1
 25 27  2  0
  1  4  1  0
  1 24  1  0
  1  2  1  6
  1  3  2  0
  6 11  1  0
  6 12  1  0
 29 36  1  0
 29 37  1  0
  9  7  1  1
  7 13  1  0
 10  8  1  6
  8 14  1  0
 37 28  1  1
  4  5  1  0
 33 30  1  1
 30 38  1  0
 34 31  1  1
 31 39  1  0
 35 32  1  6
 32 40  1  0
 41 42  1  0
 41 43  1  0
 15 19  2  0
 16 22  2  0
 12 17  1  6
 17 19  1  0
 17 20  1  0
 18 19  1  0
 18 22  1  0
 18 23  1  0
  9 10  1  0
  9 11  1  0
 10 12  1  0
 11  5  1  6
 33 34  1  0
 33 35  1  0
 34 36  1  0
 35 37  1  0
 36 42  1  1
 20 21  2  0
 21 22  1  0
M  CHG  2   2  -1  26  -1
M  END
>  <COMPND>  (139) 
    8629 

>  <AUTHOR>  (139) 
    GENERATED BY OPEN BABEL 3.1.1

>  <MASTER>  (139) 
        0    0    0    0    0    0    0    0   58    0   58    0

>  <minimizedAffinity>  (139) 
-6.93153

>  <CNNscore>  (139) 
0.2785241008

>  <CNNaffinity>  (139) 
3.9891834259

>  <CNN_VS>  (139) 
1.1110837460

>  <CNNaffinity_variance>  (139) 
0.2590012252

$$$$
140
     RDKit          3D

 43 45  0  0  0  0  0  0  0  0999 V2000
   20.5474   74.5465   -3.9167 P   0  0  2  0  0  0  0  0  0  0  0  0
   19.2456   74.5270   -2.9563 O   0  0  0  0  0  0  0  0  0  0  0  0
   20.7416   75.8144   -4.6952 O   0  0  0  0  0  0  0  0  0  0  0  0
   20.4009   73.1969   -4.7970 O   0  0  0  0  0  0  0  0  0  0  0  0
   20.4024   73.3076   -6.2096 C   0  0  0  0  0  0  0  0  0  0  0  0
   19.9020   70.9862   -5.8427 O   0  0  0  0  0  0  0  0  0  0  0  0
   20.0447   70.6775   -8.8218 O   0  0  0  0  0  0  0  0  0  0  0  0
   17.3584   70.7687   -8.3617 O   0  0  0  0  0  0  0  0  0  0  0  0
   19.5512   71.7717   -8.0508 C   0  0  1  0  0  0  0  0  0  0  0  0
   18.2089   71.4231   -7.4424 C   0  0  2  0  0  0  0  0  0  0  0  0
   20.4333   71.9115   -6.8163 C   0  0  1  0  0  0  0  0  0  0  0  0
   18.6116   70.5305   -6.2809 C   0  0  2  0  0  0  0  0  0  0  0  0
   19.4974   70.5688   -9.6159 H   0  0  0  0  0  0  0  0  0  0  0  0
   17.1305   71.3775   -9.0815 H   0  0  0  0  0  0  0  0  0  0  0  0
   16.1429   69.1632   -6.1636 O   0  0  0  0  0  0  0  0  0  0  0  0
   15.1584   70.9194   -2.0178 O   0  0  0  0  0  0  0  0  0  0  0  0
   17.6906   70.6120   -5.1825 N   0  0  0  0  0  0  0  0  0  0  0  0
   15.6548   70.0386   -4.0994 N   0  0  0  0  0  0  0  0  0  0  0  0
   16.4772   69.8863   -5.2229 C   0  0  0  0  0  0  0  0  0  0  0  0
   17.9942   71.4045   -4.0809 C   0  0  0  0  0  0  0  0  0  0  0  0
   17.1985   71.5401   -3.0180 C   0  0  0  0  0  0  0  0  0  0  0  0
   15.9119   70.8153   -2.9808 C   0  0  0  0  0  0  0  0  0  0  0  0
   14.8040   69.5427   -4.1054 H   0  0  0  0  0  0  0  0  0  0  0  0
   21.7534   74.1890   -2.9015 O   0  0  0  0  0  0  0  0  0  0  0  0
   23.1965   73.5099   -3.1648 P   0  0  2  0  0  0  0  0  0  0  0  0
   24.2111   74.4630   -2.3402 O   0  0  0  0  0  0  0  0  0  0  0  0
   23.5435   73.3450   -4.6161 O   0  0  0  0  0  0  0  0  0  0  0  0
   23.1588   72.1319   -2.3254 O   0  0  0  0  0  0  0  0  0  0  0  0
   23.4191   69.9240   -3.1465 O   0  0  0  0  0  0  0  0  0  0  0  0
   20.7776   69.1739   -0.0626 O   0  0  0  0  0  0  0  0  0  0  0  0
   23.5216   68.3654    0.1926 O   0  0  0  0  0  0  0  0  0  0  0  0
   20.4911   71.5723   -1.6579 O   0  0  0  0  0  0  0  0  0  0  0  0
   21.8660   69.8343   -0.7143 C   0  0  1  0  0  0  0  0  0  0  0  0
   22.9372   68.7902   -1.0356 C   0  0  1  0  0  0  0  0  0  0  0  0
   21.3557   70.4926   -1.9947 C   0  0  2  0  0  0  0  0  0  0  0  0
   24.0116   69.3674   -1.9671 C   0  0  1  0  0  0  0  0  0  0  0  0
   22.5064   70.9887   -2.8721 C   0  0  1  0  0  0  0  0  0  0  0  0
   21.0948   68.7542    0.7515 H   0  0  0  0  0  0  0  0  0  0  0  0
   22.8325   68.0035    0.7717 H   0  0  0  0  0  0  0  0  0  0  0  0
   19.7668   71.2452   -1.1028 H   0  0  0  0  0  0  0  0  0  0  0  0
   25.7445   68.8164   -3.5170 O   0  0  0  0  0  0  0  0  0  0  0  0
   25.0031   68.3008   -2.4268 C   0  0  0  0  0  0  0  0  0  0  0  0
   26.3799   68.1484   -3.8199 H   0  0  0  0  0  0  0  0  0  0  0  0
 25 28  1  0
 25 24  1  0
 25 26  1  1
 25 27  2  0
  1  4  1  0
  1 24  1  0
  1  2  1  1
  1  3  2  0
  6 11  1  0
  6 12  1  0
 29 36  1  0
 29 37  1  0
  9  7  1  6
  7 13  1  0
 10  8  1  6
  8 14  1  0
 37 28  1  1
  4  5  1  0
 33 30  1  6
 30 38  1  0
 34 31  1  1
 31 39  1  0
 35 32  1  1
 32 40  1  0
 41 42  1  0
 41 43  1  0
 15 19  2  0
 16 22  2  0
 12 17  1  1
 17 19  1  0
 17 20  1  0
 18 19  1  0
 18 22  1  0
 18 23  1  0
  9 10  1  0
  9 11  1  0
 10 12  1  0
 11  5  1  1
 33 34  1  0
 33 35  1  0
 34 36  1  0
 35 37  1  0
 36 42  1  6
 20 21  2  0
 21 22  1  0
M  CHG  2   2  -1  26  -1
M  END
>  <COMPND>  (140) 
    8629 

>  <AUTHOR>  (140) 
    GENERATED BY OPEN BABEL 3.1.1

>  <MASTER>  (140) 
        0    0    0    0    0    0    0    0   58    0   58    0

>  <minimizedAffinity>  (140) 
-7.80694

>  <CNNscore>  (140) 
0.2733254135

>  <CNNaffinity>  (140) 
3.8137347698

>  <CNN_VS>  (140) 
1.0423905849

>  <CNNaffinity_variance>  (140) 
0.9642178416

$$$$
141
     RDKit          3D

 43 45  0  0  0  0  0  0  0  0999 V2000
   22.7748   70.0307   -2.4702 P   0  0  2  0  0  0  0  0  0  0  0  0
   23.6913   71.1606   -3.1780 O   0  0  0  0  0  0  0  0  0  0  0  0
   23.1817   68.6148   -2.7551 O   0  0  0  0  0  0  0  0  0  0  0  0
   21.2666   70.4285   -2.9002 O   0  0  0  0  0  0  0  0  0  0  0  0
   20.3332   69.3881   -3.1328 C   0  0  0  0  0  0  0  0  0  0  0  0
   18.6589   70.9127   -3.9366 O   0  0  0  0  0  0  0  0  0  0  0  0
   16.6947   69.3016   -2.3438 O   0  0  0  0  0  0  0  0  0  0  0  0
   16.2987   68.3826   -4.8806 O   0  0  0  0  0  0  0  0  0  0  0  0
   17.8443   68.8644   -3.0667 C   0  0  1  0  0  0  0  0  0  0  0  0
   17.5734   68.8992   -4.5563 C   0  0  2  0  0  0  0  0  0  0  0  0
   18.9259   69.9268   -2.9153 C   0  0  1  0  0  0  0  0  0  0  0  0
   17.6994   70.3814   -4.8650 C   0  0  2  0  0  0  0  0  0  0  0  0
   15.9903   68.6389   -2.4255 H   0  0  0  0  0  0  0  0  0  0  0  0
   16.2686   67.4372   -4.6661 H   0  0  0  0  0  0  0  0  0  0  0  0
   16.0410   70.3698   -7.1514 O   0  0  0  0  0  0  0  0  0  0  0  0
   19.5779   71.3275   -9.9468 O   0  0  0  0  0  0  0  0  0  0  0  0
   18.1604   70.6250   -6.2027 N   0  0  0  0  0  0  0  0  0  0  0  0
   17.8034   70.8468   -8.5414 N   0  0  0  0  0  0  0  0  0  0  0  0
   17.2460   70.5954   -7.2813 C   0  0  0  0  0  0  0  0  0  0  0  0
   19.5058   70.8899   -6.4345 C   0  0  0  0  0  0  0  0  0  0  0  0
   20.0217   71.1264   -7.6424 C   0  0  0  0  0  0  0  0  0  0  0  0
   19.1339   71.1139   -8.8230 C   0  0  0  0  0  0  0  0  0  0  0  0
   17.1853   70.8310   -9.3079 H   0  0  0  0  0  0  0  0  0  0  0  0
   22.8286   70.4449   -0.9086 O   0  0  0  0  0  0  0  0  0  0  0  0
   22.2453   69.7070    0.4060 P   0  0  2  0  0  0  0  0  0  0  0  0
   23.5470   68.9756    1.0292 O   0  0  0  0  0  0  0  0  0  0  0  0
   21.0895   68.7882    0.1341 O   0  0  0  0  0  0  0  0  0  0  0  0
   21.9189   70.9056    1.4363 O   0  0  0  0  0  0  0  0  0  0  0  0
   21.1101   73.1316    1.3510 O   0  0  0  0  0  0  0  0  0  0  0  0
   24.4645   73.7374    3.6816 O   0  0  0  0  0  0  0  0  0  0  0  0
   21.8600   73.8658    4.8848 O   0  0  0  0  0  0  0  0  0  0  0  0
   24.5567   71.8626    1.4779 O   0  0  0  0  0  0  0  0  0  0  0  0
   23.3273   73.0183    3.1967 C   0  0  1  0  0  0  0  0  0  0  0  0
   22.0766   73.8539    3.4765 C   0  0  1  0  0  0  0  0  0  0  0  0
   23.4900   72.7796    1.6968 C   0  0  2  0  0  0  0  0  0  0  0  0
   20.8522   73.2779    2.7524 C   0  0  1  0  0  0  0  0  0  0  0  0
   22.2000   72.2528    1.0655 C   0  0  1  0  0  0  0  0  0  0  0  0
   24.3678   73.8918    4.6335 H   0  0  0  0  0  0  0  0  0  0  0  0
   22.6406   74.2312    5.3301 H   0  0  0  0  0  0  0  0  0  0  0  0
   25.3676   72.2076    1.8819 H   0  0  0  0  0  0  0  0  0  0  0  0
   20.0586   75.4535    3.3404 O   0  0  0  0  0  0  0  0  0  0  0  0
   19.6293   74.1823    2.8889 C   0  0  0  0  0  0  0  0  0  0  0  0
   19.2907   76.0399    3.4316 H   0  0  0  0  0  0  0  0  0  0  0  0
 25 28  1  0
 25 24  1  0
 25 26  1  1
 25 27  2  0
  1  4  1  0
  1 24  1  0
  1  2  1  6
  1  3  2  0
  6 11  1  0
  6 12  1  0
 29 36  1  0
 29 37  1  0
  9  7  1  1
  7 13  1  0
 10  8  1  1
  8 14  1  0
 37 28  1  1
  4  5  1  0
 33 30  1  6
 30 38  1  0
 34 31  1  1
 31 39  1  0
 35 32  1  1
 32 40  1  0
 41 42  1  0
 41 43  1  0
 15 19  2  0
 16 22  2  0
 12 17  1  6
 17 19  1  0
 17 20  1  0
 18 19  1  0
 18 22  1  0
 18 23  1  0
  9 10  1  0
  9 11  1  0
 10 12  1  0
 11  5  1  6
 33 34  1  0
 33 35  1  0
 34 36  1  0
 35 37  1  0
 36 42  1  6
 20 21  2  0
 21 22  1  0
M  CHG  2   2  -1  26  -1
M  END
>  <COMPND>  (141) 
    8629 

>  <AUTHOR>  (141) 
    GENERATED BY OPEN BABEL 3.1.1

>  <MASTER>  (141) 
        0    0    0    0    0    0    0    0   58    0   58    0

>  <minimizedAffinity>  (141) 
-8.00278

>  <CNNscore>  (141) 
0.7869467735

>  <CNNaffinity>  (141) 
4.8597512245

>  <CNN_VS>  (141) 
3.8243656158

>  <CNNaffinity_variance>  (141) 
0.1173986942

$$$$
142
     RDKit          3D

 43 45  0  0  0  0  0  0  0  0999 V2000
   22.7459   72.5887   -3.7354 P   0  0  2  0  0  0  0  0  0  0  0  0
   22.9669   73.0251   -5.2775 O   0  0  0  0  0  0  0  0  0  0  0  0
   23.6462   71.4897   -3.2525 O   0  0  0  0  0  0  0  0  0  0  0  0
   21.1587   72.2896   -3.6400 O   0  0  0  0  0  0  0  0  0  0  0  0
   20.2538   73.3248   -3.9825 C   0  0  0  0  0  0  0  0  0  0  0  0
   18.1690   72.6919   -4.9958 O   0  0  0  0  0  0  0  0  0  0  0  0
   17.5127   71.3770   -2.3822 O   0  0  0  0  0  0  0  0  0  0  0  0
   18.2817   69.2688   -3.9317 O   0  0  0  0  0  0  0  0  0  0  0  0
   18.7695   71.4812   -3.0493 C   0  0  1  0  0  0  0  0  0  0  0  0
   18.8143   70.5417   -4.2363 C   0  0  2  0  0  0  0  0  0  0  0  0
   18.8319   72.8468   -3.7219 C   0  0  1  0  0  0  0  0  0  0  0  0
   17.9840   71.2923   -5.2636 C   0  0  2  0  0  0  0  0  0  0  0  0
   17.4497   70.5129   -1.9447 H   0  0  0  0  0  0  0  0  0  0  0  0
   18.8448   68.8314   -3.2743 H   0  0  0  0  0  0  0  0  0  0  0  0
   16.2401   70.5011   -7.3399 O   0  0  0  0  0  0  0  0  0  0  0  0
   19.6864   70.2594  -10.3904 O   0  0  0  0  0  0  0  0  0  0  0  0
   18.3986   71.0164   -6.6102 N   0  0  0  0  0  0  0  0  0  0  0  0
   17.9575   70.3815   -8.8572 N   0  0  0  0  0  0  0  0  0  0  0  0
   17.4435   70.6250   -7.5771 C   0  0  0  0  0  0  0  0  0  0  0  0
   19.7392   71.1352   -6.9607 C   0  0  0  0  0  0  0  0  0  0  0  0
   20.2134   70.8982   -8.1855 C   0  0  0  0  0  0  0  0  0  0  0  0
   19.2813   70.4846   -9.2542 C   0  0  0  0  0  0  0  0  0  0  0  0
   17.3106   70.1072   -9.5471 H   0  0  0  0  0  0  0  0  0  0  0  0
   22.9011   73.9854   -2.9366 O   0  0  0  0  0  0  0  0  0  0  0  0
   23.0513   74.2938   -1.3570 P   0  0  2  0  0  0  0  0  0  0  0  0
   21.5989   74.8816   -0.9539 O   0  0  0  0  0  0  0  0  0  0  0  0
   24.2015   75.1953   -1.0127 O   0  0  0  0  0  0  0  0  0  0  0  0
   23.1100   72.8390   -0.6605 O   0  0  0  0  0  0  0  0  0  0  0  0
   21.6965   70.9390   -0.5692 O   0  0  0  0  0  0  0  0  0  0  0  0
   22.6704   71.2296    3.4330 O   0  0  0  0  0  0  0  0  0  0  0  0
   23.7938   69.1127    1.8505 O   0  0  0  0  0  0  0  0  0  0  0  0
   22.2163   73.6296    1.8795 O   0  0  0  0  0  0  0  0  0  0  0  0
   22.9030   71.3256    2.0252 C   0  0  1  0  0  0  0  0  0  0  0  0
   22.7165   69.9361    1.4125 C   0  0  1  0  0  0  0  0  0  0  0  0
   21.9099   72.3170    1.4216 C   0  0  2  0  0  0  0  0  0  0  0  0
   22.6862   70.0060   -0.1202 C   0  0  1  0  0  0  0  0  0  0  0  0
   21.9253   72.2717   -0.1074 C   0  0  1  0  0  0  0  0  0  0  0  0
   23.2981   70.6020    3.8225 H   0  0  0  0  0  0  0  0  0  0  0  0
   23.8020   69.0774    2.8199 H   0  0  0  0  0  0  0  0  0  0  0  0
   22.2031   73.6451    2.8487 H   0  0  0  0  0  0  0  0  0  0  0  0
   23.2881   67.7007   -0.3004 O   0  0  0  0  0  0  0  0  0  0  0  0
   22.3441   68.6563   -0.7476 C   0  0  0  0  0  0  0  0  0  0  0  0
   23.0826   66.8367   -0.6915 H   0  0  0  0  0  0  0  0  0  0  0  0
 25 28  1  0
 25 24  1  0
 25 26  1  1
 25 27  2  0
  1  4  1  0
  1 24  1  0
  1  2  1  6
  1  3  2  0
  6 11  1  0
  6 12  1  0
 29 36  1  0
 29 37  1  0
  9  7  1  6
  7 13  1  0
 10  8  1  1
  8 14  1  0
 37 28  1  1
  4  5  1  0
 33 30  1  1
 30 38  1  0
 34 31  1  6
 31 39  1  0
 35 32  1  6
 32 40  1  0
 41 42  1  0
 41 43  1  0
 15 19  2  0
 16 22  2  0
 12 17  1  6
 17 19  1  0
 17 20  1  0
 18 19  1  0
 18 22  1  0
 18 23  1  0
  9 10  1  0
  9 11  1  0
 10 12  1  0
 11  5  1  6
 33 34  1  0
 33 35  1  0
 34 36  1  0
 35 37  1  0
 36 42  1  6
 20 21  2  0
 21 22  1  0
M  CHG  2   2  -1  26  -1
M  END
>  <COMPND>  (142) 
    8629 

>  <AUTHOR>  (142) 
    GENERATED BY OPEN BABEL 3.1.1

>  <MASTER>  (142) 
        0    0    0    0    0    0    0    0   58    0   58    0

>  <minimizedAffinity>  (142) 
-7.89838

>  <CNNscore>  (142) 
0.7714328766

>  <CNNaffinity>  (142) 
4.3699173927

>  <CNN_VS>  (142) 
3.3710980415

>  <CNNaffinity_variance>  (142) 
0.1328894943

$$$$
143
     RDKit          3D

 43 45  0  0  0  0  0  0  0  0999 V2000
   20.9873   69.8923   -2.1871 P   0  0  2  0  0  0  0  0  0  0  0  0
   20.6832   69.4815   -3.7221 O   0  0  0  0  0  0  0  0  0  0  0  0
   20.2374   69.0984   -1.1581 O   0  0  0  0  0  0  0  0  0  0  0  0
   20.7417   71.4912   -2.1570 O   0  0  0  0  0  0  0  0  0  0  0  0
   20.6460   72.1839   -3.3895 C   0  0  0  0  0  0  0  0  0  0  0  0
   19.0092   73.1444   -4.8633 O   0  0  0  0  0  0  0  0  0  0  0  0
   17.0607   72.8185   -2.6077 O   0  0  0  0  0  0  0  0  0  0  0  0
   16.4687   70.6971   -4.2158 O   0  0  0  0  0  0  0  0  0  0  0  0
   18.1414   71.9719   -2.9958 C   0  0  1  0  0  0  0  0  0  0  0  0
   17.7855   71.2084   -4.2543 C   0  0  2  0  0  0  0  0  0  0  0  0
   19.2840   72.8590   -3.4743 C   0  0  1  0  0  0  0  0  0  0  0  0
   17.9704   72.2671   -5.3281 C   0  0  2  0  0  0  0  0  0  0  0  0
   16.3190   72.2745   -2.2980 H   0  0  0  0  0  0  0  0  0  0  0  0
   16.4020   70.0276   -3.5171 H   0  0  0  0  0  0  0  0  0  0  0  0
   16.1756   71.1945   -7.2271 O   0  0  0  0  0  0  0  0  0  0  0  0
   19.5940   70.1370  -10.1318 O   0  0  0  0  0  0  0  0  0  0  0  0
   18.3641   71.7052   -6.5893 N   0  0  0  0  0  0  0  0  0  0  0  0
   17.8791   70.6690   -8.6719 N   0  0  0  0  0  0  0  0  0  0  0  0
   17.3840   71.1923   -7.4707 C   0  0  0  0  0  0  0  0  0  0  0  0
   19.7089   71.6670   -6.9413 C   0  0  0  0  0  0  0  0  0  0  0  0
   20.1648   71.1634   -8.0901 C   0  0  0  0  0  0  0  0  0  0  0  0
   19.2062   70.6073   -9.0668 C   0  0  0  0  0  0  0  0  0  0  0  0
   17.2147   70.3056   -9.3014 H   0  0  0  0  0  0  0  0  0  0  0  0
   22.5962   69.7699   -2.0901 O   0  0  0  0  0  0  0  0  0  0  0  0
   23.5640   69.4703   -0.8305 P   0  0  2  0  0  0  0  0  0  0  0  0
   25.0309   69.3693   -1.5053 O   0  0  0  0  0  0  0  0  0  0  0  0
   23.1693   68.2673   -0.0237 O   0  0  0  0  0  0  0  0  0  0  0  0
   23.5922   70.8534    0.0010 O   0  0  0  0  0  0  0  0  0  0  0  0
   24.4535   71.7271    2.0287 O   0  0  0  0  0  0  0  0  0  0  0  0
   20.4857   72.7718    2.4929 O   0  0  0  0  0  0  0  0  0  0  0  0
   22.4299   74.8064    1.9196 O   0  0  0  0  0  0  0  0  0  0  0  0
   21.1788   70.2313    1.2908 O   0  0  0  0  0  0  0  0  0  0  0  0
   21.6944   72.5356    1.7658 C   0  0  1  0  0  0  0  0  0  0  0  0
   22.7713   73.4782    2.3066 C   0  0  1  0  0  0  0  0  0  0  0  0
   22.1124   71.0783    1.9523 C   0  0  2  0  0  0  0  0  0  0  0  0
   24.1577   73.1037    1.7657 C   0  0  1  0  0  0  0  0  0  0  0  0
   23.5255   70.8241    1.4244 C   0  0  1  0  0  0  0  0  0  0  0  0
   20.2145   73.6953    2.3782 H   0  0  0  0  0  0  0  0  0  0  0  0
   21.5522   75.0302    2.2671 H   0  0  0  0  0  0  0  0  0  0  0  0
   20.2883   70.4017    1.6340 H   0  0  0  0  0  0  0  0  0  0  0  0
   25.3857   75.1526    1.7098 O   0  0  0  0  0  0  0  0  0  0  0  0
   25.2667   73.9299    2.4135 C   0  0  0  0  0  0  0  0  0  0  0  0
   26.0877   75.6890    2.1113 H   0  0  0  0  0  0  0  0  0  0  0  0
 25 28  1  0
 25 24  1  0
 25 26  1  6
 25 27  2  0
  1  4  1  0
  1 24  1  0
  1  2  1  6
  1  3  2  0
  6 11  1  0
  6 12  1  0
 29 36  1  0
 29 37  1  0
  9  7  1  6
  7 13  1  0
 10  8  1  1
  8 14  1  0
 37 28  1  6
  4  5  1  0
 33 30  1  1
 30 38  1  0
 34 31  1  6
 31 39  1  0
 35 32  1  6
 32 40  1  0
 41 42  1  0
 41 43  1  0
 15 19  2  0
 16 22  2  0
 12 17  1  6
 17 19  1  0
 17 20  1  0
 18 19  1  0
 18 22  1  0
 18 23  1  0
  9 10  1  0
  9 11  1  0
 10 12  1  0
 11  5  1  6
 33 34  1  0
 33 35  1  0
 34 36  1  0
 35 37  1  0
 36 42  1  1
 20 21  2  0
 21 22  1  0
M  CHG  2   2  -1  26  -1
M  END
>  <COMPND>  (143) 
    8629 

>  <AUTHOR>  (143) 
    GENERATED BY OPEN BABEL 3.1.1

>  <MASTER>  (143) 
        0    0    0    0    0    0    0    0   58    0   58    0

>  <minimizedAffinity>  (143) 
-7.31169

>  <CNNscore>  (143) 
0.7280076742

>  <CNNaffinity>  (143) 
4.5456709862

>  <CNN_VS>  (143) 
3.3092832565

>  <CNNaffinity_variance>  (143) 
0.0767002255

$$$$
144
     RDKit          3D

 43 45  0  0  0  0  0  0  0  0999 V2000
   23.0445   73.8146   -3.9779 P   0  0  2  0  0  0  0  0  0  0  0  0
   23.0933   74.7505   -5.2967 O   0  0  0  0  0  0  0  0  0  0  0  0
   23.8720   72.5654   -4.0564 O   0  0  0  0  0  0  0  0  0  0  0  0
   21.4631   73.5946   -3.7160 O   0  0  0  0  0  0  0  0  0  0  0  0
   20.8891   72.3443   -4.0554 C   0  0  0  0  0  0  0  0  0  0  0  0
   19.7723   71.1440   -5.8121 O   0  0  0  0  0  0  0  0  0  0  0  0
   18.7570   73.8106   -6.7337 O   0  0  0  0  0  0  0  0  0  0  0  0
   16.6081   72.7829   -5.4060 O   0  0  0  0  0  0  0  0  0  0  0  0
   18.9752   73.3383   -5.4053 C   0  0  1  0  0  0  0  0  0  0  0  0
   17.8953   72.3510   -5.0143 C   0  0  2  0  0  0  0  0  0  0  0  0
   20.2198   72.4596   -5.4181 C   0  0  1  0  0  0  0  0  0  0  0  0
   18.3378   71.0944   -5.7445 C   0  0  2  0  0  0  0  0  0  0  0  0
   17.9673   74.3745   -6.7505 H   0  0  0  0  0  0  0  0  0  0  0  0
   16.3722   73.5846   -4.9138 H   0  0  0  0  0  0  0  0  0  0  0  0
   15.9164   69.7148   -6.2046 O   0  0  0  0  0  0  0  0  0  0  0  0
   16.9334   66.5064   -3.0561 O   0  0  0  0  0  0  0  0  0  0  0  0
   17.9444   69.8956   -5.0593 N   0  0  0  0  0  0  0  0  0  0  0  0
   16.4249   68.1183   -4.6367 N   0  0  0  0  0  0  0  0  0  0  0  0
   16.7072   69.2817   -5.3640 C   0  0  0  0  0  0  0  0  0  0  0  0
   18.7816   69.3406   -4.0976 C   0  0  0  0  0  0  0  0  0  0  0  0
   18.4971   68.2314   -3.4120 C   0  0  0  0  0  0  0  0  0  0  0  0
   17.2239   67.5285   -3.6700 C   0  0  0  0  0  0  0  0  0  0  0  0
   15.5682   67.6736   -4.8318 H   0  0  0  0  0  0  0  0  0  0  0  0
   23.4708   74.8307   -2.7952 O   0  0  0  0  0  0  0  0  0  0  0  0
   23.2606   74.7446   -1.1947 P   0  0  2  0  0  0  0  0  0  0  0  0
   21.7937   75.3916   -0.9778 O   0  0  0  0  0  0  0  0  0  0  0  0
   24.3502   75.3984   -0.3950 O   0  0  0  0  0  0  0  0  0  0  0  0
   23.0612   73.1717   -0.8929 O   0  0  0  0  0  0  0  0  0  0  0  0
   21.4417   71.4557   -0.6708 O   0  0  0  0  0  0  0  0  0  0  0  0
   22.9612   71.4300    3.1687 O   0  0  0  0  0  0  0  0  0  0  0  0
   23.5889   69.2718    1.3809 O   0  0  0  0  0  0  0  0  0  0  0  0
   22.6161   73.9403    1.7691 O   0  0  0  0  0  0  0  0  0  0  0  0
   23.0174   71.5655    1.7461 C   0  0  1  0  0  0  0  0  0  0  0  0
   22.5770   70.2406    1.1204 C   0  0  1  0  0  0  0  0  0  0  0  0
   22.0880   72.6987    1.3155 C   0  0  2  0  0  0  0  0  0  0  0  0
   22.3551   70.3884   -0.3909 C   0  0  1  0  0  0  0  0  0  0  0  0
   21.8968   72.7266   -0.2020 C   0  0  1  0  0  0  0  0  0  0  0  0
   23.5495   70.7124    3.4487 H   0  0  0  0  0  0  0  0  0  0  0  0
   23.7195   69.1885    2.3386 H   0  0  0  0  0  0  0  0  0  0  0  0
   22.7323   73.9100    2.7311 H   0  0  0  0  0  0  0  0  0  0  0  0
   21.1186   68.3838    0.0115 O   0  0  0  0  0  0  0  0  0  0  0  0
   21.7648   69.1227   -1.0087 C   0  0  0  0  0  0  0  0  0  0  0  0
   20.7379   67.5755   -0.3672 H   0  0  0  0  0  0  0  0  0  0  0  0
 25 28  1  0
 25 24  1  0
 25 26  1  6
 25 27  2  0
  1  4  1  0
  1 24  1  0
  1  2  1  6
  1  3  2  0
  6 11  1  0
  6 12  1  0
 29 36  1  0
 29 37  1  0
  9  7  1  6
  7 13  1  0
 10  8  1  6
  8 14  1  0
 37 28  1  6
  4  5  1  0
 33 30  1  1
 30 38  1  0
 34 31  1  6
 31 39  1  0
 35 32  1  6
 32 40  1  0
 41 42  1  0
 41 43  1  0
 15 19  2  0
 16 22  2  0
 12 17  1  1
 17 19  1  0
 17 20  1  0
 18 19  1  0
 18 22  1  0
 18 23  1  0
  9 10  1  0
  9 11  1  0
 10 12  1  0
 11  5  1  1
 33 34  1  0
 33 35  1  0
 34 36  1  0
 35 37  1  0
 36 42  1  1
 20 21  2  0
 21 22  1  0
M  CHG  2   2  -1  26  -1
M  END
>  <COMPND>  (144) 
    8629 

>  <AUTHOR>  (144) 
    GENERATED BY OPEN BABEL 3.1.1

>  <MASTER>  (144) 
        0    0    0    0    0    0    0    0   58    0   58    0

>  <minimizedAffinity>  (144) 
-7.39257

>  <CNNscore>  (144) 
0.6438201666

>  <CNNaffinity>  (144) 
4.3074030876

>  <CNN_VS>  (144) 
2.7731928825

>  <CNNaffinity_variance>  (144) 
0.3199082613

$$$$
145
     RDKit          3D

 43 45  0  0  0  0  0  0  0  0999 V2000
   21.8222   73.6654   -5.2950 P   0  0  2  0  0  0  0  0  0  0  0  0
   22.3312   75.1628   -4.9545 O   0  0  0  0  0  0  0  0  0  0  0  0
   22.7453   72.8649   -6.1659 O   0  0  0  0  0  0  0  0  0  0  0  0
   20.3266   73.8853   -5.8718 O   0  0  0  0  0  0  0  0  0  0  0  0
   19.5102   72.7470   -6.0854 C   0  0  0  0  0  0  0  0  0  0  0  0
   17.2430   71.9531   -6.0257 O   0  0  0  0  0  0  0  0  0  0  0  0
   16.5666   74.5495   -4.6870 O   0  0  0  0  0  0  0  0  0  0  0  0
   16.6582   72.8065   -2.5917 O   0  0  0  0  0  0  0  0  0  0  0  0
   17.7382   73.7458   -4.5571 C   0  0  1  0  0  0  0  0  0  0  0  0
   17.4404   72.5118   -3.7310 C   0  0  2  0  0  0  0  0  0  0  0  0
   18.0500   73.1466   -5.9228 C   0  0  1  0  0  0  0  0  0  0  0  0
   16.7089   71.6323   -4.7309 C   0  0  2  0  0  0  0  0  0  0  0  0
   16.3478   74.9431   -3.8273 H   0  0  0  0  0  0  0  0  0  0  0  0
   17.1671   73.3679   -1.9863 H   0  0  0  0  0  0  0  0  0  0  0  0
   15.5786   69.5549   -6.2752 O   0  0  0  0  0  0  0  0  0  0  0  0
   17.5400   66.3007   -3.6666 O   0  0  0  0  0  0  0  0  0  0  0  0
   16.9079   70.2331   -4.4779 N   0  0  0  0  0  0  0  0  0  0  0  0
   16.5563   67.9363   -4.9752 N   0  0  0  0  0  0  0  0  0  0  0  0
   16.2944   69.2703   -5.3127 C   0  0  0  0  0  0  0  0  0  0  0  0
   17.7043   69.8280   -3.4122 C   0  0  0  0  0  0  0  0  0  0  0  0
   17.9430   68.5518   -3.1029 C   0  0  0  0  0  0  0  0  0  0  0  0
   17.3396   67.4834   -3.9253 C   0  0  0  0  0  0  0  0  0  0  0  0
   16.1391   67.2480   -5.5426 H   0  0  0  0  0  0  0  0  0  0  0  0
   21.5578   73.0301   -3.8323 O   0  0  0  0  0  0  0  0  0  0  0  0
   21.8953   71.5670   -3.2336 P   0  0  2  0  0  0  0  0  0  0  0  0
   23.4936   71.4378   -3.4488 O   0  0  0  0  0  0  0  0  0  0  0  0
   21.0962   70.4526   -3.8447 O   0  0  0  0  0  0  0  0  0  0  0  0
   21.7103   71.7259   -1.6382 O   0  0  0  0  0  0  0  0  0  0  0  0
   21.8521   69.4205   -1.1073 O   0  0  0  0  0  0  0  0  0  0  0  0
   22.3551   71.0006    2.6744 O   0  0  0  0  0  0  0  0  0  0  0  0
   24.5995   69.8324    1.3157 O   0  0  0  0  0  0  0  0  0  0  0  0
   20.4830   72.2232    0.8360 O   0  0  0  0  0  0  0  0  0  0  0  0
   22.4904   70.9586    1.2513 C   0  0  1  0  0  0  0  0  0  0  0  0
   23.2512   69.6844    0.8793 C   0  0  1  0  0  0  0  0  0  0  0  0
   21.1005   70.9593    0.6175 C   0  0  2  0  0  0  0  0  0  0  0  0
   23.2039   69.4328   -0.6339 C   0  0  1  0  0  0  0  0  0  0  0  0
   21.1622   70.6510   -0.8796 C   0  0  1  0  0  0  0  0  0  0  0  0
   23.2341   71.0008    3.0829 H   0  0  0  0  0  0  0  0  0  0  0  0
   24.6153   69.9912    2.2726 H   0  0  0  0  0  0  0  0  0  0  0  0
   20.4497   72.4065    1.7874 H   0  0  0  0  0  0  0  0  0  0  0  0
   23.1531   67.0695   -0.2854 O   0  0  0  0  0  0  0  0  0  0  0  0
   23.8202   68.0869   -1.0094 C   0  0  0  0  0  0  0  0  0  0  0  0
   23.5347   66.2072   -0.5146 H   0  0  0  0  0  0  0  0  0  0  0  0
 25 28  1  0
 25 24  1  0
 25 26  1  1
 25 27  2  0
  1  4  1  0
  1 24  1  0
  1  2  1  1
  1  3  2  0
  6 11  1  0
  6 12  1  0
 29 36  1  0
 29 37  1  0
  9  7  1  6
  7 13  1  0
 10  8  1  1
  8 14  1  0
 37 28  1  6
  4  5  1  0
 33 30  1  1
 30 38  1  0
 34 31  1  6
 31 39  1  0
 35 32  1  6
 32 40  1  0
 41 42  1  0
 41 43  1  0
 15 19  2  0
 16 22  2  0
 12 17  1  1
 17 19  1  0
 17 20  1  0
 18 19  1  0
 18 22  1  0
 18 23  1  0
  9 10  1  0
  9 11  1  0
 10 12  1  0
 11  5  1  1
 33 34  1  0
 33 35  1  0
 34 36  1  0
 35 37  1  0
 36 42  1  1
 20 21  2  0
 21 22  1  0
M  CHG  2   2  -1  26  -1
M  END
>  <COMPND>  (145) 
    8629 

>  <AUTHOR>  (145) 
    GENERATED BY OPEN BABEL 3.1.1

>  <MASTER>  (145) 
        0    0    0    0    0    0    0    0   58    0   58    0

>  <minimizedAffinity>  (145) 
-7.46644

>  <CNNscore>  (145) 
0.4483744502

>  <CNNaffinity>  (145) 
4.0762076378

>  <CNN_VS>  (145) 
1.8276673555

>  <CNNaffinity_variance>  (145) 
0.5082572103

$$$$
146
     RDKit          3D

 43 45  0  0  0  0  0  0  0  0999 V2000
   18.5492   69.0080   -2.9928 P   0  0  2  0  0  0  0  0  0  0  0  0
   19.3335   67.8777   -3.8440 O   0  0  0  0  0  0  0  0  0  0  0  0
   17.2281   68.5739   -2.4292 O   0  0  0  0  0  0  0  0  0  0  0  0
   18.5036   70.2824   -3.9887 O   0  0  0  0  0  0  0  0  0  0  0  0
   17.8539   71.4620   -3.5480 C   0  0  0  0  0  0  0  0  0  0  0  0
   19.8322   72.3247   -4.6042 O   0  0  0  0  0  0  0  0  0  0  0  0
   19.0230   74.9976   -3.5125 O   0  0  0  0  0  0  0  0  0  0  0  0
   18.2239   75.1519   -6.1152 O   0  0  0  0  0  0  0  0  0  0  0  0
   18.2038   73.9397   -4.0077 C   0  0  1  0  0  0  0  0  0  0  0  0
   18.2879   73.8727   -5.5184 C   0  0  2  0  0  0  0  0  0  0  0  0
   18.8421   72.6193   -3.5947 C   0  0  1  0  0  0  0  0  0  0  0  0
   19.6315   73.1956   -5.7294 C   0  0  2  0  0  0  0  0  0  0  0  0
   18.6354   75.8511   -3.7636 H   0  0  0  0  0  0  0  0  0  0  0  0
   17.3503   75.5411   -5.9532 H   0  0  0  0  0  0  0  0  0  0  0  0
   21.9147   72.8943   -7.3647 O   0  0  0  0  0  0  0  0  0  0  0  0
   19.6579   70.1834  -10.3310 O   0  0  0  0  0  0  0  0  0  0  0  0
   19.6688   72.4164   -6.9347 N   0  0  0  0  0  0  0  0  0  0  0  0
   20.7892   71.5446   -8.8403 N   0  0  0  0  0  0  0  0  0  0  0  0
   20.8656   72.3309   -7.6836 C   0  0  0  0  0  0  0  0  0  0  0  0
   18.5275   71.7471   -7.3628 C   0  0  0  0  0  0  0  0  0  0  0  0
   18.4707   71.0024   -8.4689 C   0  0  0  0  0  0  0  0  0  0  0  0
   19.6781   70.8610   -9.3082 C   0  0  0  0  0  0  0  0  0  0  0  0
   21.6108   71.4707   -9.3781 H   0  0  0  0  0  0  0  0  0  0  0  0
   19.6401   69.4512   -1.8853 O   0  0  0  0  0  0  0  0  0  0  0  0
   21.2559   69.4184   -1.9144 P   0  0  2  0  0  0  0  0  0  0  0  0
   21.6253   70.4133   -3.1355 O   0  0  0  0  0  0  0  0  0  0  0  0
   21.8413   68.0415   -2.0387 O   0  0  0  0  0  0  0  0  0  0  0  0
   21.7048   70.2186   -0.5866 O   0  0  0  0  0  0  0  0  0  0  0  0
   23.2248   71.9352    0.0131 O   0  0  0  0  0  0  0  0  0  0  0  0
   24.2382   69.1295    2.8683 O   0  0  0  0  0  0  0  0  0  0  0  0
   22.7831   71.4807    3.6445 O   0  0  0  0  0  0  0  0  0  0  0  0
   23.5858   68.2817    0.1784 O   0  0  0  0  0  0  0  0  0  0  0  0
   23.3552   69.8427    1.9982 C   0  0  1  0  0  0  0  0  0  0  0  0
   23.4067   71.3252    2.3728 C   0  0  1  0  0  0  0  0  0  0  0  0
   23.8052   69.6375    0.5529 C   0  0  2  0  0  0  0  0  0  0  0  0
   22.6968   72.1875    1.3205 C   0  0  1  0  0  0  0  0  0  0  0  0
   23.0722   70.5775   -0.4058 C   0  0  1  0  0  0  0  0  0  0  0  0
   23.9577   69.2553    3.7875 H   0  0  0  0  0  0  0  0  0  0  0  0
   23.2406   70.9307    4.2998 H   0  0  0  0  0  0  0  0  0  0  0  0
   24.0552   67.6967    0.7927 H   0  0  0  0  0  0  0  0  0  0  0  0
   24.1343   73.8817    2.1993 O   0  0  0  0  0  0  0  0  0  0  0  0
   22.8716   73.6802    1.5916 C   0  0  0  0  0  0  0  0  0  0  0  0
   24.2596   74.8274    2.3774 H   0  0  0  0  0  0  0  0  0  0  0  0
 25 28  1  0
 25 24  1  0
 25 26  1  6
 25 27  2  0
  1  4  1  0
  1 24  1  0
  1  2  1  6
  1  3  2  0
  6 11  1  0
  6 12  1  0
 29 36  1  0
 29 37  1  0
  9  7  1  1
  7 13  1  0
 10  8  1  6
  8 14  1  0
 37 28  1  1
  4  5  1  0
 33 30  1  1
 30 38  1  0
 34 31  1  1
 31 39  1  0
 35 32  1  6
 32 40  1  0
 41 42  1  0
 41 43  1  0
 15 19  2  0
 16 22  2  0
 12 17  1  6
 17 19  1  0
 17 20  1  0
 18 19  1  0
 18 22  1  0
 18 23  1  0
  9 10  1  0
  9 11  1  0
 10 12  1  0
 11  5  1  6
 33 34  1  0
 33 35  1  0
 34 36  1  0
 35 37  1  0
 36 42  1  1
 20 21  2  0
 21 22  1  0
M  CHG  2   2  -1  26  -1
M  END
>  <COMPND>  (146) 
    8629 

>  <AUTHOR>  (146) 
    GENERATED BY OPEN BABEL 3.1.1

>  <MASTER>  (146) 
        0    0    0    0    0    0    0    0   58    0   58    0

>  <minimizedAffinity>  (146) 
-7.39792

>  <CNNscore>  (146) 
0.4370718598

>  <CNNaffinity>  (146) 
4.2664856911

>  <CNN_VS>  (146) 
1.8647608757

>  <CNNaffinity_variance>  (146) 
0.1068535298

$$$$
147
     RDKit          3D

 43 45  0  0  0  0  0  0  0  0999 V2000
   21.9688   72.5186   -4.0486 P   0  0  2  0  0  0  0  0  0  0  0  0
   21.5549   74.0826   -4.0488 O   0  0  0  0  0  0  0  0  0  0  0  0
   23.4421   72.2529   -4.1490 O   0  0  0  0  0  0  0  0  0  0  0  0
   21.0574   71.8755   -5.2207 O   0  0  0  0  0  0  0  0  0  0  0  0
   20.8131   72.6441   -6.3858 C   0  0  0  0  0  0  0  0  0  0  0  0
   19.3197   70.7917   -6.7211 O   0  0  0  0  0  0  0  0  0  0  0  0
   18.9946   71.8032   -9.5250 O   0  0  0  0  0  0  0  0  0  0  0  0
   16.7303   72.7047   -8.3016 O   0  0  0  0  0  0  0  0  0  0  0  0
   19.1560   72.5391   -8.3134 C   0  0  1  0  0  0  0  0  0  0  0  0
   17.8777   72.5027   -7.5020 C   0  0  2  0  0  0  0  0  0  0  0  0
   20.1211   71.7684   -7.4213 C   0  0  1  0  0  0  0  0  0  0  0  0
   17.9295   71.1111   -6.8947 C   0  0  2  0  0  0  0  0  0  0  0  0
   18.3825   72.2761  -10.1112 H   0  0  0  0  0  0  0  0  0  0  0  0
   16.7434   73.6040   -8.6649 H   0  0  0  0  0  0  0  0  0  0  0  0
   15.9825   69.1864   -6.1997 O   0  0  0  0  0  0  0  0  0  0  0  0
   15.4776   70.9556   -1.9740 O   0  0  0  0  0  0  0  0  0  0  0  0
   17.2731   71.0452   -5.6195 N   0  0  0  0  0  0  0  0  0  0  0  0
   15.7328   70.0688   -4.0962 N   0  0  0  0  0  0  0  0  0  0  0  0
   16.3094   70.0399   -5.3724 C   0  0  0  0  0  0  0  0  0  0  0  0
   17.5871   71.9703   -4.6299 C   0  0  0  0  0  0  0  0  0  0  0  0
   17.0273   71.9851   -3.4184 C   0  0  0  0  0  0  0  0  0  0  0  0
   16.0106   70.9685   -3.0793 C   0  0  0  0  0  0  0  0  0  0  0  0
   15.0584   69.3781   -3.9015 H   0  0  0  0  0  0  0  0  0  0  0  0
   21.2746   71.9591   -2.7003 O   0  0  0  0  0  0  0  0  0  0  0  0
   21.0635   70.4492   -2.1629 P   0  0  2  0  0  0  0  0  0  0  0  0
   22.1271   69.5940   -3.0317 O   0  0  0  0  0  0  0  0  0  0  0  0
   19.6488   69.9553   -2.2553 O   0  0  0  0  0  0  0  0  0  0  0  0
   21.6723   70.4588   -0.6681 O   0  0  0  0  0  0  0  0  0  0  0  0
   23.2468   72.0902    0.0220 O   0  0  0  0  0  0  0  0  0  0  0  0
   24.1606   69.1059    2.7257 O   0  0  0  0  0  0  0  0  0  0  0  0
   22.7822   71.4598    3.6242 O   0  0  0  0  0  0  0  0  0  0  0  0
   23.4866   68.4231   -0.0054 O   0  0  0  0  0  0  0  0  0  0  0  0
   23.3036   69.8928    1.8940 C   0  0  1  0  0  0  0  0  0  0  0  0
   23.4032   71.3510    2.3464 C   0  0  1  0  0  0  0  0  0  0  0  0
   23.7498   69.7493    0.4402 C   0  0  2  0  0  0  0  0  0  0  0  0
   22.7245   72.2906    1.3407 C   0  0  1  0  0  0  0  0  0  0  0  0
   23.0504   70.7623   -0.4680 C   0  0  1  0  0  0  0  0  0  0  0  0
   23.8824   69.1923    3.6502 H   0  0  0  0  0  0  0  0  0  0  0  0
   23.2198   70.8611    4.2498 H   0  0  0  0  0  0  0  0  0  0  0  0
   23.9351   67.7914    0.5774 H   0  0  0  0  0  0  0  0  0  0  0  0
   24.1836   73.8774    2.3711 O   0  0  0  0  0  0  0  0  0  0  0  0
   22.9479   73.7603    1.6903 C   0  0  0  0  0  0  0  0  0  0  0  0
   24.3393   74.8076    2.5997 H   0  0  0  0  0  0  0  0  0  0  0  0
 25 28  1  0
 25 24  1  0
 25 26  1  6
 25 27  2  0
  1  4  1  0
  1 24  1  0
  1  2  1  1
  1  3  2  0
  6 11  1  0
  6 12  1  0
 29 36  1  0
 29 37  1  0
  9  7  1  6
  7 13  1  0
 10  8  1  6
  8 14  1  0
 37 28  1  1
  4  5  1  0
 33 30  1  1
 30 38  1  0
 34 31  1  1
 31 39  1  0
 35 32  1  6
 32 40  1  0
 41 42  1  0
 41 43  1  0
 15 19  2  0
 16 22  2  0
 12 17  1  1
 17 19  1  0
 17 20  1  0
 18 19  1  0
 18 22  1  0
 18 23  1  0
  9 10  1  0
  9 11  1  0
 10 12  1  0
 11  5  1  1
 33 34  1  0
 33 35  1  0
 34 36  1  0
 35 37  1  0
 36 42  1  1
 20 21  2  0
 21 22  1  0
M  CHG  2   2  -1  26  -1
M  END
>  <COMPND>  (147) 
    8629 

>  <AUTHOR>  (147) 
    GENERATED BY OPEN BABEL 3.1.1

>  <MASTER>  (147) 
        0    0    0    0    0    0    0    0   58    0   58    0

>  <minimizedAffinity>  (147) 
-8.03903

>  <CNNscore>  (147) 
0.4370007217

>  <CNNaffinity>  (147) 
4.1586451530

>  <CNN_VS>  (147) 
1.8173309565

>  <CNNaffinity_variance>  (147) 
0.2303843498

$$$$
148
     RDKit          3D

 43 45  0  0  0  0  0  0  0  0999 V2000
   19.3430   73.2862   -2.1966 P   0  0  2  0  0  0  0  0  0  0  0  0
   19.3872   72.6584   -0.7062 O   0  0  0  0  0  0  0  0  0  0  0  0
   20.4377   74.2651   -2.5046 O   0  0  0  0  0  0  0  0  0  0  0  0
   17.8340   73.8534   -2.3346 O   0  0  0  0  0  0  0  0  0  0  0  0
   17.4164   74.3662   -3.5877 C   0  0  0  0  0  0  0  0  0  0  0  0
   15.9355   73.6470   -5.3380 O   0  0  0  0  0  0  0  0  0  0  0  0
   14.3497   72.2924   -3.1838 O   0  0  0  0  0  0  0  0  0  0  0  0
   15.7598   70.2273   -4.2717 O   0  0  0  0  0  0  0  0  0  0  0  0
   15.7625   72.4548   -3.2974 C   0  0  1  0  0  0  0  0  0  0  0  0
   16.3154   71.5238   -4.3562 C   0  0  2  0  0  0  0  0  0  0  0  0
   16.0297   73.8250   -3.9077 C   0  0  1  0  0  0  0  0  0  0  0  0
   15.9315   72.2419   -5.6388 C   0  0  2  0  0  0  0  0  0  0  0  0
   14.1543   71.4244   -2.7960 H   0  0  0  0  0  0  0  0  0  0  0  0
   16.0328   69.8120   -3.4388 H   0  0  0  0  0  0  0  0  0  0  0  0
   16.1124   69.8050   -7.0554 O   0  0  0  0  0  0  0  0  0  0  0  0
   19.5282   71.3914   -9.7118 O   0  0  0  0  0  0  0  0  0  0  0  0
   16.8589   71.9908   -6.7057 N   0  0  0  0  0  0  0  0  0  0  0  0
   17.8129   70.5970   -8.3771 N   0  0  0  0  0  0  0  0  0  0  0  0
   16.8688   70.7323   -7.3512 C   0  0  0  0  0  0  0  0  0  0  0  0
   17.7453   72.9863   -7.1021 C   0  0  0  0  0  0  0  0  0  0  0  0
   18.6403   72.8409   -8.0814 C   0  0  0  0  0  0  0  0  0  0  0  0
   18.7161   71.5563   -8.8068 C   0  0  0  0  0  0  0  0  0  0  0  0
   17.8384   69.7286   -8.8408 H   0  0  0  0  0  0  0  0  0  0  0  0
   19.3265   71.9757   -3.1427 O   0  0  0  0  0  0  0  0  0  0  0  0
   20.4945   70.9236   -3.5193 P   0  0  2  0  0  0  0  0  0  0  0  0
   21.4798   71.7872   -4.4685 O   0  0  0  0  0  0  0  0  0  0  0  0
   19.9984   69.6490   -4.1385 O   0  0  0  0  0  0  0  0  0  0  0  0
   21.3217   70.7233   -2.1480 O   0  0  0  0  0  0  0  0  0  0  0  0
   22.3671   68.5981   -2.2320 O   0  0  0  0  0  0  0  0  0  0  0  0
   23.4511   69.7159    1.5925 O   0  0  0  0  0  0  0  0  0  0  0  0
   25.4269   69.6927   -0.4917 O   0  0  0  0  0  0  0  0  0  0  0  0
   20.8155   70.3694    0.5894 O   0  0  0  0  0  0  0  0  0  0  0  0
   23.1519   69.9243    0.2095 C   0  0  1  0  0  0  0  0  0  0  0  0
   24.1370   69.1018   -0.6235 C   0  0  1  0  0  0  0  0  0  0  0  0
   21.7159   69.4805   -0.0629 C   0  0  2  0  0  0  0  0  0  0  0  0
   23.7160   69.0612   -2.0986 C   0  0  1  0  0  0  0  0  0  0  0  0
   21.4158   69.4276   -1.5620 C   0  0  1  0  0  0  0  0  0  0  0  0
   24.3614   69.9962    1.7722 H   0  0  0  0  0  0  0  0  0  0  0  0
   25.6806   69.7127    0.4445 H   0  0  0  0  0  0  0  0  0  0  0  0
   21.0156   70.3938    1.5377 H   0  0  0  0  0  0  0  0  0  0  0  0
   25.7965   68.7923   -3.2423 O   0  0  0  0  0  0  0  0  0  0  0  0
   24.5944   68.1185   -2.9183 C   0  0  0  0  0  0  0  0  0  0  0  0
   26.3657   68.2043   -3.7638 H   0  0  0  0  0  0  0  0  0  0  0  0
 25 28  1  0
 25 24  1  0
 25 26  1  6
 25 27  2  0
  1  4  1  0
  1 24  1  0
  1  2  1  1
  1  3  2  0
  6 11  1  0
  6 12  1  0
 29 36  1  0
 29 37  1  0
  9  7  1  6
  7 13  1  0
 10  8  1  6
  8 14  1  0
 37 28  1  6
  4  5  1  0
 33 30  1  1
 30 38  1  0
 34 31  1  6
 31 39  1  0
 35 32  1  1
 32 40  1  0
 41 42  1  0
 41 43  1  0
 15 19  2  0
 16 22  2  0
 12 17  1  6
 17 19  1  0
 17 20  1  0
 18 19  1  0
 18 22  1  0
 18 23  1  0
  9 10  1  0
  9 11  1  0
 10 12  1  0
 11  5  1  6
 33 34  1  0
 33 35  1  0
 34 36  1  0
 35 37  1  0
 36 42  1  6
 20 21  2  0
 21 22  1  0
M  CHG  2   2  -1  26  -1
M  END
>  <COMPND>  (148) 
    8629 

>  <AUTHOR>  (148) 
    GENERATED BY OPEN BABEL 3.1.1

>  <MASTER>  (148) 
        0    0    0    0    0    0    0    0   58    0   58    0

>  <minimizedAffinity>  (148) 
-7.05985

>  <CNNscore>  (148) 
0.4252634645

>  <CNNaffinity>  (148) 
4.0637826920

>  <CNN_VS>  (148) 
1.7281782627

>  <CNNaffinity_variance>  (148) 
0.1161613688

$$$$
149
     RDKit          3D

 43 45  0  0  0  0  0  0  0  0999 V2000
   22.2421   73.3281   -3.6919 P   0  0  2  0  0  0  0  0  0  0  0  0
   23.1614   72.7879   -4.9087 O   0  0  0  0  0  0  0  0  0  0  0  0
   22.5577   74.7199   -3.2287 O   0  0  0  0  0  0  0  0  0  0  0  0
   22.3639   72.1694   -2.5692 O   0  0  0  0  0  0  0  0  0  0  0  0
   22.1383   70.8254   -2.9574 C   0  0  0  0  0  0  0  0  0  0  0  0
   24.0494   70.5951   -1.5192 O   0  0  0  0  0  0  0  0  0  0  0  0
   24.2473   67.7841   -2.5439 O   0  0  0  0  0  0  0  0  0  0  0  0
   23.0583   67.4482   -0.1129 O   0  0  0  0  0  0  0  0  0  0  0  0
   23.0851   68.5655   -2.2721 C   0  0  1  0  0  0  0  0  0  0  0  0
   22.8662   68.6801   -0.7779 C   0  0  2  0  0  0  0  0  0  0  0  0
   23.3877   70.0073   -2.6607 C   0  0  1  0  0  0  0  0  0  0  0  0
   23.8996   69.7229   -0.3871 C   0  0  2  0  0  0  0  0  0  0  0  0
   24.0781   66.8590   -2.3040 H   0  0  0  0  0  0  0  0  0  0  0  0
   22.3765   66.8186   -0.3949 H   0  0  0  0  0  0  0  0  0  0  0  0
   24.0500   68.8352    2.2901 O   0  0  0  0  0  0  0  0  0  0  0  0
   22.3028   72.7881    3.8912 O   0  0  0  0  0  0  0  0  0  0  0  0
   23.4912   70.4997    0.7492 N   0  0  0  0  0  0  0  0  0  0  0  0
   23.1801   70.8043    3.0852 N   0  0  0  0  0  0  0  0  0  0  0  0
   23.6072   69.9607    2.0517 C   0  0  0  0  0  0  0  0  0  0  0  0
   22.9827   71.7810    0.5661 C   0  0  0  0  0  0  0  0  0  0  0  0
   22.5786   72.5721    1.5621 C   0  0  0  0  0  0  0  0  0  0  0  0
   22.6664   72.0847    2.9537 C   0  0  0  0  0  0  0  0  0  0  0  0
   23.2512   70.4498    4.0012 H   0  0  0  0  0  0  0  0  0  0  0  0
   20.7401   73.1311   -4.2559 O   0  0  0  0  0  0  0  0  0  0  0  0
   19.3034   73.4120   -3.5705 P   0  0  2  0  0  0  0  0  0  0  0  0
   18.9123   74.8833   -4.1181 O   0  0  0  0  0  0  0  0  0  0  0  0
   19.3005   73.2872   -2.0743 O   0  0  0  0  0  0  0  0  0  0  0  0
   18.2873   72.4120   -4.3270 O   0  0  0  0  0  0  0  0  0  0  0  0
   18.7857   70.1337   -4.7481 O   0  0  0  0  0  0  0  0  0  0  0  0
   16.1109   70.8029   -7.8219 O   0  0  0  0  0  0  0  0  0  0  0  0
   15.3139   69.2074   -5.5709 O   0  0  0  0  0  0  0  0  0  0  0  0
   18.0056   72.8627   -7.0825 O   0  0  0  0  0  0  0  0  0  0  0  0
   16.6488   70.9580   -6.5059 C   0  0  1  0  0  0  0  0  0  0  0  0
   16.6631   69.5861   -5.8288 C   0  0  1  0  0  0  0  0  0  0  0  0
   18.0648   71.5217   -6.6086 C   0  0  2  0  0  0  0  0  0  0  0  0
   17.4673   69.6215   -4.5223 C   0  0  1  0  0  0  0  0  0  0  0  0
   18.7938   71.4659   -5.2649 C   0  0  1  0  0  0  0  0  0  0  0  0
   15.2117   70.4458   -7.7638 H   0  0  0  0  0  0  0  0  0  0  0  0
   14.8169   69.1894   -6.4039 H   0  0  0  0  0  0  0  0  0  0  0  0
   17.5422   72.8845   -7.9337 H   0  0  0  0  0  0  0  0  0  0  0  0
   17.1536   68.2687   -2.5779 O   0  0  0  0  0  0  0  0  0  0  0  0
   17.6275   68.2310   -3.9115 C   0  0  0  0  0  0  0  0  0  0  0  0
   17.2491   67.3903   -2.1766 H   0  0  0  0  0  0  0  0  0  0  0  0
 25 28  1  0
 25 24  1  0
 25 26  1  1
 25 27  2  0
  1  4  1  0
  1 24  1  0
  1  2  1  6
  1  3  2  0
  6 11  1  0
  6 12  1  0
 29 36  1  0
 29 37  1  0
  9  7  1  1
  7 13  1  0
 10  8  1  1
  8 14  1  0
 37 28  1  1
  4  5  1  0
 33 30  1  6
 30 38  1  0
 34 31  1  1
 31 39  1  0
 35 32  1  1
 32 40  1  0
 41 42  1  0
 41 43  1  0
 15 19  2  0
 16 22  2  0
 12 17  1  1
 17 19  1  0
 17 20  1  0
 18 19  1  0
 18 22  1  0
 18 23  1  0
  9 10  1  0
  9 11  1  0
 10 12  1  0
 11  5  1  1
 33 34  1  0
 33 35  1  0
 34 36  1  0
 35 37  1  0
 36 42  1  6
 20 21  2  0
 21 22  1  0
M  CHG  2   2  -1  26  -1
M  END
>  <COMPND>  (149) 
    8629 

>  <AUTHOR>  (149) 
    GENERATED BY OPEN BABEL 3.1.1

>  <MASTER>  (149) 
        0    0    0    0    0    0    0    0   58    0   58    0

>  <minimizedAffinity>  (149) 
-7.98560

>  <CNNscore>  (149) 
0.3719280958

>  <CNNaffinity>  (149) 
3.9807765484

>  <CNN_VS>  (149) 
1.4805626869

>  <CNNaffinity_variance>  (149) 
0.6807585955

$$$$
150
     RDKit          3D

 43 45  0  0  0  0  0  0  0  0999 V2000
   22.5359   72.8975   -3.6268 P   0  0  2  0  0  0  0  0  0  0  0  0
   23.9752   72.8948   -4.3656 O   0  0  0  0  0  0  0  0  0  0  0  0
   22.0622   74.2448   -3.1668 O   0  0  0  0  0  0  0  0  0  0  0  0
   22.6901   71.7749   -2.4718 O   0  0  0  0  0  0  0  0  0  0  0  0
   22.6976   72.1940   -1.1183 C   0  0  0  0  0  0  0  0  0  0  0  0
   21.9176   69.9253   -0.9833 O   0  0  0  0  0  0  0  0  0  0  0  0
   21.5233   70.4326    1.9456 O   0  0  0  0  0  0  0  0  0  0  0  0
   23.8723   69.0483    1.8930 O   0  0  0  0  0  0  0  0  0  0  0  0
   22.5462   70.9152    1.0760 C   0  0  1  0  0  0  0  0  0  0  0  0
   23.5271   69.8076    0.7524 C   0  0  2  0  0  0  0  0  0  0  0  0
   21.9156   71.1890   -0.2837 C   0  0  1  0  0  0  0  0  0  0  0  0
   22.7591   68.9979   -0.2785 C   0  0  2  0  0  0  0  0  0  0  0  0
   21.9021   70.2510    2.8205 H   0  0  0  0  0  0  0  0  0  0  0  0
   24.3590   69.6074    2.5186 H   0  0  0  0  0  0  0  0  0  0  0  0
   23.1448   66.2036   -0.4236 O   0  0  0  0  0  0  0  0  0  0  0  0
   26.1095   66.6106   -3.9288 O   0  0  0  0  0  0  0  0  0  0  0  0
   23.6258   68.3465   -1.2197 N   0  0  0  0  0  0  0  0  0  0  0  0
   24.6206   66.4085   -2.1689 N   0  0  0  0  0  0  0  0  0  0  0  0
   23.7492   66.9376   -1.2083 C   0  0  0  0  0  0  0  0  0  0  0  0
   24.3419   69.1031   -2.1409 C   0  0  0  0  0  0  0  0  0  0  0  0
   25.1697   68.5833   -3.0497 C   0  0  0  0  0  0  0  0  0  0  0  0
   25.3554   67.1189   -3.1049 C   0  0  0  0  0  0  0  0  0  0  0  0
   24.7227   65.4291   -2.1795 H   0  0  0  0  0  0  0  0  0  0  0  0
   21.5718   72.1779   -4.7065 O   0  0  0  0  0  0  0  0  0  0  0  0
   20.0432   71.6655   -4.5893 P   0  0  2  0  0  0  0  0  0  0  0  0
   19.6753   71.9469   -3.0391 O   0  0  0  0  0  0  0  0  0  0  0  0
   19.8353   70.2445   -5.0269 O   0  0  0  0  0  0  0  0  0  0  0  0
   19.1834   72.7526   -5.4161 O   0  0  0  0  0  0  0  0  0  0  0  0
   17.8752   72.5129   -7.3777 O   0  0  0  0  0  0  0  0  0  0  0  0
   19.4601   76.2578   -8.0953 O   0  0  0  0  0  0  0  0  0  0  0  0
   16.6894   76.0032   -7.3837 O   0  0  0  0  0  0  0  0  0  0  0  0
   21.0946   74.2096   -6.8652 O   0  0  0  0  0  0  0  0  0  0  0  0
   18.9388   75.1956   -7.2918 C   0  0  1  0  0  0  0  0  0  0  0  0
   17.5110   74.9000   -7.7552 C   0  0  1  0  0  0  0  0  0  0  0  0
   19.8246   73.9624   -7.4590 C   0  0  2  0  0  0  0  0  0  0  0  0
   16.9817   73.6039   -7.1266 C   0  0  1  0  0  0  0  0  0  0  0  0
   19.1834   72.7185   -6.8410 C   0  0  1  0  0  0  0  0  0  0  0  0
   18.9025   77.0440   -7.9933 H   0  0  0  0  0  0  0  0  0  0  0  0
   17.0347   76.8153   -7.7867 H   0  0  0  0  0  0  0  0  0  0  0  0
   21.4901   74.9991   -7.2652 H   0  0  0  0  0  0  0  0  0  0  0  0
   15.4735   73.8077   -8.9685 O   0  0  0  0  0  0  0  0  0  0  0  0
   15.6214   73.2064   -7.6954 C   0  0  0  0  0  0  0  0  0  0  0  0
   14.6122   73.5632   -9.3428 H   0  0  0  0  0  0  0  0  0  0  0  0
 25 28  1  0
 25 24  1  0
 25 26  1  1
 25 27  2  0
  1  4  1  0
  1 24  1  0
  1  2  1  6
  1  3  2  0
  6 11  1  0
  6 12  1  0
 29 36  1  0
 29 37  1  0
  9  7  1  1
  7 13  1  0
 10  8  1  1
  8 14  1  0
 37 28  1  1
  4  5  1  0
 33 30  1  6
 30 38  1  0
 34 31  1  1
 31 39  1  0
 35 32  1  1
 32 40  1  0
 41 42  1  0
 41 43  1  0
 15 19  2  0
 16 22  2  0
 12 17  1  6
 17 19  1  0
 17 20  1  0
 18 19  1  0
 18 22  1  0
 18 23  1  0
  9 10  1  0
  9 11  1  0
 10 12  1  0
 11  5  1  6
 33 34  1  0
 33 35  1  0
 34 36  1  0
 35 37  1  0
 36 42  1  6
 20 21  2  0
 21 22  1  0
M  CHG  2   2  -1  26  -1
M  END
>  <COMPND>  (150) 
    8629 

>  <AUTHOR>  (150) 
    GENERATED BY OPEN BABEL 3.1.1

>  <MASTER>  (150) 
        0    0    0    0    0    0    0    0   58    0   58    0

>  <minimizedAffinity>  (150) 
-7.88026

>  <CNNscore>  (150) 
0.3683910668

>  <CNNaffinity>  (150) 
4.1708669662

>  <CNN_VS>  (150) 
1.5365101099

>  <CNNaffinity_variance>  (150) 
0.1582568437

$$$$
151
     RDKit          3D

 43 45  0  0  0  0  0  0  0  0999 V2000
   20.1323   74.4121   -3.4698 P   0  0  2  0  0  0  0  0  0  0  0  0
   20.1963   74.7478   -1.8884 O   0  0  0  0  0  0  0  0  0  0  0  0
   20.4194   75.5729   -4.3762 O   0  0  0  0  0  0  0  0  0  0  0  0
   18.6856   73.7130   -3.6602 O   0  0  0  0  0  0  0  0  0  0  0  0
   18.2566   72.7722   -2.6914 C   0  0  0  0  0  0  0  0  0  0  0  0
   16.7085   72.3586   -4.4819 O   0  0  0  0  0  0  0  0  0  0  0  0
   15.1788   70.6824   -2.5219 O   0  0  0  0  0  0  0  0  0  0  0  0
   16.5247   68.8121   -3.9803 O   0  0  0  0  0  0  0  0  0  0  0  0
   16.5889   70.8510   -2.6574 C   0  0  1  0  0  0  0  0  0  0  0  0
   17.0938   70.1010   -3.8724 C   0  0  2  0  0  0  0  0  0  0  0  0
   16.8531   72.3004   -3.0459 C   0  0  1  0  0  0  0  0  0  0  0  0
   16.6763   71.0213   -5.0068 C   0  0  2  0  0  0  0  0  0  0  0  0
   14.9854   69.7643   -2.2738 H   0  0  0  0  0  0  0  0  0  0  0  0
   16.8202   68.2647   -3.2362 H   0  0  0  0  0  0  0  0  0  0  0  0
   15.8368   70.6446   -7.6772 O   0  0  0  0  0  0  0  0  0  0  0  0
   20.1704   70.7259   -9.2439 O   0  0  0  0  0  0  0  0  0  0  0  0
   17.5639   70.9407   -6.1324 N   0  0  0  0  0  0  0  0  0  0  0  0
   17.9952   70.6855   -8.4552 N   0  0  0  0  0  0  0  0  0  0  0  0
   17.0404   70.7491   -7.4323 C   0  0  0  0  0  0  0  0  0  0  0  0
   18.9369   71.0516   -5.9415 C   0  0  0  0  0  0  0  0  0  0  0  0
   19.8342   70.9876   -6.9274 C   0  0  0  0  0  0  0  0  0  0  0  0
   19.3702   70.7890   -8.3157 C   0  0  0  0  0  0  0  0  0  0  0  0
   17.6538   70.5521   -9.3691 H   0  0  0  0  0  0  0  0  0  0  0  0
   21.1579   73.1717   -3.6198 O   0  0  0  0  0  0  0  0  0  0  0  0
   22.7266   73.0410   -3.2526 P   0  0  2  0  0  0  0  0  0  0  0  0
   23.1020   74.5140   -2.6986 O   0  0  0  0  0  0  0  0  0  0  0  0
   23.5872   72.5687   -4.3884 O   0  0  0  0  0  0  0  0  0  0  0  0
   22.7629   72.0930   -1.9468 O   0  0  0  0  0  0  0  0  0  0  0  0
   22.1934   69.7926   -1.9628 O   0  0  0  0  0  0  0  0  0  0  0  0
   21.2666   70.6746    1.9633 O   0  0  0  0  0  0  0  0  0  0  0  0
   23.5992   69.1058    1.3751 O   0  0  0  0  0  0  0  0  0  0  0  0
   20.6902   72.5965   -0.1232 O   0  0  0  0  0  0  0  0  0  0  0  0
   22.0086   70.7773    0.7450 C   0  0  1  0  0  0  0  0  0  0  0  0
   22.5857   69.3988    0.4173 C   0  0  1  0  0  0  0  0  0  0  0  0
   21.0760   71.2485   -0.3693 C   0  0  2  0  0  0  0  0  0  0  0  0
   23.1666   69.3648   -1.0027 C   0  0  1  0  0  0  0  0  0  0  0  0
   21.7337   71.1279   -1.7451 C   0  0  1  0  0  0  0  0  0  0  0  0
   21.8531   70.3763    2.6750 H   0  0  0  0  0  0  0  0  0  0  0  0
   23.2194   69.1310    2.2674 H   0  0  0  0  0  0  0  0  0  0  0  0
   20.2749   72.6595    0.7505 H   0  0  0  0  0  0  0  0  0  0  0  0
   23.2522   67.0621   -0.3709 O   0  0  0  0  0  0  0  0  0  0  0  0
   23.6049   67.9591   -1.4079 C   0  0  0  0  0  0  0  0  0  0  0  0
   23.5248   66.1633   -0.6151 H   0  0  0  0  0  0  0  0  0  0  0  0
 25 28  1  0
 25 24  1  0
 25 26  1  1
 25 27  2  0
  1  4  1  0
  1 24  1  0
  1  2  1  1
  1  3  2  0
  6 11  1  0
  6 12  1  0
 29 36  1  0
 29 37  1  0
  9  7  1  6
  7 13  1  0
 10  8  1  6
  8 14  1  0
 37 28  1  1
  4  5  1  0
 33 30  1  1
 30 38  1  0
 34 31  1  1
 31 39  1  0
 35 32  1  1
 32 40  1  0
 41 42  1  0
 41 43  1  0
 15 19  2  0
 16 22  2  0
 12 17  1  6
 17 19  1  0
 17 20  1  0
 18 19  1  0
 18 22  1  0
 18 23  1  0
  9 10  1  0
  9 11  1  0
 10 12  1  0
 11  5  1  6
 33 34  1  0
 33 35  1  0
 34 36  1  0
 35 37  1  0
 36 42  1  6
 20 21  2  0
 21 22  1  0
M  CHG  2   2  -1  26  -1
M  END
>  <COMPND>  (151) 
    8629 

>  <AUTHOR>  (151) 
    GENERATED BY OPEN BABEL 3.1.1

>  <MASTER>  (151) 
        0    0    0    0    0    0    0    0   58    0   58    0

>  <minimizedAffinity>  (151) 
-7.58834

>  <CNNscore>  (151) 
0.3630652130

>  <CNNaffinity>  (151) 
4.1768088341

>  <CNN_VS>  (151) 
1.5164539814

>  <CNNaffinity_variance>  (151) 
0.2510720789

$$$$
152
     RDKit          3D

 43 45  0  0  0  0  0  0  0  0999 V2000
   22.9931   73.4419   -4.4742 P   0  0  2  0  0  0  0  0  0  0  0  0
   22.7464   72.9404   -5.9925 O   0  0  0  0  0  0  0  0  0  0  0  0
   23.9316   74.6043   -4.3353 O   0  0  0  0  0  0  0  0  0  0  0  0
   23.4203   72.0956   -3.6851 O   0  0  0  0  0  0  0  0  0  0  0  0
   22.4002   71.2101   -3.2572 C   0  0  0  0  0  0  0  0  0  0  0  0
   23.8411   70.3857   -1.5199 O   0  0  0  0  0  0  0  0  0  0  0  0
   22.6482   67.6899   -2.0676 O   0  0  0  0  0  0  0  0  0  0  0  0
   21.3100   68.4885    0.1702 O   0  0  0  0  0  0  0  0  0  0  0  0
   22.0284   68.9744   -2.1011 C   0  0  1  0  0  0  0  0  0  0  0  0
   21.8088   69.4891   -0.6938 C   0  0  2  0  0  0  0  0  0  0  0  0
   23.0424   69.9706   -2.6495 C   0  0  1  0  0  0  0  0  0  0  0  0
   23.2026   69.9538   -0.3072 C   0  0  2  0  0  0  0  0  0  0  0  0
   22.0195   67.0367   -1.7211 H   0  0  0  0  0  0  0  0  0  0  0  0
   20.4215   68.2264   -0.1172 H   0  0  0  0  0  0  0  0  0  0  0  0
   23.7450   69.7159    2.4545 O   0  0  0  0  0  0  0  0  0  0  0  0
   23.0737   74.2205    3.1610 O   0  0  0  0  0  0  0  0  0  0  0  0
   23.1770   71.0483    0.6217 N   0  0  0  0  0  0  0  0  0  0  0  0
   23.4105   71.9590    2.8040 N   0  0  0  0  0  0  0  0  0  0  0  0
   23.4636   70.8217    1.9881 C   0  0  0  0  0  0  0  0  0  0  0  0
   22.8707   72.3292    0.1752 C   0  0  0  0  0  0  0  0  0  0  0  0
   22.8229   73.4029    0.9663 C   0  0  0  0  0  0  0  0  0  0  0  0
   23.1096   73.2525    2.4076 C   0  0  0  0  0  0  0  0  0  0  0  0
   23.6062   71.8253    3.7598 H   0  0  0  0  0  0  0  0  0  0  0  0
   21.4946   73.7190   -3.9350 O   0  0  0  0  0  0  0  0  0  0  0  0
   20.3015   74.6292   -4.5360 P   0  0  2  0  0  0  0  0  0  0  0  0
   21.0754   75.6501   -5.5241 O   0  0  0  0  0  0  0  0  0  0  0  0
   19.4539   75.2993   -3.4936 O   0  0  0  0  0  0  0  0  0  0  0  0
   19.4918   73.6417   -5.5230 O   0  0  0  0  0  0  0  0  0  0  0  0
   19.9598   73.2374   -7.8108 O   0  0  0  0  0  0  0  0  0  0  0  0
   15.8654   72.7047   -7.8706 O   0  0  0  0  0  0  0  0  0  0  0  0
   17.5956   70.4254   -8.1148 O   0  0  0  0  0  0  0  0  0  0  0  0
   17.0271   74.7844   -6.2260 O   0  0  0  0  0  0  0  0  0  0  0  0
   17.1798   72.6393   -7.3107 C   0  0  1  0  0  0  0  0  0  0  0  0
   18.0479   71.7722   -8.2246 C   0  0  1  0  0  0  0  0  0  0  0  0
   17.7503   74.0528   -7.2099 C   0  0  2  0  0  0  0  0  0  0  0  0
   19.5298   71.8713   -7.8386 C   0  0  1  0  0  0  0  0  0  0  0  0
   19.2415   74.0370   -6.8692 C   0  0  1  0  0  0  0  0  0  0  0  0
   15.4973   71.8105   -7.9368 H   0  0  0  0  0  0  0  0  0  0  0  0
   16.6584   70.3767   -8.3609 H   0  0  0  0  0  0  0  0  0  0  0  0
   16.0846   74.7873   -6.4532 H   0  0  0  0  0  0  0  0  0  0  0  0
   19.6964   70.9165  -10.0225 O   0  0  0  0  0  0  0  0  0  0  0  0
   20.4299   71.1405   -8.8325 C   0  0  0  0  0  0  0  0  0  0  0  0
   20.2568   70.4523  -10.6645 H   0  0  0  0  0  0  0  0  0  0  0  0
 25 28  1  0
 25 24  1  0
 25 26  1  6
 25 27  2  0
  1  4  1  0
  1 24  1  0
  1  2  1  6
  1  3  2  0
  6 11  1  0
  6 12  1  0
 29 36  1  0
 29 37  1  0
  9  7  1  1
  7 13  1  0
 10  8  1  1
  8 14  1  0
 37 28  1  1
  4  5  1  0
 33 30  1  6
 30 38  1  0
 34 31  1  1
 31 39  1  0
 35 32  1  1
 32 40  1  0
 41 42  1  0
 41 43  1  0
 15 19  2  0
 16 22  2  0
 12 17  1  1
 17 19  1  0
 17 20  1  0
 18 19  1  0
 18 22  1  0
 18 23  1  0
  9 10  1  0
  9 11  1  0
 10 12  1  0
 11  5  1  1
 33 34  1  0
 33 35  1  0
 34 36  1  0
 35 37  1  0
 36 42  1  6
 20 21  2  0
 21 22  1  0
M  CHG  2   2  -1  26  -1
M  END
>  <COMPND>  (152) 
    8629 

>  <AUTHOR>  (152) 
    GENERATED BY OPEN BABEL 3.1.1

>  <MASTER>  (152) 
        0    0    0    0    0    0    0    0   58    0   58    0

>  <minimizedAffinity>  (152) 
-7.32609

>  <CNNscore>  (152) 
0.3593669236

>  <CNNaffinity>  (152) 
3.9673457146

>  <CNN_VS>  (152) 
1.4257328510

>  <CNNaffinity_variance>  (152) 
0.2699813545

$$$$
153
     RDKit          3D

 43 45  0  0  0  0  0  0  0  0999 V2000
   21.1832   74.6767   -5.5264 P   0  0  2  0  0  0  0  0  0  0  0  0
   19.9684   75.6334   -5.0508 O   0  0  0  0  0  0  0  0  0  0  0  0
   22.3956   75.3983   -6.0372 O   0  0  0  0  0  0  0  0  0  0  0  0
   20.4860   73.6513   -6.5659 O   0  0  0  0  0  0  0  0  0  0  0  0
   21.0801   72.3800   -6.7627 C   0  0  0  0  0  0  0  0  0  0  0  0
   19.4715   70.6318   -7.1231 O   0  0  0  0  0  0  0  0  0  0  0  0
   19.0273   71.8537   -9.8250 O   0  0  0  0  0  0  0  0  0  0  0  0
   16.8952   72.7769   -8.3974 O   0  0  0  0  0  0  0  0  0  0  0  0
   19.3030   72.4932   -8.5799 C   0  0  1  0  0  0  0  0  0  0  0  0
   18.0776   72.4626   -7.6904 C   0  0  2  0  0  0  0  0  0  0  0  0
   20.2790   71.6148   -7.8071 C   0  0  1  0  0  0  0  0  0  0  0  0
   18.0923   71.0307   -7.1830 C   0  0  2  0  0  0  0  0  0  0  0  0
   18.4062   72.3963  -10.3365 H   0  0  0  0  0  0  0  0  0  0  0  0
   16.9339   73.6978   -8.6993 H   0  0  0  0  0  0  0  0  0  0  0  0
   15.6049   69.8044   -6.6471 O   0  0  0  0  0  0  0  0  0  0  0  0
   15.9721   70.6158   -2.1251 O   0  0  0  0  0  0  0  0  0  0  0  0
   17.5139   70.9073   -5.8747 N   0  0  0  0  0  0  0  0  0  0  0  0
   15.7898   70.2093   -4.3959 N   0  0  0  0  0  0  0  0  0  0  0  0
   16.2591   70.2748   -5.7141 C   0  0  0  0  0  0  0  0  0  0  0  0
   18.1896   71.4100   -4.7681 C   0  0  0  0  0  0  0  0  0  0  0  0
   17.7279   71.3406   -3.5178 C   0  0  0  0  0  0  0  0  0  0  0  0
   16.4238   70.6952   -3.2634 C   0  0  0  0  0  0  0  0  0  0  0  0
   14.9174   69.7733   -4.2598 H   0  0  0  0  0  0  0  0  0  0  0  0
   21.4482   73.7525   -4.2269 O   0  0  0  0  0  0  0  0  0  0  0  0
   22.8139   73.3933   -3.4404 P   0  0  2  0  0  0  0  0  0  0  0  0
   23.1226   74.7401   -2.5987 O   0  0  0  0  0  0  0  0  0  0  0  0
   23.9379   72.9481   -4.3306 O   0  0  0  0  0  0  0  0  0  0  0  0
   22.3721   72.3100   -2.3285 O   0  0  0  0  0  0  0  0  0  0  0  0
   22.6609   70.1615   -3.2863 O   0  0  0  0  0  0  0  0  0  0  0  0
   21.0492   69.0517    0.3499 O   0  0  0  0  0  0  0  0  0  0  0  0
   23.8366   68.5904   -0.1657 O   0  0  0  0  0  0  0  0  0  0  0  0
   20.0658   71.4132   -1.0050 O   0  0  0  0  0  0  0  0  0  0  0  0
   21.8377   69.8505   -0.5365 C   0  0  1  0  0  0  0  0  0  0  0  0
   22.8989   68.9525   -1.1755 C   0  0  1  0  0  0  0  0  0  0  0  0
   20.9293   70.4542   -1.6059 C   0  0  2  0  0  0  0  0  0  0  0  0
   23.6088   69.6702   -2.3314 C   0  0  1  0  0  0  0  0  0  0  0  0
   21.7364   71.1004   -2.7334 C   0  0  1  0  0  0  0  0  0  0  0  0
   21.6200   68.6658    1.0317 H   0  0  0  0  0  0  0  0  0  0  0  0
   23.3755   68.1385    0.5584 H   0  0  0  0  0  0  0  0  0  0  0  0
   19.5603   70.9917   -0.2932 H   0  0  0  0  0  0  0  0  0  0  0  0
   25.8256   68.7869   -2.4522 O   0  0  0  0  0  0  0  0  0  0  0  0
   24.5593   68.7414   -3.0837 C   0  0  0  0  0  0  0  0  0  0  0  0
   26.4409   68.2002   -2.9201 H   0  0  0  0  0  0  0  0  0  0  0  0
 25 28  1  0
 25 24  1  0
 25 26  1  1
 25 27  2  0
  1  4  1  0
  1 24  1  0
  1  2  1  1
  1  3  2  0
  6 11  1  0
  6 12  1  0
 29 36  1  0
 29 37  1  0
  9  7  1  6
  7 13  1  0
 10  8  1  6
  8 14  1  0
 37 28  1  1
  4  5  1  0
 33 30  1  1
 30 38  1  0
 34 31  1  1
 31 39  1  0
 35 32  1  1
 32 40  1  0
 41 42  1  0
 41 43  1  0
 15 19  2  0
 16 22  2  0
 12 17  1  1
 17 19  1  0
 17 20  1  0
 18 19  1  0
 18 22  1  0
 18 23  1  0
  9 10  1  0
  9 11  1  0
 10 12  1  0
 11  5  1  1
 33 34  1  0
 33 35  1  0
 34 36  1  0
 35 37  1  0
 36 42  1  6
 20 21  2  0
 21 22  1  0
M  CHG  2   2  -1  26  -1
M  END
>  <COMPND>  (153) 
    8629 

>  <AUTHOR>  (153) 
    GENERATED BY OPEN BABEL 3.1.1

>  <MASTER>  (153) 
        0    0    0    0    0    0    0    0   58    0   58    0

>  <minimizedAffinity>  (153) 
-7.97656

>  <CNNscore>  (153) 
0.3450932205

>  <CNNaffinity>  (153) 
3.8914344311

>  <CNN_VS>  (153) 
1.3429076672

>  <CNNaffinity_variance>  (153) 
0.8087180257

$$$$
154
     RDKit          3D

 43 45  0  0  0  0  0  0  0  0999 V2000
   22.0014   73.9541   -5.8225 P   0  0  2  0  0  0  0  0  0  0  0  0
   22.8170   74.0559   -7.2160 O   0  0  0  0  0  0  0  0  0  0  0  0
   21.8907   75.2402   -5.0576 O   0  0  0  0  0  0  0  0  0  0  0  0
   22.7177   72.7315   -5.0415 O   0  0  0  0  0  0  0  0  0  0  0  0
   22.6554   72.7044   -3.6262 C   0  0  0  0  0  0  0  0  0  0  0  0
   21.4127   71.0729   -2.3741 O   0  0  0  0  0  0  0  0  0  0  0  0
   19.1345   73.0207   -2.4551 O   0  0  0  0  0  0  0  0  0  0  0  0
   20.1384   73.3843    0.0542 O   0  0  0  0  0  0  0  0  0  0  0  0
   20.5340   73.2735   -2.3421 C   0  0  1  0  0  0  0  0  0  0  0  0
   21.0203   72.9266   -0.9505 C   0  0  2  0  0  0  0  0  0  0  0  0
   21.2665   72.2491   -3.1996 C   0  0  1  0  0  0  0  0  0  0  0  0
   21.0992   71.4107   -1.0130 C   0  0  2  0  0  0  0  0  0  0  0  0
   18.6455   73.6629   -1.9161 H   0  0  0  0  0  0  0  0  0  0  0  0
   20.1230   74.3541    0.0539 H   0  0  0  0  0  0  0  0  0  0  0  0
   21.1371   68.7636   -0.0283 O   0  0  0  0  0  0  0  0  0  0  0  0
   25.0625   69.4830    2.2772 O   0  0  0  0  0  0  0  0  0  0  0  0
   22.1194   70.8794   -0.1538 N   0  0  0  0  0  0  0  0  0  0  0  0
   23.0917   69.1239    1.1187 N   0  0  0  0  0  0  0  0  0  0  0  0
   22.0445   69.5370    0.2853 C   0  0  0  0  0  0  0  0  0  0  0  0
   23.1795   71.6865    0.2444 C   0  0  0  0  0  0  0  0  0  0  0  0
   24.1696   71.2778    1.0406 C   0  0  0  0  0  0  0  0  0  0  0  0
   24.1665   69.8889    1.5435 C   0  0  0  0  0  0  0  0  0  0  0  0
   23.0604   68.1926    1.4373 H   0  0  0  0  0  0  0  0  0  0  0  0
   20.5865   73.3168   -6.2753 O   0  0  0  0  0  0  0  0  0  0  0  0
   19.0678   73.7604   -5.9439 P   0  0  2  0  0  0  0  0  0  0  0  0
   18.4240   74.0022   -7.4083 O   0  0  0  0  0  0  0  0  0  0  0  0
   18.9586   74.9368   -5.0175 O   0  0  0  0  0  0  0  0  0  0  0  0
   18.3580   72.4154   -5.4035 O   0  0  0  0  0  0  0  0  0  0  0  0
   19.2440   70.2175   -5.4330 O   0  0  0  0  0  0  0  0  0  0  0  0
   15.2380   69.3200   -5.8771 O   0  0  0  0  0  0  0  0  0  0  0  0
   16.5455   68.7717   -3.3795 O   0  0  0  0  0  0  0  0  0  0  0  0
   16.3552   71.6354   -7.2077 O   0  0  0  0  0  0  0  0  0  0  0  0
   16.3616   70.0574   -5.3880 C   0  0  1  0  0  0  0  0  0  0  0  0
   17.2430   69.1061   -4.5762 C   0  0  1  0  0  0  0  0  0  0  0  0
   17.1374   70.6294   -6.5731 C   0  0  2  0  0  0  0  0  0  0  0  0
   18.5952   69.7513   -4.2441 C   0  0  1  0  0  0  0  0  0  0  0  0
   18.4881   71.2024   -6.1404 C   0  0  1  0  0  0  0  0  0  0  0  0
   14.7409   68.9545   -5.1295 H   0  0  0  0  0  0  0  0  0  0  0  0
   15.6933   68.3657   -3.6032 H   0  0  0  0  0  0  0  0  0  0  0  0
   15.5029   71.2601   -7.4772 H   0  0  0  0  0  0  0  0  0  0  0  0
   19.3490   68.8305   -2.1722 O   0  0  0  0  0  0  0  0  0  0  0  0
   19.5493   68.7662   -3.5722 C   0  0  0  0  0  0  0  0  0  0  0  0
   19.9494   68.2085   -1.7314 H   0  0  0  0  0  0  0  0  0  0  0  0
 25 28  1  0
 25 24  1  0
 25 26  1  6
 25 27  2  0
  1  4  1  0
  1 24  1  0
  1  2  1  6
  1  3  2  0
  6 11  1  0
  6 12  1  0
 29 36  1  0
 29 37  1  0
  9  7  1  1
  7 13  1  0
 10  8  1  1
  8 14  1  0
 37 28  1  1
  4  5  1  0
 33 30  1  6
 30 38  1  0
 34 31  1  1
 31 39  1  0
 35 32  1  1
 32 40  1  0
 41 42  1  0
 41 43  1  0
 15 19  2  0
 16 22  2  0
 12 17  1  1
 17 19  1  0
 17 20  1  0
 18 19  1  0
 18 22  1  0
 18 23  1  0
  9 10  1  0
  9 11  1  0
 10 12  1  0
 11  5  1  1
 33 34  1  0
 33 35  1  0
 34 36  1  0
 35 37  1  0
 36 42  1  6
 20 21  2  0
 21 22  1  0
M  CHG  2   2  -1  26  -1
M  END
>  <COMPND>  (154) 
    8629 

>  <AUTHOR>  (154) 
    GENERATED BY OPEN BABEL 3.1.1

>  <MASTER>  (154) 
        0    0    0    0    0    0    0    0   58    0   58    0

>  <minimizedAffinity>  (154) 
-7.61439

>  <CNNscore>  (154) 
0.3371095955

>  <CNNaffinity>  (154) 
3.9486153126

>  <CNN_VS>  (154) 
1.3311160803

>  <CNNaffinity_variance>  (154) 
0.5347558260

$$$$
155
     RDKit          3D

 43 45  0  0  0  0  0  0  0  0999 V2000
   20.7235   73.6524   -5.6165 P   0  0  2  0  0  0  0  0  0  0  0  0
   19.6572   74.5750   -4.8233 O   0  0  0  0  0  0  0  0  0  0  0  0
   21.7080   74.4057   -6.4619 O   0  0  0  0  0  0  0  0  0  0  0  0
   19.8010   72.5789   -6.4004 O   0  0  0  0  0  0  0  0  0  0  0  0
   18.4871   72.3422   -5.9255 C   0  0  0  0  0  0  0  0  0  0  0  0
   17.7830   71.9431   -3.6630 O   0  0  0  0  0  0  0  0  0  0  0  0
   18.4913   69.0701   -4.1474 O   0  0  0  0  0  0  0  0  0  0  0  0
   15.7777   69.0669   -4.4173 O   0  0  0  0  0  0  0  0  0  0  0  0
   17.9234   70.0229   -5.0446 C   0  0  1  0  0  0  0  0  0  0  0  0
   16.4686   70.2664   -4.7012 C   0  0  2  0  0  0  0  0  0  0  0  0
   18.5515   71.3790   -4.7481 C   0  0  1  0  0  0  0  0  0  0  0  0
   16.5789   71.1780   -3.4908 C   0  0  2  0  0  0  0  0  0  0  0  0
   18.1057   68.1959   -4.3178 H   0  0  0  0  0  0  0  0  0  0  0  0
   15.7340   68.5215   -5.2182 H   0  0  0  0  0  0  0  0  0  0  0  0
   14.5551   70.9803   -1.5304 O   0  0  0  0  0  0  0  0  0  0  0  0
   12.3570   74.6877   -3.1630 O   0  0  0  0  0  0  0  0  0  0  0  0
   15.4661   72.0784   -3.3801 N   0  0  0  0  0  0  0  0  0  0  0  0
   13.4624   72.8266   -2.3448 N   0  0  0  0  0  0  0  0  0  0  0  0
   14.5044   71.8906   -2.3601 C   0  0  0  0  0  0  0  0  0  0  0  0
   15.3368   73.1338   -4.2764 C   0  0  0  0  0  0  0  0  0  0  0  0
   14.3365   74.0169   -4.2490 C   0  0  0  0  0  0  0  0  0  0  0  0
   13.2895   73.8917   -3.2145 C   0  0  0  0  0  0  0  0  0  0  0  0
   12.7804   72.7154   -1.6431 H   0  0  0  0  0  0  0  0  0  0  0  0
   21.3873   72.7684   -4.4372 O   0  0  0  0  0  0  0  0  0  0  0  0
   22.7529   72.9737   -3.5969 P   0  0  2  0  0  0  0  0  0  0  0  0
   22.4400   74.2789   -2.6935 O   0  0  0  0  0  0  0  0  0  0  0  0
   23.9861   73.0890   -4.4454 O   0  0  0  0  0  0  0  0  0  0  0  0
   22.7752   71.7475   -2.5477 O   0  0  0  0  0  0  0  0  0  0  0  0
   23.2784   69.5070   -3.1337 O   0  0  0  0  0  0  0  0  0  0  0  0
   20.8683   68.8059    0.1451 O   0  0  0  0  0  0  0  0  0  0  0  0
   23.6994   68.3671    0.3466 O   0  0  0  0  0  0  0  0  0  0  0  0
   20.2251   70.9527   -1.6871 O   0  0  0  0  0  0  0  0  0  0  0  0
   21.8406   69.5125   -0.6300 C   0  0  1  0  0  0  0  0  0  0  0  0
   23.0211   68.5744   -0.8892 C   0  0  1  0  0  0  0  0  0  0  0  0
   21.2046   69.9530   -1.9472 C   0  0  2  0  0  0  0  0  0  0  0  0
   23.9794   69.1651   -1.9322 C   0  0  1  0  0  0  0  0  0  0  0  0
   22.2508   70.4790   -2.9315 C   0  0  1  0  0  0  0  0  0  0  0  0
   21.2656   68.5239    0.9831 H   0  0  0  0  0  0  0  0  0  0  0  0
   23.0831   67.9944    0.9965 H   0  0  0  0  0  0  0  0  0  0  0  0
   19.5685   70.6073   -1.0630 H   0  0  0  0  0  0  0  0  0  0  0  0
   25.8631   68.7627   -3.3460 O   0  0  0  0  0  0  0  0  0  0  0  0
   25.0785   68.1792   -2.3222 C   0  0  0  0  0  0  0  0  0  0  0  0
   26.5669   68.1466   -3.6041 H   0  0  0  0  0  0  0  0  0  0  0  0
 25 28  1  0
 25 24  1  0
 25 26  1  1
 25 27  2  0
  1  4  1  0
  1 24  1  0
  1  2  1  1
  1  3  2  0
  6 11  1  0
  6 12  1  0
 29 36  1  0
 29 37  1  0
  9  7  1  1
  7 13  1  0
 10  8  1  1
  8 14  1  0
 37 28  1  1
  4  5  1  0
 33 30  1  1
 30 38  1  0
 34 31  1  1
 31 39  1  0
 35 32  1  1
 32 40  1  0
 41 42  1  0
 41 43  1  0
 15 19  2  0
 16 22  2  0
 12 17  1  6
 17 19  1  0
 17 20  1  0
 18 19  1  0
 18 22  1  0
 18 23  1  0
  9 10  1  0
  9 11  1  0
 10 12  1  0
 11  5  1  6
 33 34  1  0
 33 35  1  0
 34 36  1  0
 35 37  1  0
 36 42  1  6
 20 21  2  0
 21 22  1  0
M  CHG  2   2  -1  26  -1
M  END
>  <COMPND>  (155) 
    8629 

>  <AUTHOR>  (155) 
    GENERATED BY OPEN BABEL 3.1.1

>  <MASTER>  (155) 
        0    0    0    0    0    0    0    0   58    0   58    0

>  <minimizedAffinity>  (155) 
-7.45519

>  <CNNscore>  (155) 
0.3187152743

>  <CNNaffinity>  (155) 
3.7724838257

>  <CNN_VS>  (155) 
1.2023482323

>  <CNNaffinity_variance>  (155) 
0.8459782600

$$$$
156
     RDKit          3D

 43 45  0  0  0  0  0  0  0  0999 V2000
   22.6391   72.9470   -4.2194 P   0  0  2  0  0  0  0  0  0  0  0  0
   22.2676   72.3187   -5.6633 O   0  0  0  0  0  0  0  0  0  0  0  0
   24.0695   73.3720   -4.0622 O   0  0  0  0  0  0  0  0  0  0  0  0
   22.1165   71.8356   -3.1661 O   0  0  0  0  0  0  0  0  0  0  0  0
   22.4509   71.9907   -1.7980 C   0  0  0  0  0  0  0  0  0  0  0  0
   21.8680   69.6691   -1.5871 O   0  0  0  0  0  0  0  0  0  0  0  0
   21.1204   70.3070    1.2457 O   0  0  0  0  0  0  0  0  0  0  0  0
   23.5764   69.1552    1.5241 O   0  0  0  0  0  0  0  0  0  0  0  0
   22.1824   70.8342    0.4523 C   0  0  1  0  0  0  0  0  0  0  0  0
   23.2877   69.8093    0.3053 C   0  0  2  0  0  0  0  0  0  0  0  0
   21.6780   70.9656   -0.9794 C   0  0  1  0  0  0  0  0  0  0  0  0
   22.7096   68.8702   -0.7396 C   0  0  2  0  0  0  0  0  0  0  0  0
   21.4187   70.2145    2.1646 H   0  0  0  0  0  0  0  0  0  0  0  0
   23.9416   69.7943    2.1557 H   0  0  0  0  0  0  0  0  0  0  0  0
   23.3303   66.1153   -0.6836 O   0  0  0  0  0  0  0  0  0  0  0  0
   26.6317   66.6075   -3.8616 O   0  0  0  0  0  0  0  0  0  0  0  0
   23.7266   68.2514   -1.5423 N   0  0  0  0  0  0  0  0  0  0  0  0
   24.9735   66.3626   -2.2662 N   0  0  0  0  0  0  0  0  0  0  0  0
   23.9595   66.8602   -1.4378 C   0  0  0  0  0  0  0  0  0  0  0  0
   24.4801   69.0218   -2.4212 C   0  0  0  0  0  0  0  0  0  0  0  0
   25.4444   68.5322   -3.2033 C   0  0  0  0  0  0  0  0  0  0  0  0
   25.7509   67.0880   -3.1550 C   0  0  0  0  0  0  0  0  0  0  0  0
   25.1538   65.3961   -2.2102 H   0  0  0  0  0  0  0  0  0  0  0  0
   21.5608   74.1399   -4.0538 O   0  0  0  0  0  0  0  0  0  0  0  0
   19.9554   74.1016   -3.8691 P   0  0  2  0  0  0  0  0  0  0  0  0
   19.5096   75.6254   -4.1802 O   0  0  0  0  0  0  0  0  0  0  0  0
   19.5017   73.5837   -2.5350 O   0  0  0  0  0  0  0  0  0  0  0  0
   19.4188   73.2537   -5.1333 O   0  0  0  0  0  0  0  0  0  0  0  0
   19.9222   73.4024   -7.4444 O   0  0  0  0  0  0  0  0  0  0  0  0
   15.8812   72.5926   -7.7001 O   0  0  0  0  0  0  0  0  0  0  0  0
   17.7823   70.5595   -8.4076 O   0  0  0  0  0  0  0  0  0  0  0  0
   16.8752   74.3369   -5.6147 O   0  0  0  0  0  0  0  0  0  0  0  0
   17.1953   72.5029   -7.1429 C   0  0  1  0  0  0  0  0  0  0  0  0
   18.1298   71.9270   -8.2086 C   0  0  1  0  0  0  0  0  0  0  0  0
   17.6551   73.8974   -6.7216 C   0  0  2  0  0  0  0  0  0  0  0  0
   19.5988   72.0483   -7.7814 C   0  0  1  0  0  0  0  0  0  0  0  0
   19.1422   73.9177   -6.3637 C   0  0  1  0  0  0  0  0  0  0  0  0
   15.5832   71.7104   -7.9692 H   0  0  0  0  0  0  0  0  0  0  0  0
   16.8523   70.4968   -8.6765 H   0  0  0  0  0  0  0  0  0  0  0  0
   15.9359   74.3198   -5.8540 H   0  0  0  0  0  0  0  0  0  0  0  0
   20.8135   70.2394   -8.7619 O   0  0  0  0  0  0  0  0  0  0  0  0
   20.5549   71.6250   -8.8944 C   0  0  0  0  0  0  0  0  0  0  0  0
   21.4205   69.9559   -9.4639 H   0  0  0  0  0  0  0  0  0  0  0  0
 25 28  1  0
 25 24  1  0
 25 26  1  6
 25 27  2  0
  1  4  1  0
  1 24  1  0
  1  2  1  6
  1  3  2  0
  6 11  1  0
  6 12  1  0
 29 36  1  0
 29 37  1  0
  9  7  1  1
  7 13  1  0
 10  8  1  1
  8 14  1  0
 37 28  1  1
  4  5  1  0
 33 30  1  6
 30 38  1  0
 34 31  1  1
 31 39  1  0
 35 32  1  1
 32 40  1  0
 41 42  1  0
 41 43  1  0
 15 19  2  0
 16 22  2  0
 12 17  1  6
 17 19  1  0
 17 20  1  0
 18 19  1  0
 18 22  1  0
 18 23  1  0
  9 10  1  0
  9 11  1  0
 10 12  1  0
 11  5  1  6
 33 34  1  0
 33 35  1  0
 34 36  1  0
 35 37  1  0
 36 42  1  6
 20 21  2  0
 21 22  1  0
M  CHG  2   2  -1  26  -1
M  END
>  <COMPND>  (156) 
    8629 

>  <AUTHOR>  (156) 
    GENERATED BY OPEN BABEL 3.1.1

>  <MASTER>  (156) 
        0    0    0    0    0    0    0    0   58    0   58    0

>  <minimizedAffinity>  (156) 
-8.21369

>  <CNNscore>  (156) 
0.3171115220

>  <CNNaffinity>  (156) 
4.2366771698

>  <CNN_VS>  (156) 
1.3434991837

>  <CNNaffinity_variance>  (156) 
0.2293449640

$$$$
157
     RDKit          3D

 43 45  0  0  0  0  0  0  0  0999 V2000
   20.7104   70.3531   -2.5617 P   0  0  2  0  0  0  0  0  0  0  0  0
   19.6564   71.4724   -2.0579 O   0  0  0  0  0  0  0  0  0  0  0  0
   20.0934   69.0732   -3.0440 O   0  0  0  0  0  0  0  0  0  0  0  0
   21.7469   70.2120   -1.3273 O   0  0  0  0  0  0  0  0  0  0  0  0
   22.2113   71.3926   -0.6962 C   0  0  0  0  0  0  0  0  0  0  0  0
   23.9245   72.2765    0.7382 O   0  0  0  0  0  0  0  0  0  0  0  0
   24.2346   69.4813    1.7780 O   0  0  0  0  0  0  0  0  0  0  0  0
   22.7467   70.6781    3.7249 O   0  0  0  0  0  0  0  0  0  0  0  0
   23.0517   70.1653    1.3679 C   0  0  1  0  0  0  0  0  0  0  0  0
   22.6467   71.1866    2.4103 C   0  0  2  0  0  0  0  0  0  0  0  0
   23.4088   71.0486    0.1790 C   0  0  1  0  0  0  0  0  0  0  0  0
   23.6283   72.3151    2.1438 C   0  0  2  0  0  0  0  0  0  0  0  0
   24.0315   68.9104    2.5362 H   0  0  0  0  0  0  0  0  0  0  0  0
   22.1025   69.9630    3.8450 H   0  0  0  0  0  0  0  0  0  0  0  0
   23.5181   73.3850    4.7555 O   0  0  0  0  0  0  0  0  0  0  0  0
   21.5172   77.2653    3.2787 O   0  0  0  0  0  0  0  0  0  0  0  0
   23.0841   73.6029    2.4705 N   0  0  0  0  0  0  0  0  0  0  0  0
   22.5220   75.3163    4.0180 N   0  0  0  0  0  0  0  0  0  0  0  0
   23.0756   74.0459    3.8136 C   0  0  0  0  0  0  0  0  0  0  0  0
   22.5668   74.4120    1.4647 C   0  0  0  0  0  0  0  0  0  0  0  0
   22.0413   75.6205    1.6763 C   0  0  0  0  0  0  0  0  0  0  0  0
   21.9941   76.1577    3.0515 C   0  0  0  0  0  0  0  0  0  0  0  0
   22.5050   75.6456    4.9459 H   0  0  0  0  0  0  0  0  0  0  0  0
   21.5761   71.1438   -3.6745 O   0  0  0  0  0  0  0  0  0  0  0  0
   21.3102   72.5517   -4.4230 P   0  0  2  0  0  0  0  0  0  0  0  0
   22.5752   72.6851   -5.4227 O   0  0  0  0  0  0  0  0  0  0  0  0
   21.1289   73.7175   -3.4946 O   0  0  0  0  0  0  0  0  0  0  0  0
   20.0521   72.2673   -5.3932 O   0  0  0  0  0  0  0  0  0  0  0  0
   18.9139   70.2222   -5.7652 O   0  0  0  0  0  0  0  0  0  0  0  0
   18.5607   71.8691   -9.5353 O   0  0  0  0  0  0  0  0  0  0  0  0
   16.2544   71.7229   -7.8302 O   0  0  0  0  0  0  0  0  0  0  0  0
   21.0090   72.2179   -8.0308 O   0  0  0  0  0  0  0  0  0  0  0  0
   18.6246   71.8864   -8.1067 C   0  0  1  0  0  0  0  0  0  0  0  0
   17.4741   71.0357   -7.5649 C   0  0  1  0  0  0  0  0  0  0  0  0
   19.9702   71.3179   -7.6603 C   0  0  2  0  0  0  0  0  0  0  0  0
   17.6307   70.7870   -6.0587 C   0  0  1  0  0  0  0  0  0  0  0  0
   20.0031   71.0621   -6.1524 C   0  0  1  0  0  0  0  0  0  0  0  0
   17.7089   72.2293   -9.8254 H   0  0  0  0  0  0  0  0  0  0  0  0
   16.1680   71.8741   -8.7846 H   0  0  0  0  0  0  0  0  0  0  0  0
   20.9777   72.3714   -8.9876 H   0  0  0  0  0  0  0  0  0  0  0  0
   15.4942   70.5575   -5.0139 O   0  0  0  0  0  0  0  0  0  0  0  0
   16.5821   69.8117   -5.5280 C   0  0  0  0  0  0  0  0  0  0  0  0
   14.8188   69.9498   -4.6729 H   0  0  0  0  0  0  0  0  0  0  0  0
 25 28  1  0
 25 24  1  0
 25 26  1  6
 25 27  2  0
  1  4  1  0
  1 24  1  0
  1  2  1  1
  1  3  2  0
  6 11  1  0
  6 12  1  0
 29 36  1  0
 29 37  1  0
  9  7  1  1
  7 13  1  0
 10  8  1  1
  8 14  1  0
 37 28  1  1
  4  5  1  0
 33 30  1  6
 30 38  1  0
 34 31  1  1
 31 39  1  0
 35 32  1  1
 32 40  1  0
 41 42  1  0
 41 43  1  0
 15 19  2  0
 16 22  2  0
 12 17  1  6
 17 19  1  0
 17 20  1  0
 18 19  1  0
 18 22  1  0
 18 23  1  0
  9 10  1  0
  9 11  1  0
 10 12  1  0
 11  5  1  1
 33 34  1  0
 33 35  1  0
 34 36  1  0
 35 37  1  0
 36 42  1  6
 20 21  2  0
 21 22  1  0
M  CHG  2   2  -1  26  -1
M  END
>  <COMPND>  (157) 
    8629 

>  <AUTHOR>  (157) 
    GENERATED BY OPEN BABEL 3.1.1

>  <MASTER>  (157) 
        0    0    0    0    0    0    0    0   58    0   58    0

>  <minimizedAffinity>  (157) 
-7.05991

>  <CNNscore>  (157) 
0.3064551651

>  <CNNaffinity>  (157) 
4.0340452194

>  <CNN_VS>  (157) 
1.2362539768

>  <CNNaffinity_variance>  (157) 
0.0239527356

$$$$
158
     RDKit          3D

 43 45  0  0  0  0  0  0  0  0999 V2000
   21.5339   73.6064   -5.9518 P   0  0  2  0  0  0  0  0  0  0  0  0
   21.7568   75.2087   -5.9705 O   0  0  0  0  0  0  0  0  0  0  0  0
   22.4494   72.8287   -6.8510 O   0  0  0  0  0  0  0  0  0  0  0  0
   19.9513   73.4310   -6.2389 O   0  0  0  0  0  0  0  0  0  0  0  0
   19.3046   74.3829   -7.0656 C   0  0  0  0  0  0  0  0  0  0  0  0
   18.0780   72.3788   -7.5689 O   0  0  0  0  0  0  0  0  0  0  0  0
   16.8152   73.9353   -9.7991 O   0  0  0  0  0  0  0  0  0  0  0  0
   14.8851   73.9837   -7.8732 O   0  0  0  0  0  0  0  0  0  0  0  0
   17.2019   74.3750   -8.4981 C   0  0  1  0  0  0  0  0  0  0  0  0
   16.2299   73.8584   -7.4580 C   0  0  2  0  0  0  0  0  0  0  0  0
   18.4874   73.6495   -8.1204 C   0  0  1  0  0  0  0  0  0  0  0  0
   16.6644   72.4099   -7.3127 C   0  0  2  0  0  0  0  0  0  0  0  0
   15.9966   74.3853  -10.0622 H   0  0  0  0  0  0  0  0  0  0  0  0
   14.6568   74.9232   -7.9510 H   0  0  0  0  0  0  0  0  0  0  0  0
   16.0410   69.7137   -6.7467 O   0  0  0  0  0  0  0  0  0  0  0  0
   15.7363   70.5427   -2.2233 O   0  0  0  0  0  0  0  0  0  0  0  0
   16.4177   71.8935   -5.9959 N   0  0  0  0  0  0  0  0  0  0  0  0
   15.8900   70.1286   -4.4949 N   0  0  0  0  0  0  0  0  0  0  0  0
   16.1118   70.5238   -5.8202 C   0  0  0  0  0  0  0  0  0  0  0  0
   16.4806   72.7419   -4.8958 C   0  0  0  0  0  0  0  0  0  0  0  0
   16.2652   72.3496   -3.6385 C   0  0  0  0  0  0  0  0  0  0  0  0
   15.9397   70.9343   -3.3683 C   0  0  0  0  0  0  0  0  0  0  0  0
   15.6748   69.1789   -4.3483 H   0  0  0  0  0  0  0  0  0  0  0  0
   21.6614   73.2400   -4.3826 O   0  0  0  0  0  0  0  0  0  0  0  0
   22.9370   73.2520   -3.3899 P   0  0  2  0  0  0  0  0  0  0  0  0
   22.7070   74.5874   -2.5061 O   0  0  0  0  0  0  0  0  0  0  0  0
   24.2632   73.1944   -4.0913 O   0  0  0  0  0  0  0  0  0  0  0  0
   22.6688   72.0340   -2.3654 O   0  0  0  0  0  0  0  0  0  0  0  0
   23.0437   69.8593   -3.2296 O   0  0  0  0  0  0  0  0  0  0  0  0
   20.8772   68.8650    0.1422 O   0  0  0  0  0  0  0  0  0  0  0  0
   23.6979   68.3307    0.0604 O   0  0  0  0  0  0  0  0  0  0  0  0
   20.1681   71.2177   -1.3880 O   0  0  0  0  0  0  0  0  0  0  0  0
   21.8097   69.6266   -0.6298 C   0  0  1  0  0  0  0  0  0  0  0  0
   22.9317   68.6915   -1.0855 C   0  0  1  0  0  0  0  0  0  0  0  0
   21.0876   70.2269   -1.8346 C   0  0  2  0  0  0  0  0  0  0  0  0
   23.8249   69.3679   -2.1342 C   0  0  1  0  0  0  0  0  0  0  0  0
   22.0707   70.8303   -2.8393 C   0  0  1  0  0  0  0  0  0  0  0  0
   21.3293   68.4815    0.9090 H   0  0  0  0  0  0  0  0  0  0  0  0
   23.1220   67.9051    0.7150 H   0  0  0  0  0  0  0  0  0  0  0  0
   19.5511   70.8232   -0.7528 H   0  0  0  0  0  0  0  0  0  0  0  0
   24.2482   67.1297   -2.8554 O   0  0  0  0  0  0  0  0  0  0  0  0
   24.8537   68.4020   -2.7178 C   0  0  0  0  0  0  0  0  0  0  0  0
   24.8913   66.5047   -3.2261 H   0  0  0  0  0  0  0  0  0  0  0  0
 25 28  1  0
 25 24  1  0
 25 26  1  1
 25 27  2  0
  1  4  1  0
  1 24  1  0
  1  2  1  1
  1  3  2  0
  6 11  1  0
  6 12  1  0
 29 36  1  0
 29 37  1  0
  9  7  1  6
  7 13  1  0
 10  8  1  6
  8 14  1  0
 37 28  1  1
  4  5  1  0
 33 30  1  1
 30 38  1  0
 34 31  1  1
 31 39  1  0
 35 32  1  1
 32 40  1  0
 41 42  1  0
 41 43  1  0
 15 19  2  0
 16 22  2  0
 12 17  1  1
 17 19  1  0
 17 20  1  0
 18 19  1  0
 18 22  1  0
 18 23  1  0
  9 10  1  0
  9 11  1  0
 10 12  1  0
 11  5  1  1
 33 34  1  0
 33 35  1  0
 34 36  1  0
 35 37  1  0
 36 42  1  6
 20 21  2  0
 21 22  1  0
M  CHG  2   2  -1  26  -1
M  END
>  <COMPND>  (158) 
    8629 

>  <AUTHOR>  (158) 
    GENERATED BY OPEN BABEL 3.1.1

>  <MASTER>  (158) 
        0    0    0    0    0    0    0    0   58    0   58    0

>  <minimizedAffinity>  (158) 
-8.26674

>  <CNNscore>  (158) 
0.2940794230

>  <CNNaffinity>  (158) 
3.7611465454

>  <CNN_VS>  (158) 
1.1060757637

>  <CNNaffinity_variance>  (158) 
0.7914308310

$$$$
159
     RDKit          3D

 43 45  0  0  0  0  0  0  0  0999 V2000
   22.3137   69.1857   -0.2057 P   0  0  2  0  0  0  0  0  0  0  0  0
   23.4464   68.0455   -0.0210 O   0  0  0  0  0  0  0  0  0  0  0  0
   20.9013   68.6795   -0.2208 O   0  0  0  0  0  0  0  0  0  0  0  0
   22.7855   69.9914   -1.5272 O   0  0  0  0  0  0  0  0  0  0  0  0
   22.0174   69.8581   -2.7105 C   0  0  0  0  0  0  0  0  0  0  0  0
   20.6051   71.0707   -4.2299 O   0  0  0  0  0  0  0  0  0  0  0  0
   20.9865   73.4241   -2.4114 O   0  0  0  0  0  0  0  0  0  0  0  0
   18.5166   72.5152   -1.6973 O   0  0  0  0  0  0  0  0  0  0  0  0
   20.8695   72.0405   -2.0839 C   0  0  1  0  0  0  0  0  0  0  0  0
   19.4334   71.5840   -2.2348 C   0  0  2  0  0  0  0  0  0  0  0  0
   21.5739   71.2396   -3.1719 C   0  0  1  0  0  0  0  0  0  0  0  0
   19.3051   71.4405   -3.7418 C   0  0  2  0  0  0  0  0  0  0  0  0
   20.5443   73.9559   -1.7305 H   0  0  0  0  0  0  0  0  0  0  0  0
   18.6377   72.5707   -0.7365 H   0  0  0  0  0  0  0  0  0  0  0  0
   17.5148   71.6535   -5.9160 O   0  0  0  0  0  0  0  0  0  0  0  0
   15.7244   67.4883   -5.0866 O   0  0  0  0  0  0  0  0  0  0  0  0
   18.3604   70.4265   -4.1170 N   0  0  0  0  0  0  0  0  0  0  0  0
   16.6249   69.5793   -5.5014 N   0  0  0  0  0  0  0  0  0  0  0  0
   17.5057   70.6327   -5.2249 C   0  0  0  0  0  0  0  0  0  0  0  0
   18.2884   69.2433   -3.3898 C   0  0  0  0  0  0  0  0  0  0  0  0
   17.4419   68.2490   -3.6656 C   0  0  0  0  0  0  0  0  0  0  0  0
   16.5146   68.3847   -4.8075 C   0  0  0  0  0  0  0  0  0  0  0  0
   16.0196   69.7008   -6.2686 H   0  0  0  0  0  0  0  0  0  0  0  0
   22.6438   70.2229    0.9893 O   0  0  0  0  0  0  0  0  0  0  0  0
   23.8794   70.2853    2.0298 P   0  0  2  0  0  0  0  0  0  0  0  0
   25.1268   70.7257    1.0984 O   0  0  0  0  0  0  0  0  0  0  0  0
   24.0997   69.0157    2.8002 O   0  0  0  0  0  0  0  0  0  0  0  0
   23.5774   71.5796    2.9455 O   0  0  0  0  0  0  0  0  0  0  0  0
   21.9999   73.2878    2.4874 O   0  0  0  0  0  0  0  0  0  0  0  0
   24.7968   75.5106    4.5581 O   0  0  0  0  0  0  0  0  0  0  0  0
   22.2898   74.8701    5.8042 O   0  0  0  0  0  0  0  0  0  0  0  0
   25.6638   73.4435    2.7265 O   0  0  0  0  0  0  0  0  0  0  0  0
   24.0290   74.3443    4.2488 C   0  0  1  0  0  0  0  0  0  0  0  0
   22.5473   74.6875    4.4148 C   0  0  1  0  0  0  0  0  0  0  0  0
   24.3246   73.9187    2.8118 C   0  0  2  0  0  0  0  0  0  0  0  0
   21.6542   73.5761    3.8473 C   0  0  1  0  0  0  0  0  0  0  0  0
   23.3489   72.8440    2.3289 C   0  0  1  0  0  0  0  0  0  0  0  0
   24.6141   75.7857    5.4694 H   0  0  0  0  0  0  0  0  0  0  0  0
   22.8604   75.5742    6.1503 H   0  0  0  0  0  0  0  0  0  0  0  0
   26.2717   74.1329    3.0346 H   0  0  0  0  0  0  0  0  0  0  0  0
   19.6157   73.5611    5.0936 O   0  0  0  0  0  0  0  0  0  0  0  0
   20.1779   73.9666    3.8591 C   0  0  0  0  0  0  0  0  0  0  0  0
   18.6763   73.8035    5.1154 H   0  0  0  0  0  0  0  0  0  0  0  0
 25 28  1  0
 25 24  1  0
 25 26  1  6
 25 27  2  0
  1  4  1  0
  1 24  1  0
  1  2  1  1
  1  3  2  0
  6 11  1  0
  6 12  1  0
 29 36  1  0
 29 37  1  0
  9  7  1  6
  7 13  1  0
 10  8  1  6
  8 14  1  0
 37 28  1  1
  4  5  1  0
 33 30  1  6
 30 38  1  0
 34 31  1  1
 31 39  1  0
 35 32  1  1
 32 40  1  0
 41 42  1  0
 41 43  1  0
 15 19  2  0
 16 22  2  0
 12 17  1  1
 17 19  1  0
 17 20  1  0
 18 19  1  0
 18 22  1  0
 18 23  1  0
  9 10  1  0
  9 11  1  0
 10 12  1  0
 11  5  1  1
 33 34  1  0
 33 35  1  0
 34 36  1  0
 35 37  1  0
 36 42  1  6
 20 21  2  0
 21 22  1  0
M  CHG  2   2  -1  26  -1
M  END
>  <COMPND>  (159) 
    8629 

>  <AUTHOR>  (159) 
    GENERATED BY OPEN BABEL 3.1.1

>  <MASTER>  (159) 
        0    0    0    0    0    0    0    0   58    0   58    0

>  <minimizedAffinity>  (159) 
-7.57383

>  <CNNscore>  (159) 
0.2834985852

>  <CNNaffinity>  (159) 
4.0028386116

>  <CNN_VS>  (159) 
1.1347991228

>  <CNNaffinity_variance>  (159) 
0.0724732727

$$$$
160
     RDKit          3D

 43 45  0  0  0  0  0  0  0  0999 V2000
   22.5489   73.2215   -4.8306 P   0  0  2  0  0  0  0  0  0  0  0  0
   22.6199   72.6568   -6.3450 O   0  0  0  0  0  0  0  0  0  0  0  0
   22.9594   74.6556   -4.6690 O   0  0  0  0  0  0  0  0  0  0  0  0
   23.4019   72.1457   -3.9745 O   0  0  0  0  0  0  0  0  0  0  0  0
   23.0196   71.8926   -2.6338 C   0  0  0  0  0  0  0  0  0  0  0  0
   23.9322   70.4228   -0.9662 O   0  0  0  0  0  0  0  0  0  0  0  0
   22.5512   68.2034   -2.4352 O   0  0  0  0  0  0  0  0  0  0  0  0
   20.8735   68.6599   -0.3344 O   0  0  0  0  0  0  0  0  0  0  0  0
   22.1231   69.5475   -2.2218 C   0  0  1  0  0  0  0  0  0  0  0  0
   21.6715   69.7341   -0.7883 C   0  0  2  0  0  0  0  0  0  0  0  0
   23.3508   70.4472   -2.2882 C   0  0  1  0  0  0  0  0  0  0  0  0
   22.9962   69.8307   -0.0507 C   0  0  2  0  0  0  0  0  0  0  0  0
   21.7841   67.6101   -2.3976 H   0  0  0  0  0  0  0  0  0  0  0  0
   20.0423   68.6409   -0.8339 H   0  0  0  0  0  0  0  0  0  0  0  0
   23.9689   69.0821    2.4932 O   0  0  0  0  0  0  0  0  0  0  0  0
   22.6107   73.0591    4.3852 O   0  0  0  0  0  0  0  0  0  0  0  0
   22.9104   70.6514    1.1242 N   0  0  0  0  0  0  0  0  0  0  0  0
   23.2920   71.0630    3.4332 N   0  0  0  0  0  0  0  0  0  0  0  0
   23.4288   70.1814    2.3533 C   0  0  0  0  0  0  0  0  0  0  0  0
   22.3175   71.9071    1.0505 C   0  0  0  0  0  0  0  0  0  0  0  0
   22.1937   72.7353    2.0898 C   0  0  0  0  0  0  0  0  0  0  0  0
   22.7095   72.3204    3.4104 C   0  0  0  0  0  0  0  0  0  0  0  0
   23.6456   70.7568    4.2997 H   0  0  0  0  0  0  0  0  0  0  0  0
   21.0245   72.9051   -4.3958 O   0  0  0  0  0  0  0  0  0  0  0  0
   19.7004   73.8321   -4.4170 P   0  0  2  0  0  0  0  0  0  0  0  0
   19.2775   73.8394   -5.9786 O   0  0  0  0  0  0  0  0  0  0  0  0
   19.8949   75.1965   -3.8216 O   0  0  0  0  0  0  0  0  0  0  0  0
   18.5665   72.9413   -3.6918 O   0  0  0  0  0  0  0  0  0  0  0  0
   16.9237   72.2233   -5.2416 O   0  0  0  0  0  0  0  0  0  0  0  0
   15.0912   71.0317   -1.7383 O   0  0  0  0  0  0  0  0  0  0  0  0
   16.2163   69.0561   -3.4931 O   0  0  0  0  0  0  0  0  0  0  0  0
   16.5541   73.5281   -1.8260 O   0  0  0  0  0  0  0  0  0  0  0  0
   16.1962   71.2796   -2.6118 C   0  0  1  0  0  0  0  0  0  0  0  0
   16.0205   70.4179   -3.8638 C   0  0  1  0  0  0  0  0  0  0  0  0
   16.2198   72.7623   -2.9785 C   0  0  2  0  0  0  0  0  0  0  0  0
   17.0168   70.8222   -4.9588 C   0  0  1  0  0  0  0  0  0  0  0  0
   17.2083   73.0485   -4.1103 C   0  0  1  0  0  0  0  0  0  0  0  0
   15.0708   70.0921   -1.5013 H   0  0  0  0  0  0  0  0  0  0  0  0
   15.5814   68.8137   -2.8007 H   0  0  0  0  0  0  0  0  0  0  0  0
   15.9208   73.3382   -1.1169 H   0  0  0  0  0  0  0  0  0  0  0  0
   15.5294   69.3864   -6.1568 O   0  0  0  0  0  0  0  0  0  0  0  0
   16.7561   70.0841   -6.2701 C   0  0  0  0  0  0  0  0  0  0  0  0
   15.3503   68.9121   -6.9842 H   0  0  0  0  0  0  0  0  0  0  0  0
 25 28  1  0
 25 24  1  0
 25 26  1  6
 25 27  2  0
  1  4  1  0
  1 24  1  0
  1  2  1  6
  1  3  2  0
  6 11  1  0
  6 12  1  0
 29 36  1  0
 29 37  1  0
  9  7  1  1
  7 13  1  0
 10  8  1  1
  8 14  1  0
 37 28  1  1
  4  5  1  0
 33 30  1  1
 30 38  1  0
 34 31  1  1
 31 39  1  0
 35 32  1  1
 32 40  1  0
 41 42  1  0
 41 43  1  0
 15 19  2  0
 16 22  2  0
 12 17  1  1
 17 19  1  0
 17 20  1  0
 18 19  1  0
 18 22  1  0
 18 23  1  0
  9 10  1  0
  9 11  1  0
 10 12  1  0
 11  5  1  1
 33 34  1  0
 33 35  1  0
 34 36  1  0
 35 37  1  0
 36 42  1  6
 20 21  2  0
 21 22  1  0
M  CHG  2   2  -1  26  -1
M  END
>  <COMPND>  (160) 
    8629 

>  <AUTHOR>  (160) 
    GENERATED BY OPEN BABEL 3.1.1

>  <MASTER>  (160) 
        0    0    0    0    0    0    0    0   58    0   58    0

>  <minimizedAffinity>  (160) 
-7.33371

>  <CNNscore>  (160) 
0.2786420584

>  <CNNaffinity>  (160) 
3.9097163677

>  <CNN_VS>  (160) 
1.0894113779

>  <CNNaffinity_variance>  (160) 
0.3533011079

$$$$
161
     RDKit          3D

 43 45  0  0  0  0  0  0  0  0999 V2000
   21.2676   69.5427   -0.9785 P   0  0  2  0  0  0  0  0  0  0  0  0
   22.2612   68.3680   -0.4782 O   0  0  0  0  0  0  0  0  0  0  0  0
   20.7638   70.4507    0.1046 O   0  0  0  0  0  0  0  0  0  0  0  0
   20.1318   68.7577   -1.8221 O   0  0  0  0  0  0  0  0  0  0  0  0
   19.7883   69.2433   -3.1082 C   0  0  0  0  0  0  0  0  0  0  0  0
   18.4932   71.0271   -4.0646 O   0  0  0  0  0  0  0  0  0  0  0  0
   16.1528   69.8654   -2.5936 O   0  0  0  0  0  0  0  0  0  0  0  0
   15.7694   68.9539   -5.1350 O   0  0  0  0  0  0  0  0  0  0  0  0
   17.2469   69.1973   -3.2195 C   0  0  1  0  0  0  0  0  0  0  0  0
   17.0927   69.2331   -4.7257 C   0  0  2  0  0  0  0  0  0  0  0  0
   18.4964   70.0428   -3.0074 C   0  0  1  0  0  0  0  0  0  0  0  0
   17.5181   70.6545   -5.0522 C   0  0  2  0  0  0  0  0  0  0  0  0
   15.3433   69.3440   -2.7154 H   0  0  0  0  0  0  0  0  0  0  0  0
   15.5461   68.0384   -4.9053 H   0  0  0  0  0  0  0  0  0  0  0  0
   16.0729   70.5316   -7.4759 O   0  0  0  0  0  0  0  0  0  0  0  0
   19.8932   71.0825   -9.9944 O   0  0  0  0  0  0  0  0  0  0  0  0
   18.1098   70.7634   -6.3558 N   0  0  0  0  0  0  0  0  0  0  0  0
   17.9763   70.8062   -8.7279 N   0  0  0  0  0  0  0  0  0  0  0  0
   17.2953   70.6876   -7.5096 C   0  0  0  0  0  0  0  0  0  0  0  0
   19.4831   70.9434   -6.4808 C   0  0  0  0  0  0  0  0  0  0  0  0
   20.1173   71.0533   -7.6499 C   0  0  0  0  0  0  0  0  0  0  0  0
   19.3393   70.9848   -8.9037 C   0  0  0  0  0  0  0  0  0  0  0  0
   17.4293   70.7560   -9.5453 H   0  0  0  0  0  0  0  0  0  0  0  0
   22.1291   70.2818   -2.1293 O   0  0  0  0  0  0  0  0  0  0  0  0
   22.5296   71.8360   -2.3224 P   0  0  2  0  0  0  0  0  0  0  0  0
   23.5297   71.8062   -3.5937 O   0  0  0  0  0  0  0  0  0  0  0  0
   23.1070   72.4797   -1.0951 O   0  0  0  0  0  0  0  0  0  0  0  0
   21.1863   72.5381   -2.8768 O   0  0  0  0  0  0  0  0  0  0  0  0
   20.5322   74.6613   -3.7019 O   0  0  0  0  0  0  0  0  0  0  0  0
   17.5178   74.0684   -0.9428 O   0  0  0  0  0  0  0  0  0  0  0  0
   16.9308   73.8761   -3.7476 O   0  0  0  0  0  0  0  0  0  0  0  0
   20.2191   73.2252   -0.3337 O   0  0  0  0  0  0  0  0  0  0  0  0
   18.4745   73.6777   -1.9315 C   0  0  1  0  0  0  0  0  0  0  0  0
   18.1465   74.4122   -3.2329 C   0  0  1  0  0  0  0  0  0  0  0  0
   19.8746   74.0464   -1.4442 C   0  0  2  0  0  0  0  0  0  0  0  0
   19.2769   74.2536   -4.2586 C   0  0  1  0  0  0  0  0  0  0  0  0
   20.9160   73.9000   -2.5552 C   0  0  1  0  0  0  0  0  0  0  0  0
   16.6267   73.8367   -1.2458 H   0  0  0  0  0  0  0  0  0  0  0  0
   16.2253   73.9822   -3.0901 H   0  0  0  0  0  0  0  0  0  0  0  0
   19.5525   73.3270    0.3628 H   0  0  0  0  0  0  0  0  0  0  0  0
   18.0795   76.0966   -5.1958 O   0  0  0  0  0  0  0  0  0  0  0  0
   19.0432   75.1063   -5.5038 C   0  0  0  0  0  0  0  0  0  0  0  0
   17.9208   76.6471   -5.9791 H   0  0  0  0  0  0  0  0  0  0  0  0
 25 28  1  0
 25 24  1  0
 25 26  1  6
 25 27  2  0
  1  4  1  0
  1 24  1  0
  1  2  1  1
  1  3  2  0
  6 11  1  0
  6 12  1  0
 29 36  1  0
 29 37  1  0
  9  7  1  1
  7 13  1  0
 10  8  1  1
  8 14  1  0
 37 28  1  6
  4  5  1  0
 33 30  1  1
 30 38  1  0
 34 31  1  6
 31 39  1  0
 35 32  1  1
 32 40  1  0
 41 42  1  0
 41 43  1  0
 15 19  2  0
 16 22  2  0
 12 17  1  6
 17 19  1  0
 17 20  1  0
 18 19  1  0
 18 22  1  0
 18 23  1  0
  9 10  1  0
  9 11  1  0
 10 12  1  0
 11  5  1  6
 33 34  1  0
 33 35  1  0
 34 36  1  0
 35 37  1  0
 36 42  1  6
 20 21  2  0
 21 22  1  0
M  CHG  2   2  -1  26  -1
M  END
>  <COMPND>  (161) 
    8629 

>  <AUTHOR>  (161) 
    GENERATED BY OPEN BABEL 3.1.1

>  <MASTER>  (161) 
        0    0    0    0    0    0    0    0   58    0   58    0

>  <minimizedAffinity>  (161) 
-6.69849

>  <CNNscore>  (161) 
0.8513126969

>  <CNNaffinity>  (161) 
4.6783919334

>  <CNN_VS>  (161) 
3.9827744961

>  <CNNaffinity_variance>  (161) 
0.0529124737

$$$$
162
     RDKit          3D

 43 45  0  0  0  0  0  0  0  0999 V2000
   22.6708   70.0155   -2.5977 P   0  0  2  0  0  0  0  0  0  0  0  0
   23.5959   71.1742   -3.2449 O   0  0  0  0  0  0  0  0  0  0  0  0
   23.1872   68.6182   -2.7768 O   0  0  0  0  0  0  0  0  0  0  0  0
   21.2010   70.3052   -3.2092 O   0  0  0  0  0  0  0  0  0  0  0  0
   20.2377   69.2666   -3.1746 C   0  0  0  0  0  0  0  0  0  0  0  0
   18.6651   70.8907   -3.9889 O   0  0  0  0  0  0  0  0  0  0  0  0
   16.5839   69.3656   -2.4614 O   0  0  0  0  0  0  0  0  0  0  0  0
   16.1929   68.5056   -5.0196 O   0  0  0  0  0  0  0  0  0  0  0  0
   17.7234   68.8773   -3.1673 C   0  0  1  0  0  0  0  0  0  0  0  0
   17.4863   68.9478   -4.6615 C   0  0  2  0  0  0  0  0  0  0  0  0
   18.8570   69.8775   -2.9776 C   0  0  1  0  0  0  0  0  0  0  0  0
   17.6983   70.4253   -4.9447 C   0  0  2  0  0  0  0  0  0  0  0  0
   15.8468   68.7432   -2.5676 H   0  0  0  0  0  0  0  0  0  0  0  0
   16.1076   67.5602   -4.8202 H   0  0  0  0  0  0  0  0  0  0  0  0
   16.0961   70.4940   -7.2698 O   0  0  0  0  0  0  0  0  0  0  0  0
   19.7320   71.3429   -9.9718 O   0  0  0  0  0  0  0  0  0  0  0  0
   18.2001   70.6627   -6.2688 N   0  0  0  0  0  0  0  0  0  0  0  0
   17.9078   70.9168   -8.6133 N   0  0  0  0  0  0  0  0  0  0  0  0
   17.3113   70.6758   -7.3690 C   0  0  0  0  0  0  0  0  0  0  0  0
   19.5594   70.8795   -6.4663 C   0  0  0  0  0  0  0  0  0  0  0  0
   20.1126   71.1066   -7.6595 C   0  0  0  0  0  0  0  0  0  0  0  0
   19.2535   71.1366   -8.8608 C   0  0  0  0  0  0  0  0  0  0  0  0
   17.3081   70.9301   -9.3943 H   0  0  0  0  0  0  0  0  0  0  0  0
   22.5230   70.4860   -1.0583 O   0  0  0  0  0  0  0  0  0  0  0  0
   22.1323   69.6558    0.2726 P   0  0  2  0  0  0  0  0  0  0  0  0
   23.5400   69.0013    0.7282 O   0  0  0  0  0  0  0  0  0  0  0  0
   21.0231   68.6635    0.0754 O   0  0  0  0  0  0  0  0  0  0  0  0
   21.8292   70.7857    1.3846 O   0  0  0  0  0  0  0  0  0  0  0  0
   21.0079   73.0037    1.2352 O   0  0  0  0  0  0  0  0  0  0  0  0
   23.9021   73.5651    4.1264 O   0  0  0  0  0  0  0  0  0  0  0  0
   21.1280   73.6201    4.8677 O   0  0  0  0  0  0  0  0  0  0  0  0
   24.4035   71.7712    1.9106 O   0  0  0  0  0  0  0  0  0  0  0  0
   22.8777   72.8505    3.4298 C   0  0  1  0  0  0  0  0  0  0  0  0
   21.5830   73.6609    3.5180 C   0  0  1  0  0  0  0  0  0  0  0  0
   23.2992   72.6673    1.9731 C   0  0  2  0  0  0  0  0  0  0  0  0
   20.5112   73.0970    2.5755 C   0  0  1  0  0  0  0  0  0  0  0  0
   22.1459   72.1484    1.1124 C   0  0  1  0  0  0  0  0  0  0  0  0
   23.6409   73.6844    5.0522 H   0  0  0  0  0  0  0  0  0  0  0  0
   21.8142   73.9785    5.4524 H   0  0  0  0  0  0  0  0  0  0  0  0
   25.1270   72.1110    2.4592 H   0  0  0  0  0  0  0  0  0  0  0  0
   18.3932   73.5821    3.5693 O   0  0  0  0  0  0  0  0  0  0  0  0
   19.2672   73.9816    2.5296 C   0  0  0  0  0  0  0  0  0  0  0  0
   17.5970   74.1367    3.5525 H   0  0  0  0  0  0  0  0  0  0  0  0
 25 28  1  0
 25 24  1  0
 25 26  1  1
 25 27  2  0
  1  4  1  0
  1 24  1  0
  1  2  1  6
  1  3  2  0
  6 11  1  0
  6 12  1  0
 29 36  1  0
 29 37  1  0
  9  7  1  1
  7 13  1  0
 10  8  1  1
  8 14  1  0
 37 28  1  1
  4  5  1  0
 33 30  1  1
 30 38  1  0
 34 31  1  1
 31 39  1  0
 35 32  1  1
 32 40  1  0
 41 42  1  0
 41 43  1  0
 15 19  2  0
 16 22  2  0
 12 17  1  6
 17 19  1  0
 17 20  1  0
 18 19  1  0
 18 22  1  0
 18 23  1  0
  9 10  1  0
  9 11  1  0
 10 12  1  0
 11  5  1  6
 33 34  1  0
 33 35  1  0
 34 36  1  0
 35 37  1  0
 36 42  1  6
 20 21  2  0
 21 22  1  0
M  CHG  2   2  -1  26  -1
M  END
>  <COMPND>  (162) 
    8629 

>  <AUTHOR>  (162) 
    GENERATED BY OPEN BABEL 3.1.1

>  <MASTER>  (162) 
        0    0    0    0    0    0    0    0   58    0   58    0

>  <minimizedAffinity>  (162) 
-8.04628

>  <CNNscore>  (162) 
0.8147141933

>  <CNNaffinity>  (162) 
4.8525514603

>  <CNN_VS>  (162) 
3.9534425735

>  <CNNaffinity_variance>  (162) 
0.0592990518

$$$$
163
     RDKit          3D

 43 45  0  0  0  0  0  0  0  0999 V2000
   20.6102   69.8490   -1.0736 P   0  0  2  0  0  0  0  0  0  0  0  0
   21.1367   68.8513    0.0861 O   0  0  0  0  0  0  0  0  0  0  0  0
   20.0561   71.1543   -0.5832 O   0  0  0  0  0  0  0  0  0  0  0  0
   19.5940   68.9354   -1.9400 O   0  0  0  0  0  0  0  0  0  0  0  0
   19.2680   69.3484   -3.2557 C   0  0  0  0  0  0  0  0  0  0  0  0
   18.1883   71.2957   -4.1589 O   0  0  0  0  0  0  0  0  0  0  0  0
   15.6417   70.1698   -3.0462 O   0  0  0  0  0  0  0  0  0  0  0  0
   15.4744   69.5193   -5.6892 O   0  0  0  0  0  0  0  0  0  0  0  0
   16.7542   69.4872   -3.6222 C   0  0  1  0  0  0  0  0  0  0  0  0
   16.7616   69.6690   -5.1257 C   0  0  2  0  0  0  0  0  0  0  0  0
   18.0223   70.2224   -3.2067 C   0  0  1  0  0  0  0  0  0  0  0  0
   17.3022   71.0815   -5.2696 C   0  0  2  0  0  0  0  0  0  0  0  0
   14.8202   69.7183   -3.2974 H   0  0  0  0  0  0  0  0  0  0  0  0
   15.1745   68.6044   -5.5723 H   0  0  0  0  0  0  0  0  0  0  0  0
   16.1497   71.9269   -7.7059 O   0  0  0  0  0  0  0  0  0  0  0  0
   20.2024   71.7550   -9.8940 O   0  0  0  0  0  0  0  0  0  0  0  0
   18.0329   71.2664   -6.4916 N   0  0  0  0  0  0  0  0  0  0  0  0
   18.1686   71.8408   -8.7933 N   0  0  0  0  0  0  0  0  0  0  0  0
   17.3592   71.6928   -7.6598 C   0  0  0  0  0  0  0  0  0  0  0  0
   19.4022   71.0258   -6.5233 C   0  0  0  0  0  0  0  0  0  0  0  0
   20.1596   71.1704   -7.6127 C   0  0  0  0  0  0  0  0  0  0  0  0
   19.5332   71.6128   -8.8753 C   0  0  0  0  0  0  0  0  0  0  0  0
   17.7209   72.1366   -9.6191 H   0  0  0  0  0  0  0  0  0  0  0  0
   21.8944   69.9860   -2.0458 O   0  0  0  0  0  0  0  0  0  0  0  0
   23.4394   70.3332   -1.7211 P   0  0  2  0  0  0  0  0  0  0  0  0
   24.2011   69.9591   -3.0985 O   0  0  0  0  0  0  0  0  0  0  0  0
   23.9832   69.6410   -0.5050 O   0  0  0  0  0  0  0  0  0  0  0  0
   23.4900   71.9450   -1.6520 O   0  0  0  0  0  0  0  0  0  0  0  0
   21.8357   73.6345   -1.4930 O   0  0  0  0  0  0  0  0  0  0  0  0
   24.3061   75.3917   -4.2966 O   0  0  0  0  0  0  0  0  0  0  0  0
   24.2376   76.4280   -1.6190 O   0  0  0  0  0  0  0  0  0  0  0  0
   23.8366   72.5364   -4.3733 O   0  0  0  0  0  0  0  0  0  0  0  0
   23.9968   74.6020   -3.1450 C   0  0  1  0  0  0  0  0  0  0  0  0
   23.2866   75.4963   -2.1269 C   0  0  1  0  0  0  0  0  0  0  0  0
   23.0953   73.4419   -3.5628 C   0  0  2  0  0  0  0  0  0  0  0  0
   22.6881   74.6665   -0.9831 C   0  0  1  0  0  0  0  0  0  0  0  0
   22.5135   72.7135   -2.3499 C   0  0  1  0  0  0  0  0  0  0  0  0
   24.8787   76.1299   -4.0383 H   0  0  0  0  0  0  0  0  0  0  0  0
   24.6083   76.9452   -2.3513 H   0  0  0  0  0  0  0  0  0  0  0  0
   24.1993   73.0095   -5.1378 H   0  0  0  0  0  0  0  0  0  0  0  0
   22.7037   76.1619    0.8804 O   0  0  0  0  0  0  0  0  0  0  0  0
   21.8416   75.5190   -0.0403 C   0  0  0  0  0  0  0  0  0  0  0  0
   22.1788   76.7083    1.4867 H   0  0  0  0  0  0  0  0  0  0  0  0
 25 28  1  0
 25 24  1  0
 25 26  1  6
 25 27  2  0
  1  4  1  0
  1 24  1  0
  1  2  1  1
  1  3  2  0
  6 11  1  0
  6 12  1  0
 29 36  1  0
 29 37  1  0
  9  7  1  1
  7 13  1  0
 10  8  1  1
  8 14  1  0
 37 28  1  1
  4  5  1  0
 33 30  1  6
 30 38  1  0
 34 31  1  1
 31 39  1  0
 35 32  1  1
 32 40  1  0
 41 42  1  0
 41 43  1  0
 15 19  2  0
 16 22  2  0
 12 17  1  6
 17 19  1  0
 17 20  1  0
 18 19  1  0
 18 22  1  0
 18 23  1  0
  9 10  1  0
  9 11  1  0
 10 12  1  0
 11  5  1  6
 33 34  1  0
 33 35  1  0
 34 36  1  0
 35 37  1  0
 36 42  1  1
 20 21  2  0
 21 22  1  0
M  CHG  2   2  -1  26  -1
M  END
>  <COMPND>  (163) 
    8629 

>  <AUTHOR>  (163) 
    GENERATED BY OPEN BABEL 3.1.1

>  <MASTER>  (163) 
        0    0    0    0    0    0    0    0   58    0   58    0

>  <minimizedAffinity>  (163) 
-7.18297

>  <CNNscore>  (163) 
0.7625672817

>  <CNNaffinity>  (163) 
4.8192210197

>  <CNN_VS>  (163) 
3.6749801636

>  <CNNaffinity_variance>  (163) 
0.1040467620

$$$$
164
     RDKit          3D

 43 45  0  0  0  0  0  0  0  0999 V2000
   20.4451   69.8449   -1.3706 P   0  0  2  0  0  0  0  0  0  0  0  0
   20.9351   69.0812   -0.0312 O   0  0  0  0  0  0  0  0  0  0  0  0
   19.7694   71.1640   -1.1368 O   0  0  0  0  0  0  0  0  0  0  0  0
   19.5658   68.7337   -2.1517 O   0  0  0  0  0  0  0  0  0  0  0  0
   19.1228   69.0237   -3.4660 C   0  0  0  0  0  0  0  0  0  0  0  0
   18.1629   71.0883   -4.2338 O   0  0  0  0  0  0  0  0  0  0  0  0
   15.5265   69.9812   -3.3313 O   0  0  0  0  0  0  0  0  0  0  0  0
   15.4509   69.5739   -6.0267 O   0  0  0  0  0  0  0  0  0  0  0  0
   16.6353   69.3040   -3.9206 C   0  0  1  0  0  0  0  0  0  0  0  0
   16.7167   69.6170   -5.4001 C   0  0  2  0  0  0  0  0  0  0  0  0
   17.9120   69.9436   -3.3894 C   0  0  1  0  0  0  0  0  0  0  0  0
   17.3191   71.0117   -5.3944 C   0  0  2  0  0  0  0  0  0  0  0  0
   14.6995   69.5899   -3.6553 H   0  0  0  0  0  0  0  0  0  0  0  0
   15.1098   68.6662   -6.0048 H   0  0  0  0  0  0  0  0  0  0  0  0
   16.4659   72.5818   -7.5818 O   0  0  0  0  0  0  0  0  0  0  0  0
   20.4382   71.9384   -9.8286 O   0  0  0  0  0  0  0  0  0  0  0  0
   18.1103   71.2713   -6.5641 N   0  0  0  0  0  0  0  0  0  0  0  0
   18.4446   72.2603   -8.6987 N   0  0  0  0  0  0  0  0  0  0  0  0
   17.5880   72.0721   -7.6064 C   0  0  0  0  0  0  0  0  0  0  0  0
   19.3889   70.7347   -6.6689 C   0  0  0  0  0  0  0  0  0  0  0  0
   20.1926   70.9226   -7.7178 C   0  0  0  0  0  0  0  0  0  0  0  0
   19.7230   71.7471   -8.8500 C   0  0  0  0  0  0  0  0  0  0  0  0
   18.1019   72.8144   -9.4371 H   0  0  0  0  0  0  0  0  0  0  0  0
   21.7950   69.9281   -2.2560 O   0  0  0  0  0  0  0  0  0  0  0  0
   23.0263   70.9748   -2.2184 P   0  0  2  0  0  0  0  0  0  0  0  0
   24.1477   70.2617   -3.1411 O   0  0  0  0  0  0  0  0  0  0  0  0
   23.4938   71.3256   -0.8356 O   0  0  0  0  0  0  0  0  0  0  0  0
   22.5194   72.2334   -3.0925 O   0  0  0  0  0  0  0  0  0  0  0  0
   23.2288   73.3187   -5.0762 O   0  0  0  0  0  0  0  0  0  0  0  0
   22.5715   76.6367   -2.7077 O   0  0  0  0  0  0  0  0  0  0  0  0
   20.7479   76.0352   -4.8433 O   0  0  0  0  0  0  0  0  0  0  0  0
   23.7280   74.2462   -1.5554 O   0  0  0  0  0  0  0  0  0  0  0  0
   22.3257   75.3152   -3.1962 C   0  0  1  0  0  0  0  0  0  0  0  0
   22.0176   75.4065   -4.6921 C   0  0  1  0  0  0  0  0  0  0  0  0
   23.5646   74.4551   -2.9540 C   0  0  2  0  0  0  0  0  0  0  0  0
   22.0060   74.0159   -5.3411 C   0  0  1  0  0  0  0  0  0  0  0  0
   23.4721   73.1135   -3.6832 C   0  0  1  0  0  0  0  0  0  0  0  0
   21.7885   77.1879   -2.8580 H   0  0  0  0  0  0  0  0  0  0  0  0
   20.7685   76.9121   -4.4288 H   0  0  0  0  0  0  0  0  0  0  0  0
   23.7856   75.1029   -1.1052 H   0  0  0  0  0  0  0  0  0  0  0  0
   20.5031   74.3740   -7.1638 O   0  0  0  0  0  0  0  0  0  0  0  0
   21.8571   74.0945   -6.8590 C   0  0  0  0  0  0  0  0  0  0  0  0
   20.3934   74.4271   -8.1266 H   0  0  0  0  0  0  0  0  0  0  0  0
 25 28  1  0
 25 24  1  0
 25 26  1  6
 25 27  2  0
  1  4  1  0
  1 24  1  0
  1  2  1  1
  1  3  2  0
  6 11  1  0
  6 12  1  0
 29 36  1  0
 29 37  1  0
  9  7  1  1
  7 13  1  0
 10  8  1  1
  8 14  1  0
 37 28  1  1
  4  5  1  0
 33 30  1  6
 30 38  1  0
 34 31  1  1
 31 39  1  0
 35 32  1  1
 32 40  1  0
 41 42  1  0
 41 43  1  0
 15 19  2  0
 16 22  2  0
 12 17  1  6
 17 19  1  0
 17 20  1  0
 18 19  1  0
 18 22  1  0
 18 23  1  0
  9 10  1  0
  9 11  1  0
 10 12  1  0
 11  5  1  6
 33 34  1  0
 33 35  1  0
 34 36  1  0
 35 37  1  0
 36 42  1  6
 20 21  2  0
 21 22  1  0
M  CHG  2   2  -1  26  -1
M  END
>  <COMPND>  (164) 
    8629 

>  <AUTHOR>  (164) 
    GENERATED BY OPEN BABEL 3.1.1

>  <MASTER>  (164) 
        0    0    0    0    0    0    0    0   58    0   58    0

>  <minimizedAffinity>  (164) 
-6.85555

>  <CNNscore>  (164) 
0.7070828676

>  <CNNaffinity>  (164) 
4.4224710464

>  <CNN_VS>  (164) 
3.1270534992

>  <CNNaffinity_variance>  (164) 
0.3114543855

$$$$
165
     RDKit          3D

 43 45  0  0  0  0  0  0  0  0999 V2000
   22.3214   73.0672   -4.5504 P   0  0  2  0  0  0  0  0  0  0  0  0
   23.4579   73.6709   -3.5699 O   0  0  0  0  0  0  0  0  0  0  0  0
   22.7719   72.8065   -5.9577 O   0  0  0  0  0  0  0  0  0  0  0  0
   21.0825   74.0952   -4.3882 O   0  0  0  0  0  0  0  0  0  0  0  0
   19.7648   73.5746   -4.4099 C   0  0  0  0  0  0  0  0  0  0  0  0
   19.3316   71.8374   -6.0124 O   0  0  0  0  0  0  0  0  0  0  0  0
   17.9349   73.9383   -7.6329 O   0  0  0  0  0  0  0  0  0  0  0  0
   15.8594   72.6195   -6.4541 O   0  0  0  0  0  0  0  0  0  0  0  0
   17.9846   73.7764   -6.2163 C   0  0  1  0  0  0  0  0  0  0  0  0
   17.1058   72.6197   -5.7882 C   0  0  2  0  0  0  0  0  0  0  0  0
   19.3749   73.2720   -5.8502 C   0  0  1  0  0  0  0  0  0  0  0  0
   17.9637   71.4202   -6.1531 C   0  0  2  0  0  0  0  0  0  0  0  0
   17.0563   74.2602   -7.8907 H   0  0  0  0  0  0  0  0  0  0  0  0
   15.3509   73.4017   -6.1889 H   0  0  0  0  0  0  0  0  0  0  0  0
   15.8109   69.6143   -6.4390 O   0  0  0  0  0  0  0  0  0  0  0  0
   17.1586   67.1444   -2.7887 O   0  0  0  0  0  0  0  0  0  0  0  0
   17.7281   70.2960   -5.2916 N   0  0  0  0  0  0  0  0  0  0  0  0
   16.4838   68.3858   -4.6213 N   0  0  0  0  0  0  0  0  0  0  0  0
   16.6174   69.4510   -5.5211 C   0  0  0  0  0  0  0  0  0  0  0  0
   18.5935   70.0405   -4.2334 C   0  0  0  0  0  0  0  0  0  0  0  0
   18.4514   69.0212   -3.3836 C   0  0  0  0  0  0  0  0  0  0  0  0
   17.3166   68.0910   -3.5535 C   0  0  0  0  0  0  0  0  0  0  0  0
   15.7170   67.7841   -4.7614 H   0  0  0  0  0  0  0  0  0  0  0  0
   21.8126   71.7563   -3.7531 O   0  0  0  0  0  0  0  0  0  0  0  0
   22.5310   70.8603   -2.6156 P   0  0  2  0  0  0  0  0  0  0  0  0
   23.9820   70.5411   -3.2562 O   0  0  0  0  0  0  0  0  0  0  0  0
   21.7525   69.6429   -2.2085 O   0  0  0  0  0  0  0  0  0  0  0  0
   22.8345   71.8932   -1.4132 O   0  0  0  0  0  0  0  0  0  0  0  0
   21.9112   71.4642    0.7269 O   0  0  0  0  0  0  0  0  0  0  0  0
   22.6846   75.4995    1.1388 O   0  0  0  0  0  0  0  0  0  0  0  0
   24.3193   73.5930    2.5319 O   0  0  0  0  0  0  0  0  0  0  0  0
   21.7133   74.4655   -1.3846 O   0  0  0  0  0  0  0  0  0  0  0  0
   22.9239   74.1675    0.6762 C   0  0  1  0  0  0  0  0  0  0  0  0
   23.0889   73.2587    1.8959 C   0  0  1  0  0  0  0  0  0  0  0  0
   21.7396   73.7145   -0.1756 C   0  0  2  0  0  0  0  0  0  0  0  0
   23.0824   71.7790    1.4891 C   0  0  1  0  0  0  0  0  0  0  0  0
   21.8047   72.2173   -0.4828 C   0  0  1  0  0  0  0  0  0  0  0  0
   23.4331   75.7933    1.6799 H   0  0  0  0  0  0  0  0  0  0  0  0
   24.3106   74.5300    2.7833 H   0  0  0  0  0  0  0  0  0  0  0  0
   21.6718   75.4115   -1.1766 H   0  0  0  0  0  0  0  0  0  0  0  0
   22.6344   71.5826    3.8278 O   0  0  0  0  0  0  0  0  0  0  0  0
   23.0872   70.8521    2.7028 C   0  0  0  0  0  0  0  0  0  0  0  0
   22.6319   71.0053    4.6078 H   0  0  0  0  0  0  0  0  0  0  0  0
 25 28  1  0
 25 24  1  0
 25 26  1  6
 25 27  2  0
  1  4  1  0
  1 24  1  0
  1  2  1  1
  1  3  2  0
  6 11  1  0
  6 12  1  0
 29 36  1  0
 29 37  1  0
  9  7  1  6
  7 13  1  0
 10  8  1  6
  8 14  1  0
 37 28  1  6
  4  5  1  0
 33 30  1  1
 30 38  1  0
 34 31  1  6
 31 39  1  0
 35 32  1  6
 32 40  1  0
 41 42  1  0
 41 43  1  0
 15 19  2  0
 16 22  2  0
 12 17  1  1
 17 19  1  0
 17 20  1  0
 18 19  1  0
 18 22  1  0
 18 23  1  0
  9 10  1  0
  9 11  1  0
 10 12  1  0
 11  5  1  1
 33 34  1  0
 33 35  1  0
 34 36  1  0
 35 37  1  0
 36 42  1  1
 20 21  2  0
 21 22  1  0
M  CHG  2   2  -1  26  -1
M  END
>  <COMPND>  (165) 
    8629 

>  <AUTHOR>  (165) 
    GENERATED BY OPEN BABEL 3.1.1

>  <MASTER>  (165) 
        0    0    0    0    0    0    0    0   58    0   58    0

>  <minimizedAffinity>  (165) 
-6.92314

>  <CNNscore>  (165) 
0.6825162768

>  <CNNaffinity>  (165) 
4.3058118820

>  <CNN_VS>  (165) 
2.9387867451

>  <CNNaffinity_variance>  (165) 
0.1348185837

$$$$
166
     RDKit          3D

 43 45  0  0  0  0  0  0  0  0999 V2000
   20.5660   74.6709   -2.0292 P   0  0  2  0  0  0  0  0  0  0  0  0
   21.0157   74.0005   -0.6272 O   0  0  0  0  0  0  0  0  0  0  0  0
   20.8548   76.1382   -2.1517 O   0  0  0  0  0  0  0  0  0  0  0  0
   19.0125   74.2454   -2.1826 O   0  0  0  0  0  0  0  0  0  0  0  0
   18.4628   74.1506   -3.4852 C   0  0  0  0  0  0  0  0  0  0  0  0
   16.8381   72.9322   -4.7695 O   0  0  0  0  0  0  0  0  0  0  0  0
   16.0355   71.6441   -2.1836 O   0  0  0  0  0  0  0  0  0  0  0  0
   17.5897   69.7278   -3.3450 O   0  0  0  0  0  0  0  0  0  0  0  0
   17.3316   72.0376   -2.6314 C   0  0  1  0  0  0  0  0  0  0  0  0
   17.8378   71.0763   -3.6865 C   0  0  2  0  0  0  0  0  0  0  0  0
   17.1818   73.3300   -3.4242 C   0  0  1  0  0  0  0  0  0  0  0  0
   17.0624   71.5204   -4.9152 C   0  0  2  0  0  0  0  0  0  0  0  0
   16.1058   70.8208   -1.6743 H   0  0  0  0  0  0  0  0  0  0  0  0
   18.1055   69.4933   -2.5577 H   0  0  0  0  0  0  0  0  0  0  0  0
   15.9969   70.2043   -7.1759 O   0  0  0  0  0  0  0  0  0  0  0  0
   19.9292   70.6776   -9.5327 O   0  0  0  0  0  0  0  0  0  0  0  0
   17.7855   71.2864   -6.1333 N   0  0  0  0  0  0  0  0  0  0  0  0
   17.9557   70.4412   -8.3476 N   0  0  0  0  0  0  0  0  0  0  0  0
   17.1587   70.6152   -7.2089 C   0  0  0  0  0  0  0  0  0  0  0  0
   19.1012   71.7209   -6.2526 C   0  0  0  0  0  0  0  0  0  0  0  0
   19.8480   71.5461   -7.3448 C   0  0  0  0  0  0  0  0  0  0  0  0
   19.2682   70.8538   -8.5139 C   0  0  0  0  0  0  0  0  0  0  0  0
   17.5401   69.9758   -9.1095 H   0  0  0  0  0  0  0  0  0  0  0  0
   21.3063   73.7455   -3.1286 O   0  0  0  0  0  0  0  0  0  0  0  0
   22.8385   73.2410   -3.2330 P   0  0  2  0  0  0  0  0  0  0  0  0
   23.6489   74.3317   -2.3548 O   0  0  0  0  0  0  0  0  0  0  0  0
   23.3397   73.0824   -4.6392 O   0  0  0  0  0  0  0  0  0  0  0  0
   22.8851   71.8908   -2.3499 O   0  0  0  0  0  0  0  0  0  0  0  0
   23.1393   69.6945   -3.2034 O   0  0  0  0  0  0  0  0  0  0  0  0
   20.9347   68.8363    0.1810 O   0  0  0  0  0  0  0  0  0  0  0  0
   23.7221   68.1505    0.0928 O   0  0  0  0  0  0  0  0  0  0  0  0
   20.3477   71.2156   -1.3597 O   0  0  0  0  0  0  0  0  0  0  0  0
   21.9040   69.5424   -0.5982 C   0  0  1  0  0  0  0  0  0  0  0  0
   22.9723   68.5459   -1.0525 C   0  0  1  0  0  0  0  0  0  0  0  0
   21.2108   70.1743   -1.8039 C   0  0  2  0  0  0  0  0  0  0  0  0
   23.8969   69.1677   -2.1078 C   0  0  1  0  0  0  0  0  0  0  0  0
   22.2213   70.7186   -2.8152 C   0  0  1  0  0  0  0  0  0  0  0  0
   21.3682   68.4330    0.9484 H   0  0  0  0  0  0  0  0  0  0  0  0
   23.1266   67.7599    0.7516 H   0  0  0  0  0  0  0  0  0  0  0  0
   19.7126   70.8583   -0.7203 H   0  0  0  0  0  0  0  0  0  0  0  0
   24.2213   66.8875   -2.7440 O   0  0  0  0  0  0  0  0  0  0  0  0
   24.8701   68.1447   -2.6896 C   0  0  0  0  0  0  0  0  0  0  0  0
   24.8287   66.2265   -3.1125 H   0  0  0  0  0  0  0  0  0  0  0  0
 25 28  1  0
 25 24  1  0
 25 26  1  1
 25 27  2  0
  1  4  1  0
  1 24  1  0
  1  2  1  1
  1  3  2  0
  6 11  1  0
  6 12  1  0
 29 36  1  0
 29 37  1  0
  9  7  1  6
  7 13  1  0
 10  8  1  1
  8 14  1  0
 37 28  1  1
  4  5  1  0
 33 30  1  1
 30 38  1  0
 34 31  1  1
 31 39  1  0
 35 32  1  1
 32 40  1  0
 41 42  1  0
 41 43  1  0
 15 19  2  0
 16 22  2  0
 12 17  1  6
 17 19  1  0
 17 20  1  0
 18 19  1  0
 18 22  1  0
 18 23  1  0
  9 10  1  0
  9 11  1  0
 10 12  1  0
 11  5  1  6
 33 34  1  0
 33 35  1  0
 34 36  1  0
 35 37  1  0
 36 42  1  6
 20 21  2  0
 21 22  1  0
M  CHG  2   2  -1  26  -1
M  END
>  <COMPND>  (166) 
    8629 

>  <AUTHOR>  (166) 
    GENERATED BY OPEN BABEL 3.1.1

>  <MASTER>  (166) 
        0    0    0    0    0    0    0    0   58    0   58    0

>  <minimizedAffinity>  (166) 
-7.19303

>  <CNNscore>  (166) 
0.5145052075

>  <CNNaffinity>  (166) 
4.3520693779

>  <CNN_VS>  (166) 
2.2391624451

>  <CNNaffinity_variance>  (166) 
0.2840998769

$$$$
167
     RDKit          3D

 43 45  0  0  0  0  0  0  0  0999 V2000
   21.5879   73.2886   -6.4340 P   0  0  2  0  0  0  0  0  0  0  0  0
   21.1987   74.8434   -6.6542 O   0  0  0  0  0  0  0  0  0  0  0  0
   22.8727   72.8593   -7.0795 O   0  0  0  0  0  0  0  0  0  0  0  0
   20.2635   72.4864   -6.9033 O   0  0  0  0  0  0  0  0  0  0  0  0
   19.0843   73.2255   -7.1698 C   0  0  0  0  0  0  0  0  0  0  0  0
   18.2739   70.9678   -7.0291 O   0  0  0  0  0  0  0  0  0  0  0  0
   15.6259   72.0616   -7.9138 O   0  0  0  0  0  0  0  0  0  0  0  0
   15.2823   71.7762   -5.2237 O   0  0  0  0  0  0  0  0  0  0  0  0
   16.6077   72.6525   -7.0640 C   0  0  1  0  0  0  0  0  0  0  0  0
   16.5945   71.9872   -5.7035 C   0  0  2  0  0  0  0  0  0  0  0  0
   17.9823   72.2646   -7.5945 C   0  0  1  0  0  0  0  0  0  0  0  0
   17.3315   70.6880   -5.9810 C   0  0  2  0  0  0  0  0  0  0  0  0
   14.7396   72.2956   -7.5951 H   0  0  0  0  0  0  0  0  0  0  0  0
   14.8553   72.6320   -5.0623 H   0  0  0  0  0  0  0  0  0  0  0  0
   16.1718   69.1452   -3.9187 O   0  0  0  0  0  0  0  0  0  0  0  0
   20.1565   68.8934   -1.6166 O   0  0  0  0  0  0  0  0  0  0  0  0
   18.0429   70.2054   -4.8310 N   0  0  0  0  0  0  0  0  0  0  0  0
   18.1569   69.0209   -2.7742 N   0  0  0  0  0  0  0  0  0  0  0  0
   17.3670   69.4397   -3.8525 C   0  0  0  0  0  0  0  0  0  0  0  0
   19.3955   70.4921   -4.6822 C   0  0  0  0  0  0  0  0  0  0  0  0
   20.1342   70.0863   -3.6473 C   0  0  0  0  0  0  0  0  0  0  0  0
   19.5043   69.2814   -2.5809 C   0  0  0  0  0  0  0  0  0  0  0  0
   17.7073   68.4864   -2.0800 H   0  0  0  0  0  0  0  0  0  0  0  0
   21.5576   73.1306   -4.8256 O   0  0  0  0  0  0  0  0  0  0  0  0
   22.7103   73.3553   -3.7149 P   0  0  2  0  0  0  0  0  0  0  0  0
   22.7679   74.9648   -3.5604 O   0  0  0  0  0  0  0  0  0  0  0  0
   24.0263   72.7185   -4.0563 O   0  0  0  0  0  0  0  0  0  0  0  0
   22.0543   72.8365   -2.3345 O   0  0  0  0  0  0  0  0  0  0  0  0
   22.8024   74.0474   -0.4396 O   0  0  0  0  0  0  0  0  0  0  0  0
   20.9144   70.9171    1.4808 O   0  0  0  0  0  0  0  0  0  0  0  0
   19.7105   73.5244    1.4984 O   0  0  0  0  0  0  0  0  0  0  0  0
   22.4196   70.4272   -0.9428 O   0  0  0  0  0  0  0  0  0  0  0  0
   21.1035   71.8882    0.4481 C   0  0  1  0  0  0  0  0  0  0  0  0
   21.0512   73.2794    1.0826 C   0  0  1  0  0  0  0  0  0  0  0  0
   22.4578   71.6516   -0.2177 C   0  0  2  0  0  0  0  0  0  0  0  0
   21.5088   74.3579    0.0914 C   0  0  1  0  0  0  0  0  0  0  0  0
   22.8402   72.8058   -1.1460 C   0  0  1  0  0  0  0  0  0  0  0  0
   20.0561   71.0615    1.9072 H   0  0  0  0  0  0  0  0  0  0  0  0
   19.4336   72.8361    2.1235 H   0  0  0  0  0  0  0  0  0  0  0  0
   22.1767   69.7044   -0.3441 H   0  0  0  0  0  0  0  0  0  0  0  0
   22.4430   75.6196    1.8927 O   0  0  0  0  0  0  0  0  0  0  0  0
   21.6150   75.7318    0.7498 C   0  0  0  0  0  0  0  0  0  0  0  0
   22.5200   76.4865    2.3218 H   0  0  0  0  0  0  0  0  0  0  0  0
 25 28  1  0
 25 24  1  0
 25 26  1  1
 25 27  2  0
  1  4  1  0
  1 24  1  0
  1  2  1  1
  1  3  2  0
  6 11  1  0
  6 12  1  0
 29 36  1  0
 29 37  1  0
  9  7  1  6
  7 13  1  0
 10  8  1  6
  8 14  1  0
 37 28  1  6
  4  5  1  0
 33 30  1  1
 30 38  1  0
 34 31  1  6
 31 39  1  0
 35 32  1  6
 32 40  1  0
 41 42  1  0
 41 43  1  0
 15 19  2  0
 16 22  2  0
 12 17  1  1
 17 19  1  0
 17 20  1  0
 18 19  1  0
 18 22  1  0
 18 23  1  0
  9 10  1  0
  9 11  1  0
 10 12  1  0
 11  5  1  1
 33 34  1  0
 33 35  1  0
 34 36  1  0
 35 37  1  0
 36 42  1  1
 20 21  2  0
 21 22  1  0
M  CHG  2   2  -1  26  -1
M  END
>  <COMPND>  (167) 
    8629 

>  <AUTHOR>  (167) 
    GENERATED BY OPEN BABEL 3.1.1

>  <MASTER>  (167) 
        0    0    0    0    0    0    0    0   58    0   58    0

>  <minimizedAffinity>  (167) 
-6.59452

>  <CNNscore>  (167) 
0.4797993600

>  <CNNaffinity>  (167) 
4.0621423721

>  <CNN_VS>  (167) 
1.9490133524

>  <CNNaffinity_variance>  (167) 
0.5132386684

$$$$
168
     RDKit          3D

 43 45  0  0  0  0  0  0  0  0999 V2000
   20.8441   72.0880   -3.3898 P   0  0  2  0  0  0  0  0  0  0  0  0
   21.1908   72.9091   -2.0396 O   0  0  0  0  0  0  0  0  0  0  0  0
   21.3212   72.7275   -4.6606 O   0  0  0  0  0  0  0  0  0  0  0  0
   19.2501   71.8296   -3.2888 O   0  0  0  0  0  0  0  0  0  0  0  0
   18.4758   72.6914   -2.4729 C   0  0  0  0  0  0  0  0  0  0  0  0
   16.7163   72.7383   -4.1087 O   0  0  0  0  0  0  0  0  0  0  0  0
   15.2156   70.9026   -2.2732 O   0  0  0  0  0  0  0  0  0  0  0  0
   16.1862   69.1916   -4.1618 O   0  0  0  0  0  0  0  0  0  0  0  0
   16.6145   70.9584   -2.5474 C   0  0  1  0  0  0  0  0  0  0  0  0
   16.9049   70.3836   -3.9181 C   0  0  2  0  0  0  0  0  0  0  0  0
   16.9992   72.4215   -2.7281 C   0  0  1  0  0  0  0  0  0  0  0  0
   16.4802   71.5198   -4.8328 C   0  0  2  0  0  0  0  0  0  0  0  0
   14.9463   69.9779   -2.1536 H   0  0  0  0  0  0  0  0  0  0  0  0
   16.4926   68.4994   -3.5554 H   0  0  0  0  0  0  0  0  0  0  0  0
   16.0794   69.7518   -6.9988 O   0  0  0  0  0  0  0  0  0  0  0  0
   19.4303   71.7282   -9.4699 O   0  0  0  0  0  0  0  0  0  0  0  0
   17.2335   71.5501   -6.0547 N   0  0  0  0  0  0  0  0  0  0  0  0
   17.7481   70.7375   -8.2275 N   0  0  0  0  0  0  0  0  0  0  0  0
   16.9537   70.6171   -7.0802 C   0  0  0  0  0  0  0  0  0  0  0  0
   18.2366   72.4977   -6.2270 C   0  0  0  0  0  0  0  0  0  0  0  0
   18.9860   72.5984   -7.3268 C   0  0  0  0  0  0  0  0  0  0  0  0
   18.7578   71.6613   -8.4456 C   0  0  0  0  0  0  0  0  0  0  0  0
   17.5713   70.0978   -8.9551 H   0  0  0  0  0  0  0  0  0  0  0  0
   21.4685   70.6261   -3.0967 O   0  0  0  0  0  0  0  0  0  0  0  0
   21.1041   69.5219   -1.9739 P   0  0  2  0  0  0  0  0  0  0  0  0
   22.1470   68.3234   -2.2799 O   0  0  0  0  0  0  0  0  0  0  0  0
   19.6627   69.1021   -1.9685 O   0  0  0  0  0  0  0  0  0  0  0  0
   21.6185   70.1654   -0.5860 O   0  0  0  0  0  0  0  0  0  0  0  0
   23.1761   71.8726   -0.0608 O   0  0  0  0  0  0  0  0  0  0  0  0
   24.1668   69.1484    2.8799 O   0  0  0  0  0  0  0  0  0  0  0  0
   22.7635   71.5519    3.5882 O   0  0  0  0  0  0  0  0  0  0  0  0
   23.4712   68.2209    0.2274 O   0  0  0  0  0  0  0  0  0  0  0  0
   23.2883   69.8477    1.9941 C   0  0  1  0  0  0  0  0  0  0  0  0
   23.3711   71.3410    2.3167 C   0  0  1  0  0  0  0  0  0  0  0  0
   23.7194   69.5844    0.5526 C   0  0  2  0  0  0  0  0  0  0  0  0
   22.6664   72.1798    1.2421 C   0  0  1  0  0  0  0  0  0  0  0  0
   22.9941   70.5045   -0.4310 C   0  0  1  0  0  0  0  0  0  0  0  0
   23.8982   69.3110    3.7969 H   0  0  0  0  0  0  0  0  0  0  0  0
   23.2175   71.0162    4.2577 H   0  0  0  0  0  0  0  0  0  0  0  0
   23.9360   67.6487    0.8570 H   0  0  0  0  0  0  0  0  0  0  0  0
   22.0239   74.3810    0.5705 O   0  0  0  0  0  0  0  0  0  0  0  0
   22.8716   73.6773    1.4597 C   0  0  0  0  0  0  0  0  0  0  0  0
   22.1436   75.3355    0.6979 H   0  0  0  0  0  0  0  0  0  0  0  0
 25 28  1  0
 25 24  1  0
 25 26  1  6
 25 27  2  0
  1  4  1  0
  1 24  1  0
  1  2  1  1
  1  3  2  0
  6 11  1  0
  6 12  1  0
 29 36  1  0
 29 37  1  0
  9  7  1  6
  7 13  1  0
 10  8  1  6
  8 14  1  0
 37 28  1  1
  4  5  1  0
 33 30  1  1
 30 38  1  0
 34 31  1  1
 31 39  1  0
 35 32  1  6
 32 40  1  0
 41 42  1  0
 41 43  1  0
 15 19  2  0
 16 22  2  0
 12 17  1  6
 17 19  1  0
 17 20  1  0
 18 19  1  0
 18 22  1  0
 18 23  1  0
  9 10  1  0
  9 11  1  0
 10 12  1  0
 11  5  1  6
 33 34  1  0
 33 35  1  0
 34 36  1  0
 35 37  1  0
 36 42  1  1
 20 21  2  0
 21 22  1  0
M  CHG  2   2  -1  26  -1
M  END
>  <COMPND>  (168) 
    8629 

>  <AUTHOR>  (168) 
    GENERATED BY OPEN BABEL 3.1.1

>  <MASTER>  (168) 
        0    0    0    0    0    0    0    0   58    0   58    0

>  <minimizedAffinity>  (168) 
-7.47121

>  <CNNscore>  (168) 
0.4718801975

>  <CNNaffinity>  (168) 
4.2545418739

>  <CNN_VS>  (168) 
2.0076341629

>  <CNNaffinity_variance>  (168) 
0.0893776193

$$$$
169
     RDKit          3D

 43 45  0  0  0  0  0  0  0  0999 V2000
   21.0122   74.4346   -5.0838 P   0  0  2  0  0  0  0  0  0  0  0  0
   19.7260   75.0082   -4.2875 O   0  0  0  0  0  0  0  0  0  0  0  0
   22.0021   75.4739   -5.5212 O   0  0  0  0  0  0  0  0  0  0  0  0
   20.3685   73.5360   -6.2653 O   0  0  0  0  0  0  0  0  0  0  0  0
   20.8904   72.2375   -6.4879 C   0  0  0  0  0  0  0  0  0  0  0  0
   19.1498   70.6330   -6.8996 O   0  0  0  0  0  0  0  0  0  0  0  0
   18.8869   71.8922   -9.6081 O   0  0  0  0  0  0  0  0  0  0  0  0
   16.8018   72.9914   -8.2367 O   0  0  0  0  0  0  0  0  0  0  0  0
   19.1809   72.5041   -8.3534 C   0  0  1  0  0  0  0  0  0  0  0  0
   17.9330   72.5766   -7.4984 C   0  0  2  0  0  0  0  0  0  0  0  0
   20.0567   71.5448   -7.5572 C   0  0  1  0  0  0  0  0  0  0  0  0
   17.8117   71.1478   -6.9963 C   0  0  2  0  0  0  0  0  0  0  0  0
   18.3287   72.4865  -10.1346 H   0  0  0  0  0  0  0  0  0  0  0  0
   16.9271   73.9061   -8.5340 H   0  0  0  0  0  0  0  0  0  0  0  0
   15.9387   69.1729   -6.2417 O   0  0  0  0  0  0  0  0  0  0  0  0
   15.4849   70.9568   -2.0164 O   0  0  0  0  0  0  0  0  0  0  0  0
   17.1885   71.0721   -5.7051 N   0  0  0  0  0  0  0  0  0  0  0  0
   15.7144   70.0626   -4.1384 N   0  0  0  0  0  0  0  0  0  0  0  0
   16.2606   70.0413   -5.4281 C   0  0  0  0  0  0  0  0  0  0  0  0
   17.4993   72.0130   -4.7294 C   0  0  0  0  0  0  0  0  0  0  0  0
   16.9687   72.0202   -3.5047 C   0  0  0  0  0  0  0  0  0  0  0  0
   15.9905   70.9772   -3.1344 C   0  0  0  0  0  0  0  0  0  0  0  0
   15.0653   69.3542   -3.9229 H   0  0  0  0  0  0  0  0  0  0  0  0
   21.6050   73.3268   -4.0667 O   0  0  0  0  0  0  0  0  0  0  0  0
   23.0477   73.2107   -3.3469 P   0  0  2  0  0  0  0  0  0  0  0  0
   23.0533   74.4632   -2.3228 O   0  0  0  0  0  0  0  0  0  0  0  0
   24.2093   73.1830   -4.2976 O   0  0  0  0  0  0  0  0  0  0  0  0
   22.9279   71.9097   -2.3992 O   0  0  0  0  0  0  0  0  0  0  0  0
   23.0841   69.7027   -3.2484 O   0  0  0  0  0  0  0  0  0  0  0  0
   20.8687   68.9455    0.1530 O   0  0  0  0  0  0  0  0  0  0  0  0
   23.6244   68.1435    0.0479 O   0  0  0  0  0  0  0  0  0  0  0  0
   20.3712   71.3436   -1.3902 O   0  0  0  0  0  0  0  0  0  0  0  0
   21.8613   69.6087   -0.6347 C   0  0  1  0  0  0  0  0  0  0  0  0
   22.8840   68.5673   -1.0934 C   0  0  1  0  0  0  0  0  0  0  0  0
   21.1870   70.2661   -1.8373 C   0  0  2  0  0  0  0  0  0  0  0  0
   23.8265   69.1473   -2.1566 C   0  0  1  0  0  0  0  0  0  0  0  0
   22.2125   70.7652   -2.8569 C   0  0  1  0  0  0  0  0  0  0  0  0
   21.2902   68.5264    0.9185 H   0  0  0  0  0  0  0  0  0  0  0  0
   23.0175   67.7799    0.7118 H   0  0  0  0  0  0  0  0  0  0  0  0
   19.7261   71.0147   -0.7456 H   0  0  0  0  0  0  0  0  0  0  0  0
   25.8645   68.7303   -3.3320 O   0  0  0  0  0  0  0  0  0  0  0  0
   24.7521   68.0831   -2.7421 C   0  0  0  0  0  0  0  0  0  0  0  0
   26.4624   68.0653   -3.7086 H   0  0  0  0  0  0  0  0  0  0  0  0
 25 28  1  0
 25 24  1  0
 25 26  1  1
 25 27  2  0
  1  4  1  0
  1 24  1  0
  1  2  1  1
  1  3  2  0
  6 11  1  0
  6 12  1  0
 29 36  1  0
 29 37  1  0
  9  7  1  6
  7 13  1  0
 10  8  1  6
  8 14  1  0
 37 28  1  1
  4  5  1  0
 33 30  1  1
 30 38  1  0
 34 31  1  1
 31 39  1  0
 35 32  1  1
 32 40  1  0
 41 42  1  0
 41 43  1  0
 15 19  2  0
 16 22  2  0
 12 17  1  1
 17 19  1  0
 17 20  1  0
 18 19  1  0
 18 22  1  0
 18 23  1  0
  9 10  1  0
  9 11  1  0
 10 12  1  0
 11  5  1  1
 33 34  1  0
 33 35  1  0
 34 36  1  0
 35 37  1  0
 36 42  1  6
 20 21  2  0
 21 22  1  0
M  CHG  2   2  -1  26  -1
M  END
>  <COMPND>  (169) 
    8629 

>  <AUTHOR>  (169) 
    GENERATED BY OPEN BABEL 3.1.1

>  <MASTER>  (169) 
        0    0    0    0    0    0    0    0   58    0   58    0

>  <minimizedAffinity>  (169) 
-8.40076

>  <CNNscore>  (169) 
0.3610077798

>  <CNNaffinity>  (169) 
3.8995480537

>  <CNN_VS>  (169) 
1.4077671766

>  <CNNaffinity_variance>  (169) 
0.9724249840

$$$$
170
     RDKit          3D

 43 45  0  0  0  0  0  0  0  0999 V2000
   21.9962   72.1585   -3.9421 P   0  0  2  0  0  0  0  0  0  0  0  0
   21.2731   73.0946   -2.8383 O   0  0  0  0  0  0  0  0  0  0  0  0
   23.2760   72.7090   -4.4994 O   0  0  0  0  0  0  0  0  0  0  0  0
   20.8297   71.8606   -5.0230 O   0  0  0  0  0  0  0  0  0  0  0  0
   20.8317   72.5896   -6.2381 C   0  0  0  0  0  0  0  0  0  0  0  0
   19.2960   70.7892   -6.6551 O   0  0  0  0  0  0  0  0  0  0  0  0
   19.0410   71.8981   -9.4293 O   0  0  0  0  0  0  0  0  0  0  0  0
   16.7822   72.8199   -8.2108 O   0  0  0  0  0  0  0  0  0  0  0  0
   19.2026   72.5903   -8.1923 C   0  0  1  0  0  0  0  0  0  0  0  0
   17.9114   72.5620   -7.4014 C   0  0  2  0  0  0  0  0  0  0  0  0
   20.1333   71.7661   -7.3115 C   0  0  1  0  0  0  0  0  0  0  0  0
   17.9175   71.1508   -6.8388 C   0  0  2  0  0  0  0  0  0  0  0  0
   18.4507   72.4056  -10.0089 H   0  0  0  0  0  0  0  0  0  0  0  0
   16.8245   73.7296   -8.5446 H   0  0  0  0  0  0  0  0  0  0  0  0
   16.2586   68.9991   -6.0664 O   0  0  0  0  0  0  0  0  0  0  0  0
   15.3678   70.9165   -1.9711 O   0  0  0  0  0  0  0  0  0  0  0  0
   17.2398   71.0617   -5.5761 N   0  0  0  0  0  0  0  0  0  0  0  0
   15.8166   69.9555   -4.0278 N   0  0  0  0  0  0  0  0  0  0  0  0
   16.4294   69.9390   -5.2873 C   0  0  0  0  0  0  0  0  0  0  0  0
   17.3823   72.0799   -4.6398 C   0  0  0  0  0  0  0  0  0  0  0  0
   16.7900   72.0811   -3.4437 C   0  0  0  0  0  0  0  0  0  0  0  0
   15.9263   70.9447   -3.0634 C   0  0  0  0  0  0  0  0  0  0  0  0
   15.2469   69.1838   -3.8047 H   0  0  0  0  0  0  0  0  0  0  0  0
   22.1501   70.7442   -3.1745 O   0  0  0  0  0  0  0  0  0  0  0  0
   21.1684   69.9871   -2.1372 P   0  0  2  0  0  0  0  0  0  0  0  0
   21.6217   68.4389   -2.2600 O   0  0  0  0  0  0  0  0  0  0  0  0
   19.7074   70.2261   -2.3864 O   0  0  0  0  0  0  0  0  0  0  0  0
   21.6822   70.4478   -0.6782 O   0  0  0  0  0  0  0  0  0  0  0  0
   23.2629   72.0809   -0.0068 O   0  0  0  0  0  0  0  0  0  0  0  0
   24.1454   69.1360    2.7499 O   0  0  0  0  0  0  0  0  0  0  0  0
   22.7766   71.5123    3.6028 O   0  0  0  0  0  0  0  0  0  0  0  0
   23.4811   68.4126    0.0269 O   0  0  0  0  0  0  0  0  0  0  0  0
   23.2973   69.9142    1.9011 C   0  0  1  0  0  0  0  0  0  0  0  0
   23.4033   71.3790    2.3301 C   0  0  1  0  0  0  0  0  0  0  0  0
   23.7499   69.7443    0.4521 C   0  0  2  0  0  0  0  0  0  0  0  0
   22.7352   72.3060    1.3057 C   0  0  1  0  0  0  0  0  0  0  0  0
   23.0611   70.7464   -0.4760 C   0  0  1  0  0  0  0  0  0  0  0  0
   23.8631   69.2391    3.6715 H   0  0  0  0  0  0  0  0  0  0  0  0
   23.2075   70.9214    4.2403 H   0  0  0  0  0  0  0  0  0  0  0  0
   23.9228   67.7878    0.6222 H   0  0  0  0  0  0  0  0  0  0  0  0
   21.9021   74.2302    2.4512 O   0  0  0  0  0  0  0  0  0  0  0  0
   22.9656   73.7798    1.6324 C   0  0  0  0  0  0  0  0  0  0  0  0
   22.0356   75.1668    2.6674 H   0  0  0  0  0  0  0  0  0  0  0  0
 25 28  1  0
 25 24  1  0
 25 26  1  1
 25 27  2  0
  1  4  1  0
  1 24  1  0
  1  2  1  1
  1  3  2  0
  6 11  1  0
  6 12  1  0
 29 36  1  0
 29 37  1  0
  9  7  1  6
  7 13  1  0
 10  8  1  6
  8 14  1  0
 37 28  1  1
  4  5  1  0
 33 30  1  1
 30 38  1  0
 34 31  1  1
 31 39  1  0
 35 32  1  6
 32 40  1  0
 41 42  1  0
 41 43  1  0
 15 19  2  0
 16 22  2  0
 12 17  1  1
 17 19  1  0
 17 20  1  0
 18 19  1  0
 18 22  1  0
 18 23  1  0
  9 10  1  0
  9 11  1  0
 10 12  1  0
 11  5  1  1
 33 34  1  0
 33 35  1  0
 34 36  1  0
 35 37  1  0
 36 42  1  1
 20 21  2  0
 21 22  1  0
M  CHG  2   2  -1  26  -1
M  END
>  <COMPND>  (170) 
    8629 

>  <AUTHOR>  (170) 
    GENERATED BY OPEN BABEL 3.1.1

>  <MASTER>  (170) 
        0    0    0    0    0    0    0    0   58    0   58    0

>  <minimizedAffinity>  (170) 
-7.90554

>  <CNNscore>  (170) 
0.3570660949

>  <CNNaffinity>  (170) 
4.0835318565

>  <CNN_VS>  (170) 
1.4580907822

>  <CNNaffinity_variance>  (170) 
0.2296484411

$$$$
171
     RDKit          3D

 43 45  0  0  0  0  0  0  0  0999 V2000
   22.2948   72.6293   -3.9526 P   0  0  2  0  0  0  0  0  0  0  0  0
   23.8778   72.8657   -4.1889 O   0  0  0  0  0  0  0  0  0  0  0  0
   21.9127   71.2283   -3.5750 O   0  0  0  0  0  0  0  0  0  0  0  0
   21.6105   73.2051   -5.3010 O   0  0  0  0  0  0  0  0  0  0  0  0
   21.5660   72.3712   -6.4457 C   0  0  0  0  0  0  0  0  0  0  0  0
   19.5513   71.9284   -7.6782 O   0  0  0  0  0  0  0  0  0  0  0  0
   19.3255   74.8995   -8.0131 O   0  0  0  0  0  0  0  0  0  0  0  0
   17.5588   74.3925   -5.9986 O   0  0  0  0  0  0  0  0  0  0  0  0
   19.8051   74.1513   -6.8971 C   0  0  1  0  0  0  0  0  0  0  0  0
   18.6493   73.5083   -6.1593 C   0  0  2  0  0  0  0  0  0  0  0  0
   20.5548   72.9380   -7.4329 C   0  0  1  0  0  0  0  0  0  0  0  0
   18.3184   72.3293   -7.0585 C   0  0  2  0  0  0  0  0  0  0  0  0
   18.8435   75.6799   -7.6958 H   0  0  0  0  0  0  0  0  0  0  0  0
   17.8192   75.1252   -5.4188 H   0  0  0  0  0  0  0  0  0  0  0  0
   15.9756   70.9269   -7.7815 O   0  0  0  0  0  0  0  0  0  0  0  0
   16.3487   68.0783   -4.1777 O   0  0  0  0  0  0  0  0  0  0  0  0
   17.7807   71.2168   -6.3273 N   0  0  0  0  0  0  0  0  0  0  0  0
   16.1634   69.5096   -5.9866 N   0  0  0  0  0  0  0  0  0  0  0  0
   16.5980   70.5830   -6.7746 C   0  0  0  0  0  0  0  0  0  0  0  0
   18.4247   70.7649   -5.1806 C   0  0  0  0  0  0  0  0  0  0  0  0
   17.9966   69.7407   -4.4397 C   0  0  0  0  0  0  0  0  0  0  0  0
   16.7680   69.0238   -4.8381 C   0  0  0  0  0  0  0  0  0  0  0  0
   15.3412   69.0529   -6.2787 H   0  0  0  0  0  0  0  0  0  0  0  0
   21.9209   73.7493   -2.8486 O   0  0  0  0  0  0  0  0  0  0  0  0
   21.0410   73.6544   -1.4960 P   0  0  2  0  0  0  0  0  0  0  0  0
   19.7661   72.7649   -1.9444 O   0  0  0  0  0  0  0  0  0  0  0  0
   20.6878   74.9849   -0.8969 O   0  0  0  0  0  0  0  0  0  0  0  0
   21.8908   72.6871   -0.5228 O   0  0  0  0  0  0  0  0  0  0  0  0
   21.7884   70.3199   -0.4733 O   0  0  0  0  0  0  0  0  0  0  0  0
   22.7308   71.0225    3.4851 O   0  0  0  0  0  0  0  0  0  0  0  0
   24.7216   69.9322    1.7255 O   0  0  0  0  0  0  0  0  0  0  0  0
   20.9010   72.7878    2.1012 O   0  0  0  0  0  0  0  0  0  0  0  0
   22.7643   71.2617    2.0755 C   0  0  1  0  0  0  0  0  0  0  0  0
   23.3391   70.0195    1.3918 C   0  0  1  0  0  0  0  0  0  0  0  0
   21.3454   71.5388    1.5823 C   0  0  2  0  0  0  0  0  0  0  0  0
   23.1605   70.0925   -0.1306 C   0  0  1  0  0  0  0  0  0  0  0  0
   21.2690   71.5420    0.0545 C   0  0  1  0  0  0  0  0  0  0  0  0
   23.6288   70.8463    3.8047 H   0  0  0  0  0  0  0  0  0  0  0  0
   24.8205   69.8872    2.6896 H   0  0  0  0  0  0  0  0  0  0  0  0
   20.9540   72.7729    3.0691 H   0  0  0  0  0  0  0  0  0  0  0  0
   23.2691   67.7114    0.0345 O   0  0  0  0  0  0  0  0  0  0  0  0
   23.5832   68.7965   -0.8189 C   0  0  0  0  0  0  0  0  0  0  0  0
   23.5324   66.8797   -0.3907 H   0  0  0  0  0  0  0  0  0  0  0  0
 25 28  1  0
 25 24  1  0
 25 26  1  6
 25 27  2  0
  1  4  1  0
  1 24  1  0
  1  2  1  6
  1  3  2  0
  6 11  1  0
  6 12  1  0
 29 36  1  0
 29 37  1  0
  9  7  1  6
  7 13  1  0
 10  8  1  6
  8 14  1  0
 37 28  1  6
  4  5  1  0
 33 30  1  1
 30 38  1  0
 34 31  1  6
 31 39  1  0
 35 32  1  6
 32 40  1  0
 41 42  1  0
 41 43  1  0
 15 19  2  0
 16 22  2  0
 12 17  1  1
 17 19  1  0
 17 20  1  0
 18 19  1  0
 18 22  1  0
 18 23  1  0
  9 10  1  0
  9 11  1  0
 10 12  1  0
 11  5  1  1
 33 34  1  0
 33 35  1  0
 34 36  1  0
 35 37  1  0
 36 42  1  6
 20 21  2  0
 21 22  1  0
M  CHG  2   2  -1  26  -1
M  END
>  <COMPND>  (171) 
    8629 

>  <AUTHOR>  (171) 
    GENERATED BY OPEN BABEL 3.1.1

>  <MASTER>  (171) 
        0    0    0    0    0    0    0    0   58    0   58    0

>  <minimizedAffinity>  (171) 
-7.39450

>  <CNNscore>  (171) 
0.3465924561

>  <CNNaffinity>  (171) 
4.0377140045

>  <CNN_VS>  (171) 
1.3994412422

>  <CNNaffinity_variance>  (171) 
0.2518350482

$$$$
172
     RDKit          3D

 43 45  0  0  0  0  0  0  0  0999 V2000
   22.4808   73.3304   -3.4056 P   0  0  2  0  0  0  0  0  0  0  0  0
   23.7081   73.1118   -4.4367 O   0  0  0  0  0  0  0  0  0  0  0  0
   22.4633   74.6620   -2.7143 O   0  0  0  0  0  0  0  0  0  0  0  0
   22.5525   72.0366   -2.4366 O   0  0  0  0  0  0  0  0  0  0  0  0
   22.7796   72.2400   -1.0528 C   0  0  0  0  0  0  0  0  0  0  0  0
   21.9689   69.9788   -0.9963 O   0  0  0  0  0  0  0  0  0  0  0  0
   21.5200   70.4111    1.9367 O   0  0  0  0  0  0  0  0  0  0  0  0
   23.8523   68.9985    1.8942 O   0  0  0  0  0  0  0  0  0  0  0  0
   22.5667   70.9040    1.1019 C   0  0  1  0  0  0  0  0  0  0  0  0
   23.5403   69.7930    0.7681 C   0  0  2  0  0  0  0  0  0  0  0  0
   21.9680   71.2228   -0.2624 C   0  0  1  0  0  0  0  0  0  0  0  0
   22.7840   69.0217   -0.3002 C   0  0  2  0  0  0  0  0  0  0  0  0
   21.8782   70.2008    2.8139 H   0  0  0  0  0  0  0  0  0  0  0  0
   24.3327   69.5340    2.5448 H   0  0  0  0  0  0  0  0  0  0  0  0
   23.2087   66.2334   -0.4523 O   0  0  0  0  0  0  0  0  0  0  0  0
   26.1763   66.6914   -3.9487 O   0  0  0  0  0  0  0  0  0  0  0  0
   23.6620   68.3851   -1.2410 N   0  0  0  0  0  0  0  0  0  0  0  0
   24.6858   66.4637   -2.1932 N   0  0  0  0  0  0  0  0  0  0  0  0
   23.8048   66.9779   -1.2333 C   0  0  0  0  0  0  0  0  0  0  0  0
   24.3699   69.1541   -2.1583 C   0  0  0  0  0  0  0  0  0  0  0  0
   25.2071   68.6484   -3.0664 C   0  0  0  0  0  0  0  0  0  0  0  0
   25.4131   67.1869   -3.1253 C   0  0  0  0  0  0  0  0  0  0  0  0
   24.8015   65.4859   -2.2063 H   0  0  0  0  0  0  0  0  0  0  0  0
   21.1811   73.0291   -4.3183 O   0  0  0  0  0  0  0  0  0  0  0  0
   19.6028   73.1386   -3.9870 P   0  0  2  0  0  0  0  0  0  0  0  0
   19.2723   74.6976   -4.2660 O   0  0  0  0  0  0  0  0  0  0  0  0
   19.2278   72.6622   -2.6136 O   0  0  0  0  0  0  0  0  0  0  0  0
   18.8767   72.3462   -5.1912 O   0  0  0  0  0  0  0  0  0  0  0  0
   19.8969   73.4098   -7.0472 O   0  0  0  0  0  0  0  0  0  0  0  0
   17.9440   70.3574   -9.0272 O   0  0  0  0  0  0  0  0  0  0  0  0
   20.8005   70.2645   -8.7442 O   0  0  0  0  0  0  0  0  0  0  0  0
   16.6683   71.6737   -6.7867 O   0  0  0  0  0  0  0  0  0  0  0  0
   18.6568   70.9617   -7.9446 C   0  0  1  0  0  0  0  0  0  0  0  0
   20.0193   71.4231   -8.4656 C   0  0  1  0  0  0  0  0  0  0  0  0
   17.8524   72.1488   -7.4182 C   0  0  2  0  0  0  0  0  0  0  0  0
   20.7321   72.3141   -7.4394 C   0  0  1  0  0  0  0  0  0  0  0  0
   18.6699   72.9969   -6.4422 C   0  0  1  0  0  0  0  0  0  0  0  0
   18.4492   69.6026   -9.3657 H   0  0  0  0  0  0  0  0  0  0  0  0
   20.3390   69.7102   -9.3931 H   0  0  0  0  0  0  0  0  0  0  0  0
   16.1595   71.1386   -7.4149 H   0  0  0  0  0  0  0  0  0  0  0  0
   22.5627   73.7950   -7.0333 O   0  0  0  0  0  0  0  0  0  0  0  0
   22.0204   72.9134   -7.9992 C   0  0  0  0  0  0  0  0  0  0  0  0
   23.3832   74.1837   -7.3758 H   0  0  0  0  0  0  0  0  0  0  0  0
 25 28  1  0
 25 24  1  0
 25 26  1  1
 25 27  2  0
  1  4  1  0
  1 24  1  0
  1  2  1  6
  1  3  2  0
  6 11  1  0
  6 12  1  0
 29 36  1  0
 29 37  1  0
  9  7  1  1
  7 13  1  0
 10  8  1  1
  8 14  1  0
 37 28  1  1
  4  5  1  0
 33 30  1  6
 30 38  1  0
 34 31  1  1
 31 39  1  0
 35 32  1  1
 32 40  1  0
 41 42  1  0
 41 43  1  0
 15 19  2  0
 16 22  2  0
 12 17  1  6
 17 19  1  0
 17 20  1  0
 18 19  1  0
 18 22  1  0
 18 23  1  0
  9 10  1  0
  9 11  1  0
 10 12  1  0
 11  5  1  6
 33 34  1  0
 33 35  1  0
 34 36  1  0
 35 37  1  0
 36 42  1  6
 20 21  2  0
 21 22  1  0
M  CHG  2   2  -1  26  -1
M  END
>  <COMPND>  (172) 
    8629 

>  <AUTHOR>  (172) 
    GENERATED BY OPEN BABEL 3.1.1

>  <MASTER>  (172) 
        0    0    0    0    0    0    0    0   58    0   58    0

>  <minimizedAffinity>  (172) 
-8.36044

>  <CNNscore>  (172) 
0.3432790637

>  <CNNaffinity>  (172) 
4.0810976028

>  <CNN_VS>  (172) 
1.4009553194

>  <CNNaffinity_variance>  (172) 
0.7588087320

$$$$
173
     RDKit          3D

 43 45  0  0  0  0  0  0  0  0999 V2000
   21.7295   73.1367   -6.6480 P   0  0  2  0  0  0  0  0  0  0  0  0
   21.5355   74.7260   -6.4155 O   0  0  0  0  0  0  0  0  0  0  0  0
   22.9299   72.7576   -7.4646 O   0  0  0  0  0  0  0  0  0  0  0  0
   20.3007   72.6524   -7.2326 O   0  0  0  0  0  0  0  0  0  0  0  0
   19.2893   73.6237   -7.4366 C   0  0  0  0  0  0  0  0  0  0  0  0
   18.0487   71.5665   -7.4896 O   0  0  0  0  0  0  0  0  0  0  0  0
   15.6987   73.2234   -8.3401 O   0  0  0  0  0  0  0  0  0  0  0  0
   15.2107   72.8169   -5.6881 O   0  0  0  0  0  0  0  0  0  0  0  0
   16.7463   73.5453   -7.4267 C   0  0  1  0  0  0  0  0  0  0  0  0
   16.5550   72.7987   -6.1230 C   0  0  2  0  0  0  0  0  0  0  0  0
   18.0364   72.9330   -7.9576 C   0  0  1  0  0  0  0  0  0  0  0  0
   17.0332   71.4031   -6.4861 C   0  0  2  0  0  0  0  0  0  0  0  0
   14.8645   73.6042   -8.0223 H   0  0  0  0  0  0  0  0  0  0  0  0
   14.9538   73.7262   -5.4691 H   0  0  0  0  0  0  0  0  0  0  0  0
   16.2617   68.8131   -5.6647 O   0  0  0  0  0  0  0  0  0  0  0  0
   19.2568   68.8329   -2.1619 O   0  0  0  0  0  0  0  0  0  0  0  0
   17.5952   70.7073   -5.3630 N   0  0  0  0  0  0  0  0  0  0  0  0
   17.7538   68.8250   -3.9213 N   0  0  0  0  0  0  0  0  0  0  0  0
   17.1368   69.4102   -5.0344 C   0  0  0  0  0  0  0  0  0  0  0  0
   18.5897   71.3107   -4.6009 C   0  0  0  0  0  0  0  0  0  0  0  0
   19.1669   70.7397   -3.5416 C   0  0  0  0  0  0  0  0  0  0  0  0
   18.7454   69.3848   -3.1313 C   0  0  0  0  0  0  0  0  0  0  0  0
   17.4502   67.9216   -3.6734 H   0  0  0  0  0  0  0  0  0  0  0  0
   21.7256   72.5461   -5.1433 O   0  0  0  0  0  0  0  0  0  0  0  0
   22.7249   72.8038   -3.8992 P   0  0  2  0  0  0  0  0  0  0  0  0
   21.9374   73.9043   -3.0125 O   0  0  0  0  0  0  0  0  0  0  0  0
   24.1138   73.2096   -4.2993 O   0  0  0  0  0  0  0  0  0  0  0  0
   22.6494   71.4478   -3.0270 O   0  0  0  0  0  0  0  0  0  0  0  0
   22.7624   71.7794   -0.6831 O   0  0  0  0  0  0  0  0  0  0  0  0
   23.4037   67.7020   -0.8045 O   0  0  0  0  0  0  0  0  0  0  0  0
   20.8915   68.7144    0.1504 O   0  0  0  0  0  0  0  0  0  0  0  0
   24.5665   69.4076   -2.8338 O   0  0  0  0  0  0  0  0  0  0  0  0
   22.8343   68.9445   -1.2256 C   0  0  1  0  0  0  0  0  0  0  0  0
   22.0417   69.5299   -0.0552 C   0  0  1  0  0  0  0  0  0  0  0  0
   23.9573   69.8925   -1.6421 C   0  0  2  0  0  0  0  0  0  0  0  0
   21.6252   70.9796   -0.3382 C   0  0  1  0  0  0  0  0  0  0  0  0
   23.4443   71.3184   -1.8512 C   0  0  1  0  0  0  0  0  0  0  0  0
   22.6959   67.0953   -0.5391 H   0  0  0  0  0  0  0  0  0  0  0  0
   21.1684   67.8016    0.3277 H   0  0  0  0  0  0  0  0  0  0  0  0
   24.8873   68.5044   -2.6884 H   0  0  0  0  0  0  0  0  0  0  0  0
   21.2108   70.8197    2.0095 O   0  0  0  0  0  0  0  0  0  0  0  0
   20.9713   71.6343    0.8766 C   0  0  0  0  0  0  0  0  0  0  0  0
   20.8006   71.2242    2.7904 H   0  0  0  0  0  0  0  0  0  0  0  0
 25 28  1  0
 25 24  1  0
 25 26  1  1
 25 27  2  0
  1  4  1  0
  1 24  1  0
  1  2  1  1
  1  3  2  0
  6 11  1  0
  6 12  1  0
 29 36  1  0
 29 37  1  0
  9  7  1  6
  7 13  1  0
 10  8  1  6
  8 14  1  0
 37 28  1  6
  4  5  1  0
 33 30  1  1
 30 38  1  0
 34 31  1  6
 31 39  1  0
 35 32  1  6
 32 40  1  0
 41 42  1  0
 41 43  1  0
 15 19  2  0
 16 22  2  0
 12 17  1  1
 17 19  1  0
 17 20  1  0
 18 19  1  0
 18 22  1  0
 18 23  1  0
  9 10  1  0
  9 11  1  0
 10 12  1  0
 11  5  1  1
 33 34  1  0
 33 35  1  0
 34 36  1  0
 35 37  1  0
 36 42  1  1
 20 21  2  0
 21 22  1  0
M  CHG  2   2  -1  26  -1
M  END
>  <COMPND>  (173) 
    8629 

>  <AUTHOR>  (173) 
    GENERATED BY OPEN BABEL 3.1.1

>  <MASTER>  (173) 
        0    0    0    0    0    0    0    0   58    0   58    0

>  <minimizedAffinity>  (173) 
-8.00946

>  <CNNscore>  (173) 
0.3388686776

>  <CNNaffinity>  (173) 
3.9475319386

>  <CNN_VS>  (173) 
1.3376948833

>  <CNNaffinity_variance>  (173) 
0.6821465492

$$$$
174
     RDKit          3D

 43 45  0  0  0  0  0  0  0  0999 V2000
   18.3381   68.7681   -3.5222 P   0  0  2  0  0  0  0  0  0  0  0  0
   17.1039   68.4044   -2.5415 O   0  0  0  0  0  0  0  0  0  0  0  0
   19.4230   67.7336   -3.5860 O   0  0  0  0  0  0  0  0  0  0  0  0
   18.7993   70.2409   -3.0363 O   0  0  0  0  0  0  0  0  0  0  0  0
   20.1592   70.4450   -2.6943 C   0  0  0  0  0  0  0  0  0  0  0  0
   21.1233   68.8127   -1.2178 O   0  0  0  0  0  0  0  0  0  0  0  0
   20.8860   70.8907    0.9308 O   0  0  0  0  0  0  0  0  0  0  0  0
   23.5230   71.0366    0.2515 O   0  0  0  0  0  0  0  0  0  0  0  0
   21.1958   71.0542   -0.4522 C   0  0  1  0  0  0  0  0  0  0  0  0
   22.6108   70.5927   -0.7322 C   0  0  2  0  0  0  0  0  0  0  0  0
   20.3702   70.0451   -1.2405 C   0  0  1  0  0  0  0  0  0  0  0  0
   22.4529   69.0817   -0.7438 C   0  0  2  0  0  0  0  0  0  0  0  0
   21.4011   71.5249    1.4546 H   0  0  0  0  0  0  0  0  0  0  0  0
   23.5887   72.0037    0.2188 H   0  0  0  0  0  0  0  0  0  0  0  0
   23.7469   70.3506   -2.9102 O   0  0  0  0  0  0  0  0  0  0  0  0
   26.0550   66.5173   -4.0145 O   0  0  0  0  0  0  0  0  0  0  0  0
   23.3970   68.4390   -1.6138 N   0  0  0  0  0  0  0  0  0  0  0  0
   24.8952   68.4409   -3.4582 N   0  0  0  0  0  0  0  0  0  0  0  0
   23.9893   69.1654   -2.6730 C   0  0  0  0  0  0  0  0  0  0  0  0
   23.7272   67.1033   -1.4123 C   0  0  0  0  0  0  0  0  0  0  0  0
   24.5920   66.4265   -2.1708 C   0  0  0  0  0  0  0  0  0  0  0  0
   25.2552   67.1121   -3.2987 C   0  0  0  0  0  0  0  0  0  0  0  0
   25.3200   68.9263   -4.2023 H   0  0  0  0  0  0  0  0  0  0  0  0
   17.6065   69.0636   -4.9330 O   0  0  0  0  0  0  0  0  0  0  0  0
   16.7522   70.3391   -5.4392 P   0  0  2  0  0  0  0  0  0  0  0  0
   16.2758   71.0376   -4.0598 O   0  0  0  0  0  0  0  0  0  0  0  0
   15.6324   69.9962   -6.3786 O   0  0  0  0  0  0  0  0  0  0  0  0
   17.8516   71.3507   -6.0499 O   0  0  0  0  0  0  0  0  0  0  0  0
   17.5431   72.4788   -8.1112 O   0  0  0  0  0  0  0  0  0  0  0  0
   21.6702   72.4675   -7.9764 O   0  0  0  0  0  0  0  0  0  0  0  0
   20.2437   74.9201   -7.5315 O   0  0  0  0  0  0  0  0  0  0  0  0
   20.1888   70.1604   -7.0477 O   0  0  0  0  0  0  0  0  0  0  0  0
   20.3489   72.5326   -7.4328 C   0  0  1  0  0  0  0  0  0  0  0  0
   19.6364   73.7389   -8.0475 C   0  0  1  0  0  0  0  0  0  0  0  0
   19.6065   71.2407   -7.7691 C   0  0  2  0  0  0  0  0  0  0  0  0
   18.1370   73.7224   -7.7206 C   0  0  1  0  0  0  0  0  0  0  0  0
   18.1141   71.3476   -7.4507 C   0  0  1  0  0  0  0  0  0  0  0  0
   22.1471   73.2846   -7.7659 H   0  0  0  0  0  0  0  0  0  0  0  0
   21.1902   74.9179   -7.7443 H   0  0  0  0  0  0  0  0  0  0  0  0
   21.1334   70.1031   -7.2582 H   0  0  0  0  0  0  0  0  0  0  0  0
   17.9247   76.0767   -8.0687 O   0  0  0  0  0  0  0  0  0  0  0  0
   17.3798   74.8279   -8.4531 C   0  0  0  0  0  0  0  0  0  0  0  0
   17.4527   76.7898   -8.5274 H   0  0  0  0  0  0  0  0  0  0  0  0
 25 28  1  0
 25 24  1  0
 25 26  1  1
 25 27  2  0
  1  4  1  0
  1 24  1  0
  1  2  1  1
  1  3  2  0
  6 11  1  0
  6 12  1  0
 29 36  1  0
 29 37  1  0
  9  7  1  1
  7 13  1  0
 10  8  1  1
  8 14  1  0
 37 28  1  1
  4  5  1  0
 33 30  1  6
 30 38  1  0
 34 31  1  1
 31 39  1  0
 35 32  1  1
 32 40  1  0
 41 42  1  0
 41 43  1  0
 15 19  2  0
 16 22  2  0
 12 17  1  6
 17 19  1  0
 17 20  1  0
 18 19  1  0
 18 22  1  0
 18 23  1  0
  9 10  1  0
  9 11  1  0
 10 12  1  0
 11  5  1  6
 33 34  1  0
 33 35  1  0
 34 36  1  0
 35 37  1  0
 36 42  1  6
 20 21  2  0
 21 22  1  0
M  CHG  2   2  -1  26  -1
M  END
>  <COMPND>  (174) 
    8629 

>  <AUTHOR>  (174) 
    GENERATED BY OPEN BABEL 3.1.1

>  <MASTER>  (174) 
        0    0    0    0    0    0    0    0   58    0   58    0

>  <minimizedAffinity>  (174) 
-8.02456

>  <CNNscore>  (174) 
0.3261370063

>  <CNNaffinity>  (174) 
4.1115322113

>  <CNN_VS>  (174) 
1.3409228325

>  <CNNaffinity_variance>  (174) 
0.4782795906

$$$$
175
     RDKit          3D

 43 45  0  0  0  0  0  0  0  0999 V2000
   21.9016   73.9265   -6.3469 P   0  0  2  0  0  0  0  0  0  0  0  0
   22.7576   72.8526   -7.2021 O   0  0  0  0  0  0  0  0  0  0  0  0
   21.7293   75.2654   -7.0019 O   0  0  0  0  0  0  0  0  0  0  0  0
   22.6281   73.9397   -4.9013 O   0  0  0  0  0  0  0  0  0  0  0  0
   22.6813   72.7331   -4.1603 C   0  0  0  0  0  0  0  0  0  0  0  0
   21.3747   71.4858   -2.5758 O   0  0  0  0  0  0  0  0  0  0  0  0
   21.2453   74.0166   -0.9729 O   0  0  0  0  0  0  0  0  0  0  0  0
   23.1778   72.5920    0.3204 O   0  0  0  0  0  0  0  0  0  0  0  0
   22.3164   73.5027   -1.7629 C   0  0  1  0  0  0  0  0  0  0  0  0
   22.9802   72.3395   -1.0558 C   0  0  2  0  0  0  0  0  0  0  0  0
   21.7136   72.8278   -2.9886 C   0  0  1  0  0  0  0  0  0  0  0  0
   21.9926   71.2127   -1.3075 C   0  0  2  0  0  0  0  0  0  0  0  0
   21.6057   74.4526   -0.1843 H   0  0  0  0  0  0  0  0  0  0  0  0
   23.8137   73.3164    0.4283 H   0  0  0  0  0  0  0  0  0  0  0  0
   21.2429   68.9847    0.2583 O   0  0  0  0  0  0  0  0  0  0  0  0
   24.5136   66.3345   -1.6177 O   0  0  0  0  0  0  0  0  0  0  0  0
   22.6309   69.9280   -1.3667 N   0  0  0  0  0  0  0  0  0  0  0  0
   22.8719   67.6669   -0.6772 N   0  0  0  0  0  0  0  0  0  0  0  0
   22.1782   68.8757   -0.5372 C   0  0  0  0  0  0  0  0  0  0  0  0
   23.6929   69.7215   -2.2404 C   0  0  0  0  0  0  0  0  0  0  0  0
   24.3447   68.5631   -2.3609 C   0  0  0  0  0  0  0  0  0  0  0  0
   23.9343   67.4127   -1.5301 C   0  0  0  0  0  0  0  0  0  0  0  0
   22.5744   66.9196   -0.1091 H   0  0  0  0  0  0  0  0  0  0  0  0
   20.5209   73.1390   -6.0525 O   0  0  0  0  0  0  0  0  0  0  0  0
   18.9829   73.6323   -6.1172 P   0  0  2  0  0  0  0  0  0  0  0  0
   18.6851   73.7115   -7.7054 O   0  0  0  0  0  0  0  0  0  0  0  0
   18.7139   74.9078   -5.3724 O   0  0  0  0  0  0  0  0  0  0  0  0
   18.1255   72.3648   -5.6043 O   0  0  0  0  0  0  0  0  0  0  0  0
   19.1570   70.2353   -5.4709 O   0  0  0  0  0  0  0  0  0  0  0  0
   15.2044   69.0470   -5.5965 O   0  0  0  0  0  0  0  0  0  0  0  0
   16.6708   68.8362   -3.1363 O   0  0  0  0  0  0  0  0  0  0  0  0
   16.0920   71.2826   -7.2071 O   0  0  0  0  0  0  0  0  0  0  0  0
   16.2982   69.8992   -5.2463 C   0  0  1  0  0  0  0  0  0  0  0  0
   17.2824   69.0918   -4.3976 C   0  0  1  0  0  0  0  0  0  0  0  0
   16.9722   70.3969   -6.5236 C   0  0  2  0  0  0  0  0  0  0  0  0
   18.6024   69.8511   -4.2073 C   0  0  1  0  0  0  0  0  0  0  0  0
   18.3007   71.0944   -6.2263 C   0  0  1  0  0  0  0  0  0  0  0  0
   14.7718   68.7280   -4.7900 H   0  0  0  0  0  0  0  0  0  0  0  0
   15.8382   68.3568   -3.2705 H   0  0  0  0  0  0  0  0  0  0  0  0
   15.2548   70.8291   -7.3898 H   0  0  0  0  0  0  0  0  0  0  0  0
   19.2556   68.8230   -2.1518 O   0  0  0  0  0  0  0  0  0  0  0  0
   19.6543   69.0007   -3.4986 C   0  0  0  0  0  0  0  0  0  0  0  0
   19.9156   68.2832   -1.6884 H   0  0  0  0  0  0  0  0  0  0  0  0
 25 28  1  0
 25 24  1  0
 25 26  1  6
 25 27  2  0
  1  4  1  0
  1 24  1  0
  1  2  1  6
  1  3  2  0
  6 11  1  0
  6 12  1  0
 29 36  1  0
 29 37  1  0
  9  7  1  1
  7 13  1  0
 10  8  1  1
  8 14  1  0
 37 28  1  1
  4  5  1  0
 33 30  1  6
 30 38  1  0
 34 31  1  1
 31 39  1  0
 35 32  1  1
 32 40  1  0
 41 42  1  0
 41 43  1  0
 15 19  2  0
 16 22  2  0
 12 17  1  6
 17 19  1  0
 17 20  1  0
 18 19  1  0
 18 22  1  0
 18 23  1  0
  9 10  1  0
  9 11  1  0
 10 12  1  0
 11  5  1  6
 33 34  1  0
 33 35  1  0
 34 36  1  0
 35 37  1  0
 36 42  1  6
 20 21  2  0
 21 22  1  0
M  CHG  2   2  -1  26  -1
M  END
>  <COMPND>  (175) 
    8629 

>  <AUTHOR>  (175) 
    GENERATED BY OPEN BABEL 3.1.1

>  <MASTER>  (175) 
        0    0    0    0    0    0    0    0   58    0   58    0

>  <minimizedAffinity>  (175) 
-8.04016

>  <CNNscore>  (175) 
0.3234297633

>  <CNNaffinity>  (175) 
3.9799358845

>  <CNN_VS>  (175) 
1.2872297764

>  <CNNaffinity_variance>  (175) 
0.8904250264

$$$$
176
     RDKit          3D

 43 45  0  0  0  0  0  0  0  0999 V2000
   22.6369   73.0626   -3.2624 P   0  0  2  0  0  0  0  0  0  0  0  0
   23.8352   72.8569   -4.3297 O   0  0  0  0  0  0  0  0  0  0  0  0
   22.4538   74.4711   -2.7787 O   0  0  0  0  0  0  0  0  0  0  0  0
   22.9428   71.9607   -2.1178 O   0  0  0  0  0  0  0  0  0  0  0  0
   23.0125   72.3886   -0.7687 C   0  0  0  0  0  0  0  0  0  0  0  0
   22.1247   70.1605   -0.6240 O   0  0  0  0  0  0  0  0  0  0  0  0
   22.0073   70.6009    2.3397 O   0  0  0  0  0  0  0  0  0  0  0  0
   24.2649   69.0986    2.0509 O   0  0  0  0  0  0  0  0  0  0  0  0
   22.9778   71.0552    1.3978 C   0  0  1  0  0  0  0  0  0  0  0  0
   23.8662   69.9082    0.9635 C   0  0  2  0  0  0  0  0  0  0  0  0
   22.2504   71.4014    0.1046 C   0  0  1  0  0  0  0  0  0  0  0  0
   22.9711   69.1702   -0.0175 C   0  0  2  0  0  0  0  0  0  0  0  0
   22.4482   70.3740    3.1740 H   0  0  0  0  0  0  0  0  0  0  0  0
   24.8323   69.6129    2.6461 H   0  0  0  0  0  0  0  0  0  0  0  0
   23.1031   66.3661   -0.3296 O   0  0  0  0  0  0  0  0  0  0  0  0
   25.8712   66.7209   -3.9974 O   0  0  0  0  0  0  0  0  0  0  0  0
   23.7186   68.5028   -1.0457 N   0  0  0  0  0  0  0  0  0  0  0  0
   24.4811   66.5450   -2.1557 N   0  0  0  0  0  0  0  0  0  0  0  0
   23.7196   67.0901   -1.1141 C   0  0  0  0  0  0  0  0  0  0  0  0
   24.4398   69.2476   -1.9726 C   0  0  0  0  0  0  0  0  0  0  0  0
   25.1620   68.7125   -2.9592 C   0  0  0  0  0  0  0  0  0  0  0  0
   25.2160   67.2432   -3.1009 C   0  0  0  0  0  0  0  0  0  0  0  0
   24.4970   65.5627   -2.2228 H   0  0  0  0  0  0  0  0  0  0  0  0
   21.3562   72.4431   -4.0300 O   0  0  0  0  0  0  0  0  0  0  0  0
   20.4567   71.1382   -3.7117 P   0  0  2  0  0  0  0  0  0  0  0  0
   19.6912   71.5399   -2.3442 O   0  0  0  0  0  0  0  0  0  0  0  0
   21.2366   69.8578   -3.6318 O   0  0  0  0  0  0  0  0  0  0  0  0
   19.3049   71.1504   -4.8423 O   0  0  0  0  0  0  0  0  0  0  0  0
   17.7597   72.8055   -5.5419 O   0  0  0  0  0  0  0  0  0  0  0  0
   15.2939   69.4965   -5.6884 O   0  0  0  0  0  0  0  0  0  0  0  0
   16.2040   70.6960   -8.1340 O   0  0  0  0  0  0  0  0  0  0  0  0
   17.2355   69.7572   -3.5573 O   0  0  0  0  0  0  0  0  0  0  0  0
   16.5277   70.2086   -5.8148 C   0  0  1  0  0  0  0  0  0  0  0  0
   16.3394   71.3130   -6.8568 C   0  0  1  0  0  0  0  0  0  0  0  0
   16.9003   70.8062   -4.4593 C   0  0  2  0  0  0  0  0  0  0  0  0
   17.5277   72.2841   -6.8557 C   0  0  1  0  0  0  0  0  0  0  0  0
   18.0616   71.7949   -4.5779 C   0  0  1  0  0  0  0  0  0  0  0  0
   15.0518   69.1142   -6.5456 H   0  0  0  0  0  0  0  0  0  0  0  0
   15.4505   70.0851   -8.1210 H   0  0  0  0  0  0  0  0  0  0  0  0
   16.4922   69.1383   -3.4907 H   0  0  0  0  0  0  0  0  0  0  0  0
   17.7976   73.1685   -9.0589 O   0  0  0  0  0  0  0  0  0  0  0  0
   17.2896   73.4803   -7.7747 C   0  0  0  0  0  0  0  0  0  0  0  0
   17.6528   73.9207   -9.6546 H   0  0  0  0  0  0  0  0  0  0  0  0
 25 28  1  0
 25 24  1  0
 25 26  1  1
 25 27  2  0
  1  4  1  0
  1 24  1  0
  1  2  1  6
  1  3  2  0
  6 11  1  0
  6 12  1  0
 29 36  1  0
 29 37  1  0
  9  7  1  1
  7 13  1  0
 10  8  1  1
  8 14  1  0
 37 28  1  6
  4  5  1  0
 33 30  1  1
 30 38  1  0
 34 31  1  6
 31 39  1  0
 35 32  1  1
 32 40  1  0
 41 42  1  0
 41 43  1  0
 15 19  2  0
 16 22  2  0
 12 17  1  6
 17 19  1  0
 17 20  1  0
 18 19  1  0
 18 22  1  0
 18 23  1  0
  9 10  1  0
  9 11  1  0
 10 12  1  0
 11  5  1  6
 33 34  1  0
 33 35  1  0
 34 36  1  0
 35 37  1  0
 36 42  1  6
 20 21  2  0
 21 22  1  0
M  CHG  2   2  -1  26  -1
M  END
>  <COMPND>  (176) 
    8629 

>  <AUTHOR>  (176) 
    GENERATED BY OPEN BABEL 3.1.1

>  <MASTER>  (176) 
        0    0    0    0    0    0    0    0   58    0   58    0

>  <minimizedAffinity>  (176) 
-8.42418

>  <CNNscore>  (176) 
0.3050580621

>  <CNNaffinity>  (176) 
4.0405583382

>  <CNN_VS>  (176) 
1.2326048613

>  <CNNaffinity_variance>  (176) 
0.5239583254

$$$$
177
     RDKit          3D

 43 45  0  0  0  0  0  0  0  0999 V2000
   21.1628   69.8858   -2.6149 P   0  0  2  0  0  0  0  0  0  0  0  0
   20.1970   69.1230   -1.5648 O   0  0  0  0  0  0  0  0  0  0  0  0
   21.3257   71.3576   -2.3723 O   0  0  0  0  0  0  0  0  0  0  0  0
   20.5660   69.4740   -4.0613 O   0  0  0  0  0  0  0  0  0  0  0  0
   19.5483   70.2812   -4.6275 C   0  0  0  0  0  0  0  0  0  0  0  0
   17.5178   71.3984   -3.9930 O   0  0  0  0  0  0  0  0  0  0  0  0
   16.6386   68.7612   -2.8692 O   0  0  0  0  0  0  0  0  0  0  0  0
   15.3113   68.8654   -5.2491 O   0  0  0  0  0  0  0  0  0  0  0  0
   17.4123   69.0314   -4.0369 C   0  0  1  0  0  0  0  0  0  0  0  0
   16.5280   69.5756   -5.1393 C   0  0  2  0  0  0  0  0  0  0  0  0
   18.3150   70.2215   -3.7367 C   0  0  1  0  0  0  0  0  0  0  0  0
   16.3266   71.0158   -4.6998 C   0  0  2  0  0  0  0  0  0  0  0  0
   16.0543   68.0046   -3.0366 H   0  0  0  0  0  0  0  0  0  0  0  0
   15.4923   67.9552   -5.5312 H   0  0  0  0  0  0  0  0  0  0  0  0
   17.1307   70.4561   -7.3489 O   0  0  0  0  0  0  0  0  0  0  0  0
   15.5495   74.5058   -8.8789 O   0  0  0  0  0  0  0  0  0  0  0  0
   16.1371   71.9060   -5.8102 N   0  0  0  0  0  0  0  0  0  0  0  0
   16.3426   72.4729   -8.1086 N   0  0  0  0  0  0  0  0  0  0  0  0
   16.5783   71.5298   -7.1002 C   0  0  0  0  0  0  0  0  0  0  0  0
   15.5194   73.1365   -5.6144 C   0  0  0  0  0  0  0  0  0  0  0  0
   15.3033   74.0252   -6.5863 C   0  0  0  0  0  0  0  0  0  0  0  0
   15.7340   73.7096   -7.9636 C   0  0  0  0  0  0  0  0  0  0  0  0
   16.6419   72.2327   -9.0155 H   0  0  0  0  0  0  0  0  0  0  0  0
   22.5344   69.0345   -2.5320 O   0  0  0  0  0  0  0  0  0  0  0  0
   23.4659   68.6425   -1.2704 P   0  0  2  0  0  0  0  0  0  0  0  0
   24.9202   69.2126   -1.6918 O   0  0  0  0  0  0  0  0  0  0  0  0
   23.4500   67.1819   -0.9240 O   0  0  0  0  0  0  0  0  0  0  0  0
   22.9748   69.6174   -0.0815 O   0  0  0  0  0  0  0  0  0  0  0  0
   23.5172   71.9208    0.0481 O   0  0  0  0  0  0  0  0  0  0  0  0
   22.9987   71.1377    4.0691 O   0  0  0  0  0  0  0  0  0  0  0  0
   21.0260   72.6758    2.6582 O   0  0  0  0  0  0  0  0  0  0  0  0
   24.2704   69.1714    2.3674 O   0  0  0  0  0  0  0  0  0  0  0  0
   22.7337   71.0012    2.6704 C   0  0  1  0  0  0  0  0  0  0  0  0
   22.3116   72.3675    2.1266 C   0  0  1  0  0  0  0  0  0  0  0  0
   23.9985   70.5105    1.9683 C   0  0  2  0  0  0  0  0  0  0  0  0
   22.2688   72.3641    0.5926 C   0  0  1  0  0  0  0  0  0  0  0  0
   23.8684   70.5941    0.4464 C   0  0  1  0  0  0  0  0  0  0  0  0
   22.1994   71.4485    4.5209 H   0  0  0  0  0  0  0  0  0  0  0  0
   21.0667   72.6742    3.6275 H   0  0  0  0  0  0  0  0  0  0  0  0
   24.3509   69.1319    3.3328 H   0  0  0  0  0  0  0  0  0  0  0  0
   20.7748   73.7296   -0.6772 O   0  0  0  0  0  0  0  0  0  0  0  0
   22.0039   73.7568    0.0248 C   0  0  0  0  0  0  0  0  0  0  0  0
   20.5931   74.6095   -1.0439 H   0  0  0  0  0  0  0  0  0  0  0  0
 25 28  1  0
 25 24  1  0
 25 26  1  6
 25 27  2  0
  1  4  1  0
  1 24  1  0
  1  2  1  1
  1  3  2  0
  6 11  1  0
  6 12  1  0
 29 36  1  0
 29 37  1  0
  9  7  1  1
  7 13  1  0
 10  8  1  1
  8 14  1  0
 37 28  1  1
  4  5  1  0
 33 30  1  1
 30 38  1  0
 34 31  1  1
 31 39  1  0
 35 32  1  6
 32 40  1  0
 41 42  1  0
 41 43  1  0
 15 19  2  0
 16 22  2  0
 12 17  1  6
 17 19  1  0
 17 20  1  0
 18 19  1  0
 18 22  1  0
 18 23  1  0
  9 10  1  0
  9 11  1  0
 10 12  1  0
 11  5  1  6
 33 34  1  0
 33 35  1  0
 34 36  1  0
 35 37  1  0
 36 42  1  6
 20 21  2  0
 21 22  1  0
M  CHG  2   2  -1  26  -1
M  END
>  <COMPND>  (177) 
    8629 

>  <AUTHOR>  (177) 
    GENERATED BY OPEN BABEL 3.1.1

>  <MASTER>  (177) 
        0    0    0    0    0    0    0    0   58    0   58    0

>  <minimizedAffinity>  (177) 
-7.97698

>  <CNNscore>  (177) 
0.3028388619

>  <CNNaffinity>  (177) 
4.0292992592

>  <CNN_VS>  (177) 
1.2202284336

>  <CNNaffinity_variance>  (177) 
0.1337645799

$$$$
178
     RDKit          3D

 43 45  0  0  0  0  0  0  0  0999 V2000
   22.6540   73.2536   -4.1103 P   0  0  2  0  0  0  0  0  0  0  0  0
   23.1128   74.3695   -5.1881 O   0  0  0  0  0  0  0  0  0  0  0  0
   23.6510   72.1586   -3.8683 O   0  0  0  0  0  0  0  0  0  0  0  0
   21.2012   72.7767   -4.6394 O   0  0  0  0  0  0  0  0  0  0  0  0
   20.7285   73.2908   -5.8722 C   0  0  0  0  0  0  0  0  0  0  0  0
   19.7629   71.0973   -6.0451 O   0  0  0  0  0  0  0  0  0  0  0  0
   19.6629   71.5787   -9.0030 O   0  0  0  0  0  0  0  0  0  0  0  0
   17.0903   72.0575   -8.2356 O   0  0  0  0  0  0  0  0  0  0  0  0
   19.4618   72.4992   -7.9318 C   0  0  1  0  0  0  0  0  0  0  0  0
   18.1134   72.2648   -7.2833 C   0  0  2  0  0  0  0  0  0  0  0  0
   20.4233   72.1301   -6.8091 C   0  0  1  0  0  0  0  0  0  0  0  0
   18.3815   71.0329   -6.4355 C   0  0  2  0  0  0  0  0  0  0  0  0
   19.0599   71.7946   -9.7322 H   0  0  0  0  0  0  0  0  0  0  0  0
   16.9573   72.8693   -8.7494 H   0  0  0  0  0  0  0  0  0  0  0  0
   15.9277   69.6476   -6.2404 O   0  0  0  0  0  0  0  0  0  0  0  0
   15.3330   70.9463   -1.8585 O   0  0  0  0  0  0  0  0  0  0  0  0
   17.5648   70.9918   -5.2554 N   0  0  0  0  0  0  0  0  0  0  0  0
   15.6337   70.2952   -4.0587 N   0  0  0  0  0  0  0  0  0  0  0  0
   16.3496   70.2680   -5.2623 C   0  0  0  0  0  0  0  0  0  0  0  0
   17.9710   71.6640   -4.1078 C   0  0  0  0  0  0  0  0  0  0  0  0
   17.2762   71.6812   -2.9684 C   0  0  0  0  0  0  0  0  0  0  0  0
   15.9951   70.9497   -2.8917 C   0  0  0  0  0  0  0  0  0  0  0  0
   14.7838   69.7982   -4.0401 H   0  0  0  0  0  0  0  0  0  0  0  0
   22.2936   74.1358   -2.8047 O   0  0  0  0  0  0  0  0  0  0  0  0
   21.6036   73.7234   -1.4022 P   0  0  2  0  0  0  0  0  0  0  0  0
   20.0457   73.5360   -1.7962 O   0  0  0  0  0  0  0  0  0  0  0  0
   21.8474   74.6979   -0.2865 O   0  0  0  0  0  0  0  0  0  0  0  0
   22.1333   72.2269   -1.1108 O   0  0  0  0  0  0  0  0  0  0  0  0
   20.4739   70.5575   -1.3871 O   0  0  0  0  0  0  0  0  0  0  0  0
   23.3571   68.3105    0.5336 O   0  0  0  0  0  0  0  0  0  0  0  0
   22.8641   67.8919   -2.2645 O   0  0  0  0  0  0  0  0  0  0  0  0
   22.9070   71.0595    1.3210 O   0  0  0  0  0  0  0  0  0  0  0  0
   22.8694   69.3245   -0.3492 C   0  0  1  0  0  0  0  0  0  0  0  0
   22.0062   68.6537   -1.4196 C   0  0  1  0  0  0  0  0  0  0  0  0
   22.0460   70.3307    0.4527 C   0  0  2  0  0  0  0  0  0  0  0  0
   21.2341   69.6948   -2.2412 C   0  0  1  0  0  0  0  0  0  0  0  0
   21.2795   71.2889   -0.4608 C   0  0  1  0  0  0  0  0  0  0  0  0
   23.8812   67.6686    0.0308 H   0  0  0  0  0  0  0  0  0  0  0  0
   23.3461   67.2386   -1.7334 H   0  0  0  0  0  0  0  0  0  0  0  0
   23.3863   70.4418    1.8942 H   0  0  0  0  0  0  0  0  0  0  0  0
   19.0820   68.6871   -2.4896 O   0  0  0  0  0  0  0  0  0  0  0  0
   20.2483   69.0434   -3.2087 C   0  0  0  0  0  0  0  0  0  0  0  0
   18.4454   68.2716   -3.0927 H   0  0  0  0  0  0  0  0  0  0  0  0
 25 28  1  0
 25 24  1  0
 25 26  1  6
 25 27  2  0
  1  4  1  0
  1 24  1  0
  1  2  1  6
  1  3  2  0
  6 11  1  0
  6 12  1  0
 29 36  1  0
 29 37  1  0
  9  7  1  6
  7 13  1  0
 10  8  1  6
  8 14  1  0
 37 28  1  6
  4  5  1  0
 33 30  1  1
 30 38  1  0
 34 31  1  6
 31 39  1  0
 35 32  1  1
 32 40  1  0
 41 42  1  0
 41 43  1  0
 15 19  2  0
 16 22  2  0
 12 17  1  1
 17 19  1  0
 17 20  1  0
 18 19  1  0
 18 22  1  0
 18 23  1  0
  9 10  1  0
  9 11  1  0
 10 12  1  0
 11  5  1  1
 33 34  1  0
 33 35  1  0
 34 36  1  0
 35 37  1  0
 36 42  1  6
 20 21  2  0
 21 22  1  0
M  CHG  2   2  -1  26  -1
M  END
>  <COMPND>  (178) 
    8629 

>  <AUTHOR>  (178) 
    GENERATED BY OPEN BABEL 3.1.1

>  <MASTER>  (178) 
        0    0    0    0    0    0    0    0   58    0   58    0

>  <minimizedAffinity>  (178) 
-7.58491

>  <CNNscore>  (178) 
0.3021799028

>  <CNNaffinity>  (178) 
3.6874566078

>  <CNN_VS>  (178) 
1.1142753363

>  <CNNaffinity_variance>  (178) 
1.0960053205

$$$$
179
     RDKit          3D

 43 45  0  0  0  0  0  0  0  0999 V2000
   22.5015   73.4928   -3.7563 P   0  0  2  0  0  0  0  0  0  0  0  0
   23.6500   72.5243   -4.3565 O   0  0  0  0  0  0  0  0  0  0  0  0
   22.9771   74.8498   -3.3277 O   0  0  0  0  0  0  0  0  0  0  0  0
   21.8013   72.5976   -2.6047 O   0  0  0  0  0  0  0  0  0  0  0  0
   22.5997   72.1339   -1.5298 C   0  0  0  0  0  0  0  0  0  0  0  0
   21.8993   69.8405   -1.3755 O   0  0  0  0  0  0  0  0  0  0  0  0
   21.2836   70.4174    1.5018 O   0  0  0  0  0  0  0  0  0  0  0  0
   23.6816   69.1280    1.6541 O   0  0  0  0  0  0  0  0  0  0  0  0
   22.3452   70.9151    0.6890 C   0  0  1  0  0  0  0  0  0  0  0  0
   23.3877   69.8389    0.4688 C   0  0  2  0  0  0  0  0  0  0  0  0
   21.8006   71.1231   -0.7187 C   0  0  1  0  0  0  0  0  0  0  0  0
   22.7246   68.9689   -0.5855 C   0  0  2  0  0  0  0  0  0  0  0  0
   21.6073   70.2770    2.4059 H   0  0  0  0  0  0  0  0  0  0  0  0
   24.1020   69.7243    2.2932 H   0  0  0  0  0  0  0  0  0  0  0  0
   23.2334   66.1906   -0.6068 O   0  0  0  0  0  0  0  0  0  0  0  0
   26.4087   66.6121   -3.9206 O   0  0  0  0  0  0  0  0  0  0  0  0
   23.6788   68.3255   -1.4440 N   0  0  0  0  0  0  0  0  0  0  0  0
   24.8139   66.4027   -2.2569 N   0  0  0  0  0  0  0  0  0  0  0  0
   23.8588   66.9244   -1.3751 C   0  0  0  0  0  0  0  0  0  0  0  0
   24.4239   69.0822   -2.3419 C   0  0  0  0  0  0  0  0  0  0  0  0
   25.3318   68.5697   -3.1752 C   0  0  0  0  0  0  0  0  0  0  0  0
   25.5805   67.1137   -3.1667 C   0  0  0  0  0  0  0  0  0  0  0  0
   24.9565   65.4288   -2.2264 H   0  0  0  0  0  0  0  0  0  0  0  0
   21.3900   73.5092   -4.9298 O   0  0  0  0  0  0  0  0  0  0  0  0
   21.5451   73.5237   -6.5388 P   0  0  2  0  0  0  0  0  0  0  0  0
   20.1149   72.9704   -7.0544 O   0  0  0  0  0  0  0  0  0  0  0  0
   22.7280   72.7533   -7.0499 O   0  0  0  0  0  0  0  0  0  0  0  0
   21.5439   75.0882   -6.9352 O   0  0  0  0  0  0  0  0  0  0  0  0
   23.6784   75.6976   -7.7654 O   0  0  0  0  0  0  0  0  0  0  0  0
   21.9230   79.4334   -7.6532 O   0  0  0  0  0  0  0  0  0  0  0  0
   22.3760   78.1551  -10.1847 O   0  0  0  0  0  0  0  0  0  0  0  0
   21.3859   77.5218   -5.5468 O   0  0  0  0  0  0  0  0  0  0  0  0
   21.9579   78.0152   -7.8339 C   0  0  1  0  0  0  0  0  0  0  0  0
   22.9442   77.6994   -8.9601 C   0  0  1  0  0  0  0  0  0  0  0  0
   22.4027   77.3566   -6.5293 C   0  0  2  0  0  0  0  0  0  0  0  0
   23.2372   76.1948   -9.0342 C   0  0  1  0  0  0  0  0  0  0  0  0
   22.7155   75.8719   -6.7241 C   0  0  1  0  0  0  0  0  0  0  0  0
   21.6408   79.8577   -8.4778 H   0  0  0  0  0  0  0  0  0  0  0  0
   22.1954   79.1064  -10.1245 H   0  0  0  0  0  0  0  0  0  0  0  0
   21.1973   78.4659   -5.4325 H   0  0  0  0  0  0  0  0  0  0  0  0
   23.7579   75.8231  -11.3363 O   0  0  0  0  0  0  0  0  0  0  0  0
   24.3363   75.8753  -10.0451 C   0  0  0  0  0  0  0  0  0  0  0  0
   24.4458   75.6208  -11.9901 H   0  0  0  0  0  0  0  0  0  0  0  0
 25 28  1  0
 25 24  1  0
 25 26  1  6
 25 27  2  0
  1  4  1  0
  1 24  1  0
  1  2  1  6
  1  3  2  0
  6 11  1  0
  6 12  1  0
 29 36  1  0
 29 37  1  0
  9  7  1  1
  7 13  1  0
 10  8  1  1
  8 14  1  0
 37 28  1  6
  4  5  1  0
 33 30  1  1
 30 38  1  0
 34 31  1  6
 31 39  1  0
 35 32  1  1
 32 40  1  0
 41 42  1  0
 41 43  1  0
 15 19  2  0
 16 22  2  0
 12 17  1  6
 17 19  1  0
 17 20  1  0
 18 19  1  0
 18 22  1  0
 18 23  1  0
  9 10  1  0
  9 11  1  0
 10 12  1  0
 11  5  1  6
 33 34  1  0
 33 35  1  0
 34 36  1  0
 35 37  1  0
 36 42  1  6
 20 21  2  0
 21 22  1  0
M  CHG  2   2  -1  26  -1
M  END
>  <COMPND>  (179) 
    8629 

>  <AUTHOR>  (179) 
    GENERATED BY OPEN BABEL 3.1.1

>  <MASTER>  (179) 
        0    0    0    0    0    0    0    0   58    0   58    0

>  <minimizedAffinity>  (179) 
-7.42443

>  <CNNscore>  (179) 
0.2960550189

>  <CNNaffinity>  (179) 
4.0994033813

>  <CNN_VS>  (179) 
1.2136489153

>  <CNNaffinity_variance>  (179) 
0.1902826577

$$$$
180
     RDKit          3D

 43 45  0  0  0  0  0  0  0  0999 V2000
   22.7569   70.6732   -2.1667 P   0  0  2  0  0  0  0  0  0  0  0  0
   22.6993   69.2233   -1.4513 O   0  0  0  0  0  0  0  0  0  0  0  0
   23.7692   70.7971   -3.2673 O   0  0  0  0  0  0  0  0  0  0  0  0
   22.9283   71.7078   -0.9346 O   0  0  0  0  0  0  0  0  0  0  0  0
   22.1103   71.5378    0.2098 C   0  0  0  0  0  0  0  0  0  0  0  0
   24.1823   71.9557    1.3526 O   0  0  0  0  0  0  0  0  0  0  0  0
   22.9466   70.5706    3.7075 O   0  0  0  0  0  0  0  0  0  0  0  0
   22.6826   73.2049    4.3615 O   0  0  0  0  0  0  0  0  0  0  0  0
   22.3369   71.4252    2.7414 C   0  0  1  0  0  0  0  0  0  0  0  0
   22.7314   72.8660    2.9905 C   0  0  2  0  0  0  0  0  0  0  0  0
   22.9866   71.1463    1.3918 C   0  0  1  0  0  0  0  0  0  0  0  0
   24.1418   72.9084    2.4276 C   0  0  2  0  0  0  0  0  0  0  0  0
   22.5477   70.7303    4.5778 H   0  0  0  0  0  0  0  0  0  0  0  0
   21.7648   73.1634    4.6725 H   0  0  0  0  0  0  0  0  0  0  0  0
   25.8469   74.7386    3.7394 O   0  0  0  0  0  0  0  0  0  0  0  0
   25.4000   77.8513    0.3700 O   0  0  0  0  0  0  0  0  0  0  0  0
   24.4885   74.2041    1.9156 N   0  0  0  0  0  0  0  0  0  0  0  0
   25.6231   76.2869    2.0606 N   0  0  0  0  0  0  0  0  0  0  0  0
   25.3522   75.0470    2.6532 C   0  0  0  0  0  0  0  0  0  0  0  0
   23.9742   74.6272    0.6948 C   0  0  0  0  0  0  0  0  0  0  0  0
   24.2412   75.8132    0.1441 C   0  0  0  0  0  0  0  0  0  0  0  0
   25.1352   76.7535    0.8502 C   0  0  0  0  0  0  0  0  0  0  0  0
   26.2222   76.8910    2.5566 H   0  0  0  0  0  0  0  0  0  0  0  0
   21.2267   70.9107   -2.6304 O   0  0  0  0  0  0  0  0  0  0  0  0
   20.5056   72.1970   -3.2925 P   0  0  2  0  0  0  0  0  0  0  0  0
   21.5449   72.6524   -4.4457 O   0  0  0  0  0  0  0  0  0  0  0  0
   20.1556   73.2788   -2.3120 O   0  0  0  0  0  0  0  0  0  0  0  0
   19.2449   71.5897   -4.0967 O   0  0  0  0  0  0  0  0  0  0  0  0
   18.8799   69.3196   -4.6709 O   0  0  0  0  0  0  0  0  0  0  0  0
   17.0166   71.1211   -7.8855 O   0  0  0  0  0  0  0  0  0  0  0  0
   15.4299   69.8538   -5.8546 O   0  0  0  0  0  0  0  0  0  0  0  0
   19.4602   72.2462   -6.8166 O   0  0  0  0  0  0  0  0  0  0  0  0
   17.4252   70.9920   -6.5211 C   0  0  1  0  0  0  0  0  0  0  0  0
   16.8410   69.6912   -5.9666 C   0  0  1  0  0  0  0  0  0  0  0  0
   18.9512   70.9662   -6.4573 C   0  0  2  0  0  0  0  0  0  0  0  0
   17.4495   69.3489   -4.5999 C   0  0  1  0  0  0  0  0  0  0  0  0
   19.4518   70.5674   -5.0679 C   0  0  1  0  0  0  0  0  0  0  0  0
   16.0486   71.1386   -7.9329 H   0  0  0  0  0  0  0  0  0  0  0  0
   15.0582   70.0701   -6.7243 H   0  0  0  0  0  0  0  0  0  0  0  0
   19.1363   72.4870   -7.6980 H   0  0  0  0  0  0  0  0  0  0  0  0
   16.3189   67.3177   -5.1523 O   0  0  0  0  0  0  0  0  0  0  0  0
   16.9995   67.9776   -4.1007 C   0  0  0  0  0  0  0  0  0  0  0  0
   16.0269   66.4434   -4.8491 H   0  0  0  0  0  0  0  0  0  0  0  0
 25 28  1  0
 25 24  1  0
 25 26  1  6
 25 27  2  0
  1  4  1  0
  1 24  1  0
  1  2  1  1
  1  3  2  0
  6 11  1  0
  6 12  1  0
 29 36  1  0
 29 37  1  0
  9  7  1  1
  7 13  1  0
 10  8  1  1
  8 14  1  0
 37 28  1  1
  4  5  1  0
 33 30  1  6
 30 38  1  0
 34 31  1  1
 31 39  1  0
 35 32  1  1
 32 40  1  0
 41 42  1  0
 41 43  1  0
 15 19  2  0
 16 22  2  0
 12 17  1  6
 17 19  1  0
 17 20  1  0
 18 19  1  0
 18 22  1  0
 18 23  1  0
  9 10  1  0
  9 11  1  0
 10 12  1  0
 11  5  1  6
 33 34  1  0
 33 35  1  0
 34 36  1  0
 35 37  1  0
 36 42  1  6
 20 21  2  0
 21 22  1  0
M  CHG  2   2  -1  26  -1
M  END
>  <COMPND>  (180) 
    8629 

>  <AUTHOR>  (180) 
    GENERATED BY OPEN BABEL 3.1.1

>  <MASTER>  (180) 
        0    0    0    0    0    0    0    0   58    0   58    0

>  <minimizedAffinity>  (180) 
-7.13339

>  <CNNscore>  (180) 
0.2898268104

>  <CNNaffinity>  (180) 
3.8821990490

>  <CNN_VS>  (180) 
1.1251653433

>  <CNNaffinity_variance>  (180) 
0.0626129732

$$$$
181
     RDKit          3D

 43 45  0  0  0  0  0  0  0  0999 V2000
   21.9932   70.2587   -2.2375 P   0  0  2  0  0  0  0  0  0  0  0  0
   23.4120   69.8680   -2.9096 O   0  0  0  0  0  0  0  0  0  0  0  0
   21.6976   69.5717   -0.9367 O   0  0  0  0  0  0  0  0  0  0  0  0
   20.9204   70.0103   -3.4229 O   0  0  0  0  0  0  0  0  0  0  0  0
   19.8313   69.1377   -3.1773 C   0  0  0  0  0  0  0  0  0  0  0  0
   18.5628   70.9729   -4.0699 O   0  0  0  0  0  0  0  0  0  0  0  0
   16.2160   69.8209   -2.6015 O   0  0  0  0  0  0  0  0  0  0  0  0
   15.7836   68.9860   -5.1613 O   0  0  0  0  0  0  0  0  0  0  0  0
   17.2884   69.1473   -3.2584 C   0  0  1  0  0  0  0  0  0  0  0  0
   17.1173   69.2267   -4.7611 C   0  0  2  0  0  0  0  0  0  0  0  0
   18.5578   69.9608   -3.0394 C   0  0  1  0  0  0  0  0  0  0  0  0
   17.5686   70.6473   -5.0550 C   0  0  2  0  0  0  0  0  0  0  0  0
   15.3944   69.3199   -2.7271 H   0  0  0  0  0  0  0  0  0  0  0  0
   15.5438   68.0695   -4.9533 H   0  0  0  0  0  0  0  0  0  0  0  0
   16.0854   70.6994   -7.4581 O   0  0  0  0  0  0  0  0  0  0  0  0
   19.8940   71.1541  -10.0133 O   0  0  0  0  0  0  0  0  0  0  0  0
   18.1470   70.7787   -6.3625 N   0  0  0  0  0  0  0  0  0  0  0  0
   17.9830   70.9260   -8.7284 N   0  0  0  0  0  0  0  0  0  0  0  0
   17.3136   70.7930   -7.5052 C   0  0  0  0  0  0  0  0  0  0  0  0
   19.5259   70.8921   -6.5020 C   0  0  0  0  0  0  0  0  0  0  0  0
   20.1488   71.0169   -7.6758 C   0  0  0  0  0  0  0  0  0  0  0  0
   19.3509   71.0406   -8.9187 C   0  0  0  0  0  0  0  0  0  0  0  0
   17.4228   70.9380   -9.5383 H   0  0  0  0  0  0  0  0  0  0  0  0
   22.0662   71.8709   -2.1454 O   0  0  0  0  0  0  0  0  0  0  0  0
   21.0550   72.9431   -1.4816 P   0  0  2  0  0  0  0  0  0  0  0  0
   19.8882   72.0140   -0.8547 O   0  0  0  0  0  0  0  0  0  0  0  0
   20.5642   73.9964   -2.4322 O   0  0  0  0  0  0  0  0  0  0  0  0
   21.8515   73.5171   -0.2006 O   0  0  0  0  0  0  0  0  0  0  0  0
   22.5087   71.7835    1.2757 O   0  0  0  0  0  0  0  0  0  0  0  0
   23.4137   75.0440    3.6424 O   0  0  0  0  0  0  0  0  0  0  0  0
   25.5389   73.5190    2.4567 O   0  0  0  0  0  0  0  0  0  0  0  0
   21.0392   75.0760    1.9869 O   0  0  0  0  0  0  0  0  0  0  0  0
   23.2854   74.3198    2.4158 C   0  0  1  0  0  0  0  0  0  0  0  0
   24.1828   73.0830    2.4931 C   0  0  1  0  0  0  0  0  0  0  0  0
   21.8252   73.9135    2.2263 C   0  0  2  0  0  0  0  0  0  0  0  0
   23.8999   72.1199    1.3323 C   0  0  1  0  0  0  0  0  0  0  0  0
   21.6608   72.9165    1.0778 C   0  0  1  0  0  0  0  0  0  0  0  0
   24.3385   75.3054    3.7685 H   0  0  0  0  0  0  0  0  0  0  0  0
   25.7043   74.1269    3.1945 H   0  0  0  0  0  0  0  0  0  0  0  0
   21.1517   75.6991    2.7210 H   0  0  0  0  0  0  0  0  0  0  0  0
   23.8480   69.7520    1.0169 O   0  0  0  0  0  0  0  0  0  0  0  0
   24.6702   70.8092    1.4760 C   0  0  0  0  0  0  0  0  0  0  0  0
   24.3254   68.9115    1.1021 H   0  0  0  0  0  0  0  0  0  0  0  0
 25 28  1  0
 25 24  1  0
 25 26  1  1
 25 27  2  0
  1  4  1  0
  1 24  1  0
  1  2  1  6
  1  3  2  0
  6 11  1  0
  6 12  1  0
 29 36  1  0
 29 37  1  0
  9  7  1  1
  7 13  1  0
 10  8  1  1
  8 14  1  0
 37 28  1  6
  4  5  1  0
 33 30  1  1
 30 38  1  0
 34 31  1  6
 31 39  1  0
 35 32  1  6
 32 40  1  0
 41 42  1  0
 41 43  1  0
 15 19  2  0
 16 22  2  0
 12 17  1  6
 17 19  1  0
 17 20  1  0
 18 19  1  0
 18 22  1  0
 18 23  1  0
  9 10  1  0
  9 11  1  0
 10 12  1  0
 11  5  1  6
 33 34  1  0
 33 35  1  0
 34 36  1  0
 35 37  1  0
 36 42  1  1
 20 21  2  0
 21 22  1  0
M  CHG  2   2  -1  26  -1
M  END
>  <COMPND>  (181) 
    8629 

>  <AUTHOR>  (181) 
    GENERATED BY OPEN BABEL 3.1.1

>  <MASTER>  (181) 
        0    0    0    0    0    0    0    0   58    0   58    0

>  <minimizedAffinity>  (181) 
-6.87481

>  <CNNscore>  (181) 
0.8564584255

>  <CNNaffinity>  (181) 
4.7389063835

>  <CNN_VS>  (181) 
4.0586762428

>  <CNNaffinity_variance>  (181) 
0.0283581726

$$$$
182
     RDKit          3D

 43 45  0  0  0  0  0  0  0  0999 V2000
   22.2192   69.7754   -2.5426 P   0  0  2  0  0  0  0  0  0  0  0  0
   23.3743   70.6182   -3.2994 O   0  0  0  0  0  0  0  0  0  0  0  0
   22.6071   68.3804   -2.1492 O   0  0  0  0  0  0  0  0  0  0  0  0
   20.9409   69.8980   -3.5269 O   0  0  0  0  0  0  0  0  0  0  0  0
   19.8221   69.0614   -3.2896 C   0  0  0  0  0  0  0  0  0  0  0  0
   18.6065   70.9595   -4.1223 O   0  0  0  0  0  0  0  0  0  0  0  0
   16.2472   69.8680   -2.6280 O   0  0  0  0  0  0  0  0  0  0  0  0
   15.7334   69.0991   -5.1934 O   0  0  0  0  0  0  0  0  0  0  0  0
   17.2803   69.1675   -3.3189 C   0  0  1  0  0  0  0  0  0  0  0  0
   17.0828   69.2821   -4.8160 C   0  0  2  0  0  0  0  0  0  0  0  0
   18.5836   69.9287   -3.1107 C   0  0  1  0  0  0  0  0  0  0  0  0
   17.5816   70.6902   -5.0928 C   0  0  2  0  0  0  0  0  0  0  0  0
   15.4049   69.4005   -2.7461 H   0  0  0  0  0  0  0  0  0  0  0  0
   15.4634   68.1884   -4.9975 H   0  0  0  0  0  0  0  0  0  0  0  0
   16.0530   70.9300   -7.4558 O   0  0  0  0  0  0  0  0  0  0  0  0
   19.8268   71.2004  -10.0875 O   0  0  0  0  0  0  0  0  0  0  0  0
   18.1388   70.8250   -6.4091 N   0  0  0  0  0  0  0  0  0  0  0  0
   17.9333   71.0646   -8.7643 N   0  0  0  0  0  0  0  0  0  0  0  0
   17.2835   70.9376   -7.5299 C   0  0  0  0  0  0  0  0  0  0  0  0
   19.5189   70.8449   -6.5787 C   0  0  0  0  0  0  0  0  0  0  0  0
   20.1229   70.9654   -7.7627 C   0  0  0  0  0  0  0  0  0  0  0  0
   19.3014   71.0883   -8.9843 C   0  0  0  0  0  0  0  0  0  0  0  0
   17.3576   71.1442   -9.5593 H   0  0  0  0  0  0  0  0  0  0  0  0
   21.8190   70.7364   -1.3060 O   0  0  0  0  0  0  0  0  0  0  0  0
   21.6108   72.3376   -1.2301 P   0  0  2  0  0  0  0  0  0  0  0  0
   20.0017   72.5010   -1.1887 O   0  0  0  0  0  0  0  0  0  0  0  0
   22.2822   73.0986   -2.3365 O   0  0  0  0  0  0  0  0  0  0  0  0
   22.1000   72.7434    0.2534 O   0  0  0  0  0  0  0  0  0  0  0  0
   24.1504   73.4473    1.2111 O   0  0  0  0  0  0  0  0  0  0  0  0
   23.0011   70.6924    4.0642 O   0  0  0  0  0  0  0  0  0  0  0  0
   22.8727   73.4971    4.6685 O   0  0  0  0  0  0  0  0  0  0  0  0
   22.5138   70.1573    1.2614 O   0  0  0  0  0  0  0  0  0  0  0  0
   22.7993   71.7103    3.0801 C   0  0  1  0  0  0  0  0  0  0  0  0
   23.5464   72.9673    3.5302 C   0  0  1  0  0  0  0  0  0  0  0  0
   23.3346   71.2188    1.7365 C   0  0  2  0  0  0  0  0  0  0  0  0
   23.6003   74.0117    2.4071 C   0  0  1  0  0  0  0  0  0  0  0  0
   23.3925   72.3468    0.7048 C   0  0  1  0  0  0  0  0  0  0  0  0
   22.6629   70.9979    4.9196 H   0  0  0  0  0  0  0  0  0  0  0  0
   22.8452   72.8275    5.3701 H   0  0  0  0  0  0  0  0  0  0  0  0
   22.4855   69.4494    1.9232 H   0  0  0  0  0  0  0  0  0  0  0  0
   25.3522   75.4751    1.7011 O   0  0  0  0  0  0  0  0  0  0  0  0
   24.4746   75.2072    2.7793 C   0  0  0  0  0  0  0  0  0  0  0  0
   25.9147   76.2339    1.9238 H   0  0  0  0  0  0  0  0  0  0  0  0
 25 28  1  0
 25 24  1  0
 25 26  1  1
 25 27  2  0
  1  4  1  0
  1 24  1  0
  1  2  1  6
  1  3  2  0
  6 11  1  0
  6 12  1  0
 29 36  1  0
 29 37  1  0
  9  7  1  1
  7 13  1  0
 10  8  1  1
  8 14  1  0
 37 28  1  1
  4  5  1  0
 33 30  1  1
 30 38  1  0
 34 31  1  1
 31 39  1  0
 35 32  1  6
 32 40  1  0
 41 42  1  0
 41 43  1  0
 15 19  2  0
 16 22  2  0
 12 17  1  6
 17 19  1  0
 17 20  1  0
 18 19  1  0
 18 22  1  0
 18 23  1  0
  9 10  1  0
  9 11  1  0
 10 12  1  0
 11  5  1  6
 33 34  1  0
 33 35  1  0
 34 36  1  0
 35 37  1  0
 36 42  1  1
 20 21  2  0
 21 22  1  0
M  CHG  2   2  -1  26  -1
M  END
>  <COMPND>  (182) 
    8629 

>  <AUTHOR>  (182) 
    GENERATED BY OPEN BABEL 3.1.1

>  <MASTER>  (182) 
        0    0    0    0    0    0    0    0   58    0   58    0

>  <minimizedAffinity>  (182) 
-7.55128

>  <CNNscore>  (182) 
0.8420478702

>  <CNNaffinity>  (182) 
4.8482584953

>  <CNN_VS>  (182) 
4.0824656487

>  <CNNaffinity_variance>  (182) 
0.0706755221

$$$$
183
     RDKit          3D

 43 45  0  0  0  0  0  0  0  0999 V2000
   22.8239   70.0426   -2.4807 P   0  0  2  0  0  0  0  0  0  0  0  0
   23.6831   71.2148   -3.1914 O   0  0  0  0  0  0  0  0  0  0  0  0
   23.2937   68.6475   -2.7713 O   0  0  0  0  0  0  0  0  0  0  0  0
   21.2964   70.3714   -2.9006 O   0  0  0  0  0  0  0  0  0  0  0  0
   20.4099   69.2897   -3.1281 C   0  0  0  0  0  0  0  0  0  0  0  0
   18.6469   70.7553   -3.8476 O   0  0  0  0  0  0  0  0  0  0  0  0
   16.7989   69.0041   -2.2637 O   0  0  0  0  0  0  0  0  0  0  0  0
   16.3884   68.1440   -4.8187 O   0  0  0  0  0  0  0  0  0  0  0  0
   17.9509   68.6448   -3.0246 C   0  0  1  0  0  0  0  0  0  0  0  0
   17.6443   68.7114   -4.5062 C   0  0  2  0  0  0  0  0  0  0  0  0
   18.9840   69.7531   -2.8635 C   0  0  1  0  0  0  0  0  0  0  0  0
   17.6925   70.2066   -4.7711 C   0  0  2  0  0  0  0  0  0  0  0  0
   16.1251   68.3110   -2.3507 H   0  0  0  0  0  0  0  0  0  0  0  0
   16.4083   67.1922   -4.6332 H   0  0  0  0  0  0  0  0  0  0  0  0
   16.0050   70.0978   -7.0335 O   0  0  0  0  0  0  0  0  0  0  0  0
   19.4050   71.3993   -9.8597 O   0  0  0  0  0  0  0  0  0  0  0  0
   18.1105   70.5123   -6.1102 N   0  0  0  0  0  0  0  0  0  0  0  0
   17.6993   70.7461   -8.4389 N   0  0  0  0  0  0  0  0  0  0  0  0
   17.1847   70.4259   -7.1760 C   0  0  0  0  0  0  0  0  0  0  0  0
   19.4252   70.8932   -6.3559 C   0  0  0  0  0  0  0  0  0  0  0  0
   19.9004   71.1940   -7.5662 C   0  0  0  0  0  0  0  0  0  0  0  0
   18.9982   71.1288   -8.7340 C   0  0  0  0  0  0  0  0  0  0  0  0
   17.0726   70.6926   -9.1966 H   0  0  0  0  0  0  0  0  0  0  0  0
   22.8682   70.4556   -0.9185 O   0  0  0  0  0  0  0  0  0  0  0  0
   22.3208   69.6926    0.3972 P   0  0  2  0  0  0  0  0  0  0  0  0
   23.6369   68.9429    0.9659 O   0  0  0  0  0  0  0  0  0  0  0  0
   21.1531   68.7845    0.1407 O   0  0  0  0  0  0  0  0  0  0  0  0
   22.0308   70.8706    1.4616 O   0  0  0  0  0  0  0  0  0  0  0  0
   21.1993   73.0823    1.2772 O   0  0  0  0  0  0  0  0  0  0  0  0
   24.2595   73.7501    3.9679 O   0  0  0  0  0  0  0  0  0  0  0  0
   21.5343   73.8361    4.8700 O   0  0  0  0  0  0  0  0  0  0  0  0
   24.6306   71.8728    1.7959 O   0  0  0  0  0  0  0  0  0  0  0  0
   23.1964   73.0106    3.3611 C   0  0  1  0  0  0  0  0  0  0  0  0
   21.9082   73.8251    3.4951 C   0  0  1  0  0  0  0  0  0  0  0  0
   23.5308   72.7718    1.8899 C   0  0  2  0  0  0  0  0  0  0  0  0
   20.7830   73.2269    2.6401 C   0  0  1  0  0  0  0  0  0  0  0  0
   22.3291   72.2217    1.1196 C   0  0  1  0  0  0  0  0  0  0  0  0
   24.0536   73.9047    4.9024 H   0  0  0  0  0  0  0  0  0  0  0  0
   22.2536   74.2158    5.3990 H   0  0  0  0  0  0  0  0  0  0  0  0
   25.3849   72.2325    2.2873 H   0  0  0  0  0  0  0  0  0  0  0  0
   18.6862   73.6935    3.6864 O   0  0  0  0  0  0  0  0  0  0  0  0
   19.5374   74.1103    2.6347 C   0  0  0  0  0  0  0  0  0  0  0  0
   17.8893   74.2472    3.6954 H   0  0  0  0  0  0  0  0  0  0  0  0
 25 28  1  0
 25 24  1  0
 25 26  1  1
 25 27  2  0
  1  4  1  0
  1 24  1  0
  1  2  1  6
  1  3  2  0
  6 11  1  0
  6 12  1  0
 29 36  1  0
 29 37  1  0
  9  7  1  1
  7 13  1  0
 10  8  1  1
  8 14  1  0
 37 28  1  1
  4  5  1  0
 33 30  1  6
 30 38  1  0
 34 31  1  1
 31 39  1  0
 35 32  1  1
 32 40  1  0
 41 42  1  0
 41 43  1  0
 15 19  2  0
 16 22  2  0
 12 17  1  6
 17 19  1  0
 17 20  1  0
 18 19  1  0
 18 22  1  0
 18 23  1  0
  9 10  1  0
  9 11  1  0
 10 12  1  0
 11  5  1  6
 33 34  1  0
 33 35  1  0
 34 36  1  0
 35 37  1  0
 36 42  1  6
 20 21  2  0
 21 22  1  0
M  CHG  2   2  -1  26  -1
M  END
>  <COMPND>  (183) 
    8629 

>  <AUTHOR>  (183) 
    GENERATED BY OPEN BABEL 3.1.1

>  <MASTER>  (183) 
        0    0    0    0    0    0    0    0   58    0   58    0

>  <minimizedAffinity>  (183) 
-8.18351

>  <CNNscore>  (183) 
0.7508243918

>  <CNNaffinity>  (183) 
4.8293752670

>  <CNN_VS>  (183) 
3.6260128021

>  <CNNaffinity_variance>  (183) 
0.1128426641

$$$$
184
     RDKit          3D

 43 45  0  0  0  0  0  0  0  0999 V2000
   21.0963   69.5051   -0.9117 P   0  0  2  0  0  0  0  0  0  0  0  0
   22.2661   69.6606   -2.0185 O   0  0  0  0  0  0  0  0  0  0  0  0
   21.4745   68.7088    0.3025 O   0  0  0  0  0  0  0  0  0  0  0  0
   19.8353   68.9434   -1.7557 O   0  0  0  0  0  0  0  0  0  0  0  0
   19.5923   69.4785   -3.0450 C   0  0  0  0  0  0  0  0  0  0  0  0
   18.3242   71.2218   -4.1064 O   0  0  0  0  0  0  0  0  0  0  0  0
   15.9411   70.1072   -2.6679 O   0  0  0  0  0  0  0  0  0  0  0  0
   15.6399   69.1020   -5.1850 O   0  0  0  0  0  0  0  0  0  0  0  0
   17.0558   69.4201   -3.2343 C   0  0  1  0  0  0  0  0  0  0  0  0
   16.9491   69.4003   -4.7448 C   0  0  2  0  0  0  0  0  0  0  0  0
   18.2963   70.2769   -3.0143 C   0  0  1  0  0  0  0  0  0  0  0  0
   17.3816   70.8102   -5.1098 C   0  0  2  0  0  0  0  0  0  0  0  0
   15.1370   69.5790   -2.7959 H   0  0  0  0  0  0  0  0  0  0  0  0
   15.4114   68.1948   -4.9290 H   0  0  0  0  0  0  0  0  0  0  0  0
   15.9940   70.8208   -7.5700 O   0  0  0  0  0  0  0  0  0  0  0  0
   19.9110   71.0529   -9.9875 O   0  0  0  0  0  0  0  0  0  0  0  0
   18.0137   70.8731   -6.3973 N   0  0  0  0  0  0  0  0  0  0  0  0
   17.9455   70.9365   -8.7717 N   0  0  0  0  0  0  0  0  0  0  0  0
   17.2257   70.8719   -7.5718 C   0  0  0  0  0  0  0  0  0  0  0  0
   19.4001   70.9356   -6.4863 C   0  0  0  0  0  0  0  0  0  0  0  0
   20.0713   70.9954   -7.6383 C   0  0  0  0  0  0  0  0  0  0  0  0
   19.3229   70.9987   -8.9119 C   0  0  0  0  0  0  0  0  0  0  0  0
   17.4175   70.9365   -9.6030 H   0  0  0  0  0  0  0  0  0  0  0  0
   20.6772   71.0365   -0.6082 O   0  0  0  0  0  0  0  0  0  0  0  0
   21.4767   72.2285    0.1354 P   0  0  2  0  0  0  0  0  0  0  0  0
   22.5065   71.4383    1.1012 O   0  0  0  0  0  0  0  0  0  0  0  0
   20.5930   73.2127    0.8455 O   0  0  0  0  0  0  0  0  0  0  0  0
   22.4089   72.8739   -1.0133 O   0  0  0  0  0  0  0  0  0  0  0  0
   22.5779   75.1159   -1.7625 O   0  0  0  0  0  0  0  0  0  0  0  0
   23.0862   73.1742   -5.3712 O   0  0  0  0  0  0  0  0  0  0  0  0
   25.3349   74.4455   -4.1160 O   0  0  0  0  0  0  0  0  0  0  0  0
   21.1907   72.1529   -3.4364 O   0  0  0  0  0  0  0  0  0  0  0  0
   23.2137   73.3517   -3.9578 C   0  0  1  0  0  0  0  0  0  0  0  0
   23.9857   74.6481   -3.7049 C   0  0  1  0  0  0  0  0  0  0  0  0
   21.8202   73.4258   -3.3364 C   0  0  2  0  0  0  0  0  0  0  0  0
   23.9323   75.0447   -2.2234 C   0  0  1  0  0  0  0  0  0  0  0  0
   21.8765   73.8761   -1.8755 C   0  0  1  0  0  0  0  0  0  0  0  0
   23.9675   73.1259   -5.7718 H   0  0  0  0  0  0  0  0  0  0  0  0
   25.3545   74.1951   -5.0531 H   0  0  0  0  0  0  0  0  0  0  0  0
   21.1610   71.8792   -4.3660 H   0  0  0  0  0  0  0  0  0  0  0  0
   24.6017   77.1191   -3.2020 O   0  0  0  0  0  0  0  0  0  0  0  0
   24.5606   76.4143   -1.9749 C   0  0  0  0  0  0  0  0  0  0  0  0
   24.9990   77.9929   -3.0591 H   0  0  0  0  0  0  0  0  0  0  0  0
 25 28  1  0
 25 24  1  0
 25 26  1  1
 25 27  2  0
  1  4  1  0
  1 24  1  0
  1  2  1  6
  1  3  2  0
  6 11  1  0
  6 12  1  0
 29 36  1  0
 29 37  1  0
  9  7  1  1
  7 13  1  0
 10  8  1  1
  8 14  1  0
 37 28  1  1
  4  5  1  0
 33 30  1  6
 30 38  1  0
 34 31  1  1
 31 39  1  0
 35 32  1  1
 32 40  1  0
 41 42  1  0
 41 43  1  0
 15 19  2  0
 16 22  2  0
 12 17  1  6
 17 19  1  0
 17 20  1  0
 18 19  1  0
 18 22  1  0
 18 23  1  0
  9 10  1  0
  9 11  1  0
 10 12  1  0
 11  5  1  6
 33 34  1  0
 33 35  1  0
 34 36  1  0
 35 37  1  0
 36 42  1  6
 20 21  2  0
 21 22  1  0
M  CHG  2   2  -1  26  -1
M  END
>  <COMPND>  (184) 
    8629 

>  <AUTHOR>  (184) 
    GENERATED BY OPEN BABEL 3.1.1

>  <MASTER>  (184) 
        0    0    0    0    0    0    0    0   58    0   58    0

>  <minimizedAffinity>  (184) 
-7.52312

>  <CNNscore>  (184) 
0.7480118275

>  <CNNaffinity>  (184) 
4.5299959183

>  <CNN_VS>  (184) 
3.3884904385

>  <CNNaffinity_variance>  (184) 
0.1070583835

$$$$
185
     RDKit          3D

 43 45  0  0  0  0  0  0  0  0999 V2000
   21.9491   69.1264   -1.7069 P   0  0  2  0  0  0  0  0  0  0  0  0
   22.3142   70.5162   -2.4503 O   0  0  0  0  0  0  0  0  0  0  0  0
   22.6958   67.9249   -2.2072 O   0  0  0  0  0  0  0  0  0  0  0  0
   20.3364   69.0438   -1.8082 O   0  0  0  0  0  0  0  0  0  0  0  0
   19.7330   69.1469   -3.0861 C   0  0  0  0  0  0  0  0  0  0  0  0
   18.5073   70.9906   -4.0200 O   0  0  0  0  0  0  0  0  0  0  0  0
   16.1266   69.9078   -2.5535 O   0  0  0  0  0  0  0  0  0  0  0  0
   15.7001   69.0387   -5.1029 O   0  0  0  0  0  0  0  0  0  0  0  0
   17.1915   69.2031   -3.1898 C   0  0  1  0  0  0  0  0  0  0  0  0
   17.0347   69.2607   -4.6950 C   0  0  2  0  0  0  0  0  0  0  0  0
   18.4743   69.9961   -2.9730 C   0  0  1  0  0  0  0  0  0  0  0  0
   17.5155   70.6674   -5.0083 C   0  0  2  0  0  0  0  0  0  0  0  0
   15.2967   69.4203   -2.6781 H   0  0  0  0  0  0  0  0  0  0  0  0
   15.4412   68.1305   -4.8819 H   0  0  0  0  0  0  0  0  0  0  0  0
   16.0559   70.6765   -7.4264 O   0  0  0  0  0  0  0  0  0  0  0  0
   19.8921   71.0492   -9.9535 O   0  0  0  0  0  0  0  0  0  0  0  0
   18.1073   70.7662   -6.3126 N   0  0  0  0  0  0  0  0  0  0  0  0
   17.9672   70.8622   -8.6827 N   0  0  0  0  0  0  0  0  0  0  0  0
   17.2852   70.7608   -7.4635 C   0  0  0  0  0  0  0  0  0  0  0  0
   19.4883   70.8672   -6.4411 C   0  0  0  0  0  0  0  0  0  0  0  0
   20.1233   70.9620   -7.6112 C   0  0  0  0  0  0  0  0  0  0  0  0
   19.3377   70.9635   -8.8621 C   0  0  0  0  0  0  0  0  0  0  0  0
   17.4150   70.8601   -9.4981 H   0  0  0  0  0  0  0  0  0  0  0  0
   22.1980   69.4720   -0.1476 O   0  0  0  0  0  0  0  0  0  0  0  0
   23.5551   69.8185    0.6594 P   0  0  2  0  0  0  0  0  0  0  0  0
   24.7098   69.6288   -0.4578 O   0  0  0  0  0  0  0  0  0  0  0  0
   23.7567   69.0023    1.9032 O   0  0  0  0  0  0  0  0  0  0  0  0
   23.4867   71.4117    0.9086 O   0  0  0  0  0  0  0  0  0  0  0  0
   24.1759   72.9240    2.5981 O   0  0  0  0  0  0  0  0  0  0  0  0
   20.3135   74.2735    2.0402 O   0  0  0  0  0  0  0  0  0  0  0  0
   22.5175   75.8486    1.0865 O   0  0  0  0  0  0  0  0  0  0  0  0
   20.8794   71.4362    1.9462 O   0  0  0  0  0  0  0  0  0  0  0  0
   21.5717   73.7229    1.6413 C   0  0  1  0  0  0  0  0  0  0  0  0
   22.6662   74.7403    1.9696 C   0  0  1  0  0  0  0  0  0  0  0  0
   21.8073   72.4169    2.3976 C   0  0  2  0  0  0  0  0  0  0  0  0
   24.0620   74.1205    1.8190 C   0  0  1  0  0  0  0  0  0  0  0  0
   23.2405   71.9121    2.2202 C   0  0  1  0  0  0  0  0  0  0  0  0
   20.1576   75.1028    1.5632 H   0  0  0  0  0  0  0  0  0  0  0  0
   21.6319   76.2305    1.1912 H   0  0  0  0  0  0  0  0  0  0  0  0
   19.9760   71.7676    2.0640 H   0  0  0  0  0  0  0  0  0  0  0  0
   25.3814   76.0402    1.2872 O   0  0  0  0  0  0  0  0  0  0  0  0
   25.1624   75.0676    2.2924 C   0  0  0  0  0  0  0  0  0  0  0  0
   26.0792   76.6502    1.5749 H   0  0  0  0  0  0  0  0  0  0  0  0
 25 28  1  0
 25 24  1  0
 25 26  1  6
 25 27  2  0
  1  4  1  0
  1 24  1  0
  1  2  1  6
  1  3  2  0
  6 11  1  0
  6 12  1  0
 29 36  1  0
 29 37  1  0
  9  7  1  1
  7 13  1  0
 10  8  1  1
  8 14  1  0
 37 28  1  6
  4  5  1  0
 33 30  1  1
 30 38  1  0
 34 31  1  6
 31 39  1  0
 35 32  1  6
 32 40  1  0
 41 42  1  0
 41 43  1  0
 15 19  2  0
 16 22  2  0
 12 17  1  6
 17 19  1  0
 17 20  1  0
 18 19  1  0
 18 22  1  0
 18 23  1  0
  9 10  1  0
  9 11  1  0
 10 12  1  0
 11  5  1  6
 33 34  1  0
 33 35  1  0
 34 36  1  0
 35 37  1  0
 36 42  1  1
 20 21  2  0
 21 22  1  0
M  CHG  2   2  -1  26  -1
M  END
>  <COMPND>  (185) 
    8629 

>  <AUTHOR>  (185) 
    GENERATED BY OPEN BABEL 3.1.1

>  <MASTER>  (185) 
        0    0    0    0    0    0    0    0   58    0   58    0

>  <minimizedAffinity>  (185) 
-7.84291

>  <CNNscore>  (185) 
0.7261616588

>  <CNNaffinity>  (185) 
4.7124333382

>  <CNN_VS>  (185) 
3.4219884872

>  <CNNaffinity_variance>  (185) 
0.1075396538

$$$$
186
     RDKit          3D

 43 45  0  0  0  0  0  0  0  0999 V2000
   22.9675   72.3048   -3.4418 P   0  0  2  0  0  0  0  0  0  0  0  0
   22.5272   73.2480   -2.2034 O   0  0  0  0  0  0  0  0  0  0  0  0
   23.8784   72.9551   -4.4412 O   0  0  0  0  0  0  0  0  0  0  0  0
   21.5641   71.7511   -4.0264 O   0  0  0  0  0  0  0  0  0  0  0  0
   20.4853   72.6588   -4.1677 C   0  0  0  0  0  0  0  0  0  0  0  0
   19.6477   71.1788   -5.8653 O   0  0  0  0  0  0  0  0  0  0  0  0
   18.4998   73.6240   -7.1668 O   0  0  0  0  0  0  0  0  0  0  0  0
   16.3304   72.5410   -5.9188 O   0  0  0  0  0  0  0  0  0  0  0  0
   18.6303   73.3173   -5.7796 C   0  0  1  0  0  0  0  0  0  0  0  0
   17.6068   72.2780   -5.3724 C   0  0  2  0  0  0  0  0  0  0  0  0
   19.9413   72.5654   -5.5866 C   0  0  1  0  0  0  0  0  0  0  0  0
   18.2229   70.9996   -5.9149 C   0  0  2  0  0  0  0  0  0  0  0  0
   17.6698   74.1049   -7.3148 H   0  0  0  0  0  0  0  0  0  0  0  0
   15.9809   73.3639   -5.5427 H   0  0  0  0  0  0  0  0  0  0  0  0
   15.8486   69.5077   -6.2538 O   0  0  0  0  0  0  0  0  0  0  0  0
   16.9748   66.5992   -2.8607 O   0  0  0  0  0  0  0  0  0  0  0  0
   17.8703   69.8475   -5.1340 N   0  0  0  0  0  0  0  0  0  0  0  0
   16.4114   68.0606   -4.5642 N   0  0  0  0  0  0  0  0  0  0  0  0
   16.6541   69.1702   -5.3838 C   0  0  0  0  0  0  0  0  0  0  0  0
   18.7264   69.4000   -4.1336 C   0  0  0  0  0  0  0  0  0  0  0  0
   18.4798   68.3409   -3.3599 C   0  0  0  0  0  0  0  0  0  0  0  0
   17.2305   67.5775   -3.5560 C   0  0  0  0  0  0  0  0  0  0  0  0
   15.5699   67.5733   -4.7198 H   0  0  0  0  0  0  0  0  0  0  0  0
   23.5920   71.0077   -2.7067 O   0  0  0  0  0  0  0  0  0  0  0  0
   22.9108   69.9031   -1.7429 P   0  0  2  0  0  0  0  0  0  0  0  0
   24.1235   68.8754   -1.4414 O   0  0  0  0  0  0  0  0  0  0  0  0
   21.6819   69.2595   -2.3170 O   0  0  0  0  0  0  0  0  0  0  0  0
   22.6717   70.6728   -0.3446 O   0  0  0  0  0  0  0  0  0  0  0  0
   23.8092   72.5114    0.6260 O   0  0  0  0  0  0  0  0  0  0  0  0
   23.0776   70.3102    4.0421 O   0  0  0  0  0  0  0  0  0  0  0  0
   21.5957   72.7238    3.5661 O   0  0  0  0  0  0  0  0  0  0  0  0
   23.7872   68.9626    1.5804 O   0  0  0  0  0  0  0  0  0  0  0  0
   22.7937   70.8260    2.7388 C   0  0  1  0  0  0  0  0  0  0  0  0
   22.7551   72.3531    2.8254 C   0  0  1  0  0  0  0  0  0  0  0  0
   23.8853   70.3697    1.7726 C   0  0  2  0  0  0  0  0  0  0  0  0
   22.7216   72.9865    1.4280 C   0  0  1  0  0  0  0  0  0  0  0  0
   23.7908   71.0962    0.4297 C   0  0  1  0  0  0  0  0  0  0  0  0
   22.3880   70.5959    4.6604 H   0  0  0  0  0  0  0  0  0  0  0  0
   21.6291   72.3169    4.4462 H   0  0  0  0  0  0  0  0  0  0  0  0
   23.8488   68.5142    2.4378 H   0  0  0  0  0  0  0  0  0  0  0  0
   23.3444   74.8701    2.7595 O   0  0  0  0  0  0  0  0  0  0  0  0
   22.8418   74.5077    1.4866 C   0  0  0  0  0  0  0  0  0  0  0  0
   23.4264   75.8357    2.8111 H   0  0  0  0  0  0  0  0  0  0  0  0
 25 28  1  0
 25 24  1  0
 25 26  1  1
 25 27  2  0
  1  4  1  0
  1 24  1  0
  1  2  1  1
  1  3  2  0
  6 11  1  0
  6 12  1  0
 29 36  1  0
 29 37  1  0
  9  7  1  6
  7 13  1  0
 10  8  1  6
  8 14  1  0
 37 28  1  1
  4  5  1  0
 33 30  1  1
 30 38  1  0
 34 31  1  1
 31 39  1  0
 35 32  1  6
 32 40  1  0
 41 42  1  0
 41 43  1  0
 15 19  2  0
 16 22  2  0
 12 17  1  1
 17 19  1  0
 17 20  1  0
 18 19  1  0
 18 22  1  0
 18 23  1  0
  9 10  1  0
  9 11  1  0
 10 12  1  0
 11  5  1  1
 33 34  1  0
 33 35  1  0
 34 36  1  0
 35 37  1  0
 36 42  1  1
 20 21  2  0
 21 22  1  0
M  CHG  2   2  -1  26  -1
M  END
>  <COMPND>  (186) 
    8629 

>  <AUTHOR>  (186) 
    GENERATED BY OPEN BABEL 3.1.1

>  <MASTER>  (186) 
        0    0    0    0    0    0    0    0   58    0   58    0

>  <minimizedAffinity>  (186) 
-7.93643

>  <CNNscore>  (186) 
0.7151588202

>  <CNNaffinity>  (186) 
4.4308481216

>  <CNN_VS>  (186) 
3.1687600613

>  <CNNaffinity_variance>  (186) 
0.1684020162

$$$$
187
     RDKit          3D

 43 45  0  0  0  0  0  0  0  0999 V2000
   21.7825   70.7080   -2.5599 P   0  0  2  0  0  0  0  0  0  0  0  0
   20.6595   71.5819   -1.7902 O   0  0  0  0  0  0  0  0  0  0  0  0
   22.5804   71.4613   -3.5833 O   0  0  0  0  0  0  0  0  0  0  0  0
   20.9656   69.4248   -3.1112 O   0  0  0  0  0  0  0  0  0  0  0  0
   19.8101   69.6471   -3.9007 C   0  0  0  0  0  0  0  0  0  0  0  0
   17.6755   70.5354   -3.2466 O   0  0  0  0  0  0  0  0  0  0  0  0
   17.0224   67.7658   -2.3015 O   0  0  0  0  0  0  0  0  0  0  0  0
   15.7316   67.8951   -4.7001 O   0  0  0  0  0  0  0  0  0  0  0  0
   17.7878   68.1757   -3.4334 C   0  0  1  0  0  0  0  0  0  0  0  0
   16.8761   68.7043   -4.5212 C   0  0  2  0  0  0  0  0  0  0  0  0
   18.5726   69.4219   -3.0429 C   0  0  1  0  0  0  0  0  0  0  0  0
   16.5364   70.0908   -4.0014 C   0  0  2  0  0  0  0  0  0  0  0  0
   16.5127   66.9711   -2.5266 H   0  0  0  0  0  0  0  0  0  0  0  0
   15.9999   67.0240   -5.0318 H   0  0  0  0  0  0  0  0  0  0  0  0
   15.2570   72.5853   -3.6573 O   0  0  0  0  0  0  0  0  0  0  0  0
   15.6243   73.5983   -8.1384 O   0  0  0  0  0  0  0  0  0  0  0  0
   16.2851   71.0265   -5.0609 N   0  0  0  0  0  0  0  0  0  0  0  0
   15.4410   73.0878   -5.8888 N   0  0  0  0  0  0  0  0  0  0  0  0
   15.6347   72.2512   -4.7822 C   0  0  0  0  0  0  0  0  0  0  0  0
   16.6823   70.7263   -6.3594 C   0  0  0  0  0  0  0  0  0  0  0  0
   16.4891   71.5343   -7.4038 C   0  0  0  0  0  0  0  0  0  0  0  0
   15.8166   72.8334   -7.1983 C   0  0  0  0  0  0  0  0  0  0  0  0
   14.9896   73.9463   -5.7186 H   0  0  0  0  0  0  0  0  0  0  0  0
   22.6555   70.0897   -1.3481 O   0  0  0  0  0  0  0  0  0  0  0  0
   22.2109   69.5231    0.0991 P   0  0  2  0  0  0  0  0  0  0  0  0
   23.5139   68.7001    0.5916 O   0  0  0  0  0  0  0  0  0  0  0  0
   20.9418   68.7213    0.0826 O   0  0  0  0  0  0  0  0  0  0  0  0
   22.1672   70.8252    1.0517 O   0  0  0  0  0  0  0  0  0  0  0  0
   23.8288   72.4868    0.7439 O   0  0  0  0  0  0  0  0  0  0  0  0
   22.5733   73.5052    4.5435 O   0  0  0  0  0  0  0  0  0  0  0  0
   21.8654   75.1793    2.3200 O   0  0  0  0  0  0  0  0  0  0  0  0
   22.7773   70.7181    3.7888 O   0  0  0  0  0  0  0  0  0  0  0  0
   22.4185   73.0271    3.2046 C   0  0  1  0  0  0  0  0  0  0  0  0
   22.8396   74.1422    2.2454 C   0  0  1  0  0  0  0  0  0  0  0  0
   23.2960   71.7917    3.0112 C   0  0  2  0  0  0  0  0  0  0  0  0
   22.9560   73.6208    0.8068 C   0  0  1  0  0  0  0  0  0  0  0  0
   23.3835   71.3860    1.5388 C   0  0  1  0  0  0  0  0  0  0  0  0
   22.0184   74.2893    4.6731 H   0  0  0  0  0  0  0  0  0  0  0  0
   21.8013   75.4994    3.2336 H   0  0  0  0  0  0  0  0  0  0  0  0
   22.7271   70.9873    4.7188 H   0  0  0  0  0  0  0  0  0  0  0  0
   24.3896   75.5209    0.5979 O   0  0  0  0  0  0  0  0  0  0  0  0
   23.5259   74.6754   -0.1394 C   0  0  0  0  0  0  0  0  0  0  0  0
   24.7600   76.1969    0.0085 H   0  0  0  0  0  0  0  0  0  0  0  0
 25 28  1  0
 25 24  1  0
 25 26  1  1
 25 27  2  0
  1  4  1  0
  1 24  1  0
  1  2  1  1
  1  3  2  0
  6 11  1  0
  6 12  1  0
 29 36  1  0
 29 37  1  0
  9  7  1  1
  7 13  1  0
 10  8  1  1
  8 14  1  0
 37 28  1  6
  4  5  1  0
 33 30  1  1
 30 38  1  0
 34 31  1  6
 31 39  1  0
 35 32  1  1
 32 40  1  0
 41 42  1  0
 41 43  1  0
 15 19  2  0
 16 22  2  0
 12 17  1  6
 17 19  1  0
 17 20  1  0
 18 19  1  0
 18 22  1  0
 18 23  1  0
  9 10  1  0
  9 11  1  0
 10 12  1  0
 11  5  1  6
 33 34  1  0
 33 35  1  0
 34 36  1  0
 35 37  1  0
 36 42  1  6
 20 21  2  0
 21 22  1  0
M  CHG  2   2  -1  26  -1
M  END
>  <COMPND>  (187) 
    8629 

>  <AUTHOR>  (187) 
    GENERATED BY OPEN BABEL 3.1.1

>  <MASTER>  (187) 
        0    0    0    0    0    0    0    0   58    0   58    0

>  <minimizedAffinity>  (187) 
-8.12337

>  <CNNscore>  (187) 
0.5997148156

>  <CNNaffinity>  (187) 
4.4344768524

>  <CNN_VS>  (187) 
2.6594214439

>  <CNNaffinity_variance>  (187) 
0.2520126700

$$$$
188
     RDKit          3D

 43 45  0  0  0  0  0  0  0  0999 V2000
   23.5952   69.1482   -1.9114 P   0  0  2  0  0  0  0  0  0  0  0  0
   23.1327   67.6044   -1.7701 O   0  0  0  0  0  0  0  0  0  0  0  0
   24.4941   69.4363   -3.0778 O   0  0  0  0  0  0  0  0  0  0  0  0
   24.1985   69.5079   -0.4538 O   0  0  0  0  0  0  0  0  0  0  0  0
   23.8491   70.7485    0.1352 C   0  0  0  0  0  0  0  0  0  0  0  0
   24.9798   71.7435    2.0074 O   0  0  0  0  0  0  0  0  0  0  0  0
   23.0243   70.2658    3.7345 O   0  0  0  0  0  0  0  0  0  0  0  0
   22.0000   72.7930    3.7050 O   0  0  0  0  0  0  0  0  0  0  0  0
   22.8224   70.8736    2.4597 C   0  0  1  0  0  0  0  0  0  0  0  0
   22.7748   72.3810    2.5975 C   0  0  2  0  0  0  0  0  0  0  0  0
   24.0882   70.6692    1.6367 C   0  0  1  0  0  0  0  0  0  0  0  0
   24.2455   72.7300    2.7506 C   0  0  2  0  0  0  0  0  0  0  0  0
   22.2288   70.3831    4.2780 H   0  0  0  0  0  0  0  0  0  0  0  0
   21.0726   72.5486    3.5599 H   0  0  0  0  0  0  0  0  0  0  0  0
   26.0838   74.5212    3.9296 O   0  0  0  0  0  0  0  0  0  0  0  0
   25.3576   77.6989    0.6714 O   0  0  0  0  0  0  0  0  0  0  0  0
   24.5563   74.0320    2.2312 N   0  0  0  0  0  0  0  0  0  0  0  0
   25.7209   76.1019    2.3062 N   0  0  0  0  0  0  0  0  0  0  0  0
   25.4935   74.8537    2.8998 C   0  0  0  0  0  0  0  0  0  0  0  0
   23.9351   74.4818    1.0713 C   0  0  0  0  0  0  0  0  0  0  0  0
   24.1620   75.6753    0.5188 C   0  0  0  0  0  0  0  0  0  0  0  0
   25.1273   76.5948    1.1549 C   0  0  0  0  0  0  0  0  0  0  0  0
   26.3696   76.6916    2.7547 H   0  0  0  0  0  0  0  0  0  0  0  0
   22.1906   69.9481   -1.9308 O   0  0  0  0  0  0  0  0  0  0  0  0
   20.8792   69.8132   -0.9954 P   0  0  2  0  0  0  0  0  0  0  0  0
   20.7032   71.3017   -0.3864 O   0  0  0  0  0  0  0  0  0  0  0  0
   20.9694   68.7280    0.0380 O   0  0  0  0  0  0  0  0  0  0  0  0
   19.6531   69.6494   -2.0321 O   0  0  0  0  0  0  0  0  0  0  0  0
   19.0602   68.1330   -3.7542 O   0  0  0  0  0  0  0  0  0  0  0  0
   18.3231   71.6874   -5.7223 O   0  0  0  0  0  0  0  0  0  0  0  0
   16.1191   70.0604   -4.8605 O   0  0  0  0  0  0  0  0  0  0  0  0
   20.6023   71.4629   -3.9518 O   0  0  0  0  0  0  0  0  0  0  0  0
   18.3753   70.8087   -4.5952 C   0  0  1  0  0  0  0  0  0  0  0  0
   17.4703   69.6085   -4.8804 C   0  0  1  0  0  0  0  0  0  0  0  0
   19.8183   70.3553   -4.3821 C   0  0  2  0  0  0  0  0  0  0  0  0
   17.6780   68.4987   -3.8412 C   0  0  1  0  0  0  0  0  0  0  0  0
   19.9080   69.2156   -3.3656 C   0  0  1  0  0  0  0  0  0  0  0  0
   17.4096   71.9794   -5.8628 H   0  0  0  0  0  0  0  0  0  0  0  0
   16.0014   70.7613   -5.5208 H   0  0  0  0  0  0  0  0  0  0  0  0
   20.5374   72.1775   -4.6038 H   0  0  0  0  0  0  0  0  0  0  0  0
   15.6358   67.6069   -4.7031 O   0  0  0  0  0  0  0  0  0  0  0  0
   16.9027   67.2314   -4.1950 C   0  0  0  0  0  0  0  0  0  0  0  0
   15.1313   66.8104   -4.9329 H   0  0  0  0  0  0  0  0  0  0  0  0
 25 28  1  0
 25 24  1  0
 25 26  1  1
 25 27  2  0
  1  4  1  0
  1 24  1  0
  1  2  1  1
  1  3  2  0
  6 11  1  0
  6 12  1  0
 29 36  1  0
 29 37  1  0
  9  7  1  1
  7 13  1  0
 10  8  1  1
  8 14  1  0
 37 28  1  1
  4  5  1  0
 33 30  1  6
 30 38  1  0
 34 31  1  1
 31 39  1  0
 35 32  1  1
 32 40  1  0
 41 42  1  0
 41 43  1  0
 15 19  2  0
 16 22  2  0
 12 17  1  6
 17 19  1  0
 17 20  1  0
 18 19  1  0
 18 22  1  0
 18 23  1  0
  9 10  1  0
  9 11  1  0
 10 12  1  0
 11  5  1  6
 33 34  1  0
 33 35  1  0
 34 36  1  0
 35 37  1  0
 36 42  1  6
 20 21  2  0
 21 22  1  0
M  CHG  2   2  -1  26  -1
M  END
>  <COMPND>  (188) 
    8629 

>  <AUTHOR>  (188) 
    GENERATED BY OPEN BABEL 3.1.1

>  <MASTER>  (188) 
        0    0    0    0    0    0    0    0   58    0   58    0

>  <minimizedAffinity>  (188) 
-8.25592

>  <CNNscore>  (188) 
0.5025575161

>  <CNNaffinity>  (188) 
4.2555837631

>  <CNN_VS>  (188) 
2.1386756897

>  <CNNaffinity_variance>  (188) 
0.1004085988

$$$$
189
     RDKit          3D

 43 45  0  0  0  0  0  0  0  0999 V2000
   22.2127   73.1748   -4.2179 P   0  0  2  0  0  0  0  0  0  0  0  0
   23.7826   72.8742   -4.4678 O   0  0  0  0  0  0  0  0  0  0  0  0
   21.8969   74.5762   -3.7845 O   0  0  0  0  0  0  0  0  0  0  0  0
   21.7499   72.0040   -3.2016 O   0  0  0  0  0  0  0  0  0  0  0  0
   22.2885   71.9943   -1.8911 C   0  0  0  0  0  0  0  0  0  0  0  0
   21.7005   69.6733   -1.6893 O   0  0  0  0  0  0  0  0  0  0  0  0
   21.0718   70.2751    1.1801 O   0  0  0  0  0  0  0  0  0  0  0  0
   23.5300   69.1058    1.3429 O   0  0  0  0  0  0  0  0  0  0  0  0
   22.1041   70.8076    0.3519 C   0  0  1  0  0  0  0  0  0  0  0  0
   23.1963   69.7788    0.1460 C   0  0  2  0  0  0  0  0  0  0  0  0
   21.5431   70.9621   -1.0563 C   0  0  1  0  0  0  0  0  0  0  0  0
   22.5707   68.8578   -0.8877 C   0  0  2  0  0  0  0  0  0  0  0  0
   21.4063   70.1678    2.0848 H   0  0  0  0  0  0  0  0  0  0  0  0
   23.9242   69.7339    1.9680 H   0  0  0  0  0  0  0  0  0  0  0  0
   24.3272   70.2809   -2.5812 O   0  0  0  0  0  0  0  0  0  0  0  0
   26.2880   66.4010   -4.1120 O   0  0  0  0  0  0  0  0  0  0  0  0
   23.5507   68.2448   -1.7394 N   0  0  0  0  0  0  0  0  0  0  0  0
   25.3022   68.3479   -3.3419 N   0  0  0  0  0  0  0  0  0  0  0  0
   24.3829   69.0497   -2.5518 C   0  0  0  0  0  0  0  0  0  0  0  0
   23.6793   66.8603   -1.7631 C   0  0  0  0  0  0  0  0  0  0  0  0
   24.5602   66.2063   -2.5232 C   0  0  0  0  0  0  0  0  0  0  0  0
   25.4673   66.9731   -3.4013 C   0  0  0  0  0  0  0  0  0  0  0  0
   25.8923   68.8878   -3.9164 H   0  0  0  0  0  0  0  0  0  0  0  0
   21.5311   72.7332   -5.6155 O   0  0  0  0  0  0  0  0  0  0  0  0
   20.1447   73.1884   -6.3110 P   0  0  2  0  0  0  0  0  0  0  0  0
   20.3041   72.6651   -7.8336 O   0  0  0  0  0  0  0  0  0  0  0  0
   19.8470   74.6548   -6.1881 O   0  0  0  0  0  0  0  0  0  0  0  0
   19.0260   72.2222   -5.6629 O   0  0  0  0  0  0  0  0  0  0  0  0
   19.2019   70.0053   -4.8438 O   0  0  0  0  0  0  0  0  0  0  0  0
   15.4349   69.7919   -6.5216 O   0  0  0  0  0  0  0  0  0  0  0  0
   15.7137   69.8370   -3.6636 O   0  0  0  0  0  0  0  0  0  0  0  0
   17.5216   71.2998   -7.8449 O   0  0  0  0  0  0  0  0  0  0  0  0
   16.5230   70.4193   -5.8377 C   0  0  1  0  0  0  0  0  0  0  0  0
   16.8039   69.6301   -4.5575 C   0  0  1  0  0  0  0  0  0  0  0  0
   17.7498   70.4218   -6.7479 C   0  0  2  0  0  0  0  0  0  0  0  0
   18.1200   70.0782   -3.9079 C   0  0  1  0  0  0  0  0  0  0  0  0
   19.0134   70.8355   -5.9915 C   0  0  1  0  0  0  0  0  0  0  0  0
   14.6526   69.7875   -5.9493 H   0  0  0  0  0  0  0  0  0  0  0  0
   14.8887   69.5505   -4.0860 H   0  0  0  0  0  0  0  0  0  0  0  0
   16.7192   71.0272   -8.3157 H   0  0  0  0  0  0  0  0  0  0  0  0
   17.5282   68.1769   -2.5874 O   0  0  0  0  0  0  0  0  0  0  0  0
   18.4992   69.1988   -2.7184 C   0  0  0  0  0  0  0  0  0  0  0  0
   17.7568   67.6092   -1.8343 H   0  0  0  0  0  0  0  0  0  0  0  0
 25 28  1  0
 25 24  1  0
 25 26  1  6
 25 27  2  0
  1  4  1  0
  1 24  1  0
  1  2  1  6
  1  3  2  0
  6 11  1  0
  6 12  1  0
 29 36  1  0
 29 37  1  0
  9  7  1  1
  7 13  1  0
 10  8  1  1
  8 14  1  0
 37 28  1  1
  4  5  1  0
 33 30  1  6
 30 38  1  0
 34 31  1  1
 31 39  1  0
 35 32  1  6
 32 40  1  0
 41 42  1  0
 41 43  1  0
 15 19  2  0
 16 22  2  0
 12 17  1  6
 17 19  1  0
 17 20  1  0
 18 19  1  0
 18 22  1  0
 18 23  1  0
  9 10  1  0
  9 11  1  0
 10 12  1  0
 11  5  1  6
 33 34  1  0
 33 35  1  0
 34 36  1  0
 35 37  1  0
 36 42  1  1
 20 21  2  0
 21 22  1  0
M  CHG  2   2  -1  26  -1
M  END
>  <COMPND>  (189) 
    8629 

>  <AUTHOR>  (189) 
    GENERATED BY OPEN BABEL 3.1.1

>  <MASTER>  (189) 
        0    0    0    0    0    0    0    0   58    0   58    0

>  <minimizedAffinity>  (189) 
-8.63858

>  <CNNscore>  (189) 
0.4906470180

>  <CNNaffinity>  (189) 
4.2878651619

>  <CNN_VS>  (189) 
2.1038281918

>  <CNNaffinity_variance>  (189) 
1.2436510324

$$$$
190
     RDKit          3D

 43 45  0  0  0  0  0  0  0  0999 V2000
   21.1989   74.7195   -5.0521 P   0  0  2  0  0  0  0  0  0  0  0  0
   20.7444   75.8757   -4.0157 O   0  0  0  0  0  0  0  0  0  0  0  0
   22.2341   75.1381   -6.0544 O   0  0  0  0  0  0  0  0  0  0  0  0
   19.8035   74.1788   -5.6672 O   0  0  0  0  0  0  0  0  0  0  0  0
   18.6268   74.3063   -4.8882 C   0  0  0  0  0  0  0  0  0  0  0  0
   17.2072   72.9074   -6.2305 O   0  0  0  0  0  0  0  0  0  0  0  0
   15.2193   75.1501   -6.1317 O   0  0  0  0  0  0  0  0  0  0  0  0
   14.2497   73.4138   -4.2658 O   0  0  0  0  0  0  0  0  0  0  0  0
   16.1246   74.7019   -5.1242 C   0  0  1  0  0  0  0  0  0  0  0  0
   15.6391   73.3994   -4.5229 C   0  0  2  0  0  0  0  0  0  0  0  0
   17.4157   74.2736   -5.8104 C   0  0  1  0  0  0  0  0  0  0  0  0
   16.0250   72.3943   -5.5948 C   0  0  2  0  0  0  0  0  0  0  0  0
   14.3872   75.4293   -5.7174 H   0  0  0  0  0  0  0  0  0  0  0  0
   14.0548   74.0686   -3.5774 H   0  0  0  0  0  0  0  0  0  0  0  0
   15.7074   69.9667   -7.0031 O   0  0  0  0  0  0  0  0  0  0  0  0
   17.1620   67.4780   -3.4071 O   0  0  0  0  0  0  0  0  0  0  0  0
   16.3136   71.0973   -5.0509 N   0  0  0  0  0  0  0  0  0  0  0  0
   16.4321   68.7295   -5.2115 N   0  0  0  0  0  0  0  0  0  0  0  0
   16.1190   69.9407   -5.8414 C   0  0  0  0  0  0  0  0  0  0  0  0
   16.7844   70.9815   -3.7475 C   0  0  0  0  0  0  0  0  0  0  0  0
   17.0772   69.8189   -3.1611 C   0  0  0  0  0  0  0  0  0  0  0  0
   16.9017   68.5628   -3.9183 C   0  0  0  0  0  0  0  0  0  0  0  0
   16.3040   67.9103   -5.7428 H   0  0  0  0  0  0  0  0  0  0  0  0
   21.6563   73.5153   -4.0756 O   0  0  0  0  0  0  0  0  0  0  0  0
   23.0540   73.2411   -3.3112 P   0  0  2  0  0  0  0  0  0  0  0  0
   23.2240   74.5456   -2.3694 O   0  0  0  0  0  0  0  0  0  0  0  0
   24.2155   72.9825   -4.2265 O   0  0  0  0  0  0  0  0  0  0  0  0
   22.7295   72.0376   -2.2858 O   0  0  0  0  0  0  0  0  0  0  0  0
   23.3622   69.8700   -3.0055 O   0  0  0  0  0  0  0  0  0  0  0  0
   20.8213   68.8262    0.0776 O   0  0  0  0  0  0  0  0  0  0  0  0
   23.6551   68.4898    0.4002 O   0  0  0  0  0  0  0  0  0  0  0  0
   20.1770   71.0766   -1.6255 O   0  0  0  0  0  0  0  0  0  0  0  0
   21.7992   69.6283   -0.5900 C   0  0  1  0  0  0  0  0  0  0  0  0
   23.0324   68.7615   -0.8523 C   0  0  1  0  0  0  0  0  0  0  0  0
   21.2124   70.1402   -1.9041 C   0  0  2  0  0  0  0  0  0  0  0  0
   24.0153   69.4677   -1.7958 C   0  0  1  0  0  0  0  0  0  0  0  0
   22.2829   70.7812   -2.7891 C   0  0  1  0  0  0  0  0  0  0  0  0
   21.1874   68.4985    0.9131 H   0  0  0  0  0  0  0  0  0  0  0  0
   23.0237   68.0443    0.9867 H   0  0  0  0  0  0  0  0  0  0  0  0
   19.5055   70.6586   -1.0649 H   0  0  0  0  0  0  0  0  0  0  0  0
   25.3863   68.6877   -3.5905 O   0  0  0  0  0  0  0  0  0  0  0  0
   25.1761   68.5598   -2.1963 C   0  0  0  0  0  0  0  0  0  0  0  0
   26.1225   68.1156   -3.8596 H   0  0  0  0  0  0  0  0  0  0  0  0
 25 28  1  0
 25 24  1  0
 25 26  1  1
 25 27  2  0
  1  4  1  0
  1 24  1  0
  1  2  1  1
  1  3  2  0
  6 11  1  0
  6 12  1  0
 29 36  1  0
 29 37  1  0
  9  7  1  6
  7 13  1  0
 10  8  1  6
  8 14  1  0
 37 28  1  1
  4  5  1  0
 33 30  1  6
 30 38  1  0
 34 31  1  1
 31 39  1  0
 35 32  1  1
 32 40  1  0
 41 42  1  0
 41 43  1  0
 15 19  2  0
 16 22  2  0
 12 17  1  1
 17 19  1  0
 17 20  1  0
 18 19  1  0
 18 22  1  0
 18 23  1  0
  9 10  1  0
  9 11  1  0
 10 12  1  0
 11  5  1  1
 33 34  1  0
 33 35  1  0
 34 36  1  0
 35 37  1  0
 36 42  1  6
 20 21  2  0
 21 22  1  0
M  CHG  2   2  -1  26  -1
M  END
>  <COMPND>  (190) 
    8629 

>  <AUTHOR>  (190) 
    GENERATED BY OPEN BABEL 3.1.1

>  <MASTER>  (190) 
        0    0    0    0    0    0    0    0   58    0   58    0

>  <minimizedAffinity>  (190) 
-7.34202

>  <CNNscore>  (190) 
0.4815275669

>  <CNNaffinity>  (190) 
4.0269556046

>  <CNN_VS>  (190) 
1.9390901327

>  <CNNaffinity_variance>  (190) 
0.7018104792

$$$$
191
     RDKit          3D

 43 45  0  0  0  0  0  0  0  0999 V2000
   22.9404   73.7923   -4.1714 P   0  0  2  0  0  0  0  0  0  0  0  0
   23.4093   74.9043   -5.2489 O   0  0  0  0  0  0  0  0  0  0  0  0
   23.8302   72.5879   -4.0755 O   0  0  0  0  0  0  0  0  0  0  0  0
   21.3986   73.4973   -4.5635 O   0  0  0  0  0  0  0  0  0  0  0  0
   21.0609   72.2138   -5.0597 C   0  0  0  0  0  0  0  0  0  0  0  0
   19.4287   71.0891   -6.4179 O   0  0  0  0  0  0  0  0  0  0  0  0
   18.3987   73.8186   -7.1105 O   0  0  0  0  0  0  0  0  0  0  0  0
   16.6178   72.9715   -5.2271 O   0  0  0  0  0  0  0  0  0  0  0  0
   18.9315   73.3418   -5.8760 C   0  0  1  0  0  0  0  0  0  0  0  0
   17.9281   72.4445   -5.1819 C   0  0  2  0  0  0  0  0  0  0  0  0
   20.0597   72.3693   -6.1962 C   0  0  1  0  0  0  0  0  0  0  0  0
   18.0656   71.1513   -5.9674 C   0  0  2  0  0  0  0  0  0  0  0  0
   17.6765   74.4418   -6.9316 H   0  0  0  0  0  0  0  0  0  0  0  0
   16.5817   73.7932   -4.7130 H   0  0  0  0  0  0  0  0  0  0  0  0
   15.7629   69.5394   -6.2454 O   0  0  0  0  0  0  0  0  0  0  0  0
   17.0950   66.7302   -2.8432 O   0  0  0  0  0  0  0  0  0  0  0  0
   17.7854   69.9923   -5.1677 N   0  0  0  0  0  0  0  0  0  0  0  0
   16.4281   68.1419   -4.5513 N   0  0  0  0  0  0  0  0  0  0  0  0
   16.6001   69.2526   -5.3872 C   0  0  0  0  0  0  0  0  0  0  0  0
   18.6810   69.5996   -4.1789 C   0  0  0  0  0  0  0  0  0  0  0  0
   18.5017   68.5386   -3.3893 C   0  0  0  0  0  0  0  0  0  0  0  0
   17.2887   67.7118   -3.5536 C   0  0  0  0  0  0  0  0  0  0  0  0
   15.6093   67.6116   -4.6857 H   0  0  0  0  0  0  0  0  0  0  0  0
   22.8109   74.6436   -2.8034 O   0  0  0  0  0  0  0  0  0  0  0  0
   22.2462   74.2315   -1.3460 P   0  0  2  0  0  0  0  0  0  0  0  0
   20.6459   74.1629   -1.5740 O   0  0  0  0  0  0  0  0  0  0  0  0
   22.6750   75.1490   -0.2377 O   0  0  0  0  0  0  0  0  0  0  0  0
   22.6967   72.6936   -1.1532 O   0  0  0  0  0  0  0  0  0  0  0  0
   22.0752   70.4084   -1.2442 O   0  0  0  0  0  0  0  0  0  0  0  0
   22.2510   70.8817    2.8541 O   0  0  0  0  0  0  0  0  0  0  0  0
   24.2958   69.3770    1.5115 O   0  0  0  0  0  0  0  0  0  0  0  0
   21.1987   73.0104    1.1985 O   0  0  0  0  0  0  0  0  0  0  0  0
   22.6455   71.1083    1.4982 C   0  0  1  0  0  0  0  0  0  0  0  0
   23.0736   69.7698    0.8933 C   0  0  1  0  0  0  0  0  0  0  0  0
   21.4649   71.6942    0.7261 C   0  0  2  0  0  0  0  0  0  0  0  0
   23.2552   69.8815   -0.6265 C   0  0  1  0  0  0  0  0  0  0  0  0
   21.7298   71.7151   -0.7804 C   0  0  1  0  0  0  0  0  0  0  0  0
   22.9963   70.5101    3.3500 H   0  0  0  0  0  0  0  0  0  0  0  0
   24.1676   69.3107    2.4708 H   0  0  0  0  0  0  0  0  0  0  0  0
   21.0324   72.9837    2.1533 H   0  0  0  0  0  0  0  0  0  0  0  0
   23.1959   67.5100   -0.3409 O   0  0  0  0  0  0  0  0  0  0  0  0
   23.5281   68.5243   -1.2711 C   0  0  0  0  0  0  0  0  0  0  0  0
   23.3642   66.6405   -0.7377 H   0  0  0  0  0  0  0  0  0  0  0  0
 25 28  1  0
 25 24  1  0
 25 26  1  6
 25 27  2  0
  1  4  1  0
  1 24  1  0
  1  2  1  6
  1  3  2  0
  6 11  1  0
  6 12  1  0
 29 36  1  0
 29 37  1  0
  9  7  1  6
  7 13  1  0
 10  8  1  6
  8 14  1  0
 37 28  1  1
  4  5  1  0
 33 30  1  1
 30 38  1  0
 34 31  1  1
 31 39  1  0
 35 32  1  1
 32 40  1  0
 41 42  1  0
 41 43  1  0
 15 19  2  0
 16 22  2  0
 12 17  1  1
 17 19  1  0
 17 20  1  0
 18 19  1  0
 18 22  1  0
 18 23  1  0
  9 10  1  0
  9 11  1  0
 10 12  1  0
 11  5  1  1
 33 34  1  0
 33 35  1  0
 34 36  1  0
 35 37  1  0
 36 42  1  6
 20 21  2  0
 21 22  1  0
M  CHG  2   2  -1  26  -1
M  END
>  <COMPND>  (191) 
    8629 

>  <AUTHOR>  (191) 
    GENERATED BY OPEN BABEL 3.1.1

>  <MASTER>  (191) 
        0    0    0    0    0    0    0    0   58    0   58    0

>  <minimizedAffinity>  (191) 
-7.56236

>  <CNNscore>  (191) 
0.4218122959

>  <CNNaffinity>  (191) 
4.1287941933

>  <CNN_VS>  (191) 
1.7415761948

>  <CNNaffinity_variance>  (191) 
0.4832738340

$$$$
192
     RDKit          3D

 43 45  0  0  0  0  0  0  0  0999 V2000
   21.3115   71.0881   -3.3601 P   0  0  2  0  0  0  0  0  0  0  0  0
   21.6063   72.1806   -2.2038 O   0  0  0  0  0  0  0  0  0  0  0  0
   20.9195   71.6626   -4.6897 O   0  0  0  0  0  0  0  0  0  0  0  0
   20.2364   70.0864   -2.6830 O   0  0  0  0  0  0  0  0  0  0  0  0
   19.7102   69.0295   -3.4665 C   0  0  0  0  0  0  0  0  0  0  0  0
   17.5499   69.7970   -2.7468 O   0  0  0  0  0  0  0  0  0  0  0  0
   16.6564   66.9471   -3.0121 O   0  0  0  0  0  0  0  0  0  0  0  0
   15.6974   68.0858   -5.2969 O   0  0  0  0  0  0  0  0  0  0  0  0
   17.5807   67.6811   -3.8134 C   0  0  1  0  0  0  0  0  0  0  0  0
   16.8435   68.6604   -4.7028 C   0  0  2  0  0  0  0  0  0  0  0  0
   18.3623   68.6119   -2.8947 C   0  0  1  0  0  0  0  0  0  0  0  0
   16.5007   69.7745   -3.7284 C   0  0  2  0  0  0  0  0  0  0  0  0
   16.1457   66.3453   -3.5769 H   0  0  0  0  0  0  0  0  0  0  0  0
   15.9678   67.3828   -5.9080 H   0  0  0  0  0  0  0  0  0  0  0  0
   14.8752   71.9097   -2.8472 O   0  0  0  0  0  0  0  0  0  0  0  0
   16.3164   74.6553   -6.2570 O   0  0  0  0  0  0  0  0  0  0  0  0
   16.4319   71.0586   -4.3669 N   0  0  0  0  0  0  0  0  0  0  0  0
   15.5943   73.2751   -4.5456 N   0  0  0  0  0  0  0  0  0  0  0  0
   15.5829   72.0622   -3.8451 C   0  0  0  0  0  0  0  0  0  0  0  0
   17.2011   71.3126   -5.4973 C   0  0  0  0  0  0  0  0  0  0  0  0
   17.1996   72.4742   -6.1545 C   0  0  0  0  0  0  0  0  0  0  0  0
   16.3400   73.5754   -5.6745 C   0  0  0  0  0  0  0  0  0  0  0  0
   15.0102   73.9889   -4.2005 H   0  0  0  0  0  0  0  0  0  0  0  0
   22.6663   70.2066   -3.3812 O   0  0  0  0  0  0  0  0  0  0  0  0
   23.4419   69.4237   -2.1987 P   0  0  2  0  0  0  0  0  0  0  0  0
   24.9574   69.3182   -2.7553 O   0  0  0  0  0  0  0  0  0  0  0  0
   22.8260   68.1063   -1.8257 O   0  0  0  0  0  0  0  0  0  0  0  0
   23.5251   70.4894   -0.9894 O   0  0  0  0  0  0  0  0  0  0  0  0
   24.3781   70.7891    1.2014 O   0  0  0  0  0  0  0  0  0  0  0  0
   20.3556   71.2970    1.9842 O   0  0  0  0  0  0  0  0  0  0  0  0
   22.1085   73.5714    2.0359 O   0  0  0  0  0  0  0  0  0  0  0  0
   21.2135   69.3022    0.0699 O   0  0  0  0  0  0  0  0  0  0  0  0
   21.5552   71.3952    1.2118 C   0  0  1  0  0  0  0  0  0  0  0  0
   22.5690   72.2234    2.0037 C   0  0  1  0  0  0  0  0  0  0  0  0
   22.0961   69.9910    0.9490 C   0  0  2  0  0  0  0  0  0  0  0  0
   23.9630   72.1501    1.3661 C   0  0  1  0  0  0  0  0  0  0  0  0
   23.5073   70.0304    0.3598 C   0  0  1  0  0  0  0  0  0  0  0  0
   20.0067   72.1852    2.1541 H   0  0  0  0  0  0  0  0  0  0  0  0
   21.2272   73.6037    2.4403 H   0  0  0  0  0  0  0  0  0  0  0  0
   20.3236   69.2839    0.4543 H   0  0  0  0  0  0  0  0  0  0  0  0
   24.9326   74.2355    2.0139 O   0  0  0  0  0  0  0  0  0  0  0  0
   25.0217   72.8384    2.2248 C   0  0  0  0  0  0  0  0  0  0  0  0
   25.6004   74.6868    2.5544 H   0  0  0  0  0  0  0  0  0  0  0  0
 25 28  1  0
 25 24  1  0
 25 26  1  6
 25 27  2  0
  1  4  1  0
  1 24  1  0
  1  2  1  1
  1  3  2  0
  6 11  1  0
  6 12  1  0
 29 36  1  0
 29 37  1  0
  9  7  1  1
  7 13  1  0
 10  8  1  1
  8 14  1  0
 37 28  1  6
  4  5  1  0
 33 30  1  1
 30 38  1  0
 34 31  1  6
 31 39  1  0
 35 32  1  6
 32 40  1  0
 41 42  1  0
 41 43  1  0
 15 19  2  0
 16 22  2  0
 12 17  1  6
 17 19  1  0
 17 20  1  0
 18 19  1  0
 18 22  1  0
 18 23  1  0
  9 10  1  0
  9 11  1  0
 10 12  1  0
 11  5  1  6
 33 34  1  0
 33 35  1  0
 34 36  1  0
 35 37  1  0
 36 42  1  1
 20 21  2  0
 21 22  1  0
M  CHG  2   2  -1  26  -1
M  END
>  <COMPND>  (192) 
    8629 

>  <AUTHOR>  (192) 
    GENERATED BY OPEN BABEL 3.1.1

>  <MASTER>  (192) 
        0    0    0    0    0    0    0    0   58    0   58    0

>  <minimizedAffinity>  (192) 
-7.26627

>  <CNNscore>  (192) 
0.3817566931

>  <CNNaffinity>  (192) 
4.2343282700

>  <CNN_VS>  (192) 
1.6164832115

>  <CNNaffinity_variance>  (192) 
0.2719690204

$$$$
193
     RDKit          3D

 43 45  0  0  0  0  0  0  0  0999 V2000
   22.0155   72.2483   -3.9449 P   0  0  2  0  0  0  0  0  0  0  0  0
   21.3447   73.1768   -2.8025 O   0  0  0  0  0  0  0  0  0  0  0  0
   23.2830   72.7895   -4.5382 O   0  0  0  0  0  0  0  0  0  0  0  0
   20.8080   71.9838   -4.9889 O   0  0  0  0  0  0  0  0  0  0  0  0
   20.8172   72.6791   -6.2236 C   0  0  0  0  0  0  0  0  0  0  0  0
   19.3373   70.8271   -6.6158 O   0  0  0  0  0  0  0  0  0  0  0  0
   19.0806   71.8674   -9.4164 O   0  0  0  0  0  0  0  0  0  0  0  0
   16.7840   72.7512   -8.2412 O   0  0  0  0  0  0  0  0  0  0  0  0
   19.2095   72.5908   -8.1935 C   0  0  1  0  0  0  0  0  0  0  0  0
   17.9113   72.5432   -7.4150 C   0  0  2  0  0  0  0  0  0  0  0  0
   20.1537   71.8128   -7.2854 C   0  0  1  0  0  0  0  0  0  0  0  0
   17.9511   71.1453   -6.8212 C   0  0  2  0  0  0  0  0  0  0  0  0
   18.4824   72.3450  -10.0129 H   0  0  0  0  0  0  0  0  0  0  0  0
   16.8041   73.6542   -8.5946 H   0  0  0  0  0  0  0  0  0  0  0  0
   16.2287   69.0339   -6.0774 O   0  0  0  0  0  0  0  0  0  0  0  0
   15.3637   70.9419   -1.9722 O   0  0  0  0  0  0  0  0  0  0  0  0
   17.2629   71.0647   -5.5638 N   0  0  0  0  0  0  0  0  0  0  0  0
   15.7996   69.9856   -4.0338 N   0  0  0  0  0  0  0  0  0  0  0  0
   16.4201   69.9624   -5.2894 C   0  0  0  0  0  0  0  0  0  0  0  0
   17.4270   72.0710   -4.6181 C   0  0  0  0  0  0  0  0  0  0  0  0
   16.8271   72.0789   -3.4260 C   0  0  0  0  0  0  0  0  0  0  0  0
   15.9300   70.9636   -3.0606 C   0  0  0  0  0  0  0  0  0  0  0  0
   15.2075   69.2281   -3.8208 H   0  0  0  0  0  0  0  0  0  0  0  0
   22.1754   70.8200   -3.2050 O   0  0  0  0  0  0  0  0  0  0  0  0
   21.1989   70.0407   -2.1793 P   0  0  2  0  0  0  0  0  0  0  0  0
   21.6653   68.4981   -2.3225 O   0  0  0  0  0  0  0  0  0  0  0  0
   19.7362   70.2709   -2.4271 O   0  0  0  0  0  0  0  0  0  0  0  0
   21.7070   70.4858   -0.7135 O   0  0  0  0  0  0  0  0  0  0  0  0
   23.3046   72.0912   -0.0156 O   0  0  0  0  0  0  0  0  0  0  0  0
   24.1261   69.1100    2.7210 O   0  0  0  0  0  0  0  0  0  0  0  0
   22.7833   71.4971    3.5850 O   0  0  0  0  0  0  0  0  0  0  0  0
   23.4727   68.4200   -0.0133 O   0  0  0  0  0  0  0  0  0  0  0  0
   23.2951   69.9073    1.8729 C   0  0  1  0  0  0  0  0  0  0  0  0
   23.4178   71.3665    2.3159 C   0  0  1  0  0  0  0  0  0  0  0  0
   23.7563   69.7441    0.4258 C   0  0  2  0  0  0  0  0  0  0  0  0
   22.7701   72.3117    1.2949 C   0  0  1  0  0  0  0  0  0  0  0  0
   23.0882   70.7637   -0.4983 C   0  0  1  0  0  0  0  0  0  0  0  0
   23.8383   69.2087    3.6412 H   0  0  0  0  0  0  0  0  0  0  0  0
   23.2013   70.8947    4.2203 H   0  0  0  0  0  0  0  0  0  0  0  0
   23.9014   67.7840    0.5796 H   0  0  0  0  0  0  0  0  0  0  0  0
   24.0535   73.8478    2.5996 O   0  0  0  0  0  0  0  0  0  0  0  0
   23.0180   73.7793    1.6366 C   0  0  0  0  0  0  0  0  0  0  0  0
   24.2224   74.7761    2.8264 H   0  0  0  0  0  0  0  0  0  0  0  0
 25 28  1  0
 25 24  1  0
 25 26  1  1
 25 27  2  0
  1  4  1  0
  1 24  1  0
  1  2  1  1
  1  3  2  0
  6 11  1  0
  6 12  1  0
 29 36  1  0
 29 37  1  0
  9  7  1  6
  7 13  1  0
 10  8  1  6
  8 14  1  0
 37 28  1  1
  4  5  1  0
 33 30  1  1
 30 38  1  0
 34 31  1  1
 31 39  1  0
 35 32  1  6
 32 40  1  0
 41 42  1  0
 41 43  1  0
 15 19  2  0
 16 22  2  0
 12 17  1  1
 17 19  1  0
 17 20  1  0
 18 19  1  0
 18 22  1  0
 18 23  1  0
  9 10  1  0
  9 11  1  0
 10 12  1  0
 11  5  1  1
 33 34  1  0
 33 35  1  0
 34 36  1  0
 35 37  1  0
 36 42  1  1
 20 21  2  0
 21 22  1  0
M  CHG  2   2  -1  26  -1
M  END
>  <COMPND>  (193) 
    8629 

>  <AUTHOR>  (193) 
    GENERATED BY OPEN BABEL 3.1.1

>  <MASTER>  (193) 
        0    0    0    0    0    0    0    0   58    0   58    0

>  <minimizedAffinity>  (193) 
-7.96170

>  <CNNscore>  (193) 
0.3565026224

>  <CNNaffinity>  (193) 
4.0857214928

>  <CNN_VS>  (193) 
1.4565703869

>  <CNNaffinity_variance>  (193) 
0.2049997747

$$$$
194
     RDKit          3D

 43 45  0  0  0  0  0  0  0  0999 V2000
   22.3891   70.3622   -2.6003 P   0  0  2  0  0  0  0  0  0  0  0  0
   21.9101   68.8252   -2.4411 O   0  0  0  0  0  0  0  0  0  0  0  0
   23.8389   70.5420   -2.9427 O   0  0  0  0  0  0  0  0  0  0  0  0
   21.8986   71.0660   -1.2284 O   0  0  0  0  0  0  0  0  0  0  0  0
   22.7933   71.9363   -0.5576 C   0  0  0  0  0  0  0  0  0  0  0  0
   24.5924   72.0196    1.0330 O   0  0  0  0  0  0  0  0  0  0  0  0
   23.7066   69.2881    1.8963 O   0  0  0  0  0  0  0  0  0  0  0  0
   22.6473   70.8948    3.8284 O   0  0  0  0  0  0  0  0  0  0  0  0
   22.9199   70.3971    1.4642 C   0  0  1  0  0  0  0  0  0  0  0  0
   22.8601   71.4533    2.5479 C   0  0  2  0  0  0  0  0  0  0  0  0
   23.6875   71.1157    0.3617 C   0  0  1  0  0  0  0  0  0  0  0  0
   24.2211   72.1157    2.4178 C   0  0  2  0  0  0  0  0  0  0  0  0
   23.2366   68.8133    2.6003 H   0  0  0  0  0  0  0  0  0  0  0  0
   21.7685   70.4857    3.8609 H   0  0  0  0  0  0  0  0  0  0  0  0
   26.5197   73.7257    2.7380 O   0  0  0  0  0  0  0  0  0  0  0  0
   24.0019   77.4122    3.8834 O   0  0  0  0  0  0  0  0  0  0  0  0
   24.1954   73.4997    2.7987 N   0  0  0  0  0  0  0  0  0  0  0  0
   25.2641   75.5600    3.3079 N   0  0  0  0  0  0  0  0  0  0  0  0
   25.4064   74.2180    2.9328 C   0  0  0  0  0  0  0  0  0  0  0  0
   22.9789   74.1310    3.0346 C   0  0  0  0  0  0  0  0  0  0  0  0
   22.8604   75.4112    3.3929 C   0  0  0  0  0  0  0  0  0  0  0  0
   24.0776   76.2323    3.5548 C   0  0  0  0  0  0  0  0  0  0  0  0
   26.0944   76.0801    3.4078 H   0  0  0  0  0  0  0  0  0  0  0  0
   21.3603   70.9517   -3.6990 O   0  0  0  0  0  0  0  0  0  0  0  0
   21.2392   72.4226   -4.3582 P   0  0  2  0  0  0  0  0  0  0  0  0
   22.5888   72.5455   -5.2419 O   0  0  0  0  0  0  0  0  0  0  0  0
   21.0483   73.5295   -3.3620 O   0  0  0  0  0  0  0  0  0  0  0  0
   20.0522   72.2875   -5.4434 O   0  0  0  0  0  0  0  0  0  0  0  0
   18.5294   70.4770   -5.5848 O   0  0  0  0  0  0  0  0  0  0  0  0
   18.5867   71.6026   -9.5572 O   0  0  0  0  0  0  0  0  0  0  0  0
   16.2681   72.1632   -7.9580 O   0  0  0  0  0  0  0  0  0  0  0  0
   21.0270   71.6711   -8.0017 O   0  0  0  0  0  0  0  0  0  0  0  0
   18.6267   71.8118   -8.1430 C   0  0  1  0  0  0  0  0  0  0  0  0
   17.3178   71.2930   -7.5443 C   0  0  1  0  0  0  0  0  0  0  0  0
   19.8206   71.0577   -7.5604 C   0  0  2  0  0  0  0  0  0  0  0  0
   17.3932   71.2371   -6.0125 C   0  0  1  0  0  0  0  0  0  0  0  0
   19.7734   71.0197   -6.0319 C   0  0  1  0  0  0  0  0  0  0  0  0
   17.8312   72.0792   -9.9334 H   0  0  0  0  0  0  0  0  0  0  0  0
   16.2316   72.1899   -8.9271 H   0  0  0  0  0  0  0  0  0  0  0  0
   21.0450   71.6887   -8.9708 H   0  0  0  0  0  0  0  0  0  0  0  0
   15.6616   69.6199   -6.3213 O   0  0  0  0  0  0  0  0  0  0  0  0
   16.1590   70.5757   -5.4030 C   0  0  0  0  0  0  0  0  0  0  0  0
   14.8761   69.1906   -5.9466 H   0  0  0  0  0  0  0  0  0  0  0  0
 25 28  1  0
 25 24  1  0
 25 26  1  6
 25 27  2  0
  1  4  1  0
  1 24  1  0
  1  2  1  1
  1  3  2  0
  6 11  1  0
  6 12  1  0
 29 36  1  0
 29 37  1  0
  9  7  1  1
  7 13  1  0
 10  8  1  1
  8 14  1  0
 37 28  1  1
  4  5  1  0
 33 30  1  6
 30 38  1  0
 34 31  1  1
 31 39  1  0
 35 32  1  1
 32 40  1  0
 41 42  1  0
 41 43  1  0
 15 19  2  0
 16 22  2  0
 12 17  1  6
 17 19  1  0
 17 20  1  0
 18 19  1  0
 18 22  1  0
 18 23  1  0
  9 10  1  0
  9 11  1  0
 10 12  1  0
 11  5  1  6
 33 34  1  0
 33 35  1  0
 34 36  1  0
 35 37  1  0
 36 42  1  6
 20 21  2  0
 21 22  1  0
M  CHG  2   2  -1  26  -1
M  END
>  <COMPND>  (194) 
    8629 

>  <AUTHOR>  (194) 
    GENERATED BY OPEN BABEL 3.1.1

>  <MASTER>  (194) 
        0    0    0    0    0    0    0    0   58    0   58    0

>  <minimizedAffinity>  (194) 
-7.37796

>  <CNNscore>  (194) 
0.3404216766

>  <CNNaffinity>  (194) 
4.0812129974

>  <CNN_VS>  (194) 
1.3893333673

>  <CNNaffinity_variance>  (194) 
0.0181461368

$$$$
195
     RDKit          3D

 43 45  0  0  0  0  0  0  0  0999 V2000
   22.5298   73.8198   -4.0715 P   0  0  2  0  0  0  0  0  0  0  0  0
   23.9400   73.0674   -4.3217 O   0  0  0  0  0  0  0  0  0  0  0  0
   22.4523   74.6150   -2.8014 O   0  0  0  0  0  0  0  0  0  0  0  0
   21.4288   72.6453   -4.2335 O   0  0  0  0  0  0  0  0  0  0  0  0
   20.9840   71.9704   -3.0697 C   0  0  0  0  0  0  0  0  0  0  0  0
   22.8655   70.7287   -2.2377 O   0  0  0  0  0  0  0  0  0  0  0  0
   21.2243   68.2691   -2.7355 O   0  0  0  0  0  0  0  0  0  0  0  0
   20.9609   68.6250   -0.0447 O   0  0  0  0  0  0  0  0  0  0  0  0
   20.8064   69.5567   -2.2851 C   0  0  1  0  0  0  0  0  0  0  0  0
   21.2112   69.7654   -0.8407 C   0  0  2  0  0  0  0  0  0  0  0  0
   21.6487   70.6021   -3.0056 C   0  0  1  0  0  0  0  0  0  0  0  0
   22.6930   70.0742   -0.9702 C   0  0  2  0  0  0  0  0  0  0  0  0
   20.7002   67.5849   -2.2893 H   0  0  0  0  0  0  0  0  0  0  0  0
   20.0048   68.4702    0.0073 H   0  0  0  0  0  0  0  0  0  0  0  0
   23.6578   69.1883    1.5323 O   0  0  0  0  0  0  0  0  0  0  0  0
   24.4743   73.4973    2.9488 O   0  0  0  0  0  0  0  0  0  0  0  0
   23.1645   70.9430    0.0712 N   0  0  0  0  0  0  0  0  0  0  0  0
   24.0637   71.3346    2.2355 N   0  0  0  0  0  0  0  0  0  0  0  0
   23.6272   70.3968    1.2910 C   0  0  0  0  0  0  0  0  0  0  0  0
   23.1653   72.3200   -0.1226 C   0  0  0  0  0  0  0  0  0  0  0  0
   23.5836   73.2009    0.7886 C   0  0  0  0  0  0  0  0  0  0  0  0
   24.0828   72.7127    2.0904 C   0  0  0  0  0  0  0  0  0  0  0  0
   24.3901   70.9772    3.0931 H   0  0  0  0  0  0  0  0  0  0  0  0
   22.3365   74.6878   -5.4214 O   0  0  0  0  0  0  0  0  0  0  0  0
   21.9066   74.2452   -6.9155 P   0  0  2  0  0  0  0  0  0  0  0  0
   22.6543   72.8239   -7.1111 O   0  0  0  0  0  0  0  0  0  0  0  0
   22.2231   75.2622   -7.9736 O   0  0  0  0  0  0  0  0  0  0  0  0
   20.3415   73.8694   -6.7959 O   0  0  0  0  0  0  0  0  0  0  0  0
   19.7551   72.7394   -8.7948 O   0  0  0  0  0  0  0  0  0  0  0  0
   16.0561   72.7979   -6.9606 O   0  0  0  0  0  0  0  0  0  0  0  0
   17.5122   70.3288   -7.1374 O   0  0  0  0  0  0  0  0  0  0  0  0
   17.8139   75.0872   -6.7394 O   0  0  0  0  0  0  0  0  0  0  0  0
   17.4830   72.7173   -7.0136 C   0  0  1  0  0  0  0  0  0  0  0  0
   17.8634   71.5034   -7.8636 C   0  0  1  0  0  0  0  0  0  0  0  0
   18.0329   74.0008   -7.6329 C   0  0  2  0  0  0  0  0  0  0  0  0
   19.3634   71.5024   -8.1881 C   0  0  1  0  0  0  0  0  0  0  0  0
   19.5217   73.8766   -7.9617 C   0  0  1  0  0  0  0  0  0  0  0  0
   15.7006   71.9862   -6.5679 H   0  0  0  0  0  0  0  0  0  0  0  0
   16.5627   70.3420   -6.9384 H   0  0  0  0  0  0  0  0  0  0  0  0
   16.8678   75.1555   -6.5393 H   0  0  0  0  0  0  0  0  0  0  0  0
   18.6075   70.0977   -9.9670 O   0  0  0  0  0  0  0  0  0  0  0  0
   19.7367   70.3889   -9.1641 C   0  0  0  0  0  0  0  0  0  0  0  0
   18.8304   69.3908  -10.5933 H   0  0  0  0  0  0  0  0  0  0  0  0
 25 28  1  0
 25 24  1  0
 25 26  1  6
 25 27  2  0
  1  4  1  0
  1 24  1  0
  1  2  1  6
  1  3  2  0
  6 11  1  0
  6 12  1  0
 29 36  1  0
 29 37  1  0
  9  7  1  6
  7 13  1  0
 10  8  1  1
  8 14  1  0
 37 28  1  1
  4  5  1  0
 33 30  1  6
 30 38  1  0
 34 31  1  1
 31 39  1  0
 35 32  1  1
 32 40  1  0
 41 42  1  0
 41 43  1  0
 15 19  2  0
 16 22  2  0
 12 17  1  1
 17 19  1  0
 17 20  1  0
 18 19  1  0
 18 22  1  0
 18 23  1  0
  9 10  1  0
  9 11  1  0
 10 12  1  0
 11  5  1  1
 33 34  1  0
 33 35  1  0
 34 36  1  0
 35 37  1  0
 36 42  1  6
 20 21  2  0
 21 22  1  0
M  CHG  2   2  -1  26  -1
M  END
>  <COMPND>  (195) 
    8629 

>  <AUTHOR>  (195) 
    GENERATED BY OPEN BABEL 3.1.1

>  <MASTER>  (195) 
        0    0    0    0    0    0    0    0   58    0   58    0

>  <minimizedAffinity>  (195) 
-7.78841

>  <CNNscore>  (195) 
0.3361601233

>  <CNNaffinity>  (195) 
3.8120086193

>  <CNN_VS>  (195) 
1.2814452648

>  <CNNaffinity_variance>  (195) 
0.5096317530

$$$$
196
     RDKit          3D

 43 45  0  0  0  0  0  0  0  0999 V2000
   22.2319   72.6752   -4.3384 P   0  0  2  0  0  0  0  0  0  0  0  0
   22.6696   74.0584   -5.0544 O   0  0  0  0  0  0  0  0  0  0  0  0
   23.3697   71.8048   -3.8922 O   0  0  0  0  0  0  0  0  0  0  0  0
   21.2027   72.0022   -5.3899 O   0  0  0  0  0  0  0  0  0  0  0  0
   20.6567   72.8136   -6.4152 C   0  0  0  0  0  0  0  0  0  0  0  0
   19.2260   70.9148   -6.7638 O   0  0  0  0  0  0  0  0  0  0  0  0
   18.8798   71.9260   -9.5654 O   0  0  0  0  0  0  0  0  0  0  0  0
   16.5822   72.7485   -8.3484 O   0  0  0  0  0  0  0  0  0  0  0  0
   19.0120   72.6621   -8.3504 C   0  0  1  0  0  0  0  0  0  0  0  0
   17.7322   72.5809   -7.5446 C   0  0  2  0  0  0  0  0  0  0  0  0
   19.9980   71.9198   -7.4570 C   0  0  1  0  0  0  0  0  0  0  0  0
   17.8269   71.1893   -6.9423 C   0  0  2  0  0  0  0  0  0  0  0  0
   18.2550   72.3809  -10.1524 H   0  0  0  0  0  0  0  0  0  0  0  0
   16.5675   73.6491   -8.7082 H   0  0  0  0  0  0  0  0  0  0  0  0
   16.2566   68.9924   -6.1142 O   0  0  0  0  0  0  0  0  0  0  0  0
   15.3443   70.9455   -2.0406 O   0  0  0  0  0  0  0  0  0  0  0  0
   17.1676   71.0972   -5.6702 N   0  0  0  0  0  0  0  0  0  0  0  0
   15.8038   69.9666   -4.0865 N   0  0  0  0  0  0  0  0  0  0  0  0
   16.4021   69.9510   -5.3529 C   0  0  0  0  0  0  0  0  0  0  0  0
   17.2838   72.1357   -4.7526 C   0  0  0  0  0  0  0  0  0  0  0  0
   16.7059   72.1357   -3.5496 C   0  0  0  0  0  0  0  0  0  0  0  0
   15.8886   70.9754   -3.1400 C   0  0  0  0  0  0  0  0  0  0  0  0
   15.2652   69.1787   -3.8437 H   0  0  0  0  0  0  0  0  0  0  0  0
   21.2596   73.1744   -3.1473 O   0  0  0  0  0  0  0  0  0  0  0  0
   20.4156   72.3434   -2.0473 P   0  0  2  0  0  0  0  0  0  0  0  0
   19.9564   71.0189   -2.8550 O   0  0  0  0  0  0  0  0  0  0  0  0
   19.2858   73.1139   -1.4278 O   0  0  0  0  0  0  0  0  0  0  0  0
   21.5216   71.8169   -0.9962 O   0  0  0  0  0  0  0  0  0  0  0  0
   22.4086   69.6267   -1.1782 O   0  0  0  0  0  0  0  0  0  0  0  0
   23.2103   70.3340    2.8102 O   0  0  0  0  0  0  0  0  0  0  0  0
   25.3652   70.3189    0.9117 O   0  0  0  0  0  0  0  0  0  0  0  0
   20.7364   71.2826    1.6444 O   0  0  0  0  0  0  0  0  0  0  0  0
   23.0583   70.6791    1.4307 C   0  0  1  0  0  0  0  0  0  0  0  0
   24.0528   69.8492    0.6164 C   0  0  1  0  0  0  0  0  0  0  0  0
   21.6249   70.3790    0.9961 C   0  0  2  0  0  0  0  0  0  0  0  0
   23.7699   69.9646   -0.8875 C   0  0  1  0  0  0  0  0  0  0  0  0
   21.4634   70.4741   -0.5221 C   0  0  1  0  0  0  0  0  0  0  0  0
   24.1182   70.5226    3.0926 H   0  0  0  0  0  0  0  0  0  0  0  0
   25.5310   70.2411    1.8645 H   0  0  0  0  0  0  0  0  0  0  0  0
   20.8481   71.2126    2.6049 H   0  0  0  0  0  0  0  0  0  0  0  0
   24.6265   69.4507   -3.0580 O   0  0  0  0  0  0  0  0  0  0  0  0
   24.6482   69.0230   -1.7086 C   0  0  0  0  0  0  0  0  0  0  0  0
   25.1815   68.8608   -3.5925 H   0  0  0  0  0  0  0  0  0  0  0  0
 25 28  1  0
 25 24  1  0
 25 26  1  6
 25 27  2  0
  1  4  1  0
  1 24  1  0
  1  2  1  6
  1  3  2  0
  6 11  1  0
  6 12  1  0
 29 36  1  0
 29 37  1  0
  9  7  1  6
  7 13  1  0
 10  8  1  6
  8 14  1  0
 37 28  1  6
  4  5  1  0
 33 30  1  1
 30 38  1  0
 34 31  1  6
 31 39  1  0
 35 32  1  1
 32 40  1  0
 41 42  1  0
 41 43  1  0
 15 19  2  0
 16 22  2  0
 12 17  1  1
 17 19  1  0
 17 20  1  0
 18 19  1  0
 18 22  1  0
 18 23  1  0
  9 10  1  0
  9 11  1  0
 10 12  1  0
 11  5  1  1
 33 34  1  0
 33 35  1  0
 34 36  1  0
 35 37  1  0
 36 42  1  6
 20 21  2  0
 21 22  1  0
M  CHG  2   2  -1  26  -1
M  END
>  <COMPND>  (196) 
    8629 

>  <AUTHOR>  (196) 
    GENERATED BY OPEN BABEL 3.1.1

>  <MASTER>  (196) 
        0    0    0    0    0    0    0    0   58    0   58    0

>  <minimizedAffinity>  (196) 
-7.88019

>  <CNNscore>  (196) 
0.3169374168

>  <CNNaffinity>  (196) 
3.9773094654

>  <CNN_VS>  (196) 
1.2605581284

>  <CNNaffinity_variance>  (196) 
0.4185543656

$$$$
197
     RDKit          3D

 43 45  0  0  0  0  0  0  0  0999 V2000
   22.2616   73.0942   -4.2991 P   0  0  2  0  0  0  0  0  0  0  0  0
   23.8768   73.1412   -4.3798 O   0  0  0  0  0  0  0  0  0  0  0  0
   21.6076   74.3922   -3.9265 O   0  0  0  0  0  0  0  0  0  0  0  0
   21.9581   71.8464   -3.3147 O   0  0  0  0  0  0  0  0  0  0  0  0
   22.3710   71.9362   -1.9622 C   0  0  0  0  0  0  0  0  0  0  0  0
   21.8427   69.6039   -1.7276 O   0  0  0  0  0  0  0  0  0  0  0  0
   21.0311   70.2626    1.0828 O   0  0  0  0  0  0  0  0  0  0  0  0
   23.5100   69.1769    1.4189 O   0  0  0  0  0  0  0  0  0  0  0  0
   22.0930   70.8051    0.2997 C   0  0  1  0  0  0  0  0  0  0  0  0
   23.2259   69.8064    0.1861 C   0  0  2  0  0  0  0  0  0  0  0  0
   21.6101   70.9036   -1.1419 C   0  0  1  0  0  0  0  0  0  0  0  0
   22.6894   68.8384   -0.8547 C   0  0  2  0  0  0  0  0  0  0  0  0
   21.3158   70.1905    2.0078 H   0  0  0  0  0  0  0  0  0  0  0  0
   23.8482   69.8339    2.0472 H   0  0  0  0  0  0  0  0  0  0  0  0
   23.3728   66.0997   -0.7537 O   0  0  0  0  0  0  0  0  0  0  0  0
   26.7197   66.6317   -3.8772 O   0  0  0  0  0  0  0  0  0  0  0  0
   23.7350   68.2342   -1.6312 N   0  0  0  0  0  0  0  0  0  0  0  0
   25.0386   66.3668   -2.3092 N   0  0  0  0  0  0  0  0  0  0  0  0
   23.9982   66.8502   -1.5055 C   0  0  0  0  0  0  0  0  0  0  0  0
   24.4865   69.0117   -2.5056 C   0  0  0  0  0  0  0  0  0  0  0  0
   25.4761   68.5356   -3.2641 C   0  0  0  0  0  0  0  0  0  0  0  0
   25.8152   67.0997   -3.1927 C   0  0  0  0  0  0  0  0  0  0  0  0
   25.2402   65.4055   -2.2381 H   0  0  0  0  0  0  0  0  0  0  0  0
   21.8417   72.5218   -5.7513 O   0  0  0  0  0  0  0  0  0  0  0  0
   20.7391   73.0347   -6.8162 P   0  0  2  0  0  0  0  0  0  0  0  0
   19.4261   73.2781   -5.9028 O   0  0  0  0  0  0  0  0  0  0  0  0
   20.5236   72.1049   -7.9751 O   0  0  0  0  0  0  0  0  0  0  0  0
   21.2285   74.5162   -7.2294 O   0  0  0  0  0  0  0  0  0  0  0  0
   23.4247   74.5285   -8.1200 O   0  0  0  0  0  0  0  0  0  0  0  0
   22.8774   78.5952   -7.6577 O   0  0  0  0  0  0  0  0  0  0  0  0
   22.8580   77.4523  -10.2924 O   0  0  0  0  0  0  0  0  0  0  0  0
   21.8463   76.7639   -5.6670 O   0  0  0  0  0  0  0  0  0  0  0  0
   22.4795   77.2506   -7.9393 C   0  0  1  0  0  0  0  0  0  0  0  0
   23.2950   76.7492   -9.1327 C   0  0  1  0  0  0  0  0  0  0  0  0
   22.7400   76.3847   -6.7082 C   0  0  2  0  0  0  0  0  0  0  0  0
   23.1200   75.2370   -9.3271 C   0  0  1  0  0  0  0  0  0  0  0  0
   22.5866   74.8955   -7.0224 C   0  0  1  0  0  0  0  0  0  0  0  0
   22.7141   79.1503   -8.4353 H   0  0  0  0  0  0  0  0  0  0  0  0
   22.9734   78.4060  -10.1564 H   0  0  0  0  0  0  0  0  0  0  0  0
   21.9534   77.7086   -5.4772 H   0  0  0  0  0  0  0  0  0  0  0  0
   23.4487   74.9269  -11.6733 O   0  0  0  0  0  0  0  0  0  0  0  0
   24.0450   74.6889  -10.4116 C   0  0  0  0  0  0  0  0  0  0  0  0
   24.0265   74.5836  -12.3733 H   0  0  0  0  0  0  0  0  0  0  0  0
 25 28  1  0
 25 24  1  0
 25 26  1  1
 25 27  2  0
  1  4  1  0
  1 24  1  0
  1  2  1  6
  1  3  2  0
  6 11  1  0
  6 12  1  0
 29 36  1  0
 29 37  1  0
  9  7  1  1
  7 13  1  0
 10  8  1  1
  8 14  1  0
 37 28  1  6
  4  5  1  0
 33 30  1  1
 30 38  1  0
 34 31  1  6
 31 39  1  0
 35 32  1  1
 32 40  1  0
 41 42  1  0
 41 43  1  0
 15 19  2  0
 16 22  2  0
 12 17  1  6
 17 19  1  0
 17 20  1  0
 18 19  1  0
 18 22  1  0
 18 23  1  0
  9 10  1  0
  9 11  1  0
 10 12  1  0
 11  5  1  6
 33 34  1  0
 33 35  1  0
 34 36  1  0
 35 37  1  0
 36 42  1  6
 20 21  2  0
 21 22  1  0
M  CHG  2   2  -1  26  -1
M  END
>  <COMPND>  (197) 
    8629 

>  <AUTHOR>  (197) 
    GENERATED BY OPEN BABEL 3.1.1

>  <MASTER>  (197) 
        0    0    0    0    0    0    0    0   58    0   58    0

>  <minimizedAffinity>  (197) 
-7.35844

>  <CNNscore>  (197) 
0.3050082326

>  <CNNaffinity>  (197) 
4.1909780502

>  <CNN_VS>  (197) 
1.2782827616

>  <CNNaffinity_variance>  (197) 
0.1470792592

$$$$
198
     RDKit          3D

 43 45  0  0  0  0  0  0  0  0999 V2000
   17.6127   69.2574   -3.5676 P   0  0  2  0  0  0  0  0  0  0  0  0
   17.6480   67.6524   -3.7676 O   0  0  0  0  0  0  0  0  0  0  0  0
   16.4732   69.7674   -2.7353 O   0  0  0  0  0  0  0  0  0  0  0  0
   17.6968   69.8386   -5.0753 O   0  0  0  0  0  0  0  0  0  0  0  0
   16.5427   69.7642   -5.8940 C   0  0  0  0  0  0  0  0  0  0  0  0
   15.8636   71.3573   -7.5597 O   0  0  0  0  0  0  0  0  0  0  0  0
   18.6440   71.1150   -8.6559 O   0  0  0  0  0  0  0  0  0  0  0  0
   18.7602   73.4496   -7.2515 O   0  0  0  0  0  0  0  0  0  0  0  0
   18.2031   71.0835   -7.2995 C   0  0  1  0  0  0  0  0  0  0  0  0
   17.8245   72.4751   -6.8372 C   0  0  2  0  0  0  0  0  0  0  0  0
   16.8633   70.3592   -7.2583 C   0  0  1  0  0  0  0  0  0  0  0  0
   16.4617   72.6616   -7.4823 C   0  0  2  0  0  0  0  0  0  0  0  0
   19.4984   71.5725   -8.7074 H   0  0  0  0  0  0  0  0  0  0  0  0
   19.6106   73.2882   -6.8139 H   0  0  0  0  0  0  0  0  0  0  0  0
   14.4694   74.3295   -8.5898 O   0  0  0  0  0  0  0  0  0  0  0  0
   13.2390   75.9219   -4.4436 O   0  0  0  0  0  0  0  0  0  0  0  0
   15.6059   73.5222   -6.7153 N   0  0  0  0  0  0  0  0  0  0  0  0
   13.8583   75.1209   -6.5244 N   0  0  0  0  0  0  0  0  0  0  0  0
   14.6382   74.3203   -7.3687 C   0  0  0  0  0  0  0  0  0  0  0  0
   15.7305   73.5686   -5.3310 C   0  0  0  0  0  0  0  0  0  0  0  0
   14.9799   74.3384   -4.5403 C   0  0  0  0  0  0  0  0  0  0  0  0
   13.9451   75.2028   -5.1437 C   0  0  0  0  0  0  0  0  0  0  0  0
   13.1777   75.6857   -6.9575 H   0  0  0  0  0  0  0  0  0  0  0  0
   19.0796   69.5817   -2.9709 O   0  0  0  0  0  0  0  0  0  0  0  0
   19.9031   70.9693   -2.8737 P   0  0  2  0  0  0  0  0  0  0  0  0
   19.1140   71.7893   -1.7237 O   0  0  0  0  0  0  0  0  0  0  0  0
   20.0319   71.7011   -4.1782 O   0  0  0  0  0  0  0  0  0  0  0  0
   21.3090   70.5631   -2.1929 O   0  0  0  0  0  0  0  0  0  0  0  0
   22.4265   68.4738   -2.1462 O   0  0  0  0  0  0  0  0  0  0  0  0
   23.4187   69.8373    1.6231 O   0  0  0  0  0  0  0  0  0  0  0  0
   25.4230   69.7674   -0.4326 O   0  0  0  0  0  0  0  0  0  0  0  0
   20.7768   70.3433    0.5536 O   0  0  0  0  0  0  0  0  0  0  0  0
   23.1320   69.9588    0.2272 C   0  0  1  0  0  0  0  0  0  0  0  0
   24.1558   69.1260   -0.5469 C   0  0  1  0  0  0  0  0  0  0  0  0
   21.7157   69.4514   -0.0374 C   0  0  2  0  0  0  0  0  0  0  0  0
   23.7570   68.9897   -2.0225 C   0  0  1  0  0  0  0  0  0  0  0  0
   21.4386   69.3056   -1.5348 C   0  0  1  0  0  0  0  0  0  0  0  0
   24.3165   70.1582    1.7980 H   0  0  0  0  0  0  0  0  0  0  0  0
   25.6629   69.8477    0.5040 H   0  0  0  0  0  0  0  0  0  0  0  0
   20.9627   70.4268    1.5014 H   0  0  0  0  0  0  0  0  0  0  0  0
   25.7712   68.7740   -3.2896 O   0  0  0  0  0  0  0  0  0  0  0  0
   24.6780   68.0341   -2.7779 C   0  0  0  0  0  0  0  0  0  0  0  0
   26.3661   68.1786   -3.7726 H   0  0  0  0  0  0  0  0  0  0  0  0
 25 28  1  0
 25 24  1  0
 25 26  1  1
 25 27  2  0
  1  4  1  0
  1 24  1  0
  1  2  1  6
  1  3  2  0
  6 11  1  0
  6 12  1  0
 29 36  1  0
 29 37  1  0
  9  7  1  6
  7 13  1  0
 10  8  1  6
  8 14  1  0
 37 28  1  6
  4  5  1  0
 33 30  1  1
 30 38  1  0
 34 31  1  6
 31 39  1  0
 35 32  1  6
 32 40  1  0
 41 42  1  0
 41 43  1  0
 15 19  2  0
 16 22  2  0
 12 17  1  1
 17 19  1  0
 17 20  1  0
 18 19  1  0
 18 22  1  0
 18 23  1  0
  9 10  1  0
  9 11  1  0
 10 12  1  0
 11  5  1  1
 33 34  1  0
 33 35  1  0
 34 36  1  0
 35 37  1  0
 36 42  1  6
 20 21  2  0
 21 22  1  0
M  CHG  2   2  -1  26  -1
M  END
>  <COMPND>  (198) 
    8629 

>  <AUTHOR>  (198) 
    GENERATED BY OPEN BABEL 3.1.1

>  <MASTER>  (198) 
        0    0    0    0    0    0    0    0   58    0   58    0

>  <minimizedAffinity>  (198) 
-7.26981

>  <CNNscore>  (198) 
0.2844459713

>  <CNNaffinity>  (198) 
3.9868133068

>  <CNN_VS>  (198) 
1.1340329647

>  <CNNaffinity_variance>  (198) 
0.0634703487

$$$$
199
     RDKit          3D

 43 45  0  0  0  0  0  0  0  0999 V2000
   22.2010   73.0596   -4.2635 P   0  0  2  0  0  0  0  0  0  0  0  0
   23.8079   72.9136   -4.3820 O   0  0  0  0  0  0  0  0  0  0  0  0
   21.7135   74.4356   -3.9166 O   0  0  0  0  0  0  0  0  0  0  0  0
   21.7791   71.8844   -3.2345 O   0  0  0  0  0  0  0  0  0  0  0  0
   22.3252   71.9022   -1.9271 C   0  0  0  0  0  0  0  0  0  0  0  0
   21.8264   69.5688   -1.6446 O   0  0  0  0  0  0  0  0  0  0  0  0
   21.0850   70.2609    1.1771 O   0  0  0  0  0  0  0  0  0  0  0  0
   23.5826   69.2038    1.4611 O   0  0  0  0  0  0  0  0  0  0  0  0
   22.1199   70.8019    0.3576 C   0  0  1  0  0  0  0  0  0  0  0  0
   23.2590   69.8124    0.2276 C   0  0  2  0  0  0  0  0  0  0  0  0
   21.5970   70.8747   -1.0716 C   0  0  1  0  0  0  0  0  0  0  0  0
   22.7040   68.8242   -0.7841 C   0  0  2  0  0  0  0  0  0  0  0  0
   21.3954   70.2051    2.0950 H   0  0  0  0  0  0  0  0  0  0  0  0
   23.9313   69.8730    2.0704 H   0  0  0  0  0  0  0  0  0  0  0  0
   23.3363   66.0716   -0.7496 O   0  0  0  0  0  0  0  0  0  0  0  0
   26.6764   66.6125   -3.8788 O   0  0  0  0  0  0  0  0  0  0  0  0
   23.7340   68.2185   -1.5800 N   0  0  0  0  0  0  0  0  0  0  0  0
   24.9988   66.3431   -2.3079 N   0  0  0  0  0  0  0  0  0  0  0  0
   23.9719   66.8274   -1.4875 C   0  0  0  0  0  0  0  0  0  0  0  0
   24.4955   69.0017   -2.4407 C   0  0  0  0  0  0  0  0  0  0  0  0
   25.4720   68.5248   -3.2154 C   0  0  0  0  0  0  0  0  0  0  0  0
   25.7844   67.0815   -3.1787 C   0  0  0  0  0  0  0  0  0  0  0  0
   25.1826   65.3769   -2.2599 H   0  0  0  0  0  0  0  0  0  0  0  0
   21.6792   72.5002   -5.6876 O   0  0  0  0  0  0  0  0  0  0  0  0
   20.1898   72.1509   -6.2096 P   0  0  2  0  0  0  0  0  0  0  0  0
   20.1423   70.5351   -6.1420 O   0  0  0  0  0  0  0  0  0  0  0  0
   19.8599   72.7242   -7.5573 O   0  0  0  0  0  0  0  0  0  0  0  0
   19.2150   72.6375   -5.0189 O   0  0  0  0  0  0  0  0  0  0  0  0
   17.1095   72.2245   -6.0255 O   0  0  0  0  0  0  0  0  0  0  0  0
   15.8478   73.1016   -2.1928 O   0  0  0  0  0  0  0  0  0  0  0  0
   15.7423   70.3906   -3.1348 O   0  0  0  0  0  0  0  0  0  0  0  0
   18.0458   74.5779   -3.3627 O   0  0  0  0  0  0  0  0  0  0  0  0
   16.7301   72.5684   -3.1841 C   0  0  1  0  0  0  0  0  0  0  0  0
   15.9680   71.5112   -3.9855 C   0  0  1  0  0  0  0  0  0  0  0  0
   17.1983   73.7005   -4.0964 C   0  0  2  0  0  0  0  0  0  0  0  0
   16.7564   71.0858   -5.2316 C   0  0  1  0  0  0  0  0  0  0  0  0
   17.9286   73.1665   -5.3300 C   0  0  1  0  0  0  0  0  0  0  0  0
   15.5472   72.3880   -1.6098 H   0  0  0  0  0  0  0  0  0  0  0  0
   15.2441   70.6729   -2.3516 H   0  0  0  0  0  0  0  0  0  0  0  0
   17.5719   74.9094   -2.5846 H   0  0  0  0  0  0  0  0  0  0  0  0
   15.6927   68.9542   -5.4151 O   0  0  0  0  0  0  0  0  0  0  0  0
   15.9480   70.1504   -6.1280 C   0  0  0  0  0  0  0  0  0  0  0  0
   15.1786   68.3493   -5.9733 H   0  0  0  0  0  0  0  0  0  0  0  0
 25 28  1  0
 25 24  1  0
 25 26  1  6
 25 27  2  0
  1  4  1  0
  1 24  1  0
  1  2  1  6
  1  3  2  0
  6 11  1  0
  6 12  1  0
 29 36  1  0
 29 37  1  0
  9  7  1  1
  7 13  1  0
 10  8  1  1
  8 14  1  0
 37 28  1  1
  4  5  1  0
 33 30  1  1
 30 38  1  0
 34 31  1  1
 31 39  1  0
 35 32  1  1
 32 40  1  0
 41 42  1  0
 41 43  1  0
 15 19  2  0
 16 22  2  0
 12 17  1  6
 17 19  1  0
 17 20  1  0
 18 19  1  0
 18 22  1  0
 18 23  1  0
  9 10  1  0
  9 11  1  0
 10 12  1  0
 11  5  1  6
 33 34  1  0
 33 35  1  0
 34 36  1  0
 35 37  1  0
 36 42  1  6
 20 21  2  0
 21 22  1  0
M  CHG  2   2  -1  26  -1
M  END
>  <COMPND>  (199) 
    8629 

>  <AUTHOR>  (199) 
    GENERATED BY OPEN BABEL 3.1.1

>  <MASTER>  (199) 
        0    0    0    0    0    0    0    0   58    0   58    0

>  <minimizedAffinity>  (199) 
-8.00879

>  <CNNscore>  (199) 
0.2841157019

>  <CNNaffinity>  (199) 
4.0119504929

>  <CNN_VS>  (199) 
1.1398581266

>  <CNNaffinity_variance>  (199) 
0.6377781630

$$$$
200
     RDKit          3D

 43 45  0  0  0  0  0  0  0  0999 V2000
   22.3613   73.4983   -5.7906 P   0  0  2  0  0  0  0  0  0  0  0  0
   22.7191   72.8370   -7.2231 O   0  0  0  0  0  0  0  0  0  0  0  0
   22.5904   74.9785   -5.7009 O   0  0  0  0  0  0  0  0  0  0  0  0
   23.1829   72.5945   -4.7295 O   0  0  0  0  0  0  0  0  0  0  0  0
   23.4527   73.1345   -3.4476 C   0  0  0  0  0  0  0  0  0  0  0  0
   21.7917   71.6366   -2.5696 O   0  0  0  0  0  0  0  0  0  0  0  0
   21.1752   73.7885   -0.5746 O   0  0  0  0  0  0  0  0  0  0  0  0
   22.7132   72.0614    0.8704 O   0  0  0  0  0  0  0  0  0  0  0  0
   22.4319   73.4094   -1.1333 C   0  0  1  0  0  0  0  0  0  0  0  0
   22.9034   72.1032   -0.5292 C   0  0  2  0  0  0  0  0  0  0  0  0
   22.2007   73.0217   -2.5885 C   0  0  1  0  0  0  0  0  0  0  0  0
   22.0467   71.0878   -1.2662 C   0  0  2  0  0  0  0  0  0  0  0  0
   21.2975   74.0408    0.3546 H   0  0  0  0  0  0  0  0  0  0  0  0
   23.2796   72.7252    1.2938 H   0  0  0  0  0  0  0  0  0  0  0  0
   21.4427   68.7878    0.2579 O   0  0  0  0  0  0  0  0  0  0  0  0
   24.6381   66.2810   -1.9206 O   0  0  0  0  0  0  0  0  0  0  0  0
   22.7050   69.8205   -1.4145 N   0  0  0  0  0  0  0  0  0  0  0  0
   23.0341   67.5414   -0.8282 N   0  0  0  0  0  0  0  0  0  0  0  0
   22.3272   68.7287   -0.5987 C   0  0  0  0  0  0  0  0  0  0  0  0
   23.7129   69.6697   -2.3608 C   0  0  0  0  0  0  0  0  0  0  0  0
   24.3782   68.5311   -2.5663 C   0  0  0  0  0  0  0  0  0  0  0  0
   24.0445   67.3422   -1.7556 C   0  0  0  0  0  0  0  0  0  0  0  0
   22.7883   66.7674   -0.2712 H   0  0  0  0  0  0  0  0  0  0  0  0
   20.8302   73.0388   -5.5505 O   0  0  0  0  0  0  0  0  0  0  0  0
   19.6549   72.6730   -6.5983 P   0  0  2  0  0  0  0  0  0  0  0  0
   20.2794   71.4413   -7.4412 O   0  0  0  0  0  0  0  0  0  0  0  0
   19.1978   73.8299   -7.4389 O   0  0  0  0  0  0  0  0  0  0  0  0
   18.4967   72.0033   -5.6955 O   0  0  0  0  0  0  0  0  0  0  0  0
   16.9755   70.2425   -6.1450 O   0  0  0  0  0  0  0  0  0  0  0  0
   14.4783   72.7423   -4.0082 O   0  0  0  0  0  0  0  0  0  0  0  0
   15.4261   70.3149   -2.8009 O   0  0  0  0  0  0  0  0  0  0  0  0
   16.3999   73.8610   -5.8617 O   0  0  0  0  0  0  0  0  0  0  0  0
   15.7205   72.1182   -4.3444 C   0  0  1  0  0  0  0  0  0  0  0  0
   15.5542   70.6052   -4.1900 C   0  0  1  0  0  0  0  0  0  0  0  0
   16.0847   72.4750   -5.7843 C   0  0  2  0  0  0  0  0  0  0  0  0
   16.7522   69.8527   -4.7849 C   0  0  1  0  0  0  0  0  0  0  0  0
   17.2571   71.6353   -6.2949 C   0  0  1  0  0  0  0  0  0  0  0  0
   14.2415   72.5202   -3.0949 H   0  0  0  0  0  0  0  0  0  0  0  0
   14.6664   70.7966   -2.4374 H   0  0  0  0  0  0  0  0  0  0  0  0
   15.6498   74.3817   -5.5360 H   0  0  0  0  0  0  0  0  0  0  0  0
   15.1433   68.0863   -4.8056 O   0  0  0  0  0  0  0  0  0  0  0  0
   16.5358   68.3410   -4.7838 C   0  0  0  0  0  0  0  0  0  0  0  0
   14.9905   67.1280   -4.8055 H   0  0  0  0  0  0  0  0  0  0  0  0
 25 28  1  0
 25 24  1  0
 25 26  1  6
 25 27  2  0
  1  4  1  0
  1 24  1  0
  1  2  1  6
  1  3  2  0
  6 11  1  0
  6 12  1  0
 29 36  1  0
 29 37  1  0
  9  7  1  1
  7 13  1  0
 10  8  1  1
  8 14  1  0
 37 28  1  1
  4  5  1  0
 33 30  1  6
 30 38  1  0
 34 31  1  1
 31 39  1  0
 35 32  1  1
 32 40  1  0
 41 42  1  0
 41 43  1  0
 15 19  2  0
 16 22  2  0
 12 17  1  6
 17 19  1  0
 17 20  1  0
 18 19  1  0
 18 22  1  0
 18 23  1  0
  9 10  1  0
  9 11  1  0
 10 12  1  0
 11  5  1  6
 33 34  1  0
 33 35  1  0
 34 36  1  0
 35 37  1  0
 36 42  1  6
 20 21  2  0
 21 22  1  0
M  CHG  2   2  -1  26  -1
M  END
