1
     RDKit          3D

 43 45  0  0  0  0  0  0  0  0999 V2000
   23.0454   71.5477   -2.7335 P   0  0  2  0  0  0  0  0  0  0  0  0
   23.2642   73.1186   -2.4121 O   0  0  0  0  0  0  0  0  0  0  0  0
   24.2720   70.8193   -3.1988 O   0  0  0  0  0  0  0  0  0  0  0  0
   21.7892   71.5311   -3.7531 O   0  0  0  0  0  0  0  0  0  0  0  0
   20.9214   70.4125   -3.7388 C   0  0  0  0  0  0  0  0  0  0  0  0
   19.0098   71.5544   -4.6441 O   0  0  0  0  0  0  0  0  0  0  0  0
   17.4349   70.2808   -2.4330 O   0  0  0  0  0  0  0  0  0  0  0  0
   16.8300   68.7087   -4.5775 O   0  0  0  0  0  0  0  0  0  0  0  0
   18.5278   69.7522   -3.1844 C   0  0  1  0  0  0  0  0  0  0  0  0
   18.0730   69.3792   -4.5795 C   0  0  2  0  0  0  0  0  0  0  0  0
   19.5018   70.8896   -3.4604 C   0  0  1  0  0  0  0  0  0  0  0  0
   18.0052   70.7346   -5.2621 C   0  0  2  0  0  0  0  0  0  0  0  0
   16.7991   69.5723   -2.2446 H   0  0  0  0  0  0  0  0  0  0  0  0
   16.9257   67.8516   -4.1322 H   0  0  0  0  0  0  0  0  0  0  0  0
   16.0683   70.0958   -7.2158 O   0  0  0  0  0  0  0  0  0  0  0  0
   19.1371   70.4492  -10.6366 O   0  0  0  0  0  0  0  0  0  0  0  0
   18.2708   70.6528   -6.6706 N   0  0  0  0  0  0  0  0  0  0  0  0
   17.5988   70.2714   -8.9176 N   0  0  0  0  0  0  0  0  0  0  0  0
   17.2272   70.3241   -7.5677 C   0  0  0  0  0  0  0  0  0  0  0  0
   19.5517   70.8981   -7.1502 C   0  0  0  0  0  0  0  0  0  0  0  0
   19.8906   70.8442   -8.4398 C   0  0  0  0  0  0  0  0  0  0  0  0
   18.8592   70.5067   -9.4426 C   0  0  0  0  0  0  0  0  0  0  0  0
   16.8896   70.0425   -9.5610 H   0  0  0  0  0  0  0  0  0  0  0  0
   22.4065   70.9820   -1.3606 O   0  0  0  0  0  0  0  0  0  0  0  0
   21.5126   71.7097   -0.2270 P   0  0  2  0  0  0  0  0  0  0  0  0
   20.7838   70.4723    0.5201 O   0  0  0  0  0  0  0  0  0  0  0  0
   20.5717   72.7514   -0.7594 O   0  0  0  0  0  0  0  0  0  0  0  0
   22.5829   72.2605    0.8471 O   0  0  0  0  0  0  0  0  0  0  0  0
   24.2848   71.3771    2.2372 O   0  0  0  0  0  0  0  0  0  0  0  0
   22.3092   73.9113    4.8339 O   0  0  0  0  0  0  0  0  0  0  0  0
   20.8068   72.2183    2.9871 O   0  0  0  0  0  0  0  0  0  0  0  0
   24.8783   74.6832    3.7137 O   0  0  0  0  0  0  0  0  0  0  0  0
   22.8035   73.4667    3.5706 C   0  0  2  0  0  0  0  0  0  0  0  0
   22.2025   72.1009    3.2378 C   0  0  2  0  0  0  0  0  0  0  0  0
   24.3276   73.3682    3.6672 C   0  0  1  0  0  0  0  0  0  0  0  0
   22.8794   71.4897    2.0102 C   0  0  1  0  0  0  0  0  0  0  0  0
   24.9159   72.6353    2.4650 C   0  0  1  0  0  0  0  0  0  0  0  0
   21.3423   73.9814    4.7965 H   0  0  0  0  0  0  0  0  0  0  0  0
   20.3710   72.6057    3.7619 H   0  0  0  0  0  0  0  0  0  0  0  0
   24.5119   75.1605    4.4744 H   0  0  0  0  0  0  0  0  0  0  0  0
   26.5525   70.9566    2.3952 O   0  0  0  0  0  0  0  0  0  0  0  0
   27.1975   73.0070    3.1559 O   0  0  0  0  0  0  0  0  0  0  0  0
   26.3385   72.2559    2.7191 C   0  0  0  0  0  0  0  0  0  0  0  0
  1  4  1  0
  1 24  1  0
  1  2  1  1
  1  3  2  0
 25 28  1  0
 25 24  1  0
 25 26  1  1
 25 27  2  0
  6 11  1  0
  6 12  1  0
 29 36  1  0
 29 37  1  0
  9  7  1  1
  7 13  1  0
 10  8  1  1
  8 14  1  0
  4  5  1  0
 36 28  1  6
 33 30  1  1
 30 38  1  0
 34 31  1  6
 31 39  1  0
 35 32  1  6
 32 40  1  0
 41 43  1  0
 15 19  2  0
 42 43  2  0
 16 22  2  0
 12 17  1  6
 17 19  1  0
 17 20  1  0
 18 19  1  0
 18 22  1  0
 18 23  1  0
  9 10  1  0
  9 11  1  0
 10 12  1  0
 11  5  1  6
 33 34  1  0
 33 35  1  0
 34 36  1  0
 35 37  1  0
 37 43  1  1
 20 21  2  0
 21 22  1  0
M  CHG  3   2  -1  26  -1  41  -1
M  END
>  <COMPND>  (1) 
    udp_gluA.pdb 

>  <AUTHOR>  (1) 
    GENERATED BY OPEN BABEL 3.1.1

>  <MASTER>  (1) 
        0    0    0    0    0    0    0    0   56    0   56    0

>  <minimizedAffinity>  (1) 
-8.25035

>  <CNNscore>  (1) 
0.9267745614

>  <CNNaffinity>  (1) 
4.8428826332

>  <CNN_VS>  (1) 
4.4882602692

>  <CNNaffinity_variance>  (1) 
0.0449275486

$$$$
2
     RDKit          3D

 43 45  0  0  0  0  0  0  0  0999 V2000
   20.5040   71.2335   -1.4120 P   0  0  2  0  0  0  0  0  0  0  0  0
   21.0740   70.5130   -0.0798 O   0  0  0  0  0  0  0  0  0  0  0  0
   20.0055   72.6345   -1.2106 O   0  0  0  0  0  0  0  0  0  0  0  0
   19.4220   70.1791   -1.9912 O   0  0  0  0  0  0  0  0  0  0  0  0
   19.1040   70.2254   -3.3701 C   0  0  0  0  0  0  0  0  0  0  0  0
   17.4830   71.3225   -4.7653 O   0  0  0  0  0  0  0  0  0  0  0  0
   15.4073   69.7809   -3.2466 O   0  0  0  0  0  0  0  0  0  0  0  0
   15.6321   68.3569   -5.5612 O   0  0  0  0  0  0  0  0  0  0  0  0
   16.7195   69.3814   -3.6428 C   0  0  1  0  0  0  0  0  0  0  0  0
   16.7544   69.0976   -5.1296 C   0  0  2  0  0  0  0  0  0  0  0  0
   17.6342   70.5931   -3.5282 C   0  0  1  0  0  0  0  0  0  0  0  0
   16.7919   70.4981   -5.7172 C   0  0  2  0  0  0  0  0  0  0  0  0
   14.8047   69.0231   -3.3115 H   0  0  0  0  0  0  0  0  0  0  0  0
   15.6542   67.4734   -5.1601 H   0  0  0  0  0  0  0  0  0  0  0  0
   15.5290   70.5682   -8.2424 O   0  0  0  0  0  0  0  0  0  0  0  0
   19.5668   70.6877  -10.4618 O   0  0  0  0  0  0  0  0  0  0  0  0
   17.4891   70.5478   -6.9711 N   0  0  0  0  0  0  0  0  0  0  0  0
   17.5413   70.6266   -9.3454 N   0  0  0  0  0  0  0  0  0  0  0  0
   16.7600   70.5799   -8.1833 C   0  0  0  0  0  0  0  0  0  0  0  0
   18.8784   70.5660   -6.9919 C   0  0  0  0  0  0  0  0  0  0  0  0
   19.6092   70.6108   -8.1075 C   0  0  0  0  0  0  0  0  0  0  0  0
   18.9248   70.6457   -9.4166 C   0  0  0  0  0  0  0  0  0  0  0  0
   17.0560   70.6476  -10.2018 H   0  0  0  0  0  0  0  0  0  0  0  0
   21.7344   71.0996   -2.4517 O   0  0  0  0  0  0  0  0  0  0  0  0
   23.0434   72.0225   -2.6718 P   0  0  2  0  0  0  0  0  0  0  0  0
   24.1522   70.9707   -3.2052 O   0  0  0  0  0  0  0  0  0  0  0  0
   23.4613   72.7983   -1.4562 O   0  0  0  0  0  0  0  0  0  0  0  0
   22.6921   72.9311   -3.9577 O   0  0  0  0  0  0  0  0  0  0  0  0
   20.3954   73.2284   -4.4537 O   0  0  0  0  0  0  0  0  0  0  0  0
   22.1883   74.6258   -7.9035 O   0  0  0  0  0  0  0  0  0  0  0  0
   23.1731   72.2044   -6.5991 O   0  0  0  0  0  0  0  0  0  0  0  0
   21.0845   76.4969   -5.9718 O   0  0  0  0  0  0  0  0  0  0  0  0
   22.0799   74.3682   -6.5036 C   0  0  2  0  0  0  0  0  0  0  0  0
   21.9557   72.8626   -6.2683 C   0  0  2  0  0  0  0  0  0  0  0  0
   20.8358   75.0924   -5.9844 C   0  0  1  0  0  0  0  0  0  0  0  0
   21.6083   72.5637   -4.8093 C   0  0  1  0  0  0  0  0  0  0  0  0
   20.4822   74.6470   -4.5684 C   0  0  1  0  0  0  0  0  0  0  0  0
   22.9721   74.1753   -8.2556 H   0  0  0  0  0  0  0  0  0  0  0  0
   23.3998   72.3900   -7.5235 H   0  0  0  0  0  0  0  0  0  0  0  0
   21.3109   76.7932   -6.8672 H   0  0  0  0  0  0  0  0  0  0  0  0
   18.4355   75.5347   -5.2927 O   0  0  0  0  0  0  0  0  0  0  0  0
   18.6421   75.0778   -3.0684 O   0  0  0  0  0  0  0  0  0  0  0  0
   19.1068   75.0982   -4.1983 C   0  0  0  0  0  0  0  0  0  0  0  0
  1  4  1  0
  1 24  1  0
  1  2  1  1
  1  3  2  0
 25 28  1  0
 25 24  1  0
 25 26  1  6
 25 27  2  0
  6 11  1  0
  6 12  1  0
 29 36  1  0
 29 37  1  0
  9  7  1  6
  7 13  1  0
 10  8  1  6
  8 14  1  0
  4  5  1  0
 36 28  1  1
 33 30  1  6
 30 38  1  0
 34 31  1  1
 31 39  1  0
 35 32  1  1
 32 40  1  0
 41 43  1  0
 15 19  2  0
 42 43  2  0
 16 22  2  0
 12 17  1  6
 17 19  1  0
 17 20  1  0
 18 19  1  0
 18 22  1  0
 18 23  1  0
  9 10  1  0
  9 11  1  0
 10 12  1  0
 11  5  1  6
 33 34  1  0
 33 35  1  0
 34 36  1  0
 35 37  1  0
 37 43  1  6
 20 21  2  0
 21 22  1  0
M  CHG  3   2  -1  26  -1  41  -1
M  END
>  <COMPND>  (2) 
    udp_gluA.pdb 

>  <AUTHOR>  (2) 
    GENERATED BY OPEN BABEL 3.1.1

>  <MASTER>  (2) 
        0    0    0    0    0    0    0    0   56    0   56    0

>  <minimizedAffinity>  (2) 
-7.95454

>  <CNNscore>  (2) 
0.8798897862

>  <CNNaffinity>  (2) 
4.6764459610

>  <CNN_VS>  (2) 
4.1147570610

>  <CNNaffinity_variance>  (2) 
0.8737630844

$$$$
3
     RDKit          3D

 43 45  0  0  0  0  0  0  0  0999 V2000
   21.8012   71.7013   -3.6704 P   0  0  2  0  0  0  0  0  0  0  0  0
   21.6677   71.7794   -5.2813 O   0  0  0  0  0  0  0  0  0  0  0  0
   22.7694   70.6728   -3.1640 O   0  0  0  0  0  0  0  0  0  0  0  0
   20.2740   71.5394   -3.1613 O   0  0  0  0  0  0  0  0  0  0  0  0
   19.5260   70.4245   -3.6110 C   0  0  0  0  0  0  0  0  0  0  0  0
   17.8088   71.4581   -4.9379 O   0  0  0  0  0  0  0  0  0  0  0  0
   15.8471   70.0548   -3.1564 O   0  0  0  0  0  0  0  0  0  0  0  0
   15.8617   68.4807   -5.3831 O   0  0  0  0  0  0  0  0  0  0  0  0
   17.1169   69.6072   -3.6316 C   0  0  1  0  0  0  0  0  0  0  0  0
   17.0250   69.2277   -5.0944 C   0  0  2  0  0  0  0  0  0  0  0  0
   18.0529   70.8074   -3.6720 C   0  0  1  0  0  0  0  0  0  0  0  0
   17.0310   70.5865   -5.7738 C   0  0  2  0  0  0  0  0  0  0  0  0
   15.2318   69.3051   -3.1219 H   0  0  0  0  0  0  0  0  0  0  0  0
   15.9059   67.6246   -4.9279 H   0  0  0  0  0  0  0  0  0  0  0  0
   15.5759   70.7492   -8.1888 O   0  0  0  0  0  0  0  0  0  0  0  0
   19.4050   70.4085  -10.7316 O   0  0  0  0  0  0  0  0  0  0  0  0
   17.6225   70.5429   -7.0811 N   0  0  0  0  0  0  0  0  0  0  0  0
   17.4843   70.5783   -9.4530 N   0  0  0  0  0  0  0  0  0  0  0  0
   16.8020   70.6323   -8.2304 C   0  0  0  0  0  0  0  0  0  0  0  0
   18.9997   70.4146   -7.2153 C   0  0  0  0  0  0  0  0  0  0  0  0
   19.6355   70.3647   -8.3875 C   0  0  0  0  0  0  0  0  0  0  0  0
   18.8515   70.4508   -9.6370 C   0  0  0  0  0  0  0  0  0  0  0  0
   16.9340   70.6367  -10.2673 H   0  0  0  0  0  0  0  0  0  0  0  0
   22.1609   73.2234   -3.2619 O   0  0  0  0  0  0  0  0  0  0  0  0
   23.5851   73.9736   -3.1111 P   0  0  2  0  0  0  0  0  0  0  0  0
   23.1967   75.5379   -3.2609 O   0  0  0  0  0  0  0  0  0  0  0  0
   24.6347   73.5019   -4.0753 O   0  0  0  0  0  0  0  0  0  0  0  0
   23.9772   73.7985   -1.5561 O   0  0  0  0  0  0  0  0  0  0  0  0
   22.9180   72.3946    0.0302 O   0  0  0  0  0  0  0  0  0  0  0  0
   24.4232   75.3964    2.4368 O   0  0  0  0  0  0  0  0  0  0  0  0
   23.1668   76.0390   -0.1211 O   0  0  0  0  0  0  0  0  0  0  0  0
   25.7278   72.7998    2.3547 O   0  0  0  0  0  0  0  0  0  0  0  0
   24.3976   74.5171    1.3124 C   0  0  2  0  0  0  0  0  0  0  0  0
   23.1245   74.7603    0.5015 C   0  0  2  0  0  0  0  0  0  0  0  0
   24.4290   73.0793    1.8356 C   0  0  1  0  0  0  0  0  0  0  0  0
   22.9481   73.6880   -0.5746 C   0  0  1  0  0  0  0  0  0  0  0  0
   24.1203   72.0765    0.7276 C   0  0  1  0  0  0  0  0  0  0  0  0
   24.4039   76.3162    2.1287 H   0  0  0  0  0  0  0  0  0  0  0  0
   23.2788   76.7242    0.5559 H   0  0  0  0  0  0  0  0  0  0  0  0
   25.9366   73.4312    3.0607 H   0  0  0  0  0  0  0  0  0  0  0  0
   22.5734   70.3309    0.9762 O   0  0  0  0  0  0  0  0  0  0  0  0
   24.6105   70.0642    1.9653 O   0  0  0  0  0  0  0  0  0  0  0  0
   23.8294   70.7271    1.2994 C   0  0  0  0  0  0  0  0  0  0  0  0
  1  4  1  0
  1 24  1  0
  1  2  1  6
  1  3  2  0
 25 28  1  0
 25 24  1  0
 25 26  1  6
 25 27  2  0
  6 11  1  0
  6 12  1  0
 29 36  1  0
 29 37  1  0
  9  7  1  6
  7 13  1  0
 10  8  1  1
  8 14  1  0
  4  5  1  0
 36 28  1  6
 33 30  1  1
 30 38  1  0
 34 31  1  6
 31 39  1  0
 35 32  1  6
 32 40  1  0
 41 43  1  0
 15 19  2  0
 42 43  2  0
 16 22  2  0
 12 17  1  6
 17 19  1  0
 17 20  1  0
 18 19  1  0
 18 22  1  0
 18 23  1  0
  9 10  1  0
  9 11  1  0
 10 12  1  0
 11  5  1  6
 33 34  1  0
 33 35  1  0
 34 36  1  0
 35 37  1  0
 37 43  1  1
 20 21  2  0
 21 22  1  0
M  CHG  3   2  -1  26  -1  41  -1
M  END
>  <COMPND>  (3) 
    udp_gluA.pdb 

>  <AUTHOR>  (3) 
    GENERATED BY OPEN BABEL 3.1.1

>  <MASTER>  (3) 
        0    0    0    0    0    0    0    0   56    0   56    0

>  <minimizedAffinity>  (3) 
-7.65415

>  <CNNscore>  (3) 
0.8781584501

>  <CNNaffinity>  (3) 
4.7551469803

>  <CNN_VS>  (3) 
4.1757726669

>  <CNNaffinity_variance>  (3) 
0.0329920277

$$$$
4
     RDKit          3D

 43 45  0  0  0  0  0  0  0  0999 V2000
   19.8715   72.9140   -2.2708 P   0  0  2  0  0  0  0  0  0  0  0  0
   19.3923   71.8723   -1.1288 O   0  0  0  0  0  0  0  0  0  0  0  0
   19.0926   74.1954   -2.3265 O   0  0  0  0  0  0  0  0  0  0  0  0
   19.8702   72.0315   -3.6269 O   0  0  0  0  0  0  0  0  0  0  0  0
   19.1948   70.7872   -3.6232 C   0  0  0  0  0  0  0  0  0  0  0  0
   17.4952   71.5822   -5.1255 O   0  0  0  0  0  0  0  0  0  0  0  0
   15.5377   70.1168   -3.3899 O   0  0  0  0  0  0  0  0  0  0  0  0
   15.8461   68.4212   -5.5032 O   0  0  0  0  0  0  0  0  0  0  0  0
   16.8718   69.7575   -3.7498 C   0  0  1  0  0  0  0  0  0  0  0  0
   16.9177   69.2852   -5.1875 C   0  0  2  0  0  0  0  0  0  0  0  0
   17.7026   71.0322   -3.8065 C   0  0  1  0  0  0  0  0  0  0  0  0
   16.8565   70.5964   -5.9523 C   0  0  2  0  0  0  0  0  0  0  0  0
   14.9878   69.3184   -3.3473 H   0  0  0  0  0  0  0  0  0  0  0  0
   15.9305   67.6010   -4.9911 H   0  0  0  0  0  0  0  0  0  0  0  0
   15.5788   70.6839   -8.4695 O   0  0  0  0  0  0  0  0  0  0  0  0
   19.5855   70.3282  -10.7197 O   0  0  0  0  0  0  0  0  0  0  0  0
   17.5417   70.5286   -7.2120 N   0  0  0  0  0  0  0  0  0  0  0  0
   17.5755   70.5056   -9.5878 N   0  0  0  0  0  0  0  0  0  0  0  0
   16.8059   70.5807   -8.4195 C   0  0  0  0  0  0  0  0  0  0  0  0
   18.9261   70.4136   -7.2431 C   0  0  0  0  0  0  0  0  0  0  0  0
   19.6459   70.3432   -8.3647 C   0  0  0  0  0  0  0  0  0  0  0  0
   18.9537   70.3900   -9.6693 C   0  0  0  0  0  0  0  0  0  0  0  0
   17.0852   70.5378  -10.4410 H   0  0  0  0  0  0  0  0  0  0  0  0
   21.4467   73.0966   -1.9575 O   0  0  0  0  0  0  0  0  0  0  0  0
   22.6512   72.0193   -1.9093 P   0  0  2  0  0  0  0  0  0  0  0  0
   23.7453   72.6420   -2.9269 O   0  0  0  0  0  0  0  0  0  0  0  0
   22.2339   70.6142   -2.2340 O   0  0  0  0  0  0  0  0  0  0  0  0
   23.3055   72.2022   -0.4461 O   0  0  0  0  0  0  0  0  0  0  0  0
   24.7608   71.1240    1.0799 O   0  0  0  0  0  0  0  0  0  0  0  0
   21.4270   71.7922    3.4266 O   0  0  0  0  0  0  0  0  0  0  0  0
   21.1369   70.8662    0.6711 O   0  0  0  0  0  0  0  0  0  0  0  0
   23.7913   73.4536    3.7436 O   0  0  0  0  0  0  0  0  0  0  0  0
   22.3639   72.0671    2.3852 C   0  0  2  0  0  0  0  0  0  0  0  0
   22.3682   70.9128    1.3827 C   0  0  2  0  0  0  0  0  0  0  0  0
   23.7465   72.2239    3.0223 C   0  0  1  0  0  0  0  0  0  0  0  0
   23.5159   71.0607    0.3830 C   0  0  1  0  0  0  0  0  0  0  0  0
   24.8481   72.2374    1.9664 C   0  0  1  0  0  0  0  0  0  0  0  0
   20.5408   71.6885    3.0455 H   0  0  0  0  0  0  0  0  0  0  0  0
   20.4041   70.7727    1.2994 H   0  0  0  0  0  0  0  0  0  0  0  0
   23.0949   73.4579    4.4188 H   0  0  0  0  0  0  0  0  0  0  0  0
   26.6730   70.8156    2.3532 O   0  0  0  0  0  0  0  0  0  0  0  0
   26.7800   72.9114    3.2450 O   0  0  0  0  0  0  0  0  0  0  0  0
   26.1903   72.0590    2.5979 C   0  0  0  0  0  0  0  0  0  0  0  0
  1  4  1  0
  1 24  1  0
  1  2  1  1
  1  3  2  0
 25 28  1  0
 25 24  1  0
 25 26  1  6
 25 27  2  0
  6 11  1  0
  6 12  1  0
 29 36  1  0
 29 37  1  0
  9  7  1  6
  7 13  1  0
 10  8  1  6
  8 14  1  0
  4  5  1  0
 36 28  1  1
 33 30  1  1
 30 38  1  0
 34 31  1  6
 31 39  1  0
 35 32  1  6
 32 40  1  0
 41 43  1  0
 15 19  2  0
 42 43  2  0
 16 22  2  0
 12 17  1  6
 17 19  1  0
 17 20  1  0
 18 19  1  0
 18 22  1  0
 18 23  1  0
  9 10  1  0
  9 11  1  0
 10 12  1  0
 11  5  1  6
 33 34  1  0
 33 35  1  0
 34 36  1  0
 35 37  1  0
 37 43  1  1
 20 21  2  0
 21 22  1  0
M  CHG  3   2  -1  26  -1  41  -1
M  END
>  <COMPND>  (4) 
    udp_gluA.pdb 

>  <AUTHOR>  (4) 
    GENERATED BY OPEN BABEL 3.1.1

>  <MASTER>  (4) 
        0    0    0    0    0    0    0    0   56    0   56    0

>  <minimizedAffinity>  (4) 
-8.04038

>  <CNNscore>  (4) 
0.8616445065

>  <CNNaffinity>  (4) 
4.6657099724

>  <CNN_VS>  (4) 
4.0201835632

>  <CNNaffinity_variance>  (4) 
0.0665310994

$$$$
5
     RDKit          3D

 43 45  0  0  0  0  0  0  0  0999 V2000
   20.5177   71.2332   -1.4913 P   0  0  2  0  0  0  0  0  0  0  0  0
   21.0587   70.5703   -0.1177 O   0  0  0  0  0  0  0  0  0  0  0  0
   20.0126   72.6401   -1.3598 O   0  0  0  0  0  0  0  0  0  0  0  0
   19.4507   70.1529   -2.0502 O   0  0  0  0  0  0  0  0  0  0  0  0
   19.1242   70.1753   -3.4276 C   0  0  0  0  0  0  0  0  0  0  0  0
   17.5201   71.3023   -4.8184 O   0  0  0  0  0  0  0  0  0  0  0  0
   15.4213   69.7864   -3.3056 O   0  0  0  0  0  0  0  0  0  0  0  0
   15.6244   68.3683   -5.6258 O   0  0  0  0  0  0  0  0  0  0  0  0
   16.7272   69.3686   -3.7035 C   0  0  1  0  0  0  0  0  0  0  0  0
   16.7578   69.0902   -5.1914 C   0  0  2  0  0  0  0  0  0  0  0  0
   17.6602   70.5659   -3.5841 C   0  0  1  0  0  0  0  0  0  0  0  0
   16.8165   70.4923   -5.7734 C   0  0  2  0  0  0  0  0  0  0  0  0
   14.8073   69.0380   -3.3735 H   0  0  0  0  0  0  0  0  0  0  0  0
   15.6331   67.4830   -5.2282 H   0  0  0  0  0  0  0  0  0  0  0  0
   15.5549   70.6115   -8.2975 O   0  0  0  0  0  0  0  0  0  0  0  0
   19.5939   70.6575  -10.5175 O   0  0  0  0  0  0  0  0  0  0  0  0
   17.5143   70.5364   -7.0272 N   0  0  0  0  0  0  0  0  0  0  0  0
   17.5677   70.6333   -9.4008 N   0  0  0  0  0  0  0  0  0  0  0  0
   16.7859   70.5948   -8.2388 C   0  0  0  0  0  0  0  0  0  0  0  0
   18.9037   70.5233   -7.0485 C   0  0  0  0  0  0  0  0  0  0  0  0
   19.6351   70.5605   -8.1640 C   0  0  0  0  0  0  0  0  0  0  0  0
   18.9513   70.6216   -9.4725 C   0  0  0  0  0  0  0  0  0  0  0  0
   17.0829   70.6721  -10.2568 H   0  0  0  0  0  0  0  0  0  0  0  0
   21.7715   71.0592   -2.4966 O   0  0  0  0  0  0  0  0  0  0  0  0
   23.1352   71.9138   -2.6505 P   0  0  2  0  0  0  0  0  0  0  0  0
   24.2378   70.7876   -3.0195 O   0  0  0  0  0  0  0  0  0  0  0  0
   23.4793   72.7460   -1.4492 O   0  0  0  0  0  0  0  0  0  0  0  0
   22.9398   72.7544   -4.0135 O   0  0  0  0  0  0  0  0  0  0  0  0
   23.0007   75.1176   -4.1565 O   0  0  0  0  0  0  0  0  0  0  0  0
   20.7417   74.1327   -7.4723 O   0  0  0  0  0  0  0  0  0  0  0  0
   20.3132   72.7622   -4.9283 O   0  0  0  0  0  0  0  0  0  0  0  0
   23.5153   74.9451   -7.7852 O   0  0  0  0  0  0  0  0  0  0  0  0
   21.7525   73.9457   -6.4818 C   0  0  2  0  0  0  0  0  0  0  0  0
   21.1118   73.9281   -5.0938 C   0  0  2  0  0  0  0  0  0  0  0  0
   22.7457   75.1045   -6.5950 C   0  0  1  0  0  0  0  0  0  0  0  0
   22.1786   73.9606   -3.9984 C   0  0  1  0  0  0  0  0  0  0  0  0
   23.6955   75.1427   -5.4013 C   0  0  1  0  0  0  0  0  0  0  0  0
   20.0989   73.4080   -7.4195 H   0  0  0  0  0  0  0  0  0  0  0  0
   19.6343   72.7349   -5.6202 H   0  0  0  0  0  0  0  0  0  0  0  0
   22.9226   74.9191   -8.5525 H   0  0  0  0  0  0  0  0  0  0  0  0
   25.6007   76.3584   -6.0288 O   0  0  0  0  0  0  0  0  0  0  0  0
   24.0367   77.4484   -4.7779 O   0  0  0  0  0  0  0  0  0  0  0  0
   24.4302   76.4426   -5.3494 C   0  0  0  0  0  0  0  0  0  0  0  0
  1  4  1  0
  1 24  1  0
  1  2  1  1
  1  3  2  0
 25 28  1  0
 25 24  1  0
 25 26  1  6
 25 27  2  0
  6 11  1  0
  6 12  1  0
 29 36  1  0
 29 37  1  0
  9  7  1  6
  7 13  1  0
 10  8  1  6
  8 14  1  0
  4  5  1  0
 36 28  1  6
 33 30  1  6
 30 38  1  0
 34 31  1  1
 31 39  1  0
 35 32  1  6
 32 40  1  0
 41 43  1  0
 15 19  2  0
 42 43  2  0
 16 22  2  0
 12 17  1  6
 17 19  1  0
 17 20  1  0
 18 19  1  0
 18 22  1  0
 18 23  1  0
  9 10  1  0
  9 11  1  0
 10 12  1  0
 11  5  1  6
 33 34  1  0
 33 35  1  0
 34 36  1  0
 35 37  1  0
 37 43  1  6
 20 21  2  0
 21 22  1  0
M  CHG  3   2  -1  26  -1  41  -1
M  END
>  <COMPND>  (5) 
    udp_gluA.pdb 

>  <AUTHOR>  (5) 
    GENERATED BY OPEN BABEL 3.1.1

>  <MASTER>  (5) 
        0    0    0    0    0    0    0    0   56    0   56    0

>  <minimizedAffinity>  (5) 
-7.92404

>  <CNNscore>  (5) 
0.8500039577

>  <CNNaffinity>  (5) 
4.7075262070

>  <CNN_VS>  (5) 
4.0014157295

>  <CNNaffinity_variance>  (5) 
0.4427055717

$$$$
6
     RDKit          3D

 43 45  0  0  0  0  0  0  0  0999 V2000
   20.6553   71.8292   -1.4588 P   0  0  2  0  0  0  0  0  0  0  0  0
   19.5785   73.0333   -1.5557 O   0  0  0  0  0  0  0  0  0  0  0  0
   21.9564   72.0847   -2.1615 O   0  0  0  0  0  0  0  0  0  0  0  0
   19.8308   70.5295   -1.9577 O   0  0  0  0  0  0  0  0  0  0  0  0
   19.4140   70.4710   -3.3095 C   0  0  0  0  0  0  0  0  0  0  0  0
   17.6996   71.5132   -4.6333 O   0  0  0  0  0  0  0  0  0  0  0  0
   15.7367   69.9967   -2.9484 O   0  0  0  0  0  0  0  0  0  0  0  0
   15.8359   68.5094   -5.2319 O   0  0  0  0  0  0  0  0  0  0  0  0
   17.0267   69.5980   -3.4127 C   0  0  1  0  0  0  0  0  0  0  0  0
   16.9743   69.2723   -4.8903 C   0  0  2  0  0  0  0  0  0  0  0  0
   17.9335   70.8207   -3.3878 C   0  0  1  0  0  0  0  0  0  0  0  0
   16.9609   70.6558   -5.5179 C   0  0  2  0  0  0  0  0  0  0  0  0
   15.1395   69.2319   -2.9554 H   0  0  0  0  0  0  0  0  0  0  0  0
   15.8918   67.6379   -4.8084 H   0  0  0  0  0  0  0  0  0  0  0  0
   15.5914   70.2110   -7.9475 O   0  0  0  0  0  0  0  0  0  0  0  0
   19.4381   70.7575  -10.4271 O   0  0  0  0  0  0  0  0  0  0  0  0
   17.5801   70.6761   -6.8129 N   0  0  0  0  0  0  0  0  0  0  0  0
   17.5088   70.4826   -9.1801 N   0  0  0  0  0  0  0  0  0  0  0  0
   16.8022   70.4400   -7.9710 C   0  0  0  0  0  0  0  0  0  0  0  0
   18.9417   70.9292   -6.9267 C   0  0  0  0  0  0  0  0  0  0  0  0
   19.6012   70.9667   -8.0862 C   0  0  0  0  0  0  0  0  0  0  0  0
   18.8622   70.7297   -9.3437 C   0  0  0  0  0  0  0  0  0  0  0  0
   16.9889   70.3192  -10.0000 H   0  0  0  0  0  0  0  0  0  0  0  0
   20.7865   71.5870    0.1340 O   0  0  0  0  0  0  0  0  0  0  0  0
   21.2826   72.5679    1.3194 P   0  0  2  0  0  0  0  0  0  0  0  0
   20.3338   72.1534    2.5638 O   0  0  0  0  0  0  0  0  0  0  0  0
   21.2408   74.0272    0.9692 O   0  0  0  0  0  0  0  0  0  0  0  0
   22.7448   72.0174    1.7212 O   0  0  0  0  0  0  0  0  0  0  0  0
   24.2872   73.3869    0.5574 O   0  0  0  0  0  0  0  0  0  0  0  0
   26.8084   70.9513    2.7435 O   0  0  0  0  0  0  0  0  0  0  0  0
   24.4495   69.8395    1.4269 O   0  0  0  0  0  0  0  0  0  0  0  0
   26.3659   73.7048    3.5641 O   0  0  0  0  0  0  0  0  0  0  0  0
   25.6152   71.6889    2.4788 C   0  0  2  0  0  0  0  0  0  0  0  0
   24.9529   71.1525    1.2095 C   0  0  2  0  0  0  0  0  0  0  0  0
   25.9986   73.1595    2.2983 C   0  0  1  0  0  0  0  0  0  0  0  0
   23.8039   72.0594    0.7667 C   0  0  1  0  0  0  0  0  0  0  0  0
   24.8368   73.9730    1.7353 C   0  0  1  0  0  0  0  0  0  0  0  0
   26.5895   70.0135    2.8618 H   0  0  0  0  0  0  0  0  0  0  0  0
   25.1732   69.2586    1.7084 H   0  0  0  0  0  0  0  0  0  0  0  0
   27.1044   73.1958    3.9334 H   0  0  0  0  0  0  0  0  0  0  0  0
   26.1932   75.8448    2.1325 O   0  0  0  0  0  0  0  0  0  0  0  0
   24.9484   75.8489    0.2221 O   0  0  0  0  0  0  0  0  0  0  0  0
   25.3066   75.3084    1.2578 C   0  0  0  0  0  0  0  0  0  0  0  0
  1  4  1  0
  1 24  1  0
  1  2  1  1
  1  3  2  0
 25 28  1  0
 25 24  1  0
 25 26  1  1
 25 27  2  0
  6 11  1  0
  6 12  1  0
 29 36  1  0
 29 37  1  0
  9  7  1  6
  7 13  1  0
 10  8  1  1
  8 14  1  0
  4  5  1  0
 36 28  1  1
 33 30  1  6
 30 38  1  0
 34 31  1  1
 31 39  1  0
 35 32  1  1
 32 40  1  0
 41 43  1  0
 15 19  2  0
 42 43  2  0
 16 22  2  0
 12 17  1  6
 17 19  1  0
 17 20  1  0
 18 19  1  0
 18 22  1  0
 18 23  1  0
  9 10  1  0
  9 11  1  0
 10 12  1  0
 11  5  1  6
 33 34  1  0
 33 35  1  0
 34 36  1  0
 35 37  1  0
 37 43  1  6
 20 21  2  0
 21 22  1  0
M  CHG  3   2  -1  26  -1  41  -1
M  END
>  <COMPND>  (6) 
    udp_gluA.pdb 

>  <AUTHOR>  (6) 
    GENERATED BY OPEN BABEL 3.1.1

>  <MASTER>  (6) 
        0    0    0    0    0    0    0    0   56    0   56    0

>  <minimizedAffinity>  (6) 
-7.49234

>  <CNNscore>  (6) 
0.8444097042

>  <CNNaffinity>  (6) 
4.6920080185

>  <CNN_VS>  (6) 
3.9619770050

>  <CNNaffinity_variance>  (6) 
0.0982493386

$$$$
7
     RDKit          3D

 43 45  0  0  0  0  0  0  0  0999 V2000
   20.4354   71.2022   -1.2655 P   0  0  2  0  0  0  0  0  0  0  0  0
   20.9638   70.4377    0.0593 O   0  0  0  0  0  0  0  0  0  0  0  0
   19.8652   72.5689   -1.0234 O   0  0  0  0  0  0  0  0  0  0  0  0
   19.4341   70.1354   -1.9563 O   0  0  0  0  0  0  0  0  0  0  0  0
   19.1426   70.2759   -3.3346 C   0  0  0  0  0  0  0  0  0  0  0  0
   17.5227   71.3597   -4.7414 O   0  0  0  0  0  0  0  0  0  0  0  0
   15.4452   69.8400   -3.2032 O   0  0  0  0  0  0  0  0  0  0  0  0
   15.6656   68.3886   -5.5012 O   0  0  0  0  0  0  0  0  0  0  0  0
   16.7563   69.4333   -3.5957 C   0  0  1  0  0  0  0  0  0  0  0  0
   16.7896   69.1322   -5.0791 C   0  0  2  0  0  0  0  0  0  0  0  0
   17.6734   70.6446   -3.4959 C   0  0  1  0  0  0  0  0  0  0  0  0
   16.8293   70.5256   -5.6830 C   0  0  2  0  0  0  0  0  0  0  0  0
   14.8411   69.0826   -3.2589 H   0  0  0  0  0  0  0  0  0  0  0  0
   15.6863   67.5098   -5.0898 H   0  0  0  0  0  0  0  0  0  0  0  0
   15.5648   70.6282   -8.2063 O   0  0  0  0  0  0  0  0  0  0  0  0
   19.6010   70.6514  -10.4316 O   0  0  0  0  0  0  0  0  0  0  0  0
   17.5256   70.5593   -6.9380 N   0  0  0  0  0  0  0  0  0  0  0  0
   17.5763   70.6386   -9.3123 N   0  0  0  0  0  0  0  0  0  0  0  0
   16.7957   70.6100   -8.1491 C   0  0  0  0  0  0  0  0  0  0  0  0
   18.9149   70.5439   -6.9609 C   0  0  0  0  0  0  0  0  0  0  0  0
   19.6450   70.5717   -8.0775 C   0  0  0  0  0  0  0  0  0  0  0  0
   18.9597   70.6242   -9.3856 C   0  0  0  0  0  0  0  0  0  0  0  0
   17.0904   70.6720  -10.1679 H   0  0  0  0  0  0  0  0  0  0  0  0
   21.7251   71.1735   -2.2396 O   0  0  0  0  0  0  0  0  0  0  0  0
   23.2243   71.7418   -2.0328 P   0  0  2  0  0  0  0  0  0  0  0  0
   24.1106   70.8156   -3.0212 O   0  0  0  0  0  0  0  0  0  0  0  0
   23.6902   71.7452   -0.6056 O   0  0  0  0  0  0  0  0  0  0  0  0
   23.2126   73.1933   -2.7366 O   0  0  0  0  0  0  0  0  0  0  0  0
   23.6643   73.2441   -5.0610 O   0  0  0  0  0  0  0  0  0  0  0  0
   23.9596   77.2414   -4.0597 O   0  0  0  0  0  0  0  0  0  0  0  0
   25.1028   75.1909   -2.3210 O   0  0  0  0  0  0  0  0  0  0  0  0
   21.6077   76.2568   -5.4561 O   0  0  0  0  0  0  0  0  0  0  0  0
   23.4639   75.9063   -3.9606 C   0  0  2  0  0  0  0  0  0  0  0  0
   24.6164   74.9552   -3.6372 C   0  0  2  0  0  0  0  0  0  0  0  0
   22.8293   75.5366   -5.3032 C   0  0  1  0  0  0  0  0  0  0  0  0
   24.1700   73.4967   -3.7495 C   0  0  1  0  0  0  0  0  0  0  0  0
   22.5284   74.0428   -5.3845 C   0  0  1  0  0  0  0  0  0  0  0  0
   24.3676   77.4983   -3.2178 H   0  0  0  0  0  0  0  0  0  0  0  0
   25.3875   76.1146   -2.2426 H   0  0  0  0  0  0  0  0  0  0  0  0
   21.7853   77.2091   -5.4061 H   0  0  0  0  0  0  0  0  0  0  0  0
   20.8950   73.7425   -7.0409 O   0  0  0  0  0  0  0  0  0  0  0  0
   23.0517   73.2676   -7.6086 O   0  0  0  0  0  0  0  0  0  0  0  0
   22.2237   73.6389   -6.7903 C   0  0  0  0  0  0  0  0  0  0  0  0
  1  4  1  0
  1 24  1  0
  1  2  1  1
  1  3  2  0
 25 28  1  0
 25 24  1  0
 25 26  1  6
 25 27  2  0
  6 11  1  0
  6 12  1  0
 29 36  1  0
 29 37  1  0
  9  7  1  6
  7 13  1  0
 10  8  1  6
  8 14  1  0
  4  5  1  0
 36 28  1  1
 33 30  1  6
 30 38  1  0
 34 31  1  1
 31 39  1  0
 35 32  1  1
 32 40  1  0
 41 43  1  0
 15 19  2  0
 42 43  2  0
 16 22  2  0
 12 17  1  6
 17 19  1  0
 17 20  1  0
 18 19  1  0
 18 22  1  0
 18 23  1  0
  9 10  1  0
  9 11  1  0
 10 12  1  0
 11  5  1  6
 33 34  1  0
 33 35  1  0
 34 36  1  0
 35 37  1  0
 37 43  1  6
 20 21  2  0
 21 22  1  0
M  CHG  3   2  -1  26  -1  41  -1
M  END
>  <COMPND>  (7) 
    udp_gluA.pdb 

>  <AUTHOR>  (7) 
    GENERATED BY OPEN BABEL 3.1.1

>  <MASTER>  (7) 
        0    0    0    0    0    0    0    0   56    0   56    0

>  <minimizedAffinity>  (7) 
-8.13840

>  <CNNscore>  (7) 
0.8203360438

>  <CNNaffinity>  (7) 
4.6236772537

>  <CNN_VS>  (7) 
3.7929689884

>  <CNNaffinity_variance>  (7) 
0.2906281054

$$$$
8
     RDKit          3D

 43 45  0  0  0  0  0  0  0  0999 V2000
   20.0324   74.5686   -4.6981 P   0  0  2  0  0  0  0  0  0  0  0  0
   19.5906   74.9289   -3.1835 O   0  0  0  0  0  0  0  0  0  0  0  0
   19.7179   75.6236   -5.7178 O   0  0  0  0  0  0  0  0  0  0  0  0
   19.3686   73.1167   -4.9615 O   0  0  0  0  0  0  0  0  0  0  0  0
   19.0694   72.2976   -3.8460 C   0  0  0  0  0  0  0  0  0  0  0  0
   17.1578   72.0069   -5.2738 O   0  0  0  0  0  0  0  0  0  0  0  0
   15.9972   70.3394   -3.0684 O   0  0  0  0  0  0  0  0  0  0  0  0
   16.9099   68.4591   -4.8198 O   0  0  0  0  0  0  0  0  0  0  0  0
   17.3541   70.4513   -3.4984 C   0  0  1  0  0  0  0  0  0  0  0  0
   17.5511   69.7174   -4.8079 C   0  0  2  0  0  0  0  0  0  0  0  0
   17.6006   71.8980   -3.9037 C   0  0  1  0  0  0  0  0  0  0  0  0
   16.9494   70.6898   -5.8080 C   0  0  2  0  0  0  0  0  0  0  0  0
   15.8158   69.4234   -2.8042 H   0  0  0  0  0  0  0  0  0  0  0  0
   17.3292   67.8764   -4.1667 H   0  0  0  0  0  0  0  0  0  0  0  0
   15.5506   70.7237   -8.2613 O   0  0  0  0  0  0  0  0  0  0  0  0
   19.4465   70.3587  -10.6970 O   0  0  0  0  0  0  0  0  0  0  0  0
   17.5733   70.6051   -7.0981 N   0  0  0  0  0  0  0  0  0  0  0  0
   17.4922   70.5409   -9.4721 N   0  0  0  0  0  0  0  0  0  0  0  0
   16.7795   70.6306   -8.2691 C   0  0  0  0  0  0  0  0  0  0  0  0
   18.9556   70.5000   -7.1945 C   0  0  0  0  0  0  0  0  0  0  0  0
   19.6207   70.4154   -8.3483 C   0  0  0  0  0  0  0  0  0  0  0  0
   18.8658   70.4342   -9.6184 C   0  0  0  0  0  0  0  0  0  0  0  0
   16.9609   70.5545  -10.3008 H   0  0  0  0  0  0  0  0  0  0  0  0
   21.6050   74.2269   -4.5458 O   0  0  0  0  0  0  0  0  0  0  0  0
   22.6261   73.4626   -5.5391 P   0  0  2  0  0  0  0  0  0  0  0  0
   21.6485   72.8493   -6.6742 O   0  0  0  0  0  0  0  0  0  0  0  0
   23.5003   72.4473   -4.8615 O   0  0  0  0  0  0  0  0  0  0  0  0
   23.4293   74.6440   -6.2885 O   0  0  0  0  0  0  0  0  0  0  0  0
   22.7082   76.7267   -7.1554 O   0  0  0  0  0  0  0  0  0  0  0  0
   25.6449   75.6621   -9.8592 O   0  0  0  0  0  0  0  0  0  0  0  0
   23.7461   73.6719   -8.8751 O   0  0  0  0  0  0  0  0  0  0  0  0
   26.1746   77.7029   -7.8579 O   0  0  0  0  0  0  0  0  0  0  0  0
   25.0090   75.7226   -8.5825 C   0  0  2  0  0  0  0  0  0  0  0  0
   23.6269   75.0746   -8.6679 C   0  0  2  0  0  0  0  0  0  0  0  0
   24.8827   77.1954   -8.1865 C   0  0  1  0  0  0  0  0  0  0  0  0
   22.8263   75.3227   -7.3887 C   0  0  1  0  0  0  0  0  0  0  0  0
   23.9678   77.3709   -6.9779 C   0  0  1  0  0  0  0  0  0  0  0  0
   25.7359   74.7354  -10.1317 H   0  0  0  0  0  0  0  0  0  0  0  0
   24.2533   73.5071   -9.6851 H   0  0  0  0  0  0  0  0  0  0  0  0
   26.7667   77.5970   -8.6188 H   0  0  0  0  0  0  0  0  0  0  0  0
   23.6842   79.4726   -7.9799 O   0  0  0  0  0  0  0  0  0  0  0  0
   23.2387   79.3151   -5.7492 O   0  0  0  0  0  0  0  0  0  0  0  0
   23.5892   78.8056   -6.8030 C   0  0  0  0  0  0  0  0  0  0  0  0
  1  4  1  0
  1 24  1  0
  1  2  1  1
  1  3  2  0
 25 28  1  0
 25 24  1  0
 25 26  1  6
 25 27  2  0
  6 11  1  0
  6 12  1  0
 29 36  1  0
 29 37  1  0
  9  7  1  6
  7 13  1  0
 10  8  1  1
  8 14  1  0
  4  5  1  0
 36 28  1  1
 33 30  1  6
 30 38  1  0
 34 31  1  1
 31 39  1  0
 35 32  1  1
 32 40  1  0
 41 43  1  0
 15 19  2  0
 42 43  2  0
 16 22  2  0
 12 17  1  6
 17 19  1  0
 17 20  1  0
 18 19  1  0
 18 22  1  0
 18 23  1  0
  9 10  1  0
  9 11  1  0
 10 12  1  0
 11  5  1  6
 33 34  1  0
 33 35  1  0
 34 36  1  0
 35 37  1  0
 37 43  1  6
 20 21  2  0
 21 22  1  0
M  CHG  3   2  -1  26  -1  41  -1
M  END
>  <COMPND>  (8) 
    udp_gluA.pdb 

>  <AUTHOR>  (8) 
    GENERATED BY OPEN BABEL 3.1.1

>  <MASTER>  (8) 
        0    0    0    0    0    0    0    0   56    0   56    0

>  <minimizedAffinity>  (8) 
-6.22527

>  <CNNscore>  (8) 
0.7917971015

>  <CNNaffinity>  (8) 
4.7024002075

>  <CNN_VS>  (8) 
3.7233469486

>  <CNNaffinity_variance>  (8) 
0.1046932116

$$$$
9
     RDKit          3D

 43 45  0  0  0  0  0  0  0  0999 V2000
   21.7104   72.2624   -5.5124 P   0  0  2  0  0  0  0  0  0  0  0  0
   22.7838   72.4443   -6.7097 O   0  0  0  0  0  0  0  0  0  0  0  0
   22.2290   71.5465   -4.2998 O   0  0  0  0  0  0  0  0  0  0  0  0
   20.4324   71.5835   -6.2361 O   0  0  0  0  0  0  0  0  0  0  0  0
   20.1957   71.8734   -7.6016 C   0  0  0  0  0  0  0  0  0  0  0  0
   18.9070   69.8849   -7.1981 O   0  0  0  0  0  0  0  0  0  0  0  0
   18.1295   70.0259  -10.0907 O   0  0  0  0  0  0  0  0  0  0  0  0
   15.9359   71.0475   -8.8337 O   0  0  0  0  0  0  0  0  0  0  0  0
   18.3450   71.0871   -9.1602 C   0  0  1  0  0  0  0  0  0  0  0  0
   17.1862   71.1768   -8.1899 C   0  0  2  0  0  0  0  0  0  0  0  0
   19.4949   70.6848   -8.2468 C   0  0  1  0  0  0  0  0  0  0  0  0
   17.4781   70.0255   -7.2428 C   0  0  2  0  0  0  0  0  0  0  0  0
   17.3991   70.2600  -10.6852 H   0  0  0  0  0  0  0  0  0  0  0  0
   15.7969   71.8045   -9.4251 H   0  0  0  0  0  0  0  0  0  0  0  0
   16.3125   68.0608   -5.5820 O   0  0  0  0  0  0  0  0  0  0  0  0
   15.6458   71.0825   -2.1661 O   0  0  0  0  0  0  0  0  0  0  0  0
   16.9914   70.2714   -5.9148 N   0  0  0  0  0  0  0  0  0  0  0  0
   15.9807   69.5679   -3.8826 N   0  0  0  0  0  0  0  0  0  0  0  0
   16.4231   69.2150   -5.1643 C   0  0  0  0  0  0  0  0  0  0  0  0
   17.0807   71.5460   -5.3684 C   0  0  0  0  0  0  0  0  0  0  0  0
   16.6547   71.8670   -4.1452 C   0  0  0  0  0  0  0  0  0  0  0  0
   16.0474   70.8213   -3.2960 C   0  0  0  0  0  0  0  0  0  0  0  0
   15.5795   68.8495   -3.3420 H   0  0  0  0  0  0  0  0  0  0  0  0
   21.2118   73.7756   -5.2391 O   0  0  0  0  0  0  0  0  0  0  0  0
   21.8065   74.9318   -4.2783 P   0  0  2  0  0  0  0  0  0  0  0  0
   20.9170   76.2278   -4.6651 O   0  0  0  0  0  0  0  0  0  0  0  0
   23.2880   75.1378   -4.4070 O   0  0  0  0  0  0  0  0  0  0  0  0
   21.3131   74.5268   -2.7968 O   0  0  0  0  0  0  0  0  0  0  0  0
   20.0375   72.6533   -2.1098 O   0  0  0  0  0  0  0  0  0  0  0  0
   18.9019   75.5038    0.6567 O   0  0  0  0  0  0  0  0  0  0  0  0
   19.1912   76.2097   -2.1633 O   0  0  0  0  0  0  0  0  0  0  0  0
   20.7454   73.3877    1.4147 O   0  0  0  0  0  0  0  0  0  0  0  0
   19.7895   74.8464   -0.2477 C   0  0  2  0  0  0  0  0  0  0  0  0
   19.2001   74.8795   -1.6580 C   0  0  2  0  0  0  0  0  0  0  0  0
   19.9601   73.4006    0.2241 C   0  0  1  0  0  0  0  0  0  0  0  0
   20.0045   73.9913   -2.6081 C   0  0  1  0  0  0  0  0  0  0  0  0
   20.6600   72.5492   -0.8312 C   0  0  1  0  0  0  0  0  0  0  0  0
   18.7783   76.4245    0.3769 H   0  0  0  0  0  0  0  0  0  0  0  0
   18.6826   76.7789   -1.5651 H   0  0  0  0  0  0  0  0  0  0  0  0
   20.3110   73.9262    2.0945 H   0  0  0  0  0  0  0  0  0  0  0  0
   19.7160   70.4803   -1.4058 O   0  0  0  0  0  0  0  0  0  0  0  0
   21.0781   70.5303    0.4221 O   0  0  0  0  0  0  0  0  0  0  0  0
   20.5294   71.0954   -0.5119 C   0  0  0  0  0  0  0  0  0  0  0  0
  1  4  1  0
  1 24  1  0
  1  2  1  6
  1  3  2  0
 25 28  1  0
 25 24  1  0
 25 26  1  6
 25 27  2  0
  6 11  1  0
  6 12  1  0
 29 36  1  0
 29 37  1  0
  9  7  1  6
  7 13  1  0
 10  8  1  6
  8 14  1  0
  4  5  1  0
 36 28  1  1
 33 30  1  1
 30 38  1  0
 34 31  1  6
 31 39  1  0
 35 32  1  1
 32 40  1  0
 41 43  1  0
 15 19  2  0
 42 43  2  0
 16 22  2  0
 12 17  1  1
 17 19  1  0
 17 20  1  0
 18 19  1  0
 18 22  1  0
 18 23  1  0
  9 10  1  0
  9 11  1  0
 10 12  1  0
 11  5  1  1
 33 34  1  0
 33 35  1  0
 34 36  1  0
 35 37  1  0
 37 43  1  1
 20 21  2  0
 21 22  1  0
M  CHG  3   2  -1  26  -1  41  -1
M  END
>  <COMPND>  (9) 
    udp_gluA.pdb 

>  <AUTHOR>  (9) 
    GENERATED BY OPEN BABEL 3.1.1

>  <MASTER>  (9) 
        0    0    0    0    0    0    0    0   56    0   56    0

>  <minimizedAffinity>  (9) 
-6.71115

>  <CNNscore>  (9) 
0.7845374942

>  <CNNaffinity>  (9) 
4.5806741714

>  <CNN_VS>  (9) 
3.5937106609

>  <CNNaffinity_variance>  (9) 
0.2913338244

$$$$
10
     RDKit          3D

 43 45  0  0  0  0  0  0  0  0999 V2000
   22.2514   73.2369   -4.8684 P   0  0  2  0  0  0  0  0  0  0  0  0
   22.2234   74.6944   -5.5712 O   0  0  0  0  0  0  0  0  0  0  0  0
   22.7193   72.1170   -5.7507 O   0  0  0  0  0  0  0  0  0  0  0  0
   20.7633   73.0730   -4.2545 O   0  0  0  0  0  0  0  0  0  0  0  0
   20.3214   71.7784   -3.8895 C   0  0  0  0  0  0  0  0  0  0  0  0
   18.2347   72.1158   -5.0340 O   0  0  0  0  0  0  0  0  0  0  0  0
   16.9561   70.6681   -2.7404 O   0  0  0  0  0  0  0  0  0  0  0  0
   17.0773   68.7424   -4.6673 O   0  0  0  0  0  0  0  0  0  0  0  0
   18.2230   70.4415   -3.3585 C   0  0  1  0  0  0  0  0  0  0  0  0
   18.0372   69.7776   -4.7065 C   0  0  2  0  0  0  0  0  0  0  0  0
   18.8049   71.7938   -3.7469 C   0  0  1  0  0  0  0  0  0  0  0  0
   17.6027   70.9452   -5.5759 C   0  0  2  0  0  0  0  0  0  0  0  0
   16.5647   69.8182   -2.4834 H   0  0  0  0  0  0  0  0  0  0  0  0
   17.4006   68.0230   -4.1017 H   0  0  0  0  0  0  0  0  0  0  0  0
   15.8620   70.2146   -7.6765 O   0  0  0  0  0  0  0  0  0  0  0  0
   19.2571   70.3740  -10.7898 O   0  0  0  0  0  0  0  0  0  0  0  0
   18.0053   70.7887   -6.9449 N   0  0  0  0  0  0  0  0  0  0  0  0
   17.5548   70.2937   -9.2249 N   0  0  0  0  0  0  0  0  0  0  0  0
   17.0522   70.4186   -7.9231 C   0  0  0  0  0  0  0  0  0  0  0  0
   19.3297   71.0024   -7.3072 C   0  0  0  0  0  0  0  0  0  0  0  0
   19.7939   70.8796   -8.5523 C   0  0  0  0  0  0  0  0  0  0  0  0
   18.8632   70.4952   -9.6337 C   0  0  0  0  0  0  0  0  0  0  0  0
   16.9104   70.0349   -9.9228 H   0  0  0  0  0  0  0  0  0  0  0  0
   23.1609   73.4847   -3.5553 O   0  0  0  0  0  0  0  0  0  0  0  0
   23.0324   74.5707   -2.3646 P   0  0  2  0  0  0  0  0  0  0  0  0
   21.7266   75.4294   -2.7864 O   0  0  0  0  0  0  0  0  0  0  0  0
   24.2690   75.3932   -2.1452 O   0  0  0  0  0  0  0  0  0  0  0  0
   22.5602   73.7161   -1.0804 O   0  0  0  0  0  0  0  0  0  0  0  0
   23.7370   73.5105    0.9647 O   0  0  0  0  0  0  0  0  0  0  0  0
   21.5510   70.0056    0.8966 O   0  0  0  0  0  0  0  0  0  0  0  0
   22.8522   70.9865   -1.5280 O   0  0  0  0  0  0  0  0  0  0  0  0
   20.7409   72.1972    2.6262 O   0  0  0  0  0  0  0  0  0  0  0  0
   21.8138   71.3829    0.6286 C   0  0  2  0  0  0  0  0  0  0  0  0
   23.0777   71.5064   -0.2228 C   0  0  2  0  0  0  0  0  0  0  0  0
   22.0026   72.0978    1.9684 C   0  0  1  0  0  0  0  0  0  0  0  0
   23.5196   72.9660   -0.3375 C   0  0  1  0  0  0  0  0  0  0  0  0
   22.5641   73.5035    1.7755 C   0  0  1  0  0  0  0  0  0  0  0  0
   21.4275   69.5309    0.0596 H   0  0  0  0  0  0  0  0  0  0  0  0
   22.5713   70.0607   -1.4627 H   0  0  0  0  0  0  0  0  0  0  0  0
   20.3725   71.3092    2.7550 H   0  0  0  0  0  0  0  0  0  0  0  0
   24.3993   73.9641    3.1617 O   0  0  0  0  0  0  0  0  0  0  0  0
   22.3366   74.5479    3.9386 O   0  0  0  0  0  0  0  0  0  0  0  0
   23.0498   74.0634    3.0728 C   0  0  0  0  0  0  0  0  0  0  0  0
  1  4  1  0
  1 24  1  0
  1  2  1  6
  1  3  2  0
 25 28  1  0
 25 24  1  0
 25 26  1  6
 25 27  2  0
  6 11  1  0
  6 12  1  0
 29 36  1  0
 29 37  1  0
  9  7  1  6
  7 13  1  0
 10  8  1  1
  8 14  1  0
  4  5  1  0
 36 28  1  1
 33 30  1  1
 30 38  1  0
 34 31  1  6
 31 39  1  0
 35 32  1  6
 32 40  1  0
 41 43  1  0
 15 19  2  0
 42 43  2  0
 16 22  2  0
 12 17  1  6
 17 19  1  0
 17 20  1  0
 18 19  1  0
 18 22  1  0
 18 23  1  0
  9 10  1  0
  9 11  1  0
 10 12  1  0
 11  5  1  6
 33 34  1  0
 33 35  1  0
 34 36  1  0
 35 37  1  0
 37 43  1  1
 20 21  2  0
 21 22  1  0
M  CHG  3   2  -1  26  -1  41  -1
M  END
>  <COMPND>  (10) 
    udp_gluA.pdb 

>  <AUTHOR>  (10) 
    GENERATED BY OPEN BABEL 3.1.1

>  <MASTER>  (10) 
        0    0    0    0    0    0    0    0   56    0   56    0

>  <minimizedAffinity>  (10) 
-7.34944

>  <CNNscore>  (10) 
0.7724578381

>  <CNNaffinity>  (10) 
4.5771646500

>  <CNN_VS>  (10) 
3.5356667042

>  <CNNaffinity_variance>  (10) 
0.0322058201

$$$$
11
     RDKit          3D

 43 45  0  0  0  0  0  0  0  0999 V2000
   19.9917   72.5723   -1.4074 P   0  0  2  0  0  0  0  0  0  0  0  0
   18.6747   73.2518   -0.7571 O   0  0  0  0  0  0  0  0  0  0  0  0
   21.0170   73.5408   -1.9197 O   0  0  0  0  0  0  0  0  0  0  0  0
   19.3959   71.5370   -2.4988 O   0  0  0  0  0  0  0  0  0  0  0  0
   18.9146   72.0518   -3.7267 C   0  0  0  0  0  0  0  0  0  0  0  0
   17.0525   71.9088   -5.2399 O   0  0  0  0  0  0  0  0  0  0  0  0
   15.7457   70.1731   -3.1733 O   0  0  0  0  0  0  0  0  0  0  0  0
   16.6600   68.3540   -4.9874 O   0  0  0  0  0  0  0  0  0  0  0  0
   17.1218   70.2560   -3.5446 C   0  0  1  0  0  0  0  0  0  0  0  0
   17.3448   69.5848   -4.8833 C   0  0  2  0  0  0  0  0  0  0  0  0
   17.4360   71.7116   -3.8617 C   0  0  1  0  0  0  0  0  0  0  0  0
   16.8188   70.6304   -5.8518 C   0  0  2  0  0  0  0  0  0  0  0  0
   15.5212   69.2520   -2.9660 H   0  0  0  0  0  0  0  0  0  0  0  0
   17.0318   67.7224   -4.3512 H   0  0  0  0  0  0  0  0  0  0  0  0
   15.5071   70.6577   -8.3529 O   0  0  0  0  0  0  0  0  0  0  0  0
   19.4970   70.4715  -10.6528 O   0  0  0  0  0  0  0  0  0  0  0  0
   17.4905   70.5899   -7.1199 N   0  0  0  0  0  0  0  0  0  0  0  0
   17.4955   70.5639   -9.4959 N   0  0  0  0  0  0  0  0  0  0  0  0
   16.7380   70.6079   -8.3181 C   0  0  0  0  0  0  0  0  0  0  0  0
   18.8781   70.5349   -7.1683 C   0  0  0  0  0  0  0  0  0  0  0  0
   19.5861   70.4936   -8.2987 C   0  0  0  0  0  0  0  0  0  0  0  0
   18.8764   70.5079   -9.5946 C   0  0  0  0  0  0  0  0  0  0  0  0
   16.9937   70.5733  -10.3429 H   0  0  0  0  0  0  0  0  0  0  0  0
   20.5158   71.5970   -0.2297 O   0  0  0  0  0  0  0  0  0  0  0  0
   21.9204   71.5583    0.5700 P   0  0  2  0  0  0  0  0  0  0  0  0
   23.0181   71.4563   -0.6153 O   0  0  0  0  0  0  0  0  0  0  0  0
   22.0149   70.4664    1.5960 O   0  0  0  0  0  0  0  0  0  0  0  0
   22.0963   73.0491    1.1606 O   0  0  0  0  0  0  0  0  0  0  0  0
   21.6920   73.3172    3.4788 O   0  0  0  0  0  0  0  0  0  0  0  0
   21.8091   77.2396    2.1868 O   0  0  0  0  0  0  0  0  0  0  0  0
   20.4237   75.2035    0.6152 O   0  0  0  0  0  0  0  0  0  0  0  0
   24.0655   76.1110    3.6310 O   0  0  0  0  0  0  0  0  0  0  0  0
   22.1574   75.8551    2.1824 C   0  0  2  0  0  0  0  0  0  0  0  0
   20.9044   75.0129    1.9409 C   0  0  2  0  0  0  0  0  0  0  0  0
   22.7714   75.5177    3.5429 C   0  0  1  0  0  0  0  0  0  0  0  0
   21.1941   73.5269    2.1568 C   0  0  1  0  0  0  0  0  0  0  0  0
   22.9122   74.0100    3.7320 C   0  0  1  0  0  0  0  0  0  0  0  0
   21.4167   77.4771    1.3318 H   0  0  0  0  0  0  0  0  0  0  0  0
   20.2382   76.1443    0.4711 H   0  0  0  0  0  0  0  0  0  0  0  0
   23.9899   77.0707    3.5122 H   0  0  0  0  0  0  0  0  0  0  0  0
   22.5108   72.5718    5.5408 O   0  0  0  0  0  0  0  0  0  0  0  0
   23.9422   74.3114    5.8929 O   0  0  0  0  0  0  0  0  0  0  0  0
   23.1958   73.6789    5.1610 C   0  0  0  0  0  0  0  0  0  0  0  0
  1  4  1  0
  1 24  1  0
  1  2  1  1
  1  3  2  0
 25 28  1  0
 25 24  1  0
 25 26  1  6
 25 27  2  0
  6 11  1  0
  6 12  1  0
 29 36  1  0
 29 37  1  0
  9  7  1  6
  7 13  1  0
 10  8  1  1
  8 14  1  0
  4  5  1  0
 36 28  1  6
 33 30  1  1
 30 38  1  0
 34 31  1  6
 31 39  1  0
 35 32  1  6
 32 40  1  0
 41 43  1  0
 15 19  2  0
 42 43  2  0
 16 22  2  0
 12 17  1  6
 17 19  1  0
 17 20  1  0
 18 19  1  0
 18 22  1  0
 18 23  1  0
  9 10  1  0
  9 11  1  0
 10 12  1  0
 11  5  1  6
 33 34  1  0
 33 35  1  0
 34 36  1  0
 35 37  1  0
 37 43  1  1
 20 21  2  0
 21 22  1  0
M  CHG  3   2  -1  26  -1  41  -1
M  END
>  <COMPND>  (11) 
    udp_gluA.pdb 

>  <AUTHOR>  (11) 
    GENERATED BY OPEN BABEL 3.1.1

>  <MASTER>  (11) 
        0    0    0    0    0    0    0    0   56    0   56    0

>  <minimizedAffinity>  (11) 
-6.58626

>  <CNNscore>  (11) 
0.7474748492

>  <CNNaffinity>  (11) 
4.4503221512

>  <CNN_VS>  (11) 
3.3265039921

>  <CNNaffinity_variance>  (11) 
0.1683033854

$$$$
12
     RDKit          3D

 43 45  0  0  0  0  0  0  0  0999 V2000
   21.9064   72.4753   -5.7673 P   0  0  2  0  0  0  0  0  0  0  0  0
   21.2898   73.9287   -5.4121 O   0  0  0  0  0  0  0  0  0  0  0  0
   23.1075   72.4991   -6.6664 O   0  0  0  0  0  0  0  0  0  0  0  0
   20.6352   71.6373   -6.3150 O   0  0  0  0  0  0  0  0  0  0  0  0
   20.0791   71.9940   -7.5672 C   0  0  0  0  0  0  0  0  0  0  0  0
   18.8928   69.9484   -7.1361 O   0  0  0  0  0  0  0  0  0  0  0  0
   18.1149   70.0071  -10.0315 O   0  0  0  0  0  0  0  0  0  0  0  0
   15.8694   70.9335   -8.7922 O   0  0  0  0  0  0  0  0  0  0  0  0
   18.2741   71.0914   -9.1164 C   0  0  1  0  0  0  0  0  0  0  0  0
   17.1103   71.1359   -8.1489 C   0  0  2  0  0  0  0  0  0  0  0  0
   19.4412   70.7618   -8.1958 C   0  0  1  0  0  0  0  0  0  0  0  0
   17.4588   70.0150   -7.1846 C   0  0  2  0  0  0  0  0  0  0  0  0
   17.3747   70.1948  -10.6302 H   0  0  0  0  0  0  0  0  0  0  0  0
   15.6932   71.6736   -9.3949 H   0  0  0  0  0  0  0  0  0  0  0  0
   16.3155   68.0335   -5.5283 O   0  0  0  0  0  0  0  0  0  0  0  0
   15.5689   71.0503   -2.1246 O   0  0  0  0  0  0  0  0  0  0  0  0
   16.9575   70.2551   -5.8610 N   0  0  0  0  0  0  0  0  0  0  0  0
   15.9438   69.5381   -3.8350 N   0  0  0  0  0  0  0  0  0  0  0  0
   16.4024   69.1904   -5.1125 C   0  0  0  0  0  0  0  0  0  0  0  0
   17.0199   71.5322   -5.3168 C   0  0  0  0  0  0  0  0  0  0  0  0
   16.5788   71.8483   -4.0977 C   0  0  0  0  0  0  0  0  0  0  0  0
   15.9838   70.7937   -3.2508 C   0  0  0  0  0  0  0  0  0  0  0  0
   15.5513   68.8139   -3.2958 H   0  0  0  0  0  0  0  0  0  0  0  0
   22.1687   71.8264   -4.3103 O   0  0  0  0  0  0  0  0  0  0  0  0
   23.4441   71.9192   -3.3211 P   0  0  2  0  0  0  0  0  0  0  0  0
   24.3401   73.0942   -3.9821 O   0  0  0  0  0  0  0  0  0  0  0  0
   24.1715   70.6197   -3.1306 O   0  0  0  0  0  0  0  0  0  0  0  0
   22.8623   72.5661   -1.9626 O   0  0  0  0  0  0  0  0  0  0  0  0
   21.5482   74.5097   -2.2861 O   0  0  0  0  0  0  0  0  0  0  0  0
   22.0043   74.4772    1.8198 O   0  0  0  0  0  0  0  0  0  0  0  0
   24.2598   73.8445    0.0742 O   0  0  0  0  0  0  0  0  0  0  0  0
   19.4800   73.6693    0.6257 O   0  0  0  0  0  0  0  0  0  0  0  0
   21.8754   73.9048    0.5184 C   0  0  2  0  0  0  0  0  0  0  0  0
   23.0222   74.3888   -0.3694 C   0  0  2  0  0  0  0  0  0  0  0  0
   20.5301   74.3471   -0.0616 C   0  0  1  0  0  0  0  0  0  0  0  0
   22.7941   73.9844   -1.8266 C   0  0  1  0  0  0  0  0  0  0  0  0
   20.4302   74.0203   -1.5488 C   0  0  1  0  0  0  0  0  0  0  0  0
   22.8522   74.2098    2.2083 H   0  0  0  0  0  0  0  0  0  0  0  0
   24.4108   74.0970    0.9982 H   0  0  0  0  0  0  0  0  0  0  0  0
   19.5324   73.8688    1.5735 H   0  0  0  0  0  0  0  0  0  0  0  0
   18.8286   75.7232   -1.3579 O   0  0  0  0  0  0  0  0  0  0  0  0
   18.7995   74.4773   -3.2674 O   0  0  0  0  0  0  0  0  0  0  0  0
   19.2771   74.7366   -2.1730 C   0  0  0  0  0  0  0  0  0  0  0  0
  1  4  1  0
  1 24  1  0
  1  2  1  1
  1  3  2  0
 25 28  1  0
 25 24  1  0
 25 26  1  6
 25 27  2  0
  6 11  1  0
  6 12  1  0
 29 36  1  0
 29 37  1  0
  9  7  1  6
  7 13  1  0
 10  8  1  6
  8 14  1  0
  4  5  1  0
 36 28  1  1
 33 30  1  1
 30 38  1  0
 34 31  1  1
 31 39  1  0
 35 32  1  1
 32 40  1  0
 41 43  1  0
 15 19  2  0
 42 43  2  0
 16 22  2  0
 12 17  1  1
 17 19  1  0
 17 20  1  0
 18 19  1  0
 18 22  1  0
 18 23  1  0
  9 10  1  0
  9 11  1  0
 10 12  1  0
 11  5  1  1
 33 34  1  0
 33 35  1  0
 34 36  1  0
 35 37  1  0
 37 43  1  6
 20 21  2  0
 21 22  1  0
M  CHG  3   2  -1  26  -1  41  -1
M  END
>  <COMPND>  (12) 
    udp_gluA.pdb 

>  <AUTHOR>  (12) 
    GENERATED BY OPEN BABEL 3.1.1

>  <MASTER>  (12) 
        0    0    0    0    0    0    0    0   56    0   56    0

>  <minimizedAffinity>  (12) 
-7.25713

>  <CNNscore>  (12) 
0.6803101897

>  <CNNaffinity>  (12) 
4.4972438812

>  <CNN_VS>  (12) 
3.0595207214

>  <CNNaffinity_variance>  (12) 
0.3064411283

$$$$
13
     RDKit          3D

 43 45  0  0  0  0  0  0  0  0999 V2000
   21.8390   72.4856   -5.5730 P   0  0  2  0  0  0  0  0  0  0  0  0
   21.2744   73.9714   -5.2688 O   0  0  0  0  0  0  0  0  0  0  0  0
   23.0666   72.4384   -6.4346 O   0  0  0  0  0  0  0  0  0  0  0  0
   20.5504   71.6893   -6.1417 O   0  0  0  0  0  0  0  0  0  0  0  0
   20.0339   72.0555   -7.4080 C   0  0  0  0  0  0  0  0  0  0  0  0
   18.8276   70.0115   -7.0280 O   0  0  0  0  0  0  0  0  0  0  0  0
   18.1463   70.0889   -9.9471 O   0  0  0  0  0  0  0  0  0  0  0  0
   15.8639   71.0159   -8.7777 O   0  0  0  0  0  0  0  0  0  0  0  0
   18.2784   71.1676   -9.0211 C   0  0  1  0  0  0  0  0  0  0  0  0
   17.0834   71.2106   -8.0925 C   0  0  2  0  0  0  0  0  0  0  0  0
   19.4134   70.8290   -8.0643 C   0  0  1  0  0  0  0  0  0  0  0  0
   17.3962   70.0832   -7.1235 C   0  0  2  0  0  0  0  0  0  0  0  0
   17.4269   70.2824  -10.5689 H   0  0  0  0  0  0  0  0  0  0  0  0
   15.7100   71.7599   -9.3817 H   0  0  0  0  0  0  0  0  0  0  0  0
   16.4247   68.0563   -5.4135 O   0  0  0  0  0  0  0  0  0  0  0  0
   15.3309   71.0987   -2.1285 O   0  0  0  0  0  0  0  0  0  0  0  0
   16.8521   70.3177   -5.8159 N   0  0  0  0  0  0  0  0  0  0  0  0
   15.8799   69.5736   -3.7794 N   0  0  0  0  0  0  0  0  0  0  0  0
   16.3913   69.2296   -5.0376 C   0  0  0  0  0  0  0  0  0  0  0  0
   16.7805   71.6124   -5.3164 C   0  0  0  0  0  0  0  0  0  0  0  0
   16.2906   71.9247   -4.1151 C   0  0  0  0  0  0  0  0  0  0  0  0
   15.7874   70.8462   -3.2393 C   0  0  0  0  0  0  0  0  0  0  0  0
   15.5511   68.8331   -3.2201 H   0  0  0  0  0  0  0  0  0  0  0  0
   22.0294   71.8601   -4.0947 O   0  0  0  0  0  0  0  0  0  0  0  0
   23.2584   71.9620   -3.0493 P   0  0  2  0  0  0  0  0  0  0  0  0
   23.9215   73.3973   -3.3967 O   0  0  0  0  0  0  0  0  0  0  0  0
   24.2161   70.8074   -3.1104 O   0  0  0  0  0  0  0  0  0  0  0  0
   22.5569   72.1746   -1.6123 O   0  0  0  0  0  0  0  0  0  0  0  0
   23.4185   70.7432    0.0664 O   0  0  0  0  0  0  0  0  0  0  0  0
   20.2098   72.4779    2.0063 O   0  0  0  0  0  0  0  0  0  0  0  0
   19.9667   71.6084   -0.7721 O   0  0  0  0  0  0  0  0  0  0  0  0
   22.9201   73.3341    2.6161 O   0  0  0  0  0  0  0  0  0  0  0  0
   21.2995   72.4192    1.0859 C   0  0  2  0  0  0  0  0  0  0  0  0
   21.0606   71.2919    0.0811 C   0  0  2  0  0  0  0  0  0  0  0  0
   22.5790   72.1585    1.8840 C   0  0  1  0  0  0  0  0  0  0  0  0
   22.3049   71.0484   -0.7740 C   0  0  1  0  0  0  0  0  0  0  0  0
   23.7444   71.7999    0.9666 C   0  0  1  0  0  0  0  0  0  0  0  0
   19.3856   72.6428    1.5217 H   0  0  0  0  0  0  0  0  0  0  0  0
   19.1737   71.7644   -0.2361 H   0  0  0  0  0  0  0  0  0  0  0  0
   22.1864   73.5733    3.2039 H   0  0  0  0  0  0  0  0  0  0  0  0
   24.8264   69.8782    1.7651 O   0  0  0  0  0  0  0  0  0  0  0  0
   25.7494   71.8919    2.3056 O   0  0  0  0  0  0  0  0  0  0  0  0
   24.8824   71.2330    1.7514 C   0  0  0  0  0  0  0  0  0  0  0  0
  1  4  1  0
  1 24  1  0
  1  2  1  1
  1  3  2  0
 25 28  1  0
 25 24  1  0
 25 26  1  6
 25 27  2  0
  6 11  1  0
  6 12  1  0
 29 36  1  0
 29 37  1  0
  9  7  1  6
  7 13  1  0
 10  8  1  6
  8 14  1  0
  4  5  1  0
 36 28  1  1
 33 30  1  1
 30 38  1  0
 34 31  1  6
 31 39  1  0
 35 32  1  6
 32 40  1  0
 41 43  1  0
 15 19  2  0
 42 43  2  0
 16 22  2  0
 12 17  1  1
 17 19  1  0
 17 20  1  0
 18 19  1  0
 18 22  1  0
 18 23  1  0
  9 10  1  0
  9 11  1  0
 10 12  1  0
 11  5  1  1
 33 34  1  0
 33 35  1  0
 34 36  1  0
 35 37  1  0
 37 43  1  1
 20 21  2  0
 21 22  1  0
M  CHG  3   2  -1  26  -1  41  -1
M  END
>  <COMPND>  (13) 
    udp_gluA.pdb 

>  <AUTHOR>  (13) 
    GENERATED BY OPEN BABEL 3.1.1

>  <MASTER>  (13) 
        0    0    0    0    0    0    0    0   56    0   56    0

>  <minimizedAffinity>  (13) 
-8.40835

>  <CNNscore>  (13) 
0.6438809037

>  <CNNaffinity>  (13) 
4.4476671219

>  <CNN_VS>  (13) 
2.8637678623

>  <CNNaffinity_variance>  (13) 
0.2035632432

$$$$
14
     RDKit          3D

 43 45  0  0  0  0  0  0  0  0999 V2000
   20.1166   72.2916   -1.0782 P   0  0  2  0  0  0  0  0  0  0  0  0
   19.9325   70.6925   -1.2457 O   0  0  0  0  0  0  0  0  0  0  0  0
   18.8519   73.0490   -0.7979 O   0  0  0  0  0  0  0  0  0  0  0  0
   20.9185   72.7323   -2.4126 O   0  0  0  0  0  0  0  0  0  0  0  0
   20.3183   72.4923   -3.6723 C   0  0  0  0  0  0  0  0  0  0  0  0
   20.7674   71.0027   -5.5044 O   0  0  0  0  0  0  0  0  0  0  0  0
   23.2206   72.6536   -6.0022 O   0  0  0  0  0  0  0  0  0  0  0  0
   21.4858   73.5796   -7.8914 O   0  0  0  0  0  0  0  0  0  0  0  0
   21.9287   73.0666   -5.5563 C   0  0  1  0  0  0  0  0  0  0  0  0
   20.9434   73.0374   -6.7055 C   0  0  2  0  0  0  0  0  0  0  0  0
   21.3799   71.9827   -4.6385 C   0  0  1  0  0  0  0  0  0  0  0  0
   20.6425   71.5532   -6.8253 C   0  0  2  0  0  0  0  0  0  0  0  0
   23.5917   73.3304   -6.5904 H   0  0  0  0  0  0  0  0  0  0  0  0
   21.6596   74.5260   -7.7642 H   0  0  0  0  0  0  0  0  0  0  0  0
   19.9789   69.5073   -8.6557 O   0  0  0  0  0  0  0  0  0  0  0  0
   15.5206   70.6764   -8.6268 O   0  0  0  0  0  0  0  0  0  0  0  0
   19.3161   71.3006   -7.3129 N   0  0  0  0  0  0  0  0  0  0  0  0
   17.7592   70.0922   -8.6404 N   0  0  0  0  0  0  0  0  0  0  0  0
   19.0901   70.2478   -8.2308 C   0  0  0  0  0  0  0  0  0  0  0  0
   18.2566   72.0893   -6.8813 C   0  0  0  0  0  0  0  0  0  0  0  0
   16.9934   71.9288   -7.2805 C   0  0  0  0  0  0  0  0  0  0  0  0
   16.6720   70.8517   -8.2396 C   0  0  0  0  0  0  0  0  0  0  0  0
   17.5775   69.3669   -9.2809 H   0  0  0  0  0  0  0  0  0  0  0  0
   21.2414   72.4083    0.0769 O   0  0  0  0  0  0  0  0  0  0  0  0
   22.3613   71.3556    0.5781 P   0  0  2  0  0  0  0  0  0  0  0  0
   23.2039   71.0430   -0.7683 O   0  0  0  0  0  0  0  0  0  0  0  0
   21.8024   70.1374    1.2546 O   0  0  0  0  0  0  0  0  0  0  0  0
   23.3636   72.2285    1.4923 O   0  0  0  0  0  0  0  0  0  0  0  0
   25.1671   71.9173    2.9955 O   0  0  0  0  0  0  0  0  0  0  0  0
   22.7189   74.4653    5.1360 O   0  0  0  0  0  0  0  0  0  0  0  0
   21.5803   72.2381    3.6267 O   0  0  0  0  0  0  0  0  0  0  0  0
   25.1314   75.4802    3.8708 O   0  0  0  0  0  0  0  0  0  0  0  0
   23.3102   73.9056    3.9633 C   0  0  2  0  0  0  0  0  0  0  0  0
   22.9692   72.4176    3.8786 C   0  0  2  0  0  0  0  0  0  0  0  0
   24.8251   74.0999    4.0587 C   0  0  1  0  0  0  0  0  0  0  0  0
   23.7690   71.7354    2.7679 C   0  0  1  0  0  0  0  0  0  0  0  0
   25.5589   73.2882    2.9951 C   0  0  1  0  0  0  0  0  0  0  0  0
   21.7559   74.3534    5.0976 H   0  0  0  0  0  0  0  0  0  0  0  0
   21.0667   72.6688    4.3275 H   0  0  0  0  0  0  0  0  0  0  0  0
   24.6703   76.0079    4.5415 H   0  0  0  0  0  0  0  0  0  0  0  0
   27.5247   72.0096    2.9465 O   0  0  0  0  0  0  0  0  0  0  0  0
   27.6798   74.1243    3.7851 O   0  0  0  0  0  0  0  0  0  0  0  0
   27.0209   73.2193    3.2953 C   0  0  0  0  0  0  0  0  0  0  0  0
  1  4  1  0
  1 24  1  0
  1  2  1  6
  1  3  2  0
 25 28  1  0
 25 24  1  0
 25 26  1  6
 25 27  2  0
  6 11  1  0
  6 12  1  0
 29 36  1  0
 29 37  1  0
  9  7  1  6
  7 13  1  0
 10  8  1  6
  8 14  1  0
  4  5  1  0
 36 28  1  6
 33 30  1  1
 30 38  1  0
 34 31  1  6
 31 39  1  0
 35 32  1  6
 32 40  1  0
 41 43  1  0
 15 19  2  0
 42 43  2  0
 16 22  2  0
 12 17  1  1
 17 19  1  0
 17 20  1  0
 18 19  1  0
 18 22  1  0
 18 23  1  0
  9 10  1  0
  9 11  1  0
 10 12  1  0
 11  5  1  1
 33 34  1  0
 33 35  1  0
 34 36  1  0
 35 37  1  0
 37 43  1  1
 20 21  2  0
 21 22  1  0
M  CHG  3   2  -1  26  -1  41  -1
M  END
>  <COMPND>  (14) 
    udp_gluA.pdb 

>  <AUTHOR>  (14) 
    GENERATED BY OPEN BABEL 3.1.1

>  <MASTER>  (14) 
        0    0    0    0    0    0    0    0   56    0   56    0

>  <minimizedAffinity>  (14) 
-7.43291

>  <CNNscore>  (14) 
0.6259015799

>  <CNNaffinity>  (14) 
4.3101091385

>  <CNN_VS>  (14) 
2.6977040768

>  <CNNaffinity_variance>  (14) 
0.0622740611

$$$$
15
     RDKit          3D

 43 45  0  0  0  0  0  0  0  0999 V2000
   21.9354   72.5025   -5.8896 P   0  0  2  0  0  0  0  0  0  0  0  0
   21.3630   73.9573   -5.4714 O   0  0  0  0  0  0  0  0  0  0  0  0
   23.0893   72.5273   -6.8486 O   0  0  0  0  0  0  0  0  0  0  0  0
   20.6236   71.6979   -6.3894 O   0  0  0  0  0  0  0  0  0  0  0  0
   20.0583   72.0380   -7.6421 C   0  0  0  0  0  0  0  0  0  0  0  0
   18.9009   69.9821   -7.1822 O   0  0  0  0  0  0  0  0  0  0  0  0
   18.0803   70.0157  -10.0662 O   0  0  0  0  0  0  0  0  0  0  0  0
   15.8432   70.9249   -8.7995 O   0  0  0  0  0  0  0  0  0  0  0  0
   18.2409   71.1070   -9.1596 C   0  0  1  0  0  0  0  0  0  0  0  0
   17.0910   71.1445   -8.1755 C   0  0  2  0  0  0  0  0  0  0  0  0
   19.4249   70.7954   -8.2544 C   0  0  1  0  0  0  0  0  0  0  0  0
   17.4657   70.0329   -7.2101 C   0  0  2  0  0  0  0  0  0  0  0  0
   17.3295   70.1920  -10.6551 H   0  0  0  0  0  0  0  0  0  0  0  0
   15.6501   71.6595   -9.4036 H   0  0  0  0  0  0  0  0  0  0  0  0
   16.3173   68.0602   -5.5469 O   0  0  0  0  0  0  0  0  0  0  0  0
   15.6410   71.0762   -2.1278 O   0  0  0  0  0  0  0  0  0  0  0  0
   16.9811   70.2753   -5.8807 N   0  0  0  0  0  0  0  0  0  0  0  0
   15.9806   69.5645   -3.8460 N   0  0  0  0  0  0  0  0  0  0  0  0
   16.4218   69.2150   -5.1291 C   0  0  0  0  0  0  0  0  0  0  0  0
   17.0639   71.5501   -5.3340 C   0  0  0  0  0  0  0  0  0  0  0  0
   16.6392   71.8679   -4.1095 C   0  0  0  0  0  0  0  0  0  0  0  0
   16.0411   70.8180   -3.2590 C   0  0  0  0  0  0  0  0  0  0  0  0
   15.5856   68.8434   -3.3045 H   0  0  0  0  0  0  0  0  0  0  0  0
   22.2606   71.8165   -4.4625 O   0  0  0  0  0  0  0  0  0  0  0  0
   23.4835   72.0435   -3.4298 P   0  0  2  0  0  0  0  0  0  0  0  0
   24.4502   73.0725   -4.2218 O   0  0  0  0  0  0  0  0  0  0  0  0
   24.1584   70.7778   -2.9867 O   0  0  0  0  0  0  0  0  0  0  0  0
   22.8506   72.9194   -2.2321 O   0  0  0  0  0  0  0  0  0  0  0  0
   21.2412   71.9955   -0.7605 O   0  0  0  0  0  0  0  0  0  0  0  0
   20.6595   76.0479   -0.2055 O   0  0  0  0  0  0  0  0  0  0  0  0
   21.0845   74.9663   -2.8858 O   0  0  0  0  0  0  0  0  0  0  0  0
   22.0666   74.4872    1.8032 O   0  0  0  0  0  0  0  0  0  0  0  0
   21.4087   74.8650   -0.4836 C   0  0  2  0  0  0  0  0  0  0  0  0
   20.8399   74.1791   -1.7259 C   0  0  2  0  0  0  0  0  0  0  0  0
   21.3009   73.9405    0.7312 C   0  0  1  0  0  0  0  0  0  0  0  0
   21.4638   72.7966   -1.9216 C   0  0  1  0  0  0  0  0  0  0  0  0
   21.8294   72.5439    0.4170 C   0  0  1  0  0  0  0  0  0  0  0  0
   20.7134   76.6507   -0.9638 H   0  0  0  0  0  0  0  0  0  0  0  0
   20.6916   75.8450   -2.7684 H   0  0  0  0  0  0  0  0  0  0  0  0
   21.7404   75.3762    2.0130 H   0  0  0  0  0  0  0  0  0  0  0  0
   21.5694   70.2974    1.0393 O   0  0  0  0  0  0  0  0  0  0  0  0
   21.0208   71.8765    2.5900 O   0  0  0  0  0  0  0  0  0  0  0  0
   21.4249   71.5725    1.4777 C   0  0  0  0  0  0  0  0  0  0  0  0
  1  4  1  0
  1 24  1  0
  1  2  1  1
  1  3  2  0
 25 28  1  0
 25 24  1  0
 25 26  1  6
 25 27  2  0
  6 11  1  0
  6 12  1  0
 29 36  1  0
 29 37  1  0
  9  7  1  6
  7 13  1  0
 10  8  1  6
  8 14  1  0
  4  5  1  0
 36 28  1  1
 33 30  1  1
 30 38  1  0
 34 31  1  6
 31 39  1  0
 35 32  1  1
 32 40  1  0
 41 43  1  0
 15 19  2  0
 42 43  2  0
 16 22  2  0
 12 17  1  1
 17 19  1  0
 17 20  1  0
 18 19  1  0
 18 22  1  0
 18 23  1  0
  9 10  1  0
  9 11  1  0
 10 12  1  0
 11  5  1  1
 33 34  1  0
 33 35  1  0
 34 36  1  0
 35 37  1  0
 37 43  1  1
 20 21  2  0
 21 22  1  0
M  CHG  3   2  -1  26  -1  41  -1
M  END
>  <COMPND>  (15) 
    udp_gluA.pdb 

>  <AUTHOR>  (15) 
    GENERATED BY OPEN BABEL 3.1.1

>  <MASTER>  (15) 
        0    0    0    0    0    0    0    0   56    0   56    0

>  <minimizedAffinity>  (15) 
-8.35790

>  <CNNscore>  (15) 
0.6045547128

>  <CNNaffinity>  (15) 
4.4236783981

>  <CNN_VS>  (15) 
2.6743555069

>  <CNNaffinity_variance>  (15) 
0.3990330100

$$$$
16
     RDKit          3D

 43 45  0  0  0  0  0  0  0  0999 V2000
   20.7070   75.5663   -3.9149 P   0  0  2  0  0  0  0  0  0  0  0  0
   21.9490   76.2265   -4.7151 O   0  0  0  0  0  0  0  0  0  0  0  0
   19.6073   76.5210   -3.5527 O   0  0  0  0  0  0  0  0  0  0  0  0
   21.4078   74.7987   -2.6748 O   0  0  0  0  0  0  0  0  0  0  0  0
   21.1809   75.2837   -1.3642 C   0  0  0  0  0  0  0  0  0  0  0  0
   20.6073   73.1061   -0.5234 O   0  0  0  0  0  0  0  0  0  0  0  0
   18.3917   74.4699    0.9674 O   0  0  0  0  0  0  0  0  0  0  0  0
   20.2831   74.1198    2.9003 O   0  0  0  0  0  0  0  0  0  0  0  0
   19.7106   74.9369    0.6829 C   0  0  1  0  0  0  0  0  0  0  0  0
   20.7189   74.2267    1.5611 C   0  0  2  0  0  0  0  0  0  0  0  0
   20.0942   74.4436   -0.7056 C   0  0  1  0  0  0  0  0  0  0  0  0
   20.8385   72.8763    0.8755 C   0  0  2  0  0  0  0  0  0  0  0  0
   18.1245   74.7727    1.8498 H   0  0  0  0  0  0  0  0  0  0  0  0
   20.2233   75.0055    3.2925 H   0  0  0  0  0  0  0  0  0  0  0  0
   21.3425   70.0975    0.8996 O   0  0  0  0  0  0  0  0  0  0  0  0
   25.8634   70.7380    1.5284 O   0  0  0  0  0  0  0  0  0  0  0  0
   22.1378   72.2895    1.0438 N   0  0  0  0  0  0  0  0  0  0  0  0
   23.5935   70.4191    1.2138 N   0  0  0  0  0  0  0  0  0  0  0  0
   22.2824   70.8820    1.0410 C   0  0  0  0  0  0  0  0  0  0  0  0
   23.2512   73.1048    1.2073 C   0  0  0  0  0  0  0  0  0  0  0  0
   24.4946   72.6490    1.3708 C   0  0  0  0  0  0  0  0  0  0  0  0
   24.7322   71.1906    1.3808 C   0  0  0  0  0  0  0  0  0  0  0  0
   23.7189   69.4426    1.2174 H   0  0  0  0  0  0  0  0  0  0  0  0
   20.2545   74.3541   -4.8836 O   0  0  0  0  0  0  0  0  0  0  0  0
   20.0373   72.7803   -4.5840 P   0  0  2  0  0  0  0  0  0  0  0  0
   18.8574   72.7742   -3.4757 O   0  0  0  0  0  0  0  0  0  0  0  0
   21.2834   72.0556   -4.1645 O   0  0  0  0  0  0  0  0  0  0  0  0
   19.3436   72.2011   -5.9203 O   0  0  0  0  0  0  0  0  0  0  0  0
   18.6978   69.9578   -5.5210 O   0  0  0  0  0  0  0  0  0  0  0  0
   17.5370   70.4798   -9.4514 O   0  0  0  0  0  0  0  0  0  0  0  0
   20.0970   71.5277   -8.5117 O   0  0  0  0  0  0  0  0  0  0  0  0
   15.5488   70.4788   -7.3306 O   0  0  0  0  0  0  0  0  0  0  0  0
   17.7951   70.8779   -8.1050 C   0  0  2  0  0  0  0  0  0  0  0  0
   19.2681   70.6372   -7.7736 C   0  0  2  0  0  0  0  0  0  0  0  0
   16.8997   70.0445   -7.1855 C   0  0  1  0  0  0  0  0  0  0  0  0
   19.5321   70.8337   -6.2801 C   0  0  1  0  0  0  0  0  0  0  0  0
   17.3069   70.1977   -5.7228 C   0  0  1  0  0  0  0  0  0  0  0  0
   18.0951   70.9962  -10.0541 H   0  0  0  0  0  0  0  0  0  0  0  0
   19.9345   71.4086   -9.4603 H   0  0  0  0  0  0  0  0  0  0  0  0
   15.2773   70.3865   -8.2572 H   0  0  0  0  0  0  0  0  0  0  0  0
   16.1901   68.1364   -5.6505 O   0  0  0  0  0  0  0  0  0  0  0  0
   16.5641   69.1871   -3.6617 O   0  0  0  0  0  0  0  0  0  0  0  0
   16.6595   69.1482   -4.8792 C   0  0  0  0  0  0  0  0  0  0  0  0
  1  4  1  0
  1 24  1  0
  1  2  1  6
  1  3  2  0
 25 28  1  0
 25 24  1  0
 25 26  1  1
 25 27  2  0
  6 11  1  0
  6 12  1  0
 29 36  1  0
 29 37  1  0
  9  7  1  1
  7 13  1  0
 10  8  1  1
  8 14  1  0
  4  5  1  0
 36 28  1  1
 33 30  1  6
 30 38  1  0
 34 31  1  6
 31 39  1  0
 35 32  1  1
 32 40  1  0
 41 43  1  0
 15 19  2  0
 42 43  2  0
 16 22  2  0
 12 17  1  6
 17 19  1  0
 17 20  1  0
 18 19  1  0
 18 22  1  0
 18 23  1  0
  9 10  1  0
  9 11  1  0
 10 12  1  0
 11  5  1  1
 33 34  1  0
 33 35  1  0
 34 36  1  0
 35 37  1  0
 37 43  1  1
 20 21  2  0
 21 22  1  0
M  CHG  3   2  -1  26  -1  41  -1
M  END
>  <COMPND>  (16) 
    udp_gluA.pdb 

>  <AUTHOR>  (16) 
    GENERATED BY OPEN BABEL 3.1.1

>  <MASTER>  (16) 
        0    0    0    0    0    0    0    0   56    0   56    0

>  <minimizedAffinity>  (16) 
-6.95004

>  <CNNscore>  (16) 
0.6040664315

>  <CNNaffinity>  (16) 
4.4454035759

>  <CNN_VS>  (16) 
2.6853191853

>  <CNNaffinity_variance>  (16) 
0.1323736012

$$$$
17
     RDKit          3D

 43 45  0  0  0  0  0  0  0  0999 V2000
   22.2411   71.2085    0.0876 P   0  0  2  0  0  0  0  0  0  0  0  0
   21.4744   70.0717    0.9471 O   0  0  0  0  0  0  0  0  0  0  0  0
   23.7253   71.0209   -0.0294 O   0  0  0  0  0  0  0  0  0  0  0  0
   21.7596   72.5974    0.7637 O   0  0  0  0  0  0  0  0  0  0  0  0
   22.4062   73.0342    1.9451 C   0  0  0  0  0  0  0  0  0  0  0  0
   22.3591   72.5053    4.2894 O   0  0  0  0  0  0  0  0  0  0  0  0
   19.4827   73.3505    4.2322 O   0  0  0  0  0  0  0  0  0  0  0  0
   20.7228   75.5296    5.3044 O   0  0  0  0  0  0  0  0  0  0  0  0
   20.5963   73.8861    3.5169 C   0  0  1  0  0  0  0  0  0  0  0  0
   21.4744   74.6977    4.4456 C   0  0  2  0  0  0  0  0  0  0  0  0
   21.5130   72.7301    3.1409 C   0  0  1  0  0  0  0  0  0  0  0  0
   22.2284   73.6125    5.1951 C   0  0  2  0  0  0  0  0  0  0  0  0
   18.8826   74.0707    4.4832 H   0  0  0  0  0  0  0  0  0  0  0  0
   20.2619   76.2037    4.7797 H   0  0  0  0  0  0  0  0  0  0  0  0
   23.0326   73.9318    7.8836 O   0  0  0  0  0  0  0  0  0  0  0  0
   27.2738   75.2485    6.6495 O   0  0  0  0  0  0  0  0  0  0  0  0
   23.5370   74.0376    5.6048 N   0  0  0  0  0  0  0  0  0  0  0  0
   25.1439   74.5883    7.2664 N   0  0  0  0  0  0  0  0  0  0  0  0
   23.8387   74.1663    6.9812 C   0  0  0  0  0  0  0  0  0  0  0  0
   24.5053   74.3201    4.6490 C   0  0  0  0  0  0  0  0  0  0  0  0
   25.7453   74.7212    4.9362 C   0  0  0  0  0  0  0  0  0  0  0  0
   26.1414   74.8818    6.3506 C   0  0  0  0  0  0  0  0  0  0  0  0
   25.3768   74.6872    8.2178 H   0  0  0  0  0  0  0  0  0  0  0  0
   21.4477   71.1956   -1.3206 O   0  0  0  0  0  0  0  0  0  0  0  0
   21.6771   72.0465   -2.6760 P   0  0  2  0  0  0  0  0  0  0  0  0
   22.9366   71.3036   -3.3703 O   0  0  0  0  0  0  0  0  0  0  0  0
   21.8731   73.5182   -2.4534 O   0  0  0  0  0  0  0  0  0  0  0  0
   20.4174   71.6728   -3.6120 O   0  0  0  0  0  0  0  0  0  0  0  0
   19.4051   69.6306   -4.2552 O   0  0  0  0  0  0  0  0  0  0  0  0
   19.1460   71.8321   -7.7415 O   0  0  0  0  0  0  0  0  0  0  0  0
   21.5809   71.8939   -6.1286 O   0  0  0  0  0  0  0  0  0  0  0  0
   16.7883   71.4353   -6.0878 O   0  0  0  0  0  0  0  0  0  0  0  0
   19.1779   71.6271   -6.3291 C   0  0  2  0  0  0  0  0  0  0  0  0
   20.5066   70.9811   -5.9357 C   0  0  2  0  0  0  0  0  0  0  0  0
   18.0100   70.7106   -5.9578 C   0  0  1  0  0  0  0  0  0  0  0  0
   20.4870   70.5372   -4.4723 C   0  0  1  0  0  0  0  0  0  0  0  0
   18.1296   70.2099   -4.5213 C   0  0  1  0  0  0  0  0  0  0  0  0
   19.8794   72.4119   -8.0009 H   0  0  0  0  0  0  0  0  0  0  0  0
   21.5992   72.1800   -7.0550 H   0  0  0  0  0  0  0  0  0  0  0  0
   16.7000   71.7597   -6.9976 H   0  0  0  0  0  0  0  0  0  0  0  0
   17.1725   68.7446   -2.9597 O   0  0  0  0  0  0  0  0  0  0  0  0
   16.5192   68.5205   -5.1328 O   0  0  0  0  0  0  0  0  0  0  0  0
   17.1882   69.0762   -4.2746 C   0  0  0  0  0  0  0  0  0  0  0  0
  1  4  1  0
  1 24  1  0
  1  2  1  1
  1  3  2  0
 25 28  1  0
 25 24  1  0
 25 26  1  6
 25 27  2  0
  6 11  1  0
  6 12  1  0
 29 36  1  0
 29 37  1  0
  9  7  1  1
  7 13  1  0
 10  8  1  1
  8 14  1  0
  4  5  1  0
 36 28  1  1
 33 30  1  6
 30 38  1  0
 34 31  1  1
 31 39  1  0
 35 32  1  1
 32 40  1  0
 41 43  1  0
 15 19  2  0
 42 43  2  0
 16 22  2  0
 12 17  1  6
 17 19  1  0
 17 20  1  0
 18 19  1  0
 18 22  1  0
 18 23  1  0
  9 10  1  0
  9 11  1  0
 10 12  1  0
 11  5  1  6
 33 34  1  0
 33 35  1  0
 34 36  1  0
 35 37  1  0
 37 43  1  6
 20 21  2  0
 21 22  1  0
M  CHG  3   2  -1  26  -1  41  -1
M  END
>  <COMPND>  (17) 
    udp_gluA.pdb 

>  <AUTHOR>  (17) 
    GENERATED BY OPEN BABEL 3.1.1

>  <MASTER>  (17) 
        0    0    0    0    0    0    0    0   56    0   56    0

>  <minimizedAffinity>  (17) 
-6.78419

>  <CNNscore>  (17) 
0.5795608163

>  <CNNaffinity>  (17) 
4.2381582260

>  <CNN_VS>  (17) 
2.4562704563

>  <CNNaffinity_variance>  (17) 
0.2350368500

$$$$
18
     RDKit          3D

 43 45  0  0  0  0  0  0  0  0999 V2000
   22.5797   74.3234   -1.3917 P   0  0  2  0  0  0  0  0  0  0  0  0
   23.2456   75.5232   -2.2495 O   0  0  0  0  0  0  0  0  0  0  0  0
   21.0887   74.2077   -1.5159 O   0  0  0  0  0  0  0  0  0  0  0  0
   23.1439   74.5573    0.1066 O   0  0  0  0  0  0  0  0  0  0  0  0
   22.2143   74.7571    1.1556 C   0  0  0  0  0  0  0  0  0  0  0  0
   22.7236   72.4291    1.4696 O   0  0  0  0  0  0  0  0  0  0  0  0
   20.2949   72.3259    3.2252 O   0  0  0  0  0  0  0  0  0  0  0  0
   22.3320   72.4559    5.0333 O   0  0  0  0  0  0  0  0  0  0  0  0
   21.2475   73.3767    3.0614 C   0  0  1  0  0  0  0  0  0  0  0  0
   22.5446   73.0213    3.7567 C   0  0  2  0  0  0  0  0  0  0  0  0
   21.6678   73.4059    1.5983 C   0  0  1  0  0  0  0  0  0  0  0  0
   23.1678   72.0397    2.7789 C   0  0  2  0  0  0  0  0  0  0  0  0
   20.0114   72.2876    4.1525 H   0  0  0  0  0  0  0  0  0  0  0  0
   21.9342   73.1200    5.6188 H   0  0  0  0  0  0  0  0  0  0  0  0
   24.8241   69.8622    2.0777 O   0  0  0  0  0  0  0  0  0  0  0  0
   28.6605   72.2643    2.9473 O   0  0  0  0  0  0  0  0  0  0  0  0
   24.6027   72.0687    2.8129 N   0  0  0  0  0  0  0  0  0  0  0  0
   26.7332   71.0603    2.5124 N   0  0  0  0  0  0  0  0  0  0  0  0
   25.3410   70.9203    2.4410 C   0  0  0  0  0  0  0  0  0  0  0  0
   25.2638   73.2249    3.2094 C   0  0  0  0  0  0  0  0  0  0  0  0
   26.5915   73.3432    3.2723 C   0  0  0  0  0  0  0  0  0  0  0  0
   27.4363   72.1891    2.9012 C   0  0  0  0  0  0  0  0  0  0  0  0
   27.2684   70.2734    2.2603 H   0  0  0  0  0  0  0  0  0  0  0  0
   23.3998   73.0226   -1.8899 O   0  0  0  0  0  0  0  0  0  0  0  0
   23.5744   72.3775   -3.3620 P   0  0  2  0  0  0  0  0  0  0  0  0
   24.0237   70.8545   -3.0475 O   0  0  0  0  0  0  0  0  0  0  0  0
   24.5185   73.1287   -4.2555 O   0  0  0  0  0  0  0  0  0  0  0  0
   22.0713   72.2488   -3.9334 O   0  0  0  0  0  0  0  0  0  0  0  0
   20.6264   70.3757   -4.0462 O   0  0  0  0  0  0  0  0  0  0  0  0
   19.5431   72.4781   -7.4336 O   0  0  0  0  0  0  0  0  0  0  0  0
   22.3572   72.2005   -6.6997 O   0  0  0  0  0  0  0  0  0  0  0  0
   17.8331   72.5169   -5.0830 O   0  0  0  0  0  0  0  0  0  0  0  0
   20.0106   72.3157   -6.0945 C   0  0  2  0  0  0  0  0  0  0  0  0
   21.2896   71.4782   -6.0970 C   0  0  2  0  0  0  0  0  0  0  0  0
   18.9141   71.6104   -5.2932 C   0  0  1  0  0  0  0  0  0  0  0  0
   21.6921   71.0899   -4.6736 C   0  0  1  0  0  0  0  0  0  0  0  0
   19.4297   71.1430   -3.9351 C   0  0  1  0  0  0  0  0  0  0  0  0
   20.2236   72.9243   -7.9619 H   0  0  0  0  0  0  0  0  0  0  0  0
   22.1085   72.4503   -7.6031 H   0  0  0  0  0  0  0  0  0  0  0  0
   17.4958   72.8221   -5.9397 H   0  0  0  0  0  0  0  0  0  0  0  0
   18.7481   70.0280   -1.9874 O   0  0  0  0  0  0  0  0  0  0  0  0
   17.5637   69.6141   -3.8913 O   0  0  0  0  0  0  0  0  0  0  0  0
   18.4729   70.1832   -3.3061 C   0  0  0  0  0  0  0  0  0  0  0  0
  1  4  1  0
  1 24  1  0
  1  2  1  6
  1  3  2  0
 25 28  1  0
 25 24  1  0
 25 26  1  1
 25 27  2  0
  6 11  1  0
  6 12  1  0
 29 36  1  0
 29 37  1  0
  9  7  1  6
  7 13  1  0
 10  8  1  1
  8 14  1  0
  4  5  1  0
 36 28  1  1
 33 30  1  6
 30 38  1  0
 34 31  1  1
 31 39  1  0
 35 32  1  1
 32 40  1  0
 41 43  1  0
 15 19  2  0
 42 43  2  0
 16 22  2  0
 12 17  1  6
 17 19  1  0
 17 20  1  0
 18 19  1  0
 18 22  1  0
 18 23  1  0
  9 10  1  0
  9 11  1  0
 10 12  1  0
 11  5  1  1
 33 34  1  0
 33 35  1  0
 34 36  1  0
 35 37  1  0
 37 43  1  6
 20 21  2  0
 21 22  1  0
M  CHG  3   2  -1  26  -1  41  -1
M  END
>  <COMPND>  (18) 
    udp_gluA.pdb 

>  <AUTHOR>  (18) 
    GENERATED BY OPEN BABEL 3.1.1

>  <MASTER>  (18) 
        0    0    0    0    0    0    0    0   56    0   56    0

>  <minimizedAffinity>  (18) 
-7.29560

>  <CNNscore>  (18) 
0.5689083338

>  <CNNaffinity>  (18) 
4.2416090965

>  <CNN_VS>  (18) 
2.4130866528

>  <CNNaffinity_variance>  (18) 
0.2825498283

$$$$
19
     RDKit          3D

 43 45  0  0  0  0  0  0  0  0999 V2000
   22.6099   71.4309    0.4764 P   0  0  2  0  0  0  0  0  0  0  0  0
   21.6438   70.2580    1.0329 O   0  0  0  0  0  0  0  0  0  0  0  0
   24.0076   70.9967    0.1453 O   0  0  0  0  0  0  0  0  0  0  0  0
   22.4820   72.5997    1.5879 O   0  0  0  0  0  0  0  0  0  0  0  0
   23.2600   72.5000    2.7665 C   0  0  0  0  0  0  0  0  0  0  0  0
   24.5354   73.8323    4.3079 O   0  0  0  0  0  0  0  0  0  0  0  0
   23.5066   76.2169    2.8090 O   0  0  0  0  0  0  0  0  0  0  0  0
   26.0294   75.9306    1.8141 O   0  0  0  0  0  0  0  0  0  0  0  0
   23.8718   74.9279    2.3154 C   0  0  1  0  0  0  0  0  0  0  0  0
   25.3783   74.7778    2.3057 C   0  0  2  0  0  0  0  0  0  0  0  0
   23.4552   73.8929    3.3515 C   0  0  1  0  0  0  0  0  0  0  0  0
   25.6787   74.5169    3.7718 C   0  0  2  0  0  0  0  0  0  0  0  0
   23.7629   76.8950    2.1639 H   0  0  0  0  0  0  0  0  0  0  0  0
   25.8066   76.0531    0.8774 H   0  0  0  0  0  0  0  0  0  0  0  0
   27.5060   74.7955    5.9072 O   0  0  0  0  0  0  0  0  0  0  0  0
   30.1087   71.3139    4.3748 O   0  0  0  0  0  0  0  0  0  0  0  0
   26.8425   73.6966    3.9551 N   0  0  0  0  0  0  0  0  0  0  0  0
   28.8011   73.0618    5.1414 N   0  0  0  0  0  0  0  0  0  0  0  0
   27.6960   73.9193    5.0615 C   0  0  0  0  0  0  0  0  0  0  0  0
   27.1277   72.6843    3.0468 C   0  0  0  0  0  0  0  0  0  0  0  0
   28.1848   71.8750    3.1363 C   0  0  0  0  0  0  0  0  0  0  0  0
   29.1269   72.0416    4.2624 C   0  0  0  0  0  0  0  0  0  0  0  0
   29.4109   73.1990    5.9021 H   0  0  0  0  0  0  0  0  0  0  0  0
   21.7755   72.0255   -0.7739 O   0  0  0  0  0  0  0  0  0  0  0  0
   21.7170   73.5156   -1.3984 P   0  0  2  0  0  0  0  0  0  0  0  0
   23.1994   74.0970   -1.1076 O   0  0  0  0  0  0  0  0  0  0  0  0
   20.6027   74.3656   -0.8601 O   0  0  0  0  0  0  0  0  0  0  0  0
   21.6746   73.2887   -2.9951 O   0  0  0  0  0  0  0  0  0  0  0  0
   20.5871   71.4252   -3.9716 O   0  0  0  0  0  0  0  0  0  0  0  0
   23.1482   72.5853   -6.9987 O   0  0  0  0  0  0  0  0  0  0  0  0
   24.0577   72.5472   -4.2227 O   0  0  0  0  0  0  0  0  0  0  0  0
   20.3103   73.1898   -7.1766 O   0  0  0  0  0  0  0  0  0  0  0  0
   22.2926   72.7742   -5.8717 C   0  0  2  0  0  0  0  0  0  0  0  0
   22.8337   71.9837   -4.6801 C   0  0  2  0  0  0  0  0  0  0  0  0
   20.8956   72.2770   -6.2499 C   0  0  1  0  0  0  0  0  0  0  0  0
   21.8284   71.9744   -3.5277 C   0  0  1  0  0  0  0  0  0  0  0  0
   19.9897   72.1764   -5.0261 C   0  0  1  0  0  0  0  0  0  0  0  0
   24.0419   72.8942   -6.7817 H   0  0  0  0  0  0  0  0  0  0  0  0
   24.7002   72.5565   -4.9490 H   0  0  0  0  0  0  0  0  0  0  0  0
   20.8772   73.2631   -7.9602 H   0  0  0  0  0  0  0  0  0  0  0  0
   18.9407   70.6404   -6.4549 O   0  0  0  0  0  0  0  0  0  0  0  0
   17.7250   71.4158   -4.6886 O   0  0  0  0  0  0  0  0  0  0  0  0
   18.7579   71.3917   -5.3409 C   0  0  0  0  0  0  0  0  0  0  0  0
  1  4  1  0
  1 24  1  0
  1  2  1  1
  1  3  2  0
 25 28  1  0
 25 24  1  0
 25 26  1  6
 25 27  2  0
  6 11  1  0
  6 12  1  0
 29 36  1  0
 29 37  1  0
  9  7  1  1
  7 13  1  0
 10  8  1  1
  8 14  1  0
  4  5  1  0
 36 28  1  6
 33 30  1  6
 30 38  1  0
 34 31  1  1
 31 39  1  0
 35 32  1  6
 32 40  1  0
 41 43  1  0
 15 19  2  0
 42 43  2  0
 16 22  2  0
 12 17  1  6
 17 19  1  0
 17 20  1  0
 18 19  1  0
 18 22  1  0
 18 23  1  0
  9 10  1  0
  9 11  1  0
 10 12  1  0
 11  5  1  6
 33 34  1  0
 33 35  1  0
 34 36  1  0
 35 37  1  0
 37 43  1  6
 20 21  2  0
 21 22  1  0
M  CHG  3   2  -1  26  -1  41  -1
M  END
>  <COMPND>  (19) 
    udp_gluA.pdb 

>  <AUTHOR>  (19) 
    GENERATED BY OPEN BABEL 3.1.1

>  <MASTER>  (19) 
        0    0    0    0    0    0    0    0   56    0   56    0

>  <minimizedAffinity>  (19) 
-6.56270

>  <CNNscore>  (19) 
0.5394380093

>  <CNNaffinity>  (19) 
4.1668105125

>  <CNN_VS>  (19) 
2.2477359772

>  <CNNaffinity_variance>  (19) 
0.0195625462

$$$$
20
     RDKit          3D

 43 45  0  0  0  0  0  0  0  0999 V2000
   22.7949   73.0931   -4.0172 P   0  0  2  0  0  0  0  0  0  0  0  0
   24.1814   72.2735   -4.1747 O   0  0  0  0  0  0  0  0  0  0  0  0
   22.9417   74.5861   -3.9842 O   0  0  0  0  0  0  0  0  0  0  0  0
   22.0951   72.4270   -2.7193 O   0  0  0  0  0  0  0  0  0  0  0  0
   21.2719   71.2900   -2.9038 C   0  0  0  0  0  0  0  0  0  0  0  0
   20.6077   70.6464   -0.6852 O   0  0  0  0  0  0  0  0  0  0  0  0
   18.4290   72.6903   -0.9454 O   0  0  0  0  0  0  0  0  0  0  0  0
   20.2849   73.9878    0.5738 O   0  0  0  0  0  0  0  0  0  0  0  0
   19.7676   72.7283   -1.4407 C   0  0  1  0  0  0  0  0  0  0  0  0
   20.7388   72.9817   -0.3073 C   0  0  2  0  0  0  0  0  0  0  0  0
   20.1473   71.3198   -1.8768 C   0  0  1  0  0  0  0  0  0  0  0  0
   20.8150   71.6161    0.3540 C   0  0  2  0  0  0  0  0  0  0  0  0
   18.1639   73.5792   -0.6606 H   0  0  0  0  0  0  0  0  0  0  0  0
   20.2542   74.8376    0.1058 H   0  0  0  0  0  0  0  0  0  0  0  0
   21.3741   72.0555    3.0873 O   0  0  0  0  0  0  0  0  0  0  0  0
   25.7402   70.6589    2.6065 O   0  0  0  0  0  0  0  0  0  0  0  0
   22.0894   71.3757    0.9696 N   0  0  0  0  0  0  0  0  0  0  0  0
   23.5484   71.3605    2.8450 N   0  0  0  0  0  0  0  0  0  0  0  0
   22.2654   71.6293    2.3504 C   0  0  0  0  0  0  0  0  0  0  0  0
   23.1471   70.8927    0.2087 C   0  0  0  0  0  0  0  0  0  0  0  0
   24.3643   70.6412    0.6942 C   0  0  0  0  0  0  0  0  0  0  0  0
   24.6321   70.8803    2.1276 C   0  0  0  0  0  0  0  0  0  0  0  0
   23.6957   71.5313    3.8034 H   0  0  0  0  0  0  0  0  0  0  0  0
   21.9004   72.5314   -5.2408 O   0  0  0  0  0  0  0  0  0  0  0  0
   21.0430   73.3058   -6.3717 P   0  0  2  0  0  0  0  0  0  0  0  0
   21.9330   73.1097   -7.7095 O   0  0  0  0  0  0  0  0  0  0  0  0
   20.7345   74.7367   -6.0383 O   0  0  0  0  0  0  0  0  0  0  0  0
   19.7442   72.3783   -6.6071 O   0  0  0  0  0  0  0  0  0  0  0  0
   19.2262   70.1942   -5.8516 O   0  0  0  0  0  0  0  0  0  0  0  0
   17.4317   70.2442   -9.5725 O   0  0  0  0  0  0  0  0  0  0  0  0
   20.0839   71.4085   -9.1917 O   0  0  0  0  0  0  0  0  0  0  0  0
   15.8140   70.4825   -7.1690 O   0  0  0  0  0  0  0  0  0  0  0  0
   17.8948   70.7993   -8.3415 C   0  0  2  0  0  0  0  0  0  0  0  0
   19.4075   70.6068   -8.2303 C   0  0  2  0  0  0  0  0  0  0  0  0
   17.1806   70.0753   -7.1980 C   0  0  1  0  0  0  0  0  0  0  0  0
   19.9050   70.9790   -6.8329 C   0  0  1  0  0  0  0  0  0  0  0  0
   17.8156   70.4016   -5.8493 C   0  0  1  0  0  0  0  0  0  0  0  0
   17.8721   70.6889  -10.3139 H   0  0  0  0  0  0  0  0  0  0  0  0
   19.7728   71.1778  -10.0808 H   0  0  0  0  0  0  0  0  0  0  0  0
   15.3982   70.2805   -8.0217 H   0  0  0  0  0  0  0  0  0  0  0  0
   16.5713   68.4795   -5.3408 O   0  0  0  0  0  0  0  0  0  0  0  0
   17.6022   69.5403   -3.6056 O   0  0  0  0  0  0  0  0  0  0  0  0
   17.3391   69.4554   -4.7958 C   0  0  0  0  0  0  0  0  0  0  0  0
  1  4  1  0
  1 24  1  0
  1  2  1  6
  1  3  2  0
 25 28  1  0
 25 24  1  0
 25 26  1  6
 25 27  2  0
  6 11  1  0
  6 12  1  0
 29 36  1  0
 29 37  1  0
  9  7  1  1
  7 13  1  0
 10  8  1  1
  8 14  1  0
  4  5  1  0
 36 28  1  1
 33 30  1  6
 30 38  1  0
 34 31  1  6
 31 39  1  0
 35 32  1  1
 32 40  1  0
 41 43  1  0
 15 19  2  0
 42 43  2  0
 16 22  2  0
 12 17  1  6
 17 19  1  0
 17 20  1  0
 18 19  1  0
 18 22  1  0
 18 23  1  0
  9 10  1  0
  9 11  1  0
 10 12  1  0
 11  5  1  6
 33 34  1  0
 33 35  1  0
 34 36  1  0
 35 37  1  0
 37 43  1  1
 20 21  2  0
 21 22  1  0
M  CHG  3   2  -1  26  -1  41  -1
M  END
>  <COMPND>  (20) 
    udp_gluA.pdb 

>  <AUTHOR>  (20) 
    GENERATED BY OPEN BABEL 3.1.1

>  <MASTER>  (20) 
        0    0    0    0    0    0    0    0   56    0   56    0

>  <minimizedAffinity>  (20) 
-8.07950

>  <CNNscore>  (20) 
0.5340843797

>  <CNNaffinity>  (20) 
4.2750597000

>  <CNN_VS>  (20) 
2.2832427025

>  <CNNaffinity_variance>  (20) 
0.2202648222

$$$$
21
     RDKit          3D

 43 45  0  0  0  0  0  0  0  0999 V2000
   23.0449   71.6812   -2.6685 P   0  0  2  0  0  0  0  0  0  0  0  0
   23.3645   73.2068   -2.2338 O   0  0  0  0  0  0  0  0  0  0  0  0
   24.2060   70.9329   -3.2548 O   0  0  0  0  0  0  0  0  0  0  0  0
   21.7419   71.8128   -3.6187 O   0  0  0  0  0  0  0  0  0  0  0  0
   20.9143   70.6772   -3.7925 C   0  0  0  0  0  0  0  0  0  0  0  0
   18.9359   71.6819   -4.7167 O   0  0  0  0  0  0  0  0  0  0  0  0
   17.4428   70.3560   -2.4797 O   0  0  0  0  0  0  0  0  0  0  0  0
   16.9354   68.7092   -4.5932 O   0  0  0  0  0  0  0  0  0  0  0  0
   18.5661   69.8815   -3.2225 C   0  0  1  0  0  0  0  0  0  0  0  0
   18.1348   69.4548   -4.6096 C   0  0  2  0  0  0  0  0  0  0  0  0
   19.4681   71.0712   -3.5212 C   0  0  1  0  0  0  0  0  0  0  0  0
   17.9835   70.7903   -5.3177 C   0  0  2  0  0  0  0  0  0  0  0  0
   16.8518   69.6135   -2.2770 H   0  0  0  0  0  0  0  0  0  0  0  0
   17.0837   67.8683   -4.1319 H   0  0  0  0  0  0  0  0  0  0  0  0
   16.0557   70.1234   -7.2710 O   0  0  0  0  0  0  0  0  0  0  0  0
   19.1314   70.4664  -10.6866 O   0  0  0  0  0  0  0  0  0  0  0  0
   18.2533   70.6982   -6.7247 N   0  0  0  0  0  0  0  0  0  0  0  0
   17.5896   70.2939   -8.9702 N   0  0  0  0  0  0  0  0  0  0  0  0
   17.2141   70.3557   -7.6218 C   0  0  0  0  0  0  0  0  0  0  0  0
   19.5340   70.9472   -7.2030 C   0  0  0  0  0  0  0  0  0  0  0  0
   19.8767   70.8845   -8.4912 C   0  0  0  0  0  0  0  0  0  0  0  0
   18.8500   70.5324   -9.4938 C   0  0  0  0  0  0  0  0  0  0  0  0
   16.8835   70.0553   -9.6135 H   0  0  0  0  0  0  0  0  0  0  0  0
   22.4431   71.0363   -1.3139 O   0  0  0  0  0  0  0  0  0  0  0  0
   21.5657   71.6922   -0.1249 P   0  0  2  0  0  0  0  0  0  0  0  0
   20.9193   70.4038    0.6117 O   0  0  0  0  0  0  0  0  0  0  0  0
   20.5618   72.7077   -0.5885 O   0  0  0  0  0  0  0  0  0  0  0  0
   22.6542   72.2569    0.9233 O   0  0  0  0  0  0  0  0  0  0  0  0
   24.3835   71.4075    2.3006 O   0  0  0  0  0  0  0  0  0  0  0  0
   22.4030   73.9347    4.9004 O   0  0  0  0  0  0  0  0  0  0  0  0
   20.9030   72.2073    3.0836 O   0  0  0  0  0  0  0  0  0  0  0  0
   24.9485   74.7325    3.7452 O   0  0  0  0  0  0  0  0  0  0  0  0
   22.8890   73.4870    3.6349 C   0  0  2  0  0  0  0  0  0  0  0  0
   22.3029   72.1107    3.3193 C   0  0  2  0  0  0  0  0  0  0  0  0
   24.4153   73.4099    3.7150 C   0  0  1  0  0  0  0  0  0  0  0  0
   22.9742   71.4993    2.0887 C   0  0  1  0  0  0  0  0  0  0  0  0
   24.9999   72.6758    2.5117 C   0  0  1  0  0  0  0  0  0  0  0  0
   21.4348   73.9913    4.8734 H   0  0  0  0  0  0  0  0  0  0  0  0
   20.4707   72.5947    3.8604 H   0  0  0  0  0  0  0  0  0  0  0  0
   24.5842   75.2107    4.5064 H   0  0  0  0  0  0  0  0  0  0  0  0
   26.6604   71.0213    2.4277 O   0  0  0  0  0  0  0  0  0  0  0  0
   27.2823   73.0818    3.1804 O   0  0  0  0  0  0  0  0  0  0  0  0
   26.4303   72.3176    2.7525 C   0  0  0  0  0  0  0  0  0  0  0  0
  1  4  1  0
  1 24  1  0
  1  2  1  1
  1  3  2  0
 25 28  1  0
 25 24  1  0
 25 26  1  1
 25 27  2  0
  6 11  1  0
  6 12  1  0
 29 36  1  0
 29 37  1  0
  9  7  1  1
  7 13  1  0
 10  8  1  1
  8 14  1  0
  4  5  1  0
 36 28  1  6
 33 30  1  1
 30 38  1  0
 34 31  1  6
 31 39  1  0
 35 32  1  6
 32 40  1  0
 41 43  1  0
 15 19  2  0
 42 43  2  0
 16 22  2  0
 12 17  1  6
 17 19  1  0
 17 20  1  0
 18 19  1  0
 18 22  1  0
 18 23  1  0
  9 10  1  0
  9 11  1  0
 10 12  1  0
 11  5  1  6
 33 34  1  0
 33 35  1  0
 34 36  1  0
 35 37  1  0
 37 43  1  1
 20 21  2  0
 21 22  1  0
M  CHG  3   2  -1  26  -1  41  -1
M  END
>  <COMPND>  (21) 
    udp_gluA.pdb 

>  <AUTHOR>  (21) 
    GENERATED BY OPEN BABEL 3.1.1

>  <MASTER>  (21) 
        0    0    0    0    0    0    0    0   56    0   56    0

>  <minimizedAffinity>  (21) 
-8.21861

>  <CNNscore>  (21) 
0.9169200659

>  <CNNaffinity>  (21) 
4.8064570427

>  <CNN_VS>  (21) 
4.4071369171

>  <CNNaffinity_variance>  (21) 
0.0497014336

$$$$
22
     RDKit          3D

 43 45  0  0  0  0  0  0  0  0999 V2000
   22.6367   72.1421   -4.0491 P   0  0  2  0  0  0  0  0  0  0  0  0
   23.2934   72.5196   -5.4791 O   0  0  0  0  0  0  0  0  0  0  0  0
   23.2859   70.9912   -3.3378 O   0  0  0  0  0  0  0  0  0  0  0  0
   21.0624   71.9663   -4.3788 O   0  0  0  0  0  0  0  0  0  0  0  0
   20.3596   70.8977   -3.7717 C   0  0  0  0  0  0  0  0  0  0  0  0
   18.4671   71.8274   -4.9256 O   0  0  0  0  0  0  0  0  0  0  0  0
   16.7801   70.5543   -2.7985 O   0  0  0  0  0  0  0  0  0  0  0  0
   16.5138   68.8212   -4.8869 O   0  0  0  0  0  0  0  0  0  0  0  0
   17.9797   70.0759   -3.4073 C   0  0  1  0  0  0  0  0  0  0  0  0
   17.6963   69.5899   -4.8129 C   0  0  2  0  0  0  0  0  0  0  0  0
   18.8872   71.2719   -3.6606 C   0  0  1  0  0  0  0  0  0  0  0  0
   17.5944   70.8952   -5.5834 C   0  0  2  0  0  0  0  0  0  0  0  0
   16.1842   69.8078   -2.6270 H   0  0  0  0  0  0  0  0  0  0  0  0
   16.6292   68.0009   -4.3812 H   0  0  0  0  0  0  0  0  0  0  0  0
   15.8765   70.1451   -7.6959 O   0  0  0  0  0  0  0  0  0  0  0  0
   19.2787   70.3969  -10.7952 O   0  0  0  0  0  0  0  0  0  0  0  0
   18.0050   70.7571   -6.9521 N   0  0  0  0  0  0  0  0  0  0  0  0
   17.5728   70.2703   -9.2373 N   0  0  0  0  0  0  0  0  0  0  0  0
   17.0631   70.3752   -7.9365 C   0  0  0  0  0  0  0  0  0  0  0  0
   19.3261   71.0005   -7.3078 C   0  0  0  0  0  0  0  0  0  0  0  0
   19.7971   70.8965   -8.5520 C   0  0  0  0  0  0  0  0  0  0  0  0
   18.8783   70.5014   -9.6397 C   0  0  0  0  0  0  0  0  0  0  0  0
   16.9363   70.0037   -9.9396 H   0  0  0  0  0  0  0  0  0  0  0  0
   22.6855   73.5440   -3.2459 O   0  0  0  0  0  0  0  0  0  0  0  0
   23.9348   74.4017   -2.6828 P   0  0  2  0  0  0  0  0  0  0  0  0
   23.2655   75.8268   -2.3066 O   0  0  0  0  0  0  0  0  0  0  0  0
   25.0952   74.4946   -3.6309 O   0  0  0  0  0  0  0  0  0  0  0  0
   24.2854   73.7281   -1.2595 O   0  0  0  0  0  0  0  0  0  0  0  0
   22.4510   72.8822   -0.0233 O   0  0  0  0  0  0  0  0  0  0  0  0
   25.4733   72.7962    2.7921 O   0  0  0  0  0  0  0  0  0  0  0  0
   25.1869   75.0826    0.9963 O   0  0  0  0  0  0  0  0  0  0  0  0
   24.5906   70.3341    1.5233 O   0  0  0  0  0  0  0  0  0  0  0  0
   24.9096   72.7219    1.4826 C   0  0  2  0  0  0  0  0  0  0  0  0
   24.2237   74.0459    1.1449 C   0  0  2  0  0  0  0  0  0  0  0  0
   23.8937   71.5775    1.4692 C   0  0  1  0  0  0  0  0  0  0  0  0
   23.4147   73.9288   -0.1477 C   0  0  1  0  0  0  0  0  0  0  0  0
   23.0411   71.6042    0.2040 C   0  0  1  0  0  0  0  0  0  0  0  0
   26.1221   73.5168    2.8247 H   0  0  0  0  0  0  0  0  0  0  0  0
   25.7041   75.1623    1.8127 H   0  0  0  0  0  0  0  0  0  0  0  0
   25.1372   70.3044    2.3240 H   0  0  0  0  0  0  0  0  0  0  0  0
   21.0565   70.7940   -0.7480 O   0  0  0  0  0  0  0  0  0  0  0  0
   21.6284   69.9891    1.3073 O   0  0  0  0  0  0  0  0  0  0  0  0
   21.8547   70.7071    0.3448 C   0  0  0  0  0  0  0  0  0  0  0  0
  1  4  1  0
  1 24  1  0
  1  2  1  6
  1  3  2  0
 25 28  1  0
 25 24  1  0
 25 26  1  1
 25 27  2  0
  6 11  1  0
  6 12  1  0
 29 36  1  0
 29 37  1  0
  9  7  1  6
  7 13  1  0
 10  8  1  1
  8 14  1  0
  4  5  1  0
 36 28  1  6
 33 30  1  1
 30 38  1  0
 34 31  1  6
 31 39  1  0
 35 32  1  6
 32 40  1  0
 41 43  1  0
 15 19  2  0
 42 43  2  0
 16 22  2  0
 12 17  1  6
 17 19  1  0
 17 20  1  0
 18 19  1  0
 18 22  1  0
 18 23  1  0
  9 10  1  0
  9 11  1  0
 10 12  1  0
 11  5  1  6
 33 34  1  0
 33 35  1  0
 34 36  1  0
 35 37  1  0
 37 43  1  1
 20 21  2  0
 21 22  1  0
M  CHG  3   2  -1  26  -1  41  -1
M  END
>  <COMPND>  (22) 
    udp_gluA.pdb 

>  <AUTHOR>  (22) 
    GENERATED BY OPEN BABEL 3.1.1

>  <MASTER>  (22) 
        0    0    0    0    0    0    0    0   56    0   56    0

>  <minimizedAffinity>  (22) 
-7.96380

>  <CNNscore>  (22) 
0.9100322127

>  <CNNaffinity>  (22) 
4.8524851799

>  <CNN_VS>  (22) 
4.4159178734

>  <CNNaffinity_variance>  (22) 
0.0754386187

$$$$
23
     RDKit          3D

 43 45  0  0  0  0  0  0  0  0999 V2000
   20.4994   71.2406   -1.3217 P   0  0  2  0  0  0  0  0  0  0  0  0
   20.7294   70.4748    0.0852 O   0  0  0  0  0  0  0  0  0  0  0  0
   19.9317   72.6247   -1.2043 O   0  0  0  0  0  0  0  0  0  0  0  0
   19.6267   70.1949   -2.1952 O   0  0  0  0  0  0  0  0  0  0  0  0
   19.3241   70.5235   -3.5386 C   0  0  0  0  0  0  0  0  0  0  0  0
   17.6110   71.4856   -4.9233 O   0  0  0  0  0  0  0  0  0  0  0  0
   15.6497   70.0126   -3.1984 O   0  0  0  0  0  0  0  0  0  0  0  0
   15.7955   68.4337   -5.4169 O   0  0  0  0  0  0  0  0  0  0  0  0
   16.9502   69.6133   -3.6316 C   0  0  1  0  0  0  0  0  0  0  0  0
   16.9194   69.2261   -5.0949 C   0  0  2  0  0  0  0  0  0  0  0  0
   17.8400   70.8487   -3.6476 C   0  0  1  0  0  0  0  0  0  0  0  0
   16.8943   70.5820   -5.7795 C   0  0  2  0  0  0  0  0  0  0  0  0
   15.0631   69.2398   -3.1801 H   0  0  0  0  0  0  0  0  0  0  0  0
   15.8585   67.5813   -4.9570 H   0  0  0  0  0  0  0  0  0  0  0  0
   15.5071   70.5729   -8.2396 O   0  0  0  0  0  0  0  0  0  0  0  0
   19.4290   70.4870  -10.6594 O   0  0  0  0  0  0  0  0  0  0  0  0
   17.5280   70.5575   -7.0674 N   0  0  0  0  0  0  0  0  0  0  0  0
   17.4617   70.5291   -9.4425 N   0  0  0  0  0  0  0  0  0  0  0  0
   16.7394   70.5548   -8.2422 C   0  0  0  0  0  0  0  0  0  0  0  0
   18.9145   70.5382   -7.1578 C   0  0  0  0  0  0  0  0  0  0  0  0
   19.5888   70.5139   -8.3092 C   0  0  0  0  0  0  0  0  0  0  0  0
   18.8399   70.5086   -9.5830 C   0  0  0  0  0  0  0  0  0  0  0  0
   16.9343   70.5247  -10.2738 H   0  0  0  0  0  0  0  0  0  0  0  0
   21.9568   71.1674   -2.0171 O   0  0  0  0  0  0  0  0  0  0  0  0
   23.0076   72.3332   -2.4050 P   0  0  2  0  0  0  0  0  0  0  0  0
   22.0536   73.5318   -2.9282 O   0  0  0  0  0  0  0  0  0  0  0  0
   24.0627   71.9099   -3.3855 O   0  0  0  0  0  0  0  0  0  0  0  0
   23.5795   72.8560   -0.9901 O   0  0  0  0  0  0  0  0  0  0  0  0
   22.2005   73.7168    0.7322 O   0  0  0  0  0  0  0  0  0  0  0  0
   25.8631   75.3774    1.6787 O   0  0  0  0  0  0  0  0  0  0  0  0
   24.9594   75.2686   -1.0973 O   0  0  0  0  0  0  0  0  0  0  0  0
   24.8368   73.1342    3.2167 O   0  0  0  0  0  0  0  0  0  0  0  0
   24.9768   74.3847    1.1621 C   0  0  2  0  0  0  0  0  0  0  0  0
   24.1406   74.9840    0.0311 C   0  0  2  0  0  0  0  0  0  0  0  0
   24.0711   73.9188    2.3043 C   0  0  1  0  0  0  0  0  0  0  0  0
   23.0256   74.0263   -0.3915 C   0  0  1  0  0  0  0  0  0  0  0  0
   22.9121   73.0721    1.7864 C   0  0  1  0  0  0  0  0  0  0  0  0
   26.4486   75.6886    0.9704 H   0  0  0  0  0  0  0  0  0  0  0  0
   25.6693   75.8755   -0.8362 H   0  0  0  0  0  0  0  0  0  0  0  0
   25.5779   73.6615    3.5537 H   0  0  0  0  0  0  0  0  0  0  0  0
   22.1326   73.6920    3.9100 O   0  0  0  0  0  0  0  0  0  0  0  0
   20.9028   72.1557    2.7581 O   0  0  0  0  0  0  0  0  0  0  0  0
   21.8674   72.9011    2.8407 C   0  0  0  0  0  0  0  0  0  0  0  0
  1  4  1  0
  1 24  1  0
  1  2  1  1
  1  3  2  0
 25 28  1  0
 25 24  1  0
 25 26  1  6
 25 27  2  0
  6 11  1  0
  6 12  1  0
 29 36  1  0
 29 37  1  0
  9  7  1  6
  7 13  1  0
 10  8  1  1
  8 14  1  0
  4  5  1  0
 36 28  1  1
 33 30  1  1
 30 38  1  0
 34 31  1  6
 31 39  1  0
 35 32  1  1
 32 40  1  0
 41 43  1  0
 15 19  2  0
 42 43  2  0
 16 22  2  0
 12 17  1  6
 17 19  1  0
 17 20  1  0
 18 19  1  0
 18 22  1  0
 18 23  1  0
  9 10  1  0
  9 11  1  0
 10 12  1  0
 11  5  1  6
 33 34  1  0
 33 35  1  0
 34 36  1  0
 35 37  1  0
 37 43  1  1
 20 21  2  0
 21 22  1  0
M  CHG  3   2  -1  26  -1  41  -1
M  END
>  <COMPND>  (23) 
    udp_gluA.pdb 

>  <AUTHOR>  (23) 
    GENERATED BY OPEN BABEL 3.1.1

>  <MASTER>  (23) 
        0    0    0    0    0    0    0    0   56    0   56    0

>  <minimizedAffinity>  (23) 
-7.73176

>  <CNNscore>  (23) 
0.9040213823

>  <CNNaffinity>  (23) 
4.7174372673

>  <CNN_VS>  (23) 
4.2646641731

>  <CNNaffinity_variance>  (23) 
0.1057057381

$$$$
24
     RDKit          3D

 43 45  0  0  0  0  0  0  0  0999 V2000
   22.9775   71.3892   -2.3440 P   0  0  2  0  0  0  0  0  0  0  0  0
   22.7751   72.9930   -2.4215 O   0  0  0  0  0  0  0  0  0  0  0  0
   24.2025   70.8709   -3.0386 O   0  0  0  0  0  0  0  0  0  0  0  0
   21.5674   70.7939   -2.8687 O   0  0  0  0  0  0  0  0  0  0  0  0
   20.9297   71.4297   -3.9613 C   0  0  0  0  0  0  0  0  0  0  0  0
   18.7709   71.9805   -4.8633 O   0  0  0  0  0  0  0  0  0  0  0  0
   17.6218   70.5994   -2.4625 O   0  0  0  0  0  0  0  0  0  0  0  0
   17.3549   68.7170   -4.4174 O   0  0  0  0  0  0  0  0  0  0  0  0
   18.7876   70.2745   -3.2200 C   0  0  1  0  0  0  0  0  0  0  0  0
   18.3959   69.6624   -4.5482 C   0  0  2  0  0  0  0  0  0  0  0  0
   19.4457   71.5780   -3.6517 C   0  0  1  0  0  0  0  0  0  0  0  0
   17.9787   70.8847   -5.3481 C   0  0  2  0  0  0  0  0  0  0  0  0
   17.1841   69.7822   -2.1756 H   0  0  0  0  0  0  0  0  0  0  0  0
   17.6703   67.9582   -3.9010 H   0  0  0  0  0  0  0  0  0  0  0  0
   15.9526   70.4268   -7.2616 O   0  0  0  0  0  0  0  0  0  0  0  0
   18.9965   70.2882  -10.7198 O   0  0  0  0  0  0  0  0  0  0  0  0
   18.2138   70.7253   -6.7552 N   0  0  0  0  0  0  0  0  0  0  0  0
   17.4707   70.3572   -8.9820 N   0  0  0  0  0  0  0  0  0  0  0  0
   17.1260   70.4989   -7.6314 C   0  0  0  0  0  0  0  0  0  0  0  0
   19.5087   70.7951   -7.2544 C   0  0  0  0  0  0  0  0  0  0  0  0
   19.8216   70.6581   -8.5444 C   0  0  0  0  0  0  0  0  0  0  0  0
   18.7435   70.4182   -9.5259 C   0  0  0  0  0  0  0  0  0  0  0  0
   16.7304   70.1968   -9.6110 H   0  0  0  0  0  0  0  0  0  0  0  0
   22.9282   71.0936   -0.7556 O   0  0  0  0  0  0  0  0  0  0  0  0
   21.8231   71.4747    0.3612 P   0  0  2  0  0  0  0  0  0  0  0  0
   21.5926   70.0774    1.1454 O   0  0  0  0  0  0  0  0  0  0  0  0
   20.5697   72.0852   -0.1959 O   0  0  0  0  0  0  0  0  0  0  0  0
   22.6111   72.4079    1.4151 O   0  0  0  0  0  0  0  0  0  0  0  0
   23.1623   74.6475    0.8769 O   0  0  0  0  0  0  0  0  0  0  0  0
   25.7453   73.8749    4.0073 O   0  0  0  0  0  0  0  0  0  0  0  0
   25.2900   71.8684    1.9334 O   0  0  0  0  0  0  0  0  0  0  0  0
   23.3817   75.5121    4.4359 O   0  0  0  0  0  0  0  0  0  0  0  0
   24.5374   73.7584    3.2554 C   0  0  2  0  0  0  0  0  0  0  0  0
   24.8534   73.2206    1.8595 C   0  0  2  0  0  0  0  0  0  0  0  0
   23.9041   75.1482    3.1595 C   0  0  1  0  0  0  0  0  0  0  0  0
   23.6247   73.2984    0.9522 C   0  0  1  0  0  0  0  0  0  0  0  0
   22.7672   75.1734    2.1420 C   0  0  1  0  0  0  0  0  0  0  0  0
   26.1656   73.0036    4.0813 H   0  0  0  0  0  0  0  0  0  0  0  0
   26.0692   71.8116    2.5078 H   0  0  0  0  0  0  0  0  0  0  0  0
   24.0953   75.4998    5.0928 H   0  0  0  0  0  0  0  0  0  0  0  0
   21.3727   76.5981    0.9063 O   0  0  0  0  0  0  0  0  0  0  0  0
   22.8913   77.5780    2.2964 O   0  0  0  0  0  0  0  0  0  0  0  0
   22.3793   76.5786    1.8148 C   0  0  0  0  0  0  0  0  0  0  0  0
  1  4  1  0
  1 24  1  0
  1  2  1  1
  1  3  2  0
 25 28  1  0
 25 24  1  0
 25 26  1  1
 25 27  2  0
  6 11  1  0
  6 12  1  0
 29 36  1  0
 29 37  1  0
  9  7  1  1
  7 13  1  0
 10  8  1  1
  8 14  1  0
  4  5  1  0
 36 28  1  1
 33 30  1  1
 30 38  1  0
 34 31  1  1
 31 39  1  0
 35 32  1  1
 32 40  1  0
 41 43  1  0
 15 19  2  0
 42 43  2  0
 16 22  2  0
 12 17  1  6
 17 19  1  0
 17 20  1  0
 18 19  1  0
 18 22  1  0
 18 23  1  0
  9 10  1  0
  9 11  1  0
 10 12  1  0
 11  5  1  6
 33 34  1  0
 33 35  1  0
 34 36  1  0
 35 37  1  0
 37 43  1  6
 20 21  2  0
 21 22  1  0
M  CHG  3   2  -1  26  -1  41  -1
M  END
>  <COMPND>  (24) 
    udp_gluA.pdb 

>  <AUTHOR>  (24) 
    GENERATED BY OPEN BABEL 3.1.1

>  <MASTER>  (24) 
        0    0    0    0    0    0    0    0   56    0   56    0

>  <minimizedAffinity>  (24) 
-7.24210

>  <CNNscore>  (24) 
0.9002807140

>  <CNNaffinity>  (24) 
4.7046523094

>  <CNN_VS>  (24) 
4.2355079651

>  <CNNaffinity_variance>  (24) 
0.0527413003

$$$$
25
     RDKit          3D

 43 45  0  0  0  0  0  0  0  0999 V2000
   23.1060   71.3741   -2.2504 P   0  0  2  0  0  0  0  0  0  0  0  0
   22.8406   72.9627   -2.4074 O   0  0  0  0  0  0  0  0  0  0  0  0
   24.2050   70.8270   -3.1134 O   0  0  0  0  0  0  0  0  0  0  0  0
   21.6457   70.7127   -2.4692 O   0  0  0  0  0  0  0  0  0  0  0  0
   20.9797   70.9357   -3.6985 C   0  0  0  0  0  0  0  0  0  0  0  0
   18.9262   71.7757   -4.6232 O   0  0  0  0  0  0  0  0  0  0  0  0
   17.5517   70.3932   -2.3448 O   0  0  0  0  0  0  0  0  0  0  0  0
   17.1465   68.6699   -4.4190 O   0  0  0  0  0  0  0  0  0  0  0  0
   18.6999   69.9852   -3.0889 C   0  0  1  0  0  0  0  0  0  0  0  0
   18.2888   69.4994   -4.4627 C   0  0  2  0  0  0  0  0  0  0  0  0
   19.5112   71.2302   -3.4209 C   0  0  1  0  0  0  0  0  0  0  0  0
   18.0355   70.8053   -5.1963 C   0  0  2  0  0  0  0  0  0  0  0  0
   17.0176   69.6145   -2.1211 H   0  0  0  0  0  0  0  0  0  0  0  0
   17.3591   67.8518   -3.9422 H   0  0  0  0  0  0  0  0  0  0  0  0
   16.0529   70.3913   -7.1646 O   0  0  0  0  0  0  0  0  0  0  0  0
   19.1628   70.4297  -10.5662 O   0  0  0  0  0  0  0  0  0  0  0  0
   18.2993   70.7032   -6.6037 N   0  0  0  0  0  0  0  0  0  0  0  0
   17.6038   70.4098   -8.8568 N   0  0  0  0  0  0  0  0  0  0  0  0
   17.2318   70.4947   -7.5087 C   0  0  0  0  0  0  0  0  0  0  0  0
   19.6022   70.8111   -7.0748 C   0  0  0  0  0  0  0  0  0  0  0  0
   19.9412   70.7282   -8.3628 C   0  0  0  0  0  0  0  0  0  0  0  0
   18.8855   70.5102   -9.3734 C   0  0  0  0  0  0  0  0  0  0  0  0
   16.8780   70.2627   -9.5056 H   0  0  0  0  0  0  0  0  0  0  0  0
   23.3486   71.2020   -0.6616 O   0  0  0  0  0  0  0  0  0  0  0  0
   22.3233   71.2950    0.5849 P   0  0  2  0  0  0  0  0  0  0  0  0
   23.2616   71.8134    1.7978 O   0  0  0  0  0  0  0  0  0  0  0  0
   21.5880   70.0184    0.8740 O   0  0  0  0  0  0  0  0  0  0  0  0
   21.3725   72.5518    0.2399 O   0  0  0  0  0  0  0  0  0  0  0  0
   21.7090   74.8850    0.0121 O   0  0  0  0  0  0  0  0  0  0  0  0
   18.0851   74.7475    1.9912 O   0  0  0  0  0  0  0  0  0  0  0  0
   20.2597   72.9533    2.7571 O   0  0  0  0  0  0  0  0  0  0  0  0
   18.1752   75.3719   -0.8466 O   0  0  0  0  0  0  0  0  0  0  0  0
   19.1001   74.2901    1.0975 C   0  0  2  0  0  0  0  0  0  0  0  0
   20.3978   74.0589    1.8721 C   0  0  2  0  0  0  0  0  0  0  0  0
   19.3042   75.3626    0.0251 C   0  0  1  0  0  0  0  0  0  0  0  0
   21.5635   73.7915    0.9191 C   0  0  1  0  0  0  0  0  0  0  0  0
   20.5572   75.0914   -0.8026 C   0  0  1  0  0  0  0  0  0  0  0  0
   17.9382   74.0820    2.6817 H   0  0  0  0  0  0  0  0  0  0  0  0
   19.5215   73.1162    3.3645 H   0  0  0  0  0  0  0  0  0  0  0  0
   17.3709   75.5433   -0.3322 H   0  0  0  0  0  0  0  0  0  0  0  0
   20.0181   77.2822   -1.4439 O   0  0  0  0  0  0  0  0  0  0  0  0
   21.9166   76.3778   -2.3253 O   0  0  0  0  0  0  0  0  0  0  0  0
   20.9288   76.2915   -1.6112 C   0  0  0  0  0  0  0  0  0  0  0  0
  1  4  1  0
  1 24  1  0
  1  2  1  1
  1  3  2  0
 25 28  1  0
 25 24  1  0
 25 26  1  1
 25 27  2  0
  6 11  1  0
  6 12  1  0
 29 36  1  0
 29 37  1  0
  9  7  1  1
  7 13  1  0
 10  8  1  1
  8 14  1  0
  4  5  1  0
 36 28  1  6
 33 30  1  1
 30 38  1  0
 34 31  1  1
 31 39  1  0
 35 32  1  6
 32 40  1  0
 41 43  1  0
 15 19  2  0
 42 43  2  0
 16 22  2  0
 12 17  1  6
 17 19  1  0
 17 20  1  0
 18 19  1  0
 18 22  1  0
 18 23  1  0
  9 10  1  0
  9 11  1  0
 10 12  1  0
 11  5  1  6
 33 34  1  0
 33 35  1  0
 34 36  1  0
 35 37  1  0
 37 43  1  6
 20 21  2  0
 21 22  1  0
M  CHG  3   2  -1  26  -1  41  -1
M  END
>  <COMPND>  (25) 
    udp_gluA.pdb 

>  <AUTHOR>  (25) 
    GENERATED BY OPEN BABEL 3.1.1

>  <MASTER>  (25) 
        0    0    0    0    0    0    0    0   56    0   56    0

>  <minimizedAffinity>  (25) 
-6.92373

>  <CNNscore>  (25) 
0.8856528401

>  <CNNaffinity>  (25) 
4.7757458687

>  <CNN_VS>  (25) 
4.2296528816

>  <CNNaffinity_variance>  (25) 
0.0723654181

$$$$
26
     RDKit          3D

 43 45  0  0  0  0  0  0  0  0999 V2000
   20.4492   71.1990   -1.2975 P   0  0  2  0  0  0  0  0  0  0  0  0
   20.7956   70.4981    0.1194 O   0  0  0  0  0  0  0  0  0  0  0  0
   19.9824   72.6220   -1.2031 O   0  0  0  0  0  0  0  0  0  0  0  0
   19.4201   70.1670   -2.0002 O   0  0  0  0  0  0  0  0  0  0  0  0
   19.1280   70.3346   -3.3754 C   0  0  0  0  0  0  0  0  0  0  0  0
   17.4800   71.3813   -4.7776 O   0  0  0  0  0  0  0  0  0  0  0  0
   15.4410   69.8222   -3.2274 O   0  0  0  0  0  0  0  0  0  0  0  0
   15.6819   68.3705   -5.5231 O   0  0  0  0  0  0  0  0  0  0  0  0
   16.7587   69.4420   -3.6245 C   0  0  1  0  0  0  0  0  0  0  0  0
   16.7920   69.1382   -5.1074 C   0  0  2  0  0  0  0  0  0  0  0  0
   17.6508   70.6723   -3.5312 C   0  0  1  0  0  0  0  0  0  0  0  0
   16.8002   70.5308   -5.7145 C   0  0  2  0  0  0  0  0  0  0  0  0
   14.8526   69.0523   -3.2788 H   0  0  0  0  0  0  0  0  0  0  0  0
   15.7226   67.4932   -5.1099 H   0  0  0  0  0  0  0  0  0  0  0  0
   15.5242   70.5472   -8.2340 O   0  0  0  0  0  0  0  0  0  0  0  0
   19.5487   70.7062  -10.4750 O   0  0  0  0  0  0  0  0  0  0  0  0
   17.4904   70.5762   -6.9724 N   0  0  0  0  0  0  0  0  0  0  0  0
   17.5299   70.6253   -9.3478 N   0  0  0  0  0  0  0  0  0  0  0  0
   16.7550   70.5804   -8.1813 C   0  0  0  0  0  0  0  0  0  0  0  0
   18.8791   70.6176   -7.0005 C   0  0  0  0  0  0  0  0  0  0  0  0
   19.6037   70.6603   -8.1202 C   0  0  0  0  0  0  0  0  0  0  0  0
   18.9125   70.6669   -9.4262 C   0  0  0  0  0  0  0  0  0  0  0  0
   17.0402   70.6271  -10.2019 H   0  0  0  0  0  0  0  0  0  0  0  0
   21.8087   70.9913   -2.1470 O   0  0  0  0  0  0  0  0  0  0  0  0
   23.3036   71.5611   -1.9137 P   0  0  2  0  0  0  0  0  0  0  0  0
   24.1891   70.7234   -2.9787 O   0  0  0  0  0  0  0  0  0  0  0  0
   23.7858   71.4626   -0.4953 O   0  0  0  0  0  0  0  0  0  0  0  0
   23.2667   73.0614   -2.5056 O   0  0  0  0  0  0  0  0  0  0  0  0
   23.6427   73.1112   -4.8434 O   0  0  0  0  0  0  0  0  0  0  0  0
   23.6049   77.1360   -3.9120 O   0  0  0  0  0  0  0  0  0  0  0  0
   24.9801   75.2279   -2.1793 O   0  0  0  0  0  0  0  0  0  0  0  0
   21.3111   75.9192   -5.2194 O   0  0  0  0  0  0  0  0  0  0  0  0
   23.2351   75.7638   -3.7774 C   0  0  2  0  0  0  0  0  0  0  0  0
   24.4780   74.9260   -3.4760 C   0  0  2  0  0  0  0  0  0  0  0  0
   22.5969   75.3146   -5.0938 C   0  0  1  0  0  0  0  0  0  0  0  0
   24.1623   73.4316   -3.5523 C   0  0  1  0  0  0  0  0  0  0  0  0
   22.4300   73.7986   -5.1433 C   0  0  1  0  0  0  0  0  0  0  0  0
   24.0128   77.4436   -3.0872 H   0  0  0  0  0  0  0  0  0  0  0  0
   25.1823   76.1747   -2.1237 H   0  0  0  0  0  0  0  0  0  0  0  0
   21.4033   76.8843   -5.1892 H   0  0  0  0  0  0  0  0  0  0  0  0
   23.0251   72.4214   -6.9462 O   0  0  0  0  0  0  0  0  0  0  0  0
   21.1847   73.7416   -7.2091 O   0  0  0  0  0  0  0  0  0  0  0  0
   22.1214   73.3440   -6.5327 C   0  0  0  0  0  0  0  0  0  0  0  0
  1  4  1  0
  1 24  1  0
  1  2  1  1
  1  3  2  0
 25 28  1  0
 25 24  1  0
 25 26  1  6
 25 27  2  0
  6 11  1  0
  6 12  1  0
 29 36  1  0
 29 37  1  0
  9  7  1  6
  7 13  1  0
 10  8  1  6
  8 14  1  0
  4  5  1  0
 36 28  1  1
 33 30  1  6
 30 38  1  0
 34 31  1  1
 31 39  1  0
 35 32  1  1
 32 40  1  0
 41 43  1  0
 15 19  2  0
 42 43  2  0
 16 22  2  0
 12 17  1  6
 17 19  1  0
 17 20  1  0
 18 19  1  0
 18 22  1  0
 18 23  1  0
  9 10  1  0
  9 11  1  0
 10 12  1  0
 11  5  1  6
 33 34  1  0
 33 35  1  0
 34 36  1  0
 35 37  1  0
 37 43  1  6
 20 21  2  0
 21 22  1  0
M  CHG  3   2  -1  26  -1  41  -1
M  END
>  <COMPND>  (26) 
    udp_gluA.pdb 

>  <AUTHOR>  (26) 
    GENERATED BY OPEN BABEL 3.1.1

>  <MASTER>  (26) 
        0    0    0    0    0    0    0    0   56    0   56    0

>  <minimizedAffinity>  (26) 
-8.33919

>  <CNNscore>  (26) 
0.8851020336

>  <CNNaffinity>  (26) 
4.7158503532

>  <CNN_VS>  (26) 
4.1740088463

>  <CNNaffinity_variance>  (26) 
0.2716334164

$$$$
27
     RDKit          3D

 43 45  0  0  0  0  0  0  0  0999 V2000
   21.4214   72.7625   -5.0999 P   0  0  2  0  0  0  0  0  0  0  0  0
   21.6132   74.3089   -4.6631 O   0  0  0  0  0  0  0  0  0  0  0  0
   21.9750   72.4121   -6.4499 O   0  0  0  0  0  0  0  0  0  0  0  0
   19.8382   72.4956   -4.8989 O   0  0  0  0  0  0  0  0  0  0  0  0
   19.4184   71.7230   -3.7892 C   0  0  0  0  0  0  0  0  0  0  0  0
   17.4657   71.8544   -5.1847 O   0  0  0  0  0  0  0  0  0  0  0  0
   16.0865   70.2104   -3.0903 O   0  0  0  0  0  0  0  0  0  0  0  0
   16.6674   68.3635   -5.0106 O   0  0  0  0  0  0  0  0  0  0  0  0
   17.4381   70.1446   -3.5456 C   0  0  1  0  0  0  0  0  0  0  0  0
   17.4992   69.5008   -4.9146 C   0  0  2  0  0  0  0  0  0  0  0  0
   17.9043   71.5638   -3.8399 C   0  0  1  0  0  0  0  0  0  0  0  0
   17.0450   70.6353   -5.8172 C   0  0  2  0  0  0  0  0  0  0  0  0
   15.7665   69.3152   -2.8959 H   0  0  0  0  0  0  0  0  0  0  0  0
   16.9984   67.6700   -4.4177 H   0  0  0  0  0  0  0  0  0  0  0  0
   15.5722   70.6661   -8.2268 O   0  0  0  0  0  0  0  0  0  0  0  0
   19.3958   70.3494  -10.7810 O   0  0  0  0  0  0  0  0  0  0  0  0
   17.6304   70.5621   -7.1260 N   0  0  0  0  0  0  0  0  0  0  0  0
   17.4779   70.5073   -9.4966 N   0  0  0  0  0  0  0  0  0  0  0  0
   16.8012   70.5850   -8.2723 C   0  0  0  0  0  0  0  0  0  0  0  0
   19.0100   70.4708   -7.2646 C   0  0  0  0  0  0  0  0  0  0  0  0
   19.6406   70.3976   -8.4384 C   0  0  0  0  0  0  0  0  0  0  0  0
   18.8474   70.4146   -9.6850 C   0  0  0  0  0  0  0  0  0  0  0  0
   16.9216   70.5193  -10.3088 H   0  0  0  0  0  0  0  0  0  0  0  0
   22.0857   71.9526   -3.8688 O   0  0  0  0  0  0  0  0  0  0  0  0
   23.5602   72.0420   -3.2120 P   0  0  2  0  0  0  0  0  0  0  0  0
   24.3694   72.9877   -4.2470 O   0  0  0  0  0  0  0  0  0  0  0  0
   24.2037   70.7093   -2.9595 O   0  0  0  0  0  0  0  0  0  0  0  0
   23.3668   72.9525   -1.8944 O   0  0  0  0  0  0  0  0  0  0  0  0
   21.6289   72.3816   -0.3901 O   0  0  0  0  0  0  0  0  0  0  0  0
   22.5926   76.2029    0.8497 O   0  0  0  0  0  0  0  0  0  0  0  0
   22.4254   75.5677   -1.9968 O   0  0  0  0  0  0  0  0  0  0  0  0
   23.4625   73.9029    2.4002 O   0  0  0  0  0  0  0  0  0  0  0  0
   22.8427   74.9091    0.3006 C   0  0  2  0  0  0  0  0  0  0  0  0
   21.9862   74.7097   -0.9501 C   0  0  2  0  0  0  0  0  0  0  0  0
   22.4843   73.8673    1.3627 C   0  0  1  0  0  0  0  0  0  0  0  0
   22.0526   73.2602   -1.4332 C   0  0  1  0  0  0  0  0  0  0  0  0
   22.4494   72.4602    0.7733 C   0  0  1  0  0  0  0  0  0  0  0  0
   22.8131   76.8815    0.1923 H   0  0  0  0  0  0  0  0  0  0  0  0
   22.3861   76.4891   -1.6971 H   0  0  0  0  0  0  0  0  0  0  0  0
   23.4949   74.7932    2.7836 H   0  0  0  0  0  0  0  0  0  0  0  0
   21.6611   70.2827    1.1457 O   0  0  0  0  0  0  0  0  0  0  0  0
   21.4134   71.7833    2.8446 O   0  0  0  0  0  0  0  0  0  0  0  0
   21.7884   71.5069    1.7150 C   0  0  0  0  0  0  0  0  0  0  0  0
  1  4  1  0
  1 24  1  0
  1  2  1  1
  1  3  2  0
 25 28  1  0
 25 24  1  0
 25 26  1  6
 25 27  2  0
  6 11  1  0
  6 12  1  0
 29 36  1  0
 29 37  1  0
  9  7  1  6
  7 13  1  0
 10  8  1  1
  8 14  1  0
  4  5  1  0
 36 28  1  1
 33 30  1  1
 30 38  1  0
 34 31  1  6
 31 39  1  0
 35 32  1  1
 32 40  1  0
 41 43  1  0
 15 19  2  0
 42 43  2  0
 16 22  2  0
 12 17  1  6
 17 19  1  0
 17 20  1  0
 18 19  1  0
 18 22  1  0
 18 23  1  0
  9 10  1  0
  9 11  1  0
 10 12  1  0
 11  5  1  6
 33 34  1  0
 33 35  1  0
 34 36  1  0
 35 37  1  0
 37 43  1  1
 20 21  2  0
 21 22  1  0
M  CHG  3   2  -1  26  -1  41  -1
M  END
>  <COMPND>  (27) 
    udp_gluA.pdb 

>  <AUTHOR>  (27) 
    GENERATED BY OPEN BABEL 3.1.1

>  <MASTER>  (27) 
        0    0    0    0    0    0    0    0   56    0   56    0

>  <minimizedAffinity>  (27) 
-8.07574

>  <CNNscore>  (27) 
0.8804208636

>  <CNNaffinity>  (27) 
4.6989755630

>  <CNN_VS>  (27) 
4.1370759010

>  <CNNaffinity_variance>  (27) 
0.0680963919

$$$$
28
     RDKit          3D

 43 45  0  0  0  0  0  0  0  0999 V2000
   21.3486   72.7968   -4.7107 P   0  0  2  0  0  0  0  0  0  0  0  0
   21.5104   74.4052   -4.7878 O   0  0  0  0  0  0  0  0  0  0  0  0
   22.0028   72.0399   -5.8292 O   0  0  0  0  0  0  0  0  0  0  0  0
   19.7542   72.5739   -4.5497 O   0  0  0  0  0  0  0  0  0  0  0  0
   19.2986   71.5434   -3.6924 C   0  0  0  0  0  0  0  0  0  0  0  0
   17.3978   71.8035   -5.1405 O   0  0  0  0  0  0  0  0  0  0  0  0
   15.8897   70.1415   -3.1518 O   0  0  0  0  0  0  0  0  0  0  0  0
   16.4587   68.3435   -5.1213 O   0  0  0  0  0  0  0  0  0  0  0  0
   17.2515   70.0380   -3.5682 C   0  0  1  0  0  0  0  0  0  0  0  0
   17.3308   69.4423   -4.9578 C   0  0  2  0  0  0  0  0  0  0  0  0
   17.7819   71.4471   -3.7948 C   0  0  1  0  0  0  0  0  0  0  0  0
   16.9501   70.6260   -5.8306 C   0  0  2  0  0  0  0  0  0  0  0  0
   15.5290   69.2534   -3.0007 H   0  0  0  0  0  0  0  0  0  0  0  0
   16.7434   67.6162   -4.5451 H   0  0  0  0  0  0  0  0  0  0  0  0
   15.5446   70.6349   -8.2803 O   0  0  0  0  0  0  0  0  0  0  0  0
   19.4447   70.4344  -10.7283 O   0  0  0  0  0  0  0  0  0  0  0  0
   17.5733   70.5768   -7.1229 N   0  0  0  0  0  0  0  0  0  0  0  0
   17.4884   70.5340   -9.4972 N   0  0  0  0  0  0  0  0  0  0  0  0
   16.7760   70.5859   -8.2918 C   0  0  0  0  0  0  0  0  0  0  0  0
   18.9582   70.5222   -7.2234 C   0  0  0  0  0  0  0  0  0  0  0  0
   19.6229   70.4732   -8.3795 C   0  0  0  0  0  0  0  0  0  0  0  0
   18.8645   70.4780   -9.6477 C   0  0  0  0  0  0  0  0  0  0  0  0
   16.9548   70.5371  -10.3246 H   0  0  0  0  0  0  0  0  0  0  0  0
   21.9151   72.4453   -3.2381 O   0  0  0  0  0  0  0  0  0  0  0  0
   23.4249   72.2100   -2.7100 P   0  0  2  0  0  0  0  0  0  0  0  0
   24.1845   73.5726   -3.1422 O   0  0  0  0  0  0  0  0  0  0  0  0
   24.0680   70.9541   -3.2230 O   0  0  0  0  0  0  0  0  0  0  0  0
   23.3146   72.2974   -1.1030 O   0  0  0  0  0  0  0  0  0  0  0  0
   24.4163   71.0367    0.5721 O   0  0  0  0  0  0  0  0  0  0  0  0
   20.7740   71.8105    2.3616 O   0  0  0  0  0  0  0  0  0  0  0  0
   20.9086   71.0597   -0.4585 O   0  0  0  0  0  0  0  0  0  0  0  0
   23.1443   73.2798    3.1821 O   0  0  0  0  0  0  0  0  0  0  0  0
   21.8916   72.0748    1.5137 C   0  0  2  0  0  0  0  0  0  0  0  0
   21.9990   70.9797    0.4522 C   0  0  2  0  0  0  0  0  0  0  0  0
   23.1503   72.0978    2.3839 C   0  0  1  0  0  0  0  0  0  0  0  0
   23.3091   71.1002   -0.3276 C   0  0  1  0  0  0  0  0  0  0  0  0
   24.4165   72.0908    1.5322 C   0  0  1  0  0  0  0  0  0  0  0  0
   19.9623   71.7910    1.8303 H   0  0  0  0  0  0  0  0  0  0  0  0
   20.0741   70.9843    0.0296 H   0  0  0  0  0  0  0  0  0  0  0  0
   22.3433   73.2967    3.7289 H   0  0  0  0  0  0  0  0  0  0  0  0
   26.0123   72.8807    3.0590 O   0  0  0  0  0  0  0  0  0  0  0  0
   26.1688   70.6951    2.4283 O   0  0  0  0  0  0  0  0  0  0  0  0
   25.6162   71.7832    2.3680 C   0  0  0  0  0  0  0  0  0  0  0  0
  1  4  1  0
  1 24  1  0
  1  2  1  6
  1  3  2  0
 25 28  1  0
 25 24  1  0
 25 26  1  6
 25 27  2  0
  6 11  1  0
  6 12  1  0
 29 36  1  0
 29 37  1  0
  9  7  1  6
  7 13  1  0
 10  8  1  1
  8 14  1  0
  4  5  1  0
 36 28  1  1
 33 30  1  1
 30 38  1  0
 34 31  1  6
 31 39  1  0
 35 32  1  6
 32 40  1  0
 41 43  1  0
 15 19  2  0
 42 43  2  0
 16 22  2  0
 12 17  1  6
 17 19  1  0
 17 20  1  0
 18 19  1  0
 18 22  1  0
 18 23  1  0
  9 10  1  0
  9 11  1  0
 10 12  1  0
 11  5  1  6
 33 34  1  0
 33 35  1  0
 34 36  1  0
 35 37  1  0
 37 43  1  1
 20 21  2  0
 21 22  1  0
M  CHG  3   2  -1  26  -1  41  -1
M  END
>  <COMPND>  (28) 
    udp_gluA.pdb 

>  <AUTHOR>  (28) 
    GENERATED BY OPEN BABEL 3.1.1

>  <MASTER>  (28) 
        0    0    0    0    0    0    0    0   56    0   56    0

>  <minimizedAffinity>  (28) 
-8.21100

>  <CNNscore>  (28) 
0.8482427597

>  <CNNaffinity>  (28) 
4.6905670166

>  <CNN_VS>  (28) 
3.9787395000

>  <CNNaffinity_variance>  (28) 
0.0341666639

$$$$
29
     RDKit          3D

 43 45  0  0  0  0  0  0  0  0999 V2000
   22.9350   72.0289   -3.1832 P   0  0  2  0  0  0  0  0  0  0  0  0
   24.1944   72.3089   -4.1602 O   0  0  0  0  0  0  0  0  0  0  0  0
   23.2243   71.1266   -2.0195 O   0  0  0  0  0  0  0  0  0  0  0  0
   21.7684   71.5291   -4.1867 O   0  0  0  0  0  0  0  0  0  0  0  0
   20.9569   70.4388   -3.7904 C   0  0  0  0  0  0  0  0  0  0  0  0
   19.0625   71.6103   -4.6940 O   0  0  0  0  0  0  0  0  0  0  0  0
   17.4762   70.3854   -2.4636 O   0  0  0  0  0  0  0  0  0  0  0  0
   16.8283   68.8082   -4.5917 O   0  0  0  0  0  0  0  0  0  0  0  0
   18.5542   69.8297   -3.2170 C   0  0  1  0  0  0  0  0  0  0  0  0
   18.0840   69.4543   -4.6063 C   0  0  2  0  0  0  0  0  0  0  0  0
   19.5484   70.9456   -3.5077 C   0  0  1  0  0  0  0  0  0  0  0  0
   18.0385   70.8053   -5.2996 C   0  0  2  0  0  0  0  0  0  0  0  0
   16.8278   69.6910   -2.2657 H   0  0  0  0  0  0  0  0  0  0  0  0
   16.9099   67.9530   -4.1400 H   0  0  0  0  0  0  0  0  0  0  0  0
   16.0669   70.2459   -7.2428 O   0  0  0  0  0  0  0  0  0  0  0  0
   19.1335   70.4517  -10.6776 O   0  0  0  0  0  0  0  0  0  0  0  0
   18.2941   70.7070   -6.7088 N   0  0  0  0  0  0  0  0  0  0  0  0
   17.5963   70.3479   -8.9516 N   0  0  0  0  0  0  0  0  0  0  0  0
   17.2332   70.4216   -7.6004 C   0  0  0  0  0  0  0  0  0  0  0  0
   19.5825   70.8939   -7.1946 C   0  0  0  0  0  0  0  0  0  0  0  0
   19.9132   70.8206   -8.4854 C   0  0  0  0  0  0  0  0  0  0  0  0
   18.8635   70.5256   -9.4827 C   0  0  0  0  0  0  0  0  0  0  0  0
   16.8749   70.1483   -9.5912 H   0  0  0  0  0  0  0  0  0  0  0  0
   22.4525   73.5173   -2.7775 O   0  0  0  0  0  0  0  0  0  0  0  0
   21.6539   74.6412   -3.6217 P   0  0  2  0  0  0  0  0  0  0  0  0
   22.1753   76.0301   -2.9741 O   0  0  0  0  0  0  0  0  0  0  0  0
   20.1618   74.4753   -3.6104 O   0  0  0  0  0  0  0  0  0  0  0  0
   22.3209   74.6009   -5.0900 O   0  0  0  0  0  0  0  0  0  0  0  0
   20.8688   75.4993   -6.7312 O   0  0  0  0  0  0  0  0  0  0  0  0
   23.9945   74.1064   -9.0460 O   0  0  0  0  0  0  0  0  0  0  0  0
   22.9852   72.5191   -6.8107 O   0  0  0  0  0  0  0  0  0  0  0  0
   23.7120   76.9545   -8.5369 O   0  0  0  0  0  0  0  0  0  0  0  0
   23.3807   74.6597   -7.8819 C   0  0  2  0  0  0  0  0  0  0  0  0
   22.3453   73.6776   -7.3334 C   0  0  2  0  0  0  0  0  0  0  0  0
   22.7075   75.9746   -8.2819 C   0  0  1  0  0  0  0  0  0  0  0  0
   21.5082   74.3250   -6.2294 C   0  0  1  0  0  0  0  0  0  0  0  0
   21.7921   76.4908   -7.1756 C   0  0  1  0  0  0  0  0  0  0  0  0
   24.4288   73.2699   -8.8160 H   0  0  0  0  0  0  0  0  0  0  0  0
   23.5184   72.1034   -7.5059 H   0  0  0  0  0  0  0  0  0  0  0  0
   24.3016   76.6381   -9.2392 H   0  0  0  0  0  0  0  0  0  0  0  0
   20.0735   77.0983   -8.6518 O   0  0  0  0  0  0  0  0  0  0  0  0
   20.9059   78.7317   -7.2960 O   0  0  0  0  0  0  0  0  0  0  0  0
   20.9000   77.5744   -7.6878 C   0  0  0  0  0  0  0  0  0  0  0  0
  1  4  1  0
  1 24  1  0
  1  2  1  6
  1  3  2  0
 25 28  1  0
 25 24  1  0
 25 26  1  1
 25 27  2  0
  6 11  1  0
  6 12  1  0
 29 36  1  0
 29 37  1  0
  9  7  1  1
  7 13  1  0
 10  8  1  1
  8 14  1  0
  4  5  1  0
 36 28  1  1
 33 30  1  6
 30 38  1  0
 34 31  1  1
 31 39  1  0
 35 32  1  1
 32 40  1  0
 41 43  1  0
 15 19  2  0
 42 43  2  0
 16 22  2  0
 12 17  1  6
 17 19  1  0
 17 20  1  0
 18 19  1  0
 18 22  1  0
 18 23  1  0
  9 10  1  0
  9 11  1  0
 10 12  1  0
 11  5  1  6
 33 34  1  0
 33 35  1  0
 34 36  1  0
 35 37  1  0
 37 43  1  6
 20 21  2  0
 21 22  1  0
M  CHG  3   2  -1  26  -1  41  -1
M  END
>  <COMPND>  (29) 
    udp_gluA.pdb 

>  <AUTHOR>  (29) 
    GENERATED BY OPEN BABEL 3.1.1

>  <MASTER>  (29) 
        0    0    0    0    0    0    0    0   56    0   56    0

>  <minimizedAffinity>  (29) 
-6.96673

>  <CNNscore>  (29) 
0.8471463323

>  <CNNaffinity>  (29) 
4.6411046982

>  <CNN_VS>  (29) 
3.9316947460

>  <CNNaffinity_variance>  (29) 
0.2479098290

$$$$
30
     RDKit          3D

 43 45  0  0  0  0  0  0  0  0999 V2000
   21.7442   73.3682   -4.4553 P   0  0  2  0  0  0  0  0  0  0  0  0
   22.2730   74.8964   -4.5174 O   0  0  0  0  0  0  0  0  0  0  0  0
   21.8314   72.6145   -5.7499 O   0  0  0  0  0  0  0  0  0  0  0  0
   20.2640   73.4949   -3.8144 O   0  0  0  0  0  0  0  0  0  0  0  0
   19.1887   73.8550   -4.6622 C   0  0  0  0  0  0  0  0  0  0  0  0
   17.3285   72.5992   -5.5225 O   0  0  0  0  0  0  0  0  0  0  0  0
   17.1648   71.3366   -2.8076 O   0  0  0  0  0  0  0  0  0  0  0  0
   18.4358   69.4242   -4.2785 O   0  0  0  0  0  0  0  0  0  0  0  0
   18.3166   71.7404   -3.5484 C   0  0  1  0  0  0  0  0  0  0  0  0
   18.5779   70.7704   -4.6811 C   0  0  2  0  0  0  0  0  0  0  0  0
   17.9685   73.0192   -4.2980 C   0  0  1  0  0  0  0  0  0  0  0  0
   17.5336   71.1889   -5.7020 C   0  0  2  0  0  0  0  0  0  0  0  0
   17.3630   70.5212   -2.3202 H   0  0  0  0  0  0  0  0  0  0  0  0
   19.1234   69.2067   -3.6290 H   0  0  0  0  0  0  0  0  0  0  0  0
   15.8307   70.3122   -7.7776 O   0  0  0  0  0  0  0  0  0  0  0  0
   19.2738   70.2933  -10.8417 O   0  0  0  0  0  0  0  0  0  0  0  0
   17.9588   70.9469   -7.0516 N   0  0  0  0  0  0  0  0  0  0  0  0
   17.5474   70.3027   -9.3015 N   0  0  0  0  0  0  0  0  0  0  0  0
   17.0235   70.5080   -8.0184 C   0  0  0  0  0  0  0  0  0  0  0  0
   19.2875   71.1458   -7.4064 C   0  0  0  0  0  0  0  0  0  0  0  0
   19.7721   70.9460   -8.6336 C   0  0  0  0  0  0  0  0  0  0  0  0
   18.8610   70.4862   -9.7022 C   0  0  0  0  0  0  0  0  0  0  0  0
   16.9157   69.9950   -9.9911 H   0  0  0  0  0  0  0  0  0  0  0  0
   22.6102   72.7334   -3.2470 O   0  0  0  0  0  0  0  0  0  0  0  0
   22.6781   71.2255   -2.6678 P   0  0  2  0  0  0  0  0  0  0  0  0
   24.2240   70.8078   -2.9042 O   0  0  0  0  0  0  0  0  0  0  0  0
   21.6824   70.2846   -3.2820 O   0  0  0  0  0  0  0  0  0  0  0  0
   22.5418   71.3945   -1.0693 O   0  0  0  0  0  0  0  0  0  0  0  0
   22.4798   73.4963    0.0207 O   0  0  0  0  0  0  0  0  0  0  0  0
   23.7267   71.0040    3.0706 O   0  0  0  0  0  0  0  0  0  0  0  0
   24.8163   70.7068    0.3764 O   0  0  0  0  0  0  0  0  0  0  0  0
   20.9863   71.9720    3.0054 O   0  0  0  0  0  0  0  0  0  0  0  0
   23.0238   71.3533    1.8781 C   0  0  2  0  0  0  0  0  0  0  0  0
   24.0206   71.8039    0.8100 C   0  0  2  0  0  0  0  0  0  0  0  0
   22.0554   72.4892    2.2155 C   0  0  1  0  0  0  0  0  0  0  0  0
   23.2961   72.4015   -0.3970 C   0  0  1  0  0  0  0  0  0  0  0  0
   21.4704   73.1159    0.9531 C   0  0  1  0  0  0  0  0  0  0  0  0
   24.3483   70.2838    2.8806 H   0  0  0  0  0  0  0  0  0  0  0  0
   25.2787   70.3226    1.1373 H   0  0  0  0  0  0  0  0  0  0  0  0
   21.3452   71.5702    3.8119 H   0  0  0  0  0  0  0  0  0  0  0  0
   20.8456   75.2474    0.1996 O   0  0  0  0  0  0  0  0  0  0  0  0
   20.2730   74.6899    2.3351 O   0  0  0  0  0  0  0  0  0  0  0  0
   20.7980   74.4126    1.2672 C   0  0  0  0  0  0  0  0  0  0  0  0
  1  4  1  0
  1 24  1  0
  1  2  1  6
  1  3  2  0
 25 28  1  0
 25 24  1  0
 25 26  1  1
 25 27  2  0
  6 11  1  0
  6 12  1  0
 29 36  1  0
 29 37  1  0
  9  7  1  1
  7 13  1  0
 10  8  1  1
  8 14  1  0
  4  5  1  0
 36 28  1  1
 33 30  1  1
 30 38  1  0
 34 31  1  6
 31 39  1  0
 35 32  1  1
 32 40  1  0
 41 43  1  0
 15 19  2  0
 42 43  2  0
 16 22  2  0
 12 17  1  6
 17 19  1  0
 17 20  1  0
 18 19  1  0
 18 22  1  0
 18 23  1  0
  9 10  1  0
  9 11  1  0
 10 12  1  0
 11  5  1  6
 33 34  1  0
 33 35  1  0
 34 36  1  0
 35 37  1  0
 37 43  1  1
 20 21  2  0
 21 22  1  0
M  CHG  3   2  -1  26  -1  41  -1
M  END
>  <COMPND>  (30) 
    udp_gluA.pdb 

>  <AUTHOR>  (30) 
    GENERATED BY OPEN BABEL 3.1.1

>  <MASTER>  (30) 
        0    0    0    0    0    0    0    0   56    0   56    0

>  <minimizedAffinity>  (30) 
-7.24275

>  <CNNscore>  (30) 
0.8463594913

>  <CNNaffinity>  (30) 
4.5531282425

>  <CNN_VS>  (30) 
3.8535833359

>  <CNNaffinity_variance>  (30) 
0.0482517295

$$$$
31
     RDKit          3D

 43 45  0  0  0  0  0  0  0  0999 V2000
   22.9283   71.9324   -3.7424 P   0  0  2  0  0  0  0  0  0  0  0  0
   23.5484   72.8997   -4.8820 O   0  0  0  0  0  0  0  0  0  0  0  0
   23.9059   70.9793   -3.1198 O   0  0  0  0  0  0  0  0  0  0  0  0
   21.6478   71.2547   -4.4628 O   0  0  0  0  0  0  0  0  0  0  0  0
   20.9154   70.2715   -3.7546 C   0  0  0  0  0  0  0  0  0  0  0  0
   19.0520   71.5003   -4.6465 O   0  0  0  0  0  0  0  0  0  0  0  0
   17.4272   70.2708   -2.4465 O   0  0  0  0  0  0  0  0  0  0  0  0
   16.7566   68.7465   -4.6059 O   0  0  0  0  0  0  0  0  0  0  0  0
   18.4969   69.7051   -3.2043 C   0  0  1  0  0  0  0  0  0  0  0  0
   18.0262   69.3651   -4.6025 C   0  0  2  0  0  0  0  0  0  0  0  0
   19.5169   70.8039   -3.4699 C   0  0  1  0  0  0  0  0  0  0  0  0
   18.0140   70.7290   -5.2716 C   0  0  2  0  0  0  0  0  0  0  0  0
   16.7628   69.5874   -2.2645 H   0  0  0  0  0  0  0  0  0  0  0  0
   16.8171   67.8819   -4.1693 H   0  0  0  0  0  0  0  0  0  0  0  0
   16.0425   70.2396   -7.2338 O   0  0  0  0  0  0  0  0  0  0  0  0
   19.1301   70.4482  -10.6496 O   0  0  0  0  0  0  0  0  0  0  0  0
   18.2751   70.6503   -6.6810 N   0  0  0  0  0  0  0  0  0  0  0  0
   17.5823   70.3429   -8.9331 N   0  0  0  0  0  0  0  0  0  0  0  0
   17.2137   70.3999   -7.5826 C   0  0  0  0  0  0  0  0  0  0  0  0
   19.5691   70.8218   -7.1573 C   0  0  0  0  0  0  0  0  0  0  0  0
   19.9051   70.7648   -8.4475 C   0  0  0  0  0  0  0  0  0  0  0  0
   18.8554   70.5064   -9.4549 C   0  0  0  0  0  0  0  0  0  0  0  0
   16.8608   70.1677   -9.5796 H   0  0  0  0  0  0  0  0  0  0  0  0
   22.2535   72.9758   -2.7086 O   0  0  0  0  0  0  0  0  0  0  0  0
   22.9133   74.1051   -1.7582 P   0  0  2  0  0  0  0  0  0  0  0  0
   21.8855   75.3484   -1.8930 O   0  0  0  0  0  0  0  0  0  0  0  0
   24.3369   74.4401   -2.0971 O   0  0  0  0  0  0  0  0  0  0  0  0
   22.6937   73.5562   -0.2572 O   0  0  0  0  0  0  0  0  0  0  0  0
   23.5388   71.4827    0.5144 O   0  0  0  0  0  0  0  0  0  0  0  0
   20.4346   72.1604    3.1550 O   0  0  0  0  0  0  0  0  0  0  0  0
   20.1030   72.7151    0.3060 O   0  0  0  0  0  0  0  0  0  0  0  0
   23.1856   72.5678    4.0015 O   0  0  0  0  0  0  0  0  0  0  0  0
   21.5021   72.5211    2.2786 C   0  0  2  0  0  0  0  0  0  0  0  0
   21.2026   72.0092    0.8694 C   0  0  2  0  0  0  0  0  0  0  0  0
   22.7879   71.8865    2.8132 C   0  0  1  0  0  0  0  0  0  0  0  0
   22.4194   72.1730   -0.0424 C   0  0  1  0  0  0  0  0  0  0  0  0
   23.9206   71.9801    1.7950 C   0  0  1  0  0  0  0  0  0  0  0  0
   19.6068   72.5525    2.8351 H   0  0  0  0  0  0  0  0  0  0  0  0
   19.3275   72.6157    0.8796 H   0  0  0  0  0  0  0  0  0  0  0  0
   22.4733   72.5158    4.6579 H   0  0  0  0  0  0  0  0  0  0  0  0
   24.7058   69.7826    2.0317 O   0  0  0  0  0  0  0  0  0  0  0  0
   26.1473   71.4657    2.5686 O   0  0  0  0  0  0  0  0  0  0  0  0
   25.0538   71.0850    2.1783 C   0  0  0  0  0  0  0  0  0  0  0  0
  1  4  1  0
  1 24  1  0
  1  2  1  6
  1  3  2  0
 25 28  1  0
 25 24  1  0
 25 26  1  1
 25 27  2  0
  6 11  1  0
  6 12  1  0
 29 36  1  0
 29 37  1  0
  9  7  1  1
  7 13  1  0
 10  8  1  1
  8 14  1  0
  4  5  1  0
 36 28  1  1
 33 30  1  1
 30 38  1  0
 34 31  1  6
 31 39  1  0
 35 32  1  1
 32 40  1  0
 41 43  1  0
 15 19  2  0
 42 43  2  0
 16 22  2  0
 12 17  1  6
 17 19  1  0
 17 20  1  0
 18 19  1  0
 18 22  1  0
 18 23  1  0
  9 10  1  0
  9 11  1  0
 10 12  1  0
 11  5  1  6
 33 34  1  0
 33 35  1  0
 34 36  1  0
 35 37  1  0
 37 43  1  1
 20 21  2  0
 21 22  1  0
M  CHG  3   2  -1  26  -1  41  -1
M  END
>  <COMPND>  (31) 
    udp_gluA.pdb 

>  <AUTHOR>  (31) 
    GENERATED BY OPEN BABEL 3.1.1

>  <MASTER>  (31) 
        0    0    0    0    0    0    0    0   56    0   56    0

>  <minimizedAffinity>  (31) 
-8.18476

>  <CNNscore>  (31) 
0.8375409245

>  <CNNaffinity>  (31) 
4.6886000633

>  <CNN_VS>  (31) 
3.9268944263

>  <CNNaffinity_variance>  (31) 
0.0266251173

$$$$
32
     RDKit          3D

 43 45  0  0  0  0  0  0  0  0999 V2000
   20.6395   71.3261   -1.5793 P   0  0  2  0  0  0  0  0  0  0  0  0
   21.0693   70.6048   -0.1958 O   0  0  0  0  0  0  0  0  0  0  0  0
   20.3477   72.7936   -1.4646 O   0  0  0  0  0  0  0  0  0  0  0  0
   19.4270   70.4100   -2.1347 O   0  0  0  0  0  0  0  0  0  0  0  0
   19.0861   70.4984   -3.5060 C   0  0  0  0  0  0  0  0  0  0  0  0
   17.3523   71.4460   -4.8748 O   0  0  0  0  0  0  0  0  0  0  0  0
   15.4370   69.7860   -3.2725 O   0  0  0  0  0  0  0  0  0  0  0  0
   15.7055   68.3375   -5.5672 O   0  0  0  0  0  0  0  0  0  0  0  0
   16.7643   69.4763   -3.6978 C   0  0  1  0  0  0  0  0  0  0  0  0
   16.7809   69.1670   -5.1798 C   0  0  2  0  0  0  0  0  0  0  0  0
   17.5896   70.7540   -3.6297 C   0  0  1  0  0  0  0  0  0  0  0  0
   16.6992   70.5547   -5.7926 C   0  0  2  0  0  0  0  0  0  0  0  0
   14.8906   68.9848   -3.3075 H   0  0  0  0  0  0  0  0  0  0  0  0
   15.8034   67.4660   -5.1514 H   0  0  0  0  0  0  0  0  0  0  0  0
   16.0168   72.3837   -7.8336 O   0  0  0  0  0  0  0  0  0  0  0  0
   19.2933   70.7577  -10.6379 O   0  0  0  0  0  0  0  0  0  0  0  0
   17.3576   70.6311   -7.0660 N   0  0  0  0  0  0  0  0  0  0  0  0
   17.6487   71.5714   -9.2287 N   0  0  0  0  0  0  0  0  0  0  0  0
   16.9373   71.5862   -8.0217 C   0  0  0  0  0  0  0  0  0  0  0  0
   18.4072   69.7683   -7.3570 C   0  0  0  0  0  0  0  0  0  0  0  0
   19.0758   69.7663   -8.5119 C   0  0  0  0  0  0  0  0  0  0  0  0
   18.6989   70.7324   -9.5645 C   0  0  0  0  0  0  0  0  0  0  0  0
   17.3729   72.2260   -9.9105 H   0  0  0  0  0  0  0  0  0  0  0  0
   21.8587   70.9577   -2.5746 O   0  0  0  0  0  0  0  0  0  0  0  0
   23.1674   71.8023   -3.0078 P   0  0  2  0  0  0  0  0  0  0  0  0
   24.3651   70.7212   -2.8772 O   0  0  0  0  0  0  0  0  0  0  0  0
   23.3796   73.0592   -2.2147 O   0  0  0  0  0  0  0  0  0  0  0  0
   22.9985   72.0330   -4.5955 O   0  0  0  0  0  0  0  0  0  0  0  0
   21.6607   73.9651   -4.8897 O   0  0  0  0  0  0  0  0  0  0  0  0
   22.4396   72.8786   -8.7988 O   0  0  0  0  0  0  0  0  0  0  0  0
   21.7840   70.8507   -6.8008 O   0  0  0  0  0  0  0  0  0  0  0  0
   23.8358   75.1314   -7.6046 O   0  0  0  0  0  0  0  0  0  0  0  0
   22.7122   73.0096   -7.4036 C   0  0  2  0  0  0  0  0  0  0  0  0
   21.6525   72.2535   -6.6019 C   0  0  2  0  0  0  0  0  0  0  0  0
   22.6821   74.4991   -7.0537 C   0  0  1  0  0  0  0  0  0  0  0  0
   21.7756   72.5585   -5.1084 C   0  0  1  0  0  0  0  0  0  0  0  0
   22.6810   74.7166   -5.5434 C   0  0  1  0  0  0  0  0  0  0  0  0
   22.4534   71.9401   -9.0444 H   0  0  0  0  0  0  0  0  0  0  0  0
   21.7072   70.6500   -7.7464 H   0  0  0  0  0  0  0  0  0  0  0  0
   23.8486   75.0003   -8.5656 H   0  0  0  0  0  0  0  0  0  0  0  0
   21.7529   76.2013   -3.9826 O   0  0  0  0  0  0  0  0  0  0  0  0
   22.5153   77.0910   -5.9387 O   0  0  0  0  0  0  0  0  0  0  0  0
   22.3227   76.1285   -5.2110 C   0  0  0  0  0  0  0  0  0  0  0  0
  1  4  1  0
  1 24  1  0
  1  2  1  1
  1  3  2  0
 25 28  1  0
 25 24  1  0
 25 26  1  6
 25 27  2  0
  6 11  1  0
  6 12  1  0
 29 36  1  0
 29 37  1  0
  9  7  1  6
  7 13  1  0
 10  8  1  1
  8 14  1  0
  4  5  1  0
 36 28  1  6
 33 30  1  6
 30 38  1  0
 34 31  1  1
 31 39  1  0
 35 32  1  6
 32 40  1  0
 41 43  1  0
 15 19  2  0
 42 43  2  0
 16 22  2  0
 12 17  1  6
 17 19  1  0
 17 20  1  0
 18 19  1  0
 18 22  1  0
 18 23  1  0
  9 10  1  0
  9 11  1  0
 10 12  1  0
 11  5  1  6
 33 34  1  0
 33 35  1  0
 34 36  1  0
 35 37  1  0
 37 43  1  6
 20 21  2  0
 21 22  1  0
M  CHG  3   2  -1  26  -1  41  -1
M  END
>  <COMPND>  (32) 
    udp_gluA.pdb 

>  <AUTHOR>  (32) 
    GENERATED BY OPEN BABEL 3.1.1

>  <MASTER>  (32) 
        0    0    0    0    0    0    0    0   56    0   56    0

>  <minimizedAffinity>  (32) 
-7.74870

>  <CNNscore>  (32) 
0.8186097741

>  <CNNaffinity>  (32) 
4.7159872055

>  <CNN_VS>  (32) 
3.8605532646

>  <CNNaffinity_variance>  (32) 
0.6688119173

$$$$
33
     RDKit          3D

 43 45  0  0  0  0  0  0  0  0999 V2000
   23.0694   71.9834   -3.2436 P   0  0  2  0  0  0  0  0  0  0  0  0
   24.1554   72.5371   -4.3079 O   0  0  0  0  0  0  0  0  0  0  0  0
   23.6268   71.0846   -2.1790 O   0  0  0  0  0  0  0  0  0  0  0  0
   21.9102   71.3393   -4.1707 O   0  0  0  0  0  0  0  0  0  0  0  0
   21.1204   70.2929   -3.6363 C   0  0  0  0  0  0  0  0  0  0  0  0
   19.2303   71.5065   -4.4921 O   0  0  0  0  0  0  0  0  0  0  0  0
   17.6755   70.3215   -2.2184 O   0  0  0  0  0  0  0  0  0  0  0  0
   16.9358   68.7567   -4.3256 O   0  0  0  0  0  0  0  0  0  0  0  0
   18.7203   69.7401   -2.9987 C   0  0  1  0  0  0  0  0  0  0  0  0
   18.2052   69.3737   -4.3745 C   0  0  2  0  0  0  0  0  0  0  0  0
   19.7319   70.8324   -3.3177 C   0  0  1  0  0  0  0  0  0  0  0  0
   18.1725   70.7244   -5.0690 C   0  0  2  0  0  0  0  0  0  0  0  0
   17.0168   69.6425   -2.0022 H   0  0  0  0  0  0  0  0  0  0  0  0
   17.0096   67.9005   -3.8745 H   0  0  0  0  0  0  0  0  0  0  0  0
   16.1704   70.0450   -6.9415 O   0  0  0  0  0  0  0  0  0  0  0  0
   19.1156   70.3467  -10.4741 O   0  0  0  0  0  0  0  0  0  0  0  0
   18.3887   70.6183   -6.4842 N   0  0  0  0  0  0  0  0  0  0  0  0
   17.6394   70.1949   -8.6991 N   0  0  0  0  0  0  0  0  0  0  0  0
   17.3154   70.2705   -7.3381 C   0  0  0  0  0  0  0  0  0  0  0  0
   19.6510   70.8589   -7.0130 C   0  0  0  0  0  0  0  0  0  0  0  0
   19.9446   70.7831   -8.3126 C   0  0  0  0  0  0  0  0  0  0  0  0
   18.8797   70.4247   -9.2722 C   0  0  0  0  0  0  0  0  0  0  0  0
   16.9089   69.9524   -9.3129 H   0  0  0  0  0  0  0  0  0  0  0  0
   22.3813   73.3371   -2.6895 O   0  0  0  0  0  0  0  0  0  0  0  0
   22.9471   74.4903   -1.7079 P   0  0  2  0  0  0  0  0  0  0  0  0
   22.1538   75.8140   -2.1966 O   0  0  0  0  0  0  0  0  0  0  0  0
   24.4421   74.6271   -1.7161 O   0  0  0  0  0  0  0  0  0  0  0  0
   22.3142   74.1460   -0.2645 O   0  0  0  0  0  0  0  0  0  0  0  0
   22.3084   75.0562    1.9219 O   0  0  0  0  0  0  0  0  0  0  0  0
   23.0459   71.0618    2.6761 O   0  0  0  0  0  0  0  0  0  0  0  0
   24.3723   72.4190    0.4550 O   0  0  0  0  0  0  0  0  0  0  0  0
   20.4099   72.1793    3.1796 O   0  0  0  0  0  0  0  0  0  0  0  0
   22.4950   72.1750    1.9724 C   0  0  2  0  0  0  0  0  0  0  0  0
   23.6256   73.0751    1.4731 C   0  0  2  0  0  0  0  0  0  0  0  0
   21.5897   72.9435    2.9376 C   0  0  1  0  0  0  0  0  0  0  0  0
   23.0741   74.3891    0.9179 C   0  0  1  0  0  0  0  0  0  0  0  0
   21.1843   74.2976    2.3625 C   0  0  1  0  0  0  0  0  0  0  0  0
   23.6251   70.5583    2.0825 H   0  0  0  0  0  0  0  0  0  0  0  0
   24.7249   71.5842    0.8003 H   0  0  0  0  0  0  0  0  0  0  0  0
   20.6541   71.3149    3.5457 H   0  0  0  0  0  0  0  0  0  0  0  0
   21.1579   76.3966    3.4090 O   0  0  0  0  0  0  0  0  0  0  0  0
   19.7051   74.8245    4.1944 O   0  0  0  0  0  0  0  0  0  0  0  0
   20.5874   75.1664    3.4214 C   0  0  0  0  0  0  0  0  0  0  0  0
  1  4  1  0
  1 24  1  0
  1  2  1  6
  1  3  2  0
 25 28  1  0
 25 24  1  0
 25 26  1  6
 25 27  2  0
  6 11  1  0
  6 12  1  0
 29 36  1  0
 29 37  1  0
  9  7  1  1
  7 13  1  0
 10  8  1  1
  8 14  1  0
  4  5  1  0
 36 28  1  6
 33 30  1  1
 30 38  1  0
 34 31  1  6
 31 39  1  0
 35 32  1  6
 32 40  1  0
 41 43  1  0
 15 19  2  0
 42 43  2  0
 16 22  2  0
 12 17  1  6
 17 19  1  0
 17 20  1  0
 18 19  1  0
 18 22  1  0
 18 23  1  0
  9 10  1  0
  9 11  1  0
 10 12  1  0
 11  5  1  6
 33 34  1  0
 33 35  1  0
 34 36  1  0
 35 37  1  0
 37 43  1  1
 20 21  2  0
 21 22  1  0
M  CHG  3   2  -1  26  -1  41  -1
M  END
>  <COMPND>  (33) 
    udp_gluA.pdb 

>  <AUTHOR>  (33) 
    GENERATED BY OPEN BABEL 3.1.1

>  <MASTER>  (33) 
        0    0    0    0    0    0    0    0   56    0   56    0

>  <minimizedAffinity>  (33) 
-7.14768

>  <CNNscore>  (33) 
0.7843106389

>  <CNNaffinity>  (33) 
4.6152386665

>  <CNN_VS>  (33) 
3.6197807789

>  <CNNaffinity_variance>  (33) 
0.0283709913

$$$$
34
     RDKit          3D

 43 45  0  0  0  0  0  0  0  0999 V2000
   20.8655   74.1412   -4.0781 P   0  0  2  0  0  0  0  0  0  0  0  0
   20.8421   75.3286   -5.1775 O   0  0  0  0  0  0  0  0  0  0  0  0
   22.2175   73.5437   -3.8196 O   0  0  0  0  0  0  0  0  0  0  0  0
   19.7292   73.1115   -4.5942 O   0  0  0  0  0  0  0  0  0  0  0  0
   19.3923   72.0090   -3.7723 C   0  0  0  0  0  0  0  0  0  0  0  0
   17.4371   72.0303   -5.1703 O   0  0  0  0  0  0  0  0  0  0  0  0
   16.1103   70.4148   -3.0207 O   0  0  0  0  0  0  0  0  0  0  0  0
   16.7512   68.5235   -4.8777 O   0  0  0  0  0  0  0  0  0  0  0  0
   17.4635   70.3769   -3.4743 C   0  0  1  0  0  0  0  0  0  0  0  0
   17.5460   69.6895   -4.8208 C   0  0  2  0  0  0  0  0  0  0  0  0
   17.8841   71.7997   -3.8167 C   0  0  1  0  0  0  0  0  0  0  0  0
   17.0561   70.7776   -5.7610 C   0  0  2  0  0  0  0  0  0  0  0  0
   15.8190   69.5168   -2.7959 H   0  0  0  0  0  0  0  0  0  0  0  0
   17.1039   67.8614   -4.2619 H   0  0  0  0  0  0  0  0  0  0  0  0
   15.5829   70.6103   -8.1648 O   0  0  0  0  0  0  0  0  0  0  0  0
   19.4174   70.4030  -10.7139 O   0  0  0  0  0  0  0  0  0  0  0  0
   17.6441   70.6790   -7.0669 N   0  0  0  0  0  0  0  0  0  0  0  0
   17.4941   70.5062   -9.4320 N   0  0  0  0  0  0  0  0  0  0  0  0
   16.8145   70.6000   -8.2104 C   0  0  0  0  0  0  0  0  0  0  0  0
   19.0266   70.6632   -7.2056 C   0  0  0  0  0  0  0  0  0  0  0  0
   19.6600   70.5734   -8.3767 C   0  0  0  0  0  0  0  0  0  0  0  0
   18.8666   70.4860   -9.6203 C   0  0  0  0  0  0  0  0  0  0  0  0
   16.9377   70.4479  -10.2422 H   0  0  0  0  0  0  0  0  0  0  0  0
   20.1748   74.8276   -2.7879 O   0  0  0  0  0  0  0  0  0  0  0  0
   20.7719   75.8379   -1.6759 P   0  0  2  0  0  0  0  0  0  0  0  0
   19.5750   76.9075   -1.4671 O   0  0  0  0  0  0  0  0  0  0  0  0
   22.0915   76.4509   -2.0461 O   0  0  0  0  0  0  0  0  0  0  0  0
   20.7925   74.9782   -0.3109 O   0  0  0  0  0  0  0  0  0  0  0  0
   20.5968   72.6185   -0.3608 O   0  0  0  0  0  0  0  0  0  0  0  0
   19.6234   73.4600    3.5650 O   0  0  0  0  0  0  0  0  0  0  0  0
   18.6014   75.1284    1.3957 O   0  0  0  0  0  0  0  0  0  0  0  0
   22.2314   72.3534    2.9133 O   0  0  0  0  0  0  0  0  0  0  0  0
   20.2914   73.6522    2.3181 C   0  0  2  0  0  0  0  0  0  0  0  0
   19.2585   73.8795    1.2140 C   0  0  2  0  0  0  0  0  0  0  0  0
   21.1163   72.3970    2.0251 C   0  0  1  0  0  0  0  0  0  0  0  0
   19.9188   73.8601   -0.1653 C   0  0  1  0  0  0  0  0  0  0  0  0
   21.6353   72.3939    0.5901 C   0  0  1  0  0  0  0  0  0  0  0  0
   19.0927   74.2452    3.7722 H   0  0  0  0  0  0  0  0  0  0  0  0
   18.1804   75.1477    2.2690 H   0  0  0  0  0  0  0  0  0  0  0  0
   21.9148   72.3551    3.8301 H   0  0  0  0  0  0  0  0  0  0  0  0
   21.6460   70.0925    1.0427 O   0  0  0  0  0  0  0  0  0  0  0  0
   22.9113   70.8133   -0.7119 O   0  0  0  0  0  0  0  0  0  0  0  0
   22.1476   71.0416    0.2142 C   0  0  0  0  0  0  0  0  0  0  0  0
  1  4  1  0
  1 24  1  0
  1  2  1  6
  1  3  2  0
 25 28  1  0
 25 24  1  0
 25 26  1  1
 25 27  2  0
  6 11  1  0
  6 12  1  0
 29 36  1  0
 29 37  1  0
  9  7  1  6
  7 13  1  0
 10  8  1  1
  8 14  1  0
  4  5  1  0
 36 28  1  1
 33 30  1  1
 30 38  1  0
 34 31  1  1
 31 39  1  0
 35 32  1  1
 32 40  1  0
 41 43  1  0
 15 19  2  0
 42 43  2  0
 16 22  2  0
 12 17  1  6
 17 19  1  0
 17 20  1  0
 18 19  1  0
 18 22  1  0
 18 23  1  0
  9 10  1  0
  9 11  1  0
 10 12  1  0
 11  5  1  6
 33 34  1  0
 33 35  1  0
 34 36  1  0
 35 37  1  0
 37 43  1  6
 20 21  2  0
 21 22  1  0
M  CHG  3   2  -1  26  -1  41  -1
M  END
>  <COMPND>  (34) 
    udp_gluA.pdb 

>  <AUTHOR>  (34) 
    GENERATED BY OPEN BABEL 3.1.1

>  <MASTER>  (34) 
        0    0    0    0    0    0    0    0   56    0   56    0

>  <minimizedAffinity>  (34) 
-6.51143

>  <CNNscore>  (34) 
0.7579241395

>  <CNNaffinity>  (34) 
4.5241646767

>  <CNN_VS>  (34) 
3.4289736748

>  <CNNaffinity_variance>  (34) 
0.0532166250

$$$$
35
     RDKit          3D

 43 45  0  0  0  0  0  0  0  0999 V2000
   22.5669   71.9215   -2.3494 P   0  0  2  0  0  0  0  0  0  0  0  0
   23.7002   71.5585   -3.4461 O   0  0  0  0  0  0  0  0  0  0  0  0
   22.3832   70.8996   -1.2661 O   0  0  0  0  0  0  0  0  0  0  0  0
   21.2550   72.2459   -3.2391 O   0  0  0  0  0  0  0  0  0  0  0  0
   20.5459   71.1652   -3.8170 C   0  0  0  0  0  0  0  0  0  0  0  0
   18.5066   71.8664   -4.8787 O   0  0  0  0  0  0  0  0  0  0  0  0
   17.0805   70.4978   -2.6238 O   0  0  0  0  0  0  0  0  0  0  0  0
   16.8723   68.6836   -4.6489 O   0  0  0  0  0  0  0  0  0  0  0  0
   18.2857   70.1225   -3.2910 C   0  0  1  0  0  0  0  0  0  0  0  0
   17.9734   69.5678   -4.6647 C   0  0  2  0  0  0  0  0  0  0  0  0
   19.0519   71.3944   -3.6276 C   0  0  1  0  0  0  0  0  0  0  0  0
   17.6966   70.8323   -5.4599 C   0  0  2  0  0  0  0  0  0  0  0  0
   16.5737   69.7015   -2.3986 H   0  0  0  0  0  0  0  0  0  0  0  0
   17.0986   67.8947   -4.1307 H   0  0  0  0  0  0  0  0  0  0  0  0
   15.8298   70.8822   -7.5787 O   0  0  0  0  0  0  0  0  0  0  0  0
   19.1294   70.2911  -10.7421 O   0  0  0  0  0  0  0  0  0  0  0  0
   18.0405   70.6938   -6.8468 N   0  0  0  0  0  0  0  0  0  0  0  0
   17.4749   70.5868   -9.1522 N   0  0  0  0  0  0  0  0  0  0  0  0
   17.0265   70.7327   -7.8328 C   0  0  0  0  0  0  0  0  0  0  0  0
   19.3686   70.5234   -7.2183 C   0  0  0  0  0  0  0  0  0  0  0  0
   19.7807   70.3857   -8.4801 C   0  0  0  0  0  0  0  0  0  0  0  0
   18.7843   70.4143   -9.5708 C   0  0  0  0  0  0  0  0  0  0  0  0
   16.7869   70.6085   -9.8561 H   0  0  0  0  0  0  0  0  0  0  0  0
   23.0220   73.3820   -1.8272 O   0  0  0  0  0  0  0  0  0  0  0  0
   22.6538   74.8627   -2.3618 P   0  0  2  0  0  0  0  0  0  0  0  0
   24.0205   75.6948   -2.1168 O   0  0  0  0  0  0  0  0  0  0  0  0
   21.4389   75.4654   -1.7180 O   0  0  0  0  0  0  0  0  0  0  0  0
   22.5542   74.7061   -3.9643 O   0  0  0  0  0  0  0  0  0  0  0  0
   22.7228   76.1850   -5.8065 O   0  0  0  0  0  0  0  0  0  0  0  0
   19.5858   73.7574   -6.9615 O   0  0  0  0  0  0  0  0  0  0  0  0
   19.7835   74.7117   -4.2075 O   0  0  0  0  0  0  0  0  0  0  0  0
   22.2137   73.4129   -8.1557 O   0  0  0  0  0  0  0  0  0  0  0  0
   20.8150   74.0764   -6.3095 C   0  0  2  0  0  0  0  0  0  0  0  0
   20.5785   75.1883   -5.2871 C   0  0  2  0  0  0  0  0  0  0  0  0
   21.8105   74.5375   -7.3765 C   0  0  1  0  0  0  0  0  0  0  0  0
   21.9039   75.7149   -4.7351 C   0  0  1  0  0  0  0  0  0  0  0  0
   23.0510   75.1648   -6.7471 C   0  0  1  0  0  0  0  0  0  0  0  0
   18.9375   73.4618   -6.3030 H   0  0  0  0  0  0  0  0  0  0  0  0
   18.9410   74.3757   -4.5506 H   0  0  0  0  0  0  0  0  0  0  0  0
   21.4334   73.0043   -8.5618 H   0  0  0  0  0  0  0  0  0  0  0  0
   25.1088   76.1339   -7.3194 O   0  0  0  0  0  0  0  0  0  0  0  0
   23.4410   76.2420   -8.8705 O   0  0  0  0  0  0  0  0  0  0  0  0
   23.8524   75.8990   -7.7723 C   0  0  0  0  0  0  0  0  0  0  0  0
  1  4  1  0
  1 24  1  0
  1  2  1  6
  1  3  2  0
 25 28  1  0
 25 24  1  0
 25 26  1  6
 25 27  2  0
  6 11  1  0
  6 12  1  0
 29 36  1  0
 29 37  1  0
  9  7  1  6
  7 13  1  0
 10  8  1  1
  8 14  1  0
  4  5  1  0
 36 28  1  6
 33 30  1  6
 30 38  1  0
 34 31  1  1
 31 39  1  0
 35 32  1  1
 32 40  1  0
 41 43  1  0
 15 19  2  0
 42 43  2  0
 16 22  2  0
 12 17  1  6
 17 19  1  0
 17 20  1  0
 18 19  1  0
 18 22  1  0
 18 23  1  0
  9 10  1  0
  9 11  1  0
 10 12  1  0
 11  5  1  6
 33 34  1  0
 33 35  1  0
 34 36  1  0
 35 37  1  0
 37 43  1  6
 20 21  2  0
 21 22  1  0
M  CHG  3   2  -1  26  -1  41  -1
M  END
>  <COMPND>  (35) 
    udp_gluA.pdb 

>  <AUTHOR>  (35) 
    GENERATED BY OPEN BABEL 3.1.1

>  <MASTER>  (35) 
        0    0    0    0    0    0    0    0   56    0   56    0

>  <minimizedAffinity>  (35) 
-6.51665

>  <CNNscore>  (35) 
0.7057420611

>  <CNNaffinity>  (35) 
4.4558296204

>  <CNN_VS>  (35) 
3.1446664333

>  <CNNaffinity_variance>  (35) 
0.2307997644

$$$$
36
     RDKit          3D

 43 45  0  0  0  0  0  0  0  0999 V2000
   23.0800   71.5308   -2.7074 P   0  0  2  0  0  0  0  0  0  0  0  0
   23.1852   73.1259   -2.4551 O   0  0  0  0  0  0  0  0  0  0  0  0
   24.3515   70.8760   -3.1614 O   0  0  0  0  0  0  0  0  0  0  0  0
   21.8157   71.3779   -3.7055 O   0  0  0  0  0  0  0  0  0  0  0  0
   21.6076   72.3734   -4.6905 C   0  0  0  0  0  0  0  0  0  0  0  0
   20.5751   70.5250   -5.8284 O   0  0  0  0  0  0  0  0  0  0  0  0
   20.9366   72.1138   -8.3457 O   0  0  0  0  0  0  0  0  0  0  0  0
   18.3045   72.5180   -7.7588 O   0  0  0  0  0  0  0  0  0  0  0  0
   20.6232   72.5667   -7.0284 C   0  0  1  0  0  0  0  0  0  0  0  0
   19.1843   72.2388   -6.6900 C   0  0  2  0  0  0  0  0  0  0  0  0
   21.3889   71.6992   -6.0388 C   0  0  1  0  0  0  0  0  0  0  0  0
   19.2654   70.7556   -6.3715 C   0  0  2  0  0  0  0  0  0  0  0  0
   20.4589   72.6532   -8.9956 H   0  0  0  0  0  0  0  0  0  0  0  0
   18.2877   73.4745   -7.9224 H   0  0  0  0  0  0  0  0  0  0  0  0
   16.6631   69.8739   -7.0250 O   0  0  0  0  0  0  0  0  0  0  0  0
   15.5767   69.2141   -2.5946 O   0  0  0  0  0  0  0  0  0  0  0  0
   18.2821   70.3474   -5.4085 N   0  0  0  0  0  0  0  0  0  0  0  0
   16.1242   69.5471   -4.8177 N   0  0  0  0  0  0  0  0  0  0  0  0
   17.0042   69.9216   -5.8417 C   0  0  0  0  0  0  0  0  0  0  0  0
   18.5877   70.3696   -4.0531 C   0  0  0  0  0  0  0  0  0  0  0  0
   17.7385   70.0095   -3.0888 C   0  0  0  0  0  0  0  0  0  0  0  0
   16.3821   69.5528   -3.4565 C   0  0  0  0  0  0  0  0  0  0  0  0
   15.2277   69.2489   -5.0947 H   0  0  0  0  0  0  0  0  0  0  0  0
   22.5026   70.9785   -1.3023 O   0  0  0  0  0  0  0  0  0  0  0  0
   21.3912   71.5876   -0.2985 P   0  0  2  0  0  0  0  0  0  0  0  0
   21.1451   70.3837    0.7552 O   0  0  0  0  0  0  0  0  0  0  0  0
   20.1465   72.0760   -0.9812 O   0  0  0  0  0  0  0  0  0  0  0  0
   22.1772   72.7144    0.5470 O   0  0  0  0  0  0  0  0  0  0  0  0
   23.5721   71.9122    2.2848 O   0  0  0  0  0  0  0  0  0  0  0  0
   23.4687   75.9627    3.0918 O   0  0  0  0  0  0  0  0  0  0  0  0
   21.0382   74.5477    2.3015 O   0  0  0  0  0  0  0  0  0  0  0  0
   25.8287   74.7765    1.8775 O   0  0  0  0  0  0  0  0  0  0  0  0
   23.4512   74.7973    2.2675 C   0  0  2  0  0  0  0  0  0  0  0  0
   22.2634   73.9154    2.6533 C   0  0  2  0  0  0  0  0  0  0  0  0
   24.7657   74.0445    2.4848 C   0  0  1  0  0  0  0  0  0  0  0  0
   22.3411   72.5569    1.9552 C   0  0  1  0  0  0  0  0  0  0  0  0
   24.7181   72.6503    1.8664 C   0  0  1  0  0  0  0  0  0  0  0  0
   22.6429   76.4572    2.9705 H   0  0  0  0  0  0  0  0  0  0  0  0
   20.9823   75.4104    2.7407 H   0  0  0  0  0  0  0  0  0  0  0  0
   25.8698   75.6660    2.2622 H   0  0  0  0  0  0  0  0  0  0  0  0
   26.6486   72.5270    3.1928 O   0  0  0  0  0  0  0  0  0  0  0  0
   26.0464   70.6449    2.0551 O   0  0  0  0  0  0  0  0  0  0  0  0
   25.8540   71.8131    2.3574 C   0  0  0  0  0  0  0  0  0  0  0  0
  1  4  1  0
  1 24  1  0
  1  2  1  1
  1  3  2  0
 25 28  1  0
 25 24  1  0
 25 26  1  1
 25 27  2  0
  6 11  1  0
  6 12  1  0
 29 36  1  0
 29 37  1  0
  9  7  1  6
  7 13  1  0
 10  8  1  6
  8 14  1  0
  4  5  1  0
 36 28  1  6
 33 30  1  1
 30 38  1  0
 34 31  1  6
 31 39  1  0
 35 32  1  6
 32 40  1  0
 41 43  1  0
 15 19  2  0
 42 43  2  0
 16 22  2  0
 12 17  1  1
 17 19  1  0
 17 20  1  0
 18 19  1  0
 18 22  1  0
 18 23  1  0
  9 10  1  0
  9 11  1  0
 10 12  1  0
 11  5  1  1
 33 34  1  0
 33 35  1  0
 34 36  1  0
 35 37  1  0
 37 43  1  1
 20 21  2  0
 21 22  1  0
M  CHG  3   2  -1  26  -1  41  -1
M  END
>  <COMPND>  (36) 
    udp_gluA.pdb 

>  <AUTHOR>  (36) 
    GENERATED BY OPEN BABEL 3.1.1

>  <MASTER>  (36) 
        0    0    0    0    0    0    0    0   56    0   56    0

>  <minimizedAffinity>  (36) 
-7.55475

>  <CNNscore>  (36) 
0.6953733563

>  <CNNaffinity>  (36) 
4.4272675514

>  <CNN_VS>  (36) 
3.0786039829

>  <CNNaffinity_variance>  (36) 
0.0738027394

$$$$
37
     RDKit          3D

 43 45  0  0  0  0  0  0  0  0999 V2000
   23.1703   73.4713   -4.2048 P   0  0  2  0  0  0  0  0  0  0  0  0
   24.1813   72.2103   -4.1235 O   0  0  0  0  0  0  0  0  0  0  0  0
   23.7623   74.7215   -4.7863 O   0  0  0  0  0  0  0  0  0  0  0  0
   22.5908   73.6024   -2.6998 O   0  0  0  0  0  0  0  0  0  0  0  0
   21.6197   74.5976   -2.4335 C   0  0  0  0  0  0  0  0  0  0  0  0
   20.8825   72.6975   -1.1593 O   0  0  0  0  0  0  0  0  0  0  0  0
   18.5984   74.4203   -0.2613 O   0  0  0  0  0  0  0  0  0  0  0  0
   20.2898   74.5117    1.8758 O   0  0  0  0  0  0  0  0  0  0  0  0
   19.9559   74.7809   -0.5176 C   0  0  1  0  0  0  0  0  0  0  0  0
   20.8498   74.2850    0.5993 C   0  0  2  0  0  0  0  0  0  0  0  0
   20.4438   73.9608   -1.7041 C   0  0  1  0  0  0  0  0  0  0  0  0
   20.9757   72.8073    0.2699 C   0  0  2  0  0  0  0  0  0  0  0  0
   18.2647   74.9315    0.4930 H   0  0  0  0  0  0  0  0  0  0  0  0
   20.2310   75.4668    2.0381 H   0  0  0  0  0  0  0  0  0  0  0  0
   21.3853   70.0855    0.9030 O   0  0  0  0  0  0  0  0  0  0  0  0
   25.8263   70.7994    1.9093 O   0  0  0  0  0  0  0  0  0  0  0  0
   22.2289   72.2548    0.7000 N   0  0  0  0  0  0  0  0  0  0  0  0
   23.5965   70.4439    1.4046 N   0  0  0  0  0  0  0  0  0  0  0  0
   22.3281   70.8741    0.9934 C   0  0  0  0  0  0  0  0  0  0  0  0
   23.3425   73.0765    0.8257 C   0  0  0  0  0  0  0  0  0  0  0  0
   24.5449   72.6518    1.2187 C   0  0  0  0  0  0  0  0  0  0  0  0
   24.7335   71.2231    1.5453 C   0  0  0  0  0  0  0  0  0  0  0  0
   23.6897   69.4869    1.6164 H   0  0  0  0  0  0  0  0  0  0  0  0
   21.9129   72.8758   -5.0277 O   0  0  0  0  0  0  0  0  0  0  0  0
   21.1528   73.4215   -6.3461 P   0  0  2  0  0  0  0  0  0  0  0  0
   22.1325   72.9677   -7.5523 O   0  0  0  0  0  0  0  0  0  0  0  0
   20.8477   74.8912   -6.3170 O   0  0  0  0  0  0  0  0  0  0  0  0
   19.8574   72.4715   -6.4944 O   0  0  0  0  0  0  0  0  0  0  0  0
   19.3912   70.2822   -5.7208 O   0  0  0  0  0  0  0  0  0  0  0  0
   17.4709   70.3080   -9.3786 O   0  0  0  0  0  0  0  0  0  0  0  0
   20.1205   71.5037   -9.0886 O   0  0  0  0  0  0  0  0  0  0  0  0
   15.9330   70.5292   -6.9216 O   0  0  0  0  0  0  0  0  0  0  0  0
   17.9689   70.8695   -8.1642 C   0  0  2  0  0  0  0  0  0  0  0  0
   19.4867   70.6949   -8.1044 C   0  0  2  0  0  0  0  0  0  0  0  0
   17.3026   70.1380   -6.9968 C   0  0  1  0  0  0  0  0  0  0  0  0
   20.0270   71.0741   -6.7249 C   0  0  1  0  0  0  0  0  0  0  0  0
   17.9791   70.4730   -5.6706 C   0  0  1  0  0  0  0  0  0  0  0  0
   17.8805   70.7572  -10.1347 H   0  0  0  0  0  0  0  0  0  0  0  0
   19.7822   71.2687   -9.9665 H   0  0  0  0  0  0  0  0  0  0  0  0
   15.4909   70.3216   -7.7596 H   0  0  0  0  0  0  0  0  0  0  0  0
   18.3087   69.6790   -3.4883 O   0  0  0  0  0  0  0  0  0  0  0  0
   16.6401   68.7130   -4.7056 O   0  0  0  0  0  0  0  0  0  0  0  0
   17.5499   69.5220   -4.6011 C   0  0  0  0  0  0  0  0  0  0  0  0
  1  4  1  0
  1 24  1  0
  1  2  1  1
  1  3  2  0
 25 28  1  0
 25 24  1  0
 25 26  1  6
 25 27  2  0
  6 11  1  0
  6 12  1  0
 29 36  1  0
 29 37  1  0
  9  7  1  1
  7 13  1  0
 10  8  1  1
  8 14  1  0
  4  5  1  0
 36 28  1  1
 33 30  1  6
 30 38  1  0
 34 31  1  6
 31 39  1  0
 35 32  1  1
 32 40  1  0
 41 43  1  0
 15 19  2  0
 42 43  2  0
 16 22  2  0
 12 17  1  6
 17 19  1  0
 17 20  1  0
 18 19  1  0
 18 22  1  0
 18 23  1  0
  9 10  1  0
  9 11  1  0
 10 12  1  0
 11  5  1  1
 33 34  1  0
 33 35  1  0
 34 36  1  0
 35 37  1  0
 37 43  1  1
 20 21  2  0
 21 22  1  0
M  CHG  3   2  -1  26  -1  41  -1
M  END
>  <COMPND>  (37) 
    udp_gluA.pdb 

>  <AUTHOR>  (37) 
    GENERATED BY OPEN BABEL 3.1.1

>  <MASTER>  (37) 
        0    0    0    0    0    0    0    0   56    0   56    0

>  <minimizedAffinity>  (37) 
-7.79554

>  <CNNscore>  (37) 
0.6430556178

>  <CNNaffinity>  (37) 
4.5802011490

>  <CNN_VS>  (37) 
2.9453241825

>  <CNNaffinity_variance>  (37) 
0.0859473422

$$$$
38
     RDKit          3D

 43 45  0  0  0  0  0  0  0  0999 V2000
   21.9102   72.5301   -5.8536 P   0  0  2  0  0  0  0  0  0  0  0  0
   21.3217   73.9683   -5.4018 O   0  0  0  0  0  0  0  0  0  0  0  0
   23.0584   72.5899   -6.8179 O   0  0  0  0  0  0  0  0  0  0  0  0
   20.6060   71.7195   -6.3634 O   0  0  0  0  0  0  0  0  0  0  0  0
   20.0512   72.0543   -7.6223 C   0  0  0  0  0  0  0  0  0  0  0  0
   18.9024   69.9925   -7.1674 O   0  0  0  0  0  0  0  0  0  0  0  0
   18.0984   70.0192  -10.0560 O   0  0  0  0  0  0  0  0  0  0  0  0
   15.8490   70.9172   -8.8031 O   0  0  0  0  0  0  0  0  0  0  0  0
   18.2478   71.1121   -9.1495 C   0  0  1  0  0  0  0  0  0  0  0  0
   17.0919   71.1441   -8.1721 C   0  0  2  0  0  0  0  0  0  0  0  0
   19.4281   70.8077   -8.2371 C   0  0  1  0  0  0  0  0  0  0  0  0
   17.4670   70.0354   -7.2036 C   0  0  2  0  0  0  0  0  0  0  0  0
   17.3500   70.1909  -10.6494 H   0  0  0  0  0  0  0  0  0  0  0  0
   15.6554   71.6503   -9.4090 H   0  0  0  0  0  0  0  0  0  0  0  0
   16.3005   68.0624   -5.5535 O   0  0  0  0  0  0  0  0  0  0  0  0
   15.6082   71.0727   -2.1325 O   0  0  0  0  0  0  0  0  0  0  0  0
   16.9735   70.2762   -5.8773 N   0  0  0  0  0  0  0  0  0  0  0  0
   15.9559   69.5638   -3.8516 N   0  0  0  0  0  0  0  0  0  0  0  0
   16.4054   69.2159   -5.1322 C   0  0  0  0  0  0  0  0  0  0  0  0
   17.0560   71.5495   -5.3270 C   0  0  0  0  0  0  0  0  0  0  0  0
   16.6234   71.8658   -4.1049 C   0  0  0  0  0  0  0  0  0  0  0  0
   16.0158   70.8158   -3.2613 C   0  0  0  0  0  0  0  0  0  0  0  0
   15.5547   68.8427   -3.3147 H   0  0  0  0  0  0  0  0  0  0  0  0
   22.2518   71.8185   -4.4430 O   0  0  0  0  0  0  0  0  0  0  0  0
   23.4776   72.0393   -3.4122 P   0  0  2  0  0  0  0  0  0  0  0  0
   24.4354   73.0836   -4.1948 O   0  0  0  0  0  0  0  0  0  0  0  0
   24.1612   70.7718   -2.9878 O   0  0  0  0  0  0  0  0  0  0  0  0
   22.8444   72.8964   -2.2010 O   0  0  0  0  0  0  0  0  0  0  0  0
   21.5271   71.8123   -0.5583 O   0  0  0  0  0  0  0  0  0  0  0  0
   20.4965   75.7716    0.0160 O   0  0  0  0  0  0  0  0  0  0  0  0
   20.7745   74.6903   -2.6836 O   0  0  0  0  0  0  0  0  0  0  0  0
   22.2914   74.4460    1.8793 O   0  0  0  0  0  0  0  0  0  0  0  0
   21.3568   74.6857   -0.3285 C   0  0  2  0  0  0  0  0  0  0  0  0
   20.7537   73.9056   -1.4968 C   0  0  2  0  0  0  0  0  0  0  0  0
   21.4941   73.7832    0.8997 C   0  0  1  0  0  0  0  0  0  0  0  0
   21.5243   72.6080   -1.7442 C   0  0  1  0  0  0  0  0  0  0  0  0
   22.1601   72.4569    0.5448 C   0  0  1  0  0  0  0  0  0  0  0  0
   20.3943   76.3588   -0.7495 H   0  0  0  0  0  0  0  0  0  0  0  0
   20.2875   75.5154   -2.5338 H   0  0  0  0  0  0  0  0  0  0  0  0
   21.8786   75.2918    2.1138 H   0  0  0  0  0  0  0  0  0  0  0  0
   21.6770   70.2450    1.1576 O   0  0  0  0  0  0  0  0  0  0  0  0
   22.1276   71.7158    2.8407 O   0  0  0  0  0  0  0  0  0  0  0  0
   21.9946   71.4672    1.6518 C   0  0  0  0  0  0  0  0  0  0  0  0
  1  4  1  0
  1 24  1  0
  1  2  1  1
  1  3  2  0
 25 28  1  0
 25 24  1  0
 25 26  1  6
 25 27  2  0
  6 11  1  0
  6 12  1  0
 29 36  1  0
 29 37  1  0
  9  7  1  6
  7 13  1  0
 10  8  1  6
  8 14  1  0
  4  5  1  0
 36 28  1  1
 33 30  1  1
 30 38  1  0
 34 31  1  6
 31 39  1  0
 35 32  1  1
 32 40  1  0
 41 43  1  0
 15 19  2  0
 42 43  2  0
 16 22  2  0
 12 17  1  1
 17 19  1  0
 17 20  1  0
 18 19  1  0
 18 22  1  0
 18 23  1  0
  9 10  1  0
  9 11  1  0
 10 12  1  0
 11  5  1  1
 33 34  1  0
 33 35  1  0
 34 36  1  0
 35 37  1  0
 37 43  1  1
 20 21  2  0
 21 22  1  0
M  CHG  3   2  -1  26  -1  41  -1
M  END
>  <COMPND>  (38) 
    udp_gluA.pdb 

>  <AUTHOR>  (38) 
    GENERATED BY OPEN BABEL 3.1.1

>  <MASTER>  (38) 
        0    0    0    0    0    0    0    0   56    0   56    0

>  <minimizedAffinity>  (38) 
-8.30995

>  <CNNscore>  (38) 
0.6057313681

>  <CNNaffinity>  (38) 
4.3965597153

>  <CNN_VS>  (38) 
2.6631340981

>  <CNNaffinity_variance>  (38) 
0.4106349349

$$$$
39
     RDKit          3D

 43 45  0  0  0  0  0  0  0  0999 V2000
   21.7115   72.6448   -5.5912 P   0  0  2  0  0  0  0  0  0  0  0  0
   21.1562   74.1572   -5.7434 O   0  0  0  0  0  0  0  0  0  0  0  0
   23.0920   72.4191   -6.1345 O   0  0  0  0  0  0  0  0  0  0  0  0
   20.5429   71.7344   -6.2418 O   0  0  0  0  0  0  0  0  0  0  0  0
   20.0700   72.0640   -7.5350 C   0  0  0  0  0  0  0  0  0  0  0  0
   18.9041   70.0057   -7.1086 O   0  0  0  0  0  0  0  0  0  0  0  0
   18.1354   70.0573  -10.0066 O   0  0  0  0  0  0  0  0  0  0  0  0
   15.8761   70.9594   -8.7747 O   0  0  0  0  0  0  0  0  0  0  0  0
   18.2800   71.1429   -9.0906 C   0  0  1  0  0  0  0  0  0  0  0  0
   17.1125   71.1747   -8.1271 C   0  0  2  0  0  0  0  0  0  0  0  0
   19.4474   70.8254   -8.1662 C   0  0  1  0  0  0  0  0  0  0  0  0
   17.4696   70.0572   -7.1619 C   0  0  2  0  0  0  0  0  0  0  0  0
   17.3953   70.2374  -10.6077 H   0  0  0  0  0  0  0  0  0  0  0  0
   15.6940   71.6978   -9.3776 H   0  0  0  0  0  0  0  0  0  0  0  0
   16.3006   68.0724   -5.5277 O   0  0  0  0  0  0  0  0  0  0  0  0
   15.5537   71.0700   -2.1071 O   0  0  0  0  0  0  0  0  0  0  0  0
   16.9613   70.2915   -5.8400 N   0  0  0  0  0  0  0  0  0  0  0  0
   15.9288   69.5675   -3.8260 N   0  0  0  0  0  0  0  0  0  0  0  0
   16.3933   69.2256   -5.1029 C   0  0  0  0  0  0  0  0  0  0  0  0
   17.0296   71.5641   -5.2861 C   0  0  0  0  0  0  0  0  0  0  0  0
   16.5827   71.8746   -4.0677 C   0  0  0  0  0  0  0  0  0  0  0  0
   15.9742   70.8185   -3.2324 C   0  0  0  0  0  0  0  0  0  0  0  0
   15.5273   68.8423   -3.2947 H   0  0  0  0  0  0  0  0  0  0  0  0
   21.5560   72.3587   -4.0079 O   0  0  0  0  0  0  0  0  0  0  0  0
   21.9139   71.0525   -3.1251 P   0  0  2  0  0  0  0  0  0  0  0  0
   23.5317   71.0128   -3.1624 O   0  0  0  0  0  0  0  0  0  0  0  0
   21.2533   69.7899   -3.5979 O   0  0  0  0  0  0  0  0  0  0  0  0
   21.5516   71.4707   -1.6098 O   0  0  0  0  0  0  0  0  0  0  0  0
   23.2015   72.8872   -0.6714 O   0  0  0  0  0  0  0  0  0  0  0  0
   20.7303   72.2127    2.5699 O   0  0  0  0  0  0  0  0  0  0  0  0
   21.4346   70.0267    0.7645 O   0  0  0  0  0  0  0  0  0  0  0  0
   20.6360   74.7575    1.1677 O   0  0  0  0  0  0  0  0  0  0  0  0
   21.0516   72.3844    1.1896 C   0  0  2  0  0  0  0  0  0  0  0  0
   22.0501   71.3096    0.7591 C   0  0  2  0  0  0  0  0  0  0  0  0
   21.6609   73.7773    1.0155 C   0  0  1  0  0  0  0  0  0  0  0  0
   22.5920   71.5961   -0.6420 C   0  0  1  0  0  0  0  0  0  0  0  0
   22.2914   73.9411   -0.3644 C   0  0  1  0  0  0  0  0  0  0  0  0
   20.3415   71.3342    2.7048 H   0  0  0  0  0  0  0  0  0  0  0  0
   21.0881   69.8385    1.6505 H   0  0  0  0  0  0  0  0  0  0  0  0
   20.2264   74.6640    2.0420 H   0  0  0  0  0  0  0  0  0  0  0  0
   22.4151   76.2660   -0.6491 O   0  0  0  0  0  0  0  0  0  0  0  0
   24.3701   75.1610   -0.2537 O   0  0  0  0  0  0  0  0  0  0  0  0
   23.1583   75.1571   -0.4106 C   0  0  0  0  0  0  0  0  0  0  0  0
  1  4  1  0
  1 24  1  0
  1  2  1  1
  1  3  2  0
 25 28  1  0
 25 24  1  0
 25 26  1  1
 25 27  2  0
  6 11  1  0
  6 12  1  0
 29 36  1  0
 29 37  1  0
  9  7  1  6
  7 13  1  0
 10  8  1  6
  8 14  1  0
  4  5  1  0
 36 28  1  6
 33 30  1  1
 30 38  1  0
 34 31  1  6
 31 39  1  0
 35 32  1  6
 32 40  1  0
 41 43  1  0
 15 19  2  0
 42 43  2  0
 16 22  2  0
 12 17  1  1
 17 19  1  0
 17 20  1  0
 18 19  1  0
 18 22  1  0
 18 23  1  0
  9 10  1  0
  9 11  1  0
 10 12  1  0
 11  5  1  1
 33 34  1  0
 33 35  1  0
 34 36  1  0
 35 37  1  0
 37 43  1  1
 20 21  2  0
 21 22  1  0
M  CHG  3   2  -1  26  -1  41  -1
M  END
>  <COMPND>  (39) 
    udp_gluA.pdb 

>  <AUTHOR>  (39) 
    GENERATED BY OPEN BABEL 3.1.1

>  <MASTER>  (39) 
        0    0    0    0    0    0    0    0   56    0   56    0

>  <minimizedAffinity>  (39) 
-7.73751

>  <CNNscore>  (39) 
0.5929065347

>  <CNNaffinity>  (39) 
4.5414323807

>  <CNN_VS>  (39) 
2.6926448345

>  <CNNaffinity_variance>  (39) 
0.1750787199

$$$$
40
     RDKit          3D

 43 45  0  0  0  0  0  0  0  0999 V2000
   20.0347   76.7427   -4.9734 P   0  0  2  0  0  0  0  0  0  0  0  0
   20.6678   77.0924   -3.5257 O   0  0  0  0  0  0  0  0  0  0  0  0
   19.2432   77.8510   -5.6033 O   0  0  0  0  0  0  0  0  0  0  0  0
   19.2317   75.3605   -4.7226 O   0  0  0  0  0  0  0  0  0  0  0  0
   18.3401   74.9054   -5.7237 C   0  0  0  0  0  0  0  0  0  0  0  0
   16.9072   73.0284   -6.1726 O   0  0  0  0  0  0  0  0  0  0  0  0
   17.0518   72.4525   -3.2334 O   0  0  0  0  0  0  0  0  0  0  0  0
   18.8196   70.6591   -4.2796 O   0  0  0  0  0  0  0  0  0  0  0  0
   18.0610   72.9626   -4.1049 C   0  0  1  0  0  0  0  0  0  0  0  0
   18.5951   71.8579   -4.9918 C   0  0  2  0  0  0  0  0  0  0  0  0
   17.3888   73.8840   -5.1136 C   0  0  1  0  0  0  0  0  0  0  0  0
   17.4925   71.7245   -6.0282 C   0  0  2  0  0  0  0  0  0  0  0  0
   17.4573   71.8609   -2.5798 H   0  0  0  0  0  0  0  0  0  0  0  0
   19.5302   70.7956   -3.6327 H   0  0  0  0  0  0  0  0  0  0  0  0
   15.9146   70.4872   -8.0171 O   0  0  0  0  0  0  0  0  0  0  0  0
   19.5029   70.1053  -10.8846 O   0  0  0  0  0  0  0  0  0  0  0  0
   17.9888   71.2917   -7.3038 N   0  0  0  0  0  0  0  0  0  0  0  0
   17.7035   70.2973   -9.4430 N   0  0  0  0  0  0  0  0  0  0  0  0
   17.1126   70.6807   -8.2318 C   0  0  0  0  0  0  0  0  0  0  0  0
   19.3282   71.4750   -7.6254 C   0  0  0  0  0  0  0  0  0  0  0  0
   19.8768   71.1044   -8.7841 C   0  0  0  0  0  0  0  0  0  0  0  0
   19.0303   70.4579   -9.8082 C   0  0  0  0  0  0  0  0  0  0  0  0
   17.1137   69.8679  -10.1042 H   0  0  0  0  0  0  0  0  0  0  0  0
   21.3219   76.2654   -5.8266 O   0  0  0  0  0  0  0  0  0  0  0  0
   22.6137   75.3919   -5.4000 P   0  0  2  0  0  0  0  0  0  0  0  0
   23.4711   76.4198   -4.4898 O   0  0  0  0  0  0  0  0  0  0  0  0
   23.3727   74.8095   -6.5571 O   0  0  0  0  0  0  0  0  0  0  0  0
   22.0440   74.3017   -4.3563 O   0  0  0  0  0  0  0  0  0  0  0  0
   21.6613   73.8415   -2.0648 O   0  0  0  0  0  0  0  0  0  0  0  0
   24.2582   70.8032   -3.1101 O   0  0  0  0  0  0  0  0  0  0  0  0
   24.6999   73.5256   -4.0732 O   0  0  0  0  0  0  0  0  0  0  0  0
   21.4259   70.2473   -2.7638 O   0  0  0  0  0  0  0  0  0  0  0  0
   23.2182   71.7584   -3.3198 C   0  0  2  0  0  0  0  0  0  0  0  0
   23.7584   73.1664   -3.0686 C   0  0  2  0  0  0  0  0  0  0  0  0
   22.0821   71.4423   -2.3445 C   0  0  1  0  0  0  0  0  0  0  0  0
   22.6252   74.1933   -3.0581 C   0  0  1  0  0  0  0  0  0  0  0  0
   21.0567   72.5715   -2.2989 C   0  0  1  0  0  0  0  0  0  0  0  0
   24.9914   70.9842   -3.7191 H   0  0  0  0  0  0  0  0  0  0  0  0
   25.4217   72.8781   -4.0856 H   0  0  0  0  0  0  0  0  0  0  0  0
   22.0676   69.5207   -2.7972 H   0  0  0  0  0  0  0  0  0  0  0  0
   20.5517   71.3866   -0.3387 O   0  0  0  0  0  0  0  0  0  0  0  0
   19.1665   73.1089   -0.8990 O   0  0  0  0  0  0  0  0  0  0  0  0
   20.1447   72.4128   -1.1261 C   0  0  0  0  0  0  0  0  0  0  0  0
  1  4  1  0
  1 24  1  0
  1  2  1  1
  1  3  2  0
 25 28  1  0
 25 24  1  0
 25 26  1  1
 25 27  2  0
  6 11  1  0
  6 12  1  0
 29 36  1  0
 29 37  1  0
  9  7  1  1
  7 13  1  0
 10  8  1  1
  8 14  1  0
  4  5  1  0
 36 28  1  6
 33 30  1  1
 30 38  1  0
 34 31  1  6
 31 39  1  0
 35 32  1  6
 32 40  1  0
 41 43  1  0
 15 19  2  0
 42 43  2  0
 16 22  2  0
 12 17  1  6
 17 19  1  0
 17 20  1  0
 18 19  1  0
 18 22  1  0
 18 23  1  0
  9 10  1  0
  9 11  1  0
 10 12  1  0
 11  5  1  6
 33 34  1  0
 33 35  1  0
 34 36  1  0
 35 37  1  0
 37 43  1  1
 20 21  2  0
 21 22  1  0
M  CHG  3   2  -1  26  -1  41  -1
M  END
>  <COMPND>  (40) 
    udp_gluA.pdb 

>  <AUTHOR>  (40) 
    GENERATED BY OPEN BABEL 3.1.1

>  <MASTER>  (40) 
        0    0    0    0    0    0    0    0   56    0   56    0

>  <minimizedAffinity>  (40) 
-6.31339

>  <CNNscore>  (40) 
0.5591871142

>  <CNNaffinity>  (40) 
4.2400922775

>  <CNN_VS>  (40) 
2.3710050583

>  <CNNaffinity_variance>  (40) 
0.2384750098

$$$$
41
     RDKit          3D

 43 45  0  0  0  0  0  0  0  0999 V2000
   23.1334   72.0851   -3.3107 P   0  0  2  0  0  0  0  0  0  0  0  0
   24.1586   72.6059   -4.4494 O   0  0  0  0  0  0  0  0  0  0  0  0
   23.6666   70.9939   -2.4293 O   0  0  0  0  0  0  0  0  0  0  0  0
   21.7869   71.7284   -4.1340 O   0  0  0  0  0  0  0  0  0  0  0  0
   21.0146   70.6171   -3.7181 C   0  0  0  0  0  0  0  0  0  0  0  0
   19.0755   71.6993   -4.6383 O   0  0  0  0  0  0  0  0  0  0  0  0
   17.5436   70.4688   -2.3732 O   0  0  0  0  0  0  0  0  0  0  0  0
   16.9440   68.8218   -4.4622 O   0  0  0  0  0  0  0  0  0  0  0  0
   18.6378   69.9352   -3.1193 C   0  0  1  0  0  0  0  0  0  0  0  0
   18.1756   69.5121   -4.4975 C   0  0  2  0  0  0  0  0  0  0  0  0
   19.5900   71.0793   -3.4399 C   0  0  1  0  0  0  0  0  0  0  0  0
   18.0786   70.8446   -5.2206 C   0  0  2  0  0  0  0  0  0  0  0  0
   16.9215   69.7562   -2.1566 H   0  0  0  0  0  0  0  0  0  0  0  0
   17.0582   67.9805   -3.9919 H   0  0  0  0  0  0  0  0  0  0  0  0
   16.1308   70.1259   -7.1353 O   0  0  0  0  0  0  0  0  0  0  0  0
   19.1627   70.4117  -10.5951 O   0  0  0  0  0  0  0  0  0  0  0  0
   18.3318   70.7238   -6.6285 N   0  0  0  0  0  0  0  0  0  0  0  0
   17.6430   70.2680   -8.8565 N   0  0  0  0  0  0  0  0  0  0  0  0
   17.2836   70.3567   -7.5052 C   0  0  0  0  0  0  0  0  0  0  0  0
   19.6052   70.9691   -7.1278 C   0  0  0  0  0  0  0  0  0  0  0  0
   19.9325   70.8806   -8.4185 C   0  0  0  0  0  0  0  0  0  0  0  0
   18.8955   70.5018   -9.4006 C   0  0  0  0  0  0  0  0  0  0  0  0
   16.9304   70.0120   -9.4858 H   0  0  0  0  0  0  0  0  0  0  0  0
   22.7341   73.4445   -2.5326 O   0  0  0  0  0  0  0  0  0  0  0  0
   23.6533   74.6113   -1.8944 P   0  0  2  0  0  0  0  0  0  0  0  0
   22.5672   75.6656   -1.3207 O   0  0  0  0  0  0  0  0  0  0  0  0
   24.6464   75.2053   -2.8509 O   0  0  0  0  0  0  0  0  0  0  0  0
   24.3071   73.9440   -0.5792 O   0  0  0  0  0  0  0  0  0  0  0  0
   22.5962   73.1698    0.8639 O   0  0  0  0  0  0  0  0  0  0  0  0
   25.9922   72.3398    3.0652 O   0  0  0  0  0  0  0  0  0  0  0  0
   25.7478   74.8639    1.6149 O   0  0  0  0  0  0  0  0  0  0  0  0
   24.5719   70.1960    1.7096 O   0  0  0  0  0  0  0  0  0  0  0  0
   25.2184   72.5109    1.8778 C   0  0  2  0  0  0  0  0  0  0  0  0
   24.6832   73.9418    1.8175 C   0  0  2  0  0  0  0  0  0  0  0  0
   24.0607   71.5110    1.9196 C   0  0  1  0  0  0  0  0  0  0  0  0
   23.6665   74.0984    0.6859 C   0  0  1  0  0  0  0  0  0  0  0  0
   23.0264   71.8107    0.8385 C   0  0  1  0  0  0  0  0  0  0  0  0
   26.7340   72.9651    3.0609 H   0  0  0  0  0  0  0  0  0  0  0  0
   26.3968   74.7699    2.3292 H   0  0  0  0  0  0  0  0  0  0  0  0
   25.2315   69.9928    2.3911 H   0  0  0  0  0  0  0  0  0  0  0  0
   20.7280   71.9057    1.2968 O   0  0  0  0  0  0  0  0  0  0  0  0
   21.6655   69.8361    1.1039 O   0  0  0  0  0  0  0  0  0  0  0  0
   21.7627   71.0540    1.0890 C   0  0  0  0  0  0  0  0  0  0  0  0
  1  4  1  0
  1 24  1  0
  1  2  1  6
  1  3  2  0
 25 28  1  0
 25 24  1  0
 25 26  1  1
 25 27  2  0
  6 11  1  0
  6 12  1  0
 29 36  1  0
 29 37  1  0
  9  7  1  1
  7 13  1  0
 10  8  1  1
  8 14  1  0
  4  5  1  0
 36 28  1  6
 33 30  1  1
 30 38  1  0
 34 31  1  6
 31 39  1  0
 35 32  1  6
 32 40  1  0
 41 43  1  0
 15 19  2  0
 42 43  2  0
 16 22  2  0
 12 17  1  6
 17 19  1  0
 17 20  1  0
 18 19  1  0
 18 22  1  0
 18 23  1  0
  9 10  1  0
  9 11  1  0
 10 12  1  0
 11  5  1  6
 33 34  1  0
 33 35  1  0
 34 36  1  0
 35 37  1  0
 37 43  1  1
 20 21  2  0
 21 22  1  0
M  CHG  3   2  -1  26  -1  41  -1
M  END
>  <COMPND>  (41) 
    udp_gluA.pdb 

>  <AUTHOR>  (41) 
    GENERATED BY OPEN BABEL 3.1.1

>  <MASTER>  (41) 
        0    0    0    0    0    0    0    0   56    0   56    0

>  <minimizedAffinity>  (41) 
-7.92487

>  <CNNscore>  (41) 
0.9125056863

>  <CNNaffinity>  (41) 
4.8919191360

>  <CNN_VS>  (41) 
4.4639039040

>  <CNNaffinity_variance>  (41) 
0.0909070298

$$$$
42
     RDKit          3D

 43 45  0  0  0  0  0  0  0  0999 V2000
   21.2448   71.8581   -1.8072 P   0  0  2  0  0  0  0  0  0  0  0  0
   22.1621   71.2689   -0.6112 O   0  0  0  0  0  0  0  0  0  0  0  0
   20.3889   73.0315   -1.4300 O   0  0  0  0  0  0  0  0  0  0  0  0
   20.4536   70.5615   -2.3647 O   0  0  0  0  0  0  0  0  0  0  0  0
   19.9513   70.5933   -3.6880 C   0  0  0  0  0  0  0  0  0  0  0  0
   18.2168   71.7074   -4.9242 O   0  0  0  0  0  0  0  0  0  0  0  0
   16.2976   70.4893   -2.9686 O   0  0  0  0  0  0  0  0  0  0  0  0
   16.0486   68.8603   -5.1412 O   0  0  0  0  0  0  0  0  0  0  0  0
   17.4976   69.9433   -3.5165 C   0  0  1  0  0  0  0  0  0  0  0  0
   17.2767   69.5328   -4.9570 C   0  0  2  0  0  0  0  0  0  0  0  0
   18.5064   71.0748   -3.6588 C   0  0  1  0  0  0  0  0  0  0  0  0
   17.3251   70.8697   -5.6769 C   0  0  2  0  0  0  0  0  0  0  0  0
   15.6377   69.7849   -2.8684 H   0  0  0  0  0  0  0  0  0  0  0  0
   16.0679   68.0154   -4.6639 H   0  0  0  0  0  0  0  0  0  0  0  0
   15.7057   70.3363   -7.9284 O   0  0  0  0  0  0  0  0  0  0  0  0
   19.3235   70.4369  -10.7824 O   0  0  0  0  0  0  0  0  0  0  0  0
   17.8178   70.7513   -7.0200 N   0  0  0  0  0  0  0  0  0  0  0  0
   17.5092   70.3859   -9.3476 N   0  0  0  0  0  0  0  0  0  0  0  0
   16.9201   70.4815   -8.0800 C   0  0  0  0  0  0  0  0  0  0  0  0
   19.1749   70.9036   -7.2769 C   0  0  0  0  0  0  0  0  0  0  0  0
   19.7217   70.8098   -8.4906 C   0  0  0  0  0  0  0  0  0  0  0  0
   18.8532   70.5290   -9.6526 C   0  0  0  0  0  0  0  0  0  0  0  0
   16.9045   70.1965  -10.1011 H   0  0  0  0  0  0  0  0  0  0  0  0
   22.3207   72.1574   -2.9758 O   0  0  0  0  0  0  0  0  0  0  0  0
   23.2933   73.4248   -3.2239 P   0  0  2  0  0  0  0  0  0  0  0  0
   24.5808   72.7662   -3.9512 O   0  0  0  0  0  0  0  0  0  0  0  0
   23.6163   74.2054   -1.9828 O   0  0  0  0  0  0  0  0  0  0  0  0
   22.5645   74.2795   -4.3818 O   0  0  0  0  0  0  0  0  0  0  0  0
   20.4931   74.6729   -5.4604 O   0  0  0  0  0  0  0  0  0  0  0  0
   22.8494   73.3970   -8.6049 O   0  0  0  0  0  0  0  0  0  0  0  0
   22.9965   72.0655   -6.0088 O   0  0  0  0  0  0  0  0  0  0  0  0
   22.2042   76.2167   -8.3154 O   0  0  0  0  0  0  0  0  0  0  0  0
   22.5739   74.0366   -7.3587 C   0  0  2  0  0  0  0  0  0  0  0  0
   22.0024   73.0155   -6.3748 C   0  0  2  0  0  0  0  0  0  0  0  0
   21.5604   75.1542   -7.6146 C   0  0  1  0  0  0  0  0  0  0  0  0
   21.4827   73.7040   -5.1120 C   0  0  1  0  0  0  0  0  0  0  0  0
   20.9952   75.7037   -6.3080 C   0  0  1  0  0  0  0  0  0  0  0  0
   23.4914   72.6828   -8.4671 H   0  0  0  0  0  0  0  0  0  0  0  0
   23.3309   71.6249   -6.8054 H   0  0  0  0  0  0  0  0  0  0  0  0
   22.5684   75.8802   -9.1490 H   0  0  0  0  0  0  0  0  0  0  0  0
   19.3327   77.0940   -5.4111 O   0  0  0  0  0  0  0  0  0  0  0  0
   19.2754   76.7216   -7.6599 O   0  0  0  0  0  0  0  0  0  0  0  0
   19.7876   76.5451   -6.5646 C   0  0  0  0  0  0  0  0  0  0  0  0
  1  4  1  0
  1 24  1  0
  1  2  1  1
  1  3  2  0
 25 28  1  0
 25 24  1  0
 25 26  1  6
 25 27  2  0
  6 11  1  0
  6 12  1  0
 29 36  1  0
 29 37  1  0
  9  7  1  6
  7 13  1  0
 10  8  1  1
  8 14  1  0
  4  5  1  0
 36 28  1  6
 33 30  1  6
 30 38  1  0
 34 31  1  1
 31 39  1  0
 35 32  1  1
 32 40  1  0
 41 43  1  0
 15 19  2  0
 42 43  2  0
 16 22  2  0
 12 17  1  6
 17 19  1  0
 17 20  1  0
 18 19  1  0
 18 22  1  0
 18 23  1  0
  9 10  1  0
  9 11  1  0
 10 12  1  0
 11  5  1  6
 33 34  1  0
 33 35  1  0
 34 36  1  0
 35 37  1  0
 37 43  1  6
 20 21  2  0
 21 22  1  0
M  CHG  3   2  -1  26  -1  41  -1
M  END
>  <COMPND>  (42) 
    udp_gluA.pdb 

>  <AUTHOR>  (42) 
    GENERATED BY OPEN BABEL 3.1.1

>  <MASTER>  (42) 
        0    0    0    0    0    0    0    0   56    0   56    0

>  <minimizedAffinity>  (42) 
-7.28975

>  <CNNscore>  (42) 
0.8835895658

>  <CNNaffinity>  (42) 
4.6787137985

>  <CNN_VS>  (42) 
4.1340627670

>  <CNNaffinity_variance>  (42) 
0.3488631845

$$$$
43
     RDKit          3D

 43 45  0  0  0  0  0  0  0  0999 V2000
   21.1324   72.1402   -2.9049 P   0  0  2  0  0  0  0  0  0  0  0  0
   21.4220   73.3594   -3.9290 O   0  0  0  0  0  0  0  0  0  0  0  0
   21.9255   70.8930   -3.1642 O   0  0  0  0  0  0  0  0  0  0  0  0
   19.5238   71.9714   -2.9467 O   0  0  0  0  0  0  0  0  0  0  0  0
   18.9842   70.7501   -3.4175 C   0  0  0  0  0  0  0  0  0  0  0  0
   17.2680   71.5131   -4.9176 O   0  0  0  0  0  0  0  0  0  0  0  0
   15.3693   69.8587   -3.2898 O   0  0  0  0  0  0  0  0  0  0  0  0
   15.8149   68.2823   -5.4699 O   0  0  0  0  0  0  0  0  0  0  0  0
   16.7285   69.5942   -3.6378 C   0  0  1  0  0  0  0  0  0  0  0  0
   16.8280   69.1917   -5.0939 C   0  0  2  0  0  0  0  0  0  0  0  0
   17.4836   70.9163   -3.6204 C   0  0  1  0  0  0  0  0  0  0  0  0
   16.7034   70.5308   -5.8005 C   0  0  2  0  0  0  0  0  0  0  0  0
   14.8667   69.0286   -3.2943 H   0  0  0  0  0  0  0  0  0  0  0  0
   15.9382   67.4459   -4.9933 H   0  0  0  0  0  0  0  0  0  0  0  0
   15.4675   70.6163   -8.3386 O   0  0  0  0  0  0  0  0  0  0  0  0
   19.5289   70.6419  -10.5177 O   0  0  0  0  0  0  0  0  0  0  0  0
   17.4140   70.5605   -7.0476 N   0  0  0  0  0  0  0  0  0  0  0  0
   17.4915   70.6279   -9.4215 N   0  0  0  0  0  0  0  0  0  0  0  0
   16.6978   70.6025   -8.2672 C   0  0  0  0  0  0  0  0  0  0  0  0
   18.8035   70.5497   -7.0545 C   0  0  0  0  0  0  0  0  0  0  0  0
   19.5462   70.5743   -8.1629 C   0  0  0  0  0  0  0  0  0  0  0  0
   18.8758   70.6179   -9.4789 C   0  0  0  0  0  0  0  0  0  0  0  0
   17.0154   70.6553  -10.2828 H   0  0  0  0  0  0  0  0  0  0  0  0
   21.3897   72.8130   -1.4578 O   0  0  0  0  0  0  0  0  0  0  0  0
   21.0213   72.3018    0.0310 P   0  0  2  0  0  0  0  0  0  0  0  0
   20.8825   70.6994   -0.1519 O   0  0  0  0  0  0  0  0  0  0  0  0
   19.8128   72.9631    0.6277 O   0  0  0  0  0  0  0  0  0  0  0  0
   22.3794   72.4986    0.8791 O   0  0  0  0  0  0  0  0  0  0  0  0
   24.3208   73.6814    0.2148 O   0  0  0  0  0  0  0  0  0  0  0  0
   25.8918   70.8774    2.8105 O   0  0  0  0  0  0  0  0  0  0  0  0
   23.8250   70.1224    0.8889 O   0  0  0  0  0  0  0  0  0  0  0  0
   25.5948   73.6431    3.6554 O   0  0  0  0  0  0  0  0  0  0  0  0
   24.9032   71.7733    2.3025 C   0  0  2  0  0  0  0  0  0  0  0  0
   24.5230   71.3623    0.8798 C   0  0  2  0  0  0  0  0  0  0  0  0
   25.4958   73.1842    2.3085 C   0  0  1  0  0  0  0  0  0  0  0  0
   23.6425   72.4247    0.2203 C   0  0  1  0  0  0  0  0  0  0  0  0
   24.6220   74.1588    1.5242 C   0  0  1  0  0  0  0  0  0  0  0  0
   25.5376   69.9742    2.8161 H   0  0  0  0  0  0  0  0  0  0  0  0
   24.3778   69.4437    1.3062 H   0  0  0  0  0  0  0  0  0  0  0  0
   26.1484   73.0314    4.1655 H   0  0  0  0  0  0  0  0  0  0  0  0
   25.1876   75.8200   -0.0321 O   0  0  0  0  0  0  0  0  0  0  0  0
   26.0175   76.0470    2.0795 O   0  0  0  0  0  0  0  0  0  0  0  0
   25.3562   75.4322    1.2564 C   0  0  0  0  0  0  0  0  0  0  0  0
  1  4  1  0
  1 24  1  0
  1  2  1  6
  1  3  2  0
 25 28  1  0
 25 24  1  0
 25 26  1  6
 25 27  2  0
  6 11  1  0
  6 12  1  0
 29 36  1  0
 29 37  1  0
  9  7  1  6
  7 13  1  0
 10  8  1  6
  8 14  1  0
  4  5  1  0
 36 28  1  1
 33 30  1  6
 30 38  1  0
 34 31  1  1
 31 39  1  0
 35 32  1  1
 32 40  1  0
 41 43  1  0
 15 19  2  0
 42 43  2  0
 16 22  2  0
 12 17  1  6
 17 19  1  0
 17 20  1  0
 18 19  1  0
 18 22  1  0
 18 23  1  0
  9 10  1  0
  9 11  1  0
 10 12  1  0
 11  5  1  6
 33 34  1  0
 33 35  1  0
 34 36  1  0
 35 37  1  0
 37 43  1  6
 20 21  2  0
 21 22  1  0
M  CHG  3   2  -1  26  -1  41  -1
M  END
>  <COMPND>  (43) 
    udp_gluA.pdb 

>  <AUTHOR>  (43) 
    GENERATED BY OPEN BABEL 3.1.1

>  <MASTER>  (43) 
        0    0    0    0    0    0    0    0   56    0   56    0

>  <minimizedAffinity>  (43) 
-7.39203

>  <CNNscore>  (43) 
0.8740746975

>  <CNNaffinity>  (43) 
4.7850503922

>  <CNN_VS>  (43) 
4.1824913025

>  <CNNaffinity_variance>  (43) 
0.1101021320

$$$$
44
     RDKit          3D

 43 45  0  0  0  0  0  0  0  0999 V2000
   20.8838   72.9912   -3.8364 P   0  0  2  0  0  0  0  0  0  0  0  0
   20.3751   73.6270   -2.4379 O   0  0  0  0  0  0  0  0  0  0  0  0
   21.4793   73.9752   -4.8002 O   0  0  0  0  0  0  0  0  0  0  0  0
   19.6015   72.1659   -4.3772 O   0  0  0  0  0  0  0  0  0  0  0  0
   18.9855   71.2302   -3.5115 C   0  0  0  0  0  0  0  0  0  0  0  0
   17.2148   71.7528   -5.0508 O   0  0  0  0  0  0  0  0  0  0  0  0
   15.4290   70.1525   -3.2505 O   0  0  0  0  0  0  0  0  0  0  0  0
   15.9446   68.4081   -5.2821 O   0  0  0  0  0  0  0  0  0  0  0  0
   16.7979   69.9338   -3.5920 C   0  0  1  0  0  0  0  0  0  0  0  0
   16.9072   69.4040   -5.0061 C   0  0  2  0  0  0  0  0  0  0  0  0
   17.4761   71.2921   -3.7074 C   0  0  1  0  0  0  0  0  0  0  0  0
   16.6996   70.6625   -5.8313 C   0  0  2  0  0  0  0  0  0  0  0  0
   14.9748   69.2986   -3.1712 H   0  0  0  0  0  0  0  0  0  0  0  0
   16.1200   67.6278   -4.7323 H   0  0  0  0  0  0  0  0  0  0  0  0
   15.4354   70.6232   -8.3565 O   0  0  0  0  0  0  0  0  0  0  0  0
   19.4713   70.4848  -10.5782 O   0  0  0  0  0  0  0  0  0  0  0  0
   17.3959   70.6163   -7.0858 N   0  0  0  0  0  0  0  0  0  0  0  0
   17.4467   70.5533   -9.4606 N   0  0  0  0  0  0  0  0  0  0  0  0
   16.6662   70.5997   -8.2980 C   0  0  0  0  0  0  0  0  0  0  0  0
   18.7851   70.5897   -7.1074 C   0  0  0  0  0  0  0  0  0  0  0  0
   19.5152   70.5456   -8.2236 C   0  0  0  0  0  0  0  0  0  0  0  0
   18.8300   70.5248   -9.5326 C   0  0  0  0  0  0  0  0  0  0  0  0
   16.9609   70.5389  -10.3169 H   0  0  0  0  0  0  0  0  0  0  0  0
   21.8927   71.8224   -3.3579 O   0  0  0  0  0  0  0  0  0  0  0  0
   23.3428   71.8972   -2.6471 P   0  0  2  0  0  0  0  0  0  0  0  0
   23.9110   73.3384   -3.1166 O   0  0  0  0  0  0  0  0  0  0  0  0
   24.2463   70.7419   -2.9681 O   0  0  0  0  0  0  0  0  0  0  0  0
   23.0202   72.0786   -1.0769 O   0  0  0  0  0  0  0  0  0  0  0  0
   24.2826   71.0088    0.6175 O   0  0  0  0  0  0  0  0  0  0  0  0
   20.7485   71.8294    2.5935 O   0  0  0  0  0  0  0  0  0  0  0  0
   20.7128   70.8312   -0.1518 O   0  0  0  0  0  0  0  0  0  0  0  0
   23.1145   73.4388    3.1060 O   0  0  0  0  0  0  0  0  0  0  0  0
   21.7934   72.0500    1.6462 C   0  0  2  0  0  0  0  0  0  0  0  0
   21.8665   70.8672    0.6802 C   0  0  2  0  0  0  0  0  0  0  0  0
   23.1083   72.1902    2.4165 C   0  0  1  0  0  0  0  0  0  0  0  0
   23.1133   70.9567   -0.2009 C   0  0  1  0  0  0  0  0  0  0  0  0
   24.3110   72.1449    1.4785 C   0  0  1  0  0  0  0  0  0  0  0  0
   19.9029   71.7372    2.1269 H   0  0  0  0  0  0  0  0  0  0  0  0
   19.9179   70.7746    0.4008 H   0  0  0  0  0  0  0  0  0  0  0  0
   22.3538   73.4805    3.7063 H   0  0  0  0  0  0  0  0  0  0  0  0
   26.1363   70.7510    1.9549 O   0  0  0  0  0  0  0  0  0  0  0  0
   26.0511   72.7582    3.0333 O   0  0  0  0  0  0  0  0  0  0  0  0
   25.5769   71.9510    2.2481 C   0  0  0  0  0  0  0  0  0  0  0  0
  1  4  1  0
  1 24  1  0
  1  2  1  1
  1  3  2  0
 25 28  1  0
 25 24  1  0
 25 26  1  6
 25 27  2  0
  6 11  1  0
  6 12  1  0
 29 36  1  0
 29 37  1  0
  9  7  1  6
  7 13  1  0
 10  8  1  6
  8 14  1  0
  4  5  1  0
 36 28  1  1
 33 30  1  1
 30 38  1  0
 34 31  1  6
 31 39  1  0
 35 32  1  6
 32 40  1  0
 41 43  1  0
 15 19  2  0
 42 43  2  0
 16 22  2  0
 12 17  1  6
 17 19  1  0
 17 20  1  0
 18 19  1  0
 18 22  1  0
 18 23  1  0
  9 10  1  0
  9 11  1  0
 10 12  1  0
 11  5  1  6
 33 34  1  0
 33 35  1  0
 34 36  1  0
 35 37  1  0
 37 43  1  1
 20 21  2  0
 21 22  1  0
M  CHG  3   2  -1  26  -1  41  -1
M  END
>  <COMPND>  (44) 
    udp_gluA.pdb 

>  <AUTHOR>  (44) 
    GENERATED BY OPEN BABEL 3.1.1

>  <MASTER>  (44) 
        0    0    0    0    0    0    0    0   56    0   56    0

>  <minimizedAffinity>  (44) 
-8.39171

>  <CNNscore>  (44) 
0.8653103113

>  <CNNaffinity>  (44) 
4.6696729660

>  <CNN_VS>  (44) 
4.0407161713

>  <CNNaffinity_variance>  (44) 
0.0780045018

$$$$
45
     RDKit          3D

 43 45  0  0  0  0  0  0  0  0999 V2000
   21.3989   71.7304   -2.7259 P   0  0  2  0  0  0  0  0  0  0  0  0
   21.7994   73.0360   -3.5942 O   0  0  0  0  0  0  0  0  0  0  0  0
   22.1105   70.4679   -3.1152 O   0  0  0  0  0  0  0  0  0  0  0  0
   19.7841   71.6835   -2.8172 O   0  0  0  0  0  0  0  0  0  0  0  0
   19.1753   70.5816   -3.4650 C   0  0  0  0  0  0  0  0  0  0  0  0
   17.4785   71.4994   -4.8990 O   0  0  0  0  0  0  0  0  0  0  0  0
   15.5104   69.9481   -3.2522 O   0  0  0  0  0  0  0  0  0  0  0  0
   15.7819   68.3942   -5.4766 O   0  0  0  0  0  0  0  0  0  0  0  0
   16.8371   69.5952   -3.6445 C   0  0  1  0  0  0  0  0  0  0  0  0
   16.8677   69.2200   -5.1110 C   0  0  2  0  0  0  0  0  0  0  0  0
   17.6857   70.8592   -3.6213 C   0  0  1  0  0  0  0  0  0  0  0  0
   16.8208   70.5803   -5.7856 C   0  0  2  0  0  0  0  0  0  0  0  0
   14.9493   69.1564   -3.2596 H   0  0  0  0  0  0  0  0  0  0  0  0
   15.8575   67.5404   -5.0213 H   0  0  0  0  0  0  0  0  0  0  0  0
   15.5170   70.5919   -8.2909 O   0  0  0  0  0  0  0  0  0  0  0  0
   19.5184   70.6085  -10.5783 O   0  0  0  0  0  0  0  0  0  0  0  0
   17.4976   70.5878   -7.0517 N   0  0  0  0  0  0  0  0  0  0  0  0
   17.5111   70.5991   -9.4278 N   0  0  0  0  0  0  0  0  0  0  0  0
   16.7488   70.5929   -8.2523 C   0  0  0  0  0  0  0  0  0  0  0  0
   18.8864   70.5915   -7.0957 C   0  0  0  0  0  0  0  0  0  0  0  0
   19.5991   70.5975   -8.2239 C   0  0  0  0  0  0  0  0  0  0  0  0
   18.8934   70.6024   -9.5221 C   0  0  0  0  0  0  0  0  0  0  0  0
   17.0120   70.6007  -10.2764 H   0  0  0  0  0  0  0  0  0  0  0  0
   21.6631   72.2109   -1.2053 O   0  0  0  0  0  0  0  0  0  0  0  0
   23.0343   72.3571   -0.3615 P   0  0  2  0  0  0  0  0  0  0  0  0
   23.7378   73.6571   -1.0214 O   0  0  0  0  0  0  0  0  0  0  0  0
   23.8909   71.1242   -0.3600 O   0  0  0  0  0  0  0  0  0  0  0  0
   22.5641   72.8474    1.1017 O   0  0  0  0  0  0  0  0  0  0  0  0
   24.2134   72.4009    2.7417 O   0  0  0  0  0  0  0  0  0  0  0  0
   21.0943   73.8180    5.0505 O   0  0  0  0  0  0  0  0  0  0  0  0
   20.5845   71.9689    2.8469 O   0  0  0  0  0  0  0  0  0  0  0  0
   23.3914   75.5131    4.5025 O   0  0  0  0  0  0  0  0  0  0  0  0
   21.9104   73.7163    3.8836 C   0  0  2  0  0  0  0  0  0  0  0  0
   21.8753   72.2811    3.3580 C   0  0  2  0  0  0  0  0  0  0  0  0
   23.3387   74.1068    4.2701 C   0  0  1  0  0  0  0  0  0  0  0  0
   22.9115   72.0782    2.2516 C   0  0  1  0  0  0  0  0  0  0  0  0
   24.3303   73.7578    3.1640 C   0  0  1  0  0  0  0  0  0  0  0  0
   20.1816   73.5744    4.8292 H   0  0  0  0  0  0  0  0  0  0  0  0
   19.9220   72.0958    3.5436 H   0  0  0  0  0  0  0  0  0  0  0  0
   22.7647   75.7486    5.2044 H   0  0  0  0  0  0  0  0  0  0  0  0
   26.5811   73.1931    2.8228 O   0  0  0  0  0  0  0  0  0  0  0  0
   26.0822   74.3927    4.6966 O   0  0  0  0  0  0  0  0  0  0  0  0
   25.7349   73.8326    3.6677 C   0  0  0  0  0  0  0  0  0  0  0  0
  1  4  1  0
  1 24  1  0
  1  2  1  6
  1  3  2  0
 25 28  1  0
 25 24  1  0
 25 26  1  6
 25 27  2  0
  6 11  1  0
  6 12  1  0
 29 36  1  0
 29 37  1  0
  9  7  1  6
  7 13  1  0
 10  8  1  6
  8 14  1  0
  4  5  1  0
 36 28  1  6
 33 30  1  1
 30 38  1  0
 34 31  1  6
 31 39  1  0
 35 32  1  6
 32 40  1  0
 41 43  1  0
 15 19  2  0
 42 43  2  0
 16 22  2  0
 12 17  1  6
 17 19  1  0
 17 20  1  0
 18 19  1  0
 18 22  1  0
 18 23  1  0
  9 10  1  0
  9 11  1  0
 10 12  1  0
 11  5  1  6
 33 34  1  0
 33 35  1  0
 34 36  1  0
 35 37  1  0
 37 43  1  1
 20 21  2  0
 21 22  1  0
M  CHG  3   2  -1  26  -1  41  -1
M  END
>  <COMPND>  (45) 
    udp_gluA.pdb 

>  <AUTHOR>  (45) 
    GENERATED BY OPEN BABEL 3.1.1

>  <MASTER>  (45) 
        0    0    0    0    0    0    0    0   56    0   56    0

>  <minimizedAffinity>  (45) 
-7.55000

>  <CNNscore>  (45) 
0.8574280739

>  <CNNaffinity>  (45) 
4.5447049141

>  <CNN_VS>  (45) 
3.8967576027

>  <CNNaffinity_variance>  (45) 
0.0537743159

$$$$
46
     RDKit          3D

 43 45  0  0  0  0  0  0  0  0999 V2000
   20.5049   71.1839   -1.6147 P   0  0  2  0  0  0  0  0  0  0  0  0
   21.1215   70.6430   -0.2197 O   0  0  0  0  0  0  0  0  0  0  0  0
   19.8676   72.5405   -1.5420 O   0  0  0  0  0  0  0  0  0  0  0  0
   19.5415   69.9805   -2.1062 O   0  0  0  0  0  0  0  0  0  0  0  0
   19.1530   69.9382   -3.4670 C   0  0  0  0  0  0  0  0  0  0  0  0
   17.6007   71.2088   -4.7911 O   0  0  0  0  0  0  0  0  0  0  0  0
   15.4354   69.7629   -3.3037 O   0  0  0  0  0  0  0  0  0  0  0  0
   15.5245   68.4234   -5.6773 O   0  0  0  0  0  0  0  0  0  0  0  0
   16.7092   69.2844   -3.7363 C   0  0  1  0  0  0  0  0  0  0  0  0
   16.7041   69.0608   -5.2337 C   0  0  2  0  0  0  0  0  0  0  0  0
   17.7128   70.4196   -3.5871 C   0  0  1  0  0  0  0  0  0  0  0  0
   16.8382   70.4779   -5.7646 C   0  0  2  0  0  0  0  0  0  0  0  0
   14.7774   69.0549   -3.3899 H   0  0  0  0  0  0  0  0  0  0  0  0
   15.4859   67.5248   -5.3127 H   0  0  0  0  0  0  0  0  0  0  0  0
   15.5481   70.4980   -8.2770 O   0  0  0  0  0  0  0  0  0  0  0  0
   19.5597   70.6717  -10.5399 O   0  0  0  0  0  0  0  0  0  0  0  0
   17.5213   70.5281   -7.0263 N   0  0  0  0  0  0  0  0  0  0  0  0
   17.5474   70.5835   -9.4017 N   0  0  0  0  0  0  0  0  0  0  0  0
   16.7792   70.5338   -8.2310 C   0  0  0  0  0  0  0  0  0  0  0  0
   18.9097   70.5726   -7.0620 C   0  0  0  0  0  0  0  0  0  0  0  0
   19.6280   70.6198   -8.1856 C   0  0  0  0  0  0  0  0  0  0  0  0
   18.9295   70.6283   -9.4877 C   0  0  0  0  0  0  0  0  0  0  0  0
   17.0530   70.5863  -10.2531 H   0  0  0  0  0  0  0  0  0  0  0  0
   21.7592   71.0827   -2.6293 O   0  0  0  0  0  0  0  0  0  0  0  0
   23.0741   72.0099   -2.7873 P   0  0  2  0  0  0  0  0  0  0  0  0
   24.2378   70.9433   -3.1457 O   0  0  0  0  0  0  0  0  0  0  0  0
   23.3693   72.8687   -1.5918 O   0  0  0  0  0  0  0  0  0  0  0  0
   22.8358   72.8281   -4.1570 O   0  0  0  0  0  0  0  0  0  0  0  0
   22.9170   75.1718   -4.4879 O   0  0  0  0  0  0  0  0  0  0  0  0
   20.2101   74.0074   -7.3835 O   0  0  0  0  0  0  0  0  0  0  0  0
   20.1094   72.8404   -4.7072 O   0  0  0  0  0  0  0  0  0  0  0  0
   22.9286   74.7181   -8.1288 O   0  0  0  0  0  0  0  0  0  0  0  0
   21.3433   73.8663   -6.5269 C   0  0  2  0  0  0  0  0  0  0  0  0
   20.8979   73.9686   -5.0679 C   0  0  2  0  0  0  0  0  0  0  0  0
   22.3314   74.9859   -6.8615 C   0  0  1  0  0  0  0  0  0  0  0  0
   22.1045   74.0526   -4.1321 C   0  0  1  0  0  0  0  0  0  0  0  0
   23.4359   75.0859   -5.8132 C   0  0  1  0  0  0  0  0  0  0  0  0
   19.5682   73.3064   -7.1890 H   0  0  0  0  0  0  0  0  0  0  0  0
   19.3421   72.7808   -5.2972 H   0  0  0  0  0  0  0  0  0  0  0  0
   22.2363   74.6519   -8.8049 H   0  0  0  0  0  0  0  0  0  0  0  0
   25.2413   76.2068   -6.8060 O   0  0  0  0  0  0  0  0  0  0  0  0
   23.9115   77.4154   -5.4024 O   0  0  0  0  0  0  0  0  0  0  0  0
   24.1929   76.3656   -5.9607 C   0  0  0  0  0  0  0  0  0  0  0  0
  1  4  1  0
  1 24  1  0
  1  2  1  1
  1  3  2  0
 25 28  1  0
 25 24  1  0
 25 26  1  6
 25 27  2  0
  6 11  1  0
  6 12  1  0
 29 36  1  0
 29 37  1  0
  9  7  1  6
  7 13  1  0
 10  8  1  6
  8 14  1  0
  4  5  1  0
 36 28  1  6
 33 30  1  6
 30 38  1  0
 34 31  1  1
 31 39  1  0
 35 32  1  6
 32 40  1  0
 41 43  1  0
 15 19  2  0
 42 43  2  0
 16 22  2  0
 12 17  1  6
 17 19  1  0
 17 20  1  0
 18 19  1  0
 18 22  1  0
 18 23  1  0
  9 10  1  0
  9 11  1  0
 10 12  1  0
 11  5  1  6
 33 34  1  0
 33 35  1  0
 34 36  1  0
 35 37  1  0
 37 43  1  6
 20 21  2  0
 21 22  1  0
M  CHG  3   2  -1  26  -1  41  -1
M  END
>  <COMPND>  (46) 
    udp_gluA.pdb 

>  <AUTHOR>  (46) 
    GENERATED BY OPEN BABEL 3.1.1

>  <MASTER>  (46) 
        0    0    0    0    0    0    0    0   56    0   56    0

>  <minimizedAffinity>  (46) 
-7.74846

>  <CNNscore>  (46) 
0.8208456635

>  <CNNaffinity>  (46) 
4.6830816269

>  <CNN_VS>  (46) 
3.8440873623

>  <CNNaffinity_variance>  (46) 
0.4436827302

$$$$
47
     RDKit          3D

 43 45  0  0  0  0  0  0  0  0999 V2000
   22.8334   72.8977   -4.1332 P   0  0  2  0  0  0  0  0  0  0  0  0
   22.6502   74.2447   -5.0112 O   0  0  0  0  0  0  0  0  0  0  0  0
   24.2107   72.3029   -4.1655 O   0  0  0  0  0  0  0  0  0  0  0  0
   21.6396   71.9339   -4.6467 O   0  0  0  0  0  0  0  0  0  0  0  0
   21.1615   70.9264   -3.7745 C   0  0  0  0  0  0  0  0  0  0  0  0
   19.0642   71.7568   -4.6049 O   0  0  0  0  0  0  0  0  0  0  0  0
   17.8028   70.3821   -2.2575 O   0  0  0  0  0  0  0  0  0  0  0  0
   17.3046   68.6478   -4.3019 O   0  0  0  0  0  0  0  0  0  0  0  0
   18.9156   69.9734   -3.0531 C   0  0  1  0  0  0  0  0  0  0  0  0
   18.4412   69.4798   -4.4035 C   0  0  2  0  0  0  0  0  0  0  0  0
   19.7069   71.2186   -3.4291 C   0  0  1  0  0  0  0  0  0  0  0  0
   18.1500   70.7815   -5.1306 C   0  0  2  0  0  0  0  0  0  0  0  0
   17.2820   69.6032   -2.0050 H   0  0  0  0  0  0  0  0  0  0  0  0
   17.5417   67.8325   -3.8318 H   0  0  0  0  0  0  0  0  0  0  0  0
   16.2226   69.7824   -6.9371 O   0  0  0  0  0  0  0  0  0  0  0  0
   19.0156   70.4116  -10.5492 O   0  0  0  0  0  0  0  0  0  0  0  0
   18.3473   70.6731   -6.5484 N   0  0  0  0  0  0  0  0  0  0  0  0
   17.6159   70.0958   -8.7343 N   0  0  0  0  0  0  0  0  0  0  0  0
   17.3150   70.1574   -7.3673 C   0  0  0  0  0  0  0  0  0  0  0  0
   19.5507   71.0765   -7.1141 C   0  0  0  0  0  0  0  0  0  0  0  0
   19.8228   71.0118   -8.4189 C   0  0  0  0  0  0  0  0  0  0  0  0
   18.7981   70.4842   -9.3436 C   0  0  0  0  0  0  0  0  0  0  0  0
   16.9134   69.7382   -9.3242 H   0  0  0  0  0  0  0  0  0  0  0  0
   22.3295   73.3499   -2.6654 O   0  0  0  0  0  0  0  0  0  0  0  0
   22.9487   74.4056   -1.6091 P   0  0  2  0  0  0  0  0  0  0  0  0
   21.9384   75.6663   -1.7108 O   0  0  0  0  0  0  0  0  0  0  0  0
   24.3902   74.7471   -1.8530 O   0  0  0  0  0  0  0  0  0  0  0  0
   22.6493   73.7596   -0.1616 O   0  0  0  0  0  0  0  0  0  0  0  0
   23.3829   71.5893    0.4393 O   0  0  0  0  0  0  0  0  0  0  0  0
   20.3051   72.2098    3.1244 O   0  0  0  0  0  0  0  0  0  0  0  0
   20.0162   73.0105    0.3298 O   0  0  0  0  0  0  0  0  0  0  0  0
   23.0693   72.4044    4.0029 O   0  0  0  0  0  0  0  0  0  0  0  0
   21.3940   72.5849    2.2809 C   0  0  2  0  0  0  0  0  0  0  0  0
   21.0752   72.2053    0.8346 C   0  0  2  0  0  0  0  0  0  0  0  0
   22.6428   71.8433    2.7629 C   0  0  1  0  0  0  0  0  0  0  0  0
   22.3032   72.3795   -0.0601 C   0  0  1  0  0  0  0  0  0  0  0  0
   23.7837   71.9607    1.7563 C   0  0  1  0  0  0  0  0  0  0  0  0
   19.5001   72.6688    2.8370 H   0  0  0  0  0  0  0  0  0  0  0  0
   19.2338   72.9050    0.8929 H   0  0  0  0  0  0  0  0  0  0  0  0
   22.3522   72.3362    4.6524 H   0  0  0  0  0  0  0  0  0  0  0  0
   25.9303   71.6042    2.6318 O   0  0  0  0  0  0  0  0  0  0  0  0
   24.8113   69.7796    1.8460 O   0  0  0  0  0  0  0  0  0  0  0  0
   24.8675   70.9801    2.0662 C   0  0  0  0  0  0  0  0  0  0  0  0
  1  4  1  0
  1 24  1  0
  1  2  1  6
  1  3  2  0
 25 28  1  0
 25 24  1  0
 25 26  1  1
 25 27  2  0
  6 11  1  0
  6 12  1  0
 29 36  1  0
 29 37  1  0
  9  7  1  1
  7 13  1  0
 10  8  1  1
  8 14  1  0
  4  5  1  0
 36 28  1  1
 33 30  1  1
 30 38  1  0
 34 31  1  6
 31 39  1  0
 35 32  1  1
 32 40  1  0
 41 43  1  0
 15 19  2  0
 42 43  2  0
 16 22  2  0
 12 17  1  6
 17 19  1  0
 17 20  1  0
 18 19  1  0
 18 22  1  0
 18 23  1  0
  9 10  1  0
  9 11  1  0
 10 12  1  0
 11  5  1  6
 33 34  1  0
 33 35  1  0
 34 36  1  0
 35 37  1  0
 37 43  1  1
 20 21  2  0
 21 22  1  0
M  CHG  3   2  -1  26  -1  41  -1
M  END
>  <COMPND>  (47) 
    udp_gluA.pdb 

>  <AUTHOR>  (47) 
    GENERATED BY OPEN BABEL 3.1.1

>  <MASTER>  (47) 
        0    0    0    0    0    0    0    0   56    0   56    0

>  <minimizedAffinity>  (47) 
-7.79503

>  <CNNscore>  (47) 
0.7164689302

>  <CNNaffinity>  (47) 
4.5015864372

>  <CNN_VS>  (47) 
3.2252469063

>  <CNNaffinity_variance>  (47) 
0.0371661186

$$$$
48
     RDKit          3D

 43 45  0  0  0  0  0  0  0  0999 V2000
   23.0882   73.4352   -4.2460 P   0  0  2  0  0  0  0  0  0  0  0  0
   24.0761   72.1570   -4.1517 O   0  0  0  0  0  0  0  0  0  0  0  0
   23.7039   74.6697   -4.8365 O   0  0  0  0  0  0  0  0  0  0  0  0
   22.5077   73.5893   -2.7436 O   0  0  0  0  0  0  0  0  0  0  0  0
   21.5495   74.6000   -2.4893 C   0  0  0  0  0  0  0  0  0  0  0  0
   20.8165   72.7327   -1.1650 O   0  0  0  0  0  0  0  0  0  0  0  0
   18.5917   74.5104   -0.2262 O   0  0  0  0  0  0  0  0  0  0  0  0
   20.3475   74.6019    1.8583 O   0  0  0  0  0  0  0  0  0  0  0  0
   19.9472   74.8420   -0.5280 C   0  0  1  0  0  0  0  0  0  0  0  0
   20.8649   74.3461    0.5693 C   0  0  2  0  0  0  0  0  0  0  0  0
   20.3845   73.9958   -1.7158 C   0  0  1  0  0  0  0  0  0  0  0  0
   20.9542   72.8617    0.2590 C   0  0  2  0  0  0  0  0  0  0  0  0
   18.2899   75.0387    0.5298 H   0  0  0  0  0  0  0  0  0  0  0  0
   20.3108   75.5602    2.0077 H   0  0  0  0  0  0  0  0  0  0  0  0
   21.3415   70.1351    0.8852 O   0  0  0  0  0  0  0  0  0  0  0  0
   25.8141   70.7891    1.7863 O   0  0  0  0  0  0  0  0  0  0  0  0
   22.2095   72.2925    0.6601 N   0  0  0  0  0  0  0  0  0  0  0  0
   23.5685   70.4636    1.3344 N   0  0  0  0  0  0  0  0  0  0  0  0
   22.2968   70.9108    0.9525 C   0  0  0  0  0  0  0  0  0  0  0  0
   23.3368   73.0990    0.7589 C   0  0  0  0  0  0  0  0  0  0  0  0
   24.5423   72.6583    1.1241 C   0  0  0  0  0  0  0  0  0  0  0  0
   24.7189   71.2274    1.4476 C   0  0  0  0  0  0  0  0  0  0  0  0
   23.6536   69.5056    1.5449 H   0  0  0  0  0  0  0  0  0  0  0  0
   21.8221   72.8556   -5.0670 O   0  0  0  0  0  0  0  0  0  0  0  0
   20.9859   73.4747   -6.3043 P   0  0  2  0  0  0  0  0  0  0  0  0
   21.9364   73.1749   -7.5799 O   0  0  0  0  0  0  0  0  0  0  0  0
   20.6151   74.9196   -6.1354 O   0  0  0  0  0  0  0  0  0  0  0  0
   19.7305   72.4785   -6.4891 O   0  0  0  0  0  0  0  0  0  0  0  0
   19.3126   70.2756   -5.7263 O   0  0  0  0  0  0  0  0  0  0  0  0
   17.5287   70.2277   -9.4524 O   0  0  0  0  0  0  0  0  0  0  0  0
   20.1226   71.5157   -9.0689 O   0  0  0  0  0  0  0  0  0  0  0  0
   15.8945   70.3997   -7.0543 O   0  0  0  0  0  0  0  0  0  0  0  0
   17.9617   70.8085   -8.2223 C   0  0  2  0  0  0  0  0  0  0  0  0
   19.4814   70.6871   -8.1061 C   0  0  2  0  0  0  0  0  0  0  0  0
   17.2787   70.0564   -7.0779 C   0  0  1  0  0  0  0  0  0  0  0  0
   19.9569   71.0874   -6.7088 C   0  0  1  0  0  0  0  0  0  0  0  0
   17.8937   70.4171   -5.7287 C   0  0  1  0  0  0  0  0  0  0  0  0
   17.9500   70.6897  -10.1943 H   0  0  0  0  0  0  0  0  0  0  0  0
   19.8252   71.2674   -9.9579 H   0  0  0  0  0  0  0  0  0  0  0  0
   15.4911   70.1753   -7.9074 H   0  0  0  0  0  0  0  0  0  0  0  0
   18.3625   69.4103   -3.6628 O   0  0  0  0  0  0  0  0  0  0  0  0
   16.4308   68.7939   -4.7057 O   0  0  0  0  0  0  0  0  0  0  0  0
   17.4587   69.4537   -4.6728 C   0  0  0  0  0  0  0  0  0  0  0  0
  1  4  1  0
  1 24  1  0
  1  2  1  1
  1  3  2  0
 25 28  1  0
 25 24  1  0
 25 26  1  6
 25 27  2  0
  6 11  1  0
  6 12  1  0
 29 36  1  0
 29 37  1  0
  9  7  1  1
  7 13  1  0
 10  8  1  1
  8 14  1  0
  4  5  1  0
 36 28  1  1
 33 30  1  6
 30 38  1  0
 34 31  1  6
 31 39  1  0
 35 32  1  1
 32 40  1  0
 41 43  1  0
 15 19  2  0
 42 43  2  0
 16 22  2  0
 12 17  1  6
 17 19  1  0
 17 20  1  0
 18 19  1  0
 18 22  1  0
 18 23  1  0
  9 10  1  0
  9 11  1  0
 10 12  1  0
 11  5  1  1
 33 34  1  0
 33 35  1  0
 34 36  1  0
 35 37  1  0
 37 43  1  1
 20 21  2  0
 21 22  1  0
M  CHG  3   2  -1  26  -1  41  -1
M  END
>  <COMPND>  (48) 
    udp_gluA.pdb 

>  <AUTHOR>  (48) 
    GENERATED BY OPEN BABEL 3.1.1

>  <MASTER>  (48) 
        0    0    0    0    0    0    0    0   56    0   56    0

>  <minimizedAffinity>  (48) 
-7.80974

>  <CNNscore>  (48) 
0.6428940296

>  <CNNaffinity>  (48) 
4.5929265022

>  <CNN_VS>  (48) 
2.9527649879

>  <CNNaffinity_variance>  (48) 
0.0939655155

$$$$
49
     RDKit          3D

 43 45  0  0  0  0  0  0  0  0999 V2000
   21.8519   72.4564   -5.6626 P   0  0  2  0  0  0  0  0  0  0  0  0
   21.2208   73.8928   -5.2659 O   0  0  0  0  0  0  0  0  0  0  0  0
   23.0700   72.5192   -6.5367 O   0  0  0  0  0  0  0  0  0  0  0  0
   20.5961   71.6333   -6.2655 O   0  0  0  0  0  0  0  0  0  0  0  0
   20.1042   71.9913   -7.5439 C   0  0  0  0  0  0  0  0  0  0  0  0
   18.8926   69.9565   -7.1325 O   0  0  0  0  0  0  0  0  0  0  0  0
   18.1219   70.0487  -10.0288 O   0  0  0  0  0  0  0  0  0  0  0  0
   15.8849   70.9917   -8.7867 O   0  0  0  0  0  0  0  0  0  0  0  0
   18.2920   71.1234   -9.1044 C   0  0  1  0  0  0  0  0  0  0  0  0
   17.1267   71.1738   -8.1391 C   0  0  2  0  0  0  0  0  0  0  0  0
   19.4530   70.7721   -8.1842 C   0  0  1  0  0  0  0  0  0  0  0  0
   17.4596   70.0407   -7.1834 C   0  0  2  0  0  0  0  0  0  0  0  0
   17.3852   70.2503  -10.6275 H   0  0  0  0  0  0  0  0  0  0  0  0
   15.7189   71.7388   -9.3834 H   0  0  0  0  0  0  0  0  0  0  0  0
   16.3034   68.0559   -5.5401 O   0  0  0  0  0  0  0  0  0  0  0  0
   15.5702   71.0566   -2.1192 O   0  0  0  0  0  0  0  0  0  0  0  0
   16.9583   70.2758   -5.8589 N   0  0  0  0  0  0  0  0  0  0  0  0
   15.9384   69.5525   -3.8383 N   0  0  0  0  0  0  0  0  0  0  0  0
   16.3963   69.2098   -5.1173 C   0  0  0  0  0  0  0  0  0  0  0  0
   17.0274   71.5493   -5.3071 C   0  0  0  0  0  0  0  0  0  0  0  0
   16.5868   71.8605   -4.0865 C   0  0  0  0  0  0  0  0  0  0  0  0
   15.9849   70.8044   -3.2465 C   0  0  0  0  0  0  0  0  0  0  0  0
   15.5412   68.8274   -3.3038 H   0  0  0  0  0  0  0  0  0  0  0  0
   22.0897   71.7552   -4.2257 O   0  0  0  0  0  0  0  0  0  0  0  0
   23.2726   71.9370   -3.1387 P   0  0  2  0  0  0  0  0  0  0  0  0
   23.9432   73.3504   -3.5547 O   0  0  0  0  0  0  0  0  0  0  0  0
   24.2372   70.7882   -3.0804 O   0  0  0  0  0  0  0  0  0  0  0  0
   22.5094   72.2415   -1.7504 O   0  0  0  0  0  0  0  0  0  0  0  0
   23.1884   70.7598   -0.0322 O   0  0  0  0  0  0  0  0  0  0  0  0
   20.1350   72.8434    1.8127 O   0  0  0  0  0  0  0  0  0  0  0  0
   19.8592   71.9548   -0.9566 O   0  0  0  0  0  0  0  0  0  0  0  0
   22.9058   73.4316    2.4665 O   0  0  0  0  0  0  0  0  0  0  0  0
   21.2309   72.6588    0.9166 C   0  0  2  0  0  0  0  0  0  0  0  0
   20.8985   71.5442   -0.0757 C   0  0  2  0  0  0  0  0  0  0  0  0
   22.4616   72.2840    1.7454 C   0  0  1  0  0  0  0  0  0  0  0  0
   22.1281   71.1613   -0.9005 C   0  0  1  0  0  0  0  0  0  0  0  0
   23.6023   71.7935    0.8584 C   0  0  1  0  0  0  0  0  0  0  0  0
   19.3414   73.0823    1.3083 H   0  0  0  0  0  0  0  0  0  0  0  0
   19.0759   72.1995   -0.4399 H   0  0  0  0  0  0  0  0  0  0  0  0
   22.1889   73.7539    3.0349 H   0  0  0  0  0  0  0  0  0  0  0  0
   25.4860   72.0497    2.2323 O   0  0  0  0  0  0  0  0  0  0  0  0
   24.7745   69.9212    1.8289 O   0  0  0  0  0  0  0  0  0  0  0  0
   24.6613   71.1282    1.6757 C   0  0  0  0  0  0  0  0  0  0  0  0
  1  4  1  0
  1 24  1  0
  1  2  1  1
  1  3  2  0
 25 28  1  0
 25 24  1  0
 25 26  1  6
 25 27  2  0
  6 11  1  0
  6 12  1  0
 29 36  1  0
 29 37  1  0
  9  7  1  6
  7 13  1  0
 10  8  1  6
  8 14  1  0
  4  5  1  0
 36 28  1  1
 33 30  1  1
 30 38  1  0
 34 31  1  6
 31 39  1  0
 35 32  1  6
 32 40  1  0
 41 43  1  0
 15 19  2  0
 42 43  2  0
 16 22  2  0
 12 17  1  1
 17 19  1  0
 17 20  1  0
 18 19  1  0
 18 22  1  0
 18 23  1  0
  9 10  1  0
  9 11  1  0
 10 12  1  0
 11  5  1  1
 33 34  1  0
 33 35  1  0
 34 36  1  0
 35 37  1  0
 37 43  1  1
 20 21  2  0
 21 22  1  0
M  CHG  3   2  -1  26  -1  41  -1
M  END
>  <COMPND>  (49) 
    udp_gluA.pdb 

>  <AUTHOR>  (49) 
    GENERATED BY OPEN BABEL 3.1.1

>  <MASTER>  (49) 
        0    0    0    0    0    0    0    0   56    0   56    0

>  <minimizedAffinity>  (49) 
-8.39417

>  <CNNscore>  (49) 
0.6274602413

>  <CNNaffinity>  (49) 
4.4301710129

>  <CNN_VS>  (49) 
2.7797560692

>  <CNNaffinity_variance>  (49) 
0.2373278588

$$$$
50
     RDKit          3D

 43 45  0  0  0  0  0  0  0  0999 V2000
   22.4044   71.9165   -3.5635 P   0  0  2  0  0  0  0  0  0  0  0  0
   21.7068   70.4739   -3.3376 O   0  0  0  0  0  0  0  0  0  0  0  0
   23.8457   71.8653   -3.9780 O   0  0  0  0  0  0  0  0  0  0  0  0
   22.0959   72.7165   -2.1914 O   0  0  0  0  0  0  0  0  0  0  0  0
   23.0783   72.7141   -1.1719 C   0  0  0  0  0  0  0  0  0  0  0  0
   24.1758   71.2553    0.3917 O   0  0  0  0  0  0  0  0  0  0  0  0
   21.4659   70.0831    0.9153 O   0  0  0  0  0  0  0  0  0  0  0  0
   21.8194   71.7434    3.0494 O   0  0  0  0  0  0  0  0  0  0  0  0
   21.8268   71.4363    0.6374 C   0  0  1  0  0  0  0  0  0  0  0  0
   22.4889   72.0612    1.8471 C   0  0  2  0  0  0  0  0  0  0  0  0
   22.9636   71.4207   -0.3754 C   0  0  1  0  0  0  0  0  0  0  0  0
   23.8867   71.4699    1.7823 C   0  0  2  0  0  0  0  0  0  0  0  0
   20.7411   70.0674    1.5603 H   0  0  0  0  0  0  0  0  0  0  0  0
   20.9348   72.1427    3.0421 H   0  0  0  0  0  0  0  0  0  0  0  0
   26.5175   70.6855    2.4458 O   0  0  0  0  0  0  0  0  0  0  0  0
   27.6092   74.9212    3.8987 O   0  0  0  0  0  0  0  0  0  0  0  0
   24.8791   72.3474    2.3355 N   0  0  0  0  0  0  0  0  0  0  0  0
   27.0584   72.7956    3.1697 N   0  0  0  0  0  0  0  0  0  0  0  0
   26.1711   71.8533    2.6334 C   0  0  0  0  0  0  0  0  0  0  0  0
   24.5696   73.6806    2.5757 C   0  0  0  0  0  0  0  0  0  0  0  0
   25.4261   74.5669    3.0873 C   0  0  0  0  0  0  0  0  0  0  0  0
   26.7966   74.1316    3.4271 C   0  0  0  0  0  0  0  0  0  0  0  0
   27.9634   72.4745    3.3871 H   0  0  0  0  0  0  0  0  0  0  0  0
   21.4222   72.6316   -4.6297 O   0  0  0  0  0  0  0  0  0  0  0  0
   19.8495   72.9967   -4.5453 P   0  0  2  0  0  0  0  0  0  0  0  0
   19.8236   74.5894   -4.8328 O   0  0  0  0  0  0  0  0  0  0  0  0
   19.1911   72.5897   -3.2589 O   0  0  0  0  0  0  0  0  0  0  0  0
   19.2040   72.3338   -5.8668 O   0  0  0  0  0  0  0  0  0  0  0  0
   18.6892   70.0634   -5.4316 O   0  0  0  0  0  0  0  0  0  0  0  0
   17.6152   70.4223   -9.4047 O   0  0  0  0  0  0  0  0  0  0  0  0
   20.0749   71.6519   -8.4187 O   0  0  0  0  0  0  0  0  0  0  0  0
   15.5688   70.3421   -7.3415 O   0  0  0  0  0  0  0  0  0  0  0  0
   17.8075   70.8661   -8.0616 C   0  0  2  0  0  0  0  0  0  0  0  0
   19.2823   70.7272   -7.6830 C   0  0  2  0  0  0  0  0  0  0  0  0
   16.9394   69.9981   -7.1478 C   0  0  1  0  0  0  0  0  0  0  0  0
   19.4888   70.9735   -6.1878 C   0  0  1  0  0  0  0  0  0  0  0  0
   17.2925   70.2097   -5.6784 C   0  0  1  0  0  0  0  0  0  0  0  0
   18.1572   70.9595  -10.0037 H   0  0  0  0  0  0  0  0  0  0  0  0
   19.9485   71.5015   -9.3684 H   0  0  0  0  0  0  0  0  0  0  0  0
   15.3313   70.2120   -8.2729 H   0  0  0  0  0  0  0  0  0  0  0  0
   16.3072   68.0831   -5.5876 O   0  0  0  0  0  0  0  0  0  0  0  0
   16.5531   69.2006   -3.6153 O   0  0  0  0  0  0  0  0  0  0  0  0
   16.6878   69.1402   -4.8282 C   0  0  0  0  0  0  0  0  0  0  0  0
  1  4  1  0
  1 24  1  0
  1  2  1  1
  1  3  2  0
 25 28  1  0
 25 24  1  0
 25 26  1  6
 25 27  2  0
  6 11  1  0
  6 12  1  0
 29 36  1  0
 29 37  1  0
  9  7  1  1
  7 13  1  0
 10  8  1  1
  8 14  1  0
  4  5  1  0
 36 28  1  6
 33 30  1  6
 30 38  1  0
 34 31  1  6
 31 39  1  0
 35 32  1  1
 32 40  1  0
 41 43  1  0
 15 19  2  0
 42 43  2  0
 16 22  2  0
 12 17  1  6
 17 19  1  0
 17 20  1  0
 18 19  1  0
 18 22  1  0
 18 23  1  0
  9 10  1  0
  9 11  1  0
 10 12  1  0
 11  5  1  1
 33 34  1  0
 33 35  1  0
 34 36  1  0
 35 37  1  0
 37 43  1  1
 20 21  2  0
 21 22  1  0
M  CHG  3   2  -1  26  -1  41  -1
M  END
>  <COMPND>  (50) 
    udp_gluA.pdb 

>  <AUTHOR>  (50) 
    GENERATED BY OPEN BABEL 3.1.1

>  <MASTER>  (50) 
        0    0    0    0    0    0    0    0   56    0   56    0

>  <minimizedAffinity>  (50) 
-8.14787

>  <CNNscore>  (50) 
0.6216140985

>  <CNNaffinity>  (50) 
4.4456610680

>  <CNN_VS>  (50) 
2.7634856701

>  <CNNaffinity_variance>  (50) 
0.0980758891

$$$$
51
     RDKit          3D

 43 45  0  0  0  0  0  0  0  0999 V2000
   23.4286   71.8782   -3.2252 P   0  0  2  0  0  0  0  0  0  0  0  0
   24.1536   73.0017   -4.1367 O   0  0  0  0  0  0  0  0  0  0  0  0
   24.2133   70.6133   -3.0353 O   0  0  0  0  0  0  0  0  0  0  0  0
   21.9716   71.7054   -3.9072 O   0  0  0  0  0  0  0  0  0  0  0  0
   21.6077   72.5836   -4.9564 C   0  0  0  0  0  0  0  0  0  0  0  0
   20.7242   70.5842   -5.9560 O   0  0  0  0  0  0  0  0  0  0  0  0
   21.0640   71.9742   -8.5911 O   0  0  0  0  0  0  0  0  0  0  0  0
   18.3957   72.2595   -8.1066 O   0  0  0  0  0  0  0  0  0  0  0  0
   20.6841   72.5161   -7.3260 C   0  0  1  0  0  0  0  0  0  0  0  0
   19.2584   72.1278   -6.9962 C   0  0  2  0  0  0  0  0  0  0  0  0
   21.4711   71.7854   -6.2466 C   0  0  1  0  0  0  0  0  0  0  0  0
   19.4199   70.6849   -6.5492 C   0  0  2  0  0  0  0  0  0  0  0  0
   20.5740   72.4255   -9.2968 H   0  0  0  0  0  0  0  0  0  0  0  0
   18.3257   73.1958   -8.3524 H   0  0  0  0  0  0  0  0  0  0  0  0
   16.7953   69.8575   -7.1843 O   0  0  0  0  0  0  0  0  0  0  0  0
   15.7252   69.2243   -2.7460 O   0  0  0  0  0  0  0  0  0  0  0  0
   18.4347   70.2982   -5.5792 N   0  0  0  0  0  0  0  0  0  0  0  0
   16.2645   69.5439   -4.9731 N   0  0  0  0  0  0  0  0  0  0  0  0
   17.1452   69.8989   -6.0033 C   0  0  0  0  0  0  0  0  0  0  0  0
   18.7499   70.3151   -4.2259 C   0  0  0  0  0  0  0  0  0  0  0  0
   17.8998   69.9738   -3.2556 C   0  0  0  0  0  0  0  0  0  0  0  0
   16.5317   69.5453   -3.6137 C   0  0  0  0  0  0  0  0  0  0  0  0
   15.3601   69.2644   -5.2437 H   0  0  0  0  0  0  0  0  0  0  0  0
   23.0980   72.6769   -1.8593 O   0  0  0  0  0  0  0  0  0  0  0  0
   21.8046   72.6328   -0.8904 P   0  0  2  0  0  0  0  0  0  0  0  0
   21.3877   71.0687   -0.9011 O   0  0  0  0  0  0  0  0  0  0  0  0
   20.7021   73.5694   -1.2920 O   0  0  0  0  0  0  0  0  0  0  0  0
   22.3932   72.8872    0.5898 O   0  0  0  0  0  0  0  0  0  0  0  0
   23.9679   71.5448    1.7419 O   0  0  0  0  0  0  0  0  0  0  0  0
   21.8698   73.2483    4.8666 O   0  0  0  0  0  0  0  0  0  0  0  0
   20.4656   72.2719    2.4982 O   0  0  0  0  0  0  0  0  0  0  0  0
   24.5313   74.2094    4.2005 O   0  0  0  0  0  0  0  0  0  0  0  0
   22.4439   73.1901    3.5609 C   0  0  2  0  0  0  0  0  0  0  0  0
   21.8362   72.0205    2.7863 C   0  0  2  0  0  0  0  0  0  0  0  0
   23.9542   72.9981    3.7165 C   0  0  1  0  0  0  0  0  0  0  0  0
   22.5858   71.7848    1.4743 C   0  0  1  0  0  0  0  0  0  0  0  0
   24.6106   72.6428    2.3855 C   0  0  1  0  0  0  0  0  0  0  0  0
   20.9101   73.3700    4.7929 H   0  0  0  0  0  0  0  0  0  0  0  0
   19.9840   72.4226    3.3263 H   0  0  0  0  0  0  0  0  0  0  0  0
   24.1220   74.4468    5.0472 H   0  0  0  0  0  0  0  0  0  0  0  0
   26.8272   73.1537    2.9578 O   0  0  0  0  0  0  0  0  0  0  0  0
   26.3544   70.9774    2.4688 O   0  0  0  0  0  0  0  0  0  0  0  0
   26.0015   72.1401    2.5976 C   0  0  0  0  0  0  0  0  0  0  0  0
  1  4  1  0
  1 24  1  0
  1  2  1  6
  1  3  2  0
 25 28  1  0
 25 24  1  0
 25 26  1  1
 25 27  2  0
  6 11  1  0
  6 12  1  0
 29 36  1  0
 29 37  1  0
  9  7  1  6
  7 13  1  0
 10  8  1  6
  8 14  1  0
  4  5  1  0
 36 28  1  6
 33 30  1  1
 30 38  1  0
 34 31  1  6
 31 39  1  0
 35 32  1  6
 32 40  1  0
 41 43  1  0
 15 19  2  0
 42 43  2  0
 16 22  2  0
 12 17  1  1
 17 19  1  0
 17 20  1  0
 18 19  1  0
 18 22  1  0
 18 23  1  0
  9 10  1  0
  9 11  1  0
 10 12  1  0
 11  5  1  1
 33 34  1  0
 33 35  1  0
 34 36  1  0
 35 37  1  0
 37 43  1  1
 20 21  2  0
 21 22  1  0
M  CHG  3   2  -1  26  -1  41  -1
M  END
>  <COMPND>  (51) 
    udp_gluA.pdb 

>  <AUTHOR>  (51) 
    GENERATED BY OPEN BABEL 3.1.1

>  <MASTER>  (51) 
        0    0    0    0    0    0    0    0   56    0   56    0

>  <minimizedAffinity>  (51) 
-7.88892

>  <CNNscore>  (51) 
0.6079421043

>  <CNNaffinity>  (51) 
4.3438253403

>  <CNN_VS>  (51) 
2.6407942772

>  <CNNaffinity_variance>  (51) 
0.1213840097

$$$$
52
     RDKit          3D

 43 45  0  0  0  0  0  0  0  0999 V2000
   22.9240   73.4315   -4.6032 P   0  0  2  0  0  0  0  0  0  0  0  0
   24.2391   72.5367   -4.3052 O   0  0  0  0  0  0  0  0  0  0  0  0
   23.2019   74.8347   -5.0567 O   0  0  0  0  0  0  0  0  0  0  0  0
   22.0442   73.2909   -3.2527 O   0  0  0  0  0  0  0  0  0  0  0  0
   22.7199   73.1238   -2.0198 C   0  0  0  0  0  0  0  0  0  0  0  0
   23.4628   71.2970   -0.6456 O   0  0  0  0  0  0  0  0  0  0  0  0
   20.5705   70.5415   -0.4105 O   0  0  0  0  0  0  0  0  0  0  0  0
   21.0506   71.8052    1.9577 O   0  0  0  0  0  0  0  0  0  0  0  0
   21.1635   71.8389   -0.4709 C   0  0  1  0  0  0  0  0  0  0  0  0
   21.8389   72.1682    0.8435 C   0  0  2  0  0  0  0  0  0  0  0  0
   22.3456   71.7710   -1.4282 C   0  0  1  0  0  0  0  0  0  0  0  0
   23.1234   71.3626    0.7486 C   0  0  2  0  0  0  0  0  0  0  0  0
   19.8126   70.5600    0.1953 H   0  0  0  0  0  0  0  0  0  0  0  0
   20.2450   72.3461    1.9738 H   0  0  0  0  0  0  0  0  0  0  0  0
   25.0260   69.9414    2.2774 O   0  0  0  0  0  0  0  0  0  0  0  0
   27.2393   73.8092    3.4543 O   0  0  0  0  0  0  0  0  0  0  0  0
   24.2074   71.9732    1.4648 N   0  0  0  0  0  0  0  0  0  0  0  0
   26.1259   71.8692    2.8629 N   0  0  0  0  0  0  0  0  0  0  0  0
   25.1077   71.1689    2.2028 C   0  0  0  0  0  0  0  0  0  0  0  0
   24.3714   73.3527    1.4306 C   0  0  0  0  0  0  0  0  0  0  0  0
   25.3470   74.0059    2.0648 C   0  0  0  0  0  0  0  0  0  0  0  0
   26.3296   73.2397    2.8591 C   0  0  0  0  0  0  0  0  0  0  0  0
   26.7638   71.3308    3.3849 H   0  0  0  0  0  0  0  0  0  0  0  0
   22.1050   72.5301   -5.6660 O   0  0  0  0  0  0  0  0  0  0  0  0
   20.8637   72.8968   -6.6347 P   0  0  2  0  0  0  0  0  0  0  0  0
   21.1943   72.0719   -7.9878 O   0  0  0  0  0  0  0  0  0  0  0  0
   20.6590   74.3694   -6.8427 O   0  0  0  0  0  0  0  0  0  0  0  0
   19.6000   72.1298   -5.9888 O   0  0  0  0  0  0  0  0  0  0  0  0
   19.2264   69.9319   -5.1893 O   0  0  0  0  0  0  0  0  0  0  0  0
   15.6567   70.7490   -7.1018 O   0  0  0  0  0  0  0  0  0  0  0  0
   18.1982   71.5270   -8.3142 O   0  0  0  0  0  0  0  0  0  0  0  0
   15.8041   70.8091   -4.1991 O   0  0  0  0  0  0  0  0  0  0  0  0
   16.8382   71.0550   -6.3613 C   0  0  2  0  0  0  0  0  0  0  0  0
   18.0701   70.6738   -7.1827 C   0  0  2  0  0  0  0  0  0  0  0  0
   16.7996   70.2551   -5.0573 C   0  0  1  0  0  0  0  0  0  0  0  0
   19.3418   70.7713   -6.3390 C   0  0  1  0  0  0  0  0  0  0  0  0
   18.1440   70.2989   -4.3368 C   0  0  1  0  0  0  0  0  0  0  0  0
   15.6592   71.2460   -7.9350 H   0  0  0  0  0  0  0  0  0  0  0  0
   17.3945   71.4704   -8.8540 H   0  0  0  0  0  0  0  0  0  0  0  0
   14.9434   70.7873   -4.6460 H   0  0  0  0  0  0  0  0  0  0  0  0
   18.4485   69.8438   -2.0561 O   0  0  0  0  0  0  0  0  0  0  0  0
   18.0465   68.0665   -3.4268 O   0  0  0  0  0  0  0  0  0  0  0  0
   18.2017   69.2667   -3.2582 C   0  0  0  0  0  0  0  0  0  0  0  0
  1  4  1  0
  1 24  1  0
  1  2  1  1
  1  3  2  0
 25 28  1  0
 25 24  1  0
 25 26  1  6
 25 27  2  0
  6 11  1  0
  6 12  1  0
 29 36  1  0
 29 37  1  0
  9  7  1  1
  7 13  1  0
 10  8  1  1
  8 14  1  0
  4  5  1  0
 36 28  1  1
 33 30  1  6
 30 38  1  0
 34 31  1  6
 31 39  1  0
 35 32  1  1
 32 40  1  0
 41 43  1  0
 15 19  2  0
 42 43  2  0
 16 22  2  0
 12 17  1  1
 17 19  1  0
 17 20  1  0
 18 19  1  0
 18 22  1  0
 18 23  1  0
  9 10  1  0
  9 11  1  0
 10 12  1  0
 11  5  1  1
 33 34  1  0
 33 35  1  0
 34 36  1  0
 35 37  1  0
 37 43  1  1
 20 21  2  0
 21 22  1  0
M  CHG  3   2  -1  26  -1  41  -1
M  END
>  <COMPND>  (52) 
    udp_gluA.pdb 

>  <AUTHOR>  (52) 
    GENERATED BY OPEN BABEL 3.1.1

>  <MASTER>  (52) 
        0    0    0    0    0    0    0    0   56    0   56    0

>  <minimizedAffinity>  (52) 
-7.91051

>  <CNNscore>  (52) 
0.5763360858

>  <CNNaffinity>  (52) 
4.4535083771

>  <CNN_VS>  (52) 
2.5667176247

>  <CNNaffinity_variance>  (52) 
0.0549813509

$$$$
53
     RDKit          3D

 43 45  0  0  0  0  0  0  0  0999 V2000
   21.9731   72.4187   -5.8165 P   0  0  2  0  0  0  0  0  0  0  0  0
   21.2857   73.6297   -4.9921 O   0  0  0  0  0  0  0  0  0  0  0  0
   22.9992   72.8419   -6.8263 O   0  0  0  0  0  0  0  0  0  0  0  0
   20.7163   71.5831   -6.3998 O   0  0  0  0  0  0  0  0  0  0  0  0
   20.2011   71.9358   -7.6705 C   0  0  0  0  0  0  0  0  0  0  0  0
   18.9268   69.9524   -7.2016 O   0  0  0  0  0  0  0  0  0  0  0  0
   18.1322   70.0041  -10.0925 O   0  0  0  0  0  0  0  0  0  0  0  0
   15.9395   71.0491   -8.8531 O   0  0  0  0  0  0  0  0  0  0  0  0
   18.3465   71.0933   -9.1946 C   0  0  1  0  0  0  0  0  0  0  0  0
   17.1927   71.2045   -8.2207 C   0  0  2  0  0  0  0  0  0  0  0  0
   19.5039   70.7247   -8.2767 C   0  0  1  0  0  0  0  0  0  0  0  0
   17.4969   70.0830   -7.2420 C   0  0  2  0  0  0  0  0  0  0  0  0
   17.3970   70.2164  -10.6893 H   0  0  0  0  0  0  0  0  0  0  0  0
   15.7926   71.7875   -9.4655 H   0  0  0  0  0  0  0  0  0  0  0  0
   16.3858   68.1537   -5.5043 O   0  0  0  0  0  0  0  0  0  0  0  0
   15.6854   71.2774   -2.1884 O   0  0  0  0  0  0  0  0  0  0  0  0
   17.0163   70.3648   -5.9190 N   0  0  0  0  0  0  0  0  0  0  0  0
   16.0371   69.7115   -3.8549 N   0  0  0  0  0  0  0  0  0  0  0  0
   16.4761   69.3237   -5.1276 C   0  0  0  0  0  0  0  0  0  0  0  0
   17.0838   71.6590   -5.4175 C   0  0  0  0  0  0  0  0  0  0  0  0
   16.6614   72.0134   -4.2023 C   0  0  0  0  0  0  0  0  0  0  0  0
   16.0829   70.9855   -3.3122 C   0  0  0  0  0  0  0  0  0  0  0  0
   15.6553   69.0043   -3.2862 H   0  0  0  0  0  0  0  0  0  0  0  0
   22.5370   71.4570   -4.6460 O   0  0  0  0  0  0  0  0  0  0  0  0
   23.4550   71.7820   -3.3555 P   0  0  2  0  0  0  0  0  0  0  0  0
   24.1612   73.1847   -3.7478 O   0  0  0  0  0  0  0  0  0  0  0  0
   24.4152   70.6868   -2.9914 O   0  0  0  0  0  0  0  0  0  0  0  0
   22.4051   72.1659   -2.1925 O   0  0  0  0  0  0  0  0  0  0  0  0
   21.8045   70.9975   -0.2219 O   0  0  0  0  0  0  0  0  0  0  0  0
   18.2553   72.8703   -1.2037 O   0  0  0  0  0  0  0  0  0  0  0  0
   19.8999   71.6334   -3.2772 O   0  0  0  0  0  0  0  0  0  0  0  0
   19.8861   73.8857    0.9781 O   0  0  0  0  0  0  0  0  0  0  0  0
   19.6731   72.7251   -1.1225 C   0  0  2  0  0  0  0  0  0  0  0  0
   20.1029   71.4677   -1.8786 C   0  0  2  0  0  0  0  0  0  0  0  0
   20.0532   72.6133    0.3557 C   0  0  1  0  0  0  0  0  0  0  0  0
   21.5776   71.1530   -1.6233 C   0  0  1  0  0  0  0  0  0  0  0  0
   21.5046   72.1739    0.5260 C   0  0  1  0  0  0  0  0  0  0  0  0
   17.9902   72.9431   -2.1341 H   0  0  0  0  0  0  0  0  0  0  0  0
   18.9663   71.8336   -3.4465 H   0  0  0  0  0  0  0  0  0  0  0  0
   18.9665   74.1770    0.8767 H   0  0  0  0  0  0  0  0  0  0  0  0
   22.8465   70.9307    1.9941 O   0  0  0  0  0  0  0  0  0  0  0  0
   21.1126   72.0977    2.9055 O   0  0  0  0  0  0  0  0  0  0  0  0
   21.7694   71.7524    1.9347 C   0  0  0  0  0  0  0  0  0  0  0  0
  1  4  1  0
  1 24  1  0
  1  2  1  1
  1  3  2  0
 25 28  1  0
 25 24  1  0
 25 26  1  6
 25 27  2  0
  6 11  1  0
  6 12  1  0
 29 36  1  0
 29 37  1  0
  9  7  1  6
  7 13  1  0
 10  8  1  6
  8 14  1  0
  4  5  1  0
 36 28  1  1
 33 30  1  1
 30 38  1  0
 34 31  1  6
 31 39  1  0
 35 32  1  6
 32 40  1  0
 41 43  1  0
 15 19  2  0
 42 43  2  0
 16 22  2  0
 12 17  1  1
 17 19  1  0
 17 20  1  0
 18 19  1  0
 18 22  1  0
 18 23  1  0
  9 10  1  0
  9 11  1  0
 10 12  1  0
 11  5  1  1
 33 34  1  0
 33 35  1  0
 34 36  1  0
 35 37  1  0
 37 43  1  1
 20 21  2  0
 21 22  1  0
M  CHG  3   2  -1  26  -1  41  -1
M  END
>  <COMPND>  (53) 
    udp_gluA.pdb 

>  <AUTHOR>  (53) 
    GENERATED BY OPEN BABEL 3.1.1

>  <MASTER>  (53) 
        0    0    0    0    0    0    0    0   56    0   56    0

>  <minimizedAffinity>  (53) 
-7.85491

>  <CNNscore>  (53) 
0.5508748293

>  <CNNaffinity>  (53) 
4.2907576561

>  <CNN_VS>  (53) 
2.3636703491

>  <CNNaffinity_variance>  (53) 
0.4371468425

$$$$
54
     RDKit          3D

 43 45  0  0  0  0  0  0  0  0999 V2000
   19.2247   76.3553   -3.8238 P   0  0  2  0  0  0  0  0  0  0  0  0
   17.8453   77.0071   -3.2840 O   0  0  0  0  0  0  0  0  0  0  0  0
   19.7155   76.9041   -5.1314 O   0  0  0  0  0  0  0  0  0  0  0  0
   18.9402   74.7628   -3.7926 O   0  0  0  0  0  0  0  0  0  0  0  0
   18.2601   74.1759   -4.8870 C   0  0  0  0  0  0  0  0  0  0  0  0
   16.9190   72.2875   -5.5295 O   0  0  0  0  0  0  0  0  0  0  0  0
   17.3423   71.2734   -2.7395 O   0  0  0  0  0  0  0  0  0  0  0  0
   19.1296   69.8059   -4.1845 O   0  0  0  0  0  0  0  0  0  0  0  0
   18.2413   71.9890   -3.5870 C   0  0  1  0  0  0  0  0  0  0  0  0
   18.7704   71.0802   -4.6762 C   0  0  2  0  0  0  0  0  0  0  0  0
   17.4302   73.0020   -4.3834 C   0  0  1  0  0  0  0  0  0  0  0  0
   17.5968   71.0258   -5.6394 C   0  0  2  0  0  0  0  0  0  0  0  0
   17.8377   70.6201   -2.2205 H   0  0  0  0  0  0  0  0  0  0  0  0
   19.8809   69.8940   -3.5764 H   0  0  0  0  0  0  0  0  0  0  0  0
   15.8799   70.2313   -7.7363 O   0  0  0  0  0  0  0  0  0  0  0  0
   19.3029   70.3300  -10.8213 O   0  0  0  0  0  0  0  0  0  0  0  0
   18.0130   70.8364   -7.0001 N   0  0  0  0  0  0  0  0  0  0  0  0
   17.5866   70.2802   -9.2706 N   0  0  0  0  0  0  0  0  0  0  0  0
   17.0711   70.4357   -7.9771 C   0  0  0  0  0  0  0  0  0  0  0  0
   19.3395   71.0483   -7.3556 C   0  0  0  0  0  0  0  0  0  0  0  0
   19.8159   70.8962   -8.5928 C   0  0  0  0  0  0  0  0  0  0  0  0
   18.8976   70.4787   -9.6725 C   0  0  0  0  0  0  0  0  0  0  0  0
   16.9501   69.9998   -9.9675 H   0  0  0  0  0  0  0  0  0  0  0  0
   20.2371   76.5680   -2.5818 O   0  0  0  0  0  0  0  0  0  0  0  0
   21.7051   75.9560   -2.2923 P   0  0  2  0  0  0  0  0  0  0  0  0
   22.1541   76.7016   -0.9274 O   0  0  0  0  0  0  0  0  0  0  0  0
   22.6727   76.1123   -3.4295 O   0  0  0  0  0  0  0  0  0  0  0  0
   21.4320   74.4286   -1.8508 O   0  0  0  0  0  0  0  0  0  0  0  0
   22.2871   72.9921   -0.1732 O   0  0  0  0  0  0  0  0  0  0  0  0
   22.0085   70.4358   -3.4067 O   0  0  0  0  0  0  0  0  0  0  0  0
   23.0140   73.1568   -3.7524 O   0  0  0  0  0  0  0  0  0  0  0  0
   20.0526   70.2927   -1.2608 O   0  0  0  0  0  0  0  0  0  0  0  0
   21.6349   71.5398   -2.5823 C   0  0  2  0  0  0  0  0  0  0  0  0
   22.7972   72.5290   -2.4940 C   0  0  2  0  0  0  0  0  0  0  0  0
   21.2908   70.9975   -1.1932 C   0  0  1  0  0  0  0  0  0  0  0  0
   22.5219   73.6042   -1.4419 C   0  0  1  0  0  0  0  0  0  0  0  0
   21.1557   72.1242   -0.1731 C   0  0  1  0  0  0  0  0  0  0  0  0
   22.2316   70.7563   -4.2949 H   0  0  0  0  0  0  0  0  0  0  0  0
   23.1890   72.4804   -4.4249 H   0  0  0  0  0  0  0  0  0  0  0  0
   20.1251   69.5729   -1.9068 H   0  0  0  0  0  0  0  0  0  0  0  0
   21.5418   70.2836    1.2285 O   0  0  0  0  0  0  0  0  0  0  0  0
   20.8373   72.2138    2.2169 O   0  0  0  0  0  0  0  0  0  0  0  0
   21.1493   71.5816    1.2189 C   0  0  0  0  0  0  0  0  0  0  0  0
  1  4  1  0
  1 24  1  0
  1  2  1  1
  1  3  2  0
 25 28  1  0
 25 24  1  0
 25 26  1  1
 25 27  2  0
  6 11  1  0
  6 12  1  0
 29 36  1  0
 29 37  1  0
  9  7  1  1
  7 13  1  0
 10  8  1  1
  8 14  1  0
  4  5  1  0
 36 28  1  6
 33 30  1  6
 30 38  1  0
 34 31  1  6
 31 39  1  0
 35 32  1  6
 32 40  1  0
 41 43  1  0
 15 19  2  0
 42 43  2  0
 16 22  2  0
 12 17  1  6
 17 19  1  0
 17 20  1  0
 18 19  1  0
 18 22  1  0
 18 23  1  0
  9 10  1  0
  9 11  1  0
 10 12  1  0
 11  5  1  6
 33 34  1  0
 33 35  1  0
 34 36  1  0
 35 37  1  0
 37 43  1  1
 20 21  2  0
 21 22  1  0
M  CHG  3   2  -1  26  -1  41  -1
M  END
>  <COMPND>  (54) 
    udp_gluA.pdb 

>  <AUTHOR>  (54) 
    GENERATED BY OPEN BABEL 3.1.1

>  <MASTER>  (54) 
        0    0    0    0    0    0    0    0   56    0   56    0

>  <minimizedAffinity>  (54) 
-6.21048

>  <CNNscore>  (54) 
0.5414582491

>  <CNNaffinity>  (54) 
4.4746909142

>  <CNN_VS>  (54) 
2.4228582382

>  <CNNaffinity_variance>  (54) 
0.1935133338

$$$$
55
     RDKit          3D

 43 45  0  0  0  0  0  0  0  0999 V2000
   23.4825   72.3373   -3.4913 P   0  0  2  0  0  0  0  0  0  0  0  0
   24.1257   70.8740   -3.2388 O   0  0  0  0  0  0  0  0  0  0  0  0
   24.4458   73.3759   -3.9866 O   0  0  0  0  0  0  0  0  0  0  0  0
   22.7359   72.6795   -2.0972 O   0  0  0  0  0  0  0  0  0  0  0  0
   23.3630   73.5735   -1.1961 C   0  0  0  0  0  0  0  0  0  0  0  0
   23.0993   73.4205    1.1882 O   0  0  0  0  0  0  0  0  0  0  0  0
   24.1655   70.6289    0.9402 O   0  0  0  0  0  0  0  0  0  0  0  0
   21.4783   70.2227    1.1632 O   0  0  0  0  0  0  0  0  0  0  0  0
   23.3189   71.3553    0.0491 C   0  0  1  0  0  0  0  0  0  0  0  0
   21.9180   71.4481    0.6158 C   0  0  2  0  0  0  0  0  0  0  0  0
   23.7642   72.8113    0.0603 C   0  0  1  0  0  0  0  0  0  0  0  0
   22.0738   72.5352    1.6655 C   0  0  2  0  0  0  0  0  0  0  0  0
   23.9002   69.6955    0.9499 H   0  0  0  0  0  0  0  0  0  0  0  0
   21.3945   69.5639    0.4555 H   0  0  0  0  0  0  0  0  0  0  0  0
   21.2156   73.5519    4.1567 O   0  0  0  0  0  0  0  0  0  0  0  0
   17.4187   75.3937    2.3032 O   0  0  0  0  0  0  0  0  0  0  0  0
   20.8649   73.2840    1.8624 N   0  0  0  0  0  0  0  0  0  0  0  0
   19.3248   74.4674    3.2314 N   0  0  0  0  0  0  0  0  0  0  0  0
   20.5255   73.7493    3.1549 C   0  0  0  0  0  0  0  0  0  0  0  0
   20.0314   73.5519    0.7834 C   0  0  0  0  0  0  0  0  0  0  0  0
   18.8902   74.2378    0.8719 C   0  0  0  0  0  0  0  0  0  0  0  0
   18.4624   74.7585    2.1869 C   0  0  0  0  0  0  0  0  0  0  0  0
   19.0664   74.7998    4.1214 H   0  0  0  0  0  0  0  0  0  0  0  0
   22.2539   72.0255   -4.4944 O   0  0  0  0  0  0  0  0  0  0  0  0
   21.6066   72.9061   -5.6858 P   0  0  2  0  0  0  0  0  0  0  0  0
   22.5295   72.5355   -6.9630 O   0  0  0  0  0  0  0  0  0  0  0  0
   21.5221   74.3755   -5.3894 O   0  0  0  0  0  0  0  0  0  0  0  0
   20.1876   72.2019   -5.9907 O   0  0  0  0  0  0  0  0  0  0  0  0
   19.4438   70.0346   -5.3917 O   0  0  0  0  0  0  0  0  0  0  0  0
   17.3991   70.6791   -8.9233 O   0  0  0  0  0  0  0  0  0  0  0  0
   20.2027   71.4608   -8.6715 O   0  0  0  0  0  0  0  0  0  0  0  0
   16.0107   70.8750   -6.3768 O   0  0  0  0  0  0  0  0  0  0  0  0
   18.0219   71.0464   -7.6924 C   0  0  2  0  0  0  0  0  0  0  0  0
   19.5000   70.6573   -7.7306 C   0  0  2  0  0  0  0  0  0  0  0  0
   17.3057   70.3061   -6.5606 C   0  0  1  0  0  0  0  0  0  0  0  0
   20.1451   70.8232   -6.3539 C   0  0  1  0  0  0  0  0  0  0  0  0
   18.0769   70.4145   -5.2484 C   0  0  1  0  0  0  0  0  0  0  0  0
   17.8378   71.1375   -9.6573 H   0  0  0  0  0  0  0  0  0  0  0  0
   19.7985   71.3606   -9.5472 H   0  0  0  0  0  0  0  0  0  0  0  0
   15.5095   70.8125   -7.2049 H   0  0  0  0  0  0  0  0  0  0  0  0
   16.6946   68.5667   -4.8281 O   0  0  0  0  0  0  0  0  0  0  0  0
   17.8698   69.4089   -3.0650 O   0  0  0  0  0  0  0  0  0  0  0  0
   17.5596   69.4342   -4.2465 C   0  0  0  0  0  0  0  0  0  0  0  0
  1  4  1  0
  1 24  1  0
  1  2  1  1
  1  3  2  0
 25 28  1  0
 25 24  1  0
 25 26  1  6
 25 27  2  0
  6 11  1  0
  6 12  1  0
 29 36  1  0
 29 37  1  0
  9  7  1  1
  7 13  1  0
 10  8  1  1
  8 14  1  0
  4  5  1  0
 36 28  1  1
 33 30  1  6
 30 38  1  0
 34 31  1  6
 31 39  1  0
 35 32  1  1
 32 40  1  0
 41 43  1  0
 15 19  2  0
 42 43  2  0
 16 22  2  0
 12 17  1  6
 17 19  1  0
 17 20  1  0
 18 19  1  0
 18 22  1  0
 18 23  1  0
  9 10  1  0
  9 11  1  0
 10 12  1  0
 11  5  1  6
 33 34  1  0
 33 35  1  0
 34 36  1  0
 35 37  1  0
 37 43  1  1
 20 21  2  0
 21 22  1  0
M  CHG  3   2  -1  26  -1  41  -1
M  END
>  <COMPND>  (55) 
    udp_gluA.pdb 

>  <AUTHOR>  (55) 
    GENERATED BY OPEN BABEL 3.1.1

>  <MASTER>  (55) 
        0    0    0    0    0    0    0    0   56    0   56    0

>  <minimizedAffinity>  (55) 
-7.47223

>  <CNNscore>  (55) 
0.4790948927

>  <CNNaffinity>  (55) 
4.1449627876

>  <CNN_VS>  (55) 
1.9858305454

>  <CNNaffinity_variance>  (55) 
0.2433999330

$$$$
56
     RDKit          3D

 43 45  0  0  0  0  0  0  0  0999 V2000
   21.0994   74.1879   -5.2426 P   0  0  2  0  0  0  0  0  0  0  0  0
   19.6730   74.6520   -4.6351 O   0  0  0  0  0  0  0  0  0  0  0  0
   21.6828   75.1146   -6.2685 O   0  0  0  0  0  0  0  0  0  0  0  0
   20.8360   72.6697   -5.7361 O   0  0  0  0  0  0  0  0  0  0  0  0
   20.8204   72.4038   -7.1267 C   0  0  0  0  0  0  0  0  0  0  0  0
   19.6261   70.5092   -6.2540 O   0  0  0  0  0  0  0  0  0  0  0  0
   19.8411   69.3407   -9.0072 O   0  0  0  0  0  0  0  0  0  0  0  0
   17.2841   70.2869   -8.9596 O   0  0  0  0  0  0  0  0  0  0  0  0
   19.6552   70.7009   -8.6148 C   0  0  1  0  0  0  0  0  0  0  0  0
   18.2374   70.9173   -8.1298 C   0  0  2  0  0  0  0  0  0  0  0  0
   20.4652   70.9392   -7.3478 C   0  0  1  0  0  0  0  0  0  0  0  0
   18.2862   70.3174   -6.7349 C   0  0  2  0  0  0  0  0  0  0  0  0
   19.3330   69.1645   -9.8149 H   0  0  0  0  0  0  0  0  0  0  0  0
   17.2915   70.7047   -9.8356 H   0  0  0  0  0  0  0  0  0  0  0  0
   16.7107   68.9492   -4.8316 O   0  0  0  0  0  0  0  0  0  0  0  0
   14.8067   72.8659   -3.3224 O   0  0  0  0  0  0  0  0  0  0  0  0
   17.3703   70.9550   -5.8319 N   0  0  0  0  0  0  0  0  0  0  0  0
   15.7631   70.9012   -4.0824 N   0  0  0  0  0  0  0  0  0  0  0  0
   16.6262   70.1760   -4.9144 C   0  0  0  0  0  0  0  0  0  0  0  0
   17.2174   72.3358   -5.8593 C   0  0  0  0  0  0  0  0  0  0  0  0
   16.3908   73.0129   -5.0599 C   0  0  0  0  0  0  0  0  0  0  0  0
   15.5763   72.2740   -4.0730 C   0  0  0  0  0  0  0  0  0  0  0  0
   15.2330   70.3803   -3.4367 H   0  0  0  0  0  0  0  0  0  0  0  0
   22.0088   73.9878   -3.9213 O   0  0  0  0  0  0  0  0  0  0  0  0
   23.5594   73.5617   -3.7545 P   0  0  2  0  0  0  0  0  0  0  0  0
   24.3601   74.8644   -4.2856 O   0  0  0  0  0  0  0  0  0  0  0  0
   23.9253   72.2838   -4.4524 O   0  0  0  0  0  0  0  0  0  0  0  0
   23.8116   73.5503   -2.1612 O   0  0  0  0  0  0  0  0  0  0  0  0
   21.9652   72.8182   -0.8712 O   0  0  0  0  0  0  0  0  0  0  0  0
   24.4990   74.2841    2.0441 O   0  0  0  0  0  0  0  0  0  0  0  0
   24.1359   75.7322   -0.4670 O   0  0  0  0  0  0  0  0  0  0  0  0
   24.2158   71.4158    1.6646 O   0  0  0  0  0  0  0  0  0  0  0  0
   24.1602   73.6652    0.8031 C   0  0  2  0  0  0  0  0  0  0  0  0
   23.3352   74.6347   -0.0438 C   0  0  2  0  0  0  0  0  0  0  0  0
   23.3497   72.4038    1.1094 C   0  0  1  0  0  0  0  0  0  0  0  0
   22.7610   73.9330   -1.2754 C   0  0  1  0  0  0  0  0  0  0  0  0
   22.7062   71.8350   -0.1519 C   0  0  1  0  0  0  0  0  0  0  0  0
   25.0146   75.0882    1.8744 H   0  0  0  0  0  0  0  0  0  0  0  0
   24.5037   76.1819    0.3095 H   0  0  0  0  0  0  0  0  0  0  0  0
   24.6319   71.7653    2.4681 H   0  0  0  0  0  0  0  0  0  0  0  0
   20.7278   70.7430   -0.7806 O   0  0  0  0  0  0  0  0  0  0  0  0
   21.6587   70.1433    1.2127 O   0  0  0  0  0  0  0  0  0  0  0  0
   21.6672   70.8189    0.1946 C   0  0  0  0  0  0  0  0  0  0  0  0
  1  4  1  0
  1 24  1  0
  1  2  1  1
  1  3  2  0
 25 28  1  0
 25 24  1  0
 25 26  1  6
 25 27  2  0
  6 11  1  0
  6 12  1  0
 29 36  1  0
 29 37  1  0
  9  7  1  1
  7 13  1  0
 10  8  1  6
  8 14  1  0
  4  5  1  0
 36 28  1  6
 33 30  1  1
 30 38  1  0
 34 31  1  6
 31 39  1  0
 35 32  1  6
 32 40  1  0
 41 43  1  0
 15 19  2  0
 42 43  2  0
 16 22  2  0
 12 17  1  1
 17 19  1  0
 17 20  1  0
 18 19  1  0
 18 22  1  0
 18 23  1  0
  9 10  1  0
  9 11  1  0
 10 12  1  0
 11  5  1  1
 33 34  1  0
 33 35  1  0
 34 36  1  0
 35 37  1  0
 37 43  1  1
 20 21  2  0
 21 22  1  0
M  CHG  3   2  -1  26  -1  41  -1
M  END
>  <COMPND>  (56) 
    udp_gluA.pdb 

>  <AUTHOR>  (56) 
    GENERATED BY OPEN BABEL 3.1.1

>  <MASTER>  (56) 
        0    0    0    0    0    0    0    0   56    0   56    0

>  <minimizedAffinity>  (56) 
-7.01989

>  <CNNscore>  (56) 
0.4549999833

>  <CNNaffinity>  (56) 
4.1366357803

>  <CNN_VS>  (56) 
1.8821692467

>  <CNNaffinity_variance>  (56) 
0.3277558386

$$$$
57
     RDKit          3D

 43 45  0  0  0  0  0  0  0  0999 V2000
   23.6511   72.3081   -3.2977 P   0  0  2  0  0  0  0  0  0  0  0  0
   24.1470   70.7808   -3.0968 O   0  0  0  0  0  0  0  0  0  0  0  0
   24.6011   73.1880   -4.0560 O   0  0  0  0  0  0  0  0  0  0  0  0
   23.2836   72.7974   -1.7999 O   0  0  0  0  0  0  0  0  0  0  0  0
   22.1286   73.5948   -1.6135 C   0  0  0  0  0  0  0  0  0  0  0  0
   19.9152   73.5048   -0.6805 O   0  0  0  0  0  0  0  0  0  0  0  0
   20.7219   70.8695    0.5011 O   0  0  0  0  0  0  0  0  0  0  0  0
   19.2489   70.1235   -1.6691 O   0  0  0  0  0  0  0  0  0  0  0  0
   21.0772   71.4421   -0.7576 C   0  0  1  0  0  0  0  0  0  0  0  0
   19.9058   71.3729   -1.7143 C   0  0  2  0  0  0  0  0  0  0  0  0
   21.2403   72.9431   -0.5616 C   0  0  1  0  0  0  0  0  0  0  0  0
   19.0295   72.5124   -1.2227 C   0  0  2  0  0  0  0  0  0  0  0  0
   20.6121   69.9105    0.4011 H   0  0  0  0  0  0  0  0  0  0  0  0
   19.8479   69.4315   -1.9920 H   0  0  0  0  0  0  0  0  0  0  0  0
   16.4554   71.6424   -1.9932 O   0  0  0  0  0  0  0  0  0  0  0  0
   16.1556   74.8545   -5.2851 O   0  0  0  0  0  0  0  0  0  0  0  0
   18.2562   73.1035   -2.2780 N   0  0  0  0  0  0  0  0  0  0  0  0
   16.3089   73.2424   -3.6327 N   0  0  0  0  0  0  0  0  0  0  0  0
   16.9737   72.5908   -2.5855 C   0  0  0  0  0  0  0  0  0  0  0  0
   18.7677   74.1788   -2.9941 C   0  0  0  0  0  0  0  0  0  0  0  0
   18.1221   74.7896   -3.9896 C   0  0  0  0  0  0  0  0  0  0  0  0
   16.7768   74.3149   -4.3745 C   0  0  0  0  0  0  0  0  0  0  0  0
   15.4152   72.9019   -3.8664 H   0  0  0  0  0  0  0  0  0  0  0  0
   22.2005   72.1307   -3.9883 O   0  0  0  0  0  0  0  0  0  0  0  0
   21.5982   72.7332   -5.3623 P   0  0  2  0  0  0  0  0  0  0  0  0
   22.4702   71.9896   -6.5057 O   0  0  0  0  0  0  0  0  0  0  0  0
   21.6249   74.2322   -5.4413 O   0  0  0  0  0  0  0  0  0  0  0  0
   20.1272   72.0824   -5.4845 O   0  0  0  0  0  0  0  0  0  0  0  0
   19.1506   69.9264   -5.5694 O   0  0  0  0  0  0  0  0  0  0  0  0
   17.2097   71.8510   -8.6673 O   0  0  0  0  0  0  0  0  0  0  0  0
   20.0795   72.2183   -8.2621 O   0  0  0  0  0  0  0  0  0  0  0  0
   15.8343   71.3854   -6.1489 O   0  0  0  0  0  0  0  0  0  0  0  0
   17.8606   71.7485   -7.4008 C   0  0  2  0  0  0  0  0  0  0  0  0
   19.2884   71.2390   -7.5990 C   0  0  2  0  0  0  0  0  0  0  0  0
   17.0616   70.7706   -6.5363 C   0  0  1  0  0  0  0  0  0  0  0  0
   19.9388   70.8984   -6.2574 C   0  0  1  0  0  0  0  0  0  0  0  0
   17.8317   70.3828   -5.2773 C   0  0  1  0  0  0  0  0  0  0  0  0
   17.6998   72.4675   -9.2339 H   0  0  0  0  0  0  0  0  0  0  0  0
   19.6724   72.4394   -9.1141 H   0  0  0  0  0  0  0  0  0  0  0  0
   15.3346   71.6373   -6.9412 H   0  0  0  0  0  0  0  0  0  0  0  0
   16.3576   68.5682   -5.4667 O   0  0  0  0  0  0  0  0  0  0  0  0
   17.4235   68.8382   -3.4692 O   0  0  0  0  0  0  0  0  0  0  0  0
   17.2055   69.1982   -4.6164 C   0  0  0  0  0  0  0  0  0  0  0  0
  1  4  1  0
  1 24  1  0
  1  2  1  1
  1  3  2  0
 25 28  1  0
 25 24  1  0
 25 26  1  6
 25 27  2  0
  6 11  1  0
  6 12  1  0
 29 36  1  0
 29 37  1  0
  9  7  1  1
  7 13  1  0
 10  8  1  1
  8 14  1  0
  4  5  1  0
 36 28  1  1
 33 30  1  6
 30 38  1  0
 34 31  1  1
 31 39  1  0
 35 32  1  1
 32 40  1  0
 41 43  1  0
 15 19  2  0
 42 43  2  0
 16 22  2  0
 12 17  1  6
 17 19  1  0
 17 20  1  0
 18 19  1  0
 18 22  1  0
 18 23  1  0
  9 10  1  0
  9 11  1  0
 10 12  1  0
 11  5  1  6
 33 34  1  0
 33 35  1  0
 34 36  1  0
 35 37  1  0
 37 43  1  6
 20 21  2  0
 21 22  1  0
M  CHG  3   2  -1  26  -1  41  -1
M  END
>  <COMPND>  (57) 
    udp_gluA.pdb 

>  <AUTHOR>  (57) 
    GENERATED BY OPEN BABEL 3.1.1

>  <MASTER>  (57) 
        0    0    0    0    0    0    0    0   56    0   56    0

>  <minimizedAffinity>  (57) 
-6.91989

>  <CNNscore>  (57) 
0.4384165704

>  <CNNaffinity>  (57) 
3.7995903492

>  <CNN_VS>  (57) 
1.6658033133

>  <CNNaffinity_variance>  (57) 
1.0127804279

$$$$
58
     RDKit          3D

 43 45  0  0  0  0  0  0  0  0999 V2000
   22.3073   74.4296   -5.9983 P   0  0  2  0  0  0  0  0  0  0  0  0
   21.4305   75.7361   -6.3762 O   0  0  0  0  0  0  0  0  0  0  0  0
   23.3641   74.0646   -6.9992 O   0  0  0  0  0  0  0  0  0  0  0  0
   21.1980   73.2900   -5.7005 O   0  0  0  0  0  0  0  0  0  0  0  0
   21.6087   71.9352   -5.6819 C   0  0  0  0  0  0  0  0  0  0  0  0
   20.2819   70.1245   -6.5414 O   0  0  0  0  0  0  0  0  0  0  0  0
   20.2346   71.6346   -9.1315 O   0  0  0  0  0  0  0  0  0  0  0  0
   17.7891   72.2015   -8.0665 O   0  0  0  0  0  0  0  0  0  0  0  0
   20.2043   72.1333   -7.7941 C   0  0  1  0  0  0  0  0  0  0  0  0
   18.8424   71.8958   -7.1768 C   0  0  2  0  0  0  0  0  0  0  0  0
   21.1000   71.2453   -6.9412 C   0  0  1  0  0  0  0  0  0  0  0  0
   18.9060   70.4177   -6.8317 C   0  0  2  0  0  0  0  0  0  0  0  0
   19.6694   72.1861   -9.6955 H   0  0  0  0  0  0  0  0  0  0  0  0
   17.7910   73.1536   -8.2548 H   0  0  0  0  0  0  0  0  0  0  0  0
   16.1815   69.6826   -6.9466 O   0  0  0  0  0  0  0  0  0  0  0  0
   15.9378   69.1723   -2.3723 O   0  0  0  0  0  0  0  0  0  0  0  0
   18.1065   70.0876   -5.6860 N   0  0  0  0  0  0  0  0  0  0  0  0
   16.0625   69.4301   -4.6682 N   0  0  0  0  0  0  0  0  0  0  0  0
   16.7472   69.7316   -5.8528 C   0  0  0  0  0  0  0  0  0  0  0  0
   18.6692   70.1166   -4.4158 C   0  0  0  0  0  0  0  0  0  0  0  0
   18.0039   69.8265   -3.2960 C   0  0  0  0  0  0  0  0  0  0  0  0
   16.5788   69.4457   -3.3826 C   0  0  0  0  0  0  0  0  0  0  0  0
   15.1142   69.1814   -4.7587 H   0  0  0  0  0  0  0  0  0  0  0  0
   22.8693   74.7835   -4.5246 O   0  0  0  0  0  0  0  0  0  0  0  0
   23.8192   73.9444   -3.5211 P   0  0  2  0  0  0  0  0  0  0  0  0
   24.8636   75.0578   -2.9827 O   0  0  0  0  0  0  0  0  0  0  0  0
   24.4650   72.7417   -4.1459 O   0  0  0  0  0  0  0  0  0  0  0  0
   22.8824   73.6163   -2.2494 O   0  0  0  0  0  0  0  0  0  0  0  0
   22.3612   71.4976   -1.3282 O   0  0  0  0  0  0  0  0  0  0  0  0
   18.9816   73.6786   -0.3851 O   0  0  0  0  0  0  0  0  0  0  0  0
   20.2281   73.9418   -3.0141 O   0  0  0  0  0  0  0  0  0  0  0  0
   20.9514   73.0794    1.6672 O   0  0  0  0  0  0  0  0  0  0  0  0
   20.3715   73.4732   -0.6380 C   0  0  2  0  0  0  0  0  0  0  0  0
   20.5600   72.9409   -2.0587 C   0  0  2  0  0  0  0  0  0  0  0  0
   20.8934   72.4602    0.3836 C   0  0  1  0  0  0  0  0  0  0  0  0
   22.0042   72.4929   -2.2880 C   0  0  1  0  0  0  0  0  0  0  0  0
   22.2901   71.9676    0.0161 C   0  0  1  0  0  0  0  0  0  0  0  0
   18.6280   74.3189   -1.0224 H   0  0  0  0  0  0  0  0  0  0  0  0
   19.3130   74.2308   -2.8742 H   0  0  0  0  0  0  0  0  0  0  0  0
   20.0687   73.3976    1.9129 H   0  0  0  0  0  0  0  0  0  0  0  0
   21.5390   70.0911    1.2060 O   0  0  0  0  0  0  0  0  0  0  0  0
   23.7934   70.4085    1.0795 O   0  0  0  0  0  0  0  0  0  0  0  0
   22.6529   70.7578    0.8141 C   0  0  0  0  0  0  0  0  0  0  0  0
  1  4  1  0
  1 24  1  0
  1  2  1  6
  1  3  2  0
 25 28  1  0
 25 24  1  0
 25 26  1  1
 25 27  2  0
  6 11  1  0
  6 12  1  0
 29 36  1  0
 29 37  1  0
  9  7  1  6
  7 13  1  0
 10  8  1  6
  8 14  1  0
  4  5  1  0
 36 28  1  1
 33 30  1  1
 30 38  1  0
 34 31  1  6
 31 39  1  0
 35 32  1  1
 32 40  1  0
 41 43  1  0
 15 19  2  0
 42 43  2  0
 16 22  2  0
 12 17  1  1
 17 19  1  0
 17 20  1  0
 18 19  1  0
 18 22  1  0
 18 23  1  0
  9 10  1  0
  9 11  1  0
 10 12  1  0
 11  5  1  1
 33 34  1  0
 33 35  1  0
 34 36  1  0
 35 37  1  0
 37 43  1  1
 20 21  2  0
 21 22  1  0
M  CHG  3   2  -1  26  -1  41  -1
M  END
>  <COMPND>  (58) 
    udp_gluA.pdb 

>  <AUTHOR>  (58) 
    GENERATED BY OPEN BABEL 3.1.1

>  <MASTER>  (58) 
        0    0    0    0    0    0    0    0   56    0   56    0

>  <minimizedAffinity>  (58) 
-7.25000

>  <CNNscore>  (58) 
0.4352464378

>  <CNNaffinity>  (58) 
3.9882426262

>  <CNN_VS>  (58) 
1.7358684540

>  <CNNaffinity_variance>  (58) 
0.4932479858

$$$$
59
     RDKit          3D

 43 45  0  0  0  0  0  0  0  0999 V2000
   23.6387   72.2831   -3.3366 P   0  0  2  0  0  0  0  0  0  0  0  0
   24.2588   70.7926   -3.2231 O   0  0  0  0  0  0  0  0  0  0  0  0
   24.6125   73.3440   -3.7585 O   0  0  0  0  0  0  0  0  0  0  0  0
   22.9226   72.5161   -1.9045 O   0  0  0  0  0  0  0  0  0  0  0  0
   22.6909   71.3932   -1.0738 C   0  0  0  0  0  0  0  0  0  0  0  0
   20.9570   70.9982    0.5433 O   0  0  0  0  0  0  0  0  0  0  0  0
   19.0564   72.0884   -1.5039 O   0  0  0  0  0  0  0  0  0  0  0  0
   19.3949   74.2050    0.1818 O   0  0  0  0  0  0  0  0  0  0  0  0
   20.3971   72.4846   -1.2140 C   0  0  1  0  0  0  0  0  0  0  0  0
   20.4443   73.2650    0.0825 C   0  0  2  0  0  0  0  0  0  0  0  0
   21.1909   71.2339   -0.8621 C   0  0  1  0  0  0  0  0  0  0  0  0
   20.3395   72.1600    1.1198 C   0  0  2  0  0  0  0  0  0  0  0  0
   18.5297   72.8709   -1.7316 H   0  0  0  0  0  0  0  0  0  0  0  0
   19.5068   74.8875   -0.4992 H   0  0  0  0  0  0  0  0  0  0  0  0
   19.2802   73.8451    3.1235 O   0  0  0  0  0  0  0  0  0  0  0  0
   23.0227   73.3566    5.7691 O   0  0  0  0  0  0  0  0  0  0  0  0
   21.0158   72.4900    2.3423 N   0  0  0  0  0  0  0  0  0  0  0  0
   21.1456   73.6010    4.4388 N   0  0  0  0  0  0  0  0  0  0  0  0
   20.3958   73.3461    3.2830 C   0  0  0  0  0  0  0  0  0  0  0  0
   22.2771   71.9670    2.6003 C   0  0  0  0  0  0  0  0  0  0  0  0
   22.9794   72.2189    3.7066 C   0  0  0  0  0  0  0  0  0  0  0  0
   22.4037   73.1046    4.7397 C   0  0  0  0  0  0  0  0  0  0  0  0
   20.7356   74.1960    5.1075 H   0  0  0  0  0  0  0  0  0  0  0  0
   22.3876   72.0802   -4.3398 O   0  0  0  0  0  0  0  0  0  0  0  0
   21.8091   73.0225   -5.5192 P   0  0  2  0  0  0  0  0  0  0  0  0
   22.7889   72.6979   -6.7662 O   0  0  0  0  0  0  0  0  0  0  0  0
   21.7268   74.4779   -5.1600 O   0  0  0  0  0  0  0  0  0  0  0  0
   20.3988   72.3521   -5.9242 O   0  0  0  0  0  0  0  0  0  0  0  0
   19.6700   70.1623   -5.3922 O   0  0  0  0  0  0  0  0  0  0  0  0
   17.5772   70.9227   -8.8722 O   0  0  0  0  0  0  0  0  0  0  0  0
   20.3812   71.7057   -8.6293 O   0  0  0  0  0  0  0  0  0  0  0  0
   16.2216   71.0239   -6.3025 O   0  0  0  0  0  0  0  0  0  0  0  0
   18.2148   71.2489   -7.6372 C   0  0  2  0  0  0  0  0  0  0  0  0
   19.6935   70.8670   -7.7083 C   0  0  2  0  0  0  0  0  0  0  0  0
   17.5159   70.4666   -6.5231 C   0  0  1  0  0  0  0  0  0  0  0  0
   20.3561   70.9868   -6.3351 C   0  0  1  0  0  0  0  0  0  0  0  0
   18.3039   70.5317   -5.2179 C   0  0  1  0  0  0  0  0  0  0  0  0
   18.0047   71.4083   -9.5952 H   0  0  0  0  0  0  0  0  0  0  0  0
   19.9659   71.6348   -9.5028 H   0  0  0  0  0  0  0  0  0  0  0  0
   15.7098   70.9886   -7.1257 H   0  0  0  0  0  0  0  0  0  0  0  0
   18.5260   69.5531   -3.0979 O   0  0  0  0  0  0  0  0  0  0  0  0
   16.8698   68.7520   -4.4450 O   0  0  0  0  0  0  0  0  0  0  0  0
   17.8030   69.5149   -4.2445 C   0  0  0  0  0  0  0  0  0  0  0  0
  1  4  1  0
  1 24  1  0
  1  2  1  1
  1  3  2  0
 25 28  1  0
 25 24  1  0
 25 26  1  6
 25 27  2  0
  6 11  1  0
  6 12  1  0
 29 36  1  0
 29 37  1  0
  9  7  1  1
  7 13  1  0
 10  8  1  6
  8 14  1  0
  4  5  1  0
 36 28  1  1
 33 30  1  6
 30 38  1  0
 34 31  1  6
 31 39  1  0
 35 32  1  1
 32 40  1  0
 41 43  1  0
 15 19  2  0
 42 43  2  0
 16 22  2  0
 12 17  1  1
 17 19  1  0
 17 20  1  0
 18 19  1  0
 18 22  1  0
 18 23  1  0
  9 10  1  0
  9 11  1  0
 10 12  1  0
 11  5  1  1
 33 34  1  0
 33 35  1  0
 34 36  1  0
 35 37  1  0
 37 43  1  1
 20 21  2  0
 21 22  1  0
M  CHG  3   2  -1  26  -1  41  -1
M  END
>  <COMPND>  (59) 
    udp_gluA.pdb 

>  <AUTHOR>  (59) 
    GENERATED BY OPEN BABEL 3.1.1

>  <MASTER>  (59) 
        0    0    0    0    0    0    0    0   56    0   56    0

>  <minimizedAffinity>  (59) 
-7.37263

>  <CNNscore>  (59) 
0.4350035787

>  <CNNaffinity>  (59) 
4.0423216820

>  <CNN_VS>  (59) 
1.7584244013

>  <CNNaffinity_variance>  (59) 
0.1950321645

$$$$
60
     RDKit          3D

 43 45  0  0  0  0  0  0  0  0999 V2000
   23.1423   72.8961   -4.5234 P   0  0  2  0  0  0  0  0  0  0  0  0
   23.8940   71.8163   -3.5812 O   0  0  0  0  0  0  0  0  0  0  0  0
   23.0017   72.4927   -5.9619 O   0  0  0  0  0  0  0  0  0  0  0  0
   23.9483   74.2733   -4.2554 O   0  0  0  0  0  0  0  0  0  0  0  0
   24.5916   74.4481   -3.0064 C   0  0  0  0  0  0  0  0  0  0  0  0
   23.0948   74.5279   -1.1273 O   0  0  0  0  0  0  0  0  0  0  0  0
   23.6674   77.4698   -1.0333 O   0  0  0  0  0  0  0  0  0  0  0  0
   25.2487   76.4910    0.9611 O   0  0  0  0  0  0  0  0  0  0  0  0
   24.5406   76.3894   -1.3628 C   0  0  1  0  0  0  0  0  0  0  0  0
   24.9301   75.6301   -0.1122 C   0  0  2  0  0  0  0  0  0  0  0  0
   23.7335   75.3498   -2.1283 C   0  0  1  0  0  0  0  0  0  0  0  0
   23.6856   74.8002    0.1534 C   0  0  2  0  0  0  0  0  0  0  0  0
   24.1608   78.1469   -0.5435 H   0  0  0  0  0  0  0  0  0  0  0  0
   26.0479   76.9969    0.7435 H   0  0  0  0  0  0  0  0  0  0  0  0
   24.3085   74.5433    2.8961 O   0  0  0  0  0  0  0  0  0  0  0  0
   24.8182   69.9763    2.5397 O   0  0  0  0  0  0  0  0  0  0  0  0
   23.9852   73.5559    0.8035 N   0  0  0  0  0  0  0  0  0  0  0  0
   24.5627   72.2691    2.7158 N   0  0  0  0  0  0  0  0  0  0  0  0
   24.2853   73.5362    2.1861 C   0  0  0  0  0  0  0  0  0  0  0  0
   23.9783   72.3731    0.0742 C   0  0  0  0  0  0  0  0  0  0  0  0
   24.2447   71.1728    0.5930 C   0  0  0  0  0  0  0  0  0  0  0  0
   24.5688   71.0648    2.0306 C   0  0  0  0  0  0  0  0  0  0  0  0
   24.7765   72.2303    3.6761 H   0  0  0  0  0  0  0  0  0  0  0  0
   21.7425   73.1384   -3.7521 O   0  0  0  0  0  0  0  0  0  0  0  0
   20.6161   72.0957   -3.2443 P   0  0  2  0  0  0  0  0  0  0  0  0
   19.8011   72.9442   -2.1325 O   0  0  0  0  0  0  0  0  0  0  0  0
   21.1653   70.7904   -2.7459 O   0  0  0  0  0  0  0  0  0  0  0  0
   19.5934   71.9619   -4.4847 O   0  0  0  0  0  0  0  0  0  0  0  0
   18.5943   69.8508   -4.8777 O   0  0  0  0  0  0  0  0  0  0  0  0
   17.7973   71.8297   -8.4156 O   0  0  0  0  0  0  0  0  0  0  0  0
   20.4142   72.0728   -7.1399 O   0  0  0  0  0  0  0  0  0  0  0  0
   15.6901   71.4503   -6.4491 O   0  0  0  0  0  0  0  0  0  0  0  0
   18.0187   71.7107   -7.0103 C   0  0  2  0  0  0  0  0  0  0  0  0
   19.4131   71.1362   -6.7588 C   0  0  2  0  0  0  0  0  0  0  0  0
   16.9479   70.7777   -6.4402 C   0  0  1  0  0  0  0  0  0  0  0  0
   19.6001   70.7800   -5.2834 C   0  0  1  0  0  0  0  0  0  0  0  0
   17.2719   70.3682   -5.0064 C   0  0  1  0  0  0  0  0  0  0  0  0
   18.4662   72.4182   -8.7998 H   0  0  0  0  0  0  0  0  0  0  0  0
   20.3013   72.3035   -8.0750 H   0  0  0  0  0  0  0  0  0  0  0  0
   15.4722   71.7165   -7.3560 H   0  0  0  0  0  0  0  0  0  0  0  0
   16.0608   68.4638   -5.6451 O   0  0  0  0  0  0  0  0  0  0  0  0
   16.0869   68.9837   -3.4251 O   0  0  0  0  0  0  0  0  0  0  0  0
   16.4188   69.2192   -4.5772 C   0  0  0  0  0  0  0  0  0  0  0  0
  1  4  1  0
  1 24  1  0
  1  2  1  1
  1  3  2  0
 25 28  1  0
 25 24  1  0
 25 26  1  1
 25 27  2  0
  6 11  1  0
  6 12  1  0
 29 36  1  0
 29 37  1  0
  9  7  1  1
  7 13  1  0
 10  8  1  1
  8 14  1  0
  4  5  1  0
 36 28  1  1
 33 30  1  6
 30 38  1  0
 34 31  1  1
 31 39  1  0
 35 32  1  1
 32 40  1  0
 41 43  1  0
 15 19  2  0
 42 43  2  0
 16 22  2  0
 12 17  1  6
 17 19  1  0
 17 20  1  0
 18 19  1  0
 18 22  1  0
 18 23  1  0
  9 10  1  0
  9 11  1  0
 10 12  1  0
 11  5  1  1
 33 34  1  0
 33 35  1  0
 34 36  1  0
 35 37  1  0
 37 43  1  6
 20 21  2  0
 21 22  1  0
M  CHG  3   2  -1  26  -1  41  -1
M  END
>  <COMPND>  (60) 
    udp_gluA.pdb 

>  <AUTHOR>  (60) 
    GENERATED BY OPEN BABEL 3.1.1

>  <MASTER>  (60) 
        0    0    0    0    0    0    0    0   56    0   56    0

>  <minimizedAffinity>  (60) 
-6.75784

>  <CNNscore>  (60) 
0.4283957481

>  <CNNaffinity>  (60) 
4.0858283043

>  <CNN_VS>  (60) 
1.7503514290

>  <CNNaffinity_variance>  (60) 
0.0574004650

$$$$
61
     RDKit          3D

 43 45  0  0  0  0  0  0  0  0999 V2000
   22.8077   71.5570   -3.2125 P   0  0  2  0  0  0  0  0  0  0  0  0
   22.4165   72.0116   -4.7155 O   0  0  0  0  0  0  0  0  0  0  0  0
   24.1621   70.9260   -3.0737 O   0  0  0  0  0  0  0  0  0  0  0  0
   21.5562   70.6446   -2.7444 O   0  0  0  0  0  0  0  0  0  0  0  0
   20.6755   70.1458   -3.7344 C   0  0  0  0  0  0  0  0  0  0  0  0
   18.8814   71.4388   -4.6762 O   0  0  0  0  0  0  0  0  0  0  0  0
   17.1443   70.2323   -2.5506 O   0  0  0  0  0  0  0  0  0  0  0  0
   16.5074   68.7531   -4.7512 O   0  0  0  0  0  0  0  0  0  0  0  0
   18.2236   69.6442   -3.2771 C   0  0  1  0  0  0  0  0  0  0  0  0
   17.7934   69.3341   -4.6952 C   0  0  2  0  0  0  0  0  0  0  0  0
   19.2836   70.7157   -3.4928 C   0  0  1  0  0  0  0  0  0  0  0  0
   17.8445   70.7054   -5.3472 C   0  0  2  0  0  0  0  0  0  0  0  0
   16.4543   69.5666   -2.4007 H   0  0  0  0  0  0  0  0  0  0  0  0
   16.5273   67.8821   -4.3235 H   0  0  0  0  0  0  0  0  0  0  0  0
   15.9310   70.2964   -7.3839 O   0  0  0  0  0  0  0  0  0  0  0  0
   19.1433   70.4536  -10.6855 O   0  0  0  0  0  0  0  0  0  0  0  0
   18.1533   70.6352   -6.7474 N   0  0  0  0  0  0  0  0  0  0  0  0
   17.5329   70.3740   -9.0263 N   0  0  0  0  0  0  0  0  0  0  0  0
   17.1180   70.4264   -7.6890 C   0  0  0  0  0  0  0  0  0  0  0  0
   19.4680   70.7742   -7.1755 C   0  0  0  0  0  0  0  0  0  0  0  0
   19.8480   70.7221   -8.4536 C   0  0  0  0  0  0  0  0  0  0  0  0
   18.8279   70.5061   -9.5006 C   0  0  0  0  0  0  0  0  0  0  0  0
   16.8301   70.2274   -9.7000 H   0  0  0  0  0  0  0  0  0  0  0  0
   22.6068   72.9149   -2.3588 O   0  0  0  0  0  0  0  0  0  0  0  0
   23.5981   74.1668   -2.1071 P   0  0  2  0  0  0  0  0  0  0  0  0
   22.5801   75.4009   -1.8600 O   0  0  0  0  0  0  0  0  0  0  0  0
   24.5923   74.3963   -3.2084 O   0  0  0  0  0  0  0  0  0  0  0  0
   24.2545   73.8848   -0.6607 O   0  0  0  0  0  0  0  0  0  0  0  0
   22.4827   73.4489    0.8493 O   0  0  0  0  0  0  0  0  0  0  0  0
   25.7879   73.0637    3.2978 O   0  0  0  0  0  0  0  0  0  0  0  0
   25.6374   75.2296    1.3431 O   0  0  0  0  0  0  0  0  0  0  0  0
   24.3754   70.6982    2.3704 O   0  0  0  0  0  0  0  0  0  0  0  0
   25.0574   72.9899    2.0735 C   0  0  2  0  0  0  0  0  0  0  0  0
   24.5503   74.3818    1.6955 C   0  0  2  0  0  0  0  0  0  0  0  0
   23.8812   72.0332    2.2816 C   0  0  1  0  0  0  0  0  0  0  0  0
   23.5749   74.3080    0.5199 C   0  0  1  0  0  0  0  0  0  0  0  0
   22.8891   72.1102    1.1247 C   0  0  1  0  0  0  0  0  0  0  0  0
   26.5406   73.6663    3.1896 H   0  0  0  0  0  0  0  0  0  0  0  0
   26.2604   75.2807    2.0845 H   0  0  0  0  0  0  0  0  0  0  0  0
   25.0082   70.6357    3.1029 H   0  0  0  0  0  0  0  0  0  0  0  0
   21.6112   70.1441    1.0710 O   0  0  0  0  0  0  0  0  0  0  0  0
   20.6720   71.9682    2.0659 O   0  0  0  0  0  0  0  0  0  0  0  0
   21.6044   71.4364    1.4820 C   0  0  0  0  0  0  0  0  0  0  0  0
  1  4  1  0
  1 24  1  0
  1  2  1  6
  1  3  2  0
 25 28  1  0
 25 24  1  0
 25 26  1  1
 25 27  2  0
  6 11  1  0
  6 12  1  0
 29 36  1  0
 29 37  1  0
  9  7  1  1
  7 13  1  0
 10  8  1  1
  8 14  1  0
  4  5  1  0
 36 28  1  6
 33 30  1  1
 30 38  1  0
 34 31  1  6
 31 39  1  0
 35 32  1  6
 32 40  1  0
 41 43  1  0
 15 19  2  0
 42 43  2  0
 16 22  2  0
 12 17  1  6
 17 19  1  0
 17 20  1  0
 18 19  1  0
 18 22  1  0
 18 23  1  0
  9 10  1  0
  9 11  1  0
 10 12  1  0
 11  5  1  6
 33 34  1  0
 33 35  1  0
 34 36  1  0
 35 37  1  0
 37 43  1  1
 20 21  2  0
 21 22  1  0
M  CHG  3   2  -1  26  -1  41  -1
M  END
>  <COMPND>  (61) 
    udp_gluA.pdb 

>  <AUTHOR>  (61) 
    GENERATED BY OPEN BABEL 3.1.1

>  <MASTER>  (61) 
        0    0    0    0    0    0    0    0   56    0   56    0

>  <minimizedAffinity>  (61) 
-8.17796

>  <CNNscore>  (61) 
0.9240710139

>  <CNNaffinity>  (61) 
4.8788537979

>  <CNN_VS>  (61) 
4.5084075928

>  <CNNaffinity_variance>  (61) 
0.0578278899

$$$$
62
     RDKit          3D

 43 45  0  0  0  0  0  0  0  0999 V2000
   22.7056   71.4288   -2.7503 P   0  0  2  0  0  0  0  0  0  0  0  0
   22.6799   73.0224   -2.4695 O   0  0  0  0  0  0  0  0  0  0  0  0
   24.0619   70.8596   -3.0472 O   0  0  0  0  0  0  0  0  0  0  0  0
   21.5881   71.2191   -3.9015 O   0  0  0  0  0  0  0  0  0  0  0  0
   20.6573   70.1623   -3.7558 C   0  0  0  0  0  0  0  0  0  0  0  0
   18.8805   71.4645   -4.7175 O   0  0  0  0  0  0  0  0  0  0  0  0
   17.1240   70.3016   -2.5835 O   0  0  0  0  0  0  0  0  0  0  0  0
   16.4769   68.8047   -4.7691 O   0  0  0  0  0  0  0  0  0  0  0  0
   18.1987   69.6933   -3.3001 C   0  0  1  0  0  0  0  0  0  0  0  0
   17.7691   69.3720   -4.7159 C   0  0  2  0  0  0  0  0  0  0  0  0
   19.2713   70.7504   -3.5247 C   0  0  1  0  0  0  0  0  0  0  0  0
   17.8373   70.7351   -5.3832 C   0  0  2  0  0  0  0  0  0  0  0  0
   16.4262   69.6453   -2.4281 H   0  0  0  0  0  0  0  0  0  0  0  0
   16.4858   67.9384   -4.3316 H   0  0  0  0  0  0  0  0  0  0  0  0
   15.9261   70.3170   -7.4201 O   0  0  0  0  0  0  0  0  0  0  0  0
   19.1484   70.4086  -10.7144 O   0  0  0  0  0  0  0  0  0  0  0  0
   18.1494   70.6456   -6.7816 N   0  0  0  0  0  0  0  0  0  0  0  0
   17.5329   70.3620   -9.0588 N   0  0  0  0  0  0  0  0  0  0  0  0
   17.1149   70.4338   -7.7235 C   0  0  0  0  0  0  0  0  0  0  0  0
   19.4663   70.7688   -7.2076 C   0  0  0  0  0  0  0  0  0  0  0  0
   19.8493   70.6983   -8.4840 C   0  0  0  0  0  0  0  0  0  0  0  0
   18.8303   70.4780   -9.5311 C   0  0  0  0  0  0  0  0  0  0  0  0
   16.8308   70.2130   -9.7327 H   0  0  0  0  0  0  0  0  0  0  0  0
   21.9918   70.8171   -1.4353 O   0  0  0  0  0  0  0  0  0  0  0  0
   22.2253   71.1176    0.1360 P   0  0  2  0  0  0  0  0  0  0  0  0
   23.8146   71.4115    0.2241 O   0  0  0  0  0  0  0  0  0  0  0  0
   21.7466   70.0265    1.0493 O   0  0  0  0  0  0  0  0  0  0  0  0
   21.5314   72.5524    0.3858 O   0  0  0  0  0  0  0  0  0  0  0  0
   22.3304   74.6849    1.0361 O   0  0  0  0  0  0  0  0  0  0  0  0
   18.7586   74.4603    3.1000 O   0  0  0  0  0  0  0  0  0  0  0  0
   20.5292   72.1417    2.9477 O   0  0  0  0  0  0  0  0  0  0  0  0
   18.9648   76.1105    0.7156 O   0  0  0  0  0  0  0  0  0  0  0  0
   19.6581   74.2076    2.0206 C   0  0  2  0  0  0  0  0  0  0  0  0
   20.8848   73.4582    2.5416 C   0  0  2  0  0  0  0  0  0  0  0  0
   20.0712   75.5548    1.4239 C   0  0  1  0  0  0  0  0  0  0  0  0
   21.9701   73.3721    1.4676 C   0  0  1  0  0  0  0  0  0  0  0  0
   21.2416   75.4005    0.4570 C   0  0  1  0  0  0  0  0  0  0  0  0
   18.4825   73.6183    3.4949 H   0  0  0  0  0  0  0  0  0  0  0  0
   19.8407   72.1888    3.6289 H   0  0  0  0  0  0  0  0  0  0  0  0
   18.2130   76.2137    1.3197 H   0  0  0  0  0  0  0  0  0  0  0  0
   21.3633   77.6860    0.9703 O   0  0  0  0  0  0  0  0  0  0  0  0
   22.6626   76.9348   -0.7463 O   0  0  0  0  0  0  0  0  0  0  0  0
   21.8452   76.7296    0.1383 C   0  0  0  0  0  0  0  0  0  0  0  0
  1  4  1  0
  1 24  1  0
  1  2  1  1
  1  3  2  0
 25 28  1  0
 25 24  1  0
 25 26  1  6
 25 27  2  0
  6 11  1  0
  6 12  1  0
 29 36  1  0
 29 37  1  0
  9  7  1  1
  7 13  1  0
 10  8  1  1
  8 14  1  0
  4  5  1  0
 36 28  1  6
 33 30  1  1
 30 38  1  0
 34 31  1  6
 31 39  1  0
 35 32  1  6
 32 40  1  0
 41 43  1  0
 15 19  2  0
 42 43  2  0
 16 22  2  0
 12 17  1  6
 17 19  1  0
 17 20  1  0
 18 19  1  0
 18 22  1  0
 18 23  1  0
  9 10  1  0
  9 11  1  0
 10 12  1  0
 11  5  1  6
 33 34  1  0
 33 35  1  0
 34 36  1  0
 35 37  1  0
 37 43  1  1
 20 21  2  0
 21 22  1  0
M  CHG  3   2  -1  26  -1  41  -1
M  END
>  <COMPND>  (62) 
    udp_gluA.pdb 

>  <AUTHOR>  (62) 
    GENERATED BY OPEN BABEL 3.1.1

>  <MASTER>  (62) 
        0    0    0    0    0    0    0    0   56    0   56    0

>  <minimizedAffinity>  (62) 
-7.60278

>  <CNNscore>  (62) 
0.9210215211

>  <CNNaffinity>  (62) 
4.8412699699

>  <CNN_VS>  (62) 
4.4589138031

>  <CNNaffinity_variance>  (62) 
0.0587450191

$$$$
63
     RDKit          3D

 43 45  0  0  0  0  0  0  0  0999 V2000
   22.9762   71.6213   -2.5283 P   0  0  2  0  0  0  0  0  0  0  0  0
   23.1868   73.1459   -2.0283 O   0  0  0  0  0  0  0  0  0  0  0  0
   24.1782   70.9936   -3.1711 O   0  0  0  0  0  0  0  0  0  0  0  0
   21.6459   71.6937   -3.4464 O   0  0  0  0  0  0  0  0  0  0  0  0
   20.8421   70.5342   -3.5648 C   0  0  0  0  0  0  0  0  0  0  0  0
   18.8689   71.5406   -4.4982 O   0  0  0  0  0  0  0  0  0  0  0  0
   17.3542   70.1555   -2.3122 O   0  0  0  0  0  0  0  0  0  0  0  0
   16.8937   68.5487   -4.4667 O   0  0  0  0  0  0  0  0  0  0  0  0
   18.4928   69.7064   -3.0473 C   0  0  1  0  0  0  0  0  0  0  0  0
   18.0864   69.3048   -4.4494 C   0  0  2  0  0  0  0  0  0  0  0  0
   19.3885   70.9098   -3.3076 C   0  0  1  0  0  0  0  0  0  0  0  0
   17.9338   70.6534   -5.1320 C   0  0  2  0  0  0  0  0  0  0  0  0
   16.7670   69.4038   -2.1339 H   0  0  0  0  0  0  0  0  0  0  0  0
   17.0426   67.6996   -4.0207 H   0  0  0  0  0  0  0  0  0  0  0  0
   16.0732   69.8936   -7.1163 O   0  0  0  0  0  0  0  0  0  0  0  0
   19.1639   70.4574  -10.4888 O   0  0  0  0  0  0  0  0  0  0  0  0
   18.2257   70.5930   -6.5363 N   0  0  0  0  0  0  0  0  0  0  0  0
   17.6146   70.1742   -8.7940 N   0  0  0  0  0  0  0  0  0  0  0  0
   17.2198   70.1987   -7.4499 C   0  0  0  0  0  0  0  0  0  0  0  0
   19.4948   70.9234   -6.9957 C   0  0  0  0  0  0  0  0  0  0  0  0
   19.8562   70.8954   -8.2800 C   0  0  0  0  0  0  0  0  0  0  0  0
   18.8647   70.4934   -9.2991 C   0  0  0  0  0  0  0  0  0  0  0  0
   16.9320   69.9008   -9.4487 H   0  0  0  0  0  0  0  0  0  0  0  0
   22.4568   70.8704   -1.1944 O   0  0  0  0  0  0  0  0  0  0  0  0
   21.7550   71.4468    0.1431 P   0  0  2  0  0  0  0  0  0  0  0  0
   21.2915   70.1070    0.9244 O   0  0  0  0  0  0  0  0  0  0  0  0
   20.6470   72.4261   -0.1160 O   0  0  0  0  0  0  0  0  0  0  0  0
   22.9728   72.0316    1.0247 O   0  0  0  0  0  0  0  0  0  0  0  0
   24.7032   71.3751    2.5026 O   0  0  0  0  0  0  0  0  0  0  0  0
   22.6926   74.1909    4.7603 O   0  0  0  0  0  0  0  0  0  0  0  0
   21.2134   72.2378    3.1690 O   0  0  0  0  0  0  0  0  0  0  0  0
   25.2366   74.8591    3.5222 O   0  0  0  0  0  0  0  0  0  0  0  0
   23.1872   73.5927    3.5621 C   0  0  2  0  0  0  0  0  0  0  0  0
   22.6131   72.1829    3.4192 C   0  0  2  0  0  0  0  0  0  0  0  0
   24.7138   73.5387    3.6558 C   0  0  1  0  0  0  0  0  0  0  0  0
   23.2940   71.4281    2.2767 C   0  0  1  0  0  0  0  0  0  0  0  0
   25.3088   72.6648    2.5555 C   0  0  1  0  0  0  0  0  0  0  0  0
   21.7242   74.2358    4.7235 H   0  0  0  0  0  0  0  0  0  0  0  0
   20.7750   72.7157    3.8900 H   0  0  0  0  0  0  0  0  0  0  0  0
   24.8655   75.4256    4.2166 H   0  0  0  0  0  0  0  0  0  0  0  0
   27.0290   71.0712    2.5008 O   0  0  0  0  0  0  0  0  0  0  0  0
   27.5487   73.1349    3.3194 O   0  0  0  0  0  0  0  0  0  0  0  0
   26.7410   72.3513    2.8434 C   0  0  0  0  0  0  0  0  0  0  0  0
  1  4  1  0
  1 24  1  0
  1  2  1  1
  1  3  2  0
 25 28  1  0
 25 24  1  0
 25 26  1  1
 25 27  2  0
  6 11  1  0
  6 12  1  0
 29 36  1  0
 29 37  1  0
  9  7  1  1
  7 13  1  0
 10  8  1  1
  8 14  1  0
  4  5  1  0
 36 28  1  6
 33 30  1  1
 30 38  1  0
 34 31  1  6
 31 39  1  0
 35 32  1  6
 32 40  1  0
 41 43  1  0
 15 19  2  0
 42 43  2  0
 16 22  2  0
 12 17  1  6
 17 19  1  0
 17 20  1  0
 18 19  1  0
 18 22  1  0
 18 23  1  0
  9 10  1  0
  9 11  1  0
 10 12  1  0
 11  5  1  6
 33 34  1  0
 33 35  1  0
 34 36  1  0
 35 37  1  0
 37 43  1  1
 20 21  2  0
 21 22  1  0
M  CHG  3   2  -1  26  -1  41  -1
M  END
>  <COMPND>  (63) 
    udp_gluA.pdb 

>  <AUTHOR>  (63) 
    GENERATED BY OPEN BABEL 3.1.1

>  <MASTER>  (63) 
        0    0    0    0    0    0    0    0   56    0   56    0

>  <minimizedAffinity>  (63) 
-8.27545

>  <CNNscore>  (63) 
0.9118267298

>  <CNNaffinity>  (63) 
4.7699036598

>  <CNN_VS>  (63) 
4.3493256569

>  <CNNaffinity_variance>  (63) 
0.0747122765

$$$$
64
     RDKit          3D

 43 45  0  0  0  0  0  0  0  0999 V2000
   20.5482   71.2968   -1.4245 P   0  0  2  0  0  0  0  0  0  0  0  0
   21.1535   70.5349   -0.1314 O   0  0  0  0  0  0  0  0  0  0  0  0
   20.0660   72.6945   -1.1681 O   0  0  0  0  0  0  0  0  0  0  0  0
   19.4415   70.2662   -1.9999 O   0  0  0  0  0  0  0  0  0  0  0  0
   19.1264   70.3134   -3.3794 C   0  0  0  0  0  0  0  0  0  0  0  0
   17.4875   71.3676   -4.7867 O   0  0  0  0  0  0  0  0  0  0  0  0
   15.4366   69.8183   -3.2425 O   0  0  0  0  0  0  0  0  0  0  0  0
   15.6776   68.3651   -5.5374 O   0  0  0  0  0  0  0  0  0  0  0  0
   16.7537   69.4318   -3.6356 C   0  0  1  0  0  0  0  0  0  0  0  0
   16.7900   69.1278   -5.1184 C   0  0  2  0  0  0  0  0  0  0  0  0
   17.6513   70.6580   -3.5398 C   0  0  1  0  0  0  0  0  0  0  0  0
   16.8065   70.5202   -5.7256 C   0  0  2  0  0  0  0  0  0  0  0  0
   14.8448   69.0511   -3.2957 H   0  0  0  0  0  0  0  0  0  0  0  0
   15.7130   67.4877   -5.1239 H   0  0  0  0  0  0  0  0  0  0  0  0
   15.5377   70.5741   -8.2482 O   0  0  0  0  0  0  0  0  0  0  0  0
   19.5703   70.6806  -10.4778 O   0  0  0  0  0  0  0  0  0  0  0  0
   17.5008   70.5622   -6.9814 N   0  0  0  0  0  0  0  0  0  0  0  0
   17.5474   70.6261   -9.3563 N   0  0  0  0  0  0  0  0  0  0  0  0
   16.7688   70.5865   -8.1921 C   0  0  0  0  0  0  0  0  0  0  0  0
   18.8900   70.5806   -7.0057 C   0  0  0  0  0  0  0  0  0  0  0  0
   19.6182   70.6185   -8.1232 C   0  0  0  0  0  0  0  0  0  0  0  0
   18.9307   70.6451   -9.4309 C   0  0  0  0  0  0  0  0  0  0  0  0
   17.0601   70.6415  -10.2116 H   0  0  0  0  0  0  0  0  0  0  0  0
   21.7453   71.1850   -2.5049 O   0  0  0  0  0  0  0  0  0  0  0  0
   23.0982   72.0518   -2.6835 P   0  0  2  0  0  0  0  0  0  0  0  0
   24.1837   70.9493   -3.1593 O   0  0  0  0  0  0  0  0  0  0  0  0
   23.4988   72.8269   -1.4617 O   0  0  0  0  0  0  0  0  0  0  0  0
   22.8351   72.9559   -3.9934 O   0  0  0  0  0  0  0  0  0  0  0  0
   20.5823   73.5690   -4.3913 O   0  0  0  0  0  0  0  0  0  0  0  0
   22.3856   74.6371   -7.9515 O   0  0  0  0  0  0  0  0  0  0  0  0
   23.0798   72.1228   -6.6358 O   0  0  0  0  0  0  0  0  0  0  0  0
   21.6527   76.6793   -6.0168 O   0  0  0  0  0  0  0  0  0  0  0  0
   22.3098   74.4216   -6.5423 C   0  0  2  0  0  0  0  0  0  0  0  0
   21.9853   72.9534   -6.2658 C   0  0  2  0  0  0  0  0  0  0  0  0
   21.2074   75.3246   -5.9845 C   0  0  1  0  0  0  0  0  0  0  0  0
   21.6703   72.7321   -4.7857 C   0  0  1  0  0  0  0  0  0  0  0  0
   20.8633   74.9585   -4.5436 C   0  0  1  0  0  0  0  0  0  0  0  0
   23.0798   74.0735   -8.3281 H   0  0  0  0  0  0  0  0  0  0  0  0
   23.2854   72.2583   -7.5737 H   0  0  0  0  0  0  0  0  0  0  0  0
   21.8751   76.9249   -6.9285 H   0  0  0  0  0  0  0  0  0  0  0  0
   19.3789   75.4396   -2.7924 O   0  0  0  0  0  0  0  0  0  0  0  0
   18.8261   76.2103   -4.8659 O   0  0  0  0  0  0  0  0  0  0  0  0
   19.5852   75.6075   -4.1221 C   0  0  0  0  0  0  0  0  0  0  0  0
  1  4  1  0
  1 24  1  0
  1  2  1  1
  1  3  2  0
 25 28  1  0
 25 24  1  0
 25 26  1  6
 25 27  2  0
  6 11  1  0
  6 12  1  0
 29 36  1  0
 29 37  1  0
  9  7  1  6
  7 13  1  0
 10  8  1  6
  8 14  1  0
  4  5  1  0
 36 28  1  1
 33 30  1  6
 30 38  1  0
 34 31  1  1
 31 39  1  0
 35 32  1  1
 32 40  1  0
 41 43  1  0
 15 19  2  0
 42 43  2  0
 16 22  2  0
 12 17  1  6
 17 19  1  0
 17 20  1  0
 18 19  1  0
 18 22  1  0
 18 23  1  0
  9 10  1  0
  9 11  1  0
 10 12  1  0
 11  5  1  6
 33 34  1  0
 33 35  1  0
 34 36  1  0
 35 37  1  0
 37 43  1  6
 20 21  2  0
 21 22  1  0
M  CHG  3   2  -1  26  -1  41  -1
M  END
>  <COMPND>  (64) 
    udp_gluA.pdb 

>  <AUTHOR>  (64) 
    GENERATED BY OPEN BABEL 3.1.1

>  <MASTER>  (64) 
        0    0    0    0    0    0    0    0   56    0   56    0

>  <minimizedAffinity>  (64) 
-7.91783

>  <CNNscore>  (64) 
0.8901073337

>  <CNNaffinity>  (64) 
4.7069039345

>  <CNN_VS>  (64) 
4.1896495819

>  <CNNaffinity_variance>  (64) 
0.7398234010

$$$$
65
     RDKit          3D

 43 45  0  0  0  0  0  0  0  0999 V2000
   20.3962   73.3577   -2.9747 P   0  0  2  0  0  0  0  0  0  0  0  0
   19.9578   72.8109   -1.5161 O   0  0  0  0  0  0  0  0  0  0  0  0
   20.1695   74.8244   -3.1960 O   0  0  0  0  0  0  0  0  0  0  0  0
   19.6388   72.3664   -4.0051 O   0  0  0  0  0  0  0  0  0  0  0  0
   19.0067   71.2094   -3.4890 C   0  0  0  0  0  0  0  0  0  0  0  0
   17.2696   71.8223   -5.0331 O   0  0  0  0  0  0  0  0  0  0  0  0
   15.4094   70.2661   -3.2698 O   0  0  0  0  0  0  0  0  0  0  0  0
   15.8734   68.5329   -5.3232 O   0  0  0  0  0  0  0  0  0  0  0  0
   16.7716   69.9997   -3.6046 C   0  0  1  0  0  0  0  0  0  0  0  0
   16.8714   69.4868   -5.0256 C   0  0  2  0  0  0  0  0  0  0  0  0
   17.5024   71.3324   -3.6948 C   0  0  1  0  0  0  0  0  0  0  0  0
   16.7189   70.7643   -5.8334 C   0  0  2  0  0  0  0  0  0  0  0  0
   14.9221   69.4293   -3.2064 H   0  0  0  0  0  0  0  0  0  0  0  0
   16.0143   67.7384   -4.7838 H   0  0  0  0  0  0  0  0  0  0  0  0
   15.4694   70.6209   -8.3622 O   0  0  0  0  0  0  0  0  0  0  0  0
   19.5190   70.5586  -10.5626 O   0  0  0  0  0  0  0  0  0  0  0  0
   17.4227   70.7095   -7.0834 N   0  0  0  0  0  0  0  0  0  0  0  0
   17.4875   70.5890   -9.4557 N   0  0  0  0  0  0  0  0  0  0  0  0
   16.7001   70.6390   -8.2979 C   0  0  0  0  0  0  0  0  0  0  0  0
   18.8121   70.7275   -7.0984 C   0  0  0  0  0  0  0  0  0  0  0  0
   19.5489   70.6794   -8.2100 C   0  0  0  0  0  0  0  0  0  0  0  0
   18.8714   70.6037   -9.5210 C   0  0  0  0  0  0  0  0  0  0  0  0
   17.0068   70.5375  -10.3133 H   0  0  0  0  0  0  0  0  0  0  0  0
   21.9394   72.8902   -3.0887 O   0  0  0  0  0  0  0  0  0  0  0  0
   22.6962   71.5797   -2.5200 P   0  0  2  0  0  0  0  0  0  0  0  0
   24.1412   71.6425   -3.2468 O   0  0  0  0  0  0  0  0  0  0  0  0
   21.9502   70.2950   -2.7369 O   0  0  0  0  0  0  0  0  0  0  0  0
   23.0029   71.9229   -0.9738 O   0  0  0  0  0  0  0  0  0  0  0  0
   24.3130   70.9909    0.7652 O   0  0  0  0  0  0  0  0  0  0  0  0
   20.8008   71.8880    2.7471 O   0  0  0  0  0  0  0  0  0  0  0  0
   20.7338   70.7049    0.0768 O   0  0  0  0  0  0  0  0  0  0  0  0
   23.1476   73.5658    3.1049 O   0  0  0  0  0  0  0  0  0  0  0  0
   21.8249   72.0602    1.7675 C   0  0  2  0  0  0  0  0  0  0  0  0
   21.9012   70.8157    0.8827 C   0  0  2  0  0  0  0  0  0  0  0  0
   23.1506   72.2733    2.5018 C   0  0  1  0  0  0  0  0  0  0  0  0
   23.1306   70.8648   -0.0257 C   0  0  1  0  0  0  0  0  0  0  0  0
   24.3372   72.1833    1.5467 C   0  0  1  0  0  0  0  0  0  0  0  0
   19.9488   71.7509    2.3036 H   0  0  0  0  0  0  0  0  0  0  0  0
   19.9498   70.6735    0.6467 H   0  0  0  0  0  0  0  0  0  0  0  0
   22.3970   73.6362    3.7152 H   0  0  0  0  0  0  0  0  0  0  0  0
   26.2404   70.8931    2.0099 O   0  0  0  0  0  0  0  0  0  0  0  0
   26.0572   72.8979    3.0805 O   0  0  0  0  0  0  0  0  0  0  0  0
   25.6196   72.0623    2.3037 C   0  0  0  0  0  0  0  0  0  0  0  0
  1  4  1  0
  1 24  1  0
  1  2  1  1
  1  3  2  0
 25 28  1  0
 25 24  1  0
 25 26  1  6
 25 27  2  0
  6 11  1  0
  6 12  1  0
 29 36  1  0
 29 37  1  0
  9  7  1  6
  7 13  1  0
 10  8  1  6
  8 14  1  0
  4  5  1  0
 36 28  1  6
 33 30  1  1
 30 38  1  0
 34 31  1  6
 31 39  1  0
 35 32  1  6
 32 40  1  0
 41 43  1  0
 15 19  2  0
 42 43  2  0
 16 22  2  0
 12 17  1  6
 17 19  1  0
 17 20  1  0
 18 19  1  0
 18 22  1  0
 18 23  1  0
  9 10  1  0
  9 11  1  0
 10 12  1  0
 11  5  1  6
 33 34  1  0
 33 35  1  0
 34 36  1  0
 35 37  1  0
 37 43  1  1
 20 21  2  0
 21 22  1  0
M  CHG  3   2  -1  26  -1  41  -1
M  END
>  <COMPND>  (65) 
    udp_gluA.pdb 

>  <AUTHOR>  (65) 
    GENERATED BY OPEN BABEL 3.1.1

>  <MASTER>  (65) 
        0    0    0    0    0    0    0    0   56    0   56    0

>  <minimizedAffinity>  (65) 
-8.21834

>  <CNNscore>  (65) 
0.8703048825

>  <CNNaffinity>  (65) 
4.6711759567

>  <CNN_VS>  (65) 
4.0653471947

>  <CNNaffinity_variance>  (65) 
0.1038524359

$$$$
66
     RDKit          3D

 43 45  0  0  0  0  0  0  0  0999 V2000
   22.7737   71.3814   -2.3043 P   0  0  2  0  0  0  0  0  0  0  0  0
   22.4426   72.9528   -2.5043 O   0  0  0  0  0  0  0  0  0  0  0  0
   23.9770   70.8872   -3.0525 O   0  0  0  0  0  0  0  0  0  0  0  0
   21.3771   70.6426   -2.6533 O   0  0  0  0  0  0  0  0  0  0  0  0
   20.7684   70.9036   -3.9046 C   0  0  0  0  0  0  0  0  0  0  0  0
   18.7615   71.7567   -4.9157 O   0  0  0  0  0  0  0  0  0  0  0  0
   17.2894   70.4571   -2.6496 O   0  0  0  0  0  0  0  0  0  0  0  0
   16.9183   68.6896   -4.6927 O   0  0  0  0  0  0  0  0  0  0  0  0
   18.4529   70.0100   -3.3458 C   0  0  1  0  0  0  0  0  0  0  0  0
   18.0767   69.4970   -4.7198 C   0  0  2  0  0  0  0  0  0  0  0  0
   19.2976   71.2313   -3.6820 C   0  0  1  0  0  0  0  0  0  0  0  0
   17.8716   70.7884   -5.4932 C   0  0  2  0  0  0  0  0  0  0  0  0
   16.7339   69.6941   -2.4241 H   0  0  0  0  0  0  0  0  0  0  0  0
   17.1001   67.8801   -4.1892 H   0  0  0  0  0  0  0  0  0  0  0  0
   15.9466   70.3470   -7.5122 O   0  0  0  0  0  0  0  0  0  0  0  0
   19.1623   70.2577  -10.8130 O   0  0  0  0  0  0  0  0  0  0  0  0
   18.1782   70.6460   -6.8884 N   0  0  0  0  0  0  0  0  0  0  0  0
   17.5501   70.3020   -9.1541 N   0  0  0  0  0  0  0  0  0  0  0  0
   17.1370   70.4269   -7.8212 C   0  0  0  0  0  0  0  0  0  0  0  0
   19.4965   70.7254   -7.3204 C   0  0  0  0  0  0  0  0  0  0  0  0
   19.8748   70.6045   -8.5944 C   0  0  0  0  0  0  0  0  0  0  0  0
   18.8486   70.3730   -9.6321 C   0  0  0  0  0  0  0  0  0  0  0  0
   16.8432   70.1468   -9.8216 H   0  0  0  0  0  0  0  0  0  0  0  0
   22.8719   71.2327   -0.6977 O   0  0  0  0  0  0  0  0  0  0  0  0
   21.9260   71.8065    0.4811 P   0  0  2  0  0  0  0  0  0  0  0  0
   21.9426   70.6182    1.5801 O   0  0  0  0  0  0  0  0  0  0  0  0
   20.5529   72.2101    0.0274 O   0  0  0  0  0  0  0  0  0  0  0  0
   22.7851   72.9950    1.1534 O   0  0  0  0  0  0  0  0  0  0  0  0
   24.6257   74.2419    0.3369 O   0  0  0  0  0  0  0  0  0  0  0  0
   25.4895   74.0111    4.3703 O   0  0  0  0  0  0  0  0  0  0  0  0
   24.4628   71.6799    2.9400 O   0  0  0  0  0  0  0  0  0  0  0  0
   24.4690   76.4855    3.2359 O   0  0  0  0  0  0  0  0  0  0  0  0
   24.6471   74.0827    3.2201 C   0  0  2  0  0  0  0  0  0  0  0  0
   24.9109   72.8779    2.3166 C   0  0  2  0  0  0  0  0  0  0  0  0
   24.9671   75.3833    2.4798 C   0  0  1  0  0  0  0  0  0  0  0  0
   24.1994   73.0360    0.9721 C   0  0  1  0  0  0  0  0  0  0  0  0
   24.3232   75.4100    1.0966 C   0  0  1  0  0  0  0  0  0  0  0  0
   25.3040   73.1924    4.8567 H   0  0  0  0  0  0  0  0  0  0  0  0
   24.9100   71.5734    3.7938 H   0  0  0  0  0  0  0  0  0  0  0  0
   24.8710   76.4800    4.1186 H   0  0  0  0  0  0  0  0  0  0  0  0
   26.0117   77.0189    0.8482 O   0  0  0  0  0  0  0  0  0  0  0  0
   24.4376   76.9006   -0.7972 O   0  0  0  0  0  0  0  0  0  0  0  0
   24.8986   76.5096    0.2647 C   0  0  0  0  0  0  0  0  0  0  0  0
  1  4  1  0
  1 24  1  0
  1  2  1  1
  1  3  2  0
 25 28  1  0
 25 24  1  0
 25 26  1  1
 25 27  2  0
  6 11  1  0
  6 12  1  0
 29 36  1  0
 29 37  1  0
  9  7  1  1
  7 13  1  0
 10  8  1  1
  8 14  1  0
  4  5  1  0
 36 28  1  1
 33 30  1  1
 30 38  1  0
 34 31  1  1
 31 39  1  0
 35 32  1  1
 32 40  1  0
 41 43  1  0
 15 19  2  0
 42 43  2  0
 16 22  2  0
 12 17  1  6
 17 19  1  0
 17 20  1  0
 18 19  1  0
 18 22  1  0
 18 23  1  0
  9 10  1  0
  9 11  1  0
 10 12  1  0
 11  5  1  6
 33 34  1  0
 33 35  1  0
 34 36  1  0
 35 37  1  0
 37 43  1  6
 20 21  2  0
 21 22  1  0
M  CHG  3   2  -1  26  -1  41  -1
M  END
>  <COMPND>  (66) 
    udp_gluA.pdb 

>  <AUTHOR>  (66) 
    GENERATED BY OPEN BABEL 3.1.1

>  <MASTER>  (66) 
        0    0    0    0    0    0    0    0   56    0   56    0

>  <minimizedAffinity>  (66) 
-7.07926

>  <CNNscore>  (66) 
0.8663194180

>  <CNNaffinity>  (66) 
4.6810173988

>  <CNN_VS>  (66) 
4.0552563667

>  <CNNaffinity_variance>  (66) 
0.0800472945

$$$$
67
     RDKit          3D

 43 45  0  0  0  0  0  0  0  0999 V2000
   22.0647   73.0947   -6.3829 P   0  0  2  0  0  0  0  0  0  0  0  0
   23.1902   72.3002   -5.5338 O   0  0  0  0  0  0  0  0  0  0  0  0
   21.1883   74.0066   -5.5754 O   0  0  0  0  0  0  0  0  0  0  0  0
   21.2992   71.9273   -7.2010 O   0  0  0  0  0  0  0  0  0  0  0  0
   19.9761   72.1680   -7.6437 C   0  0  0  0  0  0  0  0  0  0  0  0
   18.9347   70.0526   -7.1767 O   0  0  0  0  0  0  0  0  0  0  0  0
   18.1238   70.0251  -10.0634 O   0  0  0  0  0  0  0  0  0  0  0  0
   15.8345   70.8134   -8.8089 O   0  0  0  0  0  0  0  0  0  0  0  0
   18.2195   71.1284   -9.1621 C   0  0  1  0  0  0  0  0  0  0  0  0
   17.0657   71.1061   -8.1820 C   0  0  2  0  0  0  0  0  0  0  0  0
   19.4159   70.8885   -8.2514 C   0  0  1  0  0  0  0  0  0  0  0  0
   17.4990   70.0224   -7.2095 C   0  0  2  0  0  0  0  0  0  0  0  0
   17.3663   70.1558  -10.6557 H   0  0  0  0  0  0  0  0  0  0  0  0
   15.6025   71.5329   -9.4176 H   0  0  0  0  0  0  0  0  0  0  0  0
   16.2511   68.0447   -5.6258 O   0  0  0  0  0  0  0  0  0  0  0  0
   15.6109   70.9849   -2.1344 O   0  0  0  0  0  0  0  0  0  0  0  0
   16.9968   70.2438   -5.8830 N   0  0  0  0  0  0  0  0  0  0  0  0
   15.9326   69.5112   -3.8888 N   0  0  0  0  0  0  0  0  0  0  0  0
   16.3867   69.1829   -5.1729 C   0  0  0  0  0  0  0  0  0  0  0  0
   17.1123   71.4991   -5.2983 C   0  0  0  0  0  0  0  0  0  0  0  0
   16.6746   71.7969   -4.0733 C   0  0  0  0  0  0  0  0  0  0  0  0
   16.0242   70.7449   -3.2649 C   0  0  0  0  0  0  0  0  0  0  0  0
   15.5024   68.7893   -3.3758 H   0  0  0  0  0  0  0  0  0  0  0  0
   22.9306   73.8345   -7.5300 O   0  0  0  0  0  0  0  0  0  0  0  0
   23.1513   75.4044   -7.8466 P   0  0  2  0  0  0  0  0  0  0  0  0
   24.2299   75.8591   -6.7285 O   0  0  0  0  0  0  0  0  0  0  0  0
   21.8876   76.2150   -7.8524 O   0  0  0  0  0  0  0  0  0  0  0  0
   23.9698   75.4305   -9.2364 O   0  0  0  0  0  0  0  0  0  0  0  0
   24.6462   73.6359  -10.6260 O   0  0  0  0  0  0  0  0  0  0  0  0
   27.6867   76.3651  -11.2381 O   0  0  0  0  0  0  0  0  0  0  0  0
   26.6237   75.9093   -8.5554 O   0  0  0  0  0  0  0  0  0  0  0  0
   25.6426   75.9782  -13.2686 O   0  0  0  0  0  0  0  0  0  0  0  0
   26.3507   75.9418  -10.9659 C   0  0  2  0  0  0  0  0  0  0  0  0
   26.3304   75.1010   -9.6891 C   0  0  2  0  0  0  0  0  0  0  0  0
   25.8655   75.1126  -12.1571 C   0  0  1  0  0  0  0  0  0  0  0  0
   24.9653   74.4409   -9.4905 C   0  0  1  0  0  0  0  0  0  0  0  0
   24.5628   74.3857  -11.8360 C   0  0  1  0  0  0  0  0  0  0  0  0
   28.0163   76.8940  -10.4945 H   0  0  0  0  0  0  0  0  0  0  0  0
   27.4885   76.3315   -8.6749 H   0  0  0  0  0  0  0  0  0  0  0  0
   26.4641   76.4471  -13.4831 H   0  0  0  0  0  0  0  0  0  0  0  0
   23.8454   73.9034  -14.0164 O   0  0  0  0  0  0  0  0  0  0  0  0
   24.4046   72.1348  -12.6904 O   0  0  0  0  0  0  0  0  0  0  0  0
   24.2736   73.3376  -12.8608 C   0  0  0  0  0  0  0  0  0  0  0  0
  1  4  1  0
  1 24  1  0
  1  2  1  1
  1  3  2  0
 25 28  1  0
 25 24  1  0
 25 26  1  1
 25 27  2  0
  6 11  1  0
  6 12  1  0
 29 36  1  0
 29 37  1  0
  9  7  1  6
  7 13  1  0
 10  8  1  6
  8 14  1  0
  4  5  1  0
 36 28  1  6
 33 30  1  6
 30 38  1  0
 34 31  1  1
 31 39  1  0
 35 32  1  6
 32 40  1  0
 41 43  1  0
 15 19  2  0
 42 43  2  0
 16 22  2  0
 12 17  1  1
 17 19  1  0
 17 20  1  0
 18 19  1  0
 18 22  1  0
 18 23  1  0
  9 10  1  0
  9 11  1  0
 10 12  1  0
 11  5  1  1
 33 34  1  0
 33 35  1  0
 34 36  1  0
 35 37  1  0
 37 43  1  6
 20 21  2  0
 21 22  1  0
M  CHG  3   2  -1  26  -1  41  -1
M  END
>  <COMPND>  (67) 
    udp_gluA.pdb 

>  <AUTHOR>  (67) 
    GENERATED BY OPEN BABEL 3.1.1

>  <MASTER>  (67) 
        0    0    0    0    0    0    0    0   56    0   56    0

>  <minimizedAffinity>  (67) 
-7.69253

>  <CNNscore>  (67) 
0.8458833694

>  <CNNaffinity>  (67) 
4.8574228287

>  <CNN_VS>  (67) 
4.1088132858

>  <CNNaffinity_variance>  (67) 
0.3382811546

$$$$
68
     RDKit          3D

 43 45  0  0  0  0  0  0  0  0999 V2000
   23.2227   71.6304   -2.4081 P   0  0  2  0  0  0  0  0  0  0  0  0
   23.6287   72.7537   -1.3162 O   0  0  0  0  0  0  0  0  0  0  0  0
   24.3700   70.8279   -2.9481 O   0  0  0  0  0  0  0  0  0  0  0  0
   22.3599   72.4489   -3.5052 O   0  0  0  0  0  0  0  0  0  0  0  0
   21.6829   71.7208   -4.5131 C   0  0  0  0  0  0  0  0  0  0  0  0
   21.4988   71.4111   -6.8897 O   0  0  0  0  0  0  0  0  0  0  0  0
   23.0174   73.9831   -7.1549 O   0  0  0  0  0  0  0  0  0  0  0  0
   20.4432   74.7620   -7.6051 O   0  0  0  0  0  0  0  0  0  0  0  0
   22.0415   73.6060   -6.1834 C   0  0  1  0  0  0  0  0  0  0  0  0
   20.6573   73.6240   -6.7965 C   0  0  2  0  0  0  0  0  0  0  0  0
   22.2336   72.1277   -5.8738 C   0  0  1  0  0  0  0  0  0  0  0  0
   20.6484   72.3305   -7.5932 C   0  0  2  0  0  0  0  0  0  0  0  0
   22.9145   74.9240   -7.3688 H   0  0  0  0  0  0  0  0  0  0  0  0
   20.4576   75.5592   -7.0517 H   0  0  0  0  0  0  0  0  0  0  0  0
   19.7003   70.9217   -9.8500 O   0  0  0  0  0  0  0  0  0  0  0  0
   15.5896   70.1942   -7.8963 O   0  0  0  0  0  0  0  0  0  0  0  0
   19.3345   71.7623   -7.7010 N   0  0  0  0  0  0  0  0  0  0  0  0
   17.6535   70.5616   -8.8752 N   0  0  0  0  0  0  0  0  0  0  0  0
   18.9575   71.0740   -8.8784 C   0  0  0  0  0  0  0  0  0  0  0  0
   18.4361   71.8879   -6.6484 C   0  0  0  0  0  0  0  0  0  0  0  0
   17.1965   71.3940   -6.6599 C   0  0  0  0  0  0  0  0  0  0  0  0
   16.7236   70.6616   -7.8530 C   0  0  0  0  0  0  0  0  0  0  0  0
   17.3675   70.0801   -9.6849 H   0  0  0  0  0  0  0  0  0  0  0  0
   22.0988   70.7628   -1.6355 O   0  0  0  0  0  0  0  0  0  0  0  0
   21.1782   71.1182   -0.3549 P   0  0  2  0  0  0  0  0  0  0  0  0
   21.3059   72.7280   -0.2429 O   0  0  0  0  0  0  0  0  0  0  0  0
   21.5532   70.3795    0.8971 O   0  0  0  0  0  0  0  0  0  0  0  0
   19.6657   70.8636   -0.8549 O   0  0  0  0  0  0  0  0  0  0  0  0
   18.9364   70.1333   -2.9865 O   0  0  0  0  0  0  0  0  0  0  0  0
   15.7259   72.4125   -1.7350 O   0  0  0  0  0  0  0  0  0  0  0  0
   18.4614   73.3337   -1.2841 O   0  0  0  0  0  0  0  0  0  0  0  0
   15.5626   69.5105   -1.6857 O   0  0  0  0  0  0  0  0  0  0  0  0
   16.8486   71.5450   -1.5770 C   0  0  2  0  0  0  0  0  0  0  0  0
   18.1055   72.2321   -2.1115 C   0  0  2  0  0  0  0  0  0  0  0  0
   16.5688   70.2616   -2.3622 C   0  0  1  0  0  0  0  0  0  0  0  0
   19.2800   71.2544   -2.1714 C   0  0  1  0  0  0  0  0  0  0  0  0
   17.8217   69.3992   -2.4848 C   0  0  1  0  0  0  0  0  0  0  0  0
   15.8811   73.2350   -1.2444 H   0  0  0  0  0  0  0  0  0  0  0  0
   17.7205   73.9580   -1.2413 H   0  0  0  0  0  0  0  0  0  0  0  0
   14.7598   70.0482   -1.6009 H   0  0  0  0  0  0  0  0  0  0  0  0
   16.7135   68.7127   -4.4346 O   0  0  0  0  0  0  0  0  0  0  0  0
   18.2223   67.2619   -3.5302 O   0  0  0  0  0  0  0  0  0  0  0  0
   17.6325   68.3319   -3.5131 C   0  0  0  0  0  0  0  0  0  0  0  0
  1  4  1  0
  1 24  1  0
  1  2  1  1
  1  3  2  0
 25 28  1  0
 25 24  1  0
 25 26  1  1
 25 27  2  0
  6 11  1  0
  6 12  1  0
 29 36  1  0
 29 37  1  0
  9  7  1  6
  7 13  1  0
 10  8  1  6
  8 14  1  0
  4  5  1  0
 36 28  1  1
 33 30  1  6
 30 38  1  0
 34 31  1  1
 31 39  1  0
 35 32  1  1
 32 40  1  0
 41 43  1  0
 15 19  2  0
 42 43  2  0
 16 22  2  0
 12 17  1  1
 17 19  1  0
 17 20  1  0
 18 19  1  0
 18 22  1  0
 18 23  1  0
  9 10  1  0
  9 11  1  0
 10 12  1  0
 11  5  1  1
 33 34  1  0
 33 35  1  0
 34 36  1  0
 35 37  1  0
 37 43  1  6
 20 21  2  0
 21 22  1  0
M  CHG  3   2  -1  26  -1  41  -1
M  END
>  <COMPND>  (68) 
    udp_gluA.pdb 

>  <AUTHOR>  (68) 
    GENERATED BY OPEN BABEL 3.1.1

>  <MASTER>  (68) 
        0    0    0    0    0    0    0    0   56    0   56    0

>  <minimizedAffinity>  (68) 
-7.53057

>  <CNNscore>  (68) 
0.8379392624

>  <CNNaffinity>  (68) 
4.6712827682

>  <CNN_VS>  (68) 
3.9142513275

>  <CNNaffinity_variance>  (68) 
0.4475129545

$$$$
69
     RDKit          3D

 43 45  0  0  0  0  0  0  0  0999 V2000
   21.0213   72.6358   -4.3318 P   0  0  2  0  0  0  0  0  0  0  0  0
   21.1065   73.7363   -5.5152 O   0  0  0  0  0  0  0  0  0  0  0  0
   21.3336   71.2292   -4.7511 O   0  0  0  0  0  0  0  0  0  0  0  0
   19.5543   72.8683   -3.6900 O   0  0  0  0  0  0  0  0  0  0  0  0
   18.5821   73.5553   -4.4563 C   0  0  0  0  0  0  0  0  0  0  0  0
   16.8342   72.4971   -5.7223 O   0  0  0  0  0  0  0  0  0  0  0  0
   16.0851   71.1065   -3.1734 O   0  0  0  0  0  0  0  0  0  0  0  0
   17.4762   69.1827   -4.5151 O   0  0  0  0  0  0  0  0  0  0  0  0
   17.3788   71.4584   -3.6642 C   0  0  1  0  0  0  0  0  0  0  0  0
   17.7804   70.5335   -4.7936 C   0  0  2  0  0  0  0  0  0  0  0  0
   17.2623   72.7991   -4.3766 C   0  0  1  0  0  0  0  0  0  0  0  0
   16.9743   71.0868   -5.9563 C   0  0  2  0  0  0  0  0  0  0  0  0
   16.1343   70.2530   -2.7142 H   0  0  0  0  0  0  0  0  0  0  0  0
   18.0151   68.8774   -3.7679 H   0  0  0  0  0  0  0  0  0  0  0  0
   15.6226   70.5945   -8.3868 O   0  0  0  0  0  0  0  0  0  0  0  0
   19.5754   70.3295  -10.7425 O   0  0  0  0  0  0  0  0  0  0  0  0
   17.6256   70.8855   -7.2196 N   0  0  0  0  0  0  0  0  0  0  0  0
   17.5927   70.4620   -9.5576 N   0  0  0  0  0  0  0  0  0  0  0  0
   16.8540   70.6450   -8.3811 C   0  0  0  0  0  0  0  0  0  0  0  0
   19.0122   70.9289   -7.2998 C   0  0  0  0  0  0  0  0  0  0  0  0
   19.7021   70.7527   -8.4284 C   0  0  0  0  0  0  0  0  0  0  0  0
   18.9717   70.4955   -9.6869 C   0  0  0  0  0  0  0  0  0  0  0  0
   17.0775   70.2910  -10.3789 H   0  0  0  0  0  0  0  0  0  0  0  0
   22.0108   73.2379   -3.2044 O   0  0  0  0  0  0  0  0  0  0  0  0
   23.6021   73.5218   -3.2309 P   0  0  2  0  0  0  0  0  0  0  0  0
   23.6925   75.0812   -3.6557 O   0  0  0  0  0  0  0  0  0  0  0  0
   24.3786   72.5930   -4.1188 O   0  0  0  0  0  0  0  0  0  0  0  0
   24.0485   73.4955   -1.6809 O   0  0  0  0  0  0  0  0  0  0  0  0
   23.0164   72.4585    0.1815 O   0  0  0  0  0  0  0  0  0  0  0  0
   24.7250   75.7955    1.9173 O   0  0  0  0  0  0  0  0  0  0  0  0
   23.3765   75.9965   -0.6664 O   0  0  0  0  0  0  0  0  0  0  0  0
   25.9394   73.1792    2.2789 O   0  0  0  0  0  0  0  0  0  0  0  0
   24.6204   74.7225    0.9815 C   0  0  2  0  0  0  0  0  0  0  0  0
   23.3207   74.8602    0.1882 C   0  0  2  0  0  0  0  0  0  0  0  0
   24.6284   73.4085    1.7659 C   0  0  1  0  0  0  0  0  0  0  0  0
   23.0614   73.6130   -0.6579 C   0  0  1  0  0  0  0  0  0  0  0  0
   24.2378   72.2287    0.8805 C   0  0  1  0  0  0  0  0  0  0  0  0
   24.7218   76.6411    1.4416 H   0  0  0  0  0  0  0  0  0  0  0  0
   23.5411   76.7916   -0.1362 H   0  0  0  0  0  0  0  0  0  0  0  0
   26.2002   73.9230    2.8442 H   0  0  0  0  0  0  0  0  0  0  0  0
   22.6488   71.0636    2.1528 O   0  0  0  0  0  0  0  0  0  0  0  0
   24.7153   70.1209    1.9531 O   0  0  0  0  0  0  0  0  0  0  0  0
   23.9292   71.0237    1.7080 C   0  0  0  0  0  0  0  0  0  0  0  0
  1  4  1  0
  1 24  1  0
  1  2  1  6
  1  3  2  0
 25 28  1  0
 25 24  1  0
 25 26  1  6
 25 27  2  0
  6 11  1  0
  6 12  1  0
 29 36  1  0
 29 37  1  0
  9  7  1  6
  7 13  1  0
 10  8  1  1
  8 14  1  0
  4  5  1  0
 36 28  1  6
 33 30  1  1
 30 38  1  0
 34 31  1  6
 31 39  1  0
 35 32  1  6
 32 40  1  0
 41 43  1  0
 15 19  2  0
 42 43  2  0
 16 22  2  0
 12 17  1  6
 17 19  1  0
 17 20  1  0
 18 19  1  0
 18 22  1  0
 18 23  1  0
  9 10  1  0
  9 11  1  0
 10 12  1  0
 11  5  1  6
 33 34  1  0
 33 35  1  0
 34 36  1  0
 35 37  1  0
 37 43  1  1
 20 21  2  0
 21 22  1  0
M  CHG  3   2  -1  26  -1  41  -1
M  END
>  <COMPND>  (69) 
    udp_gluA.pdb 

>  <AUTHOR>  (69) 
    GENERATED BY OPEN BABEL 3.1.1

>  <MASTER>  (69) 
        0    0    0    0    0    0    0    0   56    0   56    0

>  <minimizedAffinity>  (69) 
-6.96788

>  <CNNscore>  (69) 
0.8350951672

>  <CNNaffinity>  (69) 
4.4975385666

>  <CNN_VS>  (69) 
3.7558727264

>  <CNNaffinity_variance>  (69) 
0.1107827201

$$$$
70
     RDKit          3D

 43 45  0  0  0  0  0  0  0  0999 V2000
   20.4335   71.1962   -1.4074 P   0  0  2  0  0  0  0  0  0  0  0  0
   20.8797   70.6223    0.0384 O   0  0  0  0  0  0  0  0  0  0  0  0
   19.8993   72.5984   -1.3952 O   0  0  0  0  0  0  0  0  0  0  0  0
   19.4273   70.0660   -1.9803 O   0  0  0  0  0  0  0  0  0  0  0  0
   19.0924   70.0934   -3.3557 C   0  0  0  0  0  0  0  0  0  0  0  0
   17.4767   71.2405   -4.7164 O   0  0  0  0  0  0  0  0  0  0  0  0
   15.3932   69.6675   -3.2412 O   0  0  0  0  0  0  0  0  0  0  0  0
   15.6074   68.3106   -5.5969 O   0  0  0  0  0  0  0  0  0  0  0  0
   16.7026   69.2719   -3.6504 C   0  0  1  0  0  0  0  0  0  0  0  0
   16.7345   69.0317   -5.1449 C   0  0  2  0  0  0  0  0  0  0  0  0
   17.6247   70.4744   -3.5013 C   0  0  1  0  0  0  0  0  0  0  0  0
   16.7798   70.4485   -5.6912 C   0  0  2  0  0  0  0  0  0  0  0  0
   14.7861   68.9155   -3.3277 H   0  0  0  0  0  0  0  0  0  0  0  0
   15.6245   67.4156   -5.2218 H   0  0  0  0  0  0  0  0  0  0  0  0
   15.5158   70.5502   -8.2148 O   0  0  0  0  0  0  0  0  0  0  0  0
   19.5515   70.7632  -10.4311 O   0  0  0  0  0  0  0  0  0  0  0  0
   17.4761   70.5309   -6.9439 N   0  0  0  0  0  0  0  0  0  0  0  0
   17.5270   70.6552   -9.3163 N   0  0  0  0  0  0  0  0  0  0  0  0
   16.7465   70.5765   -8.1554 C   0  0  0  0  0  0  0  0  0  0  0  0
   18.8651   70.5672   -6.9643 C   0  0  0  0  0  0  0  0  0  0  0  0
   19.5952   70.6423   -8.0788 C   0  0  0  0  0  0  0  0  0  0  0  0
   18.9102   70.6933   -9.3870 C   0  0  0  0  0  0  0  0  0  0  0  0
   17.0414   70.6861  -10.1722 H   0  0  0  0  0  0  0  0  0  0  0  0
   21.7615   70.9893   -2.3055 O   0  0  0  0  0  0  0  0  0  0  0  0
   22.9645   72.0055   -2.6711 P   0  0  2  0  0  0  0  0  0  0  0  0
   24.1518   71.0156   -3.1513 O   0  0  0  0  0  0  0  0  0  0  0  0
   23.3470   72.9339   -1.5549 O   0  0  0  0  0  0  0  0  0  0  0  0
   22.4800   72.7449   -4.0205 O   0  0  0  0  0  0  0  0  0  0  0  0
   22.7748   75.0738   -4.3341 O   0  0  0  0  0  0  0  0  0  0  0  0
   19.8101   74.2241   -7.0830 O   0  0  0  0  0  0  0  0  0  0  0  0
   19.7420   73.0337   -4.4160 O   0  0  0  0  0  0  0  0  0  0  0  0
   22.5403   74.6745   -7.9739 O   0  0  0  0  0  0  0  0  0  0  0  0
   20.9693   73.9595   -6.2929 C   0  0  2  0  0  0  0  0  0  0  0  0
   20.6174   74.0839   -4.8103 C   0  0  2  0  0  0  0  0  0  0  0  0
   22.0435   74.9812   -6.6725 C   0  0  1  0  0  0  0  0  0  0  0  0
   21.8762   74.0349   -3.9432 C   0  0  1  0  0  0  0  0  0  0  0  0
   23.2086   74.9566   -5.6873 C   0  0  1  0  0  0  0  0  0  0  0  0
   19.1136   73.5869   -6.8590 H   0  0  0  0  0  0  0  0  0  0  0  0
   18.9412   73.0586   -4.9623 H   0  0  0  0  0  0  0  0  0  0  0  0
   21.8086   74.6867   -8.6105 H   0  0  0  0  0  0  0  0  0  0  0  0
   24.9129   75.9917   -6.9224 O   0  0  0  0  0  0  0  0  0  0  0  0
   24.0497   77.1563   -5.1624 O   0  0  0  0  0  0  0  0  0  0  0  0
   24.0795   76.1575   -5.8656 C   0  0  0  0  0  0  0  0  0  0  0  0
  1  4  1  0
  1 24  1  0
  1  2  1  1
  1  3  2  0
 25 28  1  0
 25 24  1  0
 25 26  1  6
 25 27  2  0
  6 11  1  0
  6 12  1  0
 29 36  1  0
 29 37  1  0
  9  7  1  6
  7 13  1  0
 10  8  1  6
  8 14  1  0
  4  5  1  0
 36 28  1  6
 33 30  1  6
 30 38  1  0
 34 31  1  1
 31 39  1  0
 35 32  1  6
 32 40  1  0
 41 43  1  0
 15 19  2  0
 42 43  2  0
 16 22  2  0
 12 17  1  6
 17 19  1  0
 17 20  1  0
 18 19  1  0
 18 22  1  0
 18 23  1  0
  9 10  1  0
  9 11  1  0
 10 12  1  0
 11  5  1  6
 33 34  1  0
 33 35  1  0
 34 36  1  0
 35 37  1  0
 37 43  1  6
 20 21  2  0
 21 22  1  0
M  CHG  3   2  -1  26  -1  41  -1
M  END
>  <COMPND>  (70) 
    udp_gluA.pdb 

>  <AUTHOR>  (70) 
    GENERATED BY OPEN BABEL 3.1.1

>  <MASTER>  (70) 
        0    0    0    0    0    0    0    0   56    0   56    0

>  <minimizedAffinity>  (70) 
-7.86140

>  <CNNscore>  (70) 
0.7911757231

>  <CNNaffinity>  (70) 
4.6430988312

>  <CNN_VS>  (70) 
3.6735069752

>  <CNNaffinity_variance>  (70) 
0.4784411490

$$$$
71
     RDKit          3D

 43 45  0  0  0  0  0  0  0  0999 V2000
   21.2609   75.1321   -4.1646 P   0  0  2  0  0  0  0  0  0  0  0  0
   21.7904   75.9566   -2.8768 O   0  0  0  0  0  0  0  0  0  0  0  0
   20.8275   75.9793   -5.3249 O   0  0  0  0  0  0  0  0  0  0  0  0
   20.1334   74.1438   -3.5565 O   0  0  0  0  0  0  0  0  0  0  0  0
   19.8762   72.9208   -4.2219 C   0  0  0  0  0  0  0  0  0  0  0  0
   17.7895   72.5447   -5.3541 O   0  0  0  0  0  0  0  0  0  0  0  0
   16.9006   71.1430   -2.8568 O   0  0  0  0  0  0  0  0  0  0  0  0
   17.5452   69.0696   -4.5066 O   0  0  0  0  0  0  0  0  0  0  0  0
   18.1912   71.1706   -3.4670 C   0  0  1  0  0  0  0  0  0  0  0  0
   18.2030   70.3031   -4.7078 C   0  0  2  0  0  0  0  0  0  0  0  0
   18.4062   72.5613   -4.0485 C   0  0  1  0  0  0  0  0  0  0  0  0
   17.4915   71.1874   -5.7176 C   0  0  2  0  0  0  0  0  0  0  0  0
   16.7405   70.2640   -2.4781 H   0  0  0  0  0  0  0  0  0  0  0  0
   18.0369   68.5434   -3.8560 H   0  0  0  0  0  0  0  0  0  0  0  0
   15.8266   70.3143   -7.8253 O   0  0  0  0  0  0  0  0  0  0  0  0
   19.3189   70.3277  -10.8332 O   0  0  0  0  0  0  0  0  0  0  0  0
   17.9396   70.9547   -7.0615 N   0  0  0  0  0  0  0  0  0  0  0  0
   17.5677   70.3209   -9.3212 N   0  0  0  0  0  0  0  0  0  0  0  0
   17.0221   70.5168   -8.0456 C   0  0  0  0  0  0  0  0  0  0  0  0
   19.2730   71.1616   -7.3936 C   0  0  0  0  0  0  0  0  0  0  0  0
   19.7783   70.9707   -8.6138 C   0  0  0  0  0  0  0  0  0  0  0  0
   18.8867   70.5126   -9.6995 C   0  0  0  0  0  0  0  0  0  0  0  0
   16.9487   70.0140  -10.0226 H   0  0  0  0  0  0  0  0  0  0  0  0
   22.4884   74.1301   -4.4839 O   0  0  0  0  0  0  0  0  0  0  0  0
   23.5798   73.4440   -3.5083 P   0  0  2  0  0  0  0  0  0  0  0  0
   24.6389   74.6385   -3.2401 O   0  0  0  0  0  0  0  0  0  0  0  0
   24.1911   72.1868   -4.0558 O   0  0  0  0  0  0  0  0  0  0  0  0
   22.8117   73.2575   -2.1020 O   0  0  0  0  0  0  0  0  0  0  0  0
   23.1191   74.3478   -0.0221 O   0  0  0  0  0  0  0  0  0  0  0  0
   21.9726   70.5633    1.1740 O   0  0  0  0  0  0  0  0  0  0  0  0
   23.8558   70.9121   -1.0319 O   0  0  0  0  0  0  0  0  0  0  0  0
   20.0891   72.7729    1.3198 O   0  0  0  0  0  0  0  0  0  0  0  0
   22.0038   71.7063    0.3192 C   0  0  2  0  0  0  0  0  0  0  0  0
   23.4364   71.9514   -0.1553 C   0  0  2  0  0  0  0  0  0  0  0  0
   21.4946   72.9082    1.1179 C   0  0  1  0  0  0  0  0  0  0  0  0
   23.5501   73.2922   -0.8820 C   0  0  1  0  0  0  0  0  0  0  0  0
   21.7577   74.2184    0.3813 C   0  0  1  0  0  0  0  0  0  0  0  0
   22.2921   69.7869    0.6878 H   0  0  0  0  0  0  0  0  0  0  0  0
   23.7860   70.0584   -0.5773 H   0  0  0  0  0  0  0  0  0  0  0  0
   19.9081   71.9427    1.7877 H   0  0  0  0  0  0  0  0  0  0  0  0
   21.6700   76.5516    0.6054 O   0  0  0  0  0  0  0  0  0  0  0  0
   21.3413   75.3125    2.4910 O   0  0  0  0  0  0  0  0  0  0  0  0
   21.5652   75.3870    1.2922 C   0  0  0  0  0  0  0  0  0  0  0  0
  1  4  1  0
  1 24  1  0
  1  2  1  1
  1  3  2  0
 25 28  1  0
 25 24  1  0
 25 26  1  1
 25 27  2  0
  6 11  1  0
  6 12  1  0
 29 36  1  0
 29 37  1  0
  9  7  1  6
  7 13  1  0
 10  8  1  1
  8 14  1  0
  4  5  1  0
 36 28  1  6
 33 30  1  1
 30 38  1  0
 34 31  1  6
 31 39  1  0
 35 32  1  6
 32 40  1  0
 41 43  1  0
 15 19  2  0
 42 43  2  0
 16 22  2  0
 12 17  1  6
 17 19  1  0
 17 20  1  0
 18 19  1  0
 18 22  1  0
 18 23  1  0
  9 10  1  0
  9 11  1  0
 10 12  1  0
 11  5  1  6
 33 34  1  0
 33 35  1  0
 34 36  1  0
 35 37  1  0
 37 43  1  1
 20 21  2  0
 21 22  1  0
M  CHG  3   2  -1  26  -1  41  -1
M  END
>  <COMPND>  (71) 
    udp_gluA.pdb 

>  <AUTHOR>  (71) 
    GENERATED BY OPEN BABEL 3.1.1

>  <MASTER>  (71) 
        0    0    0    0    0    0    0    0   56    0   56    0

>  <minimizedAffinity>  (71) 
-6.65051

>  <CNNscore>  (71) 
0.7875352502

>  <CNNaffinity>  (71) 
4.5319213867

>  <CNN_VS>  (71) 
3.5690479279

>  <CNNaffinity_variance>  (71) 
0.0691582412

$$$$
72
     RDKit          3D

 43 45  0  0  0  0  0  0  0  0999 V2000
   21.6699   71.2365   -1.8386 P   0  0  2  0  0  0  0  0  0  0  0  0
   22.5508   70.7838   -3.1185 O   0  0  0  0  0  0  0  0  0  0  0  0
   22.3154   70.9909   -0.5064 O   0  0  0  0  0  0  0  0  0  0  0  0
   20.2431   70.5104   -2.0726 O   0  0  0  0  0  0  0  0  0  0  0  0
   19.7335   70.4300   -3.3911 C   0  0  0  0  0  0  0  0  0  0  0  0
   18.0217   71.5792   -4.6266 O   0  0  0  0  0  0  0  0  0  0  0  0
   16.0591   70.2138   -2.8168 O   0  0  0  0  0  0  0  0  0  0  0  0
   15.9247   68.7076   -5.0860 O   0  0  0  0  0  0  0  0  0  0  0  0
   17.2898   69.7236   -3.3492 C   0  0  1  0  0  0  0  0  0  0  0  0
   17.1305   69.3922   -4.8179 C   0  0  2  0  0  0  0  0  0  0  0  0
   18.2785   70.8808   -3.3890 C   0  0  1  0  0  0  0  0  0  0  0  0
   17.1762   70.7690   -5.4585 C   0  0  2  0  0  0  0  0  0  0  0  0
   15.4114   69.4921   -2.7816 H   0  0  0  0  0  0  0  0  0  0  0  0
   15.9448   67.8373   -4.6570 H   0  0  0  0  0  0  0  0  0  0  0  0
   15.6782   70.1905   -7.7819 O   0  0  0  0  0  0  0  0  0  0  0  0
   19.3670   70.6763  -10.5023 O   0  0  0  0  0  0  0  0  0  0  0  0
   17.7201   70.7375   -6.7868 N   0  0  0  0  0  0  0  0  0  0  0  0
   17.5171   70.4320   -9.1345 N   0  0  0  0  0  0  0  0  0  0  0  0
   16.8815   70.4359   -7.8858 C   0  0  0  0  0  0  0  0  0  0  0  0
   19.0683   71.0049   -6.9907 C   0  0  0  0  0  0  0  0  0  0  0  0
   19.6598   70.9976   -8.1869 C   0  0  0  0  0  0  0  0  0  0  0  0
   18.8545   70.6909   -9.3872 C   0  0  0  0  0  0  0  0  0  0  0  0
   16.9541   70.2227   -9.9146 H   0  0  0  0  0  0  0  0  0  0  0  0
   21.3439   72.7882   -2.1531 O   0  0  0  0  0  0  0  0  0  0  0  0
   22.3228   74.0360   -2.4669 P   0  0  2  0  0  0  0  0  0  0  0  0
   23.7963   73.3664   -2.4387 O   0  0  0  0  0  0  0  0  0  0  0  0
   22.1548   75.2003   -1.5341 O   0  0  0  0  0  0  0  0  0  0  0  0
   22.0617   74.3802   -4.0212 O   0  0  0  0  0  0  0  0  0  0  0  0
   20.1363   74.1003   -5.3715 O   0  0  0  0  0  0  0  0  0  0  0  0
   23.1743   73.4398   -8.0921 O   0  0  0  0  0  0  0  0  0  0  0  0
   23.3313   72.3233   -5.3971 O   0  0  0  0  0  0  0  0  0  0  0  0
   21.7166   75.9548   -8.1148 O   0  0  0  0  0  0  0  0  0  0  0  0
   22.5562   74.0230   -6.9451 C   0  0  2  0  0  0  0  0  0  0  0  0
   22.1686   72.9223   -5.9574 C   0  0  2  0  0  0  0  0  0  0  0  0
   21.3118   74.7811   -7.4125 C   0  0  1  0  0  0  0  0  0  0  0  0
   21.3026   73.4812   -4.8275 C   0  0  1  0  0  0  0  0  0  0  0  0
   20.4364   75.1958   -6.2334 C   0  0  1  0  0  0  0  0  0  0  0  0
   23.9678   72.9526   -7.8195 H   0  0  0  0  0  0  0  0  0  0  0  0
   23.8855   71.9667   -6.1085 H   0  0  0  0  0  0  0  0  0  0  0  0
   22.2746   75.7048   -8.8677 H   0  0  0  0  0  0  0  0  0  0  0  0
   19.1535   76.8610   -7.2739 O   0  0  0  0  0  0  0  0  0  0  0  0
   18.0604   74.9794   -6.5928 O   0  0  0  0  0  0  0  0  0  0  0  0
   19.0869   75.6330   -6.7026 C   0  0  0  0  0  0  0  0  0  0  0  0
  1  4  1  0
  1 24  1  0
  1  2  1  6
  1  3  2  0
 25 28  1  0
 25 24  1  0
 25 26  1  6
 25 27  2  0
  6 11  1  0
  6 12  1  0
 29 36  1  0
 29 37  1  0
  9  7  1  6
  7 13  1  0
 10  8  1  1
  8 14  1  0
  4  5  1  0
 36 28  1  6
 33 30  1  6
 30 38  1  0
 34 31  1  1
 31 39  1  0
 35 32  1  1
 32 40  1  0
 41 43  1  0
 15 19  2  0
 42 43  2  0
 16 22  2  0
 12 17  1  6
 17 19  1  0
 17 20  1  0
 18 19  1  0
 18 22  1  0
 18 23  1  0
  9 10  1  0
  9 11  1  0
 10 12  1  0
 11  5  1  6
 33 34  1  0
 33 35  1  0
 34 36  1  0
 35 37  1  0
 37 43  1  6
 20 21  2  0
 21 22  1  0
M  CHG  3   2  -1  26  -1  41  -1
M  END
>  <COMPND>  (72) 
    udp_gluA.pdb 

>  <AUTHOR>  (72) 
    GENERATED BY OPEN BABEL 3.1.1

>  <MASTER>  (72) 
        0    0    0    0    0    0    0    0   56    0   56    0

>  <minimizedAffinity>  (72) 
-7.14942

>  <CNNscore>  (72) 
0.7466317415

>  <CNNaffinity>  (72) 
4.5153260231

>  <CNN_VS>  (72) 
3.3712856770

>  <CNNaffinity_variance>  (72) 
0.6279446483

$$$$
73
     RDKit          3D

 43 45  0  0  0  0  0  0  0  0999 V2000
   19.4181   73.3140   -1.5441 P   0  0  2  0  0  0  0  0  0  0  0  0
   18.0887   72.7426   -0.8194 O   0  0  0  0  0  0  0  0  0  0  0  0
   20.0247   74.5224   -0.8934 O   0  0  0  0  0  0  0  0  0  0  0  0
   18.9704   73.4976   -3.0881 O   0  0  0  0  0  0  0  0  0  0  0  0
   18.8915   72.3479   -3.9105 C   0  0  0  0  0  0  0  0  0  0  0  0
   17.0341   71.9740   -5.3896 O   0  0  0  0  0  0  0  0  0  0  0  0
   15.8545   70.3150   -3.1878 O   0  0  0  0  0  0  0  0  0  0  0  0
   16.8748   68.4296   -4.8732 O   0  0  0  0  0  0  0  0  0  0  0  0
   17.2203   70.4586   -3.5785 C   0  0  1  0  0  0  0  0  0  0  0  0
   17.4788   69.7063   -4.8667 C   0  0  2  0  0  0  0  0  0  0  0  0
   17.4374   71.9041   -4.0048 C   0  0  1  0  0  0  0  0  0  0  0  0
   16.8804   70.6415   -5.9037 C   0  0  2  0  0  0  0  0  0  0  0  0
   15.6916   69.3992   -2.9112 H   0  0  0  0  0  0  0  0  0  0  0  0
   17.2904   67.8719   -4.1963 H   0  0  0  0  0  0  0  0  0  0  0  0
   15.5662   70.7086   -8.4026 O   0  0  0  0  0  0  0  0  0  0  0  0
   19.5354   70.2855  -10.7070 O   0  0  0  0  0  0  0  0  0  0  0  0
   17.5461   70.5508   -7.1723 N   0  0  0  0  0  0  0  0  0  0  0  0
   17.5442   70.4968   -9.5479 N   0  0  0  0  0  0  0  0  0  0  0  0
   16.7929   70.5944   -8.3694 C   0  0  0  0  0  0  0  0  0  0  0  0
   18.9288   70.4222   -7.2225 C   0  0  0  0  0  0  0  0  0  0  0  0
   19.6310   70.3304   -8.3535 C   0  0  0  0  0  0  0  0  0  0  0  0
   18.9200   70.3670   -9.6483 C   0  0  0  0  0  0  0  0  0  0  0  0
   17.0416   70.5227  -10.3941 H   0  0  0  0  0  0  0  0  0  0  0  0
   20.3864   72.0208   -1.5979 O   0  0  0  0  0  0  0  0  0  0  0  0
   21.9973   71.9031   -1.6674 P   0  0  2  0  0  0  0  0  0  0  0  0
   22.2336   70.6301   -2.6390 O   0  0  0  0  0  0  0  0  0  0  0  0
   22.6649   71.7906   -0.3274 O   0  0  0  0  0  0  0  0  0  0  0  0
   22.4632   73.1755   -2.5428 O   0  0  0  0  0  0  0  0  0  0  0  0
   23.4757   72.7858   -4.6480 O   0  0  0  0  0  0  0  0  0  0  0  0
   24.4564   76.7401   -3.9627 O   0  0  0  0  0  0  0  0  0  0  0  0
   24.6108   74.7801   -1.8019 O   0  0  0  0  0  0  0  0  0  0  0  0
   22.3596   76.0643   -5.8594 O   0  0  0  0  0  0  0  0  0  0  0  0
   23.6485   75.5656   -3.8859 C   0  0  2  0  0  0  0  0  0  0  0  0
   24.4242   74.4565   -3.1748 C   0  0  2  0  0  0  0  0  0  0  0  0
   23.2974   75.1389   -5.3129 C   0  0  1  0  0  0  0  0  0  0  0  0
   23.6857   73.1211   -3.2758 C   0  0  1  0  0  0  0  0  0  0  0  0
   22.6793   73.7440   -5.3412 C   0  0  1  0  0  0  0  0  0  0  0  0
   24.6920   77.0299   -3.0673 H   0  0  0  0  0  0  0  0  0  0  0  0
   25.0787   75.6265   -1.7303 H   0  0  0  0  0  0  0  0  0  0  0  0
   22.7407   76.9562   -5.8471 H   0  0  0  0  0  0  0  0  0  0  0  0
   22.1539   71.9432   -6.7492 O   0  0  0  0  0  0  0  0  0  0  0  0
   23.0068   73.8163   -7.7305 O   0  0  0  0  0  0  0  0  0  0  0  0
   22.6456   73.2069   -6.7350 C   0  0  0  0  0  0  0  0  0  0  0  0
  1  4  1  0
  1 24  1  0
  1  2  1  1
  1  3  2  0
 25 28  1  0
 25 24  1  0
 25 26  1  6
 25 27  2  0
  6 11  1  0
  6 12  1  0
 29 36  1  0
 29 37  1  0
  9  7  1  6
  7 13  1  0
 10  8  1  1
  8 14  1  0
  4  5  1  0
 36 28  1  1
 33 30  1  6
 30 38  1  0
 34 31  1  1
 31 39  1  0
 35 32  1  1
 32 40  1  0
 41 43  1  0
 15 19  2  0
 42 43  2  0
 16 22  2  0
 12 17  1  6
 17 19  1  0
 17 20  1  0
 18 19  1  0
 18 22  1  0
 18 23  1  0
  9 10  1  0
  9 11  1  0
 10 12  1  0
 11  5  1  6
 33 34  1  0
 33 35  1  0
 34 36  1  0
 35 37  1  0
 37 43  1  6
 20 21  2  0
 21 22  1  0
M  CHG  3   2  -1  26  -1  41  -1
M  END
>  <COMPND>  (73) 
    udp_gluA.pdb 

>  <AUTHOR>  (73) 
    GENERATED BY OPEN BABEL 3.1.1

>  <MASTER>  (73) 
        0    0    0    0    0    0    0    0   56    0   56    0

>  <minimizedAffinity>  (73) 
-6.61893

>  <CNNscore>  (73) 
0.7352072001

>  <CNNaffinity>  (73) 
4.4794797897

>  <CNN_VS>  (73) 
3.2933456898

>  <CNNaffinity_variance>  (73) 
0.1146378666

$$$$
74
     RDKit          3D

 43 45  0  0  0  0  0  0  0  0999 V2000
   19.0013   73.3049   -1.5075 P   0  0  2  0  0  0  0  0  0  0  0  0
   17.6095   72.9035   -0.7859 O   0  0  0  0  0  0  0  0  0  0  0  0
   19.7728   74.4000   -0.8311 O   0  0  0  0  0  0  0  0  0  0  0  0
   18.5753   73.5901   -3.0421 O   0  0  0  0  0  0  0  0  0  0  0  0
   18.5756   72.5088   -3.9560 C   0  0  0  0  0  0  0  0  0  0  0  0
   16.8029   71.9875   -5.4933 O   0  0  0  0  0  0  0  0  0  0  0  0
   15.6414   70.3106   -3.2955 O   0  0  0  0  0  0  0  0  0  0  0  0
   16.8383   68.4530   -4.8932 O   0  0  0  0  0  0  0  0  0  0  0  0
   17.0100   70.5287   -3.6386 C   0  0  1  0  0  0  0  0  0  0  0  0
   17.3632   69.7641   -4.8967 C   0  0  2  0  0  0  0  0  0  0  0  0
   17.1557   71.9746   -4.0930 C   0  0  1  0  0  0  0  0  0  0  0  0
   16.7501   70.6366   -5.9787 C   0  0  2  0  0  0  0  0  0  0  0  0
   15.5235   69.3932   -3.0020 H   0  0  0  0  0  0  0  0  0  0  0  0
   17.2603   67.9376   -4.1874 H   0  0  0  0  0  0  0  0  0  0  0  0
   15.5372   70.6652   -8.5291 O   0  0  0  0  0  0  0  0  0  0  0  0
   19.6056   70.3283  -10.6690 O   0  0  0  0  0  0  0  0  0  0  0  0
   17.4687   70.5577   -7.2190 N   0  0  0  0  0  0  0  0  0  0  0  0
   17.5646   70.4964   -9.5924 N   0  0  0  0  0  0  0  0  0  0  0  0
   16.7639   70.5799   -8.4457 C   0  0  0  0  0  0  0  0  0  0  0  0
   18.8549   70.4614   -7.2125 C   0  0  0  0  0  0  0  0  0  0  0  0
   19.6044   70.3827   -8.3137 C   0  0  0  0  0  0  0  0  0  0  0  0
   18.9459   70.3986   -9.6364 C   0  0  0  0  0  0  0  0  0  0  0  0
   17.0962   70.5079  -10.4584 H   0  0  0  0  0  0  0  0  0  0  0  0
   19.7810   71.8922   -1.6033 O   0  0  0  0  0  0  0  0  0  0  0  0
   21.3610   71.5496   -1.6023 P   0  0  2  0  0  0  0  0  0  0  0  0
   21.5094   70.4854   -2.8130 O   0  0  0  0  0  0  0  0  0  0  0  0
   21.8845   71.0618   -0.2825 O   0  0  0  0  0  0  0  0  0  0  0  0
   22.0709   72.8907   -2.1498 O   0  0  0  0  0  0  0  0  0  0  0  0
   21.5702   74.3609   -3.9379 O   0  0  0  0  0  0  0  0  0  0  0  0
   25.7006   74.3200   -4.0146 O   0  0  0  0  0  0  0  0  0  0  0  0
   24.2027   71.8465   -3.5994 O   0  0  0  0  0  0  0  0  0  0  0  0
   24.2841   76.6131   -2.9257 O   0  0  0  0  0  0  0  0  0  0  0  0
   24.4077   74.2567   -3.4126 C   0  0  2  0  0  0  0  0  0  0  0  0
   23.6254   73.0830   -4.0025 C   0  0  2  0  0  0  0  0  0  0  0  0
   23.6868   75.5754   -3.7009 C   0  0  1  0  0  0  0  0  0  0  0  0
   22.1636   73.1197   -3.5547 C   0  0  1  0  0  0  0  0  0  0  0  0
   22.2057   75.4904   -3.3435 C   0  0  1  0  0  0  0  0  0  0  0  0
   26.1775   73.4924   -3.8446 H   0  0  0  0  0  0  0  0  0  0  0  0
   25.1304   71.8165   -3.8800 H   0  0  0  0  0  0  0  0  0  0  0  0
   25.2270   76.6776   -3.1436 H   0  0  0  0  0  0  0  0  0  0  0  0
   20.1724   76.2897   -4.1967 O   0  0  0  0  0  0  0  0  0  0  0  0
   21.9184   77.7545   -4.1261 O   0  0  0  0  0  0  0  0  0  0  0  0
   21.4529   76.6430   -3.9240 C   0  0  0  0  0  0  0  0  0  0  0  0
  1  4  1  0
  1 24  1  0
  1  2  1  1
  1  3  2  0
 25 28  1  0
 25 24  1  0
 25 26  1  6
 25 27  2  0
  6 11  1  0
  6 12  1  0
 29 36  1  0
 29 37  1  0
  9  7  1  6
  7 13  1  0
 10  8  1  1
  8 14  1  0
  4  5  1  0
 36 28  1  1
 33 30  1  6
 30 38  1  0
 34 31  1  1
 31 39  1  0
 35 32  1  1
 32 40  1  0
 41 43  1  0
 15 19  2  0
 42 43  2  0
 16 22  2  0
 12 17  1  6
 17 19  1  0
 17 20  1  0
 18 19  1  0
 18 22  1  0
 18 23  1  0
  9 10  1  0
  9 11  1  0
 10 12  1  0
 11  5  1  6
 33 34  1  0
 33 35  1  0
 34 36  1  0
 35 37  1  0
 37 43  1  6
 20 21  2  0
 21 22  1  0
M  CHG  3   2  -1  26  -1  41  -1
M  END
>  <COMPND>  (74) 
    udp_gluA.pdb 

>  <AUTHOR>  (74) 
    GENERATED BY OPEN BABEL 3.1.1

>  <MASTER>  (74) 
        0    0    0    0    0    0    0    0   56    0   56    0

>  <minimizedAffinity>  (74) 
-6.53524

>  <CNNscore>  (74) 
0.6999468207

>  <CNNaffinity>  (74) 
4.5573339462

>  <CNN_VS>  (74) 
3.1898913383

>  <CNNaffinity_variance>  (74) 
0.1603972912

$$$$
75
     RDKit          3D

 43 45  0  0  0  0  0  0  0  0999 V2000
   23.3464   71.9052   -3.2965 P   0  0  2  0  0  0  0  0  0  0  0  0
   24.2109   72.9328   -4.1997 O   0  0  0  0  0  0  0  0  0  0  0  0
   24.1515   70.8650   -2.5742 O   0  0  0  0  0  0  0  0  0  0  0  0
   22.2236   71.3417   -4.3162 O   0  0  0  0  0  0  0  0  0  0  0  0
   21.5995   72.2508   -5.2042 C   0  0  0  0  0  0  0  0  0  0  0  0
   20.4699   70.3659   -6.1783 O   0  0  0  0  0  0  0  0  0  0  0  0
   20.6205   71.8549   -8.7767 O   0  0  0  0  0  0  0  0  0  0  0  0
   18.0485   72.2960   -7.9854 O   0  0  0  0  0  0  0  0  0  0  0  0
   20.4209   72.3597   -7.4562 C   0  0  1  0  0  0  0  0  0  0  0  0
   19.0152   72.0531   -6.9848 C   0  0  2  0  0  0  0  0  0  0  0  0
   21.2657   71.5266   -6.5021 C   0  0  1  0  0  0  0  0  0  0  0  0
   19.1195   70.5828   -6.6171 C   0  0  2  0  0  0  0  0  0  0  0  0
   20.0906   72.3716   -9.4043 H   0  0  0  0  0  0  0  0  0  0  0  0
   18.0202   73.2457   -8.1838 H   0  0  0  0  0  0  0  0  0  0  0  0
   16.4313   69.8083   -7.0051 O   0  0  0  0  0  0  0  0  0  0  0  0
   15.7625   69.2021   -2.4853 O   0  0  0  0  0  0  0  0  0  0  0  0
   18.2204   70.2173   -5.5593 N   0  0  0  0  0  0  0  0  0  0  0  0
   16.1005   69.5081   -4.7535 N   0  0  0  0  0  0  0  0  0  0  0  0
   16.8895   69.8440   -5.8616 C   0  0  0  0  0  0  0  0  0  0  0  0
   18.6593   70.2293   -4.2409 C   0  0  0  0  0  0  0  0  0  0  0  0
   17.8955   69.9065   -3.1953 C   0  0  0  0  0  0  0  0  0  0  0  0
   16.4919   69.5056   -3.4245 C   0  0  0  0  0  0  0  0  0  0  0  0
   15.1695   69.2468   -4.9388 H   0  0  0  0  0  0  0  0  0  0  0  0
   22.5011   72.8908   -2.3339 O   0  0  0  0  0  0  0  0  0  0  0  0
   21.4353   72.5718   -1.1608 P   0  0  2  0  0  0  0  0  0  0  0  0
   21.1226   70.9966   -1.3636 O   0  0  0  0  0  0  0  0  0  0  0  0
   20.2186   73.4511   -1.1785 O   0  0  0  0  0  0  0  0  0  0  0  0
   22.2939   72.6442    0.2030 O   0  0  0  0  0  0  0  0  0  0  0  0
   23.3270   71.0322    1.5970 O   0  0  0  0  0  0  0  0  0  0  0  0
   21.7948   73.6835    4.3702 O   0  0  0  0  0  0  0  0  0  0  0  0
   20.2188   72.9063    2.0364 O   0  0  0  0  0  0  0  0  0  0  0  0
   24.6411   73.6730    3.7791 O   0  0  0  0  0  0  0  0  0  0  0  0
   22.3564   73.2857    3.1195 C   0  0  2  0  0  0  0  0  0  0  0  0
   21.4296   72.2772    2.4400 C   0  0  2  0  0  0  0  0  0  0  0  0
   23.7221   72.6523    3.3944 C   0  0  1  0  0  0  0  0  0  0  0  0
   22.1011   71.6567    1.2141 C   0  0  1  0  0  0  0  0  0  0  0  0
   24.2678   71.9458    2.1568 C   0  0  1  0  0  0  0  0  0  0  0  0
   20.9261   74.0888    4.2206 H   0  0  0  0  0  0  0  0  0  0  0  0
   19.7875   73.3026    2.8093 H   0  0  0  0  0  0  0  0  0  0  0  0
   24.3054   74.1306    4.5658 H   0  0  0  0  0  0  0  0  0  0  0  0
   25.0122   69.7791    2.6594 O   0  0  0  0  0  0  0  0  0  0  0  0
   26.5738   71.4405    2.6551 O   0  0  0  0  0  0  0  0  0  0  0  0
   25.4199   71.0642    2.5140 C   0  0  0  0  0  0  0  0  0  0  0  0
  1  4  1  0
  1 24  1  0
  1  2  1  6
  1  3  2  0
 25 28  1  0
 25 24  1  0
 25 26  1  6
 25 27  2  0
  6 11  1  0
  6 12  1  0
 29 36  1  0
 29 37  1  0
  9  7  1  6
  7 13  1  0
 10  8  1  6
  8 14  1  0
  4  5  1  0
 36 28  1  6
 33 30  1  1
 30 38  1  0
 34 31  1  6
 31 39  1  0
 35 32  1  6
 32 40  1  0
 41 43  1  0
 15 19  2  0
 42 43  2  0
 16 22  2  0
 12 17  1  1
 17 19  1  0
 17 20  1  0
 18 19  1  0
 18 22  1  0
 18 23  1  0
  9 10  1  0
  9 11  1  0
 10 12  1  0
 11  5  1  1
 33 34  1  0
 33 35  1  0
 34 36  1  0
 35 37  1  0
 37 43  1  1
 20 21  2  0
 21 22  1  0
M  CHG  3   2  -1  26  -1  41  -1
M  END
>  <COMPND>  (75) 
    udp_gluA.pdb 

>  <AUTHOR>  (75) 
    GENERATED BY OPEN BABEL 3.1.1

>  <MASTER>  (75) 
        0    0    0    0    0    0    0    0   56    0   56    0

>  <minimizedAffinity>  (75) 
-7.80811

>  <CNNscore>  (75) 
0.6927625537

>  <CNNaffinity>  (75) 
4.3975362778

>  <CNN_VS>  (75) 
3.0464484692

>  <CNNaffinity_variance>  (75) 
0.1164294630

$$$$
76
     RDKit          3D

 43 45  0  0  0  0  0  0  0  0999 V2000
   21.9363   72.5190   -5.8795 P   0  0  2  0  0  0  0  0  0  0  0  0
   21.3663   73.9323   -5.3350 O   0  0  0  0  0  0  0  0  0  0  0  0
   23.0451   72.6280   -6.8847 O   0  0  0  0  0  0  0  0  0  0  0  0
   20.6128   71.7317   -6.3760 O   0  0  0  0  0  0  0  0  0  0  0  0
   20.0564   72.0703   -7.6331 C   0  0  0  0  0  0  0  0  0  0  0  0
   18.9302   69.9938   -7.1885 O   0  0  0  0  0  0  0  0  0  0  0  0
   18.1026   70.0402  -10.0702 O   0  0  0  0  0  0  0  0  0  0  0  0
   15.8553   70.9056   -8.7909 O   0  0  0  0  0  0  0  0  0  0  0  0
   18.2493   71.1258   -9.1546 C   0  0  1  0  0  0  0  0  0  0  0  0
   17.1012   71.1380   -8.1678 C   0  0  2  0  0  0  0  0  0  0  0  0
   19.4398   70.8238   -8.2547 C   0  0  1  0  0  0  0  0  0  0  0  0
   17.4943   70.0238   -7.2128 C   0  0  2  0  0  0  0  0  0  0  0  0
   17.3479   70.2104  -10.6560 H   0  0  0  0  0  0  0  0  0  0  0  0
   15.6501   71.6425   -9.3883 H   0  0  0  0  0  0  0  0  0  0  0  0
   16.2511   68.0536   -5.6162 O   0  0  0  0  0  0  0  0  0  0  0  0
   15.6727   70.9949   -2.1151 O   0  0  0  0  0  0  0  0  0  0  0  0
   17.0093   70.2476   -5.8803 N   0  0  0  0  0  0  0  0  0  0  0  0
   15.9633   69.5207   -3.8744 N   0  0  0  0  0  0  0  0  0  0  0  0
   16.4001   69.1903   -5.1640 C   0  0  0  0  0  0  0  0  0  0  0  0
   17.1405   71.5015   -5.2959 C   0  0  0  0  0  0  0  0  0  0  0  0
   16.7194   71.8012   -4.0656 C   0  0  0  0  0  0  0  0  0  0  0  0
   16.0710   70.7531   -3.2505 C   0  0  0  0  0  0  0  0  0  0  0  0
   15.5341   68.8014   -3.3570 H   0  0  0  0  0  0  0  0  0  0  0  0
   22.3339   71.7400   -4.5201 O   0  0  0  0  0  0  0  0  0  0  0  0
   23.4988   72.0244   -3.4358 P   0  0  2  0  0  0  0  0  0  0  0  0
   24.4938   73.0336   -4.2180 O   0  0  0  0  0  0  0  0  0  0  0  0
   24.1637   70.7865   -2.9073 O   0  0  0  0  0  0  0  0  0  0  0  0
   22.7945   72.9391   -2.3089 O   0  0  0  0  0  0  0  0  0  0  0  0
   21.6581   71.6753   -0.6596 O   0  0  0  0  0  0  0  0  0  0  0  0
   20.5161   75.5282    0.2988 O   0  0  0  0  0  0  0  0  0  0  0  0
   20.6212   74.6653   -2.4902 O   0  0  0  0  0  0  0  0  0  0  0  0
   22.5069   74.1529    1.9101 O   0  0  0  0  0  0  0  0  0  0  0  0
   21.3897   74.5125   -0.1941 C   0  0  2  0  0  0  0  0  0  0  0  0
   20.7274   73.7943   -1.3701 C   0  0  2  0  0  0  0  0  0  0  0  0
   21.6615   73.5283    0.9459 C   0  0  1  0  0  0  0  0  0  0  0  0
   21.5280   72.5561   -1.7761 C   0  0  1  0  0  0  0  0  0  0  0  0
   22.3505   72.2648    0.4387 C   0  0  1  0  0  0  0  0  0  0  0  0
   20.3292   76.1654   -0.4085 H   0  0  0  0  0  0  0  0  0  0  0  0
   20.1146   75.4533   -2.2396 H   0  0  0  0  0  0  0  0  0  0  0  0
   22.0800   74.9586    2.2408 H   0  0  0  0  0  0  0  0  0  0  0  0
   21.5182   70.1663    1.0751 O   0  0  0  0  0  0  0  0  0  0  0  0
   22.9180   71.2169    2.5366 O   0  0  0  0  0  0  0  0  0  0  0  0
   22.3144   71.1887    1.4745 C   0  0  0  0  0  0  0  0  0  0  0  0
  1  4  1  0
  1 24  1  0
  1  2  1  1
  1  3  2  0
 25 28  1  0
 25 24  1  0
 25 26  1  6
 25 27  2  0
  6 11  1  0
  6 12  1  0
 29 36  1  0
 29 37  1  0
  9  7  1  6
  7 13  1  0
 10  8  1  6
  8 14  1  0
  4  5  1  0
 36 28  1  1
 33 30  1  1
 30 38  1  0
 34 31  1  6
 31 39  1  0
 35 32  1  1
 32 40  1  0
 41 43  1  0
 15 19  2  0
 42 43  2  0
 16 22  2  0
 12 17  1  1
 17 19  1  0
 17 20  1  0
 18 19  1  0
 18 22  1  0
 18 23  1  0
  9 10  1  0
  9 11  1  0
 10 12  1  0
 11  5  1  1
 33 34  1  0
 33 35  1  0
 34 36  1  0
 35 37  1  0
 37 43  1  1
 20 21  2  0
 21 22  1  0
M  CHG  3   2  -1  26  -1  41  -1
M  END
>  <COMPND>  (76) 
    udp_gluA.pdb 

>  <AUTHOR>  (76) 
    GENERATED BY OPEN BABEL 3.1.1

>  <MASTER>  (76) 
        0    0    0    0    0    0    0    0   56    0   56    0

>  <minimizedAffinity>  (76) 
-8.41492

>  <CNNscore>  (76) 
0.6520093679

>  <CNNaffinity>  (76) 
4.4467506409

>  <CNN_VS>  (76) 
2.8993229866

>  <CNNaffinity_variance>  (76) 
0.3826717734

$$$$
77
     RDKit          3D

 43 45  0  0  0  0  0  0  0  0999 V2000
   20.1332   73.5235   -1.4955 P   0  0  2  0  0  0  0  0  0  0  0  0
   18.9306   72.4553   -1.3182 O   0  0  0  0  0  0  0  0  0  0  0  0
   19.7509   74.9541   -1.2527 O   0  0  0  0  0  0  0  0  0  0  0  0
   20.7312   73.1953   -2.9627 O   0  0  0  0  0  0  0  0  0  0  0  0
   20.2932   72.0229   -3.6246 C   0  0  0  0  0  0  0  0  0  0  0  0
   20.6954   70.7320   -5.6119 O   0  0  0  0  0  0  0  0  0  0  0  0
   23.1081   72.4641   -6.0246 O   0  0  0  0  0  0  0  0  0  0  0  0
   21.2952   73.5467   -7.7502 O   0  0  0  0  0  0  0  0  0  0  0  0
   21.8278   72.8093   -5.4952 C   0  0  1  0  0  0  0  0  0  0  0  0
   20.8025   72.8795   -6.6070 C   0  0  2  0  0  0  0  0  0  0  0  0
   21.3259   71.6300   -4.6731 C   0  0  1  0  0  0  0  0  0  0  0  0
   20.5163   71.4101   -6.8655 C   0  0  2  0  0  0  0  0  0  0  0  0
   23.4492   73.2025   -6.5539 H   0  0  0  0  0  0  0  0  0  0  0  0
   21.4614   74.4782   -7.5343 H   0  0  0  0  0  0  0  0  0  0  0  0
   19.8620   70.0241   -9.2377 O   0  0  0  0  0  0  0  0  0  0  0  0
   15.3424   70.6110   -8.5505 O   0  0  0  0  0  0  0  0  0  0  0  0
   19.1767   71.1862   -7.3303 N   0  0  0  0  0  0  0  0  0  0  0  0
   17.6117   70.3186   -8.8937 N   0  0  0  0  0  0  0  0  0  0  0  0
   18.9567   70.4780   -8.5353 C   0  0  0  0  0  0  0  0  0  0  0  0
   18.0986   71.6639   -6.5952 C   0  0  0  0  0  0  0  0  0  0  0  0
   16.8220   71.5042   -6.9495 C   0  0  0  0  0  0  0  0  0  0  0  0
   16.5057   70.7761   -8.1958 C   0  0  0  0  0  0  0  0  0  0  0  0
   17.4336   69.8305   -9.7300 H   0  0  0  0  0  0  0  0  0  0  0  0
   21.2741   72.9536   -0.5023 O   0  0  0  0  0  0  0  0  0  0  0  0
   21.1791   72.3846    1.0080 P   0  0  2  0  0  0  0  0  0  0  0  0
   21.0029   70.7900    0.7921 O   0  0  0  0  0  0  0  0  0  0  0  0
   20.1011   73.0191    1.8383 O   0  0  0  0  0  0  0  0  0  0  0  0
   22.6690   72.5528    1.6032 O   0  0  0  0  0  0  0  0  0  0  0  0
   24.4427   73.8316    0.6935 O   0  0  0  0  0  0  0  0  0  0  0  0
   26.4930   70.8647    2.7088 O   0  0  0  0  0  0  0  0  0  0  0  0
   24.1110   70.2189    1.1457 O   0  0  0  0  0  0  0  0  0  0  0  0
   26.3352   73.5448    3.8237 O   0  0  0  0  0  0  0  0  0  0  0  0
   25.4196   71.7749    2.4694 C   0  0  2  0  0  0  0  0  0  0  0  0
   24.7846   71.4718    1.1121 C   0  0  2  0  0  0  0  0  0  0  0  0
   25.9910   73.1945    2.4846 C   0  0  1  0  0  0  0  0  0  0  0  0
   23.7878   72.5628    0.7185 C   0  0  1  0  0  0  0  0  0  0  0  0
   24.9783   74.2083    1.9601 C   0  0  1  0  0  0  0  0  0  0  0  0
   26.1536   69.9558    2.7037 H   0  0  0  0  0  0  0  0  0  0  0  0
   24.7375   69.5220    1.3950 H   0  0  0  0  0  0  0  0  0  0  0  0
   26.9792   72.9071    4.1694 H   0  0  0  0  0  0  0  0  0  0  0  0
   25.3777   75.9128    0.3991 O   0  0  0  0  0  0  0  0  0  0  0  0
   26.3207   76.1494    2.4616 O   0  0  0  0  0  0  0  0  0  0  0  0
   25.6391   75.5164    1.6693 C   0  0  0  0  0  0  0  0  0  0  0  0
  1  4  1  0
  1 24  1  0
  1  2  1  1
  1  3  2  0
 25 28  1  0
 25 24  1  0
 25 26  1  6
 25 27  2  0
  6 11  1  0
  6 12  1  0
 29 36  1  0
 29 37  1  0
  9  7  1  6
  7 13  1  0
 10  8  1  6
  8 14  1  0
  4  5  1  0
 36 28  1  1
 33 30  1  6
 30 38  1  0
 34 31  1  1
 31 39  1  0
 35 32  1  1
 32 40  1  0
 41 43  1  0
 15 19  2  0
 42 43  2  0
 16 22  2  0
 12 17  1  1
 17 19  1  0
 17 20  1  0
 18 19  1  0
 18 22  1  0
 18 23  1  0
  9 10  1  0
  9 11  1  0
 10 12  1  0
 11  5  1  1
 33 34  1  0
 33 35  1  0
 34 36  1  0
 35 37  1  0
 37 43  1  6
 20 21  2  0
 21 22  1  0
M  CHG  3   2  -1  26  -1  41  -1
M  END
>  <COMPND>  (77) 
    udp_gluA.pdb 

>  <AUTHOR>  (77) 
    GENERATED BY OPEN BABEL 3.1.1

>  <MASTER>  (77) 
        0    0    0    0    0    0    0    0   56    0   56    0

>  <minimizedAffinity>  (77) 
-6.77304

>  <CNNscore>  (77) 
0.6364352107

>  <CNNaffinity>  (77) 
4.3399252892

>  <CNN_VS>  (77) 
2.7620813847

>  <CNNaffinity_variance>  (77) 
0.1873947680

$$$$
78
     RDKit          3D

 43 45  0  0  0  0  0  0  0  0999 V2000
   23.0903   73.3960   -4.5619 P   0  0  2  0  0  0  0  0  0  0  0  0
   24.2521   72.3519   -4.1390 O   0  0  0  0  0  0  0  0  0  0  0  0
   23.5793   74.7483   -4.9909 O   0  0  0  0  0  0  0  0  0  0  0  0
   22.0778   73.3828   -3.2999 O   0  0  0  0  0  0  0  0  0  0  0  0
   22.6190   73.2312   -2.0005 C   0  0  0  0  0  0  0  0  0  0  0  0
   23.3830   71.3422   -0.7254 O   0  0  0  0  0  0  0  0  0  0  0  0
   20.4952   70.5705   -0.4878 O   0  0  0  0  0  0  0  0  0  0  0  0
   21.0057   71.7204    1.9316 O   0  0  0  0  0  0  0  0  0  0  0  0
   21.0856   71.8705   -0.4940 C   0  0  1  0  0  0  0  0  0  0  0  0
   21.7783   72.1379    0.8255 C   0  0  2  0  0  0  0  0  0  0  0  0
   22.2546   71.8508   -1.4693 C   0  0  1  0  0  0  0  0  0  0  0  0
   23.0625   71.3403    0.6748 C   0  0  2  0  0  0  0  0  0  0  0  0
   19.7456   70.5584    0.1284 H   0  0  0  0  0  0  0  0  0  0  0  0
   20.1996   72.2583    1.9843 H   0  0  0  0  0  0  0  0  0  0  0  0
   24.9250   69.8590    2.1957 O   0  0  0  0  0  0  0  0  0  0  0  0
   27.2146   73.6627    3.4341 O   0  0  0  0  0  0  0  0  0  0  0  0
   24.1552   71.9182    1.4047 N   0  0  0  0  0  0  0  0  0  0  0  0
   26.0630   71.7550    2.8119 N   0  0  0  0  0  0  0  0  0  0  0  0
   25.0337   71.0853    2.1373 C   0  0  0  0  0  0  0  0  0  0  0  0
   24.3492   73.2941    1.3891 C   0  0  0  0  0  0  0  0  0  0  0  0
   25.3350   73.9180    2.0370 C   0  0  0  0  0  0  0  0  0  0  0  0
   26.2962   73.1206    2.8268 C   0  0  0  0  0  0  0  0  0  0  0  0
   26.6861   71.1963    3.3305 H   0  0  0  0  0  0  0  0  0  0  0  0
   22.2695   72.5863   -5.6948 O   0  0  0  0  0  0  0  0  0  0  0  0
   21.1725   73.0863   -6.7719 P   0  0  2  0  0  0  0  0  0  0  0  0
   21.6876   72.4273   -8.1577 O   0  0  0  0  0  0  0  0  0  0  0  0
   20.9952   74.5763   -6.8239 O   0  0  0  0  0  0  0  0  0  0  0  0
   19.8335   72.2654   -6.4036 O   0  0  0  0  0  0  0  0  0  0  0  0
   19.5216   70.1351   -5.4167 O   0  0  0  0  0  0  0  0  0  0  0  0
   16.3496   70.3106   -8.0578 O   0  0  0  0  0  0  0  0  0  0  0  0
   18.9957   71.2567   -8.8564 O   0  0  0  0  0  0  0  0  0  0  0  0
   15.9011   70.6935   -5.2112 O   0  0  0  0  0  0  0  0  0  0  0  0
   17.3217   70.8329   -7.1522 C   0  0  2  0  0  0  0  0  0  0  0  0
   18.7252   70.5183   -7.6706 C   0  0  2  0  0  0  0  0  0  0  0  0
   17.0985   70.1759   -5.7882 C   0  0  1  0  0  0  0  0  0  0  0  0
   19.7847   70.8564   -6.6208 C   0  0  1  0  0  0  0  0  0  0  0  0
   18.2589   70.4569   -4.8379 C   0  0  1  0  0  0  0  0  0  0  0  0
   16.4720   70.7138   -8.9317 H   0  0  0  0  0  0  0  0  0  0  0  0
   18.3270   71.0472   -9.5268 H   0  0  0  0  0  0  0  0  0  0  0  0
   15.1548   70.5213   -5.8063 H   0  0  0  0  0  0  0  0  0  0  0  0
   17.4040   68.4873   -3.8938 O   0  0  0  0  0  0  0  0  0  0  0  0
   18.7809   69.7535   -2.5898 O   0  0  0  0  0  0  0  0  0  0  0  0
   18.1976   69.5586   -3.6456 C   0  0  0  0  0  0  0  0  0  0  0  0
  1  4  1  0
  1 24  1  0
  1  2  1  1
  1  3  2  0
 25 28  1  0
 25 24  1  0
 25 26  1  6
 25 27  2  0
  6 11  1  0
  6 12  1  0
 29 36  1  0
 29 37  1  0
  9  7  1  1
  7 13  1  0
 10  8  1  1
  8 14  1  0
  4  5  1  0
 36 28  1  1
 33 30  1  6
 30 38  1  0
 34 31  1  6
 31 39  1  0
 35 32  1  1
 32 40  1  0
 41 43  1  0
 15 19  2  0
 42 43  2  0
 16 22  2  0
 12 17  1  1
 17 19  1  0
 17 20  1  0
 18 19  1  0
 18 22  1  0
 18 23  1  0
  9 10  1  0
  9 11  1  0
 10 12  1  0
 11  5  1  1
 33 34  1  0
 33 35  1  0
 34 36  1  0
 35 37  1  0
 37 43  1  1
 20 21  2  0
 21 22  1  0
M  CHG  3   2  -1  26  -1  41  -1
M  END
>  <COMPND>  (78) 
    udp_gluA.pdb 

>  <AUTHOR>  (78) 
    GENERATED BY OPEN BABEL 3.1.1

>  <MASTER>  (78) 
        0    0    0    0    0    0    0    0   56    0   56    0

>  <minimizedAffinity>  (78) 
-7.91578

>  <CNNscore>  (78) 
0.6354012489

>  <CNNaffinity>  (78) 
4.5062532425

>  <CNN_VS>  (78) 
2.8632788658

>  <CNNaffinity_variance>  (78) 
0.0501506701

$$$$
79
     RDKit          3D

 43 45  0  0  0  0  0  0  0  0999 V2000
   23.6020   72.3018   -3.6183 P   0  0  2  0  0  0  0  0  0  0  0  0
   24.6987   73.4877   -3.7166 O   0  0  0  0  0  0  0  0  0  0  0  0
   24.1157   71.0088   -3.0562 O   0  0  0  0  0  0  0  0  0  0  0  0
   22.9813   72.2220   -5.1103 O   0  0  0  0  0  0  0  0  0  0  0  0
   21.5732   72.2004   -5.2566 C   0  0  0  0  0  0  0  0  0  0  0  0
   20.4173   70.3203   -6.2088 O   0  0  0  0  0  0  0  0  0  0  0  0
   20.5532   71.7945   -8.8165 O   0  0  0  0  0  0  0  0  0  0  0  0
   17.9936   72.2620   -8.0004 O   0  0  0  0  0  0  0  0  0  0  0  0
   20.3719   72.3079   -7.4966 C   0  0  1  0  0  0  0  0  0  0  0  0
   18.9686   72.0159   -7.0088 C   0  0  2  0  0  0  0  0  0  0  0  0
   21.2195   71.4724   -6.5470 C   0  0  1  0  0  0  0  0  0  0  0  0
   19.0642   70.5466   -6.6345 C   0  0  2  0  0  0  0  0  0  0  0  0
   20.0211   72.3125   -9.4412 H   0  0  0  0  0  0  0  0  0  0  0  0
   17.9713   73.2107   -8.2035 H   0  0  0  0  0  0  0  0  0  0  0  0
   16.3834   69.7342   -6.9947 O   0  0  0  0  0  0  0  0  0  0  0  0
   15.7385   69.2194   -2.4601 O   0  0  0  0  0  0  0  0  0  0  0  0
   18.1732   70.1945   -5.5654 N   0  0  0  0  0  0  0  0  0  0  0  0
   16.0644   69.4795   -4.7358 N   0  0  0  0  0  0  0  0  0  0  0  0
   16.8454   69.7999   -5.8541 C   0  0  0  0  0  0  0  0  0  0  0  0
   18.6169   70.2401   -4.2493 C   0  0  0  0  0  0  0  0  0  0  0  0
   17.8608   69.9318   -3.1939 C   0  0  0  0  0  0  0  0  0  0  0  0
   16.4609   69.5104   -3.4086 C   0  0  0  0  0  0  0  0  0  0  0  0
   15.1358   69.2039   -4.9116 H   0  0  0  0  0  0  0  0  0  0  0  0
   22.4092   72.9806   -2.7643 O   0  0  0  0  0  0  0  0  0  0  0  0
   21.2269   72.3199   -1.8815 P   0  0  2  0  0  0  0  0  0  0  0  0
   21.4346   70.7315   -2.1147 O   0  0  0  0  0  0  0  0  0  0  0  0
   19.8524   72.8201   -2.2202 O   0  0  0  0  0  0  0  0  0  0  0  0
   21.6713   72.5682   -0.3508 O   0  0  0  0  0  0  0  0  0  0  0  0
   22.9431   74.2375    0.7472 O   0  0  0  0  0  0  0  0  0  0  0  0
   24.1775   70.8159    2.7060 O   0  0  0  0  0  0  0  0  0  0  0  0
   23.8265   70.8170   -0.1943 O   0  0  0  0  0  0  0  0  0  0  0  0
   22.3303   72.6511    3.9984 O   0  0  0  0  0  0  0  0  0  0  0  0
   23.2607   71.6598    2.0093 C   0  0  2  0  0  0  0  0  0  0  0  0
   23.8155   71.9826    0.6217 C   0  0  2  0  0  0  0  0  0  0  0  0
   23.0861   72.9431    2.8245 C   0  0  1  0  0  0  0  0  0  0  0  0
   22.9782   73.0630   -0.0645 C   0  0  1  0  0  0  0  0  0  0  0  0
   22.3512   74.0152    2.0252 C   0  0  1  0  0  0  0  0  0  0  0  0
   24.3042   69.9939    2.2064 H   0  0  0  0  0  0  0  0  0  0  0  0
   24.3558   70.1272    0.2352 H   0  0  0  0  0  0  0  0  0  0  0  0
   22.7871   71.9699    4.5161 H   0  0  0  0  0  0  0  0  0  0  0  0
   21.9039   76.3156    1.9272 O   0  0  0  0  0  0  0  0  0  0  0  0
   23.0096   75.5484    3.7679 O   0  0  0  0  0  0  0  0  0  0  0  0
   22.4737   75.3485    2.6882 C   0  0  0  0  0  0  0  0  0  0  0  0
  1  4  1  0
  1 24  1  0
  1  2  1  6
  1  3  2  0
 25 28  1  0
 25 24  1  0
 25 26  1  6
 25 27  2  0
  6 11  1  0
  6 12  1  0
 29 36  1  0
 29 37  1  0
  9  7  1  6
  7 13  1  0
 10  8  1  6
  8 14  1  0
  4  5  1  0
 36 28  1  1
 33 30  1  1
 30 38  1  0
 34 31  1  6
 31 39  1  0
 35 32  1  1
 32 40  1  0
 41 43  1  0
 15 19  2  0
 42 43  2  0
 16 22  2  0
 12 17  1  1
 17 19  1  0
 17 20  1  0
 18 19  1  0
 18 22  1  0
 18 23  1  0
  9 10  1  0
  9 11  1  0
 10 12  1  0
 11  5  1  1
 33 34  1  0
 33 35  1  0
 34 36  1  0
 35 37  1  0
 37 43  1  1
 20 21  2  0
 21 22  1  0
M  CHG  3   2  -1  26  -1  41  -1
M  END
>  <COMPND>  (79) 
    udp_gluA.pdb 

>  <AUTHOR>  (79) 
    GENERATED BY OPEN BABEL 3.1.1

>  <MASTER>  (79) 
        0    0    0    0    0    0    0    0   56    0   56    0

>  <minimizedAffinity>  (79) 
-7.34177

>  <CNNscore>  (79) 
0.6203537583

>  <CNNaffinity>  (79) 
4.3025636673

>  <CNN_VS>  (79) 
2.6691114902

>  <CNNaffinity_variance>  (79) 
0.2385791987

$$$$
80
     RDKit          3D

 43 45  0  0  0  0  0  0  0  0999 V2000
   19.8913   75.9407   -4.3186 P   0  0  2  0  0  0  0  0  0  0  0  0
   18.7827   77.0656   -4.6714 O   0  0  0  0  0  0  0  0  0  0  0  0
   21.3121   76.3481   -4.5780 O   0  0  0  0  0  0  0  0  0  0  0  0
   19.3802   74.6282   -5.1148 O   0  0  0  0  0  0  0  0  0  0  0  0
   20.0043   74.2958   -6.3414 C   0  0  0  0  0  0  0  0  0  0  0  0
   20.8076   72.4250   -5.0637 O   0  0  0  0  0  0  0  0  0  0  0  0
   23.0101   72.2257   -7.0888 O   0  0  0  0  0  0  0  0  0  0  0  0
   21.2966   70.2559   -7.8761 O   0  0  0  0  0  0  0  0  0  0  0  0
   21.6412   72.5866   -7.2750 C   0  0  1  0  0  0  0  0  0  0  0  0
   20.7583   71.3603   -7.1797 C   0  0  2  0  0  0  0  0  0  0  0  0
   21.1988   73.3928   -6.0615 C   0  0  1  0  0  0  0  0  0  0  0  0
   20.6968   71.1318   -5.6790 C   0  0  2  0  0  0  0  0  0  0  0  0
   23.3154   71.7096   -7.8517 H   0  0  0  0  0  0  0  0  0  0  0  0
   21.3143   70.4506   -8.8268 H   0  0  0  0  0  0  0  0  0  0  0  0
   20.3403   69.7350   -3.2504 O   0  0  0  0  0  0  0  0  0  0  0  0
   15.9212   68.8371   -4.2042 O   0  0  0  0  0  0  0  0  0  0  0  0
   19.4635   70.5231   -5.2675 N   0  0  0  0  0  0  0  0  0  0  0  0
   18.1399   69.2883   -3.7282 N   0  0  0  0  0  0  0  0  0  0  0  0
   19.3904   69.8445   -4.0281 C   0  0  0  0  0  0  0  0  0  0  0  0
   18.3436   70.6028   -6.0863 C   0  0  0  0  0  0  0  0  0  0  0  0
   17.1584   70.0677   -5.7869 C   0  0  0  0  0  0  0  0  0  0  0  0
   16.9976   69.3408   -4.5105 C   0  0  0  0  0  0  0  0  0  0  0  0
   18.0651   68.8090   -2.8714 H   0  0  0  0  0  0  0  0  0  0  0  0
   19.5650   75.5805   -2.7769 O   0  0  0  0  0  0  0  0  0  0  0  0
   20.4118   75.8392   -1.4243 P   0  0  2  0  0  0  0  0  0  0  0  0
   19.2762   75.8360   -0.2707 O   0  0  0  0  0  0  0  0  0  0  0  0
   21.2583   77.0787   -1.4553 O   0  0  0  0  0  0  0  0  0  0  0  0
   21.2350   74.4720   -1.1890 O   0  0  0  0  0  0  0  0  0  0  0  0
   21.7807   72.7049   -2.6684 O   0  0  0  0  0  0  0  0  0  0  0  0
   21.2581   70.6849    0.8973 O   0  0  0  0  0  0  0  0  0  0  0  0
   19.4214   72.8203    0.1221 O   0  0  0  0  0  0  0  0  0  0  0  0
   23.9352   71.1640   -0.1295 O   0  0  0  0  0  0  0  0  0  0  0  0
   21.6162   71.7879    0.0648 C   0  0  2  0  0  0  0  0  0  0  0  0
   20.3960   72.2408   -0.7375 C   0  0  2  0  0  0  0  0  0  0  0  0
   22.7313   71.3274   -0.8767 C   0  0  1  0  0  0  0  0  0  0  0  0
   20.7911   73.2637   -1.8036 C   0  0  1  0  0  0  0  0  0  0  0  0
   22.9798   72.3455   -1.9858 C   0  0  1  0  0  0  0  0  0  0  0  0
   20.5507   70.9540    1.5043 H   0  0  0  0  0  0  0  0  0  0  0  0
   19.1663   72.1768    0.8012 H   0  0  0  0  0  0  0  0  0  0  0  0
   23.7905   70.5185    0.5798 H   0  0  0  0  0  0  0  0  0  0  0  0
   24.0177   72.6524   -4.0668 O   0  0  0  0  0  0  0  0  0  0  0  0
   24.2704   70.6181   -3.0683 O   0  0  0  0  0  0  0  0  0  0  0  0
   23.8191   71.7536   -3.0709 C   0  0  0  0  0  0  0  0  0  0  0  0
  1  4  1  0
  1 24  1  0
  1  2  1  6
  1  3  2  0
 25 28  1  0
 25 24  1  0
 25 26  1  1
 25 27  2  0
  6 11  1  0
  6 12  1  0
 29 36  1  0
 29 37  1  0
  9  7  1  1
  7 13  1  0
 10  8  1  6
  8 14  1  0
  4  5  1  0
 36 28  1  1
 33 30  1  1
 30 38  1  0
 34 31  1  1
 31 39  1  0
 35 32  1  1
 32 40  1  0
 41 43  1  0
 15 19  2  0
 42 43  2  0
 16 22  2  0
 12 17  1  6
 17 19  1  0
 17 20  1  0
 18 19  1  0
 18 22  1  0
 18 23  1  0
  9 10  1  0
  9 11  1  0
 10 12  1  0
 11  5  1  6
 33 34  1  0
 33 35  1  0
 34 36  1  0
 35 37  1  0
 37 43  1  6
 20 21  2  0
 21 22  1  0
M  CHG  3   2  -1  26  -1  41  -1
M  END
>  <COMPND>  (80) 
    udp_gluA.pdb 

>  <AUTHOR>  (80) 
    GENERATED BY OPEN BABEL 3.1.1

>  <MASTER>  (80) 
        0    0    0    0    0    0    0    0   56    0   56    0

>  <minimizedAffinity>  (80) 
-6.62366

>  <CNNscore>  (80) 
0.5953986049

>  <CNNaffinity>  (80) 
4.2299795151

>  <CNN_VS>  (80) 
2.5185239315

>  <CNNaffinity_variance>  (80) 
0.7266622782

$$$$
81
     RDKit          3D

 43 45  0  0  0  0  0  0  0  0999 V2000
   22.9912   71.5115   -2.5904 P   0  0  2  0  0  0  0  0  0  0  0  0
   22.5773   72.8145   -3.4562 O   0  0  0  0  0  0  0  0  0  0  0  0
   24.2330   70.8096   -3.0563 O   0  0  0  0  0  0  0  0  0  0  0  0
   21.6440   70.6156   -2.5686 O   0  0  0  0  0  0  0  0  0  0  0  0
   20.8898   70.4996   -3.7612 C   0  0  0  0  0  0  0  0  0  0  0  0
   18.9648   71.6037   -4.6847 O   0  0  0  0  0  0  0  0  0  0  0  0
   17.4015   70.3321   -2.4641 O   0  0  0  0  0  0  0  0  0  0  0  0
   16.8259   68.7278   -4.5927 O   0  0  0  0  0  0  0  0  0  0  0  0
   18.5043   69.8111   -3.2065 C   0  0  1  0  0  0  0  0  0  0  0  0
   18.0591   69.4160   -4.5986 C   0  0  2  0  0  0  0  0  0  0  0  0
   19.4626   70.9592   -3.4922 C   0  0  1  0  0  0  0  0  0  0  0  0
   17.9739   70.7627   -5.2965 C   0  0  2  0  0  0  0  0  0  0  0  0
   16.7754   69.6167   -2.2696 H   0  0  0  0  0  0  0  0  0  0  0  0
   16.9325   67.8772   -4.1376 H   0  0  0  0  0  0  0  0  0  0  0  0
   16.0278   70.1877   -7.2608 O   0  0  0  0  0  0  0  0  0  0  0  0
   19.1274   70.4281  -10.6635 O   0  0  0  0  0  0  0  0  0  0  0  0
   18.2449   70.6691   -6.7031 N   0  0  0  0  0  0  0  0  0  0  0  0
   17.5736   70.3070   -8.9536 N   0  0  0  0  0  0  0  0  0  0  0  0
   17.1960   70.3750   -7.6061 C   0  0  0  0  0  0  0  0  0  0  0  0
   19.5364   70.8690   -7.1754 C   0  0  0  0  0  0  0  0  0  0  0  0
   19.8810   70.8009   -8.4628 C   0  0  0  0  0  0  0  0  0  0  0  0
   18.8446   70.4975   -9.4713 C   0  0  0  0  0  0  0  0  0  0  0  0
   16.8608   70.1015   -9.6009 H   0  0  0  0  0  0  0  0  0  0  0  0
   23.0689   72.0876   -1.0822 O   0  0  0  0  0  0  0  0  0  0  0  0
   22.2091   73.2378   -0.3397 P   0  0  2  0  0  0  0  0  0  0  0  0
   22.6753   73.1090    1.2051 O   0  0  0  0  0  0  0  0  0  0  0  0
   20.7264   73.1303   -0.5492 O   0  0  0  0  0  0  0  0  0  0  0  0
   22.8579   74.6252   -0.8464 O   0  0  0  0  0  0  0  0  0  0  0  0
   24.9095   74.8492   -2.0083 O   0  0  0  0  0  0  0  0  0  0  0  0
   24.5651   78.5432   -0.1905 O   0  0  0  0  0  0  0  0  0  0  0  0
   23.8899   76.1051    1.2704 O   0  0  0  0  0  0  0  0  0  0  0  0
   24.0261   78.2597   -3.0330 O   0  0  0  0  0  0  0  0  0  0  0  0
   24.0933   77.3443   -0.8054 C   0  0  2  0  0  0  0  0  0  0  0  0
   24.5517   76.1357    0.0111 C   0  0  2  0  0  0  0  0  0  0  0  0
   24.6707   77.2801   -2.2212 C   0  0  1  0  0  0  0  0  0  0  0  0
   24.2649   74.8314   -0.7341 C   0  0  1  0  0  0  0  0  0  0  0  0
   24.4539   75.9065   -2.8495 C   0  0  1  0  0  0  0  0  0  0  0  0
   24.2110   78.6056    0.7106 H   0  0  0  0  0  0  0  0  0  0  0  0
   24.0673   76.9298    1.7486 H   0  0  0  0  0  0  0  0  0  0  0  0
   24.1564   79.1387   -2.6440 H   0  0  0  0  0  0  0  0  0  0  0  0
   25.8438   74.5070   -4.1187 O   0  0  0  0  0  0  0  0  0  0  0  0
   25.4628   76.6048   -4.9269 O   0  0  0  0  0  0  0  0  0  0  0  0
   25.2930   75.7454   -4.0751 C   0  0  0  0  0  0  0  0  0  0  0  0
  1  4  1  0
  1 24  1  0
  1  2  1  6
  1  3  2  0
 25 28  1  0
 25 24  1  0
 25 26  1  1
 25 27  2  0
  6 11  1  0
  6 12  1  0
 29 36  1  0
 29 37  1  0
  9  7  1  1
  7 13  1  0
 10  8  1  1
  8 14  1  0
  4  5  1  0
 36 28  1  6
 33 30  1  1
 30 38  1  0
 34 31  1  1
 31 39  1  0
 35 32  1  6
 32 40  1  0
 41 43  1  0
 15 19  2  0
 42 43  2  0
 16 22  2  0
 12 17  1  6
 17 19  1  0
 17 20  1  0
 18 19  1  0
 18 22  1  0
 18 23  1  0
  9 10  1  0
  9 11  1  0
 10 12  1  0
 11  5  1  6
 33 34  1  0
 33 35  1  0
 34 36  1  0
 35 37  1  0
 37 43  1  6
 20 21  2  0
 21 22  1  0
M  CHG  3   2  -1  26  -1  41  -1
M  END
>  <COMPND>  (81) 
    udp_gluA.pdb 

>  <AUTHOR>  (81) 
    GENERATED BY OPEN BABEL 3.1.1

>  <MASTER>  (81) 
        0    0    0    0    0    0    0    0   56    0   56    0

>  <minimizedAffinity>  (81) 
-6.58463

>  <CNNscore>  (81) 
0.9181466103

>  <CNNaffinity>  (81) 
4.8016700745

>  <CNN_VS>  (81) 
4.4086370468

>  <CNNaffinity_variance>  (81) 
0.1688704789

$$$$
82
     RDKit          3D

 43 45  0  0  0  0  0  0  0  0999 V2000
   20.6008   71.2543   -1.5019 P   0  0  2  0  0  0  0  0  0  0  0  0
   21.2836   70.5297   -0.2261 O   0  0  0  0  0  0  0  0  0  0  0  0
   20.1003   72.6458   -1.2474 O   0  0  0  0  0  0  0  0  0  0  0  0
   19.4913   70.1897   -2.0056 O   0  0  0  0  0  0  0  0  0  0  0  0
   19.1390   70.1780   -3.3768 C   0  0  0  0  0  0  0  0  0  0  0  0
   17.5383   71.3363   -4.7457 O   0  0  0  0  0  0  0  0  0  0  0  0
   15.4322   69.8404   -3.2233 O   0  0  0  0  0  0  0  0  0  0  0  0
   15.5943   68.4344   -5.5542 O   0  0  0  0  0  0  0  0  0  0  0  0
   16.7285   69.4068   -3.6358 C   0  0  1  0  0  0  0  0  0  0  0  0
   16.7416   69.1376   -5.1256 C   0  0  2  0  0  0  0  0  0  0  0  0
   17.6793   70.5901   -3.5175 C   0  0  1  0  0  0  0  0  0  0  0  0
   16.8148   70.5424   -5.6994 C   0  0  2  0  0  0  0  0  0  0  0  0
   14.8071   69.1011   -3.2903 H   0  0  0  0  0  0  0  0  0  0  0  0
   15.5941   67.5465   -5.1622 H   0  0  0  0  0  0  0  0  0  0  0  0
   15.5375   70.4454   -8.2165 O   0  0  0  0  0  0  0  0  0  0  0  0
   19.5509   70.7118  -10.4672 O   0  0  0  0  0  0  0  0  0  0  0  0
   17.5018   70.5847   -6.9592 N   0  0  0  0  0  0  0  0  0  0  0  0
   17.5377   70.5771   -9.3351 N   0  0  0  0  0  0  0  0  0  0  0  0
   16.7661   70.5296   -8.1666 C   0  0  0  0  0  0  0  0  0  0  0  0
   18.8877   70.6814   -6.9905 C   0  0  0  0  0  0  0  0  0  0  0  0
   19.6092   70.7259   -8.1122 C   0  0  0  0  0  0  0  0  0  0  0  0
   18.9175   70.6725   -9.4168 C   0  0  0  0  0  0  0  0  0  0  0  0
   17.0478   70.5382  -10.1882 H   0  0  0  0  0  0  0  0  0  0  0  0
   21.7475   71.1481   -2.6362 O   0  0  0  0  0  0  0  0  0  0  0  0
   23.1286   71.9660   -2.8291 P   0  0  2  0  0  0  0  0  0  0  0  0
   24.2155   70.7977   -3.1012 O   0  0  0  0  0  0  0  0  0  0  0  0
   23.4712   72.8748   -1.6842 O   0  0  0  0  0  0  0  0  0  0  0  0
   22.9677   72.7115   -4.2507 O   0  0  0  0  0  0  0  0  0  0  0  0
   20.6915   73.3340   -4.4525 O   0  0  0  0  0  0  0  0  0  0  0  0
   22.2818   74.8105   -7.9681 O   0  0  0  0  0  0  0  0  0  0  0  0
   23.0681   72.1768   -6.9783 O   0  0  0  0  0  0  0  0  0  0  0  0
   21.6450   76.6180   -5.7822 O   0  0  0  0  0  0  0  0  0  0  0  0
   22.2878   74.4408   -6.5892 C   0  0  2  0  0  0  0  0  0  0  0  0
   21.9903   72.9468   -6.4586 C   0  0  2  0  0  0  0  0  0  0  0  0
   21.2122   75.2621   -5.8747 C   0  0  1  0  0  0  0  0  0  0  0  0
   21.7614   72.5603   -4.9968 C   0  0  1  0  0  0  0  0  0  0  0  0
   20.9532   74.7355   -4.4661 C   0  0  1  0  0  0  0  0  0  0  0  0
   22.9576   74.3011   -8.4425 H   0  0  0  0  0  0  0  0  0  0  0  0
   23.2190   72.4171   -7.9056 H   0  0  0  0  0  0  0  0  0  0  0  0
   21.8135   76.9651   -6.6721 H   0  0  0  0  0  0  0  0  0  0  0  0
   18.6873   74.4123   -3.9535 O   0  0  0  0  0  0  0  0  0  0  0  0
   19.5851   76.4494   -3.4600 O   0  0  0  0  0  0  0  0  0  0  0  0
   19.6964   75.3169   -3.9052 C   0  0  0  0  0  0  0  0  0  0  0  0
  1  4  1  0
  1 24  1  0
  1  2  1  1
  1  3  2  0
 25 28  1  0
 25 24  1  0
 25 26  1  6
 25 27  2  0
  6 11  1  0
  6 12  1  0
 29 36  1  0
 29 37  1  0
  9  7  1  6
  7 13  1  0
 10  8  1  6
  8 14  1  0
  4  5  1  0
 36 28  1  1
 33 30  1  6
 30 38  1  0
 34 31  1  1
 31 39  1  0
 35 32  1  1
 32 40  1  0
 41 43  1  0
 15 19  2  0
 42 43  2  0
 16 22  2  0
 12 17  1  6
 17 19  1  0
 17 20  1  0
 18 19  1  0
 18 22  1  0
 18 23  1  0
  9 10  1  0
  9 11  1  0
 10 12  1  0
 11  5  1  6
 33 34  1  0
 33 35  1  0
 34 36  1  0
 35 37  1  0
 37 43  1  6
 20 21  2  0
 21 22  1  0
M  CHG  3   2  -1  26  -1  41  -1
M  END
>  <COMPND>  (82) 
    udp_gluA.pdb 

>  <AUTHOR>  (82) 
    GENERATED BY OPEN BABEL 3.1.1

>  <MASTER>  (82) 
        0    0    0    0    0    0    0    0   56    0   56    0

>  <minimizedAffinity>  (82) 
-7.96297

>  <CNNscore>  (82) 
0.9169023633

>  <CNNaffinity>  (82) 
4.7088174820

>  <CNN_VS>  (82) 
4.3175258636

>  <CNNaffinity_variance>  (82) 
0.7635661364

$$$$
83
     RDKit          3D

 43 45  0  0  0  0  0  0  0  0999 V2000
   21.8460   71.6720   -2.1206 P   0  0  2  0  0  0  0  0  0  0  0  0
   20.9003   72.7084   -1.3141 O   0  0  0  0  0  0  0  0  0  0  0  0
   22.5688   72.2583   -3.2977 O   0  0  0  0  0  0  0  0  0  0  0  0
   20.8670   70.4258   -2.4468 O   0  0  0  0  0  0  0  0  0  0  0  0
   20.2462   70.3683   -3.7179 C   0  0  0  0  0  0  0  0  0  0  0  0
   18.5115   71.5957   -4.8414 O   0  0  0  0  0  0  0  0  0  0  0  0
   16.6334   70.4360   -2.8118 O   0  0  0  0  0  0  0  0  0  0  0  0
   16.1895   68.8685   -4.9986 O   0  0  0  0  0  0  0  0  0  0  0  0
   17.7739   69.8411   -3.4314 C   0  0  1  0  0  0  0  0  0  0  0  0
   17.4588   69.4733   -4.8659 C   0  0  2  0  0  0  0  0  0  0  0  0
   18.8318   70.9224   -3.6047 C   0  0  1  0  0  0  0  0  0  0  0  0
   17.5401   70.8210   -5.5622 C   0  0  2  0  0  0  0  0  0  0  0  0
   15.9436   69.7643   -2.6907 H   0  0  0  0  0  0  0  0  0  0  0  0
   16.1890   68.0138   -4.5388 H   0  0  0  0  0  0  0  0  0  0  0  0
   15.7973   70.2942   -7.7213 O   0  0  0  0  0  0  0  0  0  0  0  0
   19.2501   70.4020  -10.7726 O   0  0  0  0  0  0  0  0  0  0  0  0
   17.9570   70.7063   -6.9311 N   0  0  0  0  0  0  0  0  0  0  0  0
   17.5188   70.3474   -9.2388 N   0  0  0  0  0  0  0  0  0  0  0  0
   17.0014   70.4396   -7.9400 C   0  0  0  0  0  0  0  0  0  0  0  0
   19.2977   70.8590   -7.2630 C   0  0  0  0  0  0  0  0  0  0  0  0
   19.7758   70.7685   -8.5056 C   0  0  0  0  0  0  0  0  0  0  0  0
   18.8436   70.4910   -9.6180 C   0  0  0  0  0  0  0  0  0  0  0  0
   16.8729   70.1602   -9.9579 H   0  0  0  0  0  0  0  0  0  0  0  0
   22.8094   71.0840   -0.9635 O   0  0  0  0  0  0  0  0  0  0  0  0
   22.6139   70.9996    0.6391 P   0  0  2  0  0  0  0  0  0  0  0  0
   23.9555   70.2422    1.1360 O   0  0  0  0  0  0  0  0  0  0  0  0
   21.3359   70.3399    1.0696 O   0  0  0  0  0  0  0  0  0  0  0  0
   22.7896   72.5185    1.1535 O   0  0  0  0  0  0  0  0  0  0  0  0
   24.2989   73.8525   -0.0922 O   0  0  0  0  0  0  0  0  0  0  0  0
   23.6279   76.2187    3.2274 O   0  0  0  0  0  0  0  0  0  0  0  0
   24.0089   73.3366    3.5157 O   0  0  0  0  0  0  0  0  0  0  0  0
   22.3688   76.8733    0.6902 O   0  0  0  0  0  0  0  0  0  0  0  0
   23.2977   75.2613    2.2211 C   0  0  2  0  0  0  0  0  0  0  0  0
   24.2483   74.0678    2.3187 C   0  0  2  0  0  0  0  0  0  0  0  0
   23.4360   75.9418    0.8574 C   0  0  1  0  0  0  0  0  0  0  0  0
   24.0767   73.1325    1.1210 C   0  0  1  0  0  0  0  0  0  0  0  0
   23.3798   74.9263   -0.2802 C   0  0  1  0  0  0  0  0  0  0  0  0
   23.5472   75.8086    4.1029 H   0  0  0  0  0  0  0  0  0  0  0  0
   24.1158   73.9241    4.2798 H   0  0  0  0  0  0  0  0  0  0  0  0
   22.3932   77.5252    1.4081 H   0  0  0  0  0  0  0  0  0  0  0  0
   22.8323   76.2352   -2.1479 O   0  0  0  0  0  0  0  0  0  0  0  0
   24.9648   75.4375   -2.0259 O   0  0  0  0  0  0  0  0  0  0  0  0
   23.8389   75.5403   -1.5625 C   0  0  0  0  0  0  0  0  0  0  0  0
  1  4  1  0
  1 24  1  0
  1  2  1  1
  1  3  2  0
 25 28  1  0
 25 24  1  0
 25 26  1  1
 25 27  2  0
  6 11  1  0
  6 12  1  0
 29 36  1  0
 29 37  1  0
  9  7  1  6
  7 13  1  0
 10  8  1  1
  8 14  1  0
  4  5  1  0
 36 28  1  6
 33 30  1  1
 30 38  1  0
 34 31  1  1
 31 39  1  0
 35 32  1  6
 32 40  1  0
 41 43  1  0
 15 19  2  0
 42 43  2  0
 16 22  2  0
 12 17  1  6
 17 19  1  0
 17 20  1  0
 18 19  1  0
 18 22  1  0
 18 23  1  0
  9 10  1  0
  9 11  1  0
 10 12  1  0
 11  5  1  6
 33 34  1  0
 33 35  1  0
 34 36  1  0
 35 37  1  0
 37 43  1  6
 20 21  2  0
 21 22  1  0
M  CHG  3   2  -1  26  -1  41  -1
M  END
>  <COMPND>  (83) 
    udp_gluA.pdb 

>  <AUTHOR>  (83) 
    GENERATED BY OPEN BABEL 3.1.1

>  <MASTER>  (83) 
        0    0    0    0    0    0    0    0   56    0   56    0

>  <minimizedAffinity>  (83) 
-7.15051

>  <CNNscore>  (83) 
0.9140530825

>  <CNNaffinity>  (83) 
4.8064246178

>  <CNN_VS>  (83) 
4.3933272362

>  <CNNaffinity_variance>  (83) 
0.1978131980

$$$$
84
     RDKit          3D

 43 45  0  0  0  0  0  0  0  0999 V2000
   22.9695   72.6095   -4.2104 P   0  0  2  0  0  0  0  0  0  0  0  0
   22.5523   72.1247   -5.6969 O   0  0  0  0  0  0  0  0  0  0  0  0
   24.4403   72.8231   -4.0031 O   0  0  0  0  0  0  0  0  0  0  0  0
   22.2736   71.5205   -3.2369 O   0  0  0  0  0  0  0  0  0  0  0  0
   21.3318   70.6211   -3.7926 C   0  0  0  0  0  0  0  0  0  0  0  0
   19.3174   71.6793   -4.5672 O   0  0  0  0  0  0  0  0  0  0  0  0
   17.9763   70.4502   -2.1834 O   0  0  0  0  0  0  0  0  0  0  0  0
   17.2335   68.7838   -4.2100 O   0  0  0  0  0  0  0  0  0  0  0  0
   19.0149   69.9217   -3.0083 C   0  0  1  0  0  0  0  0  0  0  0  0
   18.4521   69.4850   -4.3443 C   0  0  2  0  0  0  0  0  0  0  0  0
   19.9285   71.0722   -3.4082 C   0  0  1  0  0  0  0  0  0  0  0  0
   18.2869   70.8117   -5.0658 C   0  0  2  0  0  0  0  0  0  0  0  0
   17.3796   69.7335   -1.9152 H   0  0  0  0  0  0  0  0  0  0  0  0
   17.3917   67.9468   -3.7449 H   0  0  0  0  0  0  0  0  0  0  0  0
   16.2397   69.9414   -6.8059 O   0  0  0  0  0  0  0  0  0  0  0  0
   18.9563   70.3587  -10.5058 O   0  0  0  0  0  0  0  0  0  0  0  0
   18.4321   70.6837   -6.4882 N   0  0  0  0  0  0  0  0  0  0  0  0
   17.5950   70.1491   -8.6469 N   0  0  0  0  0  0  0  0  0  0  0  0
   17.3416   70.2375   -7.2717 C   0  0  0  0  0  0  0  0  0  0  0  0
   19.6425   70.9997   -7.0931 C   0  0  0  0  0  0  0  0  0  0  0  0
   19.8689   70.9105   -8.4052 C   0  0  0  0  0  0  0  0  0  0  0  0
   18.7818   70.4516   -9.2945 C   0  0  0  0  0  0  0  0  0  0  0  0
   16.8514   69.8388   -9.2126 H   0  0  0  0  0  0  0  0  0  0  0  0
   22.0601   73.9276   -3.9900 O   0  0  0  0  0  0  0  0  0  0  0  0
   22.2369   75.1837   -2.9877 P   0  0  2  0  0  0  0  0  0  0  0  0
   20.7886   75.9048   -3.0394 O   0  0  0  0  0  0  0  0  0  0  0  0
   23.3889   76.0847   -3.3269 O   0  0  0  0  0  0  0  0  0  0  0  0
   22.3120   74.5260   -1.5165 O   0  0  0  0  0  0  0  0  0  0  0  0
   21.1769   72.6984   -0.5262 O   0  0  0  0  0  0  0  0  0  0  0  0
   21.5026   75.3109    2.6577 O   0  0  0  0  0  0  0  0  0  0  0  0
   20.7947   76.2962    0.0001 O   0  0  0  0  0  0  0  0  0  0  0  0
   23.2346   72.9816    2.4984 O   0  0  0  0  0  0  0  0  0  0  0  0
   21.9032   74.6868    1.4379 C   0  0  2  0  0  0  0  0  0  0  0  0
   20.8366   74.9223    0.3681 C   0  0  2  0  0  0  0  0  0  0  0  0
   22.0676   73.1889    1.7048 C   0  0  1  0  0  0  0  0  0  0  0  0
   21.1165   74.0812   -0.8781 C   0  0  1  0  0  0  0  0  0  0  0  0
   22.2163   72.4043    0.4045 C   0  0  1  0  0  0  0  0  0  0  0  0
   21.3919   76.2638    2.5124 H   0  0  0  0  0  0  0  0  0  0  0  0
   20.6177   76.8358    0.7862 H   0  0  0  0  0  0  0  0  0  0  0  0
   23.1528   73.4758    3.3290 H   0  0  0  0  0  0  0  0  0  0  0  0
   20.8531   70.5108    0.1638 O   0  0  0  0  0  0  0  0  0  0  0  0
   22.8638   70.2201    1.1990 O   0  0  0  0  0  0  0  0  0  0  0  0
   22.0457   70.9398    0.6462 C   0  0  0  0  0  0  0  0  0  0  0  0
  1  4  1  0
  1 24  1  0
  1  2  1  6
  1  3  2  0
 25 28  1  0
 25 24  1  0
 25 26  1  1
 25 27  2  0
  6 11  1  0
  6 12  1  0
 29 36  1  0
 29 37  1  0
  9  7  1  1
  7 13  1  0
 10  8  1  1
  8 14  1  0
  4  5  1  0
 36 28  1  1
 33 30  1  1
 30 38  1  0
 34 31  1  6
 31 39  1  0
 35 32  1  1
 32 40  1  0
 41 43  1  0
 15 19  2  0
 42 43  2  0
 16 22  2  0
 12 17  1  6
 17 19  1  0
 17 20  1  0
 18 19  1  0
 18 22  1  0
 18 23  1  0
  9 10  1  0
  9 11  1  0
 10 12  1  0
 11  5  1  6
 33 34  1  0
 33 35  1  0
 34 36  1  0
 35 37  1  0
 37 43  1  1
 20 21  2  0
 21 22  1  0
M  CHG  3   2  -1  26  -1  41  -1
M  END
>  <COMPND>  (84) 
    udp_gluA.pdb 

>  <AUTHOR>  (84) 
    GENERATED BY OPEN BABEL 3.1.1

>  <MASTER>  (84) 
        0    0    0    0    0    0    0    0   56    0   56    0

>  <minimizedAffinity>  (84) 
-7.07411

>  <CNNscore>  (84) 
0.9039234519

>  <CNNaffinity>  (84) 
4.6644845009

>  <CNN_VS>  (84) 
4.2163367271

>  <CNNaffinity_variance>  (84) 
0.0410140939

$$$$
85
     RDKit          3D

 43 45  0  0  0  0  0  0  0  0999 V2000
   22.8143   71.3346   -2.3408 P   0  0  2  0  0  0  0  0  0  0  0  0
   22.3125   72.8055   -2.7921 O   0  0  0  0  0  0  0  0  0  0  0  0
   24.0806   70.8682   -2.9970 O   0  0  0  0  0  0  0  0  0  0  0  0
   21.5172   70.3946   -2.5691 O   0  0  0  0  0  0  0  0  0  0  0  0
   20.8299   70.4791   -3.8040 C   0  0  0  0  0  0  0  0  0  0  0  0
   18.9359   71.6169   -4.7504 O   0  0  0  0  0  0  0  0  0  0  0  0
   17.3293   70.3956   -2.5326 O   0  0  0  0  0  0  0  0  0  0  0  0
   16.7356   68.7878   -4.6536 O   0  0  0  0  0  0  0  0  0  0  0  0
   18.4262   69.8456   -3.2626 C   0  0  1  0  0  0  0  0  0  0  0  0
   17.9832   69.4496   -4.6551 C   0  0  2  0  0  0  0  0  0  0  0  0
   19.4109   70.9709   -3.5494 C   0  0  1  0  0  0  0  0  0  0  0  0
   17.9319   70.7926   -5.3635 C   0  0  2  0  0  0  0  0  0  0  0  0
   16.6866   69.6951   -2.3376 H   0  0  0  0  0  0  0  0  0  0  0  0
   16.8206   67.9386   -4.1915 H   0  0  0  0  0  0  0  0  0  0  0  0
   15.9938   70.2155   -7.3351 O   0  0  0  0  0  0  0  0  0  0  0  0
   19.1180   70.3946  -10.7191 O   0  0  0  0  0  0  0  0  0  0  0  0
   18.2114   70.6826   -6.7673 N   0  0  0  0  0  0  0  0  0  0  0  0
   17.5519   70.3042   -9.0186 N   0  0  0  0  0  0  0  0  0  0  0  0
   17.1659   70.3890   -7.6744 C   0  0  0  0  0  0  0  0  0  0  0  0
   19.5078   70.8663   -7.2329 C   0  0  0  0  0  0  0  0  0  0  0  0
   19.8603   70.7825   -8.5172 C   0  0  0  0  0  0  0  0  0  0  0  0
   18.8279   70.4783   -9.5296 C   0  0  0  0  0  0  0  0  0  0  0  0
   16.8415   70.0988   -9.6686 H   0  0  0  0  0  0  0  0  0  0  0  0
   22.8955   71.4569   -0.7311 O   0  0  0  0  0  0  0  0  0  0  0  0
   21.7322   71.5964    0.3829 P   0  0  2  0  0  0  0  0  0  0  0  0
   21.6144   70.0980    0.9841 O   0  0  0  0  0  0  0  0  0  0  0  0
   20.4414   72.1556   -0.1414 O   0  0  0  0  0  0  0  0  0  0  0  0
   22.4030   72.4595    1.5693 O   0  0  0  0  0  0  0  0  0  0  0  0
   24.2274   71.5347    2.7632 O   0  0  0  0  0  0  0  0  0  0  0  0
   23.0730   74.6234    5.2522 O   0  0  0  0  0  0  0  0  0  0  0  0
   21.0695   72.9320    3.9640 O   0  0  0  0  0  0  0  0  0  0  0  0
   25.4542   74.8884    3.6057 O   0  0  0  0  0  0  0  0  0  0  0  0
   23.2671   73.9591    4.0036 C   0  0  2  0  0  0  0  0  0  0  0  0
   22.4655   72.6573    3.9865 C   0  0  2  0  0  0  0  0  0  0  0  0
   24.7614   73.6660    3.8512 C   0  0  1  0  0  0  0  0  0  0  0  0
   22.8258   71.8089    2.7662 C   0  0  1  0  0  0  0  0  0  0  0  0
   25.0265   72.7132    2.6890 C   0  0  1  0  0  0  0  0  0  0  0  0
   22.1304   74.8198    5.3710 H   0  0  0  0  0  0  0  0  0  0  0  0
   20.8339   73.4703    4.7354 H   0  0  0  0  0  0  0  0  0  0  0  0
   25.2936   75.5038    4.3381 H   0  0  0  0  0  0  0  0  0  0  0  0
   26.4477   70.8727    2.3827 O   0  0  0  0  0  0  0  0  0  0  0  0
   27.4050   72.8213    3.0797 O   0  0  0  0  0  0  0  0  0  0  0  0
   26.4201   72.1780    2.7492 C   0  0  0  0  0  0  0  0  0  0  0  0
  1  4  1  0
  1 24  1  0
  1  2  1  6
  1  3  2  0
 25 28  1  0
 25 24  1  0
 25 26  1  1
 25 27  2  0
  6 11  1  0
  6 12  1  0
 29 36  1  0
 29 37  1  0
  9  7  1  1
  7 13  1  0
 10  8  1  1
  8 14  1  0
  4  5  1  0
 36 28  1  6
 33 30  1  1
 30 38  1  0
 34 31  1  6
 31 39  1  0
 35 32  1  6
 32 40  1  0
 41 43  1  0
 15 19  2  0
 42 43  2  0
 16 22  2  0
 12 17  1  6
 17 19  1  0
 17 20  1  0
 18 19  1  0
 18 22  1  0
 18 23  1  0
  9 10  1  0
  9 11  1  0
 10 12  1  0
 11  5  1  6
 33 34  1  0
 33 35  1  0
 34 36  1  0
 35 37  1  0
 37 43  1  1
 20 21  2  0
 21 22  1  0
M  CHG  3   2  -1  26  -1  41  -1
M  END
>  <COMPND>  (85) 
    udp_gluA.pdb 

>  <AUTHOR>  (85) 
    GENERATED BY OPEN BABEL 3.1.1

>  <MASTER>  (85) 
        0    0    0    0    0    0    0    0   56    0   56    0

>  <minimizedAffinity>  (85) 
-8.33857

>  <CNNscore>  (85) 
0.8983002901

>  <CNNaffinity>  (85) 
4.7501177788

>  <CNN_VS>  (85) 
4.2670321465

>  <CNNaffinity_variance>  (85) 
0.0855609998

$$$$
86
     RDKit          3D

 43 45  0  0  0  0  0  0  0  0999 V2000
   22.9594   71.4916   -2.9540 P   0  0  2  0  0  0  0  0  0  0  0  0
   22.5916   72.2482   -4.3364 O   0  0  0  0  0  0  0  0  0  0  0  0
   24.2591   70.7417   -2.9685 O   0  0  0  0  0  0  0  0  0  0  0  0
   21.6423   70.6086   -2.6321 O   0  0  0  0  0  0  0  0  0  0  0  0
   20.7976   70.2381   -3.7062 C   0  0  0  0  0  0  0  0  0  0  0  0
   18.9451   71.4744   -4.6103 O   0  0  0  0  0  0  0  0  0  0  0  0
   17.2890   70.2094   -2.4542 O   0  0  0  0  0  0  0  0  0  0  0  0
   16.6574   68.7141   -4.6454 O   0  0  0  0  0  0  0  0  0  0  0  0
   18.3723   69.6574   -3.2027 C   0  0  1  0  0  0  0  0  0  0  0  0
   17.9250   69.3359   -4.6130 C   0  0  2  0  0  0  0  0  0  0  0  0
   19.3931   70.7626   -3.4365 C   0  0  1  0  0  0  0  0  0  0  0  0
   17.9194   70.7091   -5.2628 C   0  0  2  0  0  0  0  0  0  0  0  0
   16.6238   69.5217   -2.2925 H   0  0  0  0  0  0  0  0  0  0  0  0
   16.7134   67.8434   -4.2201 H   0  0  0  0  0  0  0  0  0  0  0  0
   15.9770   70.2675   -7.2649 O   0  0  0  0  0  0  0  0  0  0  0  0
   19.1223   70.5063  -10.6256 O   0  0  0  0  0  0  0  0  0  0  0  0
   18.2032   70.6511   -6.6689 N   0  0  0  0  0  0  0  0  0  0  0  0
   17.5455   70.3858   -8.9367 N   0  0  0  0  0  0  0  0  0  0  0  0
   17.1550   70.4240   -7.5917 C   0  0  0  0  0  0  0  0  0  0  0  0
   19.5063   70.8198   -7.1209 C   0  0  0  0  0  0  0  0  0  0  0  0
   19.8631   70.7810   -8.4062 C   0  0  0  0  0  0  0  0  0  0  0  0
   18.8283   70.5474   -9.4347 C   0  0  0  0  0  0  0  0  0  0  0  0
   16.8334   70.2269   -9.5978 H   0  0  0  0  0  0  0  0  0  0  0  0
   22.8785   72.6775   -1.8586 O   0  0  0  0  0  0  0  0  0  0  0  0
   21.6243   73.2747   -1.0315 P   0  0  2  0  0  0  0  0  0  0  0  0
   22.2063   74.6580   -0.4248 O   0  0  0  0  0  0  0  0  0  0  0  0
   21.0619   72.3366   -0.0031 O   0  0  0  0  0  0  0  0  0  0  0  0
   20.5712   73.7374   -2.1626 O   0  0  0  0  0  0  0  0  0  0  0  0
   21.0867   75.3136   -3.8535 O   0  0  0  0  0  0  0  0  0  0  0  0
   16.9633   75.5360   -3.7257 O   0  0  0  0  0  0  0  0  0  0  0  0
   18.5149   75.3761   -1.2556 O   0  0  0  0  0  0  0  0  0  0  0  0
   18.2819   74.1264   -5.8994 O   0  0  0  0  0  0  0  0  0  0  0  0
   18.2381   74.9024   -3.6189 C   0  0  2  0  0  0  0  0  0  0  0  0
   19.0703   75.6046   -2.5456 C   0  0  2  0  0  0  0  0  0  0  0  0
   18.9312   75.0021   -4.9797 C   0  0  1  0  0  0  0  0  0  0  0  0
   20.5159   75.1060   -2.5610 C   0  0  1  0  0  0  0  0  0  0  0  0
   20.4022   74.6073   -4.8858 C   0  0  1  0  0  0  0  0  0  0  0  0
   16.5042   75.4851   -2.8725 H   0  0  0  0  0  0  0  0  0  0  0  0
   17.5975   75.6899   -1.2388 H   0  0  0  0  0  0  0  0  0  0  0  0
   17.3447   74.3668   -5.9682 H   0  0  0  0  0  0  0  0  0  0  0  0
   20.9445   74.1168   -7.1145 O   0  0  0  0  0  0  0  0  0  0  0  0
   21.8272   76.0214   -6.2242 O   0  0  0  0  0  0  0  0  0  0  0  0
   21.1408   75.0161   -6.1186 C   0  0  0  0  0  0  0  0  0  0  0  0
  1  4  1  0
  1 24  1  0
  1  2  1  6
  1  3  2  0
 25 28  1  0
 25 24  1  0
 25 26  1  1
 25 27  2  0
  6 11  1  0
  6 12  1  0
 29 36  1  0
 29 37  1  0
  9  7  1  1
  7 13  1  0
 10  8  1  1
  8 14  1  0
  4  5  1  0
 36 28  1  6
 33 30  1  6
 30 38  1  0
 34 31  1  1
 31 39  1  0
 35 32  1  6
 32 40  1  0
 41 43  1  0
 15 19  2  0
 42 43  2  0
 16 22  2  0
 12 17  1  6
 17 19  1  0
 17 20  1  0
 18 19  1  0
 18 22  1  0
 18 23  1  0
  9 10  1  0
  9 11  1  0
 10 12  1  0
 11  5  1  6
 33 34  1  0
 33 35  1  0
 34 36  1  0
 35 37  1  0
 37 43  1  6
 20 21  2  0
 21 22  1  0
M  CHG  3   2  -1  26  -1  41  -1
M  END
>  <COMPND>  (86) 
    udp_gluA.pdb 

>  <AUTHOR>  (86) 
    GENERATED BY OPEN BABEL 3.1.1

>  <MASTER>  (86) 
        0    0    0    0    0    0    0    0   56    0   56    0

>  <minimizedAffinity>  (86) 
-6.21487

>  <CNNscore>  (86) 
0.8850940466

>  <CNNaffinity>  (86) 
4.5615777969

>  <CNN_VS>  (86) 
4.0374255180

>  <CNNaffinity_variance>  (86) 
0.1670145690

$$$$
87
     RDKit          3D

 43 45  0  0  0  0  0  0  0  0999 V2000
   21.5596   72.5147   -4.7531 P   0  0  2  0  0  0  0  0  0  0  0  0
   20.9840   74.0271   -4.7637 O   0  0  0  0  0  0  0  0  0  0  0  0
   22.6685   72.2520   -5.7294 O   0  0  0  0  0  0  0  0  0  0  0  0
   20.2395   71.5952   -4.9252 O   0  0  0  0  0  0  0  0  0  0  0  0
   19.6262   71.0683   -3.7630 C   0  0  0  0  0  0  0  0  0  0  0  0
   17.8134   71.8231   -5.1493 O   0  0  0  0  0  0  0  0  0  0  0  0
   15.9926   70.5052   -3.1645 O   0  0  0  0  0  0  0  0  0  0  0  0
   16.0724   68.6894   -5.1973 O   0  0  0  0  0  0  0  0  0  0  0  0
   17.2808   70.0928   -3.6218 C   0  0  1  0  0  0  0  0  0  0  0  0
   17.1858   69.5417   -5.0287 C   0  0  2  0  0  0  0  0  0  0  0  0
   18.1288   71.3409   -3.8251 C   0  0  1  0  0  0  0  0  0  0  0  0
   17.0820   70.8103   -5.8581 C   0  0  2  0  0  0  0  0  0  0  0  0
   15.4327   69.7247   -3.0274 H   0  0  0  0  0  0  0  0  0  0  0  0
   16.1863   67.8965   -4.6492 H   0  0  0  0  0  0  0  0  0  0  0  0
   15.5746   70.7023   -8.2439 O   0  0  0  0  0  0  0  0  0  0  0  0
   19.3597   70.2169  -10.8287 O   0  0  0  0  0  0  0  0  0  0  0  0
   17.6481   70.6562   -7.1683 N   0  0  0  0  0  0  0  0  0  0  0  0
   17.4612   70.4596   -9.5289 N   0  0  0  0  0  0  0  0  0  0  0  0
   16.8024   70.6135   -8.3020 C   0  0  0  0  0  0  0  0  0  0  0  0
   19.0252   70.5510   -7.3209 C   0  0  0  0  0  0  0  0  0  0  0  0
   19.6385   70.4049   -8.4970 C   0  0  0  0  0  0  0  0  0  0  0  0
   18.8275   70.3501   -9.7309 C   0  0  0  0  0  0  0  0  0  0  0  0
   16.8932   70.4251  -10.3324 H   0  0  0  0  0  0  0  0  0  0  0  0
   21.9597   72.2895   -3.2032 O   0  0  0  0  0  0  0  0  0  0  0  0
   23.4016   72.1100   -2.4944 P   0  0  2  0  0  0  0  0  0  0  0  0
   24.1562   73.5014   -2.8335 O   0  0  0  0  0  0  0  0  0  0  0  0
   24.1495   70.8807   -2.9226 O   0  0  0  0  0  0  0  0  0  0  0  0
   23.0930   72.1891   -0.9130 O   0  0  0  0  0  0  0  0  0  0  0  0
   24.3553   70.9675    0.6755 O   0  0  0  0  0  0  0  0  0  0  0  0
   20.8920   71.7604    2.7839 O   0  0  0  0  0  0  0  0  0  0  0  0
   20.7662   70.9535   -0.0210 O   0  0  0  0  0  0  0  0  0  0  0  0
   23.3193   73.2570    3.3490 O   0  0  0  0  0  0  0  0  0  0  0  0
   21.9234   72.0127    1.8297 C   0  0  2  0  0  0  0  0  0  0  0  0
   21.9378   70.8969    0.7845 C   0  0  2  0  0  0  0  0  0  0  0  0
   23.2580   72.0591    2.5771 C   0  0  1  0  0  0  0  0  0  0  0  0
   23.1681   71.0077   -0.1171 C   0  0  1  0  0  0  0  0  0  0  0  0
   24.4387   72.0408    1.6105 C   0  0  1  0  0  0  0  0  0  0  0  0
   20.0343   71.7265    2.3318 H   0  0  0  0  0  0  0  0  0  0  0  0
   19.9817   70.8841    0.5447 H   0  0  0  0  0  0  0  0  0  0  0  0
   22.5731   73.2811    3.9682 H   0  0  0  0  0  0  0  0  0  0  0  0
   26.1460   72.8587    2.9954 O   0  0  0  0  0  0  0  0  0  0  0  0
   26.2919   70.6794    2.3409 O   0  0  0  0  0  0  0  0  0  0  0  0
   25.7135   71.7556    2.3357 C   0  0  0  0  0  0  0  0  0  0  0  0
  1  4  1  0
  1 24  1  0
  1  2  1  1
  1  3  2  0
 25 28  1  0
 25 24  1  0
 25 26  1  6
 25 27  2  0
  6 11  1  0
  6 12  1  0
 29 36  1  0
 29 37  1  0
  9  7  1  6
  7 13  1  0
 10  8  1  1
  8 14  1  0
  4  5  1  0
 36 28  1  1
 33 30  1  1
 30 38  1  0
 34 31  1  6
 31 39  1  0
 35 32  1  6
 32 40  1  0
 41 43  1  0
 15 19  2  0
 42 43  2  0
 16 22  2  0
 12 17  1  6
 17 19  1  0
 17 20  1  0
 18 19  1  0
 18 22  1  0
 18 23  1  0
  9 10  1  0
  9 11  1  0
 10 12  1  0
 11  5  1  6
 33 34  1  0
 33 35  1  0
 34 36  1  0
 35 37  1  0
 37 43  1  1
 20 21  2  0
 21 22  1  0
M  CHG  3   2  -1  26  -1  41  -1
M  END
>  <COMPND>  (87) 
    udp_gluA.pdb 

>  <AUTHOR>  (87) 
    GENERATED BY OPEN BABEL 3.1.1

>  <MASTER>  (87) 
        0    0    0    0    0    0    0    0   56    0   56    0

>  <minimizedAffinity>  (87) 
-8.61912

>  <CNNscore>  (87) 
0.8834218979

>  <CNNaffinity>  (87) 
4.7500948906

>  <CNN_VS>  (87) 
4.1963376999

>  <CNNaffinity_variance>  (87) 
0.0426406115

$$$$
88
     RDKit          3D

 43 45  0  0  0  0  0  0  0  0999 V2000
   22.8583   71.3693   -2.2492 P   0  0  2  0  0  0  0  0  0  0  0  0
   22.3967   72.8995   -2.5032 O   0  0  0  0  0  0  0  0  0  0  0  0
   24.1160   70.9609   -2.9586 O   0  0  0  0  0  0  0  0  0  0  0  0
   21.5390   70.5019   -2.6026 O   0  0  0  0  0  0  0  0  0  0  0  0
   20.8939   70.7270   -3.8427 C   0  0  0  0  0  0  0  0  0  0  0  0
   18.9399   71.7530   -4.7949 O   0  0  0  0  0  0  0  0  0  0  0  0
   17.4162   70.5261   -2.5223 O   0  0  0  0  0  0  0  0  0  0  0  0
   16.8684   68.8340   -4.5893 O   0  0  0  0  0  0  0  0  0  0  0  0
   18.5274   70.0043   -3.2513 C   0  0  1  0  0  0  0  0  0  0  0  0
   18.0853   69.5496   -4.6262 C   0  0  2  0  0  0  0  0  0  0  0  0
   19.4577   71.1631   -3.5828 C   0  0  1  0  0  0  0  0  0  0  0  0
   17.9660   70.8682   -5.3712 C   0  0  2  0  0  0  0  0  0  0  0  0
   16.8076   69.8040   -2.2992 H   0  0  0  0  0  0  0  0  0  0  0  0
   16.9966   68.0028   -4.1049 H   0  0  0  0  0  0  0  0  0  0  0  0
   16.0139   70.2337   -7.3111 O   0  0  0  0  0  0  0  0  0  0  0  0
   19.1039   70.3658  -10.7284 O   0  0  0  0  0  0  0  0  0  0  0  0
   18.2329   70.7306   -6.7750 N   0  0  0  0  0  0  0  0  0  0  0  0
   17.5549   70.2991   -9.0111 N   0  0  0  0  0  0  0  0  0  0  0  0
   17.1812   70.4094   -7.6653 C   0  0  0  0  0  0  0  0  0  0  0  0
   19.5232   70.9147   -7.2569 C   0  0  0  0  0  0  0  0  0  0  0  0
   19.8641   70.8064   -8.5425 C   0  0  0  0  0  0  0  0  0  0  0  0
   18.8245   70.4725   -9.5381 C   0  0  0  0  0  0  0  0  0  0  0  0
   16.8401   70.0741   -9.6497 H   0  0  0  0  0  0  0  0  0  0  0  0
   22.9336   71.2758   -0.6373 O   0  0  0  0  0  0  0  0  0  0  0  0
   21.7708   71.3292    0.4846 P   0  0  2  0  0  0  0  0  0  0  0  0
   21.7383   69.8151    1.0560 O   0  0  0  0  0  0  0  0  0  0  0  0
   20.4484   71.8274   -0.0225 O   0  0  0  0  0  0  0  0  0  0  0  0
   22.4001   72.2041    1.6850 O   0  0  0  0  0  0  0  0  0  0  0  0
   21.5485   73.7025    3.3094 O   0  0  0  0  0  0  0  0  0  0  0  0
   25.0286   75.6051    2.1532 O   0  0  0  0  0  0  0  0  0  0  0  0
   23.2935   74.3541    0.1635 O   0  0  0  0  0  0  0  0  0  0  0  0
   24.9081   74.2029    4.6968 O   0  0  0  0  0  0  0  0  0  0  0  0
   24.1803   74.4878    2.4177 C   0  0  2  0  0  0  0  0  0  0  0  0
   22.9408   74.5638    1.5259 C   0  0  2  0  0  0  0  0  0  0  0  0
   23.7782   74.5382    3.8934 C   0  0  1  0  0  0  0  0  0  0  0  0
   21.9047   73.5174    1.9389 C   0  0  1  0  0  0  0  0  0  0  0  0
   22.6533   73.5533    4.1983 C   0  0  1  0  0  0  0  0  0  0  0  0
   25.2969   75.5940    1.2209 H   0  0  0  0  0  0  0  0  0  0  0  0
   23.9508   75.0145   -0.1052 H   0  0  0  0  0  0  0  0  0  0  0  0
   25.6314   74.8222    4.5122 H   0  0  0  0  0  0  0  0  0  0  0  0
   22.7697   73.2458    6.5207 O   0  0  0  0  0  0  0  0  0  0  0  0
   21.0451   74.5065    5.7236 O   0  0  0  0  0  0  0  0  0  0  0  0
   22.0488   73.8357    5.5351 C   0  0  0  0  0  0  0  0  0  0  0  0
  1  4  1  0
  1 24  1  0
  1  2  1  1
  1  3  2  0
 25 28  1  0
 25 24  1  0
 25 26  1  1
 25 27  2  0
  6 11  1  0
  6 12  1  0
 29 36  1  0
 29 37  1  0
  9  7  1  1
  7 13  1  0
 10  8  1  1
  8 14  1  0
  4  5  1  0
 36 28  1  1
 33 30  1  6
 30 38  1  0
 34 31  1  6
 31 39  1  0
 35 32  1  1
 32 40  1  0
 41 43  1  0
 15 19  2  0
 42 43  2  0
 16 22  2  0
 12 17  1  6
 17 19  1  0
 17 20  1  0
 18 19  1  0
 18 22  1  0
 18 23  1  0
  9 10  1  0
  9 11  1  0
 10 12  1  0
 11  5  1  6
 33 34  1  0
 33 35  1  0
 34 36  1  0
 35 37  1  0
 37 43  1  1
 20 21  2  0
 21 22  1  0
M  CHG  3   2  -1  26  -1  41  -1
M  END
>  <COMPND>  (88) 
    udp_gluA.pdb 

>  <AUTHOR>  (88) 
    GENERATED BY OPEN BABEL 3.1.1

>  <MASTER>  (88) 
        0    0    0    0    0    0    0    0   56    0   56    0

>  <minimizedAffinity>  (88) 
-7.62223

>  <CNNscore>  (88) 
0.8635358214

>  <CNNaffinity>  (88) 
4.6698184013

>  <CNN_VS>  (88) 
4.0325555801

>  <CNNaffinity_variance>  (88) 
0.0656792372

$$$$
89
     RDKit          3D

 43 45  0  0  0  0  0  0  0  0999 V2000
   21.5226   72.1473   -2.7799 P   0  0  2  0  0  0  0  0  0  0  0  0
   21.0455   73.3942   -3.6945 O   0  0  0  0  0  0  0  0  0  0  0  0
   22.6348   71.3245   -3.3611 O   0  0  0  0  0  0  0  0  0  0  0  0
   20.1506   71.3504   -2.4631 O   0  0  0  0  0  0  0  0  0  0  0  0
   19.5471   70.6032   -3.5033 C   0  0  0  0  0  0  0  0  0  0  0  0
   17.8094   71.5851   -4.8427 O   0  0  0  0  0  0  0  0  0  0  0  0
   15.8766   70.1560   -3.0502 O   0  0  0  0  0  0  0  0  0  0  0  0
   15.9298   68.5609   -5.2613 O   0  0  0  0  0  0  0  0  0  0  0  0
   17.1568   69.7322   -3.5192 C   0  0  1  0  0  0  0  0  0  0  0  0
   17.0757   69.3364   -4.9784 C   0  0  2  0  0  0  0  0  0  0  0  0
   18.0659   70.9525   -3.5702 C   0  0  1  0  0  0  0  0  0  0  0  0
   17.0526   70.6883   -5.6710 C   0  0  2  0  0  0  0  0  0  0  0  0
   15.2781   69.3932   -3.0092 H   0  0  0  0  0  0  0  0  0  0  0  0
   15.9924   67.7105   -4.7977 H   0  0  0  0  0  0  0  0  0  0  0  0
   15.5959   70.4529   -8.0792 O   0  0  0  0  0  0  0  0  0  0  0  0
   19.4379   70.5324  -10.6241 O   0  0  0  0  0  0  0  0  0  0  0  0
   17.6470   70.6451   -6.9770 N   0  0  0  0  0  0  0  0  0  0  0  0
   17.5109   70.4917   -9.3443 N   0  0  0  0  0  0  0  0  0  0  0  0
   16.8255   70.5251   -8.1228 C   0  0  0  0  0  0  0  0  0  0  0  0
   19.0276   70.7229   -7.1136 C   0  0  0  0  0  0  0  0  0  0  0  0
   19.6665   70.6899   -8.2847 C   0  0  0  0  0  0  0  0  0  0  0  0
   18.8818   70.5652   -9.5305 C   0  0  0  0  0  0  0  0  0  0  0  0
   16.9603   70.4065  -10.1561 H   0  0  0  0  0  0  0  0  0  0  0  0
   21.8712   72.8473   -1.3653 O   0  0  0  0  0  0  0  0  0  0  0  0
   22.2644   72.2084    0.0668 P   0  0  2  0  0  0  0  0  0  0  0  0
   23.6876   72.9023    0.4032 O   0  0  0  0  0  0  0  0  0  0  0  0
   22.2884   70.7074    0.0857 O   0  0  0  0  0  0  0  0  0  0  0  0
   21.2298   72.8746    1.1101 O   0  0  0  0  0  0  0  0  0  0  0  0
   21.2081   75.2056    1.5283 O   0  0  0  0  0  0  0  0  0  0  0  0
   19.2909   73.7326    4.8783 O   0  0  0  0  0  0  0  0  0  0  0  0
   21.6569   72.3886    3.8152 O   0  0  0  0  0  0  0  0  0  0  0  0
   17.7591   75.0127    2.7650 O   0  0  0  0  0  0  0  0  0  0  0  0
   19.6788   73.7587    3.5047 C   0  0  2  0  0  0  0  0  0  0  0  0
   21.2017   73.6717    3.4013 C   0  0  2  0  0  0  0  0  0  0  0  0
   19.1782   75.0708    2.8967 C   0  0  1  0  0  0  0  0  0  0  0  0
   21.6682   73.9270    1.9674 C   0  0  1  0  0  0  0  0  0  0  0  0
   19.7864   75.3140    1.5185 C   0  0  1  0  0  0  0  0  0  0  0  0
   19.5984   72.9075    5.2857 H   0  0  0  0  0  0  0  0  0  0  0  0
   21.3642   72.2199    4.7242 H   0  0  0  0  0  0  0  0  0  0  0  0
   17.3596   74.8581    3.6352 H   0  0  0  0  0  0  0  0  0  0  0  0
   20.3064   77.0106   -0.0153 O   0  0  0  0  0  0  0  0  0  0  0  0
   18.8075   77.5166    1.6267 O   0  0  0  0  0  0  0  0  0  0  0  0
   19.5605   76.7244    1.0804 C   0  0  0  0  0  0  0  0  0  0  0  0
  1  4  1  0
  1 24  1  0
  1  2  1  6
  1  3  2  0
 25 28  1  0
 25 24  1  0
 25 26  1  1
 25 27  2  0
  6 11  1  0
  6 12  1  0
 29 36  1  0
 29 37  1  0
  9  7  1  6
  7 13  1  0
 10  8  1  1
  8 14  1  0
  4  5  1  0
 36 28  1  6
 33 30  1  1
 30 38  1  0
 34 31  1  6
 31 39  1  0
 35 32  1  6
 32 40  1  0
 41 43  1  0
 15 19  2  0
 42 43  2  0
 16 22  2  0
 12 17  1  6
 17 19  1  0
 17 20  1  0
 18 19  1  0
 18 22  1  0
 18 23  1  0
  9 10  1  0
  9 11  1  0
 10 12  1  0
 11  5  1  6
 33 34  1  0
 33 35  1  0
 34 36  1  0
 35 37  1  0
 37 43  1  1
 20 21  2  0
 21 22  1  0
M  CHG  3   2  -1  26  -1  41  -1
M  END
>  <COMPND>  (89) 
    udp_gluA.pdb 

>  <AUTHOR>  (89) 
    GENERATED BY OPEN BABEL 3.1.1

>  <MASTER>  (89) 
        0    0    0    0    0    0    0    0   56    0   56    0

>  <minimizedAffinity>  (89) 
-6.52335

>  <CNNscore>  (89) 
0.8512512445

>  <CNNaffinity>  (89) 
4.6243143082

>  <CNN_VS>  (89) 
3.9364533424

>  <CNNaffinity_variance>  (89) 
0.0584660172

$$$$
90
     RDKit          3D

 43 45  0  0  0  0  0  0  0  0999 V2000
   20.4742   71.7714   -1.4941 P   0  0  2  0  0  0  0  0  0  0  0  0
   20.5095   70.5670   -0.4138 O   0  0  0  0  0  0  0  0  0  0  0  0
   19.8061   73.0286   -1.0198 O   0  0  0  0  0  0  0  0  0  0  0  0
   19.8333   71.0904   -2.8145 O   0  0  0  0  0  0  0  0  0  0  0  0
   19.3475   71.9341   -3.8424 C   0  0  0  0  0  0  0  0  0  0  0  0
   17.4372   72.0254   -5.2985 O   0  0  0  0  0  0  0  0  0  0  0  0
   15.9803   70.4855   -3.1777 O   0  0  0  0  0  0  0  0  0  0  0  0
   16.5955   68.5531   -5.0007 O   0  0  0  0  0  0  0  0  0  0  0  0
   17.3436   70.3870   -3.5903 C   0  0  1  0  0  0  0  0  0  0  0  0
   17.4368   69.6852   -4.9286 C   0  0  2  0  0  0  0  0  0  0  0  0
   17.8339   71.7878   -3.9304 C   0  0  1  0  0  0  0  0  0  0  0  0
   17.0213   70.7847   -5.8910 C   0  0  2  0  0  0  0  0  0  0  0  0
   15.6449   69.6026   -2.9551 H   0  0  0  0  0  0  0  0  0  0  0  0
   16.9016   67.8821   -4.3697 H   0  0  0  0  0  0  0  0  0  0  0  0
   15.6157   70.6853   -8.3386 O   0  0  0  0  0  0  0  0  0  0  0  0
   19.5102   70.2672  -10.7680 O   0  0  0  0  0  0  0  0  0  0  0  0
   17.6430   70.6503   -7.1779 N   0  0  0  0  0  0  0  0  0  0  0  0
   17.5567   70.4762   -9.5462 N   0  0  0  0  0  0  0  0  0  0  0  0
   16.8458   70.6103   -8.3462 C   0  0  0  0  0  0  0  0  0  0  0  0
   19.0264   70.5614   -7.2740 C   0  0  0  0  0  0  0  0  0  0  0  0
   19.6897   70.4340   -8.4249 C   0  0  0  0  0  0  0  0  0  0  0  0
   18.9313   70.3834   -9.6920 C   0  0  0  0  0  0  0  0  0  0  0  0
   17.0230   70.4439  -10.3729 H   0  0  0  0  0  0  0  0  0  0  0  0
   22.0306   71.9457   -1.8942 O   0  0  0  0  0  0  0  0  0  0  0  0
   22.9591   73.2653   -1.9954 P   0  0  2  0  0  0  0  0  0  0  0  0
   21.8820   74.4725   -2.0474 O   0  0  0  0  0  0  0  0  0  0  0  0
   23.9272   73.2505   -3.1429 O   0  0  0  0  0  0  0  0  0  0  0  0
   23.6461   73.3948   -0.5416 O   0  0  0  0  0  0  0  0  0  0  0  0
   23.6751   71.8324    1.2380 O   0  0  0  0  0  0  0  0  0  0  0  0
   23.7984   75.4260    3.2724 O   0  0  0  0  0  0  0  0  0  0  0  0
   22.0367   75.0894    0.9665 O   0  0  0  0  0  0  0  0  0  0  0  0
   26.2024   73.8118    3.0148 O   0  0  0  0  0  0  0  0  0  0  0  0
   24.0563   74.5319    2.1898 C   0  0  2  0  0  0  0  0  0  0  0  0
   22.7318   74.0301    1.6140 C   0  0  2  0  0  0  0  0  0  0  0  0
   24.8797   73.3604    2.7298 C   0  0  1  0  0  0  0  0  0  0  0  0
   22.9648   72.9003    0.6099 C   0  0  1  0  0  0  0  0  0  0  0  0
   24.9605   72.2223    1.7165 C   0  0  1  0  0  0  0  0  0  0  0  0
   23.2761   76.1786    2.9530 H   0  0  0  0  0  0  0  0  0  0  0  0
   21.8857   75.8099    1.5977 H   0  0  0  0  0  0  0  0  0  0  0  0
   26.1651   74.5364    3.6585 H   0  0  0  0  0  0  0  0  0  0  0  0
   26.8265   70.9860    2.4171 O   0  0  0  0  0  0  0  0  0  0  0  0
   24.7725   70.0654    2.7813 O   0  0  0  0  0  0  0  0  0  0  0  0
   25.4717   70.9745    2.3599 C   0  0  0  0  0  0  0  0  0  0  0  0
  1  4  1  0
  1 24  1  0
  1  2  1  1
  1  3  2  0
 25 28  1  0
 25 24  1  0
 25 26  1  6
 25 27  2  0
  6 11  1  0
  6 12  1  0
 29 36  1  0
 29 37  1  0
  9  7  1  6
  7 13  1  0
 10  8  1  1
  8 14  1  0
  4  5  1  0
 36 28  1  6
 33 30  1  1
 30 38  1  0
 34 31  1  6
 31 39  1  0
 35 32  1  6
 32 40  1  0
 41 43  1  0
 15 19  2  0
 42 43  2  0
 16 22  2  0
 12 17  1  6
 17 19  1  0
 17 20  1  0
 18 19  1  0
 18 22  1  0
 18 23  1  0
  9 10  1  0
  9 11  1  0
 10 12  1  0
 11  5  1  6
 33 34  1  0
 33 35  1  0
 34 36  1  0
 35 37  1  0
 37 43  1  1
 20 21  2  0
 21 22  1  0
M  CHG  3   2  -1  26  -1  41  -1
M  END
>  <COMPND>  (90) 
    udp_gluA.pdb 

>  <AUTHOR>  (90) 
    GENERATED BY OPEN BABEL 3.1.1

>  <MASTER>  (90) 
        0    0    0    0    0    0    0    0   56    0   56    0

>  <minimizedAffinity>  (90) 
-7.37100

>  <CNNscore>  (90) 
0.8477095366

>  <CNNaffinity>  (90) 
4.6135778427

>  <CNN_VS>  (90) 
3.9109740257

>  <CNNaffinity_variance>  (90) 
0.1084275395

$$$$
91
     RDKit          3D

 43 45  0  0  0  0  0  0  0  0999 V2000
   22.7354   72.8394   -4.3880 P   0  0  2  0  0  0  0  0  0  0  0  0
   23.0542   73.7809   -5.6651 O   0  0  0  0  0  0  0  0  0  0  0  0
   23.8686   71.9573   -3.9527 O   0  0  0  0  0  0  0  0  0  0  0  0
   21.3691   72.0766   -4.7990 O   0  0  0  0  0  0  0  0  0  0  0  0
   20.8385   71.1127   -3.9080 C   0  0  0  0  0  0  0  0  0  0  0  0
   18.7983   71.9086   -4.8988 O   0  0  0  0  0  0  0  0  0  0  0  0
   17.3919   70.6324   -2.5783 O   0  0  0  0  0  0  0  0  0  0  0  0
   17.0148   68.8152   -4.5762 O   0  0  0  0  0  0  0  0  0  0  0  0
   18.5501   70.1908   -3.2868 C   0  0  1  0  0  0  0  0  0  0  0  0
   18.1578   69.6420   -4.6422 C   0  0  2  0  0  0  0  0  0  0  0  0
   19.3664   71.4193   -3.6646 C   0  0  1  0  0  0  0  0  0  0  0  0
   17.9152   70.9126   -5.4388 C   0  0  2  0  0  0  0  0  0  0  0  0
   16.8544   69.8647   -2.3263 H   0  0  0  0  0  0  0  0  0  0  0  0
   17.2204   68.0199   -4.0592 H   0  0  0  0  0  0  0  0  0  0  0  0
   15.9511   70.5013   -7.4261 O   0  0  0  0  0  0  0  0  0  0  0  0
   19.1171   70.2851  -10.7689 O   0  0  0  0  0  0  0  0  0  0  0  0
   18.1985   70.7458   -6.8362 N   0  0  0  0  0  0  0  0  0  0  0  0
   17.5299   70.3930   -9.0890 N   0  0  0  0  0  0  0  0  0  0  0  0
   17.1389   70.5446   -7.7521 C   0  0  0  0  0  0  0  0  0  0  0  0
   19.5124   70.7838   -7.2870 C   0  0  0  0  0  0  0  0  0  0  0  0
   19.8695   70.6377   -8.5644 C   0  0  0  0  0  0  0  0  0  0  0  0
   18.8231   70.4226   -9.5852 C   0  0  0  0  0  0  0  0  0  0  0  0
   16.8098   70.2497   -9.7449 H   0  0  0  0  0  0  0  0  0  0  0  0
   22.2390   73.8979   -3.2718 O   0  0  0  0  0  0  0  0  0  0  0  0
   23.0243   74.5847   -2.0367 P   0  0  2  0  0  0  0  0  0  0  0  0
   22.2683   76.0054   -1.8620 O   0  0  0  0  0  0  0  0  0  0  0  0
   24.5084   74.6943   -2.2352 O   0  0  0  0  0  0  0  0  0  0  0  0
   22.5833   73.7271   -0.7436 O   0  0  0  0  0  0  0  0  0  0  0  0
   23.7555   73.5247    1.3044 O   0  0  0  0  0  0  0  0  0  0  0  0
   21.6979   69.9453    1.1563 O   0  0  0  0  0  0  0  0  0  0  0  0
   22.9760   71.0189   -1.2413 O   0  0  0  0  0  0  0  0  0  0  0  0
   20.7999   72.0726    2.9223 O   0  0  0  0  0  0  0  0  0  0  0  0
   21.9123   71.3361    0.9160 C   0  0  2  0  0  0  0  0  0  0  0  0
   23.1755   71.5214    0.0750 C   0  0  2  0  0  0  0  0  0  0  0  0
   22.0678   72.0314    2.2704 C   0  0  1  0  0  0  0  0  0  0  0  0
   23.5650   72.9979   -0.0093 C   0  0  1  0  0  0  0  0  0  0  0  0
   22.5793   73.4599    2.1077 C   0  0  1  0  0  0  0  0  0  0  0  0
   21.5962   69.4826    0.3096 H   0  0  0  0  0  0  0  0  0  0  0  0
   22.7283   70.0825   -1.1953 H   0  0  0  0  0  0  0  0  0  0  0  0
   20.4631   71.1696    3.0318 H   0  0  0  0  0  0  0  0  0  0  0  0
   22.0133   74.6217    4.0651 O   0  0  0  0  0  0  0  0  0  0  0  0
   24.1751   73.9274    3.8559 O   0  0  0  0  0  0  0  0  0  0  0  0
   23.0374   74.0118    3.4184 C   0  0  0  0  0  0  0  0  0  0  0  0
  1  4  1  0
  1 24  1  0
  1  2  1  6
  1  3  2  0
 25 28  1  0
 25 24  1  0
 25 26  1  1
 25 27  2  0
  6 11  1  0
  6 12  1  0
 29 36  1  0
 29 37  1  0
  9  7  1  1
  7 13  1  0
 10  8  1  1
  8 14  1  0
  4  5  1  0
 36 28  1  1
 33 30  1  1
 30 38  1  0
 34 31  1  6
 31 39  1  0
 35 32  1  6
 32 40  1  0
 41 43  1  0
 15 19  2  0
 42 43  2  0
 16 22  2  0
 12 17  1  6
 17 19  1  0
 17 20  1  0
 18 19  1  0
 18 22  1  0
 18 23  1  0
  9 10  1  0
  9 11  1  0
 10 12  1  0
 11  5  1  6
 33 34  1  0
 33 35  1  0
 34 36  1  0
 35 37  1  0
 37 43  1  1
 20 21  2  0
 21 22  1  0
M  CHG  3   2  -1  26  -1  41  -1
M  END
>  <COMPND>  (91) 
    udp_gluA.pdb 

>  <AUTHOR>  (91) 
    GENERATED BY OPEN BABEL 3.1.1

>  <MASTER>  (91) 
        0    0    0    0    0    0    0    0   56    0   56    0

>  <minimizedAffinity>  (91) 
-7.78224

>  <CNNscore>  (91) 
0.8276482821

>  <CNNaffinity>  (91) 
4.6419749260

>  <CNN_VS>  (91) 
3.8419225216

>  <CNNaffinity_variance>  (91) 
0.0439086780

$$$$
92
     RDKit          3D

 43 45  0  0  0  0  0  0  0  0999 V2000
   21.7946   72.4313   -5.5271 P   0  0  2  0  0  0  0  0  0  0  0  0
   20.9385   73.7733   -5.2351 O   0  0  0  0  0  0  0  0  0  0  0  0
   23.0959   72.6528   -6.2408 O   0  0  0  0  0  0  0  0  0  0  0  0
   20.7423   71.4536   -6.2718 O   0  0  0  0  0  0  0  0  0  0  0  0
   20.1671   71.8832   -7.4921 C   0  0  0  0  0  0  0  0  0  0  0  0
   18.8704   69.8939   -7.1192 O   0  0  0  0  0  0  0  0  0  0  0  0
   18.1209   70.0632  -10.0177 O   0  0  0  0  0  0  0  0  0  0  0  0
   15.9175   71.0780   -8.7722 O   0  0  0  0  0  0  0  0  0  0  0  0
   18.3297   71.1153   -9.0754 C   0  0  1  0  0  0  0  0  0  0  0  0
   17.1619   71.1986   -8.1154 C   0  0  2  0  0  0  0  0  0  0  0  0
   19.4700   70.7021   -8.1549 C   0  0  1  0  0  0  0  0  0  0  0  0
   17.4424   70.0380   -7.1762 C   0  0  2  0  0  0  0  0  0  0  0  0
   17.3967   70.3044  -10.6169 H   0  0  0  0  0  0  0  0  0  0  0  0
   15.7858   71.8406   -9.3579 H   0  0  0  0  0  0  0  0  0  0  0  0
   16.2959   68.0512   -5.5285 O   0  0  0  0  0  0  0  0  0  0  0  0
   15.5620   71.0527   -2.1084 O   0  0  0  0  0  0  0  0  0  0  0  0
   16.9435   70.2728   -5.8507 N   0  0  0  0  0  0  0  0  0  0  0  0
   15.9306   69.5482   -3.8271 N   0  0  0  0  0  0  0  0  0  0  0  0
   16.3865   69.2058   -5.1069 C   0  0  0  0  0  0  0  0  0  0  0  0
   17.0102   71.5469   -5.3001 C   0  0  0  0  0  0  0  0  0  0  0  0
   16.5716   71.8579   -4.0788 C   0  0  0  0  0  0  0  0  0  0  0  0
   15.9748   70.8008   -3.2365 C   0  0  0  0  0  0  0  0  0  0  0  0
   15.5367   68.8224   -3.2910 H   0  0  0  0  0  0  0  0  0  0  0  0
   21.9355   71.7646   -4.0613 O   0  0  0  0  0  0  0  0  0  0  0  0
   23.1116   71.8678   -2.9569 P   0  0  2  0  0  0  0  0  0  0  0  0
   23.6741   73.3726   -3.1551 O   0  0  0  0  0  0  0  0  0  0  0  0
   24.1577   70.7967   -3.0695 O   0  0  0  0  0  0  0  0  0  0  0  0
   22.3408   71.9045   -1.5403 O   0  0  0  0  0  0  0  0  0  0  0  0
   23.9510   72.5822    0.0588 O   0  0  0  0  0  0  0  0  0  0  0  0
   20.5399   72.2923    2.3714 O   0  0  0  0  0  0  0  0  0  0  0  0
   21.1404   70.2632    0.3574 O   0  0  0  0  0  0  0  0  0  0  0  0
   21.5504   74.9013    1.5823 O   0  0  0  0  0  0  0  0  0  0  0  0
   21.2916   72.5394    1.1832 C   0  0  2  0  0  0  0  0  0  0  0  0
   22.0483   71.2724    0.7837 C   0  0  2  0  0  0  0  0  0  0  0  0
   22.2736   73.6768    1.4729 C   0  0  1  0  0  0  0  0  0  0  0  0
   23.0392   71.5600   -0.3452 C   0  0  1  0  0  0  0  0  0  0  0  0
   23.3066   73.8183    0.3586 C   0  0  1  0  0  0  0  0  0  0  0  0
   19.9089   71.5729    2.2113 H   0  0  0  0  0  0  0  0  0  0  0  0
   20.5085   70.0759    1.0687 H   0  0  0  0  0  0  0  0  0  0  0  0
   20.8895   74.8246    2.2880 H   0  0  0  0  0  0  0  0  0  0  0  0
   24.6744   74.5439    2.1204 O   0  0  0  0  0  0  0  0  0  0  0  0
   25.0732   75.4341    0.0594 O   0  0  0  0  0  0  0  0  0  0  0  0
   24.4393   74.6904    0.7929 C   0  0  0  0  0  0  0  0  0  0  0  0
  1  4  1  0
  1 24  1  0
  1  2  1  1
  1  3  2  0
 25 28  1  0
 25 24  1  0
 25 26  1  6
 25 27  2  0
  6 11  1  0
  6 12  1  0
 29 36  1  0
 29 37  1  0
  9  7  1  6
  7 13  1  0
 10  8  1  6
  8 14  1  0
  4  5  1  0
 36 28  1  6
 33 30  1  1
 30 38  1  0
 34 31  1  6
 31 39  1  0
 35 32  1  6
 32 40  1  0
 41 43  1  0
 15 19  2  0
 42 43  2  0
 16 22  2  0
 12 17  1  1
 17 19  1  0
 17 20  1  0
 18 19  1  0
 18 22  1  0
 18 23  1  0
  9 10  1  0
  9 11  1  0
 10 12  1  0
 11  5  1  1
 33 34  1  0
 33 35  1  0
 34 36  1  0
 35 37  1  0
 37 43  1  1
 20 21  2  0
 21 22  1  0
M  CHG  3   2  -1  26  -1  41  -1
M  END
>  <COMPND>  (92) 
    udp_gluA.pdb 

>  <AUTHOR>  (92) 
    GENERATED BY OPEN BABEL 3.1.1

>  <MASTER>  (92) 
        0    0    0    0    0    0    0    0   56    0   56    0

>  <minimizedAffinity>  (92) 
-8.09332

>  <CNNscore>  (92) 
0.7437495589

>  <CNNaffinity>  (92) 
4.5276050568

>  <CNN_VS>  (92) 
3.3674042225

>  <CNNaffinity_variance>  (92) 
0.2302200794

$$$$
93
     RDKit          3D

 43 45  0  0  0  0  0  0  0  0999 V2000
   23.3780   71.8202   -3.2919 P   0  0  2  0  0  0  0  0  0  0  0  0
   24.1236   72.9628   -4.1622 O   0  0  0  0  0  0  0  0  0  0  0  0
   24.2316   70.6394   -2.9329 O   0  0  0  0  0  0  0  0  0  0  0  0
   22.0444   71.4893   -4.1462 O   0  0  0  0  0  0  0  0  0  0  0  0
   21.6435   72.3998   -5.1536 C   0  0  0  0  0  0  0  0  0  0  0  0
   20.6041   70.4459   -6.0913 O   0  0  0  0  0  0  0  0  0  0  0  0
   20.7385   71.8678   -8.7279 O   0  0  0  0  0  0  0  0  0  0  0  0
   18.1388   72.2290   -7.9880 O   0  0  0  0  0  0  0  0  0  0  0  0
   20.4981   72.4005   -7.4252 C   0  0  1  0  0  0  0  0  0  0  0  0
   19.0979   72.0518   -6.9666 C   0  0  2  0  0  0  0  0  0  0  0  0
   21.3592   71.6277   -6.4355 C   0  0  1  0  0  0  0  0  0  0  0  0
   19.2535   70.5974   -6.5563 C   0  0  2  0  0  0  0  0  0  0  0  0
   20.1991   72.3459   -9.3777 H   0  0  0  0  0  0  0  0  0  0  0  0
   18.0768   73.1709   -8.2134 H   0  0  0  0  0  0  0  0  0  0  0  0
   16.5591   69.8484   -6.9516 O   0  0  0  0  0  0  0  0  0  0  0  0
   15.8890   69.1922   -2.4389 O   0  0  0  0  0  0  0  0  0  0  0  0
   18.3524   70.2260   -5.5023 N   0  0  0  0  0  0  0  0  0  0  0  0
   16.2277   69.5233   -4.7035 N   0  0  0  0  0  0  0  0  0  0  0  0
   17.0184   69.8666   -5.8080 C   0  0  0  0  0  0  0  0  0  0  0  0
   18.7923   70.2185   -4.1842 C   0  0  0  0  0  0  0  0  0  0  0  0
   18.0268   69.8889   -3.1420 C   0  0  0  0  0  0  0  0  0  0  0  0
   16.6200   69.5016   -3.3749 C   0  0  0  0  0  0  0  0  0  0  0  0
   15.2946   69.2714   -4.8912 H   0  0  0  0  0  0  0  0  0  0  0  0
   22.8034   72.6453   -2.0262 O   0  0  0  0  0  0  0  0  0  0  0  0
   21.4973   72.4021   -1.1050 P   0  0  2  0  0  0  0  0  0  0  0  0
   21.3325   70.7918   -1.1148 O   0  0  0  0  0  0  0  0  0  0  0  0
   20.2771   73.1513   -1.5564 O   0  0  0  0  0  0  0  0  0  0  0  0
   21.9821   72.7526    0.3932 O   0  0  0  0  0  0  0  0  0  0  0  0
   23.0847   71.1095    1.6946 O   0  0  0  0  0  0  0  0  0  0  0  0
   21.9238   73.8281    4.5807 O   0  0  0  0  0  0  0  0  0  0  0  0
   20.1037   73.0998    2.4148 O   0  0  0  0  0  0  0  0  0  0  0  0
   24.6979   73.7093    3.7196 O   0  0  0  0  0  0  0  0  0  0  0  0
   22.3478   73.4042    3.2851 C   0  0  2  0  0  0  0  0  0  0  0  0
   21.3238   72.4279    2.7055 C   0  0  2  0  0  0  0  0  0  0  0  0
   23.7095   72.7217    3.4329 C   0  0  1  0  0  0  0  0  0  0  0  0
   21.8513   71.7774    1.4259 C   0  0  1  0  0  0  0  0  0  0  0  0
   24.1076   71.9900    2.1543 C   0  0  1  0  0  0  0  0  0  0  0  0
   21.0602   74.2648    4.5117 H   0  0  0  0  0  0  0  0  0  0  0  0
   19.7634   73.5152    3.2223 H   0  0  0  0  0  0  0  0  0  0  0  0
   24.4563   74.1824    4.5312 H   0  0  0  0  0  0  0  0  0  0  0  0
   24.8711   69.7750    2.2656 O   0  0  0  0  0  0  0  0  0  0  0  0
   26.3886   71.4212    2.6976 O   0  0  0  0  0  0  0  0  0  0  0  0
   25.2557   71.0677    2.4065 C   0  0  0  0  0  0  0  0  0  0  0  0
  1  4  1  0
  1 24  1  0
  1  2  1  6
  1  3  2  0
 25 28  1  0
 25 24  1  0
 25 26  1  1
 25 27  2  0
  6 11  1  0
  6 12  1  0
 29 36  1  0
 29 37  1  0
  9  7  1  6
  7 13  1  0
 10  8  1  6
  8 14  1  0
  4  5  1  0
 36 28  1  6
 33 30  1  1
 30 38  1  0
 34 31  1  6
 31 39  1  0
 35 32  1  6
 32 40  1  0
 41 43  1  0
 15 19  2  0
 42 43  2  0
 16 22  2  0
 12 17  1  1
 17 19  1  0
 17 20  1  0
 18 19  1  0
 18 22  1  0
 18 23  1  0
  9 10  1  0
  9 11  1  0
 10 12  1  0
 11  5  1  1
 33 34  1  0
 33 35  1  0
 34 36  1  0
 35 37  1  0
 37 43  1  1
 20 21  2  0
 21 22  1  0
M  CHG  3   2  -1  26  -1  41  -1
M  END
>  <COMPND>  (93) 
    udp_gluA.pdb 

>  <AUTHOR>  (93) 
    GENERATED BY OPEN BABEL 3.1.1

>  <MASTER>  (93) 
        0    0    0    0    0    0    0    0   56    0   56    0

>  <minimizedAffinity>  (93) 
-7.97630

>  <CNNscore>  (93) 
0.7194828391

>  <CNNaffinity>  (93) 
4.4521989822

>  <CNN_VS>  (93) 
3.2032806873

>  <CNNaffinity_variance>  (93) 
0.1030636579

$$$$
94
     RDKit          3D

 43 45  0  0  0  0  0  0  0  0999 V2000
   19.3207   74.4511   -2.3366 P   0  0  2  0  0  0  0  0  0  0  0  0
   18.4199   75.7689   -2.0704 O   0  0  0  0  0  0  0  0  0  0  0  0
   20.4100   74.6232   -3.3542 O   0  0  0  0  0  0  0  0  0  0  0  0
   18.2341   73.2964   -2.6589 O   0  0  0  0  0  0  0  0  0  0  0  0
   17.9304   73.0125   -4.0123 C   0  0  0  0  0  0  0  0  0  0  0  0
   16.3614   71.8998   -5.4537 O   0  0  0  0  0  0  0  0  0  0  0  0
   15.6923   70.1811   -3.0894 O   0  0  0  0  0  0  0  0  0  0  0  0
   17.3423   68.5725   -4.5476 O   0  0  0  0  0  0  0  0  0  0  0  0
   16.9524   70.7241   -3.4841 C   0  0  1  0  0  0  0  0  0  0  0  0
   17.4969   69.9702   -4.6788 C   0  0  2  0  0  0  0  0  0  0  0  0
   16.7053   72.1089   -4.0669 C   0  0  1  0  0  0  0  0  0  0  0  0
   16.6721   70.5454   -5.8175 C   0  0  2  0  0  0  0  0  0  0  0  0
   15.8245   69.2961   -2.7139 H   0  0  0  0  0  0  0  0  0  0  0  0
   17.8872   68.2548   -3.8100 H   0  0  0  0  0  0  0  0  0  0  0  0
   15.4409   70.5461   -8.3593 O   0  0  0  0  0  0  0  0  0  0  0  0
   19.5066   70.5572  -10.5305 O   0  0  0  0  0  0  0  0  0  0  0  0
   17.3850   70.5485   -7.0635 N   0  0  0  0  0  0  0  0  0  0  0  0
   17.4671   70.5506   -9.4383 N   0  0  0  0  0  0  0  0  0  0  0  0
   16.6712   70.5483   -8.2852 C   0  0  0  0  0  0  0  0  0  0  0  0
   18.7746   70.5533   -7.0675 C   0  0  0  0  0  0  0  0  0  0  0  0
   19.5195   70.5555   -8.1747 C   0  0  0  0  0  0  0  0  0  0  0  0
   18.8515   70.5547   -9.4928 C   0  0  0  0  0  0  0  0  0  0  0  0
   16.9926   70.5485  -10.3009 H   0  0  0  0  0  0  0  0  0  0  0  0
   19.8381   74.0601   -0.8559 O   0  0  0  0  0  0  0  0  0  0  0  0
   20.1904   74.9834    0.4235 P   0  0  2  0  0  0  0  0  0  0  0  0
   18.8301   74.9362    1.2996 O   0  0  0  0  0  0  0  0  0  0  0  0
   20.6536   76.3683    0.0747 O   0  0  0  0  0  0  0  0  0  0  0  0
   21.2526   74.1166    1.2737 O   0  0  0  0  0  0  0  0  0  0  0  0
   21.8883   71.8596    0.9404 O   0  0  0  0  0  0  0  0  0  0  0  0
   22.4379   72.2953    5.0118 O   0  0  0  0  0  0  0  0  0  0  0  0
   20.0864   73.4338    3.7047 O   0  0  0  0  0  0  0  0  0  0  0  0
   24.7310   72.2598    3.2253 O   0  0  0  0  0  0  0  0  0  0  0  0
   22.4039   72.7183    3.6487 C   0  0  2  0  0  0  0  0  0  0  0  0
   20.9941   72.5276    3.0888 C   0  0  2  0  0  0  0  0  0  0  0  0
   23.4073   71.8694    2.8649 C   0  0  1  0  0  0  0  0  0  0  0  0
   20.9715   72.7512    1.5760 C   0  0  1  0  0  0  0  0  0  0  0  0
   23.2372   72.0538    1.3597 C   0  0  1  0  0  0  0  0  0  0  0  0
   21.8079   72.8210    5.5295 H   0  0  0  0  0  0  0  0  0  0  0  0
   20.0959   73.2978    4.6648 H   0  0  0  0  0  0  0  0  0  0  0  0
   24.8524   72.1474    4.1811 H   0  0  0  0  0  0  0  0  0  0  0  0
   24.5028   70.0816    1.4618 O   0  0  0  0  0  0  0  0  0  0  0  0
   24.0964   70.9508   -0.6066 O   0  0  0  0  0  0  0  0  0  0  0  0
   23.9776   70.9955    0.6086 C   0  0  0  0  0  0  0  0  0  0  0  0
  1  4  1  0
  1 24  1  0
  1  2  1  1
  1  3  2  0
 25 28  1  0
 25 24  1  0
 25 26  1  1
 25 27  2  0
  6 11  1  0
  6 12  1  0
 29 36  1  0
 29 37  1  0
  9  7  1  6
  7 13  1  0
 10  8  1  1
  8 14  1  0
  4  5  1  0
 36 28  1  1
 33 30  1  1
 30 38  1  0
 34 31  1  1
 31 39  1  0
 35 32  1  1
 32 40  1  0
 41 43  1  0
 15 19  2  0
 42 43  2  0
 16 22  2  0
 12 17  1  6
 17 19  1  0
 17 20  1  0
 18 19  1  0
 18 22  1  0
 18 23  1  0
  9 10  1  0
  9 11  1  0
 10 12  1  0
 11  5  1  6
 33 34  1  0
 33 35  1  0
 34 36  1  0
 35 37  1  0
 37 43  1  6
 20 21  2  0
 21 22  1  0
M  CHG  3   2  -1  26  -1  41  -1
M  END
>  <COMPND>  (94) 
    udp_gluA.pdb 

>  <AUTHOR>  (94) 
    GENERATED BY OPEN BABEL 3.1.1

>  <MASTER>  (94) 
        0    0    0    0    0    0    0    0   56    0   56    0

>  <minimizedAffinity>  (94) 
-6.59093

>  <CNNscore>  (94) 
0.6685622334

>  <CNNaffinity>  (94) 
4.2719416618

>  <CNN_VS>  (94) 
2.8560588360

>  <CNNaffinity_variance>  (94) 
0.0555986948

$$$$
95
     RDKit          3D

 43 45  0  0  0  0  0  0  0  0999 V2000
   23.5095   73.5550   -4.1287 P   0  0  2  0  0  0  0  0  0  0  0  0
   22.6924   74.9197   -4.4267 O   0  0  0  0  0  0  0  0  0  0  0  0
   25.0007   73.7106   -4.0645 O   0  0  0  0  0  0  0  0  0  0  0  0
   22.9583   72.5207   -5.2442 O   0  0  0  0  0  0  0  0  0  0  0  0
   21.5587   72.3593   -5.3836 C   0  0  0  0  0  0  0  0  0  0  0  0
   20.5199   70.3828   -6.2737 O   0  0  0  0  0  0  0  0  0  0  0  0
   20.6563   71.7393   -8.9444 O   0  0  0  0  0  0  0  0  0  0  0  0
   18.0562   72.1186   -8.2156 O   0  0  0  0  0  0  0  0  0  0  0  0
   20.4150   72.3039   -7.6554 C   0  0  1  0  0  0  0  0  0  0  0  0
   19.0145   71.9667   -7.1894 C   0  0  2  0  0  0  0  0  0  0  0  0
   21.2753   71.5558   -6.6463 C   0  0  1  0  0  0  0  0  0  0  0  0
   19.1697   70.5228   -6.7433 C   0  0  2  0  0  0  0  0  0  0  0  0
   20.1174   72.2012   -9.6062 H   0  0  0  0  0  0  0  0  0  0  0  0
   17.9943   73.0548   -8.4642 H   0  0  0  0  0  0  0  0  0  0  0  0
   16.4777   69.7572   -7.1226 O   0  0  0  0  0  0  0  0  0  0  0  0
   15.8019   69.2199   -2.5951 O   0  0  0  0  0  0  0  0  0  0  0  0
   18.2677   70.1775   -5.6812 N   0  0  0  0  0  0  0  0  0  0  0  0
   16.1434   69.4913   -4.8672 N   0  0  0  0  0  0  0  0  0  0  0  0
   16.9351   69.8069   -5.9792 C   0  0  0  0  0  0  0  0  0  0  0  0
   18.7055   70.2062   -4.3627 C   0  0  0  0  0  0  0  0  0  0  0  0
   17.9392   69.9026   -3.3132 C   0  0  0  0  0  0  0  0  0  0  0  0
   16.5337   69.5059   -3.5379 C   0  0  0  0  0  0  0  0  0  0  0  0
   15.2112   69.2323   -5.0495 H   0  0  0  0  0  0  0  0  0  0  0  0
   22.8295   73.0153   -2.7652 O   0  0  0  0  0  0  0  0  0  0  0  0
   22.8845   71.5647   -2.0536 P   0  0  2  0  0  0  0  0  0  0  0  0
   24.2467   70.9163   -2.6405 O   0  0  0  0  0  0  0  0  0  0  0  0
   21.6578   70.7264   -2.2689 O   0  0  0  0  0  0  0  0  0  0  0  0
   23.2171   71.8799   -0.5069 O   0  0  0  0  0  0  0  0  0  0  0  0
   24.6262   70.8606    1.1008 O   0  0  0  0  0  0  0  0  0  0  0  0
   21.3530   71.9064    3.3944 O   0  0  0  0  0  0  0  0  0  0  0  0
   20.9902   70.7635    0.7304 O   0  0  0  0  0  0  0  0  0  0  0  0
   23.8050   73.4596    3.5570 O   0  0  0  0  0  0  0  0  0  0  0  0
   22.2942   72.0399    2.3293 C   0  0  2  0  0  0  0  0  0  0  0  0
   22.2284   70.8050    1.4304 C   0  0  2  0  0  0  0  0  0  0  0  0
   23.6886   72.1765    2.9449 C   0  0  1  0  0  0  0  0  0  0  0  0
   23.3737   70.8044    0.4170 C   0  0  1  0  0  0  0  0  0  0  0  0
   24.7802   72.0398    1.8874 C   0  0  1  0  0  0  0  0  0  0  0  0
   20.4593   71.8181    3.0272 H   0  0  0  0  0  0  0  0  0  0  0  0
   20.2590   70.7640    1.3674 H   0  0  0  0  0  0  0  0  0  0  0  0
   23.1157   73.5594    4.2321 H   0  0  0  0  0  0  0  0  0  0  0  0
   26.5175   72.9784    3.1533 O   0  0  0  0  0  0  0  0  0  0  0  0
   26.7643   70.8091    2.4956 O   0  0  0  0  0  0  0  0  0  0  0  0
   26.1165   71.8447    2.5265 C   0  0  0  0  0  0  0  0  0  0  0  0
  1  4  1  0
  1 24  1  0
  1  2  1  6
  1  3  2  0
 25 28  1  0
 25 24  1  0
 25 26  1  6
 25 27  2  0
  6 11  1  0
  6 12  1  0
 29 36  1  0
 29 37  1  0
  9  7  1  6
  7 13  1  0
 10  8  1  6
  8 14  1  0
  4  5  1  0
 36 28  1  6
 33 30  1  1
 30 38  1  0
 34 31  1  6
 31 39  1  0
 35 32  1  6
 32 40  1  0
 41 43  1  0
 15 19  2  0
 42 43  2  0
 16 22  2  0
 12 17  1  1
 17 19  1  0
 17 20  1  0
 18 19  1  0
 18 22  1  0
 18 23  1  0
  9 10  1  0
  9 11  1  0
 10 12  1  0
 11  5  1  1
 33 34  1  0
 33 35  1  0
 34 36  1  0
 35 37  1  0
 37 43  1  1
 20 21  2  0
 21 22  1  0
M  CHG  3   2  -1  26  -1  41  -1
M  END
>  <COMPND>  (95) 
    udp_gluA.pdb 

>  <AUTHOR>  (95) 
    GENERATED BY OPEN BABEL 3.1.1

>  <MASTER>  (95) 
        0    0    0    0    0    0    0    0   56    0   56    0

>  <minimizedAffinity>  (95) 
-8.41856

>  <CNNscore>  (95) 
0.6537272334

>  <CNNaffinity>  (95) 
4.3728113174

>  <CNN_VS>  (95) 
2.8586258888

>  <CNNaffinity_variance>  (95) 
0.1838387102

$$$$
96
     RDKit          3D

 43 45  0  0  0  0  0  0  0  0999 V2000
   20.4029   71.0744   -2.8767 P   0  0  2  0  0  0  0  0  0  0  0  0
   20.0243   69.8892   -3.9115 O   0  0  0  0  0  0  0  0  0  0  0  0
   20.3610   70.6875   -1.4274 O   0  0  0  0  0  0  0  0  0  0  0  0
   19.4283   72.2921   -3.3072 O   0  0  0  0  0  0  0  0  0  0  0  0
   18.0723   72.2484   -2.9024 C   0  0  0  0  0  0  0  0  0  0  0  0
   17.6673   73.5435   -4.8864 O   0  0  0  0  0  0  0  0  0  0  0  0
   15.2750   74.6461   -3.4537 O   0  0  0  0  0  0  0  0  0  0  0  0
   14.1716   72.7774   -5.1049 O   0  0  0  0  0  0  0  0  0  0  0  0
   15.8264   73.3298   -3.4112 C   0  0  1  0  0  0  0  0  0  0  0  0
   15.5085   72.5868   -4.6915 C   0  0  2  0  0  0  0  0  0  0  0  0
   17.3423   73.4530   -3.4823 C   0  0  1  0  0  0  0  0  0  0  0  0
   16.5119   73.1867   -5.6617 C   0  0  2  0  0  0  0  0  0  0  0  0
   14.3070   74.5932   -3.4096 H   0  0  0  0  0  0  0  0  0  0  0  0
   13.5720   72.3778   -4.4547 H   0  0  0  0  0  0  0  0  0  0  0  0
   15.1072   72.7935   -8.0801 O   0  0  0  0  0  0  0  0  0  0  0  0
   18.1109   69.6074   -9.5191 O   0  0  0  0  0  0  0  0  0  0  0  0
   16.9047   72.2607   -6.6860 N   0  0  0  0  0  0  0  0  0  0  0  0
   16.6040   71.2063   -8.7941 N   0  0  0  0  0  0  0  0  0  0  0  0
   16.1291   72.1396   -7.8632 C   0  0  0  0  0  0  0  0  0  0  0  0
   18.0466   71.4864   -6.5202 C   0  0  0  0  0  0  0  0  0  0  0  0
   18.4867   70.6011   -7.4164 C   0  0  0  0  0  0  0  0  0  0  0  0
   17.7334   70.4129   -8.6736 C   0  0  0  0  0  0  0  0  0  0  0  0
   16.0794   71.1029   -9.6208 H   0  0  0  0  0  0  0  0  0  0  0  0
   21.8510   71.5652   -3.4010 O   0  0  0  0  0  0  0  0  0  0  0  0
   23.2627   71.7206   -2.6287 P   0  0  2  0  0  0  0  0  0  0  0  0
   23.7198   73.2300   -2.9936 O   0  0  0  0  0  0  0  0  0  0  0  0
   24.2742   70.6671   -2.9766 O   0  0  0  0  0  0  0  0  0  0  0  0
   22.8695   71.7810   -1.0653 O   0  0  0  0  0  0  0  0  0  0  0  0
   22.5978   73.7883    0.1618 O   0  0  0  0  0  0  0  0  0  0  0  0
   23.4540   71.0790    3.1609 O   0  0  0  0  0  0  0  0  0  0  0  0
   24.9282   71.0121    0.6396 O   0  0  0  0  0  0  0  0  0  0  0  0
   20.7282   72.0111    2.7710 O   0  0  0  0  0  0  0  0  0  0  0  0
   22.9220   71.5122    1.9090 C   0  0  2  0  0  0  0  0  0  0  0  0
   24.0508   72.0601    1.0353 C   0  0  2  0  0  0  0  0  0  0  0  0
   21.8867   72.6042    2.1875 C   0  0  1  0  0  0  0  0  0  0  0  0
   23.4932   72.7416   -0.2151 C   0  0  1  0  0  0  0  0  0  0  0  0
   21.4743   73.3210    0.9051 C   0  0  1  0  0  0  0  0  0  0  0  0
   24.1145   70.3848    3.0089 H   0  0  0  0  0  0  0  0  0  0  0  0
   25.2855   70.5751    1.4281 H   0  0  0  0  0  0  0  0  0  0  0  0
   20.9770   71.5514    3.5881 H   0  0  0  0  0  0  0  0  0  0  0  0
   21.1923   75.6068    0.4611 O   0  0  0  0  0  0  0  0  0  0  0  0
   19.8292   74.6770    2.0348 O   0  0  0  0  0  0  0  0  0  0  0  0
   20.7310   74.5792    1.2162 C   0  0  0  0  0  0  0  0  0  0  0  0
  1  4  1  0
  1 24  1  0
  1  2  1  6
  1  3  2  0
 25 28  1  0
 25 24  1  0
 25 26  1  6
 25 27  2  0
  6 11  1  0
  6 12  1  0
 29 36  1  0
 29 37  1  0
  9  7  1  6
  7 13  1  0
 10  8  1  6
  8 14  1  0
  4  5  1  0
 36 28  1  6
 33 30  1  1
 30 38  1  0
 34 31  1  6
 31 39  1  0
 35 32  1  6
 32 40  1  0
 41 43  1  0
 15 19  2  0
 42 43  2  0
 16 22  2  0
 12 17  1  6
 17 19  1  0
 17 20  1  0
 18 19  1  0
 18 22  1  0
 18 23  1  0
  9 10  1  0
  9 11  1  0
 10 12  1  0
 11  5  1  6
 33 34  1  0
 33 35  1  0
 34 36  1  0
 35 37  1  0
 37 43  1  1
 20 21  2  0
 21 22  1  0
M  CHG  3   2  -1  26  -1  41  -1
M  END
>  <COMPND>  (96) 
    udp_gluA.pdb 

>  <AUTHOR>  (96) 
    GENERATED BY OPEN BABEL 3.1.1

>  <MASTER>  (96) 
        0    0    0    0    0    0    0    0   56    0   56    0

>  <minimizedAffinity>  (96) 
-6.67525

>  <CNNscore>  (96) 
0.6434544325

>  <CNNaffinity>  (96) 
4.2388653755

>  <CNN_VS>  (96) 
2.7275166512

>  <CNNaffinity_variance>  (96) 
0.0613820478

$$$$
97
     RDKit          3D

 43 45  0  0  0  0  0  0  0  0999 V2000
   23.2057   72.1852   -3.7932 P   0  0  2  0  0  0  0  0  0  0  0  0
   23.0147   72.2290   -5.3996 O   0  0  0  0  0  0  0  0  0  0  0  0
   24.1488   71.1292   -3.2959 O   0  0  0  0  0  0  0  0  0  0  0  0
   21.6934   72.1010   -3.2242 O   0  0  0  0  0  0  0  0  0  0  0  0
   20.7874   71.2056   -3.8423 C   0  0  0  0  0  0  0  0  0  0  0  0
   18.9434   72.2811   -4.9472 O   0  0  0  0  0  0  0  0  0  0  0  0
   17.2499   71.2948   -2.6776 O   0  0  0  0  0  0  0  0  0  0  0  0
   16.6891   69.5081   -4.6598 O   0  0  0  0  0  0  0  0  0  0  0  0
   18.3574   70.6627   -3.3198 C   0  0  1  0  0  0  0  0  0  0  0  0
   17.9483   70.1472   -4.6833 C   0  0  2  0  0  0  0  0  0  0  0  0
   19.3709   71.7411   -3.6779 C   0  0  1  0  0  0  0  0  0  0  0  0
   17.9428   71.4197   -5.5130 C   0  0  2  0  0  0  0  0  0  0  0  0
   16.5889   70.6255   -2.4393 H   0  0  0  0  0  0  0  0  0  0  0  0
   16.7448   68.7038   -4.1194 H   0  0  0  0  0  0  0  0  0  0  0  0
   16.4231   72.3747   -7.6936 O   0  0  0  0  0  0  0  0  0  0  0  0
   19.2592   70.4251  -10.7595 O   0  0  0  0  0  0  0  0  0  0  0  0
   18.2614   71.1765   -6.8915 N   0  0  0  0  0  0  0  0  0  0  0  0
   17.8365   71.4019   -9.2185 N   0  0  0  0  0  0  0  0  0  0  0  0
   17.4322   71.7013   -7.9108 C   0  0  0  0  0  0  0  0  0  0  0  0
   19.3843   70.4277   -7.2221 C   0  0  0  0  0  0  0  0  0  0  0  0
   19.7569   70.1507   -8.4732 C   0  0  0  0  0  0  0  0  0  0  0  0
   18.9444   70.6610   -9.5969 C   0  0  0  0  0  0  0  0  0  0  0  0
   17.2737   71.7548   -9.9452 H   0  0  0  0  0  0  0  0  0  0  0  0
   23.6436   73.7002   -3.4383 O   0  0  0  0  0  0  0  0  0  0  0  0
   23.1811   75.1144   -4.0705 P   0  0  2  0  0  0  0  0  0  0  0  0
   24.1460   76.1833   -3.3312 O   0  0  0  0  0  0  0  0  0  0  0  0
   21.7147   75.4028   -3.9275 O   0  0  0  0  0  0  0  0  0  0  0  0
   23.7100   75.0742   -5.5941 O   0  0  0  0  0  0  0  0  0  0  0  0
   24.1282   77.0827   -6.7774 O   0  0  0  0  0  0  0  0  0  0  0  0
   23.8378   74.3397   -9.8531 O   0  0  0  0  0  0  0  0  0  0  0  0
   21.9754   74.2457   -7.6043 O   0  0  0  0  0  0  0  0  0  0  0  0
   26.4402   75.3429   -9.0335 O   0  0  0  0  0  0  0  0  0  0  0  0
   24.1484   74.7917   -8.5350 C   0  0  2  0  0  0  0  0  0  0  0  0
   22.8795   75.3141   -7.8609 C   0  0  2  0  0  0  0  0  0  0  0  0
   25.1880   75.9086   -8.6508 C   0  0  1  0  0  0  0  0  0  0  0  0
   23.2094   76.0150   -6.5423 C   0  0  1  0  0  0  0  0  0  0  0  0
   25.3687   76.6412   -7.3245 C   0  0  1  0  0  0  0  0  0  0  0  0
   23.1786   73.6295   -9.8046 H   0  0  0  0  0  0  0  0  0  0  0  0
   21.7620   73.7964   -8.4367 H   0  0  0  0  0  0  0  0  0  0  0  0
   26.3390   74.8736   -9.8763 H   0  0  0  0  0  0  0  0  0  0  0  0
   25.3018   78.9855   -7.3636 O   0  0  0  0  0  0  0  0  0  0  0  0
   27.3119   77.9951   -7.7854 O   0  0  0  0  0  0  0  0  0  0  0  0
   26.1215   77.9167   -7.5212 C   0  0  0  0  0  0  0  0  0  0  0  0
  1  4  1  0
  1 24  1  0
  1  2  1  6
  1  3  2  0
 25 28  1  0
 25 24  1  0
 25 26  1  1
 25 27  2  0
  6 11  1  0
  6 12  1  0
 29 36  1  0
 29 37  1  0
  9  7  1  6
  7 13  1  0
 10  8  1  1
  8 14  1  0
  4  5  1  0
 36 28  1  1
 33 30  1  6
 30 38  1  0
 34 31  1  1
 31 39  1  0
 35 32  1  1
 32 40  1  0
 41 43  1  0
 15 19  2  0
 42 43  2  0
 16 22  2  0
 12 17  1  6
 17 19  1  0
 17 20  1  0
 18 19  1  0
 18 22  1  0
 18 23  1  0
  9 10  1  0
  9 11  1  0
 10 12  1  0
 11  5  1  6
 33 34  1  0
 33 35  1  0
 34 36  1  0
 35 37  1  0
 37 43  1  6
 20 21  2  0
 21 22  1  0
M  CHG  3   2  -1  26  -1  41  -1
M  END
>  <COMPND>  (97) 
    udp_gluA.pdb 

>  <AUTHOR>  (97) 
    GENERATED BY OPEN BABEL 3.1.1

>  <MASTER>  (97) 
        0    0    0    0    0    0    0    0   56    0   56    0

>  <minimizedAffinity>  (97) 
-6.41435

>  <CNNscore>  (97) 
0.6431571841

>  <CNNaffinity>  (97) 
4.5290865898

>  <CNN_VS>  (97) 
2.9129145145

>  <CNNaffinity_variance>  (97) 
0.2366954982

$$$$
98
     RDKit          3D

 43 45  0  0  0  0  0  0  0  0999 V2000
   23.1317   73.4816   -4.2429 P   0  0  2  0  0  0  0  0  0  0  0  0
   24.0865   72.1780   -4.1529 O   0  0  0  0  0  0  0  0  0  0  0  0
   23.7621   74.6859   -4.8785 O   0  0  0  0  0  0  0  0  0  0  0  0
   22.6044   73.6824   -2.7265 O   0  0  0  0  0  0  0  0  0  0  0  0
   21.6025   74.6524   -2.4820 C   0  0  0  0  0  0  0  0  0  0  0  0
   20.8867   72.7253   -1.2364 O   0  0  0  0  0  0  0  0  0  0  0  0
   18.5665   74.3990   -0.3380 O   0  0  0  0  0  0  0  0  0  0  0  0
   20.2381   74.4934    1.8144 O   0  0  0  0  0  0  0  0  0  0  0  0
   19.9199   74.7852   -0.5784 C   0  0  1  0  0  0  0  0  0  0  0  0
   20.8125   74.2911    0.5402 C   0  0  2  0  0  0  0  0  0  0  0  0
   20.4314   73.9875   -1.7702 C   0  0  1  0  0  0  0  0  0  0  0  0
   20.9659   72.8197    0.1947 C   0  0  2  0  0  0  0  0  0  0  0  0
   18.2179   74.8956    0.4193 H   0  0  0  0  0  0  0  0  0  0  0  0
   20.1619   75.4453    1.9873 H   0  0  0  0  0  0  0  0  0  0  0  0
   21.3996   70.1097    0.8611 O   0  0  0  0  0  0  0  0  0  0  0  0
   25.8364   70.8732    1.8490 O   0  0  0  0  0  0  0  0  0  0  0  0
   22.2246   72.2832    0.6291 N   0  0  0  0  0  0  0  0  0  0  0  0
   23.6087   70.4927    1.3535 N   0  0  0  0  0  0  0  0  0  0  0  0
   22.3359   70.9072    0.9396 C   0  0  0  0  0  0  0  0  0  0  0  0
   23.3315   73.1156    0.7421 C   0  0  0  0  0  0  0  0  0  0  0  0
   24.5382   72.7060    1.1379 C   0  0  0  0  0  0  0  0  0  0  0  0
   24.7393   71.2831    1.4821 C   0  0  0  0  0  0  0  0  0  0  0  0
   23.7103   69.5393    1.5771 H   0  0  0  0  0  0  0  0  0  0  0  0
   21.8244   72.9215   -5.0111 O   0  0  0  0  0  0  0  0  0  0  0  0
   21.0154   73.4967   -6.2872 P   0  0  2  0  0  0  0  0  0  0  0  0
   21.9896   73.1457   -7.5315 O   0  0  0  0  0  0  0  0  0  0  0  0
   20.6478   74.9483   -6.1800 O   0  0  0  0  0  0  0  0  0  0  0  0
   19.7596   72.4989   -6.4593 O   0  0  0  0  0  0  0  0  0  0  0  0
   19.3506   70.2922   -5.7028 O   0  0  0  0  0  0  0  0  0  0  0  0
   17.5350   70.2588   -9.4137 O   0  0  0  0  0  0  0  0  0  0  0  0
   20.1307   71.5480   -9.0466 O   0  0  0  0  0  0  0  0  0  0  0  0
   15.9211   70.4182   -7.0011 O   0  0  0  0  0  0  0  0  0  0  0  0
   17.9779   70.8345   -8.1848 C   0  0  2  0  0  0  0  0  0  0  0  0
   19.4986   70.7144   -8.0821 C   0  0  2  0  0  0  0  0  0  0  0  0
   17.3055   70.0766   -7.0379 C   0  0  1  0  0  0  0  0  0  0  0  0
   19.9857   71.1090   -6.6871 C   0  0  1  0  0  0  0  0  0  0  0  0
   17.9316   70.4321   -5.6925 C   0  0  1  0  0  0  0  0  0  0  0  0
   17.9495   70.7244  -10.1571 H   0  0  0  0  0  0  0  0  0  0  0  0
   19.8261   71.3033   -9.9341 H   0  0  0  0  0  0  0  0  0  0  0  0
   15.5108   70.1971   -7.8517 H   0  0  0  0  0  0  0  0  0  0  0  0
   18.4465   69.3734   -3.6638 O   0  0  0  0  0  0  0  0  0  0  0  0
   16.4578   68.8368   -4.6417 O   0  0  0  0  0  0  0  0  0  0  0  0
   17.5067   69.4635   -4.6372 C   0  0  0  0  0  0  0  0  0  0  0  0
  1  4  1  0
  1 24  1  0
  1  2  1  1
  1  3  2  0
 25 28  1  0
 25 24  1  0
 25 26  1  6
 25 27  2  0
  6 11  1  0
  6 12  1  0
 29 36  1  0
 29 37  1  0
  9  7  1  1
  7 13  1  0
 10  8  1  1
  8 14  1  0
  4  5  1  0
 36 28  1  1
 33 30  1  6
 30 38  1  0
 34 31  1  6
 31 39  1  0
 35 32  1  1
 32 40  1  0
 41 43  1  0
 15 19  2  0
 42 43  2  0
 16 22  2  0
 12 17  1  6
 17 19  1  0
 17 20  1  0
 18 19  1  0
 18 22  1  0
 18 23  1  0
  9 10  1  0
  9 11  1  0
 10 12  1  0
 11  5  1  1
 33 34  1  0
 33 35  1  0
 34 36  1  0
 35 37  1  0
 37 43  1  1
 20 21  2  0
 21 22  1  0
M  CHG  3   2  -1  26  -1  41  -1
M  END
>  <COMPND>  (98) 
    udp_gluA.pdb 

>  <AUTHOR>  (98) 
    GENERATED BY OPEN BABEL 3.1.1

>  <MASTER>  (98) 
        0    0    0    0    0    0    0    0   56    0   56    0

>  <minimizedAffinity>  (98) 
-7.80334

>  <CNNscore>  (98) 
0.6154914498

>  <CNNaffinity>  (98) 
4.5583214760

>  <CNN_VS>  (98) 
2.8056077957

>  <CNNaffinity_variance>  (98) 
0.0841098726

$$$$
99
     RDKit          3D

 43 45  0  0  0  0  0  0  0  0999 V2000
   21.9249   72.5127   -5.8801 P   0  0  2  0  0  0  0  0  0  0  0  0
   21.3088   73.9475   -5.4554 O   0  0  0  0  0  0  0  0  0  0  0  0
   23.0858   72.5774   -6.8288 O   0  0  0  0  0  0  0  0  0  0  0  0
   20.6403   71.6761   -6.3977 O   0  0  0  0  0  0  0  0  0  0  0  0
   20.0708   72.0168   -7.6483 C   0  0  0  0  0  0  0  0  0  0  0  0
   18.9037   69.9674   -7.1839 O   0  0  0  0  0  0  0  0  0  0  0  0
   18.0881   69.9954  -10.0694 O   0  0  0  0  0  0  0  0  0  0  0  0
   15.8528   70.9184   -8.8094 O   0  0  0  0  0  0  0  0  0  0  0  0
   18.2520   71.0889   -9.1660 C   0  0  1  0  0  0  0  0  0  0  0  0
   17.1005   71.1345   -8.1840 C   0  0  2  0  0  0  0  0  0  0  0  0
   19.4330   70.7749   -8.2578 C   0  0  1  0  0  0  0  0  0  0  0  0
   17.4687   70.0244   -7.2144 C   0  0  2  0  0  0  0  0  0  0  0  0
   17.3390   70.1731  -10.6601 H   0  0  0  0  0  0  0  0  0  0  0  0
   15.6640   71.6520   -9.4162 H   0  0  0  0  0  0  0  0  0  0  0  0
   16.3022   68.0636   -5.5497 O   0  0  0  0  0  0  0  0  0  0  0  0
   15.6403   71.0917   -2.1385 O   0  0  0  0  0  0  0  0  0  0  0  0
   16.9830   70.2731   -5.8866 N   0  0  0  0  0  0  0  0  0  0  0  0
   15.9727   69.5739   -3.8527 N   0  0  0  0  0  0  0  0  0  0  0  0
   16.4142   69.2185   -5.1341 C   0  0  0  0  0  0  0  0  0  0  0  0
   17.0738   71.5484   -5.3424 C   0  0  0  0  0  0  0  0  0  0  0  0
   16.6488   71.8719   -4.1195 C   0  0  0  0  0  0  0  0  0  0  0  0
   16.0410   70.8282   -3.2682 C   0  0  0  0  0  0  0  0  0  0  0  0
   15.5712   68.8568   -3.3106 H   0  0  0  0  0  0  0  0  0  0  0  0
   22.2569   71.8244   -4.4557 O   0  0  0  0  0  0  0  0  0  0  0  0
   23.4850   72.0494   -3.4287 P   0  0  2  0  0  0  0  0  0  0  0  0
   24.4496   73.0768   -4.2250 O   0  0  0  0  0  0  0  0  0  0  0  0
   24.1599   70.7825   -2.9887 O   0  0  0  0  0  0  0  0  0  0  0  0
   22.8590   72.9263   -2.2280 O   0  0  0  0  0  0  0  0  0  0  0  0
   21.2468   72.0030   -0.7592 O   0  0  0  0  0  0  0  0  0  0  0  0
   20.6930   76.0552   -0.1753 O   0  0  0  0  0  0  0  0  0  0  0  0
   21.1051   74.9891   -2.8638 O   0  0  0  0  0  0  0  0  0  0  0  0
   22.0941   74.4715    1.8196 O   0  0  0  0  0  0  0  0  0  0  0  0
   21.4338   74.8693   -0.4631 C   0  0  2  0  0  0  0  0  0  0  0  0
   20.8578   74.1957   -1.7089 C   0  0  2  0  0  0  0  0  0  0  0  0
   21.3225   73.9372    0.7455 C   0  0  1  0  0  0  0  0  0  0  0  0
   21.4721   72.8105   -1.9153 C   0  0  1  0  0  0  0  0  0  0  0  0
   21.8411   72.5393    0.4207 C   0  0  1  0  0  0  0  0  0  0  0  0
   20.7492   76.6628   -0.9296 H   0  0  0  0  0  0  0  0  0  0  0  0
   20.7182   75.8696   -2.7396 H   0  0  0  0  0  0  0  0  0  0  0  0
   21.7742   75.3612    2.0362 H   0  0  0  0  0  0  0  0  0  0  0  0
   21.5420   70.2912    1.0191 O   0  0  0  0  0  0  0  0  0  0  0  0
   21.0529   71.8618    2.5981 O   0  0  0  0  0  0  0  0  0  0  0  0
   21.4324   71.5634    1.4756 C   0  0  0  0  0  0  0  0  0  0  0  0
  1  4  1  0
  1 24  1  0
  1  2  1  1
  1  3  2  0
 25 28  1  0
 25 24  1  0
 25 26  1  6
 25 27  2  0
  6 11  1  0
  6 12  1  0
 29 36  1  0
 29 37  1  0
  9  7  1  6
  7 13  1  0
 10  8  1  6
  8 14  1  0
  4  5  1  0
 36 28  1  1
 33 30  1  1
 30 38  1  0
 34 31  1  6
 31 39  1  0
 35 32  1  1
 32 40  1  0
 41 43  1  0
 15 19  2  0
 42 43  2  0
 16 22  2  0
 12 17  1  1
 17 19  1  0
 17 20  1  0
 18 19  1  0
 18 22  1  0
 18 23  1  0
  9 10  1  0
  9 11  1  0
 10 12  1  0
 11  5  1  1
 33 34  1  0
 33 35  1  0
 34 36  1  0
 35 37  1  0
 37 43  1  1
 20 21  2  0
 21 22  1  0
M  CHG  3   2  -1  26  -1  41  -1
M  END
>  <COMPND>  (99) 
    udp_gluA.pdb 

>  <AUTHOR>  (99) 
    GENERATED BY OPEN BABEL 3.1.1

>  <MASTER>  (99) 
        0    0    0    0    0    0    0    0   56    0   56    0

>  <minimizedAffinity>  (99) 
-8.36910

>  <CNNscore>  (99) 
0.6110260487

>  <CNNaffinity>  (99) 
4.4307112694

>  <CNN_VS>  (99) 
2.7072799206

>  <CNNaffinity_variance>  (99) 
0.4004879594

$$$$
100
     RDKit          3D

 43 45  0  0  0  0  0  0  0  0999 V2000
   22.7561   73.1108   -3.8200 P   0  0  2  0  0  0  0  0  0  0  0  0
   24.1419   72.4957   -4.3857 O   0  0  0  0  0  0  0  0  0  0  0  0
   22.7685   74.5936   -3.5895 O   0  0  0  0  0  0  0  0  0  0  0  0
   22.4280   72.2009   -2.5229 O   0  0  0  0  0  0  0  0  0  0  0  0
   23.1639   72.4270   -1.3347 C   0  0  0  0  0  0  0  0  0  0  0  0
   24.2012   71.1376    0.4086 O   0  0  0  0  0  0  0  0  0  0  0  0
   21.4826   69.9769    0.9121 O   0  0  0  0  0  0  0  0  0  0  0  0
   21.7141   71.8341    2.8952 O   0  0  0  0  0  0  0  0  0  0  0  0
   21.8412   71.3038    0.5257 C   0  0  1  0  0  0  0  0  0  0  0  0
   22.4371   72.0490    1.7012 C   0  0  2  0  0  0  0  0  0  0  0  0
   23.0256   71.2118   -0.4267 C   0  0  1  0  0  0  0  0  0  0  0  0
   23.8430   71.4762    1.7578 C   0  0  2  0  0  0  0  0  0  0  0  0
   20.7277   70.0099    1.5210 H   0  0  0  0  0  0  0  0  0  0  0  0
   20.8265   72.2170    2.8091 H   0  0  0  0  0  0  0  0  0  0  0  0
   26.4894   70.8211    2.4955 O   0  0  0  0  0  0  0  0  0  0  0  0
   27.4180   75.1666    3.7195 O   0  0  0  0  0  0  0  0  0  0  0  0
   24.7977   72.4170    2.2722 N   0  0  0  0  0  0  0  0  0  0  0  0
   26.9490   72.9858    3.1054 N   0  0  0  0  0  0  0  0  0  0  0  0
   26.1013   71.9850    2.6127 C   0  0  0  0  0  0  0  0  0  0  0  0
   24.4403   73.7501    2.4330 C   0  0  0  0  0  0  0  0  0  0  0  0
   25.2593   74.6926    2.9037 C   0  0  0  0  0  0  0  0  0  0  0  0
   26.6389   74.3243    3.2838 C   0  0  0  0  0  0  0  0  0  0  0  0
   27.8612   72.7087    3.3512 H   0  0  0  0  0  0  0  0  0  0  0  0
   21.6667   72.6068   -4.9025 O   0  0  0  0  0  0  0  0  0  0  0  0
   20.9806   73.3694   -6.1521 P   0  0  2  0  0  0  0  0  0  0  0  0
   22.0168   73.0975   -7.3655 O   0  0  0  0  0  0  0  0  0  0  0  0
   20.6878   74.8205   -5.9023 O   0  0  0  0  0  0  0  0  0  0  0  0
   19.6859   72.4779   -6.5148 O   0  0  0  0  0  0  0  0  0  0  0  0
   19.0621   70.3175   -5.7713 O   0  0  0  0  0  0  0  0  0  0  0  0
   17.5328   70.3601   -9.6090 O   0  0  0  0  0  0  0  0  0  0  0  0
   20.1804   71.4650   -9.0575 O   0  0  0  0  0  0  0  0  0  0  0  0
   15.7581   70.6702   -7.3275 O   0  0  0  0  0  0  0  0  0  0  0  0
   17.9228   70.9205   -8.3553 C   0  0  2  0  0  0  0  0  0  0  0  0
   19.4188   70.6931   -8.1362 C   0  0  2  0  0  0  0  0  0  0  0  0
   17.1128   70.2297   -7.2559 C   0  0  1  0  0  0  0  0  0  0  0  0
   19.8270   71.0722   -6.7120 C   0  0  1  0  0  0  0  0  0  0  0  0
   17.6603   70.5590   -5.8702 C   0  0  1  0  0  0  0  0  0  0  0  0
   18.0347   70.7839  -10.3230 H   0  0  0  0  0  0  0  0  0  0  0  0
   19.9263   71.2298   -9.9633 H   0  0  0  0  0  0  0  0  0  0  0  0
   15.3978   70.4666   -8.2048 H   0  0  0  0  0  0  0  0  0  0  0  0
   17.0453   70.2443   -3.6287 O   0  0  0  0  0  0  0  0  0  0  0  0
   16.7064   68.4981   -5.0552 O   0  0  0  0  0  0  0  0  0  0  0  0
   17.0880   69.6390   -4.8414 C   0  0  0  0  0  0  0  0  0  0  0  0
  1  4  1  0
  1 24  1  0
  1  2  1  6
  1  3  2  0
 25 28  1  0
 25 24  1  0
 25 26  1  6
 25 27  2  0
  6 11  1  0
  6 12  1  0
 29 36  1  0
 29 37  1  0
  9  7  1  1
  7 13  1  0
 10  8  1  1
  8 14  1  0
  4  5  1  0
 36 28  1  1
 33 30  1  6
 30 38  1  0
 34 31  1  6
 31 39  1  0
 35 32  1  1
 32 40  1  0
 41 43  1  0
 15 19  2  0
 42 43  2  0
 16 22  2  0
 12 17  1  6
 17 19  1  0
 17 20  1  0
 18 19  1  0
 18 22  1  0
 18 23  1  0
  9 10  1  0
  9 11  1  0
 10 12  1  0
 11  5  1  6
 33 34  1  0
 33 35  1  0
 34 36  1  0
 35 37  1  0
 37 43  1  1
 20 21  2  0
 21 22  1  0
M  CHG  3   2  -1  26  -1  41  -1
M  END
>  <COMPND>  (100) 
    udp_gluA.pdb 

>  <AUTHOR>  (100) 
    GENERATED BY OPEN BABEL 3.1.1

>  <MASTER>  (100) 
        0    0    0    0    0    0    0    0   56    0   56    0

>  <minimizedAffinity>  (100) 
-8.10694

>  <CNNscore>  (100) 
0.5171344876

>  <CNNaffinity>  (100) 
4.3379855156

>  <CNN_VS>  (100) 
2.2433218956

>  <CNNaffinity_variance>  (100) 
0.0852812529

$$$$
101
     RDKit          3D

 43 45  0  0  0  0  0  0  0  0999 V2000
   21.8053   72.5264   -4.7564 P   0  0  2  0  0  0  0  0  0  0  0  0
   20.9230   73.8669   -4.9652 O   0  0  0  0  0  0  0  0  0  0  0  0
   23.0415   72.4434   -5.6029 O   0  0  0  0  0  0  0  0  0  0  0  0
   20.7388   71.3253   -4.9506 O   0  0  0  0  0  0  0  0  0  0  0  0
   20.1198   70.7782   -3.8008 C   0  0  0  0  0  0  0  0  0  0  0  0
   18.3330   71.8163   -5.0285 O   0  0  0  0  0  0  0  0  0  0  0  0
   16.4952   70.6871   -2.9454 O   0  0  0  0  0  0  0  0  0  0  0  0
   16.1823   68.9477   -5.0221 O   0  0  0  0  0  0  0  0  0  0  0  0
   17.6794   70.1217   -3.5079 C   0  0  1  0  0  0  0  0  0  0  0  0
   17.4106   69.6368   -4.9168 C   0  0  2  0  0  0  0  0  0  0  0  0
   18.6729   71.2511   -3.7438 C   0  0  1  0  0  0  0  0  0  0  0  0
   17.4219   70.9355   -5.7049 C   0  0  2  0  0  0  0  0  0  0  0  0
   15.8452   69.9844   -2.7858 H   0  0  0  0  0  0  0  0  0  0  0  0
   16.2258   68.1284   -4.5036 H   0  0  0  0  0  0  0  0  0  0  0  0
   15.7257   70.2899   -7.8688 O   0  0  0  0  0  0  0  0  0  0  0  0
   19.2401   70.2550  -10.8506 O   0  0  0  0  0  0  0  0  0  0  0  0
   17.8673   70.7519   -7.0572 N   0  0  0  0  0  0  0  0  0  0  0  0
   17.4778   70.2721   -9.3517 N   0  0  0  0  0  0  0  0  0  0  0  0
   16.9336   70.4291   -8.0702 C   0  0  0  0  0  0  0  0  0  0  0  0
   19.2140   70.8932   -7.3692 C   0  0  0  0  0  0  0  0  0  0  0  0
   19.7178   70.7407   -8.5954 C   0  0  0  0  0  0  0  0  0  0  0  0
   18.8097   70.4019   -9.7107 C   0  0  0  0  0  0  0  0  0  0  0  0
   16.8475   70.0452  -10.0731 H   0  0  0  0  0  0  0  0  0  0  0  0
   22.0781   72.5161   -3.1632 O   0  0  0  0  0  0  0  0  0  0  0  0
   23.4222   72.2101   -2.3185 P   0  0  2  0  0  0  0  0  0  0  0  0
   24.2984   73.5567   -2.5171 O   0  0  0  0  0  0  0  0  0  0  0  0
   24.1285   70.9479   -2.7209 O   0  0  0  0  0  0  0  0  0  0  0  0
   22.9543   72.2527   -0.7753 O   0  0  0  0  0  0  0  0  0  0  0  0
   24.3454   71.1605    0.8000 O   0  0  0  0  0  0  0  0  0  0  0  0
   20.9137   71.7999    3.0097 O   0  0  0  0  0  0  0  0  0  0  0  0
   20.7425   70.9023    0.2349 O   0  0  0  0  0  0  0  0  0  0  0  0
   23.2596   73.4609    3.4441 O   0  0  0  0  0  0  0  0  0  0  0  0
   21.8936   72.0869    2.0120 C   0  0  2  0  0  0  0  0  0  0  0  0
   21.9424   70.9431    0.9986 C   0  0  2  0  0  0  0  0  0  0  0  0
   23.2476   72.2388    2.7088 C   0  0  1  0  0  0  0  0  0  0  0  0
   23.1313   71.1028    0.0501 C   0  0  1  0  0  0  0  0  0  0  0  0
   24.3930   72.2647    1.7009 C   0  0  1  0  0  0  0  0  0  0  0  0
   20.0447   71.6991    2.5902 H   0  0  0  0  0  0  0  0  0  0  0  0
   19.9839   70.8014    0.8305 H   0  0  0  0  0  0  0  0  0  0  0  0
   22.5352   73.4573    4.0891 H   0  0  0  0  0  0  0  0  0  0  0  0
   26.1641   70.8159    2.2165 O   0  0  0  0  0  0  0  0  0  0  0  0
   26.2978   72.9475    3.0149 O   0  0  0  0  0  0  0  0  0  0  0  0
   25.7075   72.0814    2.3869 C   0  0  0  0  0  0  0  0  0  0  0  0
  1  4  1  0
  1 24  1  0
  1  2  1  6
  1  3  2  0
 25 28  1  0
 25 24  1  0
 25 26  1  1
 25 27  2  0
  6 11  1  0
  6 12  1  0
 29 36  1  0
 29 37  1  0
  9  7  1  6
  7 13  1  0
 10  8  1  1
  8 14  1  0
  4  5  1  0
 36 28  1  1
 33 30  1  1
 30 38  1  0
 34 31  1  6
 31 39  1  0
 35 32  1  6
 32 40  1  0
 41 43  1  0
 15 19  2  0
 42 43  2  0
 16 22  2  0
 12 17  1  6
 17 19  1  0
 17 20  1  0
 18 19  1  0
 18 22  1  0
 18 23  1  0
  9 10  1  0
  9 11  1  0
 10 12  1  0
 11  5  1  6
 33 34  1  0
 33 35  1  0
 34 36  1  0
 35 37  1  0
 37 43  1  1
 20 21  2  0
 21 22  1  0
M  CHG  3   2  -1  26  -1  41  -1
M  END
>  <COMPND>  (101) 
    udp_gluA.pdb 

>  <AUTHOR>  (101) 
    GENERATED BY OPEN BABEL 3.1.1

>  <MASTER>  (101) 
        0    0    0    0    0    0    0    0   56    0   56    0

>  <minimizedAffinity>  (101) 
-8.47682

>  <CNNscore>  (101) 
0.9164956212

>  <CNNaffinity>  (101) 
4.7711448669

>  <CNN_VS>  (101) 
4.3727335930

>  <CNNaffinity_variance>  (101) 
0.0507790670

$$$$
102
     RDKit          3D

 43 45  0  0  0  0  0  0  0  0999 V2000
   22.9675   71.8354   -2.4759 P   0  0  2  0  0  0  0  0  0  0  0  0
   23.3377   73.2797   -1.8468 O   0  0  0  0  0  0  0  0  0  0  0  0
   24.0556   71.2026   -3.2930 O   0  0  0  0  0  0  0  0  0  0  0  0
   21.5695   72.0946   -3.2480 O   0  0  0  0  0  0  0  0  0  0  0  0
   20.8294   70.9757   -3.7006 C   0  0  0  0  0  0  0  0  0  0  0  0
   18.7774   71.7611   -4.6753 O   0  0  0  0  0  0  0  0  0  0  0  0
   17.3850   70.3407   -2.4314 O   0  0  0  0  0  0  0  0  0  0  0  0
   17.0770   68.6088   -4.5150 O   0  0  0  0  0  0  0  0  0  0  0  0
   18.5616   69.9641   -3.1471 C   0  0  1  0  0  0  0  0  0  0  0  0
   18.1974   69.4685   -4.5306 C   0  0  2  0  0  0  0  0  0  0  0  0
   19.3472   71.2306   -3.4590 C   0  0  1  0  0  0  0  0  0  0  0  0
   17.9273   70.7677   -5.2701 C   0  0  2  0  0  0  0  0  0  0  0  0
   16.8666   69.5478   -2.2208 H   0  0  0  0  0  0  0  0  0  0  0  0
   17.2997   67.7962   -4.0332 H   0  0  0  0  0  0  0  0  0  0  0  0
   16.0225   70.1968   -7.2757 O   0  0  0  0  0  0  0  0  0  0  0  0
   19.1946   70.4318  -10.6114 O   0  0  0  0  0  0  0  0  0  0  0  0
   18.2282   70.6738   -6.6707 N   0  0  0  0  0  0  0  0  0  0  0  0
   17.6044   70.3134   -8.9350 N   0  0  0  0  0  0  0  0  0  0  0  0
   17.1982   70.3820   -7.5959 C   0  0  0  0  0  0  0  0  0  0  0  0
   19.5299   70.8713   -7.1152 C   0  0  0  0  0  0  0  0  0  0  0  0
   19.9018   70.8028   -8.3950 C   0  0  0  0  0  0  0  0  0  0  0  0
   18.8865   70.5016   -9.4254 C   0  0  0  0  0  0  0  0  0  0  0  0
   16.9052   70.1095   -9.5975 H   0  0  0  0  0  0  0  0  0  0  0  0
   22.5144   70.9807   -1.1808 O   0  0  0  0  0  0  0  0  0  0  0  0
   21.7892   71.4358    0.1905 P   0  0  2  0  0  0  0  0  0  0  0  0
   21.4314   70.0278    0.9046 O   0  0  0  0  0  0  0  0  0  0  0  0
   20.6114   72.3453   -0.0082 O   0  0  0  0  0  0  0  0  0  0  0  0
   22.9727   72.0602    1.0917 O   0  0  0  0  0  0  0  0  0  0  0  0
   24.7315   71.4240    2.5446 O   0  0  0  0  0  0  0  0  0  0  0  0
   22.6660   74.1461    4.8666 O   0  0  0  0  0  0  0  0  0  0  0  0
   21.2258   72.1826    3.2526 O   0  0  0  0  0  0  0  0  0  0  0  0
   25.1814   74.9027    3.6211 O   0  0  0  0  0  0  0  0  0  0  0  0
   23.1665   73.5821    3.6544 C   0  0  2  0  0  0  0  0  0  0  0  0
   22.6284   72.1604    3.4911 C   0  0  2  0  0  0  0  0  0  0  0  0
   24.6946   73.5669    3.7355 C   0  0  1  0  0  0  0  0  0  0  0  0
   23.3197   71.4437    2.3303 C   0  0  1  0  0  0  0  0  0  0  0  0
   25.3035   72.7282    2.6155 C   0  0  1  0  0  0  0  0  0  0  0  0
   21.6964   74.1661    4.8380 H   0  0  0  0  0  0  0  0  0  0  0  0
   20.7809   72.6361    3.9852 H   0  0  0  0  0  0  0  0  0  0  0  0
   24.8012   75.4471    4.3281 H   0  0  0  0  0  0  0  0  0  0  0  0
   27.0374   71.1487    2.6291 O   0  0  0  0  0  0  0  0  0  0  0  0
   27.5576   73.2699    3.2841 O   0  0  0  0  0  0  0  0  0  0  0  0
   26.7457   72.4477    2.8869 C   0  0  0  0  0  0  0  0  0  0  0  0
  1  4  1  0
  1 24  1  0
  1  2  1  1
  1  3  2  0
 25 28  1  0
 25 24  1  0
 25 26  1  1
 25 27  2  0
  6 11  1  0
  6 12  1  0
 29 36  1  0
 29 37  1  0
  9  7  1  1
  7 13  1  0
 10  8  1  1
  8 14  1  0
  4  5  1  0
 36 28  1  6
 33 30  1  1
 30 38  1  0
 34 31  1  6
 31 39  1  0
 35 32  1  6
 32 40  1  0
 41 43  1  0
 15 19  2  0
 42 43  2  0
 16 22  2  0
 12 17  1  6
 17 19  1  0
 17 20  1  0
 18 19  1  0
 18 22  1  0
 18 23  1  0
  9 10  1  0
  9 11  1  0
 10 12  1  0
 11  5  1  6
 33 34  1  0
 33 35  1  0
 34 36  1  0
 35 37  1  0
 37 43  1  1
 20 21  2  0
 21 22  1  0
M  CHG  3   2  -1  26  -1  41  -1
M  END
>  <COMPND>  (102) 
    udp_gluA.pdb 

>  <AUTHOR>  (102) 
    GENERATED BY OPEN BABEL 3.1.1

>  <MASTER>  (102) 
        0    0    0    0    0    0    0    0   56    0   56    0

>  <minimizedAffinity>  (102) 
-8.17152

>  <CNNscore>  (102) 
0.9060132504

>  <CNNaffinity>  (102) 
4.7517743111

>  <CNN_VS>  (102) 
4.3051705360

>  <CNNaffinity_variance>  (102) 
0.0749877468

$$$$
103
     RDKit          3D

 43 45  0  0  0  0  0  0  0  0999 V2000
   21.3874   73.0254   -5.1016 P   0  0  2  0  0  0  0  0  0  0  0  0
   21.6218   74.5764   -4.7035 O   0  0  0  0  0  0  0  0  0  0  0  0
   21.9255   72.6278   -6.4447 O   0  0  0  0  0  0  0  0  0  0  0  0
   19.7987   72.8053   -4.8878 O   0  0  0  0  0  0  0  0  0  0  0  0
   19.3692   71.9402   -3.8526 C   0  0  0  0  0  0  0  0  0  0  0  0
   17.4559   72.0066   -5.3060 O   0  0  0  0  0  0  0  0  0  0  0  0
   16.0194   70.4559   -3.1792 O   0  0  0  0  0  0  0  0  0  0  0  0
   16.6534   68.5258   -4.9982 O   0  0  0  0  0  0  0  0  0  0  0  0
   17.3831   70.3716   -3.5936 C   0  0  1  0  0  0  0  0  0  0  0  0
   17.4821   69.6674   -4.9302 C   0  0  2  0  0  0  0  0  0  0  0  0
   17.8572   71.7769   -3.9380 C   0  0  1  0  0  0  0  0  0  0  0  0
   17.0529   70.7598   -5.8948 C   0  0  2  0  0  0  0  0  0  0  0  0
   15.6942   69.5698   -2.9539 H   0  0  0  0  0  0  0  0  0  0  0  0
   16.9679   67.8599   -4.3661 H   0  0  0  0  0  0  0  0  0  0  0  0
   15.6508   70.7272   -8.3462 O   0  0  0  0  0  0  0  0  0  0  0  0
   19.5399   70.2533  -10.7739 O   0  0  0  0  0  0  0  0  0  0  0  0
   17.6742   70.6291   -7.1823 N   0  0  0  0  0  0  0  0  0  0  0  0
   17.5890   70.4902   -9.5529 N   0  0  0  0  0  0  0  0  0  0  0  0
   16.8789   70.6239   -8.3526 C   0  0  0  0  0  0  0  0  0  0  0  0
   19.0554   70.5097   -7.2771 C   0  0  0  0  0  0  0  0  0  0  0  0
   19.7181   70.3831   -8.4284 C   0  0  0  0  0  0  0  0  0  0  0  0
   18.9615   70.3677   -9.6975 C   0  0  0  0  0  0  0  0  0  0  0  0
   17.0566   70.4818  -10.3811 H   0  0  0  0  0  0  0  0  0  0  0  0
   22.0358   72.2285   -3.8536 O   0  0  0  0  0  0  0  0  0  0  0  0
   23.5420   72.2207   -3.2663 P   0  0  2  0  0  0  0  0  0  0  0  0
   24.3693   73.0825   -4.3586 O   0  0  0  0  0  0  0  0  0  0  0  0
   24.0967   70.8490   -3.0119 O   0  0  0  0  0  0  0  0  0  0  0  0
   23.4779   73.1693   -1.9630 O   0  0  0  0  0  0  0  0  0  0  0  0
   21.6661   72.5631   -0.5635 O   0  0  0  0  0  0  0  0  0  0  0  0
   23.1200   75.9228    1.3514 O   0  0  0  0  0  0  0  0  0  0  0  0
   22.8948   75.8590   -1.5606 O   0  0  0  0  0  0  0  0  0  0  0  0
   23.6614   73.2786    2.4313 O   0  0  0  0  0  0  0  0  0  0  0  0
   23.2001   74.7329    0.5667 C   0  0  2  0  0  0  0  0  0  0  0  0
   22.3358   74.8864   -0.6851 C   0  0  2  0  0  0  0  0  0  0  0  0
   22.6965   73.5678    1.4215 C   0  0  1  0  0  0  0  0  0  0  0  0
   22.2125   73.5571   -1.4312 C   0  0  1  0  0  0  0  0  0  0  0  0
   22.4793   72.3130    0.5807 C   0  0  1  0  0  0  0  0  0  0  0  0
   23.4350   76.6769    0.8286 H   0  0  0  0  0  0  0  0  0  0  0  0
   22.9762   76.7049   -1.0936 H   0  0  0  0  0  0  0  0  0  0  0  0
   23.8090   74.0693    2.9735 H   0  0  0  0  0  0  0  0  0  0  0  0
   21.0248   71.8778    2.3686 O   0  0  0  0  0  0  0  0  0  0  0  0
   21.6395   70.1053    1.0726 O   0  0  0  0  0  0  0  0  0  0  0  0
   21.6887   71.2969    1.3387 C   0  0  0  0  0  0  0  0  0  0  0  0
  1  4  1  0
  1 24  1  0
  1  2  1  1
  1  3  2  0
 25 28  1  0
 25 24  1  0
 25 26  1  6
 25 27  2  0
  6 11  1  0
  6 12  1  0
 29 36  1  0
 29 37  1  0
  9  7  1  6
  7 13  1  0
 10  8  1  1
  8 14  1  0
  4  5  1  0
 36 28  1  1
 33 30  1  1
 30 38  1  0
 34 31  1  6
 31 39  1  0
 35 32  1  1
 32 40  1  0
 41 43  1  0
 15 19  2  0
 42 43  2  0
 16 22  2  0
 12 17  1  6
 17 19  1  0
 17 20  1  0
 18 19  1  0
 18 22  1  0
 18 23  1  0
  9 10  1  0
  9 11  1  0
 10 12  1  0
 11  5  1  6
 33 34  1  0
 33 35  1  0
 34 36  1  0
 35 37  1  0
 37 43  1  1
 20 21  2  0
 21 22  1  0
M  CHG  3   2  -1  26  -1  41  -1
M  END
>  <COMPND>  (103) 
    udp_gluA.pdb 

>  <AUTHOR>  (103) 
    GENERATED BY OPEN BABEL 3.1.1

>  <MASTER>  (103) 
        0    0    0    0    0    0    0    0   56    0   56    0

>  <minimizedAffinity>  (103) 
-8.09824

>  <CNNscore>  (103) 
0.8726061583

>  <CNNaffinity>  (103) 
4.6512269974

>  <CNN_VS>  (103) 
4.0586891174

>  <CNNaffinity_variance>  (103) 
0.0816505700

$$$$
104
     RDKit          3D

 43 45  0  0  0  0  0  0  0  0999 V2000
   22.6230   71.3820   -2.6610 P   0  0  2  0  0  0  0  0  0  0  0  0
   24.0683   70.8008   -3.0996 O   0  0  0  0  0  0  0  0  0  0  0  0
   22.1389   70.9267   -1.3156 O   0  0  0  0  0  0  0  0  0  0  0  0
   21.6630   71.0208   -3.9124 O   0  0  0  0  0  0  0  0  0  0  0  0
   20.7033   69.9921   -3.7534 C   0  0  0  0  0  0  0  0  0  0  0  0
   18.9640   71.3756   -4.6689 O   0  0  0  0  0  0  0  0  0  0  0  0
   17.1863   70.2228   -2.5471 O   0  0  0  0  0  0  0  0  0  0  0  0
   16.4712   68.8004   -4.7610 O   0  0  0  0  0  0  0  0  0  0  0  0
   18.2340   69.5957   -3.2870 C   0  0  1  0  0  0  0  0  0  0  0  0
   17.7823   69.3223   -4.7061 C   0  0  2  0  0  0  0  0  0  0  0  0
   19.3399   70.6209   -3.4966 C   0  0  1  0  0  0  0  0  0  0  0  0
   17.8914   70.6976   -5.3421 C   0  0  2  0  0  0  0  0  0  0  0  0
   16.4679   69.5870   -2.4008 H   0  0  0  0  0  0  0  0  0  0  0  0
   16.4543   67.9242   -4.3437 H   0  0  0  0  0  0  0  0  0  0  0  0
   15.9541   70.3569   -7.3688 O   0  0  0  0  0  0  0  0  0  0  0  0
   19.1474   70.4542  -10.6910 O   0  0  0  0  0  0  0  0  0  0  0  0
   18.1889   70.6305   -6.7449 N   0  0  0  0  0  0  0  0  0  0  0  0
   17.5465   70.4047   -9.0215 N   0  0  0  0  0  0  0  0  0  0  0  0
   17.1421   70.4573   -7.6810 C   0  0  0  0  0  0  0  0  0  0  0  0
   19.5040   70.7375   -7.1809 C   0  0  0  0  0  0  0  0  0  0  0  0
   19.8740   70.6856   -8.4620 C   0  0  0  0  0  0  0  0  0  0  0  0
   18.8415   70.5056   -9.5036 C   0  0  0  0  0  0  0  0  0  0  0  0
   16.8356   70.2826   -9.6915 H   0  0  0  0  0  0  0  0  0  0  0  0
   22.8169   72.9806   -2.8013 O   0  0  0  0  0  0  0  0  0  0  0  0
   21.7343   74.1723   -2.9481 P   0  0  2  0  0  0  0  0  0  0  0  0
   22.3691   75.3612   -2.0515 O   0  0  0  0  0  0  0  0  0  0  0  0
   20.3362   73.7852   -2.5614 O   0  0  0  0  0  0  0  0  0  0  0  0
   21.8909   74.6823   -4.4705 O   0  0  0  0  0  0  0  0  0  0  0  0
   20.1949   74.8901   -6.1104 O   0  0  0  0  0  0  0  0  0  0  0  0
   23.5312   74.1697   -8.4381 O   0  0  0  0  0  0  0  0  0  0  0  0
   23.0982   72.6727   -5.9671 O   0  0  0  0  0  0  0  0  0  0  0  0
   22.4289   76.8537   -8.2589 O   0  0  0  0  0  0  0  0  0  0  0  0
   22.8116   74.6716   -7.3119 C   0  0  2  0  0  0  0  0  0  0  0  0
   22.1295   73.5135   -6.5831 C   0  0  2  0  0  0  0  0  0  0  0  0
   21.7679   75.6673   -7.8230 C   0  0  1  0  0  0  0  0  0  0  0  0
   21.1672   74.0314   -5.5132 C   0  0  1  0  0  0  0  0  0  0  0  0
   20.7699   76.0384   -6.7300 C   0  0  1  0  0  0  0  0  0  0  0  0
   24.2003   73.5347   -8.1377 H   0  0  0  0  0  0  0  0  0  0  0  0
   23.7123   72.3407   -6.6402 H   0  0  0  0  0  0  0  0  0  0  0  0
   23.0671   76.6313   -8.9546 H   0  0  0  0  0  0  0  0  0  0  0  0
   18.5817   76.8155   -6.3991 O   0  0  0  0  0  0  0  0  0  0  0  0
   19.5163   77.1797   -8.4468 O   0  0  0  0  0  0  0  0  0  0  0  0
   19.5830   76.7363   -7.3102 C   0  0  0  0  0  0  0  0  0  0  0  0
  1  4  1  0
  1 24  1  0
  1  2  1  6
  1  3  2  0
 25 28  1  0
 25 24  1  0
 25 26  1  1
 25 27  2  0
  6 11  1  0
  6 12  1  0
 29 36  1  0
 29 37  1  0
  9  7  1  1
  7 13  1  0
 10  8  1  1
  8 14  1  0
  4  5  1  0
 36 28  1  1
 33 30  1  6
 30 38  1  0
 34 31  1  1
 31 39  1  0
 35 32  1  1
 32 40  1  0
 41 43  1  0
 15 19  2  0
 42 43  2  0
 16 22  2  0
 12 17  1  6
 17 19  1  0
 17 20  1  0
 18 19  1  0
 18 22  1  0
 18 23  1  0
  9 10  1  0
  9 11  1  0
 10 12  1  0
 11  5  1  6
 33 34  1  0
 33 35  1  0
 34 36  1  0
 35 37  1  0
 37 43  1  6
 20 21  2  0
 21 22  1  0
M  CHG  3   2  -1  26  -1  41  -1
M  END
>  <COMPND>  (104) 
    udp_gluA.pdb 

>  <AUTHOR>  (104) 
    GENERATED BY OPEN BABEL 3.1.1

>  <MASTER>  (104) 
        0    0    0    0    0    0    0    0   56    0   56    0

>  <minimizedAffinity>  (104) 
-7.09880

>  <CNNscore>  (104) 
0.8605176806

>  <CNNaffinity>  (104) 
4.6532201767

>  <CNN_VS>  (104) 
4.0041780472

>  <CNNaffinity_variance>  (104) 
0.3752849996

$$$$
105
     RDKit          3D

 43 45  0  0  0  0  0  0  0  0999 V2000
   20.4615   71.2009   -1.3340 P   0  0  2  0  0  0  0  0  0  0  0  0
   20.7440   70.5019    0.0980 O   0  0  0  0  0  0  0  0  0  0  0  0
   20.0503   72.6424   -1.2652 O   0  0  0  0  0  0  0  0  0  0  0  0
   19.4092   70.2036   -2.0523 O   0  0  0  0  0  0  0  0  0  0  0  0
   19.1272   70.3940   -3.4266 C   0  0  0  0  0  0  0  0  0  0  0  0
   17.4741   71.4027   -4.8504 O   0  0  0  0  0  0  0  0  0  0  0  0
   15.4426   69.8694   -3.2651 O   0  0  0  0  0  0  0  0  0  0  0  0
   15.6884   68.3687   -5.5286 O   0  0  0  0  0  0  0  0  0  0  0  0
   16.7616   69.4861   -3.6547 C   0  0  1  0  0  0  0  0  0  0  0  0
   16.7954   69.1501   -5.1305 C   0  0  2  0  0  0  0  0  0  0  0  0
   17.6486   70.7219   -3.5889 C   0  0  1  0  0  0  0  0  0  0  0  0
   16.7973   70.5290   -5.7680 C   0  0  2  0  0  0  0  0  0  0  0  0
   14.8574   69.0960   -3.2993 H   0  0  0  0  0  0  0  0  0  0  0  0
   15.7330   67.5009   -5.0963 H   0  0  0  0  0  0  0  0  0  0  0  0
   15.5187   70.5990   -8.2853 O   0  0  0  0  0  0  0  0  0  0  0  0
   19.5426   70.6058  -10.5330 O   0  0  0  0  0  0  0  0  0  0  0  0
   17.4867   70.5497   -7.0270 N   0  0  0  0  0  0  0  0  0  0  0  0
   17.5241   70.6013   -9.4024 N   0  0  0  0  0  0  0  0  0  0  0  0
   16.7500   70.5844   -8.2346 C   0  0  0  0  0  0  0  0  0  0  0  0
   18.8759   70.5374   -7.0574 C   0  0  0  0  0  0  0  0  0  0  0  0
   19.5998   70.5538   -8.1784 C   0  0  0  0  0  0  0  0  0  0  0  0
   18.9071   70.5894   -9.4831 C   0  0  0  0  0  0  0  0  0  0  0  0
   17.0334   70.6234  -10.2557 H   0  0  0  0  0  0  0  0  0  0  0  0
   21.8321   70.9297   -2.1469 O   0  0  0  0  0  0  0  0  0  0  0  0
   23.2996   71.5927   -2.0042 P   0  0  2  0  0  0  0  0  0  0  0  0
   24.2021   70.7161   -3.0228 O   0  0  0  0  0  0  0  0  0  0  0  0
   23.8213   71.6369   -0.5972 O   0  0  0  0  0  0  0  0  0  0  0  0
   23.1680   73.0349   -2.7150 O   0  0  0  0  0  0  0  0  0  0  0  0
   23.6830   73.2083   -5.0202 O   0  0  0  0  0  0  0  0  0  0  0  0
   23.7018   77.1717   -3.8542 O   0  0  0  0  0  0  0  0  0  0  0  0
   24.9185   75.1245   -2.1622 O   0  0  0  0  0  0  0  0  0  0  0  0
   21.4566   76.1047   -5.3614 O   0  0  0  0  0  0  0  0  0  0  0  0
   23.2868   75.8061   -3.8231 C   0  0  2  0  0  0  0  0  0  0  0  0
   24.4859   74.9140   -3.5013 C   0  0  2  0  0  0  0  0  0  0  0  0
   22.7154   75.4541   -5.1985 C   0  0  1  0  0  0  0  0  0  0  0  0
   24.1339   73.4371   -3.6846 C   0  0  1  0  0  0  0  0  0  0  0  0
   22.5097   73.9495   -5.3478 C   0  0  1  0  0  0  0  0  0  0  0  0
   24.0685   77.4180   -2.9904 H   0  0  0  0  0  0  0  0  0  0  0  0
   25.1433   76.0597   -2.0387 H   0  0  0  0  0  0  0  0  0  0  0  0
   21.5736   77.0631   -5.2685 H   0  0  0  0  0  0  0  0  0  0  0  0
   20.9481   73.6340   -7.0692 O   0  0  0  0  0  0  0  0  0  0  0  0
   23.1431   73.2876   -7.5799 O   0  0  0  0  0  0  0  0  0  0  0  0
   22.2715   73.5859   -6.7773 C   0  0  0  0  0  0  0  0  0  0  0  0
  1  4  1  0
  1 24  1  0
  1  2  1  1
  1  3  2  0
 25 28  1  0
 25 24  1  0
 25 26  1  6
 25 27  2  0
  6 11  1  0
  6 12  1  0
 29 36  1  0
 29 37  1  0
  9  7  1  6
  7 13  1  0
 10  8  1  6
  8 14  1  0
  4  5  1  0
 36 28  1  1
 33 30  1  6
 30 38  1  0
 34 31  1  1
 31 39  1  0
 35 32  1  1
 32 40  1  0
 41 43  1  0
 15 19  2  0
 42 43  2  0
 16 22  2  0
 12 17  1  6
 17 19  1  0
 17 20  1  0
 18 19  1  0
 18 22  1  0
 18 23  1  0
  9 10  1  0
  9 11  1  0
 10 12  1  0
 11  5  1  6
 33 34  1  0
 33 35  1  0
 34 36  1  0
 35 37  1  0
 37 43  1  6
 20 21  2  0
 21 22  1  0
M  CHG  3   2  -1  26  -1  41  -1
M  END
>  <COMPND>  (105) 
    udp_gluA.pdb 

>  <AUTHOR>  (105) 
    GENERATED BY OPEN BABEL 3.1.1

>  <MASTER>  (105) 
        0    0    0    0    0    0    0    0   56    0   56    0

>  <minimizedAffinity>  (105) 
-8.27095

>  <CNNscore>  (105) 
0.8384589553

>  <CNNaffinity>  (105) 
4.6392993927

>  <CNN_VS>  (105) 
3.8898620605

>  <CNNaffinity_variance>  (105) 
0.2848981023

$$$$
106
     RDKit          3D

 43 45  0  0  0  0  0  0  0  0999 V2000
   20.4932   71.2708   -1.0873 P   0  0  2  0  0  0  0  0  0  0  0  0
   20.9035   70.4064    0.2178 O   0  0  0  0  0  0  0  0  0  0  0  0
   20.1011   72.6921   -0.8083 O   0  0  0  0  0  0  0  0  0  0  0  0
   19.3707   70.3627   -1.8176 O   0  0  0  0  0  0  0  0  0  0  0  0
   19.0734   70.6194   -3.1778 C   0  0  0  0  0  0  0  0  0  0  0  0
   17.3558   71.5656   -4.5678 O   0  0  0  0  0  0  0  0  0  0  0  0
   15.4216   69.9082   -2.9855 O   0  0  0  0  0  0  0  0  0  0  0  0
   15.7163   68.4565   -5.2750 O   0  0  0  0  0  0  0  0  0  0  0  0
   16.7536   69.5976   -3.3951 C   0  0  1  0  0  0  0  0  0  0  0  0
   16.7874   69.2863   -4.8764 C   0  0  2  0  0  0  0  0  0  0  0  0
   17.5784   70.8752   -3.3192 C   0  0  1  0  0  0  0  0  0  0  0  0
   16.7131   70.6732   -5.4919 C   0  0  2  0  0  0  0  0  0  0  0  0
   14.8755   69.1070   -3.0257 H   0  0  0  0  0  0  0  0  0  0  0  0
   15.8092   67.5855   -4.8570 H   0  0  0  0  0  0  0  0  0  0  0  0
   15.6178   71.8507   -7.8136 O   0  0  0  0  0  0  0  0  0  0  0  0
   19.3856   70.9023  -10.2932 O   0  0  0  0  0  0  0  0  0  0  0  0
   17.3861   70.7477   -6.7577 N   0  0  0  0  0  0  0  0  0  0  0  0
   17.4950   71.3763   -9.0467 N   0  0  0  0  0  0  0  0  0  0  0  0
   16.7474   71.3601   -7.8618 C   0  0  0  0  0  0  0  0  0  0  0  0
   18.6641   70.2198   -6.8959 C   0  0  0  0  0  0  0  0  0  0  0  0
   19.3642   70.2428   -8.0317 C   0  0  0  0  0  0  0  0  0  0  0  0
   18.7687   70.8638   -9.2330 C   0  0  0  0  0  0  0  0  0  0  0  0
   17.0703   71.7957   -9.8297 H   0  0  0  0  0  0  0  0  0  0  0  0
   21.7794   71.1041   -2.0520 O   0  0  0  0  0  0  0  0  0  0  0  0
   23.2183   71.8411   -2.0394 P   0  0  2  0  0  0  0  0  0  0  0  0
   24.1250   70.8985   -2.9933 O   0  0  0  0  0  0  0  0  0  0  0  0
   23.7859   72.0603   -0.6670 O   0  0  0  0  0  0  0  0  0  0  0  0
   22.9944   73.1905   -2.8947 O   0  0  0  0  0  0  0  0  0  0  0  0
   20.9892   74.2860   -3.5175 O   0  0  0  0  0  0  0  0  0  0  0  0
   23.4447   75.1378   -6.7288 O   0  0  0  0  0  0  0  0  0  0  0  0
   23.4277   72.4670   -5.5452 O   0  0  0  0  0  0  0  0  0  0  0  0
   22.8805   77.1824   -4.7408 O   0  0  0  0  0  0  0  0  0  0  0  0
   23.1333   74.8682   -5.3619 C   0  0  2  0  0  0  0  0  0  0  0  0
   22.4835   73.4891   -5.2475 C   0  0  2  0  0  0  0  0  0  0  0  0
   22.1702   75.9526   -4.8736 C   0  0  1  0  0  0  0  0  0  0  0  0
   21.9291   73.2605   -3.8406 C   0  0  1  0  0  0  0  0  0  0  0  0
   21.5638   75.5910   -3.5208 C   0  0  1  0  0  0  0  0  0  0  0  0
   24.0557   74.4613   -7.0609 H   0  0  0  0  0  0  0  0  0  0  0  0
   23.7837   72.6060   -6.4364 H   0  0  0  0  0  0  0  0  0  0  0  0
   23.2715   77.4238   -5.5949 H   0  0  0  0  0  0  0  0  0  0  0  0
   19.3260   76.1328   -3.9682 O   0  0  0  0  0  0  0  0  0  0  0  0
   20.4002   77.3737   -2.3853 O   0  0  0  0  0  0  0  0  0  0  0  0
   20.3978   76.4718   -3.2097 C   0  0  0  0  0  0  0  0  0  0  0  0
  1  4  1  0
  1 24  1  0
  1  2  1  1
  1  3  2  0
 25 28  1  0
 25 24  1  0
 25 26  1  6
 25 27  2  0
  6 11  1  0
  6 12  1  0
 29 36  1  0
 29 37  1  0
  9  7  1  6
  7 13  1  0
 10  8  1  6
  8 14  1  0
  4  5  1  0
 36 28  1  1
 33 30  1  6
 30 38  1  0
 34 31  1  1
 31 39  1  0
 35 32  1  1
 32 40  1  0
 41 43  1  0
 15 19  2  0
 42 43  2  0
 16 22  2  0
 12 17  1  6
 17 19  1  0
 17 20  1  0
 18 19  1  0
 18 22  1  0
 18 23  1  0
  9 10  1  0
  9 11  1  0
 10 12  1  0
 11  5  1  6
 33 34  1  0
 33 35  1  0
 34 36  1  0
 35 37  1  0
 37 43  1  6
 20 21  2  0
 21 22  1  0
M  CHG  3   2  -1  26  -1  41  -1
M  END
>  <COMPND>  (106) 
    udp_gluA.pdb 

>  <AUTHOR>  (106) 
    GENERATED BY OPEN BABEL 3.1.1

>  <MASTER>  (106) 
        0    0    0    0    0    0    0    0   56    0   56    0

>  <minimizedAffinity>  (106) 
-7.34520

>  <CNNscore>  (106) 
0.8375320435

>  <CNNaffinity>  (106) 
4.7522034645

>  <CNN_VS>  (106) 
3.9801225662

>  <CNNaffinity_variance>  (106) 
0.3513929546

$$$$
107
     RDKit          3D

 43 45  0  0  0  0  0  0  0  0999 V2000
   23.0707   72.2454   -3.8010 P   0  0  2  0  0  0  0  0  0  0  0  0
   23.6423   72.9378   -5.1474 O   0  0  0  0  0  0  0  0  0  0  0  0
   23.9408   71.1673   -3.2245 O   0  0  0  0  0  0  0  0  0  0  0  0
   21.5689   71.7966   -4.2025 O   0  0  0  0  0  0  0  0  0  0  0  0
   20.9936   70.6879   -3.5358 C   0  0  0  0  0  0  0  0  0  0  0  0
   18.9471   71.5873   -4.4193 O   0  0  0  0  0  0  0  0  0  0  0  0
   17.5649   70.1418   -2.1851 O   0  0  0  0  0  0  0  0  0  0  0  0
   17.1275   68.4998   -4.3178 O   0  0  0  0  0  0  0  0  0  0  0  0
   18.7042   69.7460   -2.9492 C   0  0  1  0  0  0  0  0  0  0  0  0
   18.2804   69.3152   -4.3374 C   0  0  2  0  0  0  0  0  0  0  0  0
   19.5303   70.9914   -3.2404 C   0  0  1  0  0  0  0  0  0  0  0  0
   18.0410   70.6499   -5.0224 C   0  0  2  0  0  0  0  0  0  0  0  0
   17.0216   69.3626   -1.9868 H   0  0  0  0  0  0  0  0  0  0  0  0
   17.3314   67.6623   -3.8717 H   0  0  0  0  0  0  0  0  0  0  0  0
   16.1560   69.8178   -6.9540 O   0  0  0  0  0  0  0  0  0  0  0  0
   19.1329   70.4794  -10.4100 O   0  0  0  0  0  0  0  0  0  0  0  0
   18.2970   70.5951   -6.4339 N   0  0  0  0  0  0  0  0  0  0  0  0
   17.6408   70.1472   -8.6733 N   0  0  0  0  0  0  0  0  0  0  0  0
   17.2816   70.1622   -7.3192 C   0  0  0  0  0  0  0  0  0  0  0  0
   19.5408   70.9688   -6.9282 C   0  0  0  0  0  0  0  0  0  0  0  0
   19.8683   70.9492   -8.2217 C   0  0  0  0  0  0  0  0  0  0  0  0
   18.8647   70.5088   -9.2128 C   0  0  0  0  0  0  0  0  0  0  0  0
   16.9510   69.8475   -9.3086 H   0  0  0  0  0  0  0  0  0  0  0  0
   22.8232   73.5069   -2.8211 O   0  0  0  0  0  0  0  0  0  0  0  0
   23.8630   74.5328   -2.1282 P   0  0  2  0  0  0  0  0  0  0  0  0
   22.9382   75.8128   -1.7725 O   0  0  0  0  0  0  0  0  0  0  0  0
   25.0649   74.8528   -2.9690 O   0  0  0  0  0  0  0  0  0  0  0  0
   24.2039   73.8669   -0.6989 O   0  0  0  0  0  0  0  0  0  0  0  0
   22.4380   73.4463    0.8222 O   0  0  0  0  0  0  0  0  0  0  0  0
   25.7479   73.1686    3.2790 O   0  0  0  0  0  0  0  0  0  0  0  0
   25.5684   75.2813    1.2692 O   0  0  0  0  0  0  0  0  0  0  0  0
   24.3673   70.7613    2.4131 O   0  0  0  0  0  0  0  0  0  0  0  0
   25.0185   73.0535    2.0572 C   0  0  2  0  0  0  0  0  0  0  0  0
   24.4928   74.4283    1.6436 C   0  0  2  0  0  0  0  0  0  0  0  0
   23.8552   72.0869    2.2901 C   0  0  1  0  0  0  0  0  0  0  0  0
   23.5186   74.3113    0.4705 C   0  0  1  0  0  0  0  0  0  0  0  0
   22.8623   72.1207    1.1319 C   0  0  1  0  0  0  0  0  0  0  0  0
   26.4923   73.7783    3.1551 H   0  0  0  0  0  0  0  0  0  0  0  0
   26.1907   75.3598    2.0088 H   0  0  0  0  0  0  0  0  0  0  0  0
   25.0008   70.7262    3.1468 H   0  0  0  0  0  0  0  0  0  0  0  0
   21.5786   70.1590    1.0594 O   0  0  0  0  0  0  0  0  0  0  0  0
   20.6727   71.9557    2.1319 O   0  0  0  0  0  0  0  0  0  0  0  0
   21.5866   71.4391    1.5067 C   0  0  0  0  0  0  0  0  0  0  0  0
  1  4  1  0
  1 24  1  0
  1  2  1  6
  1  3  2  0
 25 28  1  0
 25 24  1  0
 25 26  1  1
 25 27  2  0
  6 11  1  0
  6 12  1  0
 29 36  1  0
 29 37  1  0
  9  7  1  1
  7 13  1  0
 10  8  1  1
  8 14  1  0
  4  5  1  0
 36 28  1  6
 33 30  1  1
 30 38  1  0
 34 31  1  6
 31 39  1  0
 35 32  1  6
 32 40  1  0
 41 43  1  0
 15 19  2  0
 42 43  2  0
 16 22  2  0
 12 17  1  6
 17 19  1  0
 17 20  1  0
 18 19  1  0
 18 22  1  0
 18 23  1  0
  9 10  1  0
  9 11  1  0
 10 12  1  0
 11  5  1  6
 33 34  1  0
 33 35  1  0
 34 36  1  0
 35 37  1  0
 37 43  1  1
 20 21  2  0
 21 22  1  0
M  CHG  3   2  -1  26  -1  41  -1
M  END
>  <COMPND>  (107) 
    udp_gluA.pdb 

>  <AUTHOR>  (107) 
    GENERATED BY OPEN BABEL 3.1.1

>  <MASTER>  (107) 
        0    0    0    0    0    0    0    0   56    0   56    0

>  <minimizedAffinity>  (107) 
-7.97874

>  <CNNscore>  (107) 
0.8300645947

>  <CNNaffinity>  (107) 
4.7004113197

>  <CNN_VS>  (107) 
3.9016449451

>  <CNNaffinity_variance>  (107) 
0.0908146873

$$$$
108
     RDKit          3D

 43 45  0  0  0  0  0  0  0  0999 V2000
   22.6051   71.5789   -2.5465 P   0  0  2  0  0  0  0  0  0  0  0  0
   23.9611   70.9253   -3.1406 O   0  0  0  0  0  0  0  0  0  0  0  0
   22.7626   72.2741   -1.2260 O   0  0  0  0  0  0  0  0  0  0  0  0
   21.5410   70.3604   -2.5765 O   0  0  0  0  0  0  0  0  0  0  0  0
   20.7542   70.1783   -3.7394 C   0  0  0  0  0  0  0  0  0  0  0  0
   18.9266   71.4390   -4.6604 O   0  0  0  0  0  0  0  0  0  0  0  0
   17.2354   70.2005   -2.5163 O   0  0  0  0  0  0  0  0  0  0  0  0
   16.6009   68.7109   -4.7105 O   0  0  0  0  0  0  0  0  0  0  0  0
   18.3170   69.6323   -3.2551 C   0  0  1  0  0  0  0  0  0  0  0  0
   17.8767   69.3151   -4.6685 C   0  0  2  0  0  0  0  0  0  0  0  0
   19.3550   70.7228   -3.4819 C   0  0  1  0  0  0  0  0  0  0  0  0
   17.8957   70.6872   -5.3202 C   0  0  2  0  0  0  0  0  0  0  0  0
   16.5593   69.5223   -2.3591 H   0  0  0  0  0  0  0  0  0  0  0  0
   16.6413   67.8402   -4.2836 H   0  0  0  0  0  0  0  0  0  0  0  0
   15.9623   70.2801   -7.3384 O   0  0  0  0  0  0  0  0  0  0  0  0
   19.1395   70.4592  -10.6727 O   0  0  0  0  0  0  0  0  0  0  0  0
   18.1901   70.6232   -6.7238 N   0  0  0  0  0  0  0  0  0  0  0  0
   17.5467   70.3687   -8.9970 N   0  0  0  0  0  0  0  0  0  0  0  0
   17.1457   70.4148   -7.6554 C   0  0  0  0  0  0  0  0  0  0  0  0
   19.4999   70.7677   -7.1650 C   0  0  0  0  0  0  0  0  0  0  0  0
   19.8667   70.7216   -8.4472 C   0  0  0  0  0  0  0  0  0  0  0  0
   18.8364   70.5064   -9.4843 C   0  0  0  0  0  0  0  0  0  0  0  0
   16.8374   70.2225   -9.6639 H   0  0  0  0  0  0  0  0  0  0  0  0
   22.1022   72.5303   -3.7526 O   0  0  0  0  0  0  0  0  0  0  0  0
   22.9306   73.4094   -4.8271 P   0  0  2  0  0  0  0  0  0  0  0  0
   23.1310   72.3867   -6.0658 O   0  0  0  0  0  0  0  0  0  0  0  0
   24.2073   73.9915   -4.2931 O   0  0  0  0  0  0  0  0  0  0  0  0
   21.8717   74.5002   -5.3669 O   0  0  0  0  0  0  0  0  0  0  0  0
   19.9163   74.1739   -6.6626 O   0  0  0  0  0  0  0  0  0  0  0  0
   21.1236   77.9283   -7.8935 O   0  0  0  0  0  0  0  0  0  0  0  0
   23.0819   75.7945   -7.5108 O   0  0  0  0  0  0  0  0  0  0  0  0
   18.8746   77.6424   -6.0738 O   0  0  0  0  0  0  0  0  0  0  0  0
   20.9626   76.8471   -6.9753 C   0  0  2  0  0  0  0  0  0  0  0  0
   21.6715   75.6056   -7.5172 C   0  0  2  0  0  0  0  0  0  0  0  0
   19.4641   76.5786   -6.8189 C   0  0  1  0  0  0  0  0  0  0  0  0
   21.3305   74.3718   -6.6804 C   0  0  1  0  0  0  0  0  0  0  0  0
   19.2070   75.2667   -6.0831 C   0  0  1  0  0  0  0  0  0  0  0  0
   22.0682   78.1169   -8.0087 H   0  0  0  0  0  0  0  0  0  0  0  0
   23.3054   76.5759   -8.0398 H   0  0  0  0  0  0  0  0  0  0  0  0
   19.0312   78.4832   -6.5314 H   0  0  0  0  0  0  0  0  0  0  0  0
   17.2394   75.3647   -7.3560 O   0  0  0  0  0  0  0  0  0  0  0  0
   17.1730   74.1448   -5.4307 O   0  0  0  0  0  0  0  0  0  0  0  0
   17.7786   74.8513   -6.2226 C   0  0  0  0  0  0  0  0  0  0  0  0
  1  4  1  0
  1 24  1  0
  1  2  1  6
  1  3  2  0
 25 28  1  0
 25 24  1  0
 25 26  1  6
 25 27  2  0
  6 11  1  0
  6 12  1  0
 29 36  1  0
 29 37  1  0
  9  7  1  1
  7 13  1  0
 10  8  1  1
  8 14  1  0
  4  5  1  0
 36 28  1  1
 33 30  1  6
 30 38  1  0
 34 31  1  1
 31 39  1  0
 35 32  1  1
 32 40  1  0
 41 43  1  0
 15 19  2  0
 42 43  2  0
 16 22  2  0
 12 17  1  6
 17 19  1  0
 17 20  1  0
 18 19  1  0
 18 22  1  0
 18 23  1  0
  9 10  1  0
  9 11  1  0
 10 12  1  0
 11  5  1  6
 33 34  1  0
 33 35  1  0
 34 36  1  0
 35 37  1  0
 37 43  1  6
 20 21  2  0
 21 22  1  0
M  CHG  3   2  -1  26  -1  41  -1
M  END
>  <COMPND>  (108) 
    udp_gluA.pdb 

>  <AUTHOR>  (108) 
    GENERATED BY OPEN BABEL 3.1.1

>  <MASTER>  (108) 
        0    0    0    0    0    0    0    0   56    0   56    0

>  <minimizedAffinity>  (108) 
-6.78889

>  <CNNscore>  (108) 
0.8147957921

>  <CNNaffinity>  (108) 
4.5069990158

>  <CNN_VS>  (108) 
3.6722838879

>  <CNNaffinity_variance>  (108) 
0.4303501546

$$$$
109
     RDKit          3D

 43 45  0  0  0  0  0  0  0  0999 V2000
   20.4819   73.0915   -3.6228 P   0  0  2  0  0  0  0  0  0  0  0  0
   20.6792   72.7238   -2.0592 O   0  0  0  0  0  0  0  0  0  0  0  0
   19.8313   74.4181   -3.8845 O   0  0  0  0  0  0  0  0  0  0  0  0
   19.7177   71.8018   -4.2317 O   0  0  0  0  0  0  0  0  0  0  0  0
   19.0398   70.9348   -3.3411 C   0  0  0  0  0  0  0  0  0  0  0  0
   17.3048   71.7311   -4.8017 O   0  0  0  0  0  0  0  0  0  0  0  0
   15.4166   70.0902   -3.1483 O   0  0  0  0  0  0  0  0  0  0  0  0
   15.7983   68.5239   -5.3477 O   0  0  0  0  0  0  0  0  0  0  0  0
   16.7651   69.8103   -3.5249 C   0  0  1  0  0  0  0  0  0  0  0  0
   16.8306   69.4171   -4.9855 C   0  0  2  0  0  0  0  0  0  0  0  0
   17.5379   71.1221   -3.5132 C   0  0  1  0  0  0  0  0  0  0  0  0
   16.7099   70.7627   -5.6802 C   0  0  2  0  0  0  0  0  0  0  0  0
   14.9030   69.2668   -3.1486 H   0  0  0  0  0  0  0  0  0  0  0  0
   15.9198   67.6824   -4.8795 H   0  0  0  0  0  0  0  0  0  0  0  0
   15.7584   72.0918   -7.9833 O   0  0  0  0  0  0  0  0  0  0  0  0
   19.4263   70.8088  -10.4621 O   0  0  0  0  0  0  0  0  0  0  0  0
   17.3962   70.7922   -6.9407 N   0  0  0  0  0  0  0  0  0  0  0  0
   17.5856   71.4507   -9.2160 N   0  0  0  0  0  0  0  0  0  0  0  0
   16.8318   71.4885   -8.0356 C   0  0  0  0  0  0  0  0  0  0  0  0
   18.6140   70.1382   -7.0829 C   0  0  0  0  0  0  0  0  0  0  0  0
   19.3210   70.1111   -8.2144 C   0  0  0  0  0  0  0  0  0  0  0  0
   18.8011   70.8134   -9.4060 C   0  0  0  0  0  0  0  0  0  0  0  0
   17.2119   71.9267   -9.9926 H   0  0  0  0  0  0  0  0  0  0  0  0
   21.9762   72.9446   -4.2215 O   0  0  0  0  0  0  0  0  0  0  0  0
   23.2736   73.8992   -4.0833 P   0  0  2  0  0  0  0  0  0  0  0  0
   24.4996   72.8462   -3.9920 O   0  0  0  0  0  0  0  0  0  0  0  0
   23.2053   74.8694   -2.9396 O   0  0  0  0  0  0  0  0  0  0  0  0
   23.4333   74.5853   -5.5346 O   0  0  0  0  0  0  0  0  0  0  0  0
   22.0265   75.8875   -6.9254 O   0  0  0  0  0  0  0  0  0  0  0  0
   23.8865   73.4297   -9.6764 O   0  0  0  0  0  0  0  0  0  0  0  0
   22.9505   72.3558   -7.1259 O   0  0  0  0  0  0  0  0  0  0  0  0
   24.6943   76.2108   -9.4235 O   0  0  0  0  0  0  0  0  0  0  0  0
   23.7781   74.1941   -8.4756 C   0  0  2  0  0  0  0  0  0  0  0  0
   22.6308   73.6497   -7.6242 C   0  0  2  0  0  0  0  0  0  0  0  0
   23.5083   75.6495   -8.8643 C   0  0  1  0  0  0  0  0  0  0  0  0
   22.3357   74.5784   -6.4456 C   0  0  1  0  0  0  0  0  0  0  0  0
   23.0984   76.4826   -7.6533 C   0  0  1  0  0  0  0  0  0  0  0  0
   24.0580   72.5009   -9.4543 H   0  0  0  0  0  0  0  0  0  0  0  0
   23.1392   71.7613   -7.8685 H   0  0  0  0  0  0  0  0  0  0  0  0
   24.9660   75.6895  -10.1951 H   0  0  0  0  0  0  0  0  0  0  0  0
   22.3473   77.8233   -9.4253 O   0  0  0  0  0  0  0  0  0  0  0  0
   22.2505   78.7183   -7.3304 O   0  0  0  0  0  0  0  0  0  0  0  0
   22.5256   77.7945   -8.0814 C   0  0  0  0  0  0  0  0  0  0  0  0
  1  4  1  0
  1 24  1  0
  1  2  1  1
  1  3  2  0
 25 28  1  0
 25 24  1  0
 25 26  1  1
 25 27  2  0
  6 11  1  0
  6 12  1  0
 29 36  1  0
 29 37  1  0
  9  7  1  6
  7 13  1  0
 10  8  1  6
  8 14  1  0
  4  5  1  0
 36 28  1  1
 33 30  1  6
 30 38  1  0
 34 31  1  1
 31 39  1  0
 35 32  1  1
 32 40  1  0
 41 43  1  0
 15 19  2  0
 42 43  2  0
 16 22  2  0
 12 17  1  6
 17 19  1  0
 17 20  1  0
 18 19  1  0
 18 22  1  0
 18 23  1  0
  9 10  1  0
  9 11  1  0
 10 12  1  0
 11  5  1  6
 33 34  1  0
 33 35  1  0
 34 36  1  0
 35 37  1  0
 37 43  1  6
 20 21  2  0
 21 22  1  0
M  CHG  3   2  -1  26  -1  41  -1
M  END
>  <COMPND>  (109) 
    udp_gluA.pdb 

>  <AUTHOR>  (109) 
    GENERATED BY OPEN BABEL 3.1.1

>  <MASTER>  (109) 
        0    0    0    0    0    0    0    0   56    0   56    0

>  <minimizedAffinity>  (109) 
-6.91721

>  <CNNscore>  (109) 
0.7364789248

>  <CNNaffinity>  (109) 
4.5744185448

>  <CNN_VS>  (109) 
3.3689627647

>  <CNNaffinity_variance>  (109) 
0.1659255624

$$$$
110
     RDKit          3D

 43 45  0  0  0  0  0  0  0  0999 V2000
   20.7887   72.4193   -5.1593 P   0  0  2  0  0  0  0  0  0  0  0  0
   19.9600   73.6968   -5.7072 O   0  0  0  0  0  0  0  0  0  0  0  0
   22.2278   72.6906   -4.8320 O   0  0  0  0  0  0  0  0  0  0  0  0
   20.5251   71.2776   -6.2751 O   0  0  0  0  0  0  0  0  0  0  0  0
   20.1287   71.6798   -7.5734 C   0  0  0  0  0  0  0  0  0  0  0  0
   18.7067   69.7803   -7.1889 O   0  0  0  0  0  0  0  0  0  0  0  0
   17.9591   69.9883  -10.0853 O   0  0  0  0  0  0  0  0  0  0  0  0
   15.8310   71.1485   -8.8359 O   0  0  0  0  0  0  0  0  0  0  0  0
   18.2394   71.0277   -9.1476 C   0  0  1  0  0  0  0  0  0  0  0  0
   17.0831   71.1901   -8.1838 C   0  0  2  0  0  0  0  0  0  0  0  0
   19.3538   70.5443   -8.2296 C   0  0  1  0  0  0  0  0  0  0  0  0
   17.2909   70.0168   -7.2414 C   0  0  2  0  0  0  0  0  0  0  0  0
   17.2499   70.2740  -10.6829 H   0  0  0  0  0  0  0  0  0  0  0  0
   15.7470   71.9161   -9.4239 H   0  0  0  0  0  0  0  0  0  0  0  0
   16.3950   68.0404   -5.4337 O   0  0  0  0  0  0  0  0  0  0  0  0
   15.4802   71.1726   -2.1785 O   0  0  0  0  0  0  0  0  0  0  0  0
   16.8133   70.2881   -5.9151 N   0  0  0  0  0  0  0  0  0  0  0  0
   15.9393   69.6024   -3.8145 N   0  0  0  0  0  0  0  0  0  0  0  0
   16.3861   69.2231   -5.0871 C   0  0  0  0  0  0  0  0  0  0  0  0
   16.7729   71.5956   -5.4463 C   0  0  0  0  0  0  0  0  0  0  0  0
   16.3446   71.9415   -4.2308 C   0  0  0  0  0  0  0  0  0  0  0  0
   15.8800   70.8889   -3.3037 C   0  0  0  0  0  0  0  0  0  0  0  0
   15.6349   68.8785   -3.2208 H   0  0  0  0  0  0  0  0  0  0  0  0
   19.8966   71.9175   -3.9082 O   0  0  0  0  0  0  0  0  0  0  0  0
   20.1331   70.7195   -2.8487 P   0  0  2  0  0  0  0  0  0  0  0  0
   21.4530   69.9762   -3.4194 O   0  0  0  0  0  0  0  0  0  0  0  0
   18.9469   69.8179   -2.6638 O   0  0  0  0  0  0  0  0  0  0  0  0
   20.6306   71.4559   -1.5024 O   0  0  0  0  0  0  0  0  0  0  0  0
   22.7527   72.5057   -1.5661 O   0  0  0  0  0  0  0  0  0  0  0  0
   21.9626   72.4521    2.4886 O   0  0  0  0  0  0  0  0  0  0  0  0
   21.3539   70.1253    0.8304 O   0  0  0  0  0  0  0  0  0  0  0  0
   21.6994   74.9251    0.9833 O   0  0  0  0  0  0  0  0  0  0  0  0
   21.6417   72.5192    1.0992 C   0  0  2  0  0  0  0  0  0  0  0  0
   22.1194   71.2454    0.4016 C   0  0  2  0  0  0  0  0  0  0  0  0
   22.3446   73.7443    0.5101 C   0  0  1  0  0  0  0  0  0  0  0  0
   22.0019   71.3767   -1.1176 C   0  0  1  0  0  0  0  0  0  0  0  0
   22.2916   73.7373   -1.0149 C   0  0  1  0  0  0  0  0  0  0  0  0
   21.5268   71.6810    2.8845 H   0  0  0  0  0  0  0  0  0  0  0  0
   21.4237   70.0362    1.7935 H   0  0  0  0  0  0  0  0  0  0  0  0
   21.7260   74.9418    1.9528 H   0  0  0  0  0  0  0  0  0  0  0  0
   24.1381   74.1330   -2.4060 O   0  0  0  0  0  0  0  0  0  0  0  0
   23.2284   75.9358   -1.3470 O   0  0  0  0  0  0  0  0  0  0  0  0
   23.2452   74.7371   -1.5834 C   0  0  0  0  0  0  0  0  0  0  0  0
  1  4  1  0
  1 24  1  0
  1  2  1  6
  1  3  2  0
 25 28  1  0
 25 24  1  0
 25 26  1  6
 25 27  2  0
  6 11  1  0
  6 12  1  0
 29 36  1  0
 29 37  1  0
  9  7  1  6
  7 13  1  0
 10  8  1  6
  8 14  1  0
  4  5  1  0
 36 28  1  1
 33 30  1  1
 30 38  1  0
 34 31  1  1
 31 39  1  0
 35 32  1  1
 32 40  1  0
 41 43  1  0
 15 19  2  0
 42 43  2  0
 16 22  2  0
 12 17  1  1
 17 19  1  0
 17 20  1  0
 18 19  1  0
 18 22  1  0
 18 23  1  0
  9 10  1  0
  9 11  1  0
 10 12  1  0
 11  5  1  1
 33 34  1  0
 33 35  1  0
 34 36  1  0
 35 37  1  0
 37 43  1  6
 20 21  2  0
 21 22  1  0
M  CHG  3   2  -1  26  -1  41  -1
M  END
>  <COMPND>  (110) 
    udp_gluA.pdb 

>  <AUTHOR>  (110) 
    GENERATED BY OPEN BABEL 3.1.1

>  <MASTER>  (110) 
        0    0    0    0    0    0    0    0   56    0   56    0

>  <minimizedAffinity>  (110) 
-7.07315

>  <CNNscore>  (110) 
0.6999617219

>  <CNNaffinity>  (110) 
4.5644216537

>  <CNN_VS>  (110) 
3.1949205399

>  <CNNaffinity_variance>  (110) 
0.2642299235

$$$$
111
     RDKit          3D

 43 45  0  0  0  0  0  0  0  0999 V2000
   23.3974   71.8308   -3.2990 P   0  0  2  0  0  0  0  0  0  0  0  0
   24.1127   72.9791   -4.1870 O   0  0  0  0  0  0  0  0  0  0  0  0
   24.2835   70.6816   -2.9168 O   0  0  0  0  0  0  0  0  0  0  0  0
   22.0770   71.4466   -4.1515 O   0  0  0  0  0  0  0  0  0  0  0  0
   21.6050   72.3668   -5.1184 C   0  0  0  0  0  0  0  0  0  0  0  0
   20.5392   70.4467   -6.0957 O   0  0  0  0  0  0  0  0  0  0  0  0
   20.7196   71.9081   -8.7078 O   0  0  0  0  0  0  0  0  0  0  0  0
   18.1208   72.3031   -7.9824 O   0  0  0  0  0  0  0  0  0  0  0  0
   20.4781   72.4240   -7.3986 C   0  0  1  0  0  0  0  0  0  0  0  0
   19.0684   72.0927   -6.9566 C   0  0  2  0  0  0  0  0  0  0  0  0
   21.3176   71.6204   -6.4149 C   0  0  1  0  0  0  0  0  0  0  0  0
   19.1952   70.6294   -6.5686 C   0  0  2  0  0  0  0  0  0  0  0  0
   20.1939   72.4059   -9.3540 H   0  0  0  0  0  0  0  0  0  0  0  0
   18.0771   73.2495   -8.1930 H   0  0  0  0  0  0  0  0  0  0  0  0
   16.5309   69.8025   -7.0093 O   0  0  0  0  0  0  0  0  0  0  0  0
   15.7716   69.2247   -2.5000 O   0  0  0  0  0  0  0  0  0  0  0  0
   18.2793   70.2571   -5.5278 N   0  0  0  0  0  0  0  0  0  0  0  0
   16.1549   69.5165   -4.7630 N   0  0  0  0  0  0  0  0  0  0  0  0
   16.9625   69.8568   -5.8562 C   0  0  0  0  0  0  0  0  0  0  0  0
   18.6881   70.2889   -4.2001 C   0  0  0  0  0  0  0  0  0  0  0  0
   17.9070   69.9616   -3.1688 C   0  0  0  0  0  0  0  0  0  0  0  0
   16.5163   69.5331   -3.4255 C   0  0  0  0  0  0  0  0  0  0  0  0
   15.2332   69.2366   -4.9665 H   0  0  0  0  0  0  0  0  0  0  0  0
   22.7947   72.6608   -2.0498 O   0  0  0  0  0  0  0  0  0  0  0  0
   21.5306   72.3615   -1.0875 P   0  0  2  0  0  0  0  0  0  0  0  0
   21.4134   70.7473   -1.1220 O   0  0  0  0  0  0  0  0  0  0  0  0
   20.2731   73.0813   -1.4808 O   0  0  0  0  0  0  0  0  0  0  0  0
   22.0586   72.6997    0.3989 O   0  0  0  0  0  0  0  0  0  0  0  0
   23.1855   71.0900    1.7211 O   0  0  0  0  0  0  0  0  0  0  0  0
   21.9067   73.7819    4.5823 O   0  0  0  0  0  0  0  0  0  0  0  0
   20.1405   72.9996    2.3907 O   0  0  0  0  0  0  0  0  0  0  0  0
   24.6959   73.7371    3.7641 O   0  0  0  0  0  0  0  0  0  0  0  0
   22.3619   73.3670    3.2944 C   0  0  2  0  0  0  0  0  0  0  0  0
   21.3739   72.3619    2.7018 C   0  0  2  0  0  0  0  0  0  0  0  0
   23.7393   72.7223    3.4647 C   0  0  1  0  0  0  0  0  0  0  0  0
   21.9386   71.7234    1.4320 C   0  0  1  0  0  0  0  0  0  0  0  0
   24.1768   71.9991    2.1942 C   0  0  1  0  0  0  0  0  0  0  0  0
   21.0327   74.1946    4.4990 H   0  0  0  0  0  0  0  0  0  0  0  0
   19.7767   73.4072    3.1919 H   0  0  0  0  0  0  0  0  0  0  0  0
   24.4290   74.2052    4.5706 H   0  0  0  0  0  0  0  0  0  0  0  0
   24.9620   69.8086    2.4889 O   0  0  0  0  0  0  0  0  0  0  0  0
   26.4926   71.4917    2.6426 O   0  0  0  0  0  0  0  0  0  0  0  0
   25.3457   71.1091    2.4662 C   0  0  0  0  0  0  0  0  0  0  0  0
  1  4  1  0
  1 24  1  0
  1  2  1  6
  1  3  2  0
 25 28  1  0
 25 24  1  0
 25 26  1  1
 25 27  2  0
  6 11  1  0
  6 12  1  0
 29 36  1  0
 29 37  1  0
  9  7  1  6
  7 13  1  0
 10  8  1  6
  8 14  1  0
  4  5  1  0
 36 28  1  6
 33 30  1  1
 30 38  1  0
 34 31  1  6
 31 39  1  0
 35 32  1  6
 32 40  1  0
 41 43  1  0
 15 19  2  0
 42 43  2  0
 16 22  2  0
 12 17  1  1
 17 19  1  0
 17 20  1  0
 18 19  1  0
 18 22  1  0
 18 23  1  0
  9 10  1  0
  9 11  1  0
 10 12  1  0
 11  5  1  1
 33 34  1  0
 33 35  1  0
 34 36  1  0
 35 37  1  0
 37 43  1  1
 20 21  2  0
 21 22  1  0
M  CHG  3   2  -1  26  -1  41  -1
M  END
>  <COMPND>  (111) 
    udp_gluA.pdb 

>  <AUTHOR>  (111) 
    GENERATED BY OPEN BABEL 3.1.1

>  <MASTER>  (111) 
        0    0    0    0    0    0    0    0   56    0   56    0

>  <minimizedAffinity>  (111) 
-8.01896

>  <CNNscore>  (111) 
0.6922889948

>  <CNNaffinity>  (111) 
4.4113473892

>  <CNN_VS>  (111) 
3.0539271832

>  <CNNaffinity_variance>  (111) 
0.1175018176

$$$$
112
     RDKit          3D

 43 45  0  0  0  0  0  0  0  0999 V2000
   21.9283   72.5013   -5.8843 P   0  0  2  0  0  0  0  0  0  0  0  0
   21.3020   73.8805   -5.3146 O   0  0  0  0  0  0  0  0  0  0  0  0
   23.0300   72.6730   -6.8886 O   0  0  0  0  0  0  0  0  0  0  0  0
   20.6372   71.6693   -6.3930 O   0  0  0  0  0  0  0  0  0  0  0  0
   20.0547   72.0179   -7.6354 C   0  0  0  0  0  0  0  0  0  0  0  0
   18.8885   69.9656   -7.1823 O   0  0  0  0  0  0  0  0  0  0  0  0
   18.0826   70.0030  -10.0703 O   0  0  0  0  0  0  0  0  0  0  0  0
   15.8419   70.9187   -8.8146 O   0  0  0  0  0  0  0  0  0  0  0  0
   18.2421   71.0934   -9.1625 C   0  0  1  0  0  0  0  0  0  0  0  0
   17.0873   71.1340   -8.1842 C   0  0  2  0  0  0  0  0  0  0  0  0
   19.4204   70.7776   -8.2514 C   0  0  1  0  0  0  0  0  0  0  0  0
   17.4536   70.0209   -7.2174 C   0  0  2  0  0  0  0  0  0  0  0  0
   17.3353   70.1819  -10.6629 H   0  0  0  0  0  0  0  0  0  0  0  0
   15.6542   71.6543   -9.4193 H   0  0  0  0  0  0  0  0  0  0  0  0
   16.2984   68.0492   -5.5577 O   0  0  0  0  0  0  0  0  0  0  0  0
   15.6062   71.0679   -2.1441 O   0  0  0  0  0  0  0  0  0  0  0  0
   16.9631   70.2642   -5.8904 N   0  0  0  0  0  0  0  0  0  0  0  0
   15.9538   69.5548   -3.8595 N   0  0  0  0  0  0  0  0  0  0  0  0
   16.4007   69.2044   -5.1404 C   0  0  0  0  0  0  0  0  0  0  0  0
   17.0431   71.5395   -5.3443 C   0  0  0  0  0  0  0  0  0  0  0  0
   16.6130   71.8582   -4.1219 C   0  0  0  0  0  0  0  0  0  0  0  0
   16.0113   70.8088   -3.2733 C   0  0  0  0  0  0  0  0  0  0  0  0
   15.5565   68.8340   -3.3192 H   0  0  0  0  0  0  0  0  0  0  0  0
   22.3598   71.7158   -4.5391 O   0  0  0  0  0  0  0  0  0  0  0  0
   23.5075   72.0343   -3.4458 P   0  0  2  0  0  0  0  0  0  0  0  0
   24.4886   73.0579   -4.2270 O   0  0  0  0  0  0  0  0  0  0  0  0
   24.1933   70.8155   -2.9001 O   0  0  0  0  0  0  0  0  0  0  0  0
   22.7726   72.9433   -2.3340 O   0  0  0  0  0  0  0  0  0  0  0  0
   21.6297   71.6620   -0.7027 O   0  0  0  0  0  0  0  0  0  0  0  0
   20.4291   75.4987    0.2492 O   0  0  0  0  0  0  0  0  0  0  0  0
   20.5813   74.6438   -2.5402 O   0  0  0  0  0  0  0  0  0  0  0  0
   22.4147   74.1434    1.8836 O   0  0  0  0  0  0  0  0  0  0  0  0
   21.3212   74.4947   -0.2344 C   0  0  2  0  0  0  0  0  0  0  0  0
   20.6831   73.7714   -1.4207 C   0  0  2  0  0  0  0  0  0  0  0  0
   21.5897   73.5111    0.9068 C   0  0  1  0  0  0  0  0  0  0  0  0
   21.5038   72.5439   -1.8189 C   0  0  1  0  0  0  0  0  0  0  0  0
   22.3004   72.2571    0.4059 C   0  0  1  0  0  0  0  0  0  0  0  0
   20.2439   76.1353   -0.4591 H   0  0  0  0  0  0  0  0  0  0  0  0
   20.0620   75.4251   -2.2945 H   0  0  0  0  0  0  0  0  0  0  0  0
   21.9738   74.9431    2.2104 H   0  0  0  0  0  0  0  0  0  0  0  0
   21.5185   70.1297    1.0094 O   0  0  0  0  0  0  0  0  0  0  0  0
   22.8264   71.2249    2.5224 O   0  0  0  0  0  0  0  0  0  0  0  0
   22.2636   71.1782    1.4388 C   0  0  0  0  0  0  0  0  0  0  0  0
  1  4  1  0
  1 24  1  0
  1  2  1  1
  1  3  2  0
 25 28  1  0
 25 24  1  0
 25 26  1  6
 25 27  2  0
  6 11  1  0
  6 12  1  0
 29 36  1  0
 29 37  1  0
  9  7  1  6
  7 13  1  0
 10  8  1  6
  8 14  1  0
  4  5  1  0
 36 28  1  1
 33 30  1  1
 30 38  1  0
 34 31  1  6
 31 39  1  0
 35 32  1  1
 32 40  1  0
 41 43  1  0
 15 19  2  0
 42 43  2  0
 16 22  2  0
 12 17  1  1
 17 19  1  0
 17 20  1  0
 18 19  1  0
 18 22  1  0
 18 23  1  0
  9 10  1  0
  9 11  1  0
 10 12  1  0
 11  5  1  1
 33 34  1  0
 33 35  1  0
 34 36  1  0
 35 37  1  0
 37 43  1  1
 20 21  2  0
 21 22  1  0
M  CHG  3   2  -1  26  -1  41  -1
M  END
>  <COMPND>  (112) 
    udp_gluA.pdb 

>  <AUTHOR>  (112) 
    GENERATED BY OPEN BABEL 3.1.1

>  <MASTER>  (112) 
        0    0    0    0    0    0    0    0   56    0   56    0

>  <minimizedAffinity>  (112) 
-8.41312

>  <CNNscore>  (112) 
0.6557043195

>  <CNNaffinity>  (112) 
4.4499559402

>  <CNN_VS>  (112) 
2.9178552628

>  <CNNaffinity_variance>  (112) 
0.3986003995

$$$$
113
     RDKit          3D

 43 45  0  0  0  0  0  0  0  0999 V2000
   20.5844   71.2702   -1.5285 P   0  0  2  0  0  0  0  0  0  0  0  0
   21.0596   70.5843   -0.1419 O   0  0  0  0  0  0  0  0  0  0  0  0
   20.2401   72.7274   -1.4291 O   0  0  0  0  0  0  0  0  0  0  0  0
   19.3991   70.3025   -2.0544 O   0  0  0  0  0  0  0  0  0  0  0  0
   19.0291   70.3672   -3.4195 C   0  0  0  0  0  0  0  0  0  0  0  0
   17.2980   71.3948   -4.7329 O   0  0  0  0  0  0  0  0  0  0  0  0
   15.3698   69.7166   -3.1655 O   0  0  0  0  0  0  0  0  0  0  0  0
   15.5831   68.3442   -5.5122 O   0  0  0  0  0  0  0  0  0  0  0  0
   16.6857   69.3968   -3.6178 C   0  0  1  0  0  0  0  0  0  0  0  0
   16.6789   69.1391   -5.1097 C   0  0  2  0  0  0  0  0  0  0  0  0
   17.5364   70.6554   -3.5157 C   0  0  1  0  0  0  0  0  0  0  0  0
   16.6170   70.5487   -5.6729 C   0  0  2  0  0  0  0  0  0  0  0  0
   14.8076   68.9276   -3.2214 H   0  0  0  0  0  0  0  0  0  0  0  0
   15.6690   67.4570   -5.1282 H   0  0  0  0  0  0  0  0  0  0  0  0
   16.2203   72.6793   -7.4838 O   0  0  0  0  0  0  0  0  0  0  0  0
   19.1434   70.8601  -10.5481 O   0  0  0  0  0  0  0  0  0  0  0  0
   17.2617   70.6569   -6.9510 N   0  0  0  0  0  0  0  0  0  0  0  0
   17.6757   71.7707   -9.0087 N   0  0  0  0  0  0  0  0  0  0  0  0
   16.9930   71.7677   -7.7852 C   0  0  0  0  0  0  0  0  0  0  0  0
   18.1495   69.6716   -7.3656 C   0  0  0  0  0  0  0  0  0  0  0  0
   18.7928   69.6882   -8.5347 C   0  0  0  0  0  0  0  0  0  0  0  0
   18.5674   70.8136   -9.4654 C   0  0  0  0  0  0  0  0  0  0  0  0
   17.5033   72.5330   -9.6075 H   0  0  0  0  0  0  0  0  0  0  0  0
   21.8026   70.9333   -2.5361 O   0  0  0  0  0  0  0  0  0  0  0  0
   23.1152   71.7875   -2.9375 P   0  0  2  0  0  0  0  0  0  0  0  0
   24.2834   70.6682   -2.9890 O   0  0  0  0  0  0  0  0  0  0  0  0
   23.4036   72.9408   -2.0205 O   0  0  0  0  0  0  0  0  0  0  0  0
   22.8790   72.2007   -4.4790 O   0  0  0  0  0  0  0  0  0  0  0  0
   21.8694   74.2816   -4.9886 O   0  0  0  0  0  0  0  0  0  0  0  0
   21.4510   72.2472   -8.5598 O   0  0  0  0  0  0  0  0  0  0  0  0
   20.9675   70.8913   -6.0177 O   0  0  0  0  0  0  0  0  0  0  0  0
   23.4719   74.3192   -8.2890 O   0  0  0  0  0  0  0  0  0  0  0  0
   22.0800   72.6030   -7.3287 C   0  0  2  0  0  0  0  0  0  0  0  0
   21.1371   72.2964   -6.1649 C   0  0  2  0  0  0  0  0  0  0  0  0
   22.3988   74.0990   -7.3756 C   0  0  1  0  0  0  0  0  0  0  0  0
   21.6785   72.8726   -4.8558 C   0  0  1  0  0  0  0  0  0  0  0  0
   22.8107   74.6241   -6.0033 C   0  0  1  0  0  0  0  0  0  0  0  0
   21.2390   71.3004   -8.5531 H   0  0  0  0  0  0  0  0  0  0  0  0
   20.6245   70.5190   -6.8448 H   0  0  0  0  0  0  0  0  0  0  0  0
   23.2226   73.9893   -9.1664 H   0  0  0  0  0  0  0  0  0  0  0  0
   22.5318   76.6126   -7.2156 O   0  0  0  0  0  0  0  0  0  0  0  0
   22.9988   76.8067   -4.9922 O   0  0  0  0  0  0  0  0  0  0  0  0
   22.7989   76.1180   -5.9815 C   0  0  0  0  0  0  0  0  0  0  0  0
  1  4  1  0
  1 24  1  0
  1  2  1  1
  1  3  2  0
 25 28  1  0
 25 24  1  0
 25 26  1  6
 25 27  2  0
  6 11  1  0
  6 12  1  0
 29 36  1  0
 29 37  1  0
  9  7  1  6
  7 13  1  0
 10  8  1  1
  8 14  1  0
  4  5  1  0
 36 28  1  6
 33 30  1  6
 30 38  1  0
 34 31  1  1
 31 39  1  0
 35 32  1  6
 32 40  1  0
 41 43  1  0
 15 19  2  0
 42 43  2  0
 16 22  2  0
 12 17  1  6
 17 19  1  0
 17 20  1  0
 18 19  1  0
 18 22  1  0
 18 23  1  0
  9 10  1  0
  9 11  1  0
 10 12  1  0
 11  5  1  6
 33 34  1  0
 33 35  1  0
 34 36  1  0
 35 37  1  0
 37 43  1  6
 20 21  2  0
 21 22  1  0
M  CHG  3   2  -1  26  -1  41  -1
M  END
>  <COMPND>  (113) 
    udp_gluA.pdb 

>  <AUTHOR>  (113) 
    GENERATED BY OPEN BABEL 3.1.1

>  <MASTER>  (113) 
        0    0    0    0    0    0    0    0   56    0   56    0

>  <minimizedAffinity>  (113) 
-7.93444

>  <CNNscore>  (113) 
0.6306369901

>  <CNNaffinity>  (113) 
4.5708460808

>  <CNN_VS>  (113) 
2.8825445175

>  <CNNaffinity_variance>  (113) 
0.7956614494

$$$$
114
     RDKit          3D

 43 45  0  0  0  0  0  0  0  0999 V2000
   22.3620   74.8655   -4.4971 P   0  0  2  0  0  0  0  0  0  0  0  0
   23.9429   74.5985   -4.7167 O   0  0  0  0  0  0  0  0  0  0  0  0
   22.0014   76.2784   -4.1427 O   0  0  0  0  0  0  0  0  0  0  0  0
   21.9230   73.7378   -3.4231 O   0  0  0  0  0  0  0  0  0  0  0  0
   22.9079   73.2156   -2.5502 C   0  0  0  0  0  0  0  0  0  0  0  0
   23.5188   71.2927   -1.2437 O   0  0  0  0  0  0  0  0  0  0  0  0
   20.6271   70.5114   -1.3825 O   0  0  0  0  0  0  0  0  0  0  0  0
   20.8327   71.5941    1.1118 O   0  0  0  0  0  0  0  0  0  0  0  0
   21.2080   71.8117   -1.2807 C   0  0  1  0  0  0  0  0  0  0  0  0
   21.7329   72.0431    0.1204 C   0  0  2  0  0  0  0  0  0  0  0  0
   22.4876   71.8206   -2.1058 C   0  0  1  0  0  0  0  0  0  0  0  0
   23.0295   71.2515    0.1062 C   0  0  2  0  0  0  0  0  0  0  0  0
   19.8079   70.4813   -0.8633 H   0  0  0  0  0  0  0  0  0  0  0  0
   20.0238   72.1294    1.0803 H   0  0  0  0  0  0  0  0  0  0  0  0
   24.6567   69.7355    1.8469 O   0  0  0  0  0  0  0  0  0  0  0  0
   26.8045   73.5007    3.4134 O   0  0  0  0  0  0  0  0  0  0  0  0
   24.0221   71.8101    0.9799 N   0  0  0  0  0  0  0  0  0  0  0  0
   25.7242   71.6123    2.6262 N   0  0  0  0  0  0  0  0  0  0  0  0
   24.7860   70.9607    1.8148 C   0  0  0  0  0  0  0  0  0  0  0  0
   24.2320   73.1836    1.0029 C   0  0  0  0  0  0  0  0  0  0  0  0
   25.1301   73.7901    1.7816 C   0  0  0  0  0  0  0  0  0  0  0  0
   25.9688   72.9748    2.6846 C   0  0  0  0  0  0  0  0  0  0  0  0
   26.2665   71.0419    3.2177 H   0  0  0  0  0  0  0  0  0  0  0  0
   21.7085   74.3291   -5.8748 O   0  0  0  0  0  0  0  0  0  0  0  0
   22.2556   73.2706   -6.9674 P   0  0  2  0  0  0  0  0  0  0  0  0
   22.9369   72.1183   -6.0573 O   0  0  0  0  0  0  0  0  0  0  0  0
   23.1705   73.8664   -7.9978 O   0  0  0  0  0  0  0  0  0  0  0  0
   20.9274   72.5811   -7.5700 O   0  0  0  0  0  0  0  0  0  0  0  0
   20.5858   70.5978   -6.3215 O   0  0  0  0  0  0  0  0  0  0  0  0
   17.3211   70.5702   -8.8531 O   0  0  0  0  0  0  0  0  0  0  0  0
   19.9632   71.3162   -9.8518 O   0  0  0  0  0  0  0  0  0  0  0  0
   16.9958   71.3087   -6.0603 O   0  0  0  0  0  0  0  0  0  0  0  0
   18.3438   71.1618   -8.0518 C   0  0  2  0  0  0  0  0  0  0  0  0
   19.7154   70.7361   -8.5763 C   0  0  2  0  0  0  0  0  0  0  0  0
   18.1527   70.6822   -6.6112 C   0  0  1  0  0  0  0  0  0  0  0  0
   20.8251   71.1590   -7.6127 C   0  0  1  0  0  0  0  0  0  0  0  0
   19.3574   71.0328   -5.7428 C   0  0  1  0  0  0  0  0  0  0  0  0
   17.4224   70.8606   -9.7732 H   0  0  0  0  0  0  0  0  0  0  0  0
   19.2627   71.0522  -10.4682 H   0  0  0  0  0  0  0  0  0  0  0  0
   16.2218   71.0936   -6.6039 H   0  0  0  0  0  0  0  0  0  0  0  0
   20.4667   69.6010   -4.2524 O   0  0  0  0  0  0  0  0  0  0  0  0
   18.3736   70.2915   -3.6681 O   0  0  0  0  0  0  0  0  0  0  0  0
   19.3136   70.2872   -4.4488 C   0  0  0  0  0  0  0  0  0  0  0  0
  1  4  1  0
  1 24  1  0
  1  2  1  6
  1  3  2  0
 25 28  1  0
 25 24  1  0
 25 26  1  1
 25 27  2  0
  6 11  1  0
  6 12  1  0
 29 36  1  0
 29 37  1  0
  9  7  1  1
  7 13  1  0
 10  8  1  1
  8 14  1  0
  4  5  1  0
 36 28  1  1
 33 30  1  6
 30 38  1  0
 34 31  1  6
 31 39  1  0
 35 32  1  1
 32 40  1  0
 41 43  1  0
 15 19  2  0
 42 43  2  0
 16 22  2  0
 12 17  1  1
 17 19  1  0
 17 20  1  0
 18 19  1  0
 18 22  1  0
 18 23  1  0
  9 10  1  0
  9 11  1  0
 10 12  1  0
 11  5  1  1
 33 34  1  0
 33 35  1  0
 34 36  1  0
 35 37  1  0
 37 43  1  1
 20 21  2  0
 21 22  1  0
M  CHG  3   2  -1  26  -1  41  -1
M  END
>  <COMPND>  (114) 
    udp_gluA.pdb 

>  <AUTHOR>  (114) 
    GENERATED BY OPEN BABEL 3.1.1

>  <MASTER>  (114) 
        0    0    0    0    0    0    0    0   56    0   56    0

>  <minimizedAffinity>  (114) 
-7.44736

>  <CNNscore>  (114) 
0.5878091455

>  <CNNaffinity>  (114) 
4.3420610428

>  <CNN_VS>  (114) 
2.5523030758

>  <CNNaffinity_variance>  (114) 
0.0457830951

$$$$
115
     RDKit          3D

 43 45  0  0  0  0  0  0  0  0999 V2000
   20.9565   73.7972   -3.3242 P   0  0  2  0  0  0  0  0  0  0  0  0
   19.4573   74.3397   -3.6014 O   0  0  0  0  0  0  0  0  0  0  0  0
   21.8684   74.7751   -2.6431 O   0  0  0  0  0  0  0  0  0  0  0  0
   21.4508   73.2654   -4.7702 O   0  0  0  0  0  0  0  0  0  0  0  0
   21.8035   71.9008   -4.9044 C   0  0  0  0  0  0  0  0  0  0  0  0
   20.5026   70.3281   -6.1740 O   0  0  0  0  0  0  0  0  0  0  0  0
   20.8922   72.1720   -8.5063 O   0  0  0  0  0  0  0  0  0  0  0  0
   18.3623   72.7747   -7.6865 O   0  0  0  0  0  0  0  0  0  0  0  0
   20.7107   72.4873   -7.1257 C   0  0  1  0  0  0  0  0  0  0  0  0
   19.2666   72.2730   -6.7246 C   0  0  2  0  0  0  0  0  0  0  0  0
   21.4304   71.4271   -6.3032 C   0  0  1  0  0  0  0  0  0  0  0  0
   19.1976   70.7614   -6.5896 C   0  0  2  0  0  0  0  0  0  0  0  0
   20.4410   72.8357   -9.0519 H   0  0  0  0  0  0  0  0  0  0  0  0
   18.4444   73.7405   -7.7347 H   0  0  0  0  0  0  0  0  0  0  0  0
   16.4744   70.2633   -7.1484 O   0  0  0  0  0  0  0  0  0  0  0  0
   15.5883   69.1565   -2.7628 O   0  0  0  0  0  0  0  0  0  0  0  0
   18.2332   70.3419   -5.6125 N   0  0  0  0  0  0  0  0  0  0  0  0
   16.0355   69.7135   -4.9634 N   0  0  0  0  0  0  0  0  0  0  0  0
   16.8899   70.1190   -5.9972 C   0  0  0  0  0  0  0  0  0  0  0  0
   18.6209   70.1541   -4.2914 C   0  0  0  0  0  0  0  0  0  0  0  0
   17.7951   69.7672   -3.3172 C   0  0  0  0  0  0  0  0  0  0  0  0
   16.3744   69.5139   -3.6349 C   0  0  0  0  0  0  0  0  0  0  0  0
   15.0948   69.5541   -5.2065 H   0  0  0  0  0  0  0  0  0  0  0  0
   20.7012   72.4292   -2.5018 O   0  0  0  0  0  0  0  0  0  0  0  0
   20.0426   72.1720   -1.0479 P   0  0  2  0  0  0  0  0  0  0  0  0
   19.9530   70.5580   -0.9628 O   0  0  0  0  0  0  0  0  0  0  0  0
   18.7346   72.8763   -0.8311 O   0  0  0  0  0  0  0  0  0  0  0  0
   21.2003   72.5715    0.0022 O   0  0  0  0  0  0  0  0  0  0  0  0
   23.4953   73.0710   -0.3022 O   0  0  0  0  0  0  0  0  0  0  0  0
   23.5320   71.1432    3.3515 O   0  0  0  0  0  0  0  0  0  0  0  0
   21.8795   70.1368    1.1627 O   0  0  0  0  0  0  0  0  0  0  0  0
   23.8155   74.0335    3.2238 O   0  0  0  0  0  0  0  0  0  0  0  0
   22.9890   71.9609    2.3150 C   0  0  2  0  0  0  0  0  0  0  0  0
   22.8741   71.1452    1.0269 C   0  0  2  0  0  0  0  0  0  0  0  0
   23.9295   73.1505    2.1095 C   0  0  1  0  0  0  0  0  0  0  0  0
   22.5152   72.0423   -0.1585 C   0  0  1  0  0  0  0  0  0  0  0  0
   23.5833   73.9214    0.8389 C   0  0  1  0  0  0  0  0  0  0  0  0
   22.9510   70.3804    3.4997 H   0  0  0  0  0  0  0  0  0  0  0  0
   22.1008   69.5640    1.9133 H   0  0  0  0  0  0  0  0  0  0  0  0
   24.0331   73.5551    4.0391 H   0  0  0  0  0  0  0  0  0  0  0  0
   25.6445   74.8718    1.4304 O   0  0  0  0  0  0  0  0  0  0  0  0
   24.7247   75.5315   -0.5490 O   0  0  0  0  0  0  0  0  0  0  0  0
   24.6848   74.8618    0.4723 C   0  0  0  0  0  0  0  0  0  0  0  0
  1  4  1  0
  1 24  1  0
  1  2  1  6
  1  3  2  0
 25 28  1  0
 25 24  1  0
 25 26  1  6
 25 27  2  0
  6 11  1  0
  6 12  1  0
 29 36  1  0
 29 37  1  0
  9  7  1  6
  7 13  1  0
 10  8  1  6
  8 14  1  0
  4  5  1  0
 36 28  1  1
 33 30  1  1
 30 38  1  0
 34 31  1  1
 31 39  1  0
 35 32  1  1
 32 40  1  0
 41 43  1  0
 15 19  2  0
 42 43  2  0
 16 22  2  0
 12 17  1  1
 17 19  1  0
 17 20  1  0
 18 19  1  0
 18 22  1  0
 18 23  1  0
  9 10  1  0
  9 11  1  0
 10 12  1  0
 11  5  1  1
 33 34  1  0
 33 35  1  0
 34 36  1  0
 35 37  1  0
 37 43  1  6
 20 21  2  0
 21 22  1  0
M  CHG  3   2  -1  26  -1  41  -1
M  END
>  <COMPND>  (115) 
    udp_gluA.pdb 

>  <AUTHOR>  (115) 
    GENERATED BY OPEN BABEL 3.1.1

>  <MASTER>  (115) 
        0    0    0    0    0    0    0    0   56    0   56    0

>  <minimizedAffinity>  (115) 
-6.79976

>  <CNNscore>  (115) 
0.5758254528

>  <CNNaffinity>  (115) 
4.0434503555

>  <CNN_VS>  (115) 
2.3283216953

>  <CNNaffinity_variance>  (115) 
0.3458152711

$$$$
116
     RDKit          3D

 43 45  0  0  0  0  0  0  0  0999 V2000
   22.7298   72.2034   -3.5696 P   0  0  2  0  0  0  0  0  0  0  0  0
   22.2746   70.6505   -3.5762 O   0  0  0  0  0  0  0  0  0  0  0  0
   24.1201   72.4582   -4.0736 O   0  0  0  0  0  0  0  0  0  0  0  0
   22.4313   72.6894   -2.0555 O   0  0  0  0  0  0  0  0  0  0  0  0
   23.4639   72.5772   -1.0934 C   0  0  0  0  0  0  0  0  0  0  0  0
   24.3892   71.1248    0.5835 O   0  0  0  0  0  0  0  0  0  0  0  0
   21.6034   70.0770    0.9476 O   0  0  0  0  0  0  0  0  0  0  0  0
   21.8770   71.7867    3.0543 O   0  0  0  0  0  0  0  0  0  0  0  0
   22.0384   71.4057    0.6582 C   0  0  1  0  0  0  0  0  0  0  0  0
   22.6406   72.0408    1.8937 C   0  0  2  0  0  0  0  0  0  0  0  0
   23.2409   71.3143   -0.2713 C   0  0  1  0  0  0  0  0  0  0  0  0
   24.0139   71.3932    1.9438 C   0  0  2  0  0  0  0  0  0  0  0  0
   20.8356   70.1096    1.5402 H   0  0  0  0  0  0  0  0  0  0  0  0
   21.0123   72.2201    2.9737 H   0  0  0  0  0  0  0  0  0  0  0  0
   26.7238   70.6863    2.3086 O   0  0  0  0  0  0  0  0  0  0  0  0
   27.7125   74.7501    4.2458 O   0  0  0  0  0  0  0  0  0  0  0  0
   25.0011   72.2474    2.5408 N   0  0  0  0  0  0  0  0  0  0  0  0
   27.2134   72.7106    3.2740 N   0  0  0  0  0  0  0  0  0  0  0  0
   26.3352   71.7962    2.6775 C   0  0  0  0  0  0  0  0  0  0  0  0
   24.6452   73.5162    2.9817 C   0  0  0  0  0  0  0  0  0  0  0  0
   25.4934   74.3766    3.5482 C   0  0  0  0  0  0  0  0  0  0  0  0
   26.9061   73.9827    3.7289 C   0  0  0  0  0  0  0  0  0  0  0  0
   28.1473   72.4182    3.3817 H   0  0  0  0  0  0  0  0  0  0  0  0
   21.5618   72.9276   -4.4206 O   0  0  0  0  0  0  0  0  0  0  0  0
   21.3376   73.0601   -6.0162 P   0  0  2  0  0  0  0  0  0  0  0  0
   22.4736   72.0849   -6.6316 O   0  0  0  0  0  0  0  0  0  0  0  0
   21.3881   74.4698   -6.5302 O   0  0  0  0  0  0  0  0  0  0  0  0
   19.9464   72.2939   -6.2990 O   0  0  0  0  0  0  0  0  0  0  0  0
   19.2057   70.1671   -5.5662 O   0  0  0  0  0  0  0  0  0  0  0  0
   17.3660   70.4739   -9.2526 O   0  0  0  0  0  0  0  0  0  0  0  0
   20.1353   71.3359   -8.9033 O   0  0  0  0  0  0  0  0  0  0  0  0
   15.8239   70.8471   -6.8167 O   0  0  0  0  0  0  0  0  0  0  0  0
   17.9072   70.9547   -8.0223 C   0  0  2  0  0  0  0  0  0  0  0  0
   19.3914   70.5968   -7.9415 C   0  0  2  0  0  0  0  0  0  0  0  0
   17.1373   70.2940   -6.8766 C   0  0  1  0  0  0  0  0  0  0  0  0
   19.9497   70.8894   -6.5481 C   0  0  1  0  0  0  0  0  0  0  0  0
   17.8263   70.5268   -5.5351 C   0  0  1  0  0  0  0  0  0  0  0  0
   17.8399   70.8802   -9.9953 H   0  0  0  0  0  0  0  0  0  0  0  0
   19.7863   71.1552   -9.7898 H   0  0  0  0  0  0  0  0  0  0  0  0
   15.3745   70.7058   -7.6646 H   0  0  0  0  0  0  0  0  0  0  0  0
   17.9396   69.7674   -3.3189 O   0  0  0  0  0  0  0  0  0  0  0  0
   16.3309   68.8525   -4.6509 O   0  0  0  0  0  0  0  0  0  0  0  0
   17.2668   69.6208   -4.4871 C   0  0  0  0  0  0  0  0  0  0  0  0
  1  4  1  0
  1 24  1  0
  1  2  1  1
  1  3  2  0
 25 28  1  0
 25 24  1  0
 25 26  1  6
 25 27  2  0
  6 11  1  0
  6 12  1  0
 29 36  1  0
 29 37  1  0
  9  7  1  1
  7 13  1  0
 10  8  1  1
  8 14  1  0
  4  5  1  0
 36 28  1  1
 33 30  1  6
 30 38  1  0
 34 31  1  6
 31 39  1  0
 35 32  1  1
 32 40  1  0
 41 43  1  0
 15 19  2  0
 42 43  2  0
 16 22  2  0
 12 17  1  6
 17 19  1  0
 17 20  1  0
 18 19  1  0
 18 22  1  0
 18 23  1  0
  9 10  1  0
  9 11  1  0
 10 12  1  0
 11  5  1  1
 33 34  1  0
 33 35  1  0
 34 36  1  0
 35 37  1  0
 37 43  1  1
 20 21  2  0
 21 22  1  0
M  CHG  3   2  -1  26  -1  41  -1
M  END
>  <COMPND>  (116) 
    udp_gluA.pdb 

>  <AUTHOR>  (116) 
    GENERATED BY OPEN BABEL 3.1.1

>  <MASTER>  (116) 
        0    0    0    0    0    0    0    0   56    0   56    0

>  <minimizedAffinity>  (116) 
-8.13039

>  <CNNscore>  (116) 
0.5452084541

>  <CNNaffinity>  (116) 
4.3798017502

>  <CNN_VS>  (116) 
2.3879048824

>  <CNNaffinity_variance>  (116) 
0.0860267803

$$$$
117
     RDKit          3D

 43 45  0  0  0  0  0  0  0  0999 V2000
   22.6897   72.6390   -3.6115 P   0  0  2  0  0  0  0  0  0  0  0  0
   24.1511   72.1657   -4.1207 O   0  0  0  0  0  0  0  0  0  0  0  0
   22.5339   72.7209   -2.1212 O   0  0  0  0  0  0  0  0  0  0  0  0
   21.6706   71.6375   -4.3705 O   0  0  0  0  0  0  0  0  0  0  0  0
   21.1126   70.5601   -3.6409 C   0  0  0  0  0  0  0  0  0  0  0  0
   19.0524   71.5178   -4.4259 O   0  0  0  0  0  0  0  0  0  0  0  0
   17.7357   70.0957   -2.1379 O   0  0  0  0  0  0  0  0  0  0  0  0
   17.1586   68.4782   -4.2561 O   0  0  0  0  0  0  0  0  0  0  0  0
   18.8282   69.6748   -2.9549 C   0  0  1  0  0  0  0  0  0  0  0  0
   18.3305   69.2634   -4.3244 C   0  0  2  0  0  0  0  0  0  0  0  0
   19.6728   70.8999   -3.2776 C   0  0  1  0  0  0  0  0  0  0  0  0
   18.0956   70.6079   -4.9915 C   0  0  2  0  0  0  0  0  0  0  0  0
   17.1816   69.3298   -1.9186 H   0  0  0  0  0  0  0  0  0  0  0  0
   17.3605   67.6331   -3.8237 H   0  0  0  0  0  0  0  0  0  0  0  0
   16.1125   69.8084   -6.8367 O   0  0  0  0  0  0  0  0  0  0  0  0
   18.9361   70.4422  -10.4241 O   0  0  0  0  0  0  0  0  0  0  0  0
   18.2856   70.5547   -6.4134 N   0  0  0  0  0  0  0  0  0  0  0  0
   17.5210   70.1239   -8.6216 N   0  0  0  0  0  0  0  0  0  0  0  0
   17.2247   70.1389   -7.2523 C   0  0  0  0  0  0  0  0  0  0  0  0
   19.5103   70.9133   -6.9634 C   0  0  0  0  0  0  0  0  0  0  0  0
   19.7777   70.8940   -8.2706 C   0  0  0  0  0  0  0  0  0  0  0  0
   18.7236   70.4709   -9.2157 C   0  0  0  0  0  0  0  0  0  0  0  0
   16.7987   69.8359   -9.2254 H   0  0  0  0  0  0  0  0  0  0  0  0
   22.4702   74.0389   -4.3893 O   0  0  0  0  0  0  0  0  0  0  0  0
   22.1204   74.3498   -5.9368 P   0  0  2  0  0  0  0  0  0  0  0  0
   22.7365   73.0735   -6.7189 O   0  0  0  0  0  0  0  0  0  0  0  0
   22.6227   75.6770   -6.4270 O   0  0  0  0  0  0  0  0  0  0  0  0
   20.5220   74.1587   -6.0414 O   0  0  0  0  0  0  0  0  0  0  0  0
   18.4544   74.9559   -6.8774 O   0  0  0  0  0  0  0  0  0  0  0  0
   18.1255   75.8266   -2.8523 O   0  0  0  0  0  0  0  0  0  0  0  0
   20.6360   76.2995   -4.2694 O   0  0  0  0  0  0  0  0  0  0  0  0
   16.6800   73.5706   -3.9801 O   0  0  0  0  0  0  0  0  0  0  0  0
   18.5539   75.0849   -3.9944 C   0  0  2  0  0  0  0  0  0  0  0  0
   19.4002   75.9813   -4.8987 C   0  0  2  0  0  0  0  0  0  0  0  0
   17.3075   74.6021   -4.7395 C   0  0  1  0  0  0  0  0  0  0  0  0
   19.6843   75.2967   -6.2364 C   0  0  1  0  0  0  0  0  0  0  0  0
   17.6614   74.0476   -6.1164 C   0  0  1  0  0  0  0  0  0  0  0  0
   18.9010   76.1437   -2.3630 H   0  0  0  0  0  0  0  0  0  0  0  0
   20.4633   76.7340   -3.4198 H   0  0  0  0  0  0  0  0  0  0  0  0
   16.4497   73.9105   -3.1013 H   0  0  0  0  0  0  0  0  0  0  0  0
   16.7337   73.2754   -8.1275 O   0  0  0  0  0  0  0  0  0  0  0  0
   15.3144   74.2552   -6.6360 O   0  0  0  0  0  0  0  0  0  0  0  0
   16.4353   73.8886   -6.9554 C   0  0  0  0  0  0  0  0  0  0  0  0
  1  4  1  0
  1 24  1  0
  1  2  1  1
  1  3  2  0
 25 28  1  0
 25 24  1  0
 25 26  1  6
 25 27  2  0
  6 11  1  0
  6 12  1  0
 29 36  1  0
 29 37  1  0
  9  7  1  1
  7 13  1  0
 10  8  1  1
  8 14  1  0
  4  5  1  0
 36 28  1  1
 33 30  1  1
 30 38  1  0
 34 31  1  1
 31 39  1  0
 35 32  1  1
 32 40  1  0
 41 43  1  0
 15 19  2  0
 42 43  2  0
 16 22  2  0
 12 17  1  6
 17 19  1  0
 17 20  1  0
 18 19  1  0
 18 22  1  0
 18 23  1  0
  9 10  1  0
  9 11  1  0
 10 12  1  0
 11  5  1  6
 33 34  1  0
 33 35  1  0
 34 36  1  0
 35 37  1  0
 37 43  1  6
 20 21  2  0
 21 22  1  0
M  CHG  3   2  -1  26  -1  41  -1
M  END
>  <COMPND>  (117) 
    udp_gluA.pdb 

>  <AUTHOR>  (117) 
    GENERATED BY OPEN BABEL 3.1.1

>  <MASTER>  (117) 
        0    0    0    0    0    0    0    0   56    0   56    0

>  <minimizedAffinity>  (117) 
-6.00601

>  <CNNscore>  (117) 
0.5342864394

>  <CNNaffinity>  (117) 
4.1737060547

>  <CNN_VS>  (117) 
2.2299544811

>  <CNNaffinity_variance>  (117) 
0.5282952189

$$$$
118
     RDKit          3D

 43 45  0  0  0  0  0  0  0  0999 V2000
   23.1624   75.3876   -1.1949 P   0  0  2  0  0  0  0  0  0  0  0  0
   24.7198   75.7235   -1.4784 O   0  0  0  0  0  0  0  0  0  0  0  0
   22.2485   76.5777   -1.1888 O   0  0  0  0  0  0  0  0  0  0  0  0
   23.1944   74.5193    0.1700 O   0  0  0  0  0  0  0  0  0  0  0  0
   22.1678   74.7210    1.1239 C   0  0  0  0  0  0  0  0  0  0  0  0
   22.6856   72.3942    1.4336 O   0  0  0  0  0  0  0  0  0  0  0  0
   20.2559   72.2784    3.1871 O   0  0  0  0  0  0  0  0  0  0  0  0
   22.2912   72.4124    4.9970 O   0  0  0  0  0  0  0  0  0  0  0  0
   21.2048   73.3331    3.0262 C   0  0  1  0  0  0  0  0  0  0  0  0
   22.5027   72.9811    3.7217 C   0  0  2  0  0  0  0  0  0  0  0  0
   21.6261   73.3668    1.5635 C   0  0  1  0  0  0  0  0  0  0  0  0
   23.1303   72.0038    2.7424 C   0  0  2  0  0  0  0  0  0  0  0  0
   19.9719   72.2372    4.1141 H   0  0  0  0  0  0  0  0  0  0  0  0
   21.8905   73.0737    5.5836 H   0  0  0  0  0  0  0  0  0  0  0  0
   24.7941   69.8128    2.1041 O   0  0  0  0  0  0  0  0  0  0  0  0
   28.6220   72.2497    2.9121 O   0  0  0  0  0  0  0  0  0  0  0  0
   24.5650   72.0382    2.7776 N   0  0  0  0  0  0  0  0  0  0  0  0
   26.6990   71.0283    2.5081 N   0  0  0  0  0  0  0  0  0  0  0  0
   25.3073   70.8822    2.4387 C   0  0  0  0  0  0  0  0  0  0  0  0
   25.2221   73.2069    3.1428 C   0  0  0  0  0  0  0  0  0  0  0  0
   26.5494   73.3309    3.2042 C   0  0  0  0  0  0  0  0  0  0  0  0
   27.3982   72.1696    2.8664 C   0  0  0  0  0  0  0  0  0  0  0  0
   27.2370   70.2363    2.2786 H   0  0  0  0  0  0  0  0  0  0  0  0
   22.8189   74.2806   -2.3217 O   0  0  0  0  0  0  0  0  0  0  0  0
   21.6208   73.1994   -2.4170 P   0  0  2  0  0  0  0  0  0  0  0  0
   20.3431   74.0117   -1.8444 O   0  0  0  0  0  0  0  0  0  0  0  0
   21.9003   71.9063   -1.7071 O   0  0  0  0  0  0  0  0  0  0  0  0
   21.3318   73.0469   -3.9968 O   0  0  0  0  0  0  0  0  0  0  0  0
   20.0783   71.1189   -4.5629 O   0  0  0  0  0  0  0  0  0  0  0  0
   21.2172   72.5040   -8.2848 O   0  0  0  0  0  0  0  0  0  0  0  0
   23.1130   72.5010   -6.0620 O   0  0  0  0  0  0  0  0  0  0  0  0
   18.4915   72.8960   -7.3533 O   0  0  0  0  0  0  0  0  0  0  0  0
   20.8433   72.6147   -6.9115 C   0  0  2  0  0  0  0  0  0  0  0  0
   21.8463   71.8528   -6.0450 C   0  0  2  0  0  0  0  0  0  0  0  0
   19.4427   72.0186   -6.7533 C   0  0  1  0  0  0  0  0  0  0  0  0
   21.3567   71.7543   -4.5995 C   0  0  1  0  0  0  0  0  0  0  0  0
   19.0779   71.8358   -5.2829 C   0  0  1  0  0  0  0  0  0  0  0  0
   22.1043   72.8765   -8.4095 H   0  0  0  0  0  0  0  0  0  0  0  0
   23.4295   72.5671   -6.9762 H   0  0  0  0  0  0  0  0  0  0  0  0
   18.7124   73.0210   -8.2894 H   0  0  0  0  0  0  0  0  0  0  0  0
   16.7368   71.6917   -5.2832 O   0  0  0  0  0  0  0  0  0  0  0  0
   17.8976   69.7620   -4.9255 O   0  0  0  0  0  0  0  0  0  0  0  0
   17.8725   70.9647   -5.1398 C   0  0  0  0  0  0  0  0  0  0  0  0
  1  4  1  0
  1 24  1  0
  1  2  1  6
  1  3  2  0
 25 28  1  0
 25 24  1  0
 25 26  1  1
 25 27  2  0
  6 11  1  0
  6 12  1  0
 29 36  1  0
 29 37  1  0
  9  7  1  6
  7 13  1  0
 10  8  1  1
  8 14  1  0
  4  5  1  0
 36 28  1  6
 33 30  1  6
 30 38  1  0
 34 31  1  1
 31 39  1  0
 35 32  1  1
 32 40  1  0
 41 43  1  0
 15 19  2  0
 42 43  2  0
 16 22  2  0
 12 17  1  6
 17 19  1  0
 17 20  1  0
 18 19  1  0
 18 22  1  0
 18 23  1  0
  9 10  1  0
  9 11  1  0
 10 12  1  0
 11  5  1  1
 33 34  1  0
 33 35  1  0
 34 36  1  0
 35 37  1  0
 37 43  1  6
 20 21  2  0
 21 22  1  0
M  CHG  3   2  -1  26  -1  41  -1
M  END
>  <COMPND>  (118) 
    udp_gluA.pdb 

>  <AUTHOR>  (118) 
    GENERATED BY OPEN BABEL 3.1.1

>  <MASTER>  (118) 
        0    0    0    0    0    0    0    0   56    0   56    0

>  <minimizedAffinity>  (118) 
-6.76834

>  <CNNscore>  (118) 
0.4878206849

>  <CNNaffinity>  (118) 
4.0977468491

>  <CNN_VS>  (118) 
1.9989656210

>  <CNNaffinity_variance>  (118) 
0.1346104890

$$$$
119
     RDKit          3D

 43 45  0  0  0  0  0  0  0  0999 V2000
   21.3859   74.3039   -2.9912 P   0  0  2  0  0  0  0  0  0  0  0  0
   22.7839   73.9014   -3.7001 O   0  0  0  0  0  0  0  0  0  0  0  0
   21.1900   75.7746   -2.7663 O   0  0  0  0  0  0  0  0  0  0  0  0
   21.3422   73.3783   -1.6648 O   0  0  0  0  0  0  0  0  0  0  0  0
   22.5166   73.2619   -0.8826 C   0  0  0  0  0  0  0  0  0  0  0  0
   23.9516   71.6542    0.1821 O   0  0  0  0  0  0  0  0  0  0  0  0
   21.4530   70.1241    0.8205 O   0  0  0  0  0  0  0  0  0  0  0  0
   22.0072   71.3718    3.1811 O   0  0  0  0  0  0  0  0  0  0  0  0
   21.6626   71.5358    0.7797 C   0  0  1  0  0  0  0  0  0  0  0  0
   22.4554   71.9832    1.9895 C   0  0  2  0  0  0  0  0  0  0  0  0
   22.6258   71.8350   -0.3609 C   0  0  1  0  0  0  0  0  0  0  0  0
   23.8670   71.5662    1.6133 C   0  0  2  0  0  0  0  0  0  0  0  0
   20.8407   69.9085    1.5418 H   0  0  0  0  0  0  0  0  0  0  0  0
   21.1046   71.6694    3.3775 H   0  0  0  0  0  0  0  0  0  0  0  0
   26.4430   70.7107    2.3936 O   0  0  0  0  0  0  0  0  0  0  0  0
   27.6097   74.9326    3.8284 O   0  0  0  0  0  0  0  0  0  0  0  0
   24.8638   72.4209    2.1934 N   0  0  0  0  0  0  0  0  0  0  0  0
   27.0213   72.8140    3.1084 N   0  0  0  0  0  0  0  0  0  0  0  0
   26.1266   71.8915    2.5503 C   0  0  0  0  0  0  0  0  0  0  0  0
   24.5874   73.7667    2.4019 C   0  0  0  0  0  0  0  0  0  0  0  0
   25.4505   74.6338    2.9348 C   0  0  0  0  0  0  0  0  0  0  0  0
   26.7919   74.1613    3.3359 C   0  0  0  0  0  0  0  0  0  0  0  0
   27.9062   72.4684    3.3667 H   0  0  0  0  0  0  0  0  0  0  0  0
   20.2814   73.6165   -3.9506 O   0  0  0  0  0  0  0  0  0  0  0  0
   18.6748   73.5051   -3.8094 P   0  0  2  0  0  0  0  0  0  0  0  0
   18.1783   75.0313   -4.0203 O   0  0  0  0  0  0  0  0  0  0  0  0
   18.2114   72.8755   -2.5277 O   0  0  0  0  0  0  0  0  0  0  0  0
   18.1991   72.7341   -5.1443 O   0  0  0  0  0  0  0  0  0  0  0  0
   18.3335   70.3707   -5.2179 O   0  0  0  0  0  0  0  0  0  0  0  0
   17.9032   71.3133   -9.2172 O   0  0  0  0  0  0  0  0  0  0  0  0
   19.6628   72.8953   -7.5039 O   0  0  0  0  0  0  0  0  0  0  0  0
   15.6550   70.2362   -7.7219 O   0  0  0  0  0  0  0  0  0  0  0  0
   17.7166   71.4798   -7.8117 C   0  0  2  0  0  0  0  0  0  0  0  0
   19.0751   71.6539   -7.1322 C   0  0  2  0  0  0  0  0  0  0  0  0
   17.0103   70.2318   -7.2773 C   0  0  1  0  0  0  0  0  0  0  0  0
   18.9357   71.6048   -5.6100 C   0  0  1  0  0  0  0  0  0  0  0  0
   17.0232   70.1946   -5.7519 C   0  0  1  0  0  0  0  0  0  0  0  0
   18.3506   72.0945   -9.5790 H   0  0  0  0  0  0  0  0  0  0  0  0
   19.7539   72.9335   -8.4686 H   0  0  0  0  0  0  0  0  0  0  0  0
   15.6327   70.2599   -8.6913 H   0  0  0  0  0  0  0  0  0  0  0  0
   17.3454   68.5207   -4.1407 O   0  0  0  0  0  0  0  0  0  0  0  0
   15.7952   68.1178   -5.7635 O   0  0  0  0  0  0  0  0  0  0  0  0
   16.6359   68.8413   -5.2510 C   0  0  0  0  0  0  0  0  0  0  0  0
  1  4  1  0
  1 24  1  0
  1  2  1  6
  1  3  2  0
 25 28  1  0
 25 24  1  0
 25 26  1  6
 25 27  2  0
  6 11  1  0
  6 12  1  0
 29 36  1  0
 29 37  1  0
  9  7  1  1
  7 13  1  0
 10  8  1  1
  8 14  1  0
  4  5  1  0
 36 28  1  6
 33 30  1  6
 30 38  1  0
 34 31  1  1
 31 39  1  0
 35 32  1  1
 32 40  1  0
 41 43  1  0
 15 19  2  0
 42 43  2  0
 16 22  2  0
 12 17  1  1
 17 19  1  0
 17 20  1  0
 18 19  1  0
 18 22  1  0
 18 23  1  0
  9 10  1  0
  9 11  1  0
 10 12  1  0
 11  5  1  1
 33 34  1  0
 33 35  1  0
 34 36  1  0
 35 37  1  0
 37 43  1  6
 20 21  2  0
 21 22  1  0
M  CHG  3   2  -1  26  -1  41  -1
M  END
>  <COMPND>  (119) 
    udp_gluA.pdb 

>  <AUTHOR>  (119) 
    GENERATED BY OPEN BABEL 3.1.1

>  <MASTER>  (119) 
        0    0    0    0    0    0    0    0   56    0   56    0

>  <minimizedAffinity>  (119) 
-6.96423

>  <CNNscore>  (119) 
0.4774935246

>  <CNNaffinity>  (119) 
4.2868995667

>  <CNN_VS>  (119) 
2.0469667912

>  <CNNaffinity_variance>  (119) 
0.1380342394

$$$$
120
     RDKit          3D

 43 45  0  0  0  0  0  0  0  0999 V2000
   14.4272   71.3052   -1.9485 P   0  0  2  0  0  0  0  0  0  0  0  0
   15.2931   71.7739   -0.6642 O   0  0  0  0  0  0  0  0  0  0  0  0
   14.1082   72.3950   -2.9295 O   0  0  0  0  0  0  0  0  0  0  0  0
   13.1526   70.5467   -1.3019 O   0  0  0  0  0  0  0  0  0  0  0  0
   13.3120   69.2097   -0.8643 C   0  0  0  0  0  0  0  0  0  0  0  0
   11.3162   68.7355    0.3886 O   0  0  0  0  0  0  0  0  0  0  0  0
   13.1268   68.2233    2.7233 O   0  0  0  0  0  0  0  0  0  0  0  0
   12.5340   65.7038    1.8651 O   0  0  0  0  0  0  0  0  0  0  0  0
   13.3341   67.9389    1.3396 C   0  0  1  0  0  0  0  0  0  0  0  0
   12.4965   66.7504    0.9176 C   0  0  2  0  0  0  0  0  0  0  0  0
   12.7140   69.0693    0.5297 C   0  0  1  0  0  0  0  0  0  0  0  0
   11.1155   67.3692    0.7841 C   0  0  2  0  0  0  0  0  0  0  0  0
   13.5145   67.5146    3.2610 H   0  0  0  0  0  0  0  0  0  0  0  0
   13.4337   65.3430    1.9129 H   0  0  0  0  0  0  0  0  0  0  0  0
    8.3058   67.5902    0.6027 O   0  0  0  0  0  0  0  0  0  0  0  0
    8.1393   64.7932   -3.0569 O   0  0  0  0  0  0  0  0  0  0  0  0
   10.3128   66.7094   -0.2064 N   0  0  0  0  0  0  0  0  0  0  0  0
    8.2254   66.1961   -1.2192 N   0  0  0  0  0  0  0  0  0  0  0  0
    8.9090   66.8868   -0.2099 C   0  0  0  0  0  0  0  0  0  0  0  0
   10.9159   65.8994   -1.1608 C   0  0  0  0  0  0  0  0  0  0  0  0
   10.2511   65.2475   -2.1169 C   0  0  0  0  0  0  0  0  0  0  0  0
    8.7812   65.3786   -2.1900 C   0  0  0  0  0  0  0  0  0  0  0  0
    7.2469   66.3025   -1.2406 H   0  0  0  0  0  0  0  0  0  0  0  0
   15.3046   70.0900   -2.5538 O   0  0  0  0  0  0  0  0  0  0  0  0
   16.7304   70.0871   -3.3157 P   0  0  2  0  0  0  0  0  0  0  0  0
   17.0456   68.5106   -3.5046 O   0  0  0  0  0  0  0  0  0  0  0  0
   17.8094   70.8527   -2.6061 O   0  0  0  0  0  0  0  0  0  0  0  0
   16.4008   70.6174   -4.8031 O   0  0  0  0  0  0  0  0  0  0  0  0
   18.3058   71.5548   -5.8527 O   0  0  0  0  0  0  0  0  0  0  0  0
   15.3338   72.3997   -8.5953 O   0  0  0  0  0  0  0  0  0  0  0  0
   14.8446   72.7266   -5.7337 O   0  0  0  0  0  0  0  0  0  0  0  0
   17.2264   70.2538   -9.1092 O   0  0  0  0  0  0  0  0  0  0  0  0
   15.9918   71.6449   -7.5777 C   0  0  2  0  0  0  0  0  0  0  0  0
   16.1231   72.4953   -6.3139 C   0  0  2  0  0  0  0  0  0  0  0  0
   17.3751   71.2514   -8.1006 C   0  0  1  0  0  0  0  0  0  0  0  0
   17.0209   71.8089   -5.2835 C   0  0  1  0  0  0  0  0  0  0  0  0
   18.2533   70.6908   -6.9857 C   0  0  1  0  0  0  0  0  0  0  0  0
   14.4524   72.6610   -8.2854 H   0  0  0  0  0  0  0  0  0  0  0  0
   14.2697   73.1617   -6.3822 H   0  0  0  0  0  0  0  0  0  0  0  0
   16.6693   70.5980   -9.8247 H   0  0  0  0  0  0  0  0  0  0  0  0
   19.8227   69.7634   -8.4617 O   0  0  0  0  0  0  0  0  0  0  0  0
   20.6002   71.2460   -6.9136 O   0  0  0  0  0  0  0  0  0  0  0  0
   19.6811   70.6200   -7.4200 C   0  0  0  0  0  0  0  0  0  0  0  0
  1  4  1  0
  1 24  1  0
  1  2  1  1
  1  3  2  0
 25 28  1  0
 25 24  1  0
 25 26  1  6
 25 27  2  0
  6 11  1  0
  6 12  1  0
 29 36  1  0
 29 37  1  0
  9  7  1  1
  7 13  1  0
 10  8  1  1
  8 14  1  0
  4  5  1  0
 36 28  1  6
 33 30  1  6
 30 38  1  0
 34 31  1  1
 31 39  1  0
 35 32  1  6
 32 40  1  0
 41 43  1  0
 15 19  2  0
 42 43  2  0
 16 22  2  0
 12 17  1  6
 17 19  1  0
 17 20  1  0
 18 19  1  0
 18 22  1  0
 18 23  1  0
  9 10  1  0
  9 11  1  0
 10 12  1  0
 11  5  1  6
 33 34  1  0
 33 35  1  0
 34 36  1  0
 35 37  1  0
 37 43  1  6
 20 21  2  0
 21 22  1  0
M  CHG  3   2  -1  26  -1  41  -1
M  END
>  <COMPND>  (120) 
    udp_gluA.pdb 

>  <AUTHOR>  (120) 
    GENERATED BY OPEN BABEL 3.1.1

>  <MASTER>  (120) 
        0    0    0    0    0    0    0    0   56    0   56    0

>  <minimizedAffinity>  (120) 
-6.85084

>  <CNNscore>  (120) 
0.4630694687

>  <CNNaffinity>  (120) 
4.1856098175

>  <CNN_VS>  (120) 
1.9382281303

>  <CNNaffinity_variance>  (120) 
0.0989136770

$$$$
121
     RDKit          3D

 43 45  0  0  0  0  0  0  0  0999 V2000
   22.8658   71.6199   -3.3094 P   0  0  2  0  0  0  0  0  0  0  0  0
   22.5395   71.8842   -4.8722 O   0  0  0  0  0  0  0  0  0  0  0  0
   24.1973   70.9826   -3.0391 O   0  0  0  0  0  0  0  0  0  0  0  0
   21.5749   70.8036   -2.7755 O   0  0  0  0  0  0  0  0  0  0  0  0
   20.6913   70.2387   -3.7266 C   0  0  0  0  0  0  0  0  0  0  0  0
   18.8733   71.4874   -4.6823 O   0  0  0  0  0  0  0  0  0  0  0  0
   17.1615   70.2807   -2.5363 O   0  0  0  0  0  0  0  0  0  0  0  0
   16.5459   68.7605   -4.7149 O   0  0  0  0  0  0  0  0  0  0  0  0
   18.2494   69.7013   -3.2570 C   0  0  1  0  0  0  0  0  0  0  0  0
   17.8218   69.3643   -4.6698 C   0  0  2  0  0  0  0  0  0  0  0  0
   19.2904   70.7878   -3.4898 C   0  0  1  0  0  0  0  0  0  0  0  0
   17.8479   70.7270   -5.3408 C   0  0  2  0  0  0  0  0  0  0  0  0
   16.4835   69.6053   -2.3757 H   0  0  0  0  0  0  0  0  0  0  0  0
   16.5817   67.8959   -4.2753 H   0  0  0  0  0  0  0  0  0  0  0  0
   15.9360   70.2691   -7.3684 O   0  0  0  0  0  0  0  0  0  0  0  0
   19.1404   70.4231  -10.6778 O   0  0  0  0  0  0  0  0  0  0  0  0
   18.1552   70.6428   -6.7405 N   0  0  0  0  0  0  0  0  0  0  0  0
   17.5340   70.3452   -9.0147 N   0  0  0  0  0  0  0  0  0  0  0  0
   17.1208   70.4095   -7.6774 C   0  0  0  0  0  0  0  0  0  0  0  0
   19.4673   70.7922   -7.1728 C   0  0  0  0  0  0  0  0  0  0  0  0
   19.8457   70.7285   -8.4509 C   0  0  0  0  0  0  0  0  0  0  0  0
   18.8265   70.4869   -9.4931 C   0  0  0  0  0  0  0  0  0  0  0  0
   16.8318   70.1816   -9.6852 H   0  0  0  0  0  0  0  0  0  0  0  0
   22.6717   73.0811   -2.6460 O   0  0  0  0  0  0  0  0  0  0  0  0
   23.7430   74.2428   -2.3050 P   0  0  2  0  0  0  0  0  0  0  0  0
   22.8129   75.5471   -2.0726 O   0  0  0  0  0  0  0  0  0  0  0  0
   24.8098   74.4216   -3.3461 O   0  0  0  0  0  0  0  0  0  0  0  0
   24.2967   73.8706   -0.8362 O   0  0  0  0  0  0  0  0  0  0  0  0
   22.4580   73.4431    0.5941 O   0  0  0  0  0  0  0  0  0  0  0  0
   25.6532   72.9853    3.1728 O   0  0  0  0  0  0  0  0  0  0  0  0
   25.6131   75.1742    1.2384 O   0  0  0  0  0  0  0  0  0  0  0  0
   24.2487   70.6499    2.1606 O   0  0  0  0  0  0  0  0  0  0  0  0
   24.9732   72.9350    1.9185 C   0  0  2  0  0  0  0  0  0  0  0  0
   24.5010   74.3378    1.5357 C   0  0  2  0  0  0  0  0  0  0  0  0
   23.7766   71.9926    2.0668 C   0  0  1  0  0  0  0  0  0  0  0  0
   23.5744   74.2905    0.3200 C   0  0  1  0  0  0  0  0  0  0  0  0
   22.8345   72.0960    0.8708 C   0  0  1  0  0  0  0  0  0  0  0  0
   26.4177   73.5785    3.1027 H   0  0  0  0  0  0  0  0  0  0  0  0
   26.2055   75.2086    2.0055 H   0  0  0  0  0  0  0  0  0  0  0  0
   24.8495   70.5706    2.9180 H   0  0  0  0  0  0  0  0  0  0  0  0
   21.6276   70.0910    1.0285 O   0  0  0  0  0  0  0  0  0  0  0  0
   20.5043   72.0204    1.4917 O   0  0  0  0  0  0  0  0  0  0  0  0
   21.5271   71.4363    1.1668 C   0  0  0  0  0  0  0  0  0  0  0  0
  1  4  1  0
  1 24  1  0
  1  2  1  6
  1  3  2  0
 25 28  1  0
 25 24  1  0
 25 26  1  1
 25 27  2  0
  6 11  1  0
  6 12  1  0
 29 36  1  0
 29 37  1  0
  9  7  1  1
  7 13  1  0
 10  8  1  1
  8 14  1  0
  4  5  1  0
 36 28  1  6
 33 30  1  1
 30 38  1  0
 34 31  1  6
 31 39  1  0
 35 32  1  6
 32 40  1  0
 41 43  1  0
 15 19  2  0
 42 43  2  0
 16 22  2  0
 12 17  1  6
 17 19  1  0
 17 20  1  0
 18 19  1  0
 18 22  1  0
 18 23  1  0
  9 10  1  0
  9 11  1  0
 10 12  1  0
 11  5  1  6
 33 34  1  0
 33 35  1  0
 34 36  1  0
 35 37  1  0
 37 43  1  1
 20 21  2  0
 21 22  1  0
M  CHG  3   2  -1  26  -1  41  -1
M  END
>  <COMPND>  (121) 
    udp_gluA.pdb 

>  <AUTHOR>  (121) 
    GENERATED BY OPEN BABEL 3.1.1

>  <MASTER>  (121) 
        0    0    0    0    0    0    0    0   56    0   56    0

>  <minimizedAffinity>  (121) 
-8.03907

>  <CNNscore>  (121) 
0.9237661362

>  <CNNaffinity>  (121) 
4.8983974457

>  <CNN_VS>  (121) 
4.5249738693

>  <CNNaffinity_variance>  (121) 
0.0598230362

$$$$
122
     RDKit          3D

 43 45  0  0  0  0  0  0  0  0999 V2000
   22.9374   71.4393   -2.3207 P   0  0  2  0  0  0  0  0  0  0  0  0
   22.5747   72.9375   -2.8134 O   0  0  0  0  0  0  0  0  0  0  0  0
   24.2066   70.8754   -2.8889 O   0  0  0  0  0  0  0  0  0  0  0  0
   21.5931   70.5930   -2.6281 O   0  0  0  0  0  0  0  0  0  0  0  0
   20.9316   70.7997   -3.8627 C   0  0  0  0  0  0  0  0  0  0  0  0
   18.9330   71.7518   -4.7993 O   0  0  0  0  0  0  0  0  0  0  0  0
   17.4749   70.4725   -2.5127 O   0  0  0  0  0  0  0  0  0  0  0  0
   16.9724   68.7586   -4.5733 O   0  0  0  0  0  0  0  0  0  0  0  0
   18.5984   69.9910   -3.2506 C   0  0  1  0  0  0  0  0  0  0  0  0
   18.1618   69.5186   -4.6212 C   0  0  2  0  0  0  0  0  0  0  0  0
   19.4825   71.1829   -3.5911 C   0  0  1  0  0  0  0  0  0  0  0  0
   17.9876   70.8309   -5.3664 C   0  0  2  0  0  0  0  0  0  0  0  0
   16.8953   69.7287   -2.2837 H   0  0  0  0  0  0  0  0  0  0  0  0
   17.1353   67.9334   -4.0891 H   0  0  0  0  0  0  0  0  0  0  0  0
   16.0243   70.2155   -7.3012 O   0  0  0  0  0  0  0  0  0  0  0  0
   19.0989   70.3591  -10.7320 O   0  0  0  0  0  0  0  0  0  0  0  0
   18.2476   70.7015   -6.7723 N   0  0  0  0  0  0  0  0  0  0  0  0
   17.5577   70.2866   -9.0080 N   0  0  0  0  0  0  0  0  0  0  0  0
   17.1906   70.3895   -7.6597 C   0  0  0  0  0  0  0  0  0  0  0  0
   19.5362   70.8843   -7.2591 C   0  0  0  0  0  0  0  0  0  0  0  0
   19.8707   70.7831   -8.5469 C   0  0  0  0  0  0  0  0  0  0  0  0
   18.8254   70.4591   -9.5398 C   0  0  0  0  0  0  0  0  0  0  0  0
   16.8392   70.0682   -9.6446 H   0  0  0  0  0  0  0  0  0  0  0  0
   22.9220   71.5734   -0.7099 O   0  0  0  0  0  0  0  0  0  0  0  0
   21.6930   71.6236    0.3393 P   0  0  2  0  0  0  0  0  0  0  0  0
   21.6238   70.1069    0.9007 O   0  0  0  0  0  0  0  0  0  0  0  0
   20.4046   72.1261   -0.2451 O   0  0  0  0  0  0  0  0  0  0  0  0
   22.2492   72.4920    1.5799 O   0  0  0  0  0  0  0  0  0  0  0  0
   24.0698   71.5501    2.7662 O   0  0  0  0  0  0  0  0  0  0  0  0
   22.9391   74.6343    5.2717 O   0  0  0  0  0  0  0  0  0  0  0  0
   20.9228   72.9616    3.9791 O   0  0  0  0  0  0  0  0  0  0  0  0
   25.3191   74.8921    3.6223 O   0  0  0  0  0  0  0  0  0  0  0  0
   23.1269   73.9747    4.0197 C   0  0  2  0  0  0  0  0  0  0  0  0
   22.3171   72.6781    3.9978 C   0  0  2  0  0  0  0  0  0  0  0  0
   24.6190   73.6729    3.8633 C   0  0  1  0  0  0  0  0  0  0  0  0
   22.6700   71.8331    2.7730 C   0  0  1  0  0  0  0  0  0  0  0  0
   24.8762   72.7240    2.6962 C   0  0  1  0  0  0  0  0  0  0  0  0
   21.9979   74.8361    5.3931 H   0  0  0  0  0  0  0  0  0  0  0  0
   20.6919   73.4977    4.7534 H   0  0  0  0  0  0  0  0  0  0  0  0
   25.1636   75.5050    4.3578 H   0  0  0  0  0  0  0  0  0  0  0  0
   26.2819   70.8697    2.4014 O   0  0  0  0  0  0  0  0  0  0  0  0
   27.2586   72.8201    3.0654 O   0  0  0  0  0  0  0  0  0  0  0  0
   26.2665   72.1797    2.7515 C   0  0  0  0  0  0  0  0  0  0  0  0
  1  4  1  0
  1 24  1  0
  1  2  1  6
  1  3  2  0
 25 28  1  0
 25 24  1  0
 25 26  1  1
 25 27  2  0
  6 11  1  0
  6 12  1  0
 29 36  1  0
 29 37  1  0
  9  7  1  1
  7 13  1  0
 10  8  1  1
  8 14  1  0
  4  5  1  0
 36 28  1  6
 33 30  1  1
 30 38  1  0
 34 31  1  6
 31 39  1  0
 35 32  1  6
 32 40  1  0
 41 43  1  0
 15 19  2  0
 42 43  2  0
 16 22  2  0
 12 17  1  6
 17 19  1  0
 17 20  1  0
 18 19  1  0
 18 22  1  0
 18 23  1  0
  9 10  1  0
  9 11  1  0
 10 12  1  0
 11  5  1  6
 33 34  1  0
 33 35  1  0
 34 36  1  0
 35 37  1  0
 37 43  1  1
 20 21  2  0
 21 22  1  0
M  CHG  3   2  -1  26  -1  41  -1
M  END
>  <COMPND>  (122) 
    udp_gluA.pdb 

>  <AUTHOR>  (122) 
    GENERATED BY OPEN BABEL 3.1.1

>  <MASTER>  (122) 
        0    0    0    0    0    0    0    0   56    0   56    0

>  <minimizedAffinity>  (122) 
-8.24752

>  <CNNscore>  (122) 
0.8942610621

>  <CNNaffinity>  (122) 
4.7456130981

>  <CNN_VS>  (122) 
4.2438168526

>  <CNNaffinity_variance>  (122) 
0.0825688466

$$$$
123
     RDKit          3D

 43 45  0  0  0  0  0  0  0  0999 V2000
   21.3459   72.5517   -3.6370 P   0  0  2  0  0  0  0  0  0  0  0  0
   20.5143   73.8547   -3.1579 O   0  0  0  0  0  0  0  0  0  0  0  0
   22.5892   72.8475   -4.4235 O   0  0  0  0  0  0  0  0  0  0  0  0
   20.2402   71.6394   -4.3874 O   0  0  0  0  0  0  0  0  0  0  0  0
   19.5396   70.6682   -3.6321 C   0  0  0  0  0  0  0  0  0  0  0  0
   17.7631   71.5621   -4.9822 O   0  0  0  0  0  0  0  0  0  0  0  0
   15.8877   70.1246   -3.1362 O   0  0  0  0  0  0  0  0  0  0  0  0
   15.9715   68.4733   -5.3046 O   0  0  0  0  0  0  0  0  0  0  0  0
   17.1763   69.7266   -3.6047 C   0  0  1  0  0  0  0  0  0  0  0  0
   17.0959   69.2897   -5.0520 C   0  0  2  0  0  0  0  0  0  0  0  0
   18.0482   70.9716   -3.6956 C   0  0  1  0  0  0  0  0  0  0  0  0
   17.0271   70.6214   -5.7801 C   0  0  2  0  0  0  0  0  0  0  0  0
   15.3126   69.3458   -3.0699 H   0  0  0  0  0  0  0  0  0  0  0  0
   16.0630   67.6379   -4.8192 H   0  0  0  0  0  0  0  0  0  0  0  0
   15.5585   70.7295   -8.1901 O   0  0  0  0  0  0  0  0  0  0  0  0
   19.3779   70.3807  -10.7463 O   0  0  0  0  0  0  0  0  0  0  0  0
   17.6124   70.5609   -7.0895 N   0  0  0  0  0  0  0  0  0  0  0  0
   17.4621   70.5546   -9.4609 N   0  0  0  0  0  0  0  0  0  0  0  0
   16.7855   70.6232   -8.2359 C   0  0  0  0  0  0  0  0  0  0  0  0
   18.9900   70.4430   -7.2286 C   0  0  0  0  0  0  0  0  0  0  0  0
   19.6205   70.3790   -8.4029 C   0  0  0  0  0  0  0  0  0  0  0  0
   18.8295   70.4365   -9.6497 C   0  0  0  0  0  0  0  0  0  0  0  0
   16.9072   70.5940  -10.2733 H   0  0  0  0  0  0  0  0  0  0  0  0
   21.5979   71.7534   -2.2542 O   0  0  0  0  0  0  0  0  0  0  0  0
   22.9425   71.5381   -1.3828 P   0  0  2  0  0  0  0  0  0  0  0  0
   24.0111   71.0072   -2.4767 O   0  0  0  0  0  0  0  0  0  0  0  0
   22.7697   70.6332   -0.1973 O   0  0  0  0  0  0  0  0  0  0  0  0
   23.4383   73.0297   -1.0199 O   0  0  0  0  0  0  0  0  0  0  0  0
   22.8058   73.6523    1.1759 O   0  0  0  0  0  0  0  0  0  0  0  0
   24.4367   77.1670   -0.2576 O   0  0  0  0  0  0  0  0  0  0  0  0
   22.6961   75.5432   -1.9512 O   0  0  0  0  0  0  0  0  0  0  0  0
   25.9338   75.5198    1.6122 O   0  0  0  0  0  0  0  0  0  0  0  0
   24.2920   75.7520   -0.1358 C   0  0  2  0  0  0  0  0  0  0  0  0
   22.8792   75.3441   -0.5543 C   0  0  2  0  0  0  0  0  0  0  0  0
   24.5440   75.3750    1.3257 C   0  0  1  0  0  0  0  0  0  0  0  0
   22.6126   73.8755   -0.2213 C   0  0  1  0  0  0  0  0  0  0  0  0
   24.1359   73.9318    1.6071 C   0  0  1  0  0  0  0  0  0  0  0  0
   24.2809   77.4301   -1.1784 H   0  0  0  0  0  0  0  0  0  0  0  0
   22.8640   76.4730   -2.1696 H   0  0  0  0  0  0  0  0  0  0  0  0
   26.2064   76.4341    1.4371 H   0  0  0  0  0  0  0  0  0  0  0  0
   25.3198   73.6108    3.6063 O   0  0  0  0  0  0  0  0  0  0  0  0
   23.0436   73.5434    3.7231 O   0  0  0  0  0  0  0  0  0  0  0  0
   24.0727   73.6754    3.0776 C   0  0  0  0  0  0  0  0  0  0  0  0
  1  4  1  0
  1 24  1  0
  1  2  1  1
  1  3  2  0
 25 28  1  0
 25 24  1  0
 25 26  1  6
 25 27  2  0
  6 11  1  0
  6 12  1  0
 29 36  1  0
 29 37  1  0
  9  7  1  6
  7 13  1  0
 10  8  1  1
  8 14  1  0
  4  5  1  0
 36 28  1  6
 33 30  1  1
 30 38  1  0
 34 31  1  6
 31 39  1  0
 35 32  1  6
 32 40  1  0
 41 43  1  0
 15 19  2  0
 42 43  2  0
 16 22  2  0
 12 17  1  6
 17 19  1  0
 17 20  1  0
 18 19  1  0
 18 22  1  0
 18 23  1  0
  9 10  1  0
  9 11  1  0
 10 12  1  0
 11  5  1  6
 33 34  1  0
 33 35  1  0
 34 36  1  0
 35 37  1  0
 37 43  1  1
 20 21  2  0
 21 22  1  0
M  CHG  3   2  -1  26  -1  41  -1
M  END
>  <COMPND>  (123) 
    udp_gluA.pdb 

>  <AUTHOR>  (123) 
    GENERATED BY OPEN BABEL 3.1.1

>  <MASTER>  (123) 
        0    0    0    0    0    0    0    0   56    0   56    0

>  <minimizedAffinity>  (123) 
-6.63317

>  <CNNscore>  (123) 
0.8936451077

>  <CNNaffinity>  (123) 
4.6625928879

>  <CNN_VS>  (123) 
4.1667032242

>  <CNNaffinity_variance>  (123) 
0.1328952909

$$$$
124
     RDKit          3D

 43 45  0  0  0  0  0  0  0  0999 V2000
   20.8447   71.2396   -3.4832 P   0  0  2  0  0  0  0  0  0  0  0  0
   21.1247   72.2719   -4.6976 O   0  0  0  0  0  0  0  0  0  0  0  0
   21.0761   69.7943   -3.8140 O   0  0  0  0  0  0  0  0  0  0  0  0
   19.3508   71.6168   -2.9892 O   0  0  0  0  0  0  0  0  0  0  0  0
   18.5779   72.4970   -3.7845 C   0  0  0  0  0  0  0  0  0  0  0  0
   16.7847   71.9866   -5.3017 O   0  0  0  0  0  0  0  0  0  0  0  0
   15.6957   70.2291   -3.1299 O   0  0  0  0  0  0  0  0  0  0  0  0
   16.8934   68.4381   -4.8015 O   0  0  0  0  0  0  0  0  0  0  0  0
   17.0534   70.4811   -3.4928 C   0  0  1  0  0  0  0  0  0  0  0  0
   17.3953   69.7580   -4.7783 C   0  0  2  0  0  0  0  0  0  0  0  0
   17.1650   71.9414   -3.9093 C   0  0  1  0  0  0  0  0  0  0  0  0
   16.7460   70.6489   -5.8236 C   0  0  2  0  0  0  0  0  0  0  0  0
   15.5996   69.3019   -2.8600 H   0  0  0  0  0  0  0  0  0  0  0  0
   17.3380   67.9111   -4.1185 H   0  0  0  0  0  0  0  0  0  0  0  0
   15.4801   70.6433   -8.3483 O   0  0  0  0  0  0  0  0  0  0  0  0
   19.5144   70.5258  -10.5742 O   0  0  0  0  0  0  0  0  0  0  0  0
   17.4415   70.6172   -7.0790 N   0  0  0  0  0  0  0  0  0  0  0  0
   17.4906   70.5838   -9.4545 N   0  0  0  0  0  0  0  0  0  0  0  0
   16.7110   70.6170   -8.2908 C   0  0  0  0  0  0  0  0  0  0  0  0
   18.8306   70.5885   -7.1019 C   0  0  0  0  0  0  0  0  0  0  0  0
   19.5599   70.5571   -8.2190 C   0  0  0  0  0  0  0  0  0  0  0  0
   18.8738   70.5538   -9.5277 C   0  0  0  0  0  0  0  0  0  0  0  0
   17.0043   70.5809  -10.3105 H   0  0  0  0  0  0  0  0  0  0  0  0
   21.7767   71.8159   -2.2948 O   0  0  0  0  0  0  0  0  0  0  0  0
   23.3803   71.9958   -2.1959 P   0  0  2  0  0  0  0  0  0  0  0  0
   23.9470   70.7032   -2.9886 O   0  0  0  0  0  0  0  0  0  0  0  0
   23.8987   72.1379   -0.7942 O   0  0  0  0  0  0  0  0  0  0  0  0
   23.7125   73.2440   -3.1624 O   0  0  0  0  0  0  0  0  0  0  0  0
   25.0862   75.1373   -2.7915 O   0  0  0  0  0  0  0  0  0  0  0  0
   22.1508   76.6962   -5.2454 O   0  0  0  0  0  0  0  0  0  0  0  0
   21.4520   74.8625   -3.0812 O   0  0  0  0  0  0  0  0  0  0  0  0
   24.7911   76.1169   -6.3150 O   0  0  0  0  0  0  0  0  0  0  0  0
   23.0231   75.6876   -4.7355 C   0  0  2  0  0  0  0  0  0  0  0  0
   22.7316   75.4611   -3.2519 C   0  0  2  0  0  0  0  0  0  0  0  0
   24.4637   76.1670   -4.9277 C   0  0  1  0  0  0  0  0  0  0  0  0
   23.7917   74.5598   -2.6174 C   0  0  1  0  0  0  0  0  0  0  0  0
   25.4496   75.2896   -4.1618 C   0  0  1  0  0  0  0  0  0  0  0  0
   21.2294   76.4135   -5.1339 H   0  0  0  0  0  0  0  0  0  0  0  0
   20.7745   75.4290   -3.4817 H   0  0  0  0  0  0  0  0  0  0  0  0
   24.1708   76.6711   -6.8139 H   0  0  0  0  0  0  0  0  0  0  0  0
   27.6394   75.4070   -4.9941 O   0  0  0  0  0  0  0  0  0  0  0  0
   27.0894   76.8399   -3.3079 O   0  0  0  0  0  0  0  0  0  0  0  0
   26.7908   75.9434   -4.0825 C   0  0  0  0  0  0  0  0  0  0  0  0
  1  4  1  0
  1 24  1  0
  1  2  1  6
  1  3  2  0
 25 28  1  0
 25 24  1  0
 25 26  1  6
 25 27  2  0
  6 11  1  0
  6 12  1  0
 29 36  1  0
 29 37  1  0
  9  7  1  6
  7 13  1  0
 10  8  1  1
  8 14  1  0
  4  5  1  0
 36 28  1  6
 33 30  1  1
 30 38  1  0
 34 31  1  6
 31 39  1  0
 35 32  1  6
 32 40  1  0
 41 43  1  0
 15 19  2  0
 42 43  2  0
 16 22  2  0
 12 17  1  6
 17 19  1  0
 17 20  1  0
 18 19  1  0
 18 22  1  0
 18 23  1  0
  9 10  1  0
  9 11  1  0
 10 12  1  0
 11  5  1  6
 33 34  1  0
 33 35  1  0
 34 36  1  0
 35 37  1  0
 37 43  1  1
 20 21  2  0
 21 22  1  0
M  CHG  3   2  -1  26  -1  41  -1
M  END
>  <COMPND>  (124) 
    udp_gluA.pdb 

>  <AUTHOR>  (124) 
    GENERATED BY OPEN BABEL 3.1.1

>  <MASTER>  (124) 
        0    0    0    0    0    0    0    0   56    0   56    0

>  <minimizedAffinity>  (124) 
-6.53403

>  <CNNscore>  (124) 
0.8820669055

>  <CNNaffinity>  (124) 
4.7072443962

>  <CNN_VS>  (124) 
4.1521043777

>  <CNNaffinity_variance>  (124) 
0.1275847256

$$$$
125
     RDKit          3D

 43 45  0  0  0  0  0  0  0  0999 V2000
   21.5084   72.5615   -4.7443 P   0  0  2  0  0  0  0  0  0  0  0  0
   21.6065   74.1765   -4.7754 O   0  0  0  0  0  0  0  0  0  0  0  0
   22.3037   71.8579   -5.8046 O   0  0  0  0  0  0  0  0  0  0  0  0
   19.9171   72.2687   -4.7493 O   0  0  0  0  0  0  0  0  0  0  0  0
   19.3812   71.4281   -3.7440 C   0  0  0  0  0  0  0  0  0  0  0  0
   17.5146   71.7875   -5.2152 O   0  0  0  0  0  0  0  0  0  0  0  0
   15.8917   70.2270   -3.2346 O   0  0  0  0  0  0  0  0  0  0  0  0
   16.3788   68.3870   -5.1874 O   0  0  0  0  0  0  0  0  0  0  0  0
   17.2499   70.0431   -3.6348 C   0  0  1  0  0  0  0  0  0  0  0  0
   17.3105   69.4351   -5.0200 C   0  0  2  0  0  0  0  0  0  0  0  0
   17.8626   71.4181   -3.8632 C   0  0  1  0  0  0  0  0  0  0  0  0
   17.0080   70.6332   -5.9038 C   0  0  2  0  0  0  0  0  0  0  0  0
   15.4791   69.3619   -3.0828 H   0  0  0  0  0  0  0  0  0  0  0  0
   16.6149   67.6483   -4.6039 H   0  0  0  0  0  0  0  0  0  0  0  0
   15.6307   70.6859   -8.3689 O   0  0  0  0  0  0  0  0  0  0  0  0
   19.5421   70.2695  -10.7713 O   0  0  0  0  0  0  0  0  0  0  0  0
   17.6417   70.5403   -7.1885 N   0  0  0  0  0  0  0  0  0  0  0  0
   17.5801   70.4774   -9.5631 N   0  0  0  0  0  0  0  0  0  0  0  0
   16.8583   70.5765   -8.3663 C   0  0  0  0  0  0  0  0  0  0  0  0
   19.0232   70.4168   -7.2731 C   0  0  0  0  0  0  0  0  0  0  0  0
   19.6970   70.3236   -8.4212 C   0  0  0  0  0  0  0  0  0  0  0  0
   18.9533   70.3525   -9.6977 C   0  0  0  0  0  0  0  0  0  0  0  0
   17.0561   70.4982  -10.3964 H   0  0  0  0  0  0  0  0  0  0  0  0
   21.9395   72.2009   -3.2287 O   0  0  0  0  0  0  0  0  0  0  0  0
   23.3976   72.0627   -2.5443 P   0  0  2  0  0  0  0  0  0  0  0  0
   24.1243   73.4546   -2.9379 O   0  0  0  0  0  0  0  0  0  0  0  0
   24.1553   70.8326   -2.9523 O   0  0  0  0  0  0  0  0  0  0  0  0
   23.1191   72.1827   -0.9599 O   0  0  0  0  0  0  0  0  0  0  0  0
   24.4075   71.0566    0.6775 O   0  0  0  0  0  0  0  0  0  0  0  0
   20.8841   71.7593    2.7172 O   0  0  0  0  0  0  0  0  0  0  0  0
   20.8326   70.8750   -0.0666 O   0  0  0  0  0  0  0  0  0  0  0  0
   23.2391   73.3699    3.2748 O   0  0  0  0  0  0  0  0  0  0  0  0
   21.9180   72.0294    1.7706 C   0  0  2  0  0  0  0  0  0  0  0  0
   21.9936   70.8883    0.7559 C   0  0  2  0  0  0  0  0  0  0  0  0
   23.2386   72.1508    2.5343 C   0  0  1  0  0  0  0  0  0  0  0  0
   23.2312   71.0266   -0.1318 C   0  0  1  0  0  0  0  0  0  0  0  0
   24.4329   72.1564    1.5846 C   0  0  1  0  0  0  0  0  0  0  0  0
   20.0352   71.6780    2.2547 H   0  0  0  0  0  0  0  0  0  0  0  0
   20.0434   70.7877    0.4902 H   0  0  0  0  0  0  0  0  0  0  0  0
   22.4837   73.3791    3.8831 H   0  0  0  0  0  0  0  0  0  0  0  0
   26.1504   70.6718    2.1744 O   0  0  0  0  0  0  0  0  0  0  0  0
   26.2805   72.7935    2.9996 O   0  0  0  0  0  0  0  0  0  0  0  0
   25.7077   71.9436    2.3341 C   0  0  0  0  0  0  0  0  0  0  0  0
  1  4  1  0
  1 24  1  0
  1  2  1  6
  1  3  2  0
 25 28  1  0
 25 24  1  0
 25 26  1  6
 25 27  2  0
  6 11  1  0
  6 12  1  0
 29 36  1  0
 29 37  1  0
  9  7  1  6
  7 13  1  0
 10  8  1  1
  8 14  1  0
  4  5  1  0
 36 28  1  1
 33 30  1  1
 30 38  1  0
 34 31  1  6
 31 39  1  0
 35 32  1  6
 32 40  1  0
 41 43  1  0
 15 19  2  0
 42 43  2  0
 16 22  2  0
 12 17  1  6
 17 19  1  0
 17 20  1  0
 18 19  1  0
 18 22  1  0
 18 23  1  0
  9 10  1  0
  9 11  1  0
 10 12  1  0
 11  5  1  6
 33 34  1  0
 33 35  1  0
 34 36  1  0
 35 37  1  0
 37 43  1  1
 20 21  2  0
 21 22  1  0
M  CHG  3   2  -1  26  -1  41  -1
M  END
>  <COMPND>  (125) 
    udp_gluA.pdb 

>  <AUTHOR>  (125) 
    GENERATED BY OPEN BABEL 3.1.1

>  <MASTER>  (125) 
        0    0    0    0    0    0    0    0   56    0   56    0

>  <minimizedAffinity>  (125) 
-8.46275

>  <CNNscore>  (125) 
0.8734463453

>  <CNNaffinity>  (125) 
4.7534384727

>  <CNN_VS>  (125) 
4.1518735886

>  <CNNaffinity_variance>  (125) 
0.0420148149

$$$$
126
     RDKit          3D

 43 45  0  0  0  0  0  0  0  0999 V2000
   20.5300   71.2147   -1.4870 P   0  0  2  0  0  0  0  0  0  0  0  0
   21.0475   70.5602   -0.1004 O   0  0  0  0  0  0  0  0  0  0  0  0
   20.0187   72.6208   -1.3718 O   0  0  0  0  0  0  0  0  0  0  0  0
   19.4762   70.1287   -2.0598 O   0  0  0  0  0  0  0  0  0  0  0  0
   19.1472   70.1666   -3.4363 C   0  0  0  0  0  0  0  0  0  0  0  0
   17.5482   71.2999   -4.8279 O   0  0  0  0  0  0  0  0  0  0  0  0
   15.4403   69.8302   -3.2825 O   0  0  0  0  0  0  0  0  0  0  0  0
   15.6065   68.3833   -5.5879 O   0  0  0  0  0  0  0  0  0  0  0  0
   16.7374   69.3900   -3.6853 C   0  0  1  0  0  0  0  0  0  0  0  0
   16.7530   69.0945   -5.1701 C   0  0  2  0  0  0  0  0  0  0  0  0
   17.6876   70.5756   -3.5864 C   0  0  1  0  0  0  0  0  0  0  0  0
   16.8264   70.4889   -5.7684 C   0  0  2  0  0  0  0  0  0  0  0  0
   14.8156   69.0897   -3.3374 H   0  0  0  0  0  0  0  0  0  0  0  0
   15.6061   67.5025   -5.1803 H   0  0  0  0  0  0  0  0  0  0  0  0
   15.5490   70.6388   -8.2829 O   0  0  0  0  0  0  0  0  0  0  0  0
   19.5699   70.5602  -10.5346 O   0  0  0  0  0  0  0  0  0  0  0  0
   17.5154   70.5093   -7.0278 N   0  0  0  0  0  0  0  0  0  0  0  0
   17.5528   70.5985   -9.4020 N   0  0  0  0  0  0  0  0  0  0  0  0
   16.7794   70.5860   -8.2338 C   0  0  0  0  0  0  0  0  0  0  0  0
   18.9035   70.4552   -7.0599 C   0  0  0  0  0  0  0  0  0  0  0  0
   19.6269   70.4680   -8.1812 C   0  0  0  0  0  0  0  0  0  0  0  0
   18.9349   70.5459   -9.4844 C   0  0  0  0  0  0  0  0  0  0  0  0
   17.0626   70.6494  -10.2542 H   0  0  0  0  0  0  0  0  0  0  0  0
   21.8024   71.0392   -2.4683 O   0  0  0  0  0  0  0  0  0  0  0  0
   23.1467   71.9222   -2.6316 P   0  0  2  0  0  0  0  0  0  0  0  0
   24.2633   70.8238   -3.0404 O   0  0  0  0  0  0  0  0  0  0  0  0
   23.4972   72.7396   -1.4221 O   0  0  0  0  0  0  0  0  0  0  0  0
   22.9106   72.7825   -3.9756 O   0  0  0  0  0  0  0  0  0  0  0  0
   22.9122   75.1504   -3.9295 O   0  0  0  0  0  0  0  0  0  0  0  0
   20.9504   74.3802   -7.4828 O   0  0  0  0  0  0  0  0  0  0  0  0
   20.3647   72.8015   -5.0955 O   0  0  0  0  0  0  0  0  0  0  0  0
   23.7147   75.2797   -7.5074 O   0  0  0  0  0  0  0  0  0  0  0  0
   21.8856   74.1386   -6.4316 C   0  0  2  0  0  0  0  0  0  0  0  0
   21.1389   73.9954   -5.1052 C   0  0  2  0  0  0  0  0  0  0  0  0
   22.8497   75.3257   -6.3742 C   0  0  1  0  0  0  0  0  0  0  0  0
   22.1150   73.9655   -3.9283 C   0  0  1  0  0  0  0  0  0  0  0  0
   23.7015   75.2909   -5.1086 C   0  0  1  0  0  0  0  0  0  0  0  0
   20.3273   73.6386   -7.5382 H   0  0  0  0  0  0  0  0  0  0  0  0
   19.7433   72.8136   -5.8399 H   0  0  0  0  0  0  0  0  0  0  0  0
   23.1849   75.3011   -8.3197 H   0  0  0  0  0  0  0  0  0  0  0  0
   23.9653   77.1846   -3.7501 O   0  0  0  0  0  0  0  0  0  0  0  0
   25.2257   77.0819   -5.6475 O   0  0  0  0  0  0  0  0  0  0  0  0
   24.3908   76.5995   -4.8970 C   0  0  0  0  0  0  0  0  0  0  0  0
  1  4  1  0
  1 24  1  0
  1  2  1  1
  1  3  2  0
 25 28  1  0
 25 24  1  0
 25 26  1  6
 25 27  2  0
  6 11  1  0
  6 12  1  0
 29 36  1  0
 29 37  1  0
  9  7  1  6
  7 13  1  0
 10  8  1  6
  8 14  1  0
  4  5  1  0
 36 28  1  6
 33 30  1  6
 30 38  1  0
 34 31  1  6
 31 39  1  0
 35 32  1  6
 32 40  1  0
 41 43  1  0
 15 19  2  0
 42 43  2  0
 16 22  2  0
 12 17  1  6
 17 19  1  0
 17 20  1  0
 18 19  1  0
 18 22  1  0
 18 23  1  0
  9 10  1  0
  9 11  1  0
 10 12  1  0
 11  5  1  6
 33 34  1  0
 33 35  1  0
 34 36  1  0
 35 37  1  0
 37 43  1  1
 20 21  2  0
 21 22  1  0
M  CHG  3   2  -1  26  -1  41  -1
M  END
>  <COMPND>  (126) 
    udp_gluA.pdb 

>  <AUTHOR>  (126) 
    GENERATED BY OPEN BABEL 3.1.1

>  <MASTER>  (126) 
        0    0    0    0    0    0    0    0   56    0   56    0

>  <minimizedAffinity>  (126) 
-7.84753

>  <CNNscore>  (126) 
0.8681667447

>  <CNNaffinity>  (126) 
4.7402887344

>  <CNN_VS>  (126) 
4.1153612137

>  <CNNaffinity_variance>  (126) 
0.4051981568

$$$$
127
     RDKit          3D

 43 45  0  0  0  0  0  0  0  0999 V2000
   19.2498   73.0777   -1.4501 P   0  0  2  0  0  0  0  0  0  0  0  0
   17.8976   73.4261   -0.6322 O   0  0  0  0  0  0  0  0  0  0  0  0
   19.6635   74.1087   -2.4589 O   0  0  0  0  0  0  0  0  0  0  0  0
   18.9796   71.5928   -2.0332 O   0  0  0  0  0  0  0  0  0  0  0  0
   18.7598   71.4422   -3.4237 C   0  0  0  0  0  0  0  0  0  0  0  0
   16.9819   71.6458   -5.0285 O   0  0  0  0  0  0  0  0  0  0  0  0
   15.4329   69.7726   -3.2725 O   0  0  0  0  0  0  0  0  0  0  0  0
   16.3113   68.1318   -5.2656 O   0  0  0  0  0  0  0  0  0  0  0  0
   16.8304   69.7898   -3.5645 C   0  0  1  0  0  0  0  0  0  0  0  0
   17.0790   69.2793   -4.9680 C   0  0  2  0  0  0  0  0  0  0  0  0
   17.2700   71.2436   -3.6718 C   0  0  1  0  0  0  0  0  0  0  0  0
   16.6888   70.4793   -5.8139 C   0  0  2  0  0  0  0  0  0  0  0  0
   15.1289   68.8540   -3.1992 H   0  0  0  0  0  0  0  0  0  0  0  0
   16.5978   67.3959   -4.7014 H   0  0  0  0  0  0  0  0  0  0  0  0
   15.5103   70.6658   -8.3737 O   0  0  0  0  0  0  0  0  0  0  0  0
   19.6192   70.7310  -10.4611 O   0  0  0  0  0  0  0  0  0  0  0  0
   17.4271   70.5466   -7.0432 N   0  0  0  0  0  0  0  0  0  0  0  0
   17.5579   70.6971   -9.4110 N   0  0  0  0  0  0  0  0  0  0  0  0
   16.7386   70.6382   -8.2759 C   0  0  0  0  0  0  0  0  0  0  0  0
   18.8163   70.5232   -7.0201 C   0  0  0  0  0  0  0  0  0  0  0  0
   19.5836   70.5801   -8.1104 C   0  0  0  0  0  0  0  0  0  0  0  0
   18.9429   70.6763   -9.4384 C   0  0  0  0  0  0  0  0  0  0  0  0
   17.1012   70.7592  -10.2810 H   0  0  0  0  0  0  0  0  0  0  0  0
   20.3277   72.8157   -0.2743 O   0  0  0  0  0  0  0  0  0  0  0  0
   21.5028   71.7137   -0.1379 P   0  0  2  0  0  0  0  0  0  0  0  0
   22.1118   71.6351   -1.6356 O   0  0  0  0  0  0  0  0  0  0  0  0
   21.0482   70.3940    0.4150 O   0  0  0  0  0  0  0  0  0  0  0  0
   22.6498   72.4439    0.7303 O   0  0  0  0  0  0  0  0  0  0  0  0
   24.0983   71.6917    2.4464 O   0  0  0  0  0  0  0  0  0  0  0  0
   23.2294   75.5304    3.7023 O   0  0  0  0  0  0  0  0  0  0  0  0
   21.1291   73.8186    2.6102 O   0  0  0  0  0  0  0  0  0  0  0  0
   25.8112   74.9358    2.5056 O   0  0  0  0  0  0  0  0  0  0  0  0
   23.4561   74.4904    2.7509 C   0  0  2  0  0  0  0  0  0  0  0  0
   22.4341   73.3729    2.9610 C   0  0  2  0  0  0  0  0  0  0  0  0
   24.8760   73.9594    2.9600 C   0  0  1  0  0  0  0  0  0  0  0  0
   22.7845   72.1456    2.1187 C   0  0  1  0  0  0  0  0  0  0  0  0
   25.1066   72.6653    2.1850 C   0  0  1  0  0  0  0  0  0  0  0  0
   22.3329   75.8833    3.5884 H   0  0  0  0  0  0  0  0  0  0  0  0
   20.9003   74.5974    3.1407 H   0  0  0  0  0  0  0  0  0  0  0  0
   25.6750   75.7645    2.9910 H   0  0  0  0  0  0  0  0  0  0  0  0
   26.3293   70.6687    2.3272 O   0  0  0  0  0  0  0  0  0  0  0  0
   27.2793   72.5364    3.2263 O   0  0  0  0  0  0  0  0  0  0  0  0
   26.3556   71.9867    2.6452 C   0  0  0  0  0  0  0  0  0  0  0  0
  1  4  1  0
  1 24  1  0
  1  2  1  1
  1  3  2  0
 25 28  1  0
 25 24  1  0
 25 26  1  6
 25 27  2  0
  6 11  1  0
  6 12  1  0
 29 36  1  0
 29 37  1  0
  9  7  1  6
  7 13  1  0
 10  8  1  6
  8 14  1  0
  4  5  1  0
 36 28  1  6
 33 30  1  1
 30 38  1  0
 34 31  1  6
 31 39  1  0
 35 32  1  6
 32 40  1  0
 41 43  1  0
 15 19  2  0
 42 43  2  0
 16 22  2  0
 12 17  1  6
 17 19  1  0
 17 20  1  0
 18 19  1  0
 18 22  1  0
 18 23  1  0
  9 10  1  0
  9 11  1  0
 10 12  1  0
 11  5  1  6
 33 34  1  0
 33 35  1  0
 34 36  1  0
 35 37  1  0
 37 43  1  1
 20 21  2  0
 21 22  1  0
M  CHG  3   2  -1  26  -1  41  -1
M  END
>  <COMPND>  (127) 
    udp_gluA.pdb 

>  <AUTHOR>  (127) 
    GENERATED BY OPEN BABEL 3.1.1

>  <MASTER>  (127) 
        0    0    0    0    0    0    0    0   56    0   56    0

>  <minimizedAffinity>  (127) 
-7.07807

>  <CNNscore>  (127) 
0.8427646756

>  <CNNaffinity>  (127) 
4.5064883232

>  <CNN_VS>  (127) 
3.7979092598

>  <CNNaffinity_variance>  (127) 
0.0531627759

$$$$
128
     RDKit          3D

 43 45  0  0  0  0  0  0  0  0999 V2000
   22.5607   71.5766   -2.2950 P   0  0  2  0  0  0  0  0  0  0  0  0
   21.9022   73.0205   -1.9780 O   0  0  0  0  0  0  0  0  0  0  0  0
   23.5258   71.5590   -3.4440 O   0  0  0  0  0  0  0  0  0  0  0  0
   21.2857   70.5900   -2.4331 O   0  0  0  0  0  0  0  0  0  0  0  0
   20.6079   70.5310   -3.6747 C   0  0  0  0  0  0  0  0  0  0  0  0
   18.7327   71.6362   -4.6945 O   0  0  0  0  0  0  0  0  0  0  0  0
   17.0597   70.3731   -2.5504 O   0  0  0  0  0  0  0  0  0  0  0  0
   16.5864   68.7643   -4.7007 O   0  0  0  0  0  0  0  0  0  0  0  0
   18.1966   69.8482   -3.2363 C   0  0  1  0  0  0  0  0  0  0  0  0
   17.8197   69.4504   -4.6476 C   0  0  2  0  0  0  0  0  0  0  0  0
   19.1701   70.9938   -3.4774 C   0  0  1  0  0  0  0  0  0  0  0  0
   17.7715   70.7954   -5.3522 C   0  0  2  0  0  0  0  0  0  0  0  0
   16.4234   69.6593   -2.3851 H   0  0  0  0  0  0  0  0  0  0  0  0
   16.6689   67.9147   -4.2389 H   0  0  0  0  0  0  0  0  0  0  0  0
   15.9250   70.2092   -7.4073 O   0  0  0  0  0  0  0  0  0  0  0  0
   19.1868   70.4456  -10.6552 O   0  0  0  0  0  0  0  0  0  0  0  0
   18.1112   70.6977   -6.7435 N   0  0  0  0  0  0  0  0  0  0  0  0
   17.5515   70.3265   -9.0229 N   0  0  0  0  0  0  0  0  0  0  0  0
   17.1083   70.3982   -7.6957 C   0  0  0  0  0  0  0  0  0  0  0  0
   19.4238   70.8991   -7.1528 C   0  0  0  0  0  0  0  0  0  0  0  0
   19.8311   70.8276   -8.4216 C   0  0  0  0  0  0  0  0  0  0  0  0
   18.8458   70.5184   -9.4785 C   0  0  0  0  0  0  0  0  0  0  0  0
   16.8717   70.1172   -9.7035 H   0  0  0  0  0  0  0  0  0  0  0  0
   23.1990   71.1487   -0.8730 O   0  0  0  0  0  0  0  0  0  0  0  0
   22.5232   70.9795    0.5859 P   0  0  2  0  0  0  0  0  0  0  0  0
   23.6593   70.1951    1.4311 O   0  0  0  0  0  0  0  0  0  0  0  0
   21.1848   70.2995    0.5695 O   0  0  0  0  0  0  0  0  0  0  0  0
   22.5099   72.4687    1.2061 O   0  0  0  0  0  0  0  0  0  0  0  0
   21.8674   72.8729    3.4495 O   0  0  0  0  0  0  0  0  0  0  0  0
   21.3923   76.6096    1.7527 O   0  0  0  0  0  0  0  0  0  0  0  0
   20.5325   74.2128    0.3207 O   0  0  0  0  0  0  0  0  0  0  0  0
   23.6820   76.0618    3.4581 O   0  0  0  0  0  0  0  0  0  0  0  0
   21.9813   75.3201    1.9210 C   0  0  2  0  0  0  0  0  0  0  0  0
   20.9242   74.2404    1.6884 C   0  0  2  0  0  0  0  0  0  0  0  0
   22.5270   75.2321    3.3480 C   0  0  1  0  0  0  0  0  0  0  0  0
   21.4550   72.8612    2.0823 C   0  0  1  0  0  0  0  0  0  0  0  0
   22.9181   73.8016    3.7076 C   0  0  1  0  0  0  0  0  0  0  0  0
   21.0384   76.6887    0.8528 H   0  0  0  0  0  0  0  0  0  0  0  0
   20.1949   75.0849    0.0639 H   0  0  0  0  0  0  0  0  0  0  0  0
   23.4467   76.9752    3.2316 H   0  0  0  0  0  0  0  0  0  0  0  0
   24.2864   74.2714    5.5538 O   0  0  0  0  0  0  0  0  0  0  0  0
   22.3771   73.0890    5.9484 O   0  0  0  0  0  0  0  0  0  0  0  0
   23.1328   73.6646    5.1798 C   0  0  0  0  0  0  0  0  0  0  0  0
  1  4  1  0
  1 24  1  0
  1  2  1  1
  1  3  2  0
 25 28  1  0
 25 24  1  0
 25 26  1  1
 25 27  2  0
  6 11  1  0
  6 12  1  0
 29 36  1  0
 29 37  1  0
  9  7  1  1
  7 13  1  0
 10  8  1  1
  8 14  1  0
  4  5  1  0
 36 28  1  6
 33 30  1  1
 30 38  1  0
 34 31  1  6
 31 39  1  0
 35 32  1  6
 32 40  1  0
 41 43  1  0
 15 19  2  0
 42 43  2  0
 16 22  2  0
 12 17  1  6
 17 19  1  0
 17 20  1  0
 18 19  1  0
 18 22  1  0
 18 23  1  0
  9 10  1  0
  9 11  1  0
 10 12  1  0
 11  5  1  6
 33 34  1  0
 33 35  1  0
 34 36  1  0
 35 37  1  0
 37 43  1  1
 20 21  2  0
 21 22  1  0
M  CHG  3   2  -1  26  -1  41  -1
M  END
>  <COMPND>  (128) 
    udp_gluA.pdb 

>  <AUTHOR>  (128) 
    GENERATED BY OPEN BABEL 3.1.1

>  <MASTER>  (128) 
        0    0    0    0    0    0    0    0   56    0   56    0

>  <minimizedAffinity>  (128) 
-7.52926

>  <CNNscore>  (128) 
0.8393145800

>  <CNNaffinity>  (128) 
4.7118148804

>  <CNN_VS>  (128) 
3.9546949863

>  <CNNaffinity_variance>  (128) 
0.0959954783

$$$$
129
     RDKit          3D

 43 45  0  0  0  0  0  0  0  0999 V2000
   20.7839   73.1561   -3.3156 P   0  0  2  0  0  0  0  0  0  0  0  0
   20.2801   73.2936   -1.7839 O   0  0  0  0  0  0  0  0  0  0  0  0
   21.2849   74.4280   -3.9344 O   0  0  0  0  0  0  0  0  0  0  0  0
   19.5402   72.4492   -4.0716 O   0  0  0  0  0  0  0  0  0  0  0  0
   18.9660   71.2920   -3.4921 C   0  0  0  0  0  0  0  0  0  0  0  0
   17.1968   71.7929   -5.0403 O   0  0  0  0  0  0  0  0  0  0  0  0
   15.4252   70.1582   -3.2568 O   0  0  0  0  0  0  0  0  0  0  0  0
   15.9802   68.4297   -5.2916 O   0  0  0  0  0  0  0  0  0  0  0  0
   16.7995   69.9621   -3.5908 C   0  0  1  0  0  0  0  0  0  0  0  0
   16.9255   69.4394   -5.0061 C   0  0  2  0  0  0  0  0  0  0  0  0
   17.4571   71.3312   -3.6970 C   0  0  1  0  0  0  0  0  0  0  0  0
   16.7033   70.6977   -5.8279 C   0  0  2  0  0  0  0  0  0  0  0  0
   14.9839   69.2971   -3.1834 H   0  0  0  0  0  0  0  0  0  0  0  0
   16.1644   67.6501   -4.7436 H   0  0  0  0  0  0  0  0  0  0  0  0
   15.4553   70.6068   -8.3599 O   0  0  0  0  0  0  0  0  0  0  0  0
   19.5062   70.5832  -10.5585 O   0  0  0  0  0  0  0  0  0  0  0  0
   17.4079   70.6671   -7.0783 N   0  0  0  0  0  0  0  0  0  0  0  0
   17.4741   70.5941   -9.4524 N   0  0  0  0  0  0  0  0  0  0  0  0
   16.6859   70.6219   -8.2944 C   0  0  0  0  0  0  0  0  0  0  0  0
   18.7973   70.6835   -7.0921 C   0  0  0  0  0  0  0  0  0  0  0  0
   19.5347   70.6567   -8.2039 C   0  0  0  0  0  0  0  0  0  0  0  0
   18.8580   70.6082   -9.5166 C   0  0  0  0  0  0  0  0  0  0  0  0
   16.9939   70.5604  -10.3113 H   0  0  0  0  0  0  0  0  0  0  0  0
   21.8797   71.9707   -3.2322 O   0  0  0  0  0  0  0  0  0  0  0  0
   23.3920   71.9615   -2.6610 P   0  0  2  0  0  0  0  0  0  0  0  0
   23.9834   73.3844   -3.1571 O   0  0  0  0  0  0  0  0  0  0  0  0
   24.2038   70.7723   -3.0863 O   0  0  0  0  0  0  0  0  0  0  0  0
   23.2275   72.1234   -1.0644 O   0  0  0  0  0  0  0  0  0  0  0  0
   24.3797   70.9555    0.6437 O   0  0  0  0  0  0  0  0  0  0  0  0
   20.7781   71.7983    2.4838 O   0  0  0  0  0  0  0  0  0  0  0  0
   20.8472   70.9063   -0.2972 O   0  0  0  0  0  0  0  0  0  0  0  0
   23.1580   73.3208    3.1685 O   0  0  0  0  0  0  0  0  0  0  0  0
   21.8723   72.0256    1.5955 C   0  0  2  0  0  0  0  0  0  0  0  0
   21.9606   70.8787    0.5884 C   0  0  2  0  0  0  0  0  0  0  0  0
   23.1522   72.0999    2.4311 C   0  0  1  0  0  0  0  0  0  0  0  0
   23.2498   70.9670   -0.2296 C   0  0  1  0  0  0  0  0  0  0  0  0
   24.3966   72.0569    1.5490 C   0  0  1  0  0  0  0  0  0  0  0  0
   19.9535   71.7473    1.9750 H   0  0  0  0  0  0  0  0  0  0  0  0
   20.0257   70.8509    0.2151 H   0  0  0  0  0  0  0  0  0  0  0  0
   22.3709   73.3608    3.7340 H   0  0  0  0  0  0  0  0  0  0  0  0
   26.0721   72.9485    2.9272 O   0  0  0  0  0  0  0  0  0  0  0  0
   26.1431   70.7058    2.5215 O   0  0  0  0  0  0  0  0  0  0  0  0
   25.6190   71.7989    2.3685 C   0  0  0  0  0  0  0  0  0  0  0  0
  1  4  1  0
  1 24  1  0
  1  2  1  1
  1  3  2  0
 25 28  1  0
 25 24  1  0
 25 26  1  6
 25 27  2  0
  6 11  1  0
  6 12  1  0
 29 36  1  0
 29 37  1  0
  9  7  1  6
  7 13  1  0
 10  8  1  6
  8 14  1  0
  4  5  1  0
 36 28  1  1
 33 30  1  1
 30 38  1  0
 34 31  1  6
 31 39  1  0
 35 32  1  6
 32 40  1  0
 41 43  1  0
 15 19  2  0
 42 43  2  0
 16 22  2  0
 12 17  1  6
 17 19  1  0
 17 20  1  0
 18 19  1  0
 18 22  1  0
 18 23  1  0
  9 10  1  0
  9 11  1  0
 10 12  1  0
 11  5  1  6
 33 34  1  0
 33 35  1  0
 34 36  1  0
 35 37  1  0
 37 43  1  1
 20 21  2  0
 21 22  1  0
M  CHG  3   2  -1  26  -1  41  -1
M  END
>  <COMPND>  (129) 
    udp_gluA.pdb 

>  <AUTHOR>  (129) 
    GENERATED BY OPEN BABEL 3.1.1

>  <MASTER>  (129) 
        0    0    0    0    0    0    0    0   56    0   56    0

>  <minimizedAffinity>  (129) 
-8.34157

>  <CNNscore>  (129) 
0.8393090963

>  <CNNaffinity>  (129) 
4.6578726768

>  <CNN_VS>  (129) 
3.9093949795

>  <CNNaffinity_variance>  (129) 
0.0708134398

$$$$
130
     RDKit          3D

 43 45  0  0  0  0  0  0  0  0999 V2000
   21.1659   71.6563   -4.5150 P   0  0  2  0  0  0  0  0  0  0  0  0
   20.3895   73.0243   -4.1346 O   0  0  0  0  0  0  0  0  0  0  0  0
   22.1902   71.7907   -5.6033 O   0  0  0  0  0  0  0  0  0  0  0  0
   19.9741   70.5992   -4.7986 O   0  0  0  0  0  0  0  0  0  0  0  0
   19.2660   70.0665   -3.6944 C   0  0  0  0  0  0  0  0  0  0  0  0
   17.6388   71.2629   -4.9976 O   0  0  0  0  0  0  0  0  0  0  0  0
   15.5615   69.8026   -3.4027 O   0  0  0  0  0  0  0  0  0  0  0  0
   15.6074   68.4043   -5.7433 O   0  0  0  0  0  0  0  0  0  0  0  0
   16.8324   69.3450   -3.8653 C   0  0  1  0  0  0  0  0  0  0  0  0
   16.7841   69.0824   -5.3556 C   0  0  2  0  0  0  0  0  0  0  0  0
   17.8107   70.5084   -3.7784 C   0  0  1  0  0  0  0  0  0  0  0  0
   16.8640   70.4880   -5.9263 C   0  0  2  0  0  0  0  0  0  0  0  0
   14.9195   69.0764   -3.4489 H   0  0  0  0  0  0  0  0  0  0  0  0
   15.6040   67.5149   -5.3550 H   0  0  0  0  0  0  0  0  0  0  0  0
   16.3330   72.4151   -7.9216 O   0  0  0  0  0  0  0  0  0  0  0  0
   19.3786   70.5223  -10.8175 O   0  0  0  0  0  0  0  0  0  0  0  0
   17.5039   70.5223   -7.2109 N   0  0  0  0  0  0  0  0  0  0  0  0
   17.8496   71.4699   -9.3624 N   0  0  0  0  0  0  0  0  0  0  0  0
   17.1650   71.5328   -8.1416 C   0  0  0  0  0  0  0  0  0  0  0  0
   18.4559   69.5641   -7.5374 C   0  0  0  0  0  0  0  0  0  0  0  0
   19.1001   69.5172   -8.7051 C   0  0  0  0  0  0  0  0  0  0  0  0
   18.8038   70.5363   -9.7332 C   0  0  0  0  0  0  0  0  0  0  0  0
   17.6291   72.1618  -10.0272 H   0  0  0  0  0  0  0  0  0  0  0  0
   21.7556   71.1660   -3.0921 O   0  0  0  0  0  0  0  0  0  0  0  0
   23.0589   71.6420   -2.2625 P   0  0  2  0  0  0  0  0  0  0  0  0
   24.2893   71.0869   -3.1560 O   0  0  0  0  0  0  0  0  0  0  0  0
   23.0786   71.1865   -0.8321 O   0  0  0  0  0  0  0  0  0  0  0  0
   23.1050   73.2429   -2.4560 O   0  0  0  0  0  0  0  0  0  0  0  0
   24.1174   74.1689   -4.3864 O   0  0  0  0  0  0  0  0  0  0  0  0
   23.9984   77.4303   -1.8532 O   0  0  0  0  0  0  0  0  0  0  0  0
   24.7533   74.7959   -0.8411 O   0  0  0  0  0  0  0  0  0  0  0  0
   22.1072   77.2199   -4.0510 O   0  0  0  0  0  0  0  0  0  0  0  0
   23.5461   76.1967   -2.4116 C   0  0  2  0  0  0  0  0  0  0  0  0
   24.6186   75.1242   -2.2191 C   0  0  2  0  0  0  0  0  0  0  0  0
   23.2798   76.4216   -3.9017 C   0  0  1  0  0  0  0  0  0  0  0  0
   24.2714   73.8568   -3.0014 C   0  0  1  0  0  0  0  0  0  0  0  0
   23.0670   75.1005   -4.6352 C   0  0  1  0  0  0  0  0  0  0  0  0
   24.1741   77.3117   -0.9065 H   0  0  0  0  0  0  0  0  0  0  0  0
   24.9733   75.5956   -0.3387 H   0  0  0  0  0  0  0  0  0  0  0  0
   22.2294   78.0637   -3.5885 H   0  0  0  0  0  0  0  0  0  0  0  0
   21.9365   75.0384   -6.6894 O   0  0  0  0  0  0  0  0  0  0  0  0
   24.1336   75.6471   -6.7293 O   0  0  0  0  0  0  0  0  0  0  0  0
   23.1370   75.2979   -6.1145 C   0  0  0  0  0  0  0  0  0  0  0  0
  1  4  1  0
  1 24  1  0
  1  2  1  1
  1  3  2  0
 25 28  1  0
 25 24  1  0
 25 26  1  6
 25 27  2  0
  6 11  1  0
  6 12  1  0
 29 36  1  0
 29 37  1  0
  9  7  1  6
  7 13  1  0
 10  8  1  1
  8 14  1  0
  4  5  1  0
 36 28  1  1
 33 30  1  6
 30 38  1  0
 34 31  1  1
 31 39  1  0
 35 32  1  1
 32 40  1  0
 41 43  1  0
 15 19  2  0
 42 43  2  0
 16 22  2  0
 12 17  1  6
 17 19  1  0
 17 20  1  0
 18 19  1  0
 18 22  1  0
 18 23  1  0
  9 10  1  0
  9 11  1  0
 10 12  1  0
 11  5  1  6
 33 34  1  0
 33 35  1  0
 34 36  1  0
 35 37  1  0
 37 43  1  6
 20 21  2  0
 21 22  1  0
M  CHG  3   2  -1  26  -1  41  -1
M  END
>  <COMPND>  (130) 
    udp_gluA.pdb 

>  <AUTHOR>  (130) 
    GENERATED BY OPEN BABEL 3.1.1

>  <MASTER>  (130) 
        0    0    0    0    0    0    0    0   56    0   56    0

>  <minimizedAffinity>  (130) 
-6.88533

>  <CNNscore>  (130) 
0.8336937428

>  <CNNaffinity>  (130) 
4.6137719154

>  <CNN_VS>  (130) 
3.8464727402

>  <CNNaffinity_variance>  (130) 
0.2051323652

$$$$
131
     RDKit          3D

 43 45  0  0  0  0  0  0  0  0999 V2000
   21.4453   72.5247   -4.7152 P   0  0  2  0  0  0  0  0  0  0  0  0
   21.4559   74.1361   -4.5661 O   0  0  0  0  0  0  0  0  0  0  0  0
   22.2954   71.9858   -5.8282 O   0  0  0  0  0  0  0  0  0  0  0  0
   19.8726   72.1517   -4.7886 O   0  0  0  0  0  0  0  0  0  0  0  0
   19.3210   71.3434   -3.7654 C   0  0  0  0  0  0  0  0  0  0  0  0
   17.4683   71.7299   -5.2473 O   0  0  0  0  0  0  0  0  0  0  0  0
   15.8204   70.1584   -3.2963 O   0  0  0  0  0  0  0  0  0  0  0  0
   16.3117   68.3363   -5.2647 O   0  0  0  0  0  0  0  0  0  0  0  0
   17.1806   69.9704   -3.6877 C   0  0  1  0  0  0  0  0  0  0  0  0
   17.2484   69.3768   -5.0788 C   0  0  2  0  0  0  0  0  0  0  0  0
   17.8034   71.3440   -3.8966 C   0  0  1  0  0  0  0  0  0  0  0  0
   16.9601   70.5861   -5.9521 C   0  0  2  0  0  0  0  0  0  0  0  0
   15.4014   69.2943   -3.1569 H   0  0  0  0  0  0  0  0  0  0  0  0
   16.5387   67.5900   -4.6873 H   0  0  0  0  0  0  0  0  0  0  0  0
   15.6099   70.7395   -8.4279 O   0  0  0  0  0  0  0  0  0  0  0  0
   19.5300   70.2553  -10.8032 O   0  0  0  0  0  0  0  0  0  0  0  0
   17.6034   70.5030   -7.2328 N   0  0  0  0  0  0  0  0  0  0  0  0
   17.5635   70.4972   -9.6086 N   0  0  0  0  0  0  0  0  0  0  0  0
   16.8333   70.5913   -8.4165 C   0  0  0  0  0  0  0  0  0  0  0  0
   18.9811   70.3379   -7.3075 C   0  0  0  0  0  0  0  0  0  0  0  0
   19.6630   70.2500   -8.4512 C   0  0  0  0  0  0  0  0  0  0  0  0
   18.9334   70.3321   -9.7335 C   0  0  0  0  0  0  0  0  0  0  0  0
   17.0487   70.5539  -10.4460 H   0  0  0  0  0  0  0  0  0  0  0  0
   21.8698   72.0209   -3.2391 O   0  0  0  0  0  0  0  0  0  0  0  0
   23.3160   71.9362   -2.5216 P   0  0  2  0  0  0  0  0  0  0  0  0
   23.9365   73.4114   -2.7649 O   0  0  0  0  0  0  0  0  0  0  0  0
   24.1821   70.8124   -3.0123 O   0  0  0  0  0  0  0  0  0  0  0  0
   22.9875   71.8881   -0.9429 O   0  0  0  0  0  0  0  0  0  0  0  0
   22.7609   73.8623    0.3456 O   0  0  0  0  0  0  0  0  0  0  0  0
   23.5170   71.0365    3.2630 O   0  0  0  0  0  0  0  0  0  0  0  0
   25.0098   71.0085    0.7520 O   0  0  0  0  0  0  0  0  0  0  0  0
   20.8213   72.0560    2.8827 O   0  0  0  0  0  0  0  0  0  0  0  0
   23.0076   71.5238    2.0216 C   0  0  2  0  0  0  0  0  0  0  0  0
   24.1583   72.0675    1.1743 C   0  0  2  0  0  0  0  0  0  0  0  0
   22.0005   72.6348    2.3271 C   0  0  1  0  0  0  0  0  0  0  0  0
   23.6303   72.8036   -0.0578 C   0  0  1  0  0  0  0  0  0  0  0  0
   21.6188   73.4032    1.0652 C   0  0  1  0  0  0  0  0  0  0  0  0
   24.1593   70.3294    3.0939 H   0  0  0  0  0  0  0  0  0  0  0  0
   25.3483   70.5369    1.5288 H   0  0  0  0  0  0  0  0  0  0  0  0
   21.0504   71.5639    3.6866 H   0  0  0  0  0  0  0  0  0  0  0  0
   21.7093   75.7434    1.1940 O   0  0  0  0  0  0  0  0  0  0  0  0
   19.7621   74.7413    1.8291 O   0  0  0  0  0  0  0  0  0  0  0  0
   20.9080   74.6711    1.4107 C   0  0  0  0  0  0  0  0  0  0  0  0
  1  4  1  0
  1 24  1  0
  1  2  1  1
  1  3  2  0
 25 28  1  0
 25 24  1  0
 25 26  1  1
 25 27  2  0
  6 11  1  0
  6 12  1  0
 29 36  1  0
 29 37  1  0
  9  7  1  6
  7 13  1  0
 10  8  1  1
  8 14  1  0
  4  5  1  0
 36 28  1  6
 33 30  1  1
 30 38  1  0
 34 31  1  6
 31 39  1  0
 35 32  1  6
 32 40  1  0
 41 43  1  0
 15 19  2  0
 42 43  2  0
 16 22  2  0
 12 17  1  6
 17 19  1  0
 17 20  1  0
 18 19  1  0
 18 22  1  0
 18 23  1  0
  9 10  1  0
  9 11  1  0
 10 12  1  0
 11  5  1  6
 33 34  1  0
 33 35  1  0
 34 36  1  0
 35 37  1  0
 37 43  1  1
 20 21  2  0
 21 22  1  0
M  CHG  3   2  -1  26  -1  41  -1
M  END
>  <COMPND>  (131) 
    udp_gluA.pdb 

>  <AUTHOR>  (131) 
    GENERATED BY OPEN BABEL 3.1.1

>  <MASTER>  (131) 
        0    0    0    0    0    0    0    0   56    0   56    0

>  <minimizedAffinity>  (131) 
-7.73313

>  <CNNscore>  (131) 
0.8325763345

>  <CNNaffinity>  (131) 
4.6771316528

>  <CNN_VS>  (131) 
3.8940691948

>  <CNNaffinity_variance>  (131) 
0.0489674322

$$$$
132
     RDKit          3D

 43 45  0  0  0  0  0  0  0  0999 V2000
   23.3653   71.8315   -3.3299 P   0  0  2  0  0  0  0  0  0  0  0  0
   24.1042   72.8926   -4.3031 O   0  0  0  0  0  0  0  0  0  0  0  0
   24.2052   70.6583   -2.9178 O   0  0  0  0  0  0  0  0  0  0  0  0
   21.9954   71.4744   -4.1133 O   0  0  0  0  0  0  0  0  0  0  0  0
   21.2021   70.4038   -3.6346 C   0  0  0  0  0  0  0  0  0  0  0  0
   19.2795   71.5764   -4.4749 O   0  0  0  0  0  0  0  0  0  0  0  0
   17.7828   70.4042   -2.1561 O   0  0  0  0  0  0  0  0  0  0  0  0
   17.0293   68.7964   -4.2257 O   0  0  0  0  0  0  0  0  0  0  0  0
   18.8221   69.8260   -2.9459 C   0  0  1  0  0  0  0  0  0  0  0  0
   18.2883   69.4310   -4.3066 C   0  0  2  0  0  0  0  0  0  0  0  0
   19.8116   70.9279   -3.2995 C   0  0  1  0  0  0  0  0  0  0  0  0
   18.2234   70.7702   -5.0208 C   0  0  2  0  0  0  0  0  0  0  0  0
   17.1381   69.7191   -1.9178 H   0  0  0  0  0  0  0  0  0  0  0  0
   17.1237   67.9484   -3.7630 H   0  0  0  0  0  0  0  0  0  0  0  0
   16.1739   70.1423   -6.8599 O   0  0  0  0  0  0  0  0  0  0  0  0
   19.0778   70.3171  -10.4349 O   0  0  0  0  0  0  0  0  0  0  0  0
   18.4161   70.6454   -6.4379 N   0  0  0  0  0  0  0  0  0  0  0  0
   17.6224   70.2290   -8.6386 N   0  0  0  0  0  0  0  0  0  0  0  0
   17.3200   70.3264   -7.2740 C   0  0  0  0  0  0  0  0  0  0  0  0
   19.6782   70.8396   -6.9860 C   0  0  0  0  0  0  0  0  0  0  0  0
   19.9509   70.7434   -8.2887 C   0  0  0  0  0  0  0  0  0  0  0  0
   18.8614   70.4127   -9.2306 C   0  0  0  0  0  0  0  0  0  0  0  0
   16.8757   70.0058   -9.2402 H   0  0  0  0  0  0  0  0  0  0  0  0
   22.8538   72.7562   -2.1066 O   0  0  0  0  0  0  0  0  0  0  0  0
   22.0032   74.1310   -2.0989 P   0  0  2  0  0  0  0  0  0  0  0  0
   23.1451   75.2730   -2.2087 O   0  0  0  0  0  0  0  0  0  0  0  0
   21.0886   74.2826   -0.9181 O   0  0  0  0  0  0  0  0  0  0  0  0
   21.2593   74.1601   -3.5300 O   0  0  0  0  0  0  0  0  0  0  0  0
   21.9166   75.9830   -4.8918 O   0  0  0  0  0  0  0  0  0  0  0  0
   18.7731   74.4052   -7.0590 O   0  0  0  0  0  0  0  0  0  0  0  0
   18.5933   74.6498   -4.1534 O   0  0  0  0  0  0  0  0  0  0  0  0
   21.5125   73.9468   -7.9171 O   0  0  0  0  0  0  0  0  0  0  0  0
   19.8974   74.3700   -6.1800 C   0  0  2  0  0  0  0  0  0  0  0  0
   19.6145   75.2361   -4.9523 C   0  0  2  0  0  0  0  0  0  0  0  0
   21.1107   74.9074   -6.9424 C   0  0  1  0  0  0  0  0  0  0  0  0
   20.8742   75.4086   -4.1025 C   0  0  1  0  0  0  0  0  0  0  0  0
   22.2853   75.1718   -6.0049 C   0  0  1  0  0  0  0  0  0  0  0  0
   17.9899   74.0682   -6.5961 H   0  0  0  0  0  0  0  0  0  0  0  0
   17.7911   74.5372   -4.6865 H   0  0  0  0  0  0  0  0  0  0  0  0
   20.7737   73.7694   -8.5201 H   0  0  0  0  0  0  0  0  0  0  0  0
   22.7822   76.7619   -7.6560 O   0  0  0  0  0  0  0  0  0  0  0  0
   24.5231   75.9780   -6.4095 O   0  0  0  0  0  0  0  0  0  0  0  0
   23.3328   75.9917   -6.6852 C   0  0  0  0  0  0  0  0  0  0  0  0
  1  4  1  0
  1 24  1  0
  1  2  1  6
  1  3  2  0
 25 28  1  0
 25 24  1  0
 25 26  1  6
 25 27  2  0
  6 11  1  0
  6 12  1  0
 29 36  1  0
 29 37  1  0
  9  7  1  1
  7 13  1  0
 10  8  1  1
  8 14  1  0
  4  5  1  0
 36 28  1  6
 33 30  1  6
 30 38  1  0
 34 31  1  1
 31 39  1  0
 35 32  1  6
 32 40  1  0
 41 43  1  0
 15 19  2  0
 42 43  2  0
 16 22  2  0
 12 17  1  6
 17 19  1  0
 17 20  1  0
 18 19  1  0
 18 22  1  0
 18 23  1  0
  9 10  1  0
  9 11  1  0
 10 12  1  0
 11  5  1  6
 33 34  1  0
 33 35  1  0
 34 36  1  0
 35 37  1  0
 37 43  1  6
 20 21  2  0
 21 22  1  0
M  CHG  3   2  -1  26  -1  41  -1
M  END
>  <COMPND>  (132) 
    udp_gluA.pdb 

>  <AUTHOR>  (132) 
    GENERATED BY OPEN BABEL 3.1.1

>  <MASTER>  (132) 
        0    0    0    0    0    0    0    0   56    0   56    0

>  <minimizedAffinity>  (132) 
-6.91936

>  <CNNscore>  (132) 
0.8145115376

>  <CNNaffinity>  (132) 
4.3883361816

>  <CNN_VS>  (132) 
3.5743503571

>  <CNNaffinity_variance>  (132) 
0.4357969165

$$$$
133
     RDKit          3D

 43 45  0  0  0  0  0  0  0  0999 V2000
   21.8999   72.4266   -5.5830 P   0  0  2  0  0  0  0  0  0  0  0  0
   21.1652   73.8373   -5.2845 O   0  0  0  0  0  0  0  0  0  0  0  0
   23.1683   72.5286   -6.3782 O   0  0  0  0  0  0  0  0  0  0  0  0
   20.7346   71.5116   -6.2332 O   0  0  0  0  0  0  0  0  0  0  0  0
   20.1537   71.9251   -7.4563 C   0  0  0  0  0  0  0  0  0  0  0  0
   18.9033   69.9066   -7.0823 O   0  0  0  0  0  0  0  0  0  0  0  0
   18.1550   70.0534   -9.9823 O   0  0  0  0  0  0  0  0  0  0  0  0
   15.9263   71.0184   -8.7422 O   0  0  0  0  0  0  0  0  0  0  0  0
   18.3375   71.1117   -9.0415 C   0  0  1  0  0  0  0  0  0  0  0  0
   17.1664   71.1692   -8.0836 C   0  0  2  0  0  0  0  0  0  0  0  0
   19.4856   70.7269   -8.1184 C   0  0  1  0  0  0  0  0  0  0  0  0
   17.4724   70.0170   -7.1419 C   0  0  2  0  0  0  0  0  0  0  0  0
   17.4264   70.2766  -10.5831 H   0  0  0  0  0  0  0  0  0  0  0  0
   15.7778   71.7767   -9.3294 H   0  0  0  0  0  0  0  0  0  0  0  0
   16.1752   68.0571   -5.5758 O   0  0  0  0  0  0  0  0  0  0  0  0
   15.5701   70.9932   -2.0748 O   0  0  0  0  0  0  0  0  0  0  0  0
   16.9659   70.2422   -5.8177 N   0  0  0  0  0  0  0  0  0  0  0  0
   15.8742   69.5216   -3.8340 N   0  0  0  0  0  0  0  0  0  0  0  0
   16.3303   69.1902   -5.1167 C   0  0  0  0  0  0  0  0  0  0  0  0
   17.1023   71.4922   -5.2263 C   0  0  0  0  0  0  0  0  0  0  0  0
   16.6625   71.7929   -4.0028 C   0  0  0  0  0  0  0  0  0  0  0  0
   15.9861   70.7502   -3.2036 C   0  0  0  0  0  0  0  0  0  0  0  0
   15.4264   68.8059   -3.3273 H   0  0  0  0  0  0  0  0  0  0  0  0
   22.0795   71.7917   -4.1073 O   0  0  0  0  0  0  0  0  0  0  0  0
   23.2987   71.8911   -3.0503 P   0  0  2  0  0  0  0  0  0  0  0  0
   23.9136   73.3618   -3.3321 O   0  0  0  0  0  0  0  0  0  0  0  0
   24.2960   70.7737   -3.1536 O   0  0  0  0  0  0  0  0  0  0  0  0
   22.5826   72.0183   -1.6103 O   0  0  0  0  0  0  0  0  0  0  0  0
   23.8337   70.9567    0.0975 O   0  0  0  0  0  0  0  0  0  0  0  0
   20.3939   72.0296    2.1186 O   0  0  0  0  0  0  0  0  0  0  0  0
   20.2414   70.9245   -0.5814 O   0  0  0  0  0  0  0  0  0  0  0  0
   22.8470   73.5397    2.5093 O   0  0  0  0  0  0  0  0  0  0  0  0
   21.4243   72.1600    1.1391 C   0  0  2  0  0  0  0  0  0  0  0  0
   21.4160   70.9371    0.2216 C   0  0  2  0  0  0  0  0  0  0  0  0
   22.7632   72.2661    1.8726 C   0  0  1  0  0  0  0  0  0  0  0  0
   22.6433   70.9295   -0.6909 C   0  0  1  0  0  0  0  0  0  0  0  0
   23.9386   72.1239    0.9098 C   0  0  1  0  0  0  0  0  0  0  0  0
   19.5334   71.9604    1.6757 H   0  0  0  0  0  0  0  0  0  0  0  0
   19.4588   70.9296   -0.0089 H   0  0  0  0  0  0  0  0  0  0  0  0
   22.1044   73.6430    3.1247 H   0  0  0  0  0  0  0  0  0  0  0  0
   25.7167   70.6699    1.3851 O   0  0  0  0  0  0  0  0  0  0  0  0
   25.7358   72.7065    2.4104 O   0  0  0  0  0  0  0  0  0  0  0  0
   25.2124   71.8989    1.6575 C   0  0  0  0  0  0  0  0  0  0  0  0
  1  4  1  0
  1 24  1  0
  1  2  1  1
  1  3  2  0
 25 28  1  0
 25 24  1  0
 25 26  1  6
 25 27  2  0
  6 11  1  0
  6 12  1  0
 29 36  1  0
 29 37  1  0
  9  7  1  6
  7 13  1  0
 10  8  1  6
  8 14  1  0
  4  5  1  0
 36 28  1  6
 33 30  1  1
 30 38  1  0
 34 31  1  6
 31 39  1  0
 35 32  1  6
 32 40  1  0
 41 43  1  0
 15 19  2  0
 42 43  2  0
 16 22  2  0
 12 17  1  1
 17 19  1  0
 17 20  1  0
 18 19  1  0
 18 22  1  0
 18 23  1  0
  9 10  1  0
  9 11  1  0
 10 12  1  0
 11  5  1  1
 33 34  1  0
 33 35  1  0
 34 36  1  0
 35 37  1  0
 37 43  1  1
 20 21  2  0
 21 22  1  0
M  CHG  3   2  -1  26  -1  41  -1
M  END
>  <COMPND>  (133) 
    udp_gluA.pdb 

>  <AUTHOR>  (133) 
    GENERATED BY OPEN BABEL 3.1.1

>  <MASTER>  (133) 
        0    0    0    0    0    0    0    0   56    0   56    0

>  <minimizedAffinity>  (133) 
-8.43356

>  <CNNscore>  (133) 
0.7009628415

>  <CNNaffinity>  (133) 
4.5792422295

>  <CNN_VS>  (133) 
3.2098786831

>  <CNNaffinity_variance>  (133) 
0.1426160187

$$$$
134
     RDKit          3D

 43 45  0  0  0  0  0  0  0  0999 V2000
   21.4815   72.0664   -5.2368 P   0  0  2  0  0  0  0  0  0  0  0  0
   22.5694   72.1714   -6.4303 O   0  0  0  0  0  0  0  0  0  0  0  0
   21.8341   71.1037   -4.1411 O   0  0  0  0  0  0  0  0  0  0  0  0
   20.0879   71.7759   -6.0059 O   0  0  0  0  0  0  0  0  0  0  0  0
   20.0250   72.0061   -7.4014 C   0  0  0  0  0  0  0  0  0  0  0  0
   18.7665   69.9885   -7.0511 O   0  0  0  0  0  0  0  0  0  0  0  0
   18.1148   70.1080   -9.9756 O   0  0  0  0  0  0  0  0  0  0  0  0
   15.8444   71.0794   -8.8190 O   0  0  0  0  0  0  0  0  0  0  0  0
   18.2640   71.1750   -9.0387 C   0  0  1  0  0  0  0  0  0  0  0  0
   17.0617   71.2386   -8.1208 C   0  0  2  0  0  0  0  0  0  0  0  0
   19.3814   70.8007   -8.0745 C   0  0  1  0  0  0  0  0  0  0  0  0
   17.3381   70.0954   -7.1593 C   0  0  2  0  0  0  0  0  0  0  0  0
   17.4062   70.3243  -10.6023 H   0  0  0  0  0  0  0  0  0  0  0  0
   15.7141   71.8322   -9.4176 H   0  0  0  0  0  0  0  0  0  0  0  0
   16.5237   68.0591   -5.3798 O   0  0  0  0  0  0  0  0  0  0  0  0
   15.2393   71.1172   -2.1794 O   0  0  0  0  0  0  0  0  0  0  0  0
   16.7874   70.3314   -5.8547 N   0  0  0  0  0  0  0  0  0  0  0  0
   15.8839   69.5842   -3.7879 N   0  0  0  0  0  0  0  0  0  0  0  0
   16.4099   69.2382   -5.0396 C   0  0  0  0  0  0  0  0  0  0  0  0
   16.6278   71.6327   -5.3942 C   0  0  0  0  0  0  0  0  0  0  0  0
   16.1250   71.9468   -4.1987 C   0  0  0  0  0  0  0  0  0  0  0  0
   15.7052   70.8632   -3.2861 C   0  0  0  0  0  0  0  0  0  0  0  0
   15.6120   68.8400   -3.2035 H   0  0  0  0  0  0  0  0  0  0  0  0
   21.3190   73.6017   -4.7578 O   0  0  0  0  0  0  0  0  0  0  0  0
   20.5251   74.2442   -3.5047 P   0  0  2  0  0  0  0  0  0  0  0  0
   18.9825   73.8577   -3.8067 O   0  0  0  0  0  0  0  0  0  0  0  0
   20.7678   75.7129   -3.3095 O   0  0  0  0  0  0  0  0  0  0  0  0
   20.9361   73.3244   -2.2447 O   0  0  0  0  0  0  0  0  0  0  0  0
   21.2955   73.8760    0.0304 O   0  0  0  0  0  0  0  0  0  0  0  0
   24.0343   70.8361   -0.5404 O   0  0  0  0  0  0  0  0  0  0  0  0
   23.6644   72.8977   -2.5769 O   0  0  0  0  0  0  0  0  0  0  0  0
   21.5679   70.3246    0.9109 O   0  0  0  0  0  0  0  0  0  0  0  0
   22.8142   71.5471   -0.7496 C   0  0  2  0  0  0  0  0  0  0  0  0
   23.1232   72.9540   -1.2621 C   0  0  2  0  0  0  0  0  0  0  0  0
   22.0733   71.6186    0.5876 C   0  0  1  0  0  0  0  0  0  0  0  0
   21.8623   73.8193   -1.2792 C   0  0  1  0  0  0  0  0  0  0  0  0
   20.9042   72.5973    0.5250 C   0  0  1  0  0  0  0  0  0  0  0  0
   24.5224   70.7781   -1.3769 H   0  0  0  0  0  0  0  0  0  0  0  0
   24.4647   72.3500   -2.5735 H   0  0  0  0  0  0  0  0  0  0  0  0
   22.3021   69.6921    0.9537 H   0  0  0  0  0  0  0  0  0  0  0  0
   21.0077   72.1242    2.8200 O   0  0  0  0  0  0  0  0  0  0  0  0
   19.5554   73.7526    2.1582 O   0  0  0  0  0  0  0  0  0  0  0  0
   20.3988   72.9083    1.8962 C   0  0  0  0  0  0  0  0  0  0  0  0
  1  4  1  0
  1 24  1  0
  1  2  1  6
  1  3  2  0
 25 28  1  0
 25 24  1  0
 25 26  1  6
 25 27  2  0
  6 11  1  0
  6 12  1  0
 29 36  1  0
 29 37  1  0
  9  7  1  6
  7 13  1  0
 10  8  1  6
  8 14  1  0
  4  5  1  0
 36 28  1  6
 33 30  1  1
 30 38  1  0
 34 31  1  6
 31 39  1  0
 35 32  1  6
 32 40  1  0
 41 43  1  0
 15 19  2  0
 42 43  2  0
 16 22  2  0
 12 17  1  1
 17 19  1  0
 17 20  1  0
 18 19  1  0
 18 22  1  0
 18 23  1  0
  9 10  1  0
  9 11  1  0
 10 12  1  0
 11  5  1  1
 33 34  1  0
 33 35  1  0
 34 36  1  0
 35 37  1  0
 37 43  1  1
 20 21  2  0
 21 22  1  0
M  CHG  3   2  -1  26  -1  41  -1
M  END
>  <COMPND>  (134) 
    udp_gluA.pdb 

>  <AUTHOR>  (134) 
    GENERATED BY OPEN BABEL 3.1.1

>  <MASTER>  (134) 
        0    0    0    0    0    0    0    0   56    0   56    0

>  <minimizedAffinity>  (134) 
-7.20784

>  <CNNscore>  (134) 
0.6913140416

>  <CNNaffinity>  (134) 
4.5419530869

>  <CNN_VS>  (134) 
3.1399159431

>  <CNNaffinity_variance>  (134) 
0.2045018673

$$$$
135
     RDKit          3D

 43 45  0  0  0  0  0  0  0  0999 V2000
   22.7885   71.2205   -2.4731 P   0  0  2  0  0  0  0  0  0  0  0  0
   24.2783   70.8473   -2.9830 O   0  0  0  0  0  0  0  0  0  0  0  0
   21.6826   70.4428   -3.1244 O   0  0  0  0  0  0  0  0  0  0  0  0
   22.7112   72.8278   -2.6422 O   0  0  0  0  0  0  0  0  0  0  0  0
   21.8371   73.3636   -3.6186 C   0  0  0  0  0  0  0  0  0  0  0  0
   22.0457   72.2671   -5.7474 O   0  0  0  0  0  0  0  0  0  0  0  0
   23.3333   74.7964   -6.7149 O   0  0  0  0  0  0  0  0  0  0  0  0
   20.7943   75.0111   -7.6861 O   0  0  0  0  0  0  0  0  0  0  0  0
   22.2622   74.6256   -5.7864 C   0  0  1  0  0  0  0  0  0  0  0  0
   20.9916   74.2447   -6.5164 C   0  0  2  0  0  0  0  0  0  0  0  0
   22.5460   73.3742   -4.9668 C   0  0  1  0  0  0  0  0  0  0  0  0
   21.2276   72.7738   -6.8139 C   0  0  2  0  0  0  0  0  0  0  0  0
   23.1742   75.5901   -7.2501 H   0  0  0  0  0  0  0  0  0  0  0  0
   20.6482   75.9394   -7.4436 H   0  0  0  0  0  0  0  0  0  0  0  0
   20.4014   71.2153   -9.0195 O   0  0  0  0  0  0  0  0  0  0  0  0
   16.5205   69.9304   -6.8908 O   0  0  0  0  0  0  0  0  0  0  0  0
   20.0057   72.0217   -6.8628 N   0  0  0  0  0  0  0  0  0  0  0  0
   18.4688   70.5776   -7.9576 N   0  0  0  0  0  0  0  0  0  0  0  0
   19.6843   71.2717   -8.0187 C   0  0  0  0  0  0  0  0  0  0  0  0
   19.1419   72.0303   -5.7743 C   0  0  0  0  0  0  0  0  0  0  0  0
   17.9868   71.3636   -5.7307 C   0  0  0  0  0  0  0  0  0  0  0  0
   17.5763   70.5561   -6.8981 C   0  0  0  0  0  0  0  0  0  0  0  0
   18.2225   70.0499   -8.7515 H   0  0  0  0  0  0  0  0  0  0  0  0
   22.8942   71.0283   -0.8717 O   0  0  0  0  0  0  0  0  0  0  0  0
   21.8355   71.3470    0.3078 P   0  0  2  0  0  0  0  0  0  0  0  0
   21.7382   69.9427    1.1070 O   0  0  0  0  0  0  0  0  0  0  0  0
   20.5163   71.8763   -0.1753 O   0  0  0  0  0  0  0  0  0  0  0  0
   22.6254   72.3327    1.3114 O   0  0  0  0  0  0  0  0  0  0  0  0
   21.7044   73.5948    3.0913 O   0  0  0  0  0  0  0  0  0  0  0  0
   24.9788   75.8854    2.0427 O   0  0  0  0  0  0  0  0  0  0  0  0
   23.2913   74.6838   -0.0171 O   0  0  0  0  0  0  0  0  0  0  0  0
   25.0531   74.2459    4.4422 O   0  0  0  0  0  0  0  0  0  0  0  0
   24.2339   74.6803    2.2184 C   0  0  2  0  0  0  0  0  0  0  0  0
   22.9651   74.7342    1.3670 C   0  0  2  0  0  0  0  0  0  0  0  0
   23.8751   74.5581    3.7011 C   0  0  1  0  0  0  0  0  0  0  0  0
   22.0319   73.5697    1.7015 C   0  0  1  0  0  0  0  0  0  0  0  0
   22.8449   73.4571    3.9360 C   0  0  1  0  0  0  0  0  0  0  0  0
   25.2180   75.9845    1.1077 H   0  0  0  0  0  0  0  0  0  0  0  0
   23.8835   75.4197   -0.2364 H   0  0  0  0  0  0  0  0  0  0  0  0
   25.7169   74.9389    4.3012 H   0  0  0  0  0  0  0  0  0  0  0  0
   21.0270   74.1209    5.2612 O   0  0  0  0  0  0  0  0  0  0  0  0
   22.8118   73.1920    6.3339 O   0  0  0  0  0  0  0  0  0  0  0  0
   22.2611   73.5608    5.3074 C   0  0  0  0  0  0  0  0  0  0  0  0
  1  4  1  0
  1 24  1  0
  1  2  1  6
  1  3  2  0
 25 28  1  0
 25 24  1  0
 25 26  1  1
 25 27  2  0
  6 11  1  0
  6 12  1  0
 29 36  1  0
 29 37  1  0
  9  7  1  6
  7 13  1  0
 10  8  1  6
  8 14  1  0
  4  5  1  0
 36 28  1  1
 33 30  1  1
 30 38  1  0
 34 31  1  6
 31 39  1  0
 35 32  1  1
 32 40  1  0
 41 43  1  0
 15 19  2  0
 42 43  2  0
 16 22  2  0
 12 17  1  1
 17 19  1  0
 17 20  1  0
 18 19  1  0
 18 22  1  0
 18 23  1  0
  9 10  1  0
  9 11  1  0
 10 12  1  0
 11  5  1  1
 33 34  1  0
 33 35  1  0
 34 36  1  0
 35 37  1  0
 37 43  1  1
 20 21  2  0
 21 22  1  0
M  CHG  3   2  -1  26  -1  41  -1
M  END
>  <COMPND>  (135) 
    udp_gluA.pdb 

>  <AUTHOR>  (135) 
    GENERATED BY OPEN BABEL 3.1.1

>  <MASTER>  (135) 
        0    0    0    0    0    0    0    0   56    0   56    0

>  <minimizedAffinity>  (135) 
-6.70419

>  <CNNscore>  (135) 
0.6450403333

>  <CNNaffinity>  (135) 
4.3100748062

>  <CNN_VS>  (135) 
2.7801721096

>  <CNNaffinity_variance>  (135) 
0.0253602117

$$$$
136
     RDKit          3D

 43 45  0  0  0  0  0  0  0  0999 V2000
   22.7103   71.1581   -2.5949 P   0  0  2  0  0  0  0  0  0  0  0  0
   24.2416   70.8119   -2.9874 O   0  0  0  0  0  0  0  0  0  0  0  0
   21.6738   70.3298   -3.2958 O   0  0  0  0  0  0  0  0  0  0  0  0
   22.6032   72.7567   -2.8213 O   0  0  0  0  0  0  0  0  0  0  0  0
   21.7185   73.2410   -3.8148 C   0  0  0  0  0  0  0  0  0  0  0  0
   21.8740   72.2192   -5.9849 O   0  0  0  0  0  0  0  0  0  0  0  0
   23.3391   74.6921   -6.8391 O   0  0  0  0  0  0  0  0  0  0  0  0
   20.8303   75.1174   -7.8194 O   0  0  0  0  0  0  0  0  0  0  0  0
   22.2496   74.5572   -5.9263 C   0  0  1  0  0  0  0  0  0  0  0  0
   20.9636   74.2931   -6.6804 C   0  0  2  0  0  0  0  0  0  0  0  0
   22.4401   73.2575   -5.1563 C   0  0  1  0  0  0  0  0  0  0  0  0
   21.1027   72.8226   -7.0358 C   0  0  2  0  0  0  0  0  0  0  0  0
   23.2394   75.5156   -7.3427 H   0  0  0  0  0  0  0  0  0  0  0  0
   20.7448   76.0430   -7.5404 H   0  0  0  0  0  0  0  0  0  0  0  0
   20.7363   70.2143   -8.0551 O   0  0  0  0  0  0  0  0  0  0  0  0
   16.1877   70.3721   -7.3274 O   0  0  0  0  0  0  0  0  0  0  0  0
   19.8335   72.1578   -7.1243 N   0  0  0  0  0  0  0  0  0  0  0  0
   18.4710   70.2958   -7.6926 N   0  0  0  0  0  0  0  0  0  0  0  0
   19.7584   70.8472   -7.6525 C   0  0  0  0  0  0  0  0  0  0  0  0
   18.6814   72.8017   -6.6895 C   0  0  0  0  0  0  0  0  0  0  0  0
   17.4613   72.2631   -6.7340 C   0  0  0  0  0  0  0  0  0  0  0  0
   17.2956   70.8972   -7.2727 C   0  0  0  0  0  0  0  0  0  0  0  0
   18.3933   69.3850   -8.0583 H   0  0  0  0  0  0  0  0  0  0  0  0
   22.7080   71.0182   -0.9845 O   0  0  0  0  0  0  0  0  0  0  0  0
   21.5425   71.2888    0.1027 P   0  0  2  0  0  0  0  0  0  0  0  0
   21.6317   69.9942    1.0704 O   0  0  0  0  0  0  0  0  0  0  0  0
   20.1850   71.5218   -0.4948 O   0  0  0  0  0  0  0  0  0  0  0  0
   22.0965   72.5082    1.0018 O   0  0  0  0  0  0  0  0  0  0  0  0
   23.9299   73.9606    0.6298 O   0  0  0  0  0  0  0  0  0  0  0  0
   23.8842   73.7035    4.7529 O   0  0  0  0  0  0  0  0  0  0  0  0
   23.4598   71.3214    3.1158 O   0  0  0  0  0  0  0  0  0  0  0  0
   22.8873   76.0917    3.4286 O   0  0  0  0  0  0  0  0  0  0  0  0
   23.3193   73.7214    3.4419 C   0  0  2  0  0  0  0  0  0  0  0  0
   23.9064   72.5766    2.6160 C   0  0  2  0  0  0  0  0  0  0  0  0
   23.6571   75.0688    2.7997 C   0  0  1  0  0  0  0  0  0  0  0  0
   23.5027   72.6995    1.1460 C   0  0  1  0  0  0  0  0  0  0  0  0
   23.3416   75.0690    1.3068 C   0  0  1  0  0  0  0  0  0  0  0  0
   23.6824   72.8564    5.1806 H   0  0  0  0  0  0  0  0  0  0  0  0
   23.7123   71.2368    4.0483 H   0  0  0  0  0  0  0  0  0  0  0  0
   23.0787   76.1021    4.3794 H   0  0  0  0  0  0  0  0  0  0  0  0
   25.0860   75.8724   -0.0398 O   0  0  0  0  0  0  0  0  0  0  0  0
   23.5396   77.3887    0.6733 O   0  0  0  0  0  0  0  0  0  0  0  0
   23.9688   76.2454    0.6322 C   0  0  0  0  0  0  0  0  0  0  0  0
  1  4  1  0
  1 24  1  0
  1  2  1  6
  1  3  2  0
 25 28  1  0
 25 24  1  0
 25 26  1  1
 25 27  2  0
  6 11  1  0
  6 12  1  0
 29 36  1  0
 29 37  1  0
  9  7  1  6
  7 13  1  0
 10  8  1  6
  8 14  1  0
  4  5  1  0
 36 28  1  1
 33 30  1  1
 30 38  1  0
 34 31  1  1
 31 39  1  0
 35 32  1  1
 32 40  1  0
 41 43  1  0
 15 19  2  0
 42 43  2  0
 16 22  2  0
 12 17  1  1
 17 19  1  0
 17 20  1  0
 18 19  1  0
 18 22  1  0
 18 23  1  0
  9 10  1  0
  9 11  1  0
 10 12  1  0
 11  5  1  1
 33 34  1  0
 33 35  1  0
 34 36  1  0
 35 37  1  0
 37 43  1  6
 20 21  2  0
 21 22  1  0
M  CHG  3   2  -1  26  -1  41  -1
M  END
>  <COMPND>  (136) 
    udp_gluA.pdb 

>  <AUTHOR>  (136) 
    GENERATED BY OPEN BABEL 3.1.1

>  <MASTER>  (136) 
        0    0    0    0    0    0    0    0   56    0   56    0

>  <minimizedAffinity>  (136) 
-6.61393

>  <CNNscore>  (136) 
0.6341782212

>  <CNNaffinity>  (136) 
4.3254518509

>  <CNN_VS>  (136) 
2.7431073189

>  <CNNaffinity_variance>  (136) 
0.0193833373

$$$$
137
     RDKit          3D

 43 45  0  0  0  0  0  0  0  0999 V2000
   21.9298   72.5305   -5.8883 P   0  0  2  0  0  0  0  0  0  0  0  0
   21.4034   73.9969   -5.4509 O   0  0  0  0  0  0  0  0  0  0  0  0
   23.0640   72.5316   -6.8710 O   0  0  0  0  0  0  0  0  0  0  0  0
   20.5880   71.7622   -6.3649 O   0  0  0  0  0  0  0  0  0  0  0  0
   20.0401   72.0805   -7.6310 C   0  0  0  0  0  0  0  0  0  0  0  0
   18.9142   70.0084   -7.1659 O   0  0  0  0  0  0  0  0  0  0  0  0
   18.1183   70.0069  -10.0569 O   0  0  0  0  0  0  0  0  0  0  0  0
   15.8549   70.8866   -8.8163 O   0  0  0  0  0  0  0  0  0  0  0  0
   18.2523   71.1074   -9.1571 C   0  0  1  0  0  0  0  0  0  0  0  0
   17.0933   71.1322   -8.1832 C   0  0  2  0  0  0  0  0  0  0  0  0
   19.4334   70.8227   -8.2394 C   0  0  1  0  0  0  0  0  0  0  0  0
   17.4786   70.0343   -7.2064 C   0  0  2  0  0  0  0  0  0  0  0  0
   17.3697   70.1659  -10.6535 H   0  0  0  0  0  0  0  0  0  0  0  0
   15.6545   71.6134   -9.4275 H   0  0  0  0  0  0  0  0  0  0  0  0
   16.3003   68.0656   -5.5594 O   0  0  0  0  0  0  0  0  0  0  0  0
   15.5945   71.0823   -2.1468 O   0  0  0  0  0  0  0  0  0  0  0  0
   16.9784   70.2779   -5.8831 N   0  0  0  0  0  0  0  0  0  0  0  0
   15.9490   69.5702   -3.8617 N   0  0  0  0  0  0  0  0  0  0  0  0
   16.4047   69.2196   -5.1394 C   0  0  0  0  0  0  0  0  0  0  0  0
   17.0600   71.5519   -5.3344 C   0  0  0  0  0  0  0  0  0  0  0  0
   16.6213   71.8708   -4.1151 C   0  0  0  0  0  0  0  0  0  0  0  0
   16.0077   70.8231   -3.2730 C   0  0  0  0  0  0  0  0  0  0  0  0
   15.5438   68.8505   -3.3258 H   0  0  0  0  0  0  0  0  0  0  0  0
   22.2669   71.8285   -4.4719 O   0  0  0  0  0  0  0  0  0  0  0  0
   23.4899   72.0554   -3.4392 P   0  0  2  0  0  0  0  0  0  0  0  0
   24.4483   73.0974   -4.2241 O   0  0  0  0  0  0  0  0  0  0  0  0
   24.1741   70.7907   -3.0074 O   0  0  0  0  0  0  0  0  0  0  0  0
   22.8528   72.9172   -2.2333 O   0  0  0  0  0  0  0  0  0  0  0  0
   21.3531   71.9094   -0.7022 O   0  0  0  0  0  0  0  0  0  0  0  0
   20.5864   75.9256   -0.1102 O   0  0  0  0  0  0  0  0  0  0  0  0
   20.9591   74.8713   -2.8090 O   0  0  0  0  0  0  0  0  0  0  0  0
   22.1509   74.4364    1.8355 O   0  0  0  0  0  0  0  0  0  0  0  0
   21.3838   74.7832   -0.4220 C   0  0  2  0  0  0  0  0  0  0  0  0
   20.8018   74.0708   -1.6432 C   0  0  2  0  0  0  0  0  0  0  0  0
   21.3722   73.8526    0.7928 C   0  0  1  0  0  0  0  0  0  0  0  0
   21.4877   72.7226   -1.8685 C   0  0  1  0  0  0  0  0  0  0  0  0
   21.9589   72.4855    0.4528 C   0  0  1  0  0  0  0  0  0  0  0  0
   20.5789   76.5315   -0.8679 H   0  0  0  0  0  0  0  0  0  0  0  0
   20.5265   75.7284   -2.6730 H   0  0  0  0  0  0  0  0  0  0  0  0
   21.7881   75.3072    2.0612 H   0  0  0  0  0  0  0  0  0  0  0  0
   21.5445   70.2443    1.0067 O   0  0  0  0  0  0  0  0  0  0  0  0
   21.5058   71.7607    2.7091 O   0  0  0  0  0  0  0  0  0  0  0  0
   21.6474   71.4930    1.5253 C   0  0  0  0  0  0  0  0  0  0  0  0
  1  4  1  0
  1 24  1  0
  1  2  1  1
  1  3  2  0
 25 28  1  0
 25 24  1  0
 25 26  1  6
 25 27  2  0
  6 11  1  0
  6 12  1  0
 29 36  1  0
 29 37  1  0
  9  7  1  6
  7 13  1  0
 10  8  1  6
  8 14  1  0
  4  5  1  0
 36 28  1  1
 33 30  1  1
 30 38  1  0
 34 31  1  6
 31 39  1  0
 35 32  1  1
 32 40  1  0
 41 43  1  0
 15 19  2  0
 42 43  2  0
 16 22  2  0
 12 17  1  1
 17 19  1  0
 17 20  1  0
 18 19  1  0
 18 22  1  0
 18 23  1  0
  9 10  1  0
  9 11  1  0
 10 12  1  0
 11  5  1  1
 33 34  1  0
 33 35  1  0
 34 36  1  0
 35 37  1  0
 37 43  1  1
 20 21  2  0
 21 22  1  0
M  CHG  3   2  -1  26  -1  41  -1
M  END
>  <COMPND>  (137) 
    udp_gluA.pdb 

>  <AUTHOR>  (137) 
    GENERATED BY OPEN BABEL 3.1.1

>  <MASTER>  (137) 
        0    0    0    0    0    0    0    0   56    0   56    0

>  <minimizedAffinity>  (137) 
-8.32976

>  <CNNscore>  (137) 
0.6065963507

>  <CNNaffinity>  (137) 
4.4144239426

>  <CNN_VS>  (137) 
2.6777734756

>  <CNNaffinity_variance>  (137) 
0.4037384987

$$$$
138
     RDKit          3D

 43 45  0  0  0  0  0  0  0  0999 V2000
   23.4253   72.3010   -3.5045 P   0  0  2  0  0  0  0  0  0  0  0  0
   24.0899   70.8405   -3.2950 O   0  0  0  0  0  0  0  0  0  0  0  0
   24.3676   73.3617   -3.9931 O   0  0  0  0  0  0  0  0  0  0  0  0
   22.6987   72.6037   -2.0909 O   0  0  0  0  0  0  0  0  0  0  0  0
   23.4960   72.6785   -0.9233 C   0  0  0  0  0  0  0  0  0  0  0  0
   24.4673   71.2052    0.7088 O   0  0  0  0  0  0  0  0  0  0  0  0
   21.6845   70.1911    1.1766 O   0  0  0  0  0  0  0  0  0  0  0  0
   22.0625   71.8856    3.2794 O   0  0  0  0  0  0  0  0  0  0  0  0
   22.1251   71.5157    0.8770 C   0  0  1  0  0  0  0  0  0  0  0  0
   22.7833   72.1363    2.0911 C   0  0  2  0  0  0  0  0  0  0  0  0
   23.2889   71.4141   -0.0994 C   0  0  1  0  0  0  0  0  0  0  0  0
   24.1490   71.4709    2.0841 C   0  0  2  0  0  0  0  0  0  0  0  0
   20.9410   70.2303    1.7990 H   0  0  0  0  0  0  0  0  0  0  0  0
   21.2011   72.3305    3.2350 H   0  0  0  0  0  0  0  0  0  0  0  0
   26.8681   70.7407    2.3073 O   0  0  0  0  0  0  0  0  0  0  0  0
   27.9779   74.7668    4.2575 O   0  0  0  0  0  0  0  0  0  0  0  0
   25.1699   72.3091    2.6461 N   0  0  0  0  0  0  0  0  0  0  0  0
   27.4181   72.7462    3.2793 N   0  0  0  0  0  0  0  0  0  0  0  0
   26.5057   71.8472    2.7116 C   0  0  0  0  0  0  0  0  0  0  0  0
   24.8447   73.5731    3.1232 C   0  0  0  0  0  0  0  0  0  0  0  0
   25.7254   74.4189    3.6616 C   0  0  0  0  0  0  0  0  0  0  0  0
   27.1422   74.0130    3.7681 C   0  0  0  0  0  0  0  0  0  0  0  0
   28.3539   72.4461    3.3376 H   0  0  0  0  0  0  0  0  0  0  0  0
   22.1835   71.9961   -4.4934 O   0  0  0  0  0  0  0  0  0  0  0  0
   21.5455   72.8680   -5.6961 P   0  0  2  0  0  0  0  0  0  0  0  0
   22.4709   72.4791   -6.9660 O   0  0  0  0  0  0  0  0  0  0  0  0
   21.4681   74.3407   -5.4152 O   0  0  0  0  0  0  0  0  0  0  0  0
   20.1237   72.1686   -5.9990 O   0  0  0  0  0  0  0  0  0  0  0  0
   19.3636   69.9966   -5.4388 O   0  0  0  0  0  0  0  0  0  0  0  0
   17.3548   70.7030   -8.9791 O   0  0  0  0  0  0  0  0  0  0  0  0
   20.1597   71.4667   -8.6902 O   0  0  0  0  0  0  0  0  0  0  0  0
   15.9440   70.8688   -6.4427 O   0  0  0  0  0  0  0  0  0  0  0  0
   17.9680   71.0491   -7.7372 C   0  0  2  0  0  0  0  0  0  0  0  0
   19.4444   70.6531   -7.7676 C   0  0  2  0  0  0  0  0  0  0  0  0
   17.2377   70.2960   -6.6231 C   0  0  1  0  0  0  0  0  0  0  0  0
   20.0776   70.7955   -6.3829 C   0  0  1  0  0  0  0  0  0  0  0  0
   17.9974   70.3812   -5.3024 C   0  0  1  0  0  0  0  0  0  0  0  0
   17.8024   71.1699   -9.7022 H   0  0  0  0  0  0  0  0  0  0  0  0
   19.7631   71.3814   -9.5710 H   0  0  0  0  0  0  0  0  0  0  0  0
   15.4501   70.8210   -7.2762 H   0  0  0  0  0  0  0  0  0  0  0  0
   18.3820   69.1357   -3.3525 O   0  0  0  0  0  0  0  0  0  0  0  0
   16.3592   68.8741   -4.3717 O   0  0  0  0  0  0  0  0  0  0  0  0
   17.4660   69.3891   -4.3198 C   0  0  0  0  0  0  0  0  0  0  0  0
  1  4  1  0
  1 24  1  0
  1  2  1  1
  1  3  2  0
 25 28  1  0
 25 24  1  0
 25 26  1  6
 25 27  2  0
  6 11  1  0
  6 12  1  0
 29 36  1  0
 29 37  1  0
  9  7  1  1
  7 13  1  0
 10  8  1  1
  8 14  1  0
  4  5  1  0
 36 28  1  1
 33 30  1  6
 30 38  1  0
 34 31  1  6
 31 39  1  0
 35 32  1  1
 32 40  1  0
 41 43  1  0
 15 19  2  0
 42 43  2  0
 16 22  2  0
 12 17  1  6
 17 19  1  0
 17 20  1  0
 18 19  1  0
 18 22  1  0
 18 23  1  0
  9 10  1  0
  9 11  1  0
 10 12  1  0
 11  5  1  1
 33 34  1  0
 33 35  1  0
 34 36  1  0
 35 37  1  0
 37 43  1  1
 20 21  2  0
 21 22  1  0
M  CHG  3   2  -1  26  -1  41  -1
M  END
>  <COMPND>  (138) 
    udp_gluA.pdb 

>  <AUTHOR>  (138) 
    GENERATED BY OPEN BABEL 3.1.1

>  <MASTER>  (138) 
        0    0    0    0    0    0    0    0   56    0   56    0

>  <minimizedAffinity>  (138) 
-8.24479

>  <CNNscore>  (138) 
0.5292203426

>  <CNNaffinity>  (138) 
4.3994264603

>  <CNN_VS>  (138) 
2.3282659054

>  <CNNaffinity_variance>  (138) 
0.1678607464

$$$$
139
     RDKit          3D

 43 45  0  0  0  0  0  0  0  0999 V2000
   21.7554   71.6671    0.3750 P   0  0  2  0  0  0  0  0  0  0  0  0
   21.9473   70.2564    1.1443 O   0  0  0  0  0  0  0  0  0  0  0  0
   20.5473   72.4552    0.7887 O   0  0  0  0  0  0  0  0  0  0  0  0
   21.8320   71.2690   -1.1914 O   0  0  0  0  0  0  0  0  0  0  0  0
   21.9643   72.3054   -2.1468 C   0  0  0  0  0  0  0  0  0  0  0  0
   21.5300   70.5374   -3.7162 O   0  0  0  0  0  0  0  0  0  0  0  0
   22.9700   72.2258   -5.7329 O   0  0  0  0  0  0  0  0  0  0  0  0
   20.3502   72.6737   -6.3426 O   0  0  0  0  0  0  0  0  0  0  0  0
   22.1107   72.6282   -4.6661 C   0  0  1  0  0  0  0  0  0  0  0  0
   20.6683   72.3241   -5.0118 C   0  0  2  0  0  0  0  0  0  0  0  0
   22.3586   71.6976   -3.4867 C   0  0  1  0  0  0  0  0  0  0  0  0
   20.5943   70.8266   -4.7669 C   0  0  2  0  0  0  0  0  0  0  0  0
   22.8296   72.8060   -6.4980 H   0  0  0  0  0  0  0  0  0  0  0  0
   20.4115   73.6366   -6.4474 H   0  0  0  0  0  0  0  0  0  0  0  0
   18.4387   70.3700   -6.5337 O   0  0  0  0  0  0  0  0  0  0  0  0
   15.6179   69.2018   -3.0808 O   0  0  0  0  0  0  0  0  0  0  0  0
   19.2856   70.4026   -4.3565 N   0  0  0  0  0  0  0  0  0  0  0  0
   17.0355   69.7896   -4.8121 N   0  0  0  0  0  0  0  0  0  0  0  0
   18.2729   70.2019   -5.3240 C   0  0  0  0  0  0  0  0  0  0  0  0
   19.0164   70.1885   -3.0101 C   0  0  0  0  0  0  0  0  0  0  0  0
   17.8320   69.7954   -2.5374 C   0  0  0  0  0  0  0  0  0  0  0  0
   16.7196   69.5641   -3.4821 C   0  0  0  0  0  0  0  0  0  0  0  0
   16.3142   69.6453   -5.4665 H   0  0  0  0  0  0  0  0  0  0  0  0
   23.1661   72.4141    0.6294 O   0  0  0  0  0  0  0  0  0  0  0  0
   23.4995   73.9427    1.0366 P   0  0  2  0  0  0  0  0  0  0  0  0
   22.3994   74.7942    0.2089 O   0  0  0  0  0  0  0  0  0  0  0  0
   24.9206   74.3527    0.7790 O   0  0  0  0  0  0  0  0  0  0  0  0
   23.0357   74.0665    2.5767 O   0  0  0  0  0  0  0  0  0  0  0  0
   24.6374   73.4917    4.2239 O   0  0  0  0  0  0  0  0  0  0  0  0
   21.1614   73.6515    6.4510 O   0  0  0  0  0  0  0  0  0  0  0  0
   21.1700   72.4102    3.8065 O   0  0  0  0  0  0  0  0  0  0  0  0
   23.1000   75.8116    6.6148 O   0  0  0  0  0  0  0  0  0  0  0  0
   22.0513   74.0171    5.3963 C   0  0  2  0  0  0  0  0  0  0  0  0
   22.3378   72.7959    4.5221 C   0  0  2  0  0  0  0  0  0  0  0  0
   23.3455   74.5351    6.0277 C   0  0  1  0  0  0  0  0  0  0  0  0
   23.4595   73.0883    3.5245 C   0  0  1  0  0  0  0  0  0  0  0  0
   24.4529   74.6813    4.9881 C   0  0  1  0  0  0  0  0  0  0  0  0
   20.3317   73.3191    6.0737 H   0  0  0  0  0  0  0  0  0  0  0  0
   20.4541   72.2234    4.4333 H   0  0  0  0  0  0  0  0  0  0  0  0
   22.3969   75.7325    7.2784 H   0  0  0  0  0  0  0  0  0  0  0  0
   25.6390   74.9310    6.9962 O   0  0  0  0  0  0  0  0  0  0  0  0
   26.8502   74.9426    5.0644 O   0  0  0  0  0  0  0  0  0  0  0  0
   25.7802   74.8647    5.6491 C   0  0  0  0  0  0  0  0  0  0  0  0
  1  4  1  0
  1 24  1  0
  1  2  1  1
  1  3  2  0
 25 28  1  0
 25 24  1  0
 25 26  1  6
 25 27  2  0
  6 11  1  0
  6 12  1  0
 29 36  1  0
 29 37  1  0
  9  7  1  6
  7 13  1  0
 10  8  1  6
  8 14  1  0
  4  5  1  0
 36 28  1  6
 33 30  1  1
 30 38  1  0
 34 31  1  6
 31 39  1  0
 35 32  1  6
 32 40  1  0
 41 43  1  0
 15 19  2  0
 42 43  2  0
 16 22  2  0
 12 17  1  1
 17 19  1  0
 17 20  1  0
 18 19  1  0
 18 22  1  0
 18 23  1  0
  9 10  1  0
  9 11  1  0
 10 12  1  0
 11  5  1  1
 33 34  1  0
 33 35  1  0
 34 36  1  0
 35 37  1  0
 37 43  1  1
 20 21  2  0
 21 22  1  0
M  CHG  3   2  -1  26  -1  41  -1
M  END
>  <COMPND>  (139) 
    udp_gluA.pdb 

>  <AUTHOR>  (139) 
    GENERATED BY OPEN BABEL 3.1.1

>  <MASTER>  (139) 
        0    0    0    0    0    0    0    0   56    0   56    0

>  <minimizedAffinity>  (139) 
-6.38134

>  <CNNscore>  (139) 
0.4915236533

>  <CNNaffinity>  (139) 
4.0002427101

>  <CNN_VS>  (139) 
1.9662139416

>  <CNNaffinity_variance>  (139) 
0.0900454372

$$$$
140
     RDKit          3D

 43 45  0  0  0  0  0  0  0  0999 V2000
   22.2740   73.1582   -7.2400 P   0  0  2  0  0  0  0  0  0  0  0  0
   21.2388   74.2942   -6.7330 O   0  0  0  0  0  0  0  0  0  0  0  0
   23.4089   73.6651   -8.0808 O   0  0  0  0  0  0  0  0  0  0  0  0
   21.3236   72.0497   -7.9370 O   0  0  0  0  0  0  0  0  0  0  0  0
   19.9414   72.0551   -7.6304 C   0  0  0  0  0  0  0  0  0  0  0  0
   18.7044   70.1258   -6.9054 O   0  0  0  0  0  0  0  0  0  0  0  0
   18.1256   69.6376   -9.8069 O   0  0  0  0  0  0  0  0  0  0  0  0
   15.8124   70.7783   -8.9215 O   0  0  0  0  0  0  0  0  0  0  0  0
   18.2352   70.8750   -9.1030 C   0  0  1  0  0  0  0  0  0  0  0  0
   17.0090   71.0996   -8.2437 C   0  0  2  0  0  0  0  0  0  0  0  0
   19.3331   70.7258   -8.0587 C   0  0  1  0  0  0  0  0  0  0  0  0
   17.2778   70.1805   -7.0643 C   0  0  2  0  0  0  0  0  0  0  0  0
   17.4300   69.7085  -10.4798 H   0  0  0  0  0  0  0  0  0  0  0  0
   15.6862   71.3916   -9.6631 H   0  0  0  0  0  0  0  0  0  0  0  0
   16.7164   68.5701   -4.8131 O   0  0  0  0  0  0  0  0  0  0  0  0
   15.0244   72.1464   -2.4486 O   0  0  0  0  0  0  0  0  0  0  0  0
   16.6907   70.6650   -5.8471 N   0  0  0  0  0  0  0  0  0  0  0  0
   15.8733   70.3527   -3.6379 N   0  0  0  0  0  0  0  0  0  0  0  0
   16.4497   69.7728   -4.7757 C   0  0  0  0  0  0  0  0  0  0  0  0
   16.3619   72.0094   -5.7228 C   0  0  0  0  0  0  0  0  0  0  0  0
   15.8131   72.5475   -4.6319 C   0  0  0  0  0  0  0  0  0  0  0  0
   15.5281   71.6836   -3.4675 C   0  0  0  0  0  0  0  0  0  0  0  0
   15.6942   69.7508   -2.8796 H   0  0  0  0  0  0  0  0  0  0  0  0
   22.7243   72.4379   -5.8647 O   0  0  0  0  0  0  0  0  0  0  0  0
   23.1965   73.0565   -4.4477 P   0  0  2  0  0  0  0  0  0  0  0  0
   23.1231   74.6540   -4.6987 O   0  0  0  0  0  0  0  0  0  0  0  0
   24.5347   72.5654   -3.9767 O   0  0  0  0  0  0  0  0  0  0  0  0
   21.9765   72.7464   -3.4388 O   0  0  0  0  0  0  0  0  0  0  0  0
   22.1357   70.8795   -1.9902 O   0  0  0  0  0  0  0  0  0  0  0  0
   18.0983   71.7376   -1.8150 O   0  0  0  0  0  0  0  0  0  0  0  0
   19.5213   71.8242   -4.3649 O   0  0  0  0  0  0  0  0  0  0  0  0
   19.8409   72.4598    0.3970 O   0  0  0  0  0  0  0  0  0  0  0  0
   19.4887   72.0327   -1.9479 C   0  0  2  0  0  0  0  0  0  0  0  0
   20.0557   71.2910   -3.1587 C   0  0  2  0  0  0  0  0  0  0  0  0
   20.1931   71.5783   -0.6676 C   0  0  1  0  0  0  0  0  0  0  0  0
   21.5808   71.3969   -3.2001 C   0  0  1  0  0  0  0  0  0  0  0  0
   21.7102   71.5928   -0.8313 C   0  0  1  0  0  0  0  0  0  0  0  0
   17.6300   72.0177   -2.6172 H   0  0  0  0  0  0  0  0  0  0  0  0
   18.5539   71.7605   -4.3453 H   0  0  0  0  0  0  0  0  0  0  0  0
   18.8777   72.4599    0.5114 H   0  0  0  0  0  0  0  0  0  0  0  0
   23.7205   70.9408    0.1862 O   0  0  0  0  0  0  0  0  0  0  0  0
   21.7842   70.2385    1.1642 O   0  0  0  0  0  0  0  0  0  0  0  0
   22.3711   70.8479    0.2826 C   0  0  0  0  0  0  0  0  0  0  0  0
  1  4  1  0
  1 24  1  0
  1  2  1  1
  1  3  2  0
 25 28  1  0
 25 24  1  0
 25 26  1  6
 25 27  2  0
  6 11  1  0
  6 12  1  0
 29 36  1  0
 29 37  1  0
  9  7  1  1
  7 13  1  0
 10  8  1  6
  8 14  1  0
  4  5  1  0
 36 28  1  1
 33 30  1  1
 30 38  1  0
 34 31  1  6
 31 39  1  0
 35 32  1  1
 32 40  1  0
 41 43  1  0
 15 19  2  0
 42 43  2  0
 16 22  2  0
 12 17  1  1
 17 19  1  0
 17 20  1  0
 18 19  1  0
 18 22  1  0
 18 23  1  0
  9 10  1  0
  9 11  1  0
 10 12  1  0
 11  5  1  1
 33 34  1  0
 33 35  1  0
 34 36  1  0
 35 37  1  0
 37 43  1  1
 20 21  2  0
 21 22  1  0
M  CHG  3   2  -1  26  -1  41  -1
M  END
>  <COMPND>  (140) 
    udp_gluA.pdb 

>  <AUTHOR>  (140) 
    GENERATED BY OPEN BABEL 3.1.1

>  <MASTER>  (140) 
        0    0    0    0    0    0    0    0   56    0   56    0

>  <minimizedAffinity>  (140) 
-8.11744

>  <CNNscore>  (140) 
0.4875636995

>  <CNNaffinity>  (140) 
4.2221817970

>  <CNN_VS>  (140) 
2.0585825443

>  <CNNaffinity_variance>  (140) 
0.6172757149

$$$$
141
     RDKit          3D

 43 45  0  0  0  0  0  0  0  0999 V2000
   22.8038   71.5298   -3.2393 P   0  0  2  0  0  0  0  0  0  0  0  0
   22.4050   71.9561   -4.7486 O   0  0  0  0  0  0  0  0  0  0  0  0
   24.1547   70.8922   -3.0970 O   0  0  0  0  0  0  0  0  0  0  0  0
   21.5493   70.6361   -2.7438 O   0  0  0  0  0  0  0  0  0  0  0  0
   20.6615   70.1183   -3.7175 C   0  0  0  0  0  0  0  0  0  0  0  0
   18.8607   71.4159   -4.6400 O   0  0  0  0  0  0  0  0  0  0  0  0
   17.1319   70.1756   -2.5270 O   0  0  0  0  0  0  0  0  0  0  0  0
   16.4973   68.7219   -4.7452 O   0  0  0  0  0  0  0  0  0  0  0  0
   18.2124   69.6011   -3.2627 C   0  0  1  0  0  0  0  0  0  0  0  0
   17.7811   69.3073   -4.6839 C   0  0  2  0  0  0  0  0  0  0  0  0
   19.2678   70.6795   -3.4664 C   0  0  1  0  0  0  0  0  0  0  0  0
   17.8256   70.6869   -5.3185 C   0  0  2  0  0  0  0  0  0  0  0  0
   16.4449   69.5052   -2.3845 H   0  0  0  0  0  0  0  0  0  0  0  0
   16.5214   67.8456   -4.3286 H   0  0  0  0  0  0  0  0  0  0  0  0
   15.9149   70.2644   -7.3550 O   0  0  0  0  0  0  0  0  0  0  0  0
   19.1164   70.5096  -10.6618 O   0  0  0  0  0  0  0  0  0  0  0  0
   18.1324   70.6357   -6.7200 N   0  0  0  0  0  0  0  0  0  0  0  0
   17.5114   70.3859   -9.0000 N   0  0  0  0  0  0  0  0  0  0  0  0
   17.0987   70.4180   -7.6614 C   0  0  0  0  0  0  0  0  0  0  0  0
   19.4435   70.8017   -7.1495 C   0  0  0  0  0  0  0  0  0  0  0  0
   19.8214   70.7687   -8.4289 C   0  0  0  0  0  0  0  0  0  0  0  0
   18.8028   70.5451   -9.4757 C   0  0  0  0  0  0  0  0  0  0  0  0
   16.8097   70.2336   -9.6736 H   0  0  0  0  0  0  0  0  0  0  0  0
   22.6184   72.9063   -2.4124 O   0  0  0  0  0  0  0  0  0  0  0  0
   23.6226   74.1533   -2.1884 P   0  0  2  0  0  0  0  0  0  0  0  0
   22.6173   75.4050   -1.9808 O   0  0  0  0  0  0  0  0  0  0  0  0
   24.6256   74.3418   -3.2895 O   0  0  0  0  0  0  0  0  0  0  0  0
   24.2673   73.9029   -0.7310 O   0  0  0  0  0  0  0  0  0  0  0  0
   22.4725   73.4511    0.7467 O   0  0  0  0  0  0  0  0  0  0  0  0
   25.7358   73.1007    3.2559 O   0  0  0  0  0  0  0  0  0  0  0  0
   25.5999   75.2632    1.2963 O   0  0  0  0  0  0  0  0  0  0  0  0
   24.3639   70.7206    2.3053 O   0  0  0  0  0  0  0  0  0  0  0  0
   25.0286   73.0185    2.0185 C   0  0  2  0  0  0  0  0  0  0  0  0
   24.5149   74.4050    1.6296 C   0  0  2  0  0  0  0  0  0  0  0  0
   23.8583   72.0506    2.2060 C   0  0  1  0  0  0  0  0  0  0  0  0
   23.5620   74.3206    0.4364 C   0  0  1  0  0  0  0  0  0  0  0  0
   22.8869   72.1167    1.0310 C   0  0  1  0  0  0  0  0  0  0  0  0
   26.4843   73.7106    3.1608 H   0  0  0  0  0  0  0  0  0  0  0  0
   26.2087   75.3211    2.0489 H   0  0  0  0  0  0  0  0  0  0  0  0
   24.9836   70.6649    3.0494 H   0  0  0  0  0  0  0  0  0  0  0  0
   21.6820   70.1052    1.0899 O   0  0  0  0  0  0  0  0  0  0  0  0
   20.6130   71.9799    1.8261 O   0  0  0  0  0  0  0  0  0  0  0  0
   21.6024   71.4306    1.3654 C   0  0  0  0  0  0  0  0  0  0  0  0
  1  4  1  0
  1 24  1  0
  1  2  1  6
  1  3  2  0
 25 28  1  0
 25 24  1  0
 25 26  1  1
 25 27  2  0
  6 11  1  0
  6 12  1  0
 29 36  1  0
 29 37  1  0
  9  7  1  1
  7 13  1  0
 10  8  1  1
  8 14  1  0
  4  5  1  0
 36 28  1  6
 33 30  1  1
 30 38  1  0
 34 31  1  6
 31 39  1  0
 35 32  1  6
 32 40  1  0
 41 43  1  0
 15 19  2  0
 42 43  2  0
 16 22  2  0
 12 17  1  6
 17 19  1  0
 17 20  1  0
 18 19  1  0
 18 22  1  0
 18 23  1  0
  9 10  1  0
  9 11  1  0
 10 12  1  0
 11  5  1  6
 33 34  1  0
 33 35  1  0
 34 36  1  0
 35 37  1  0
 37 43  1  1
 20 21  2  0
 21 22  1  0
M  CHG  3   2  -1  26  -1  41  -1
M  END
>  <COMPND>  (141) 
    udp_gluA.pdb 

>  <AUTHOR>  (141) 
    GENERATED BY OPEN BABEL 3.1.1

>  <MASTER>  (141) 
        0    0    0    0    0    0    0    0   56    0   56    0

>  <minimizedAffinity>  (141) 
-8.11806

>  <CNNscore>  (141) 
0.9253991842

>  <CNNaffinity>  (141) 
4.8879661560

>  <CNN_VS>  (141) 
4.5233197212

>  <CNNaffinity_variance>  (141) 
0.0555916950

$$$$
142
     RDKit          3D

 43 45  0  0  0  0  0  0  0  0999 V2000
   23.1033   71.6318   -2.4532 P   0  0  2  0  0  0  0  0  0  0  0  0
   23.4592   73.1265   -1.9453 O   0  0  0  0  0  0  0  0  0  0  0  0
   24.2178   70.9223   -3.1647 O   0  0  0  0  0  0  0  0  0  0  0  0
   21.7386   71.8242   -3.3009 O   0  0  0  0  0  0  0  0  0  0  0  0
   20.9563   70.6805   -3.5916 C   0  0  0  0  0  0  0  0  0  0  0  0
   18.9214   71.5921   -4.4892 O   0  0  0  0  0  0  0  0  0  0  0  0
   17.5158   70.1599   -2.2611 O   0  0  0  0  0  0  0  0  0  0  0  0
   17.0804   68.5171   -4.3936 O   0  0  0  0  0  0  0  0  0  0  0  0
   18.6571   69.7551   -3.0174 C   0  0  1  0  0  0  0  0  0  0  0  0
   18.2389   69.3247   -4.4075 C   0  0  2  0  0  0  0  0  0  0  0  0
   19.4934   70.9943   -3.3057 C   0  0  1  0  0  0  0  0  0  0  0  0
   18.0128   70.6598   -5.0963 C   0  0  2  0  0  0  0  0  0  0  0  0
   16.9660   69.3848   -2.0647 H   0  0  0  0  0  0  0  0  0  0  0  0
   17.2759   67.6790   -3.9448 H   0  0  0  0  0  0  0  0  0  0  0  0
   16.1304   69.8483   -7.0391 O   0  0  0  0  0  0  0  0  0  0  0  0
   19.1367   70.4718  -10.4767 O   0  0  0  0  0  0  0  0  0  0  0  0
   18.2771   70.6007   -6.5061 N   0  0  0  0  0  0  0  0  0  0  0  0
   17.6298   70.1586   -8.7492 N   0  0  0  0  0  0  0  0  0  0  0  0
   17.2622   70.1791   -7.3974 C   0  0  0  0  0  0  0  0  0  0  0  0
   19.5282   70.9593   -6.9928 C   0  0  0  0  0  0  0  0  0  0  0  0
   19.8637   70.9348   -8.2841 C   0  0  0  0  0  0  0  0  0  0  0  0
   18.8612   70.5054   -9.2812 C   0  0  0  0  0  0  0  0  0  0  0  0
   16.9405   69.8666   -9.3887 H   0  0  0  0  0  0  0  0  0  0  0  0
   22.5933   70.9020   -1.1041 O   0  0  0  0  0  0  0  0  0  0  0  0
   21.7418   71.4642    0.1499 P   0  0  2  0  0  0  0  0  0  0  0  0
   21.2834   70.1161    0.9198 O   0  0  0  0  0  0  0  0  0  0  0  0
   20.6099   72.3733   -0.2324 O   0  0  0  0  0  0  0  0  0  0  0  0
   22.8402   72.1350    1.1225 O   0  0  0  0  0  0  0  0  0  0  0  0
   24.6105   71.4249    2.5264 O   0  0  0  0  0  0  0  0  0  0  0  0
   22.6687   74.1586    4.9397 O   0  0  0  0  0  0  0  0  0  0  0  0
   21.1423   72.2648    3.3217 O   0  0  0  0  0  0  0  0  0  0  0  0
   25.1777   74.8697    3.6550 O   0  0  0  0  0  0  0  0  0  0  0  0
   23.1284   73.6037    3.7074 C   0  0  2  0  0  0  0  0  0  0  0  0
   22.5484   72.2002    3.5301 C   0  0  2  0  0  0  0  0  0  0  0  0
   24.6569   73.5457    3.7558 C   0  0  1  0  0  0  0  0  0  0  0  0
   23.1957   71.4867    2.3424 C   0  0  1  0  0  0  0  0  0  0  0  0
   25.2194   72.7116    2.6084 C   0  0  1  0  0  0  0  0  0  0  0  0
   21.6997   74.2053    4.9320 H   0  0  0  0  0  0  0  0  0  0  0  0
   20.7251   72.7166    4.0715 H   0  0  0  0  0  0  0  0  0  0  0  0
   24.8272   75.4110    4.3796 H   0  0  0  0  0  0  0  0  0  0  0  0
   26.9203   71.0997    2.5088 O   0  0  0  0  0  0  0  0  0  0  0  0
   27.4921   73.1690    3.2770 O   0  0  0  0  0  0  0  0  0  0  0  0
   26.6586   72.3873    2.8443 C   0  0  0  0  0  0  0  0  0  0  0  0
  1  4  1  0
  1 24  1  0
  1  2  1  1
  1  3  2  0
 25 28  1  0
 25 24  1  0
 25 26  1  1
 25 27  2  0
  6 11  1  0
  6 12  1  0
 29 36  1  0
 29 37  1  0
  9  7  1  1
  7 13  1  0
 10  8  1  1
  8 14  1  0
  4  5  1  0
 36 28  1  6
 33 30  1  1
 30 38  1  0
 34 31  1  6
 31 39  1  0
 35 32  1  6
 32 40  1  0
 41 43  1  0
 15 19  2  0
 42 43  2  0
 16 22  2  0
 12 17  1  6
 17 19  1  0
 17 20  1  0
 18 19  1  0
 18 22  1  0
 18 23  1  0
  9 10  1  0
  9 11  1  0
 10 12  1  0
 11  5  1  6
 33 34  1  0
 33 35  1  0
 34 36  1  0
 35 37  1  0
 37 43  1  1
 20 21  2  0
 21 22  1  0
M  CHG  3   2  -1  26  -1  41  -1
M  END
>  <COMPND>  (142) 
    udp_gluA.pdb 

>  <AUTHOR>  (142) 
    GENERATED BY OPEN BABEL 3.1.1

>  <MASTER>  (142) 
        0    0    0    0    0    0    0    0   56    0   56    0

>  <minimizedAffinity>  (142) 
-8.26862

>  <CNNscore>  (142) 
0.9050023556

>  <CNNaffinity>  (142) 
4.7464017868

>  <CNN_VS>  (142) 
4.2955045700

>  <CNNaffinity_variance>  (142) 
0.0767994076

$$$$
143
     RDKit          3D

 43 45  0  0  0  0  0  0  0  0999 V2000
   20.5536   71.2764   -1.4713 P   0  0  2  0  0  0  0  0  0  0  0  0
   21.1876   70.5372   -0.1788 O   0  0  0  0  0  0  0  0  0  0  0  0
   20.0575   72.6708   -1.2238 O   0  0  0  0  0  0  0  0  0  0  0  0
   19.4517   70.2253   -2.0183 O   0  0  0  0  0  0  0  0  0  0  0  0
   19.1264   70.2426   -3.3962 C   0  0  0  0  0  0  0  0  0  0  0  0
   17.5092   71.3420   -4.7939 O   0  0  0  0  0  0  0  0  0  0  0  0
   15.4280   69.8136   -3.2693 O   0  0  0  0  0  0  0  0  0  0  0  0
   15.6458   68.3815   -5.5796 O   0  0  0  0  0  0  0  0  0  0  0  0
   16.7384   69.4075   -3.6650 C   0  0  1  0  0  0  0  0  0  0  0  0
   16.7713   69.1190   -5.1509 C   0  0  2  0  0  0  0  0  0  0  0  0
   17.6581   70.6159   -3.5546 C   0  0  1  0  0  0  0  0  0  0  0  0
   16.8142   70.5175   -5.7428 C   0  0  2  0  0  0  0  0  0  0  0  0
   14.8223   69.0580   -3.3316 H   0  0  0  0  0  0  0  0  0  0  0  0
   15.6644   67.4992   -5.1758 H   0  0  0  0  0  0  0  0  0  0  0  0
   15.5502   70.5830   -8.2676 O   0  0  0  0  0  0  0  0  0  0  0  0
   19.5873   70.6812  -10.4895 O   0  0  0  0  0  0  0  0  0  0  0  0
   17.5109   70.5605   -6.9973 N   0  0  0  0  0  0  0  0  0  0  0  0
   17.5621   70.6308   -9.3719 N   0  0  0  0  0  0  0  0  0  0  0  0
   16.7812   70.5908   -8.2092 C   0  0  0  0  0  0  0  0  0  0  0  0
   18.9002   70.5740   -7.0189 C   0  0  0  0  0  0  0  0  0  0  0  0
   19.6306   70.6124   -8.1350 C   0  0  0  0  0  0  0  0  0  0  0  0
   18.9456   70.6450   -9.4439 C   0  0  0  0  0  0  0  0  0  0  0  0
   17.0765   70.6503  -10.2281 H   0  0  0  0  0  0  0  0  0  0  0  0
   21.7359   71.1671   -2.5682 O   0  0  0  0  0  0  0  0  0  0  0  0
   23.1015   72.0142   -2.7448 P   0  0  2  0  0  0  0  0  0  0  0  0
   24.1953   70.8797   -3.1147 O   0  0  0  0  0  0  0  0  0  0  0  0
   23.4619   72.8564   -1.5554 O   0  0  0  0  0  0  0  0  0  0  0  0
   22.8951   72.8425   -4.1137 O   0  0  0  0  0  0  0  0  0  0  0  0
   20.6325   73.4724   -4.4188 O   0  0  0  0  0  0  0  0  0  0  0  0
   22.3353   74.7057   -7.9751 O   0  0  0  0  0  0  0  0  0  0  0  0
   23.0643   72.1333   -6.7978 O   0  0  0  0  0  0  0  0  0  0  0  0
   21.6591   76.6554   -5.9276 O   0  0  0  0  0  0  0  0  0  0  0  0
   22.2992   74.4249   -6.5759 C   0  0  2  0  0  0  0  0  0  0  0  0
   21.9814   72.9453   -6.3588 C   0  0  2  0  0  0  0  0  0  0  0  0
   21.2138   75.3005   -5.9457 C   0  0  1  0  0  0  0  0  0  0  0  0
   21.7081   72.6553   -4.8823 C   0  0  1  0  0  0  0  0  0  0  0  0
   20.9103   74.8676   -4.5142 C   0  0  1  0  0  0  0  0  0  0  0  0
   23.0181   74.1606   -8.3969 H   0  0  0  0  0  0  0  0  0  0  0  0
   23.2434   72.3124   -7.7339 H   0  0  0  0  0  0  0  0  0  0  0  0
   21.8559   76.9432   -6.8327 H   0  0  0  0  0  0  0  0  0  0  0  0
   18.9670   76.0650   -5.0542 O   0  0  0  0  0  0  0  0  0  0  0  0
   19.2652   75.4984   -2.8658 O   0  0  0  0  0  0  0  0  0  0  0  0
   19.6452   75.4957   -4.0271 C   0  0  0  0  0  0  0  0  0  0  0  0
  1  4  1  0
  1 24  1  0
  1  2  1  1
  1  3  2  0
 25 28  1  0
 25 24  1  0
 25 26  1  6
 25 27  2  0
  6 11  1  0
  6 12  1  0
 29 36  1  0
 29 37  1  0
  9  7  1  6
  7 13  1  0
 10  8  1  6
  8 14  1  0
  4  5  1  0
 36 28  1  1
 33 30  1  6
 30 38  1  0
 34 31  1  1
 31 39  1  0
 35 32  1  1
 32 40  1  0
 41 43  1  0
 15 19  2  0
 42 43  2  0
 16 22  2  0
 12 17  1  6
 17 19  1  0
 17 20  1  0
 18 19  1  0
 18 22  1  0
 18 23  1  0
  9 10  1  0
  9 11  1  0
 10 12  1  0
 11  5  1  6
 33 34  1  0
 33 35  1  0
 34 36  1  0
 35 37  1  0
 37 43  1  6
 20 21  2  0
 21 22  1  0
M  CHG  3   2  -1  26  -1  41  -1
M  END
>  <COMPND>  (143) 
    udp_gluA.pdb 

>  <AUTHOR>  (143) 
    GENERATED BY OPEN BABEL 3.1.1

>  <MASTER>  (143) 
        0    0    0    0    0    0    0    0   56    0   56    0

>  <minimizedAffinity>  (143) 
-7.97829

>  <CNNscore>  (143) 
0.9014334679

>  <CNNaffinity>  (143) 
4.7143888474

>  <CNN_VS>  (143) 
4.2497076988

>  <CNNaffinity_variance>  (143) 
0.7379664779

$$$$
144
     RDKit          3D

 43 45  0  0  0  0  0  0  0  0999 V2000
   20.8713   72.4183   -4.1049 P   0  0  2  0  0  0  0  0  0  0  0  0
   19.8879   73.6449   -4.4888 O   0  0  0  0  0  0  0  0  0  0  0  0
   21.4656   71.6924   -5.2761 O   0  0  0  0  0  0  0  0  0  0  0  0
   19.9892   71.5154   -3.0926 O   0  0  0  0  0  0  0  0  0  0  0  0
   19.2988   70.3944   -3.6134 C   0  0  0  0  0  0  0  0  0  0  0  0
   17.6286   71.3827   -5.0316 O   0  0  0  0  0  0  0  0  0  0  0  0
   15.6111   69.9380   -3.3481 O   0  0  0  0  0  0  0  0  0  0  0  0
   15.7784   68.3583   -5.5646 O   0  0  0  0  0  0  0  0  0  0  0  0
   16.9141   69.5196   -3.7552 C   0  0  1  0  0  0  0  0  0  0  0  0
   16.9071   69.1338   -5.2192 C   0  0  2  0  0  0  0  0  0  0  0  0
   17.8222   70.7417   -3.7521 C   0  0  1  0  0  0  0  0  0  0  0  0
   16.9161   70.4903   -5.9030 C   0  0  2  0  0  0  0  0  0  0  0  0
   15.0129   69.1740   -3.3424 H   0  0  0  0  0  0  0  0  0  0  0  0
   15.8193   67.5049   -5.1042 H   0  0  0  0  0  0  0  0  0  0  0  0
   15.5891   70.6680   -8.3897 O   0  0  0  0  0  0  0  0  0  0  0  0
   19.5469   70.3520  -10.7307 O   0  0  0  0  0  0  0  0  0  0  0  0
   17.5753   70.4571   -7.1778 N   0  0  0  0  0  0  0  0  0  0  0  0
   17.5615   70.5094   -9.5533 N   0  0  0  0  0  0  0  0  0  0  0  0
   16.8160   70.5535   -8.3678 C   0  0  0  0  0  0  0  0  0  0  0  0
   18.9579   70.3321   -7.2406 C   0  0  0  0  0  0  0  0  0  0  0  0
   19.6544   70.2917   -8.3781 C   0  0  0  0  0  0  0  0  0  0  0  0
   18.9368   70.3855   -9.6663 C   0  0  0  0  0  0  0  0  0  0  0  0
   17.0545   70.5727  -10.3949 H   0  0  0  0  0  0  0  0  0  0  0  0
   21.9522   73.1131   -3.1242 O   0  0  0  0  0  0  0  0  0  0  0  0
   23.4002   72.6078   -2.6127 P   0  0  2  0  0  0  0  0  0  0  0  0
   24.3627   73.8727   -2.9192 O   0  0  0  0  0  0  0  0  0  0  0  0
   23.8568   71.3188   -3.2324 O   0  0  0  0  0  0  0  0  0  0  0  0
   23.2762   72.5707   -1.0047 O   0  0  0  0  0  0  0  0  0  0  0  0
   24.4415   71.2151    0.5488 O   0  0  0  0  0  0  0  0  0  0  0  0
   20.8243   71.7711    2.4657 O   0  0  0  0  0  0  0  0  0  0  0  0
   20.9120   71.2341   -0.4045 O   0  0  0  0  0  0  0  0  0  0  0  0
   23.1806   73.2297    3.3441 O   0  0  0  0  0  0  0  0  0  0  0  0
   21.9169   72.1228    1.6170 C   0  0  2  0  0  0  0  0  0  0  0  0
   22.0239   71.1119    0.4750 C   0  0  2  0  0  0  0  0  0  0  0  0
   23.1939   72.1103    2.4602 C   0  0  1  0  0  0  0  0  0  0  0  0
   23.3134   71.3196   -0.3205 C   0  0  1  0  0  0  0  0  0  0  0  0
   24.4407   72.1952    1.5845 C   0  0  1  0  0  0  0  0  0  0  0  0
   20.0017   71.7725    1.9514 H   0  0  0  0  0  0  0  0  0  0  0  0
   20.0904   71.1037    0.0937 H   0  0  0  0  0  0  0  0  0  0  0  0
   22.3918   73.1878    3.9071 H   0  0  0  0  0  0  0  0  0  0  0  0
   25.9644   70.5378    2.2424 O   0  0  0  0  0  0  0  0  0  0  0  0
   26.3142   72.6464    3.0363 O   0  0  0  0  0  0  0  0  0  0  0  0
   25.6649   71.8542    2.3701 C   0  0  0  0  0  0  0  0  0  0  0  0
  1  4  1  0
  1 24  1  0
  1  2  1  6
  1  3  2  0
 25 28  1  0
 25 24  1  0
 25 26  1  1
 25 27  2  0
  6 11  1  0
  6 12  1  0
 29 36  1  0
 29 37  1  0
  9  7  1  6
  7 13  1  0
 10  8  1  1
  8 14  1  0
  4  5  1  0
 36 28  1  1
 33 30  1  1
 30 38  1  0
 34 31  1  6
 31 39  1  0
 35 32  1  1
 32 40  1  0
 41 43  1  0
 15 19  2  0
 42 43  2  0
 16 22  2  0
 12 17  1  6
 17 19  1  0
 17 20  1  0
 18 19  1  0
 18 22  1  0
 18 23  1  0
  9 10  1  0
  9 11  1  0
 10 12  1  0
 11  5  1  6
 33 34  1  0
 33 35  1  0
 34 36  1  0
 35 37  1  0
 37 43  1  1
 20 21  2  0
 21 22  1  0
M  CHG  3   2  -1  26  -1  41  -1
M  END
>  <COMPND>  (144) 
    udp_gluA.pdb 

>  <AUTHOR>  (144) 
    GENERATED BY OPEN BABEL 3.1.1

>  <MASTER>  (144) 
        0    0    0    0    0    0    0    0   56    0   56    0

>  <minimizedAffinity>  (144) 
-8.17238

>  <CNNscore>  (144) 
0.8686724305

>  <CNNaffinity>  (144) 
4.6923446655

>  <CNN_VS>  (144) 
4.0761103630

>  <CNNaffinity_variance>  (144) 
0.0719477683

$$$$
145
     RDKit          3D

 43 45  0  0  0  0  0  0  0  0999 V2000
   20.2249   72.1727   -1.4438 P   0  0  2  0  0  0  0  0  0  0  0  0
   20.4701   70.6205   -1.0572 O   0  0  0  0  0  0  0  0  0  0  0  0
   19.4143   72.9525   -0.4505 O   0  0  0  0  0  0  0  0  0  0  0  0
   19.6247   72.1090   -2.9450 O   0  0  0  0  0  0  0  0  0  0  0  0
   19.0640   70.8904   -3.3979 C   0  0  0  0  0  0  0  0  0  0  0  0
   17.3412   71.6476   -4.8933 O   0  0  0  0  0  0  0  0  0  0  0  0
   15.4383   70.0555   -3.2094 O   0  0  0  0  0  0  0  0  0  0  0  0
   15.8347   68.4281   -5.3612 O   0  0  0  0  0  0  0  0  0  0  0  0
   16.7892   69.7638   -3.5676 C   0  0  1  0  0  0  0  0  0  0  0  0
   16.8653   69.3299   -5.0161 C   0  0  2  0  0  0  0  0  0  0  0  0
   17.5637   71.0746   -3.5866 C   0  0  1  0  0  0  0  0  0  0  0  0
   16.7518   70.6558   -5.7490 C   0  0  2  0  0  0  0  0  0  0  0  0
   14.9236   69.2331   -3.1906 H   0  0  0  0  0  0  0  0  0  0  0  0
   15.9515   67.5999   -4.8688 H   0  0  0  0  0  0  0  0  0  0  0  0
   15.4868   70.5804   -8.2730 O   0  0  0  0  0  0  0  0  0  0  0  0
   19.5217   70.6342  -10.5002 O   0  0  0  0  0  0  0  0  0  0  0  0
   17.4477   70.6492   -7.0046 N   0  0  0  0  0  0  0  0  0  0  0  0
   17.4976   70.6062   -9.3798 N   0  0  0  0  0  0  0  0  0  0  0  0
   16.7176   70.6100   -8.2160 C   0  0  0  0  0  0  0  0  0  0  0  0
   18.8366   70.6832   -7.0279 C   0  0  0  0  0  0  0  0  0  0  0  0
   19.5663   70.6792   -8.1452 C   0  0  0  0  0  0  0  0  0  0  0  0
   18.8808   70.6384   -9.4536 C   0  0  0  0  0  0  0  0  0  0  0  0
   17.0117   70.5771  -10.2356 H   0  0  0  0  0  0  0  0  0  0  0  0
   21.7243   72.7302   -1.6752 O   0  0  0  0  0  0  0  0  0  0  0  0
   23.0599   72.5893   -0.7751 P   0  0  2  0  0  0  0  0  0  0  0  0
   23.9813   73.8185   -1.2855 O   0  0  0  0  0  0  0  0  0  0  0  0
   23.7209   71.2440   -0.8605 O   0  0  0  0  0  0  0  0  0  0  0  0
   22.5989   73.0156    0.7109 O   0  0  0  0  0  0  0  0  0  0  0  0
   24.1949   72.5554    2.3991 O   0  0  0  0  0  0  0  0  0  0  0  0
   20.8866   73.6137    4.6358 O   0  0  0  0  0  0  0  0  0  0  0  0
   20.6002   71.8974    2.2892 O   0  0  0  0  0  0  0  0  0  0  0  0
   23.0934   75.4797    4.3219 O   0  0  0  0  0  0  0  0  0  0  0  0
   21.7613   73.6445    3.5081 C   0  0  2  0  0  0  0  0  0  0  0  0
   21.8430   72.2505    2.8855 C   0  0  2  0  0  0  0  0  0  0  0  0
   23.1420   74.0928    3.9925 C   0  0  1  0  0  0  0  0  0  0  0  0
   22.9407   72.1895    1.8224 C   0  0  1  0  0  0  0  0  0  0  0  0
   24.2046   73.8836    2.9175 C   0  0  1  0  0  0  0  0  0  0  0  0
   20.0028   73.3313    4.3522 H   0  0  0  0  0  0  0  0  0  0  0  0
   19.8991   71.9342    2.9581 H   0  0  0  0  0  0  0  0  0  0  0  0
   22.4207   75.6265    5.0051 H   0  0  0  0  0  0  0  0  0  0  0  0
   25.5132   74.2711    4.8251 O   0  0  0  0  0  0  0  0  0  0  0  0
   26.6168   73.8877    2.8670 O   0  0  0  0  0  0  0  0  0  0  0  0
   25.5764   74.0078    3.4964 C   0  0  0  0  0  0  0  0  0  0  0  0
  1  4  1  0
  1 24  1  0
  1  2  1  1
  1  3  2  0
 25 28  1  0
 25 24  1  0
 25 26  1  6
 25 27  2  0
  6 11  1  0
  6 12  1  0
 29 36  1  0
 29 37  1  0
  9  7  1  6
  7 13  1  0
 10  8  1  6
  8 14  1  0
  4  5  1  0
 36 28  1  6
 33 30  1  1
 30 38  1  0
 34 31  1  6
 31 39  1  0
 35 32  1  6
 32 40  1  0
 41 43  1  0
 15 19  2  0
 42 43  2  0
 16 22  2  0
 12 17  1  6
 17 19  1  0
 17 20  1  0
 18 19  1  0
 18 22  1  0
 18 23  1  0
  9 10  1  0
  9 11  1  0
 10 12  1  0
 11  5  1  6
 33 34  1  0
 33 35  1  0
 34 36  1  0
 35 37  1  0
 37 43  1  1
 20 21  2  0
 21 22  1  0
M  CHG  3   2  -1  26  -1  41  -1
M  END
>  <COMPND>  (145) 
    udp_gluA.pdb 

>  <AUTHOR>  (145) 
    GENERATED BY OPEN BABEL 3.1.1

>  <MASTER>  (145) 
        0    0    0    0    0    0    0    0   56    0   56    0

>  <minimizedAffinity>  (145) 
-7.31612

>  <CNNscore>  (145) 
0.8590027094

>  <CNNaffinity>  (145) 
4.4742779732

>  <CNN_VS>  (145) 
3.8434169292

>  <CNNaffinity_variance>  (145) 
0.0477832630

$$$$
146
     RDKit          3D

 43 45  0  0  0  0  0  0  0  0999 V2000
   21.3459   73.0886   -5.1496 P   0  0  2  0  0  0  0  0  0  0  0  0
   21.5824   74.5484   -4.4925 O   0  0  0  0  0  0  0  0  0  0  0  0
   21.8386   72.9411   -6.5593 O   0  0  0  0  0  0  0  0  0  0  0  0
   19.7677   72.8122   -4.9243 O   0  0  0  0  0  0  0  0  0  0  0  0
   19.3741   71.9760   -3.8518 C   0  0  0  0  0  0  0  0  0  0  0  0
   17.4283   72.0048   -5.2628 O   0  0  0  0  0  0  0  0  0  0  0  0
   16.0746   70.4122   -3.1129 O   0  0  0  0  0  0  0  0  0  0  0  0
   16.7125   68.5053   -4.9548 O   0  0  0  0  0  0  0  0  0  0  0  0
   17.4304   70.3610   -3.5573 C   0  0  1  0  0  0  0  0  0  0  0  0
   17.5162   69.6653   -4.8993 C   0  0  2  0  0  0  0  0  0  0  0  0
   17.8646   71.7784   -3.9050 C   0  0  1  0  0  0  0  0  0  0  0  0
   17.0412   70.7518   -5.8488 C   0  0  2  0  0  0  0  0  0  0  0  0
   15.7747   69.5179   -2.8849 H   0  0  0  0  0  0  0  0  0  0  0  0
   17.0559   67.8440   -4.3329 H   0  0  0  0  0  0  0  0  0  0  0  0
   15.5864   70.6916   -8.2688 O   0  0  0  0  0  0  0  0  0  0  0  0
   19.4316   70.3245  -10.7835 O   0  0  0  0  0  0  0  0  0  0  0  0
   17.6369   70.6411   -7.1502 N   0  0  0  0  0  0  0  0  0  0  0  0
   17.5029   70.5078   -9.5189 N   0  0  0  0  0  0  0  0  0  0  0  0
   16.8163   70.6195   -8.3027 C   0  0  0  0  0  0  0  0  0  0  0  0
   19.0183   70.5571   -7.2758 C   0  0  0  0  0  0  0  0  0  0  0  0
   19.6583   70.4511   -8.4420 C   0  0  0  0  0  0  0  0  0  0  0  0
   18.8745   70.4206   -9.6942 C   0  0  0  0  0  0  0  0  0  0  0  0
   16.9526   70.4887  -10.3351 H   0  0  0  0  0  0  0  0  0  0  0  0
   22.0447   72.0936   -4.0845 O   0  0  0  0  0  0  0  0  0  0  0  0
   23.4828   72.1662   -3.3495 P   0  0  2  0  0  0  0  0  0  0  0  0
   24.3602   73.0943   -4.3440 O   0  0  0  0  0  0  0  0  0  0  0  0
   24.0925   70.8260   -3.0557 O   0  0  0  0  0  0  0  0  0  0  0  0
   23.2317   73.0871   -2.0489 O   0  0  0  0  0  0  0  0  0  0  0  0
   21.9854   72.0258   -0.3374 O   0  0  0  0  0  0  0  0  0  0  0  0
   22.1343   75.9233    1.0245 O   0  0  0  0  0  0  0  0  0  0  0  0
   21.6471   75.3593   -1.8002 O   0  0  0  0  0  0  0  0  0  0  0  0
   23.8199   73.8887    2.2368 O   0  0  0  0  0  0  0  0  0  0  0  0
   22.6096   74.7613    0.3451 C   0  0  2  0  0  0  0  0  0  0  0  0
   21.6305   74.3819   -0.7662 C   0  0  2  0  0  0  0  0  0  0  0  0
   22.7198   73.6277    1.3672 C   0  0  1  0  0  0  0  0  0  0  0  0
   21.9825   73.0188   -1.3637 C   0  0  1  0  0  0  0  0  0  0  0  0
   22.9463   72.2820    0.6845 C   0  0  1  0  0  0  0  0  0  0  0  0
   22.0562   76.6571    0.3947 H   0  0  0  0  0  0  0  0  0  0  0  0
   21.4248   76.2268   -1.4281 H   0  0  0  0  0  0  0  0  0  0  0  0
   23.6882   74.7426    2.6776 H   0  0  0  0  0  0  0  0  0  0  0  0
   21.7460   70.3326    1.1950 O   0  0  0  0  0  0  0  0  0  0  0  0
   23.3390   70.9938    2.6864 O   0  0  0  0  0  0  0  0  0  0  0  0
   22.7251   71.1571    1.6426 C   0  0  0  0  0  0  0  0  0  0  0  0
  1  4  1  0
  1 24  1  0
  1  2  1  1
  1  3  2  0
 25 28  1  0
 25 24  1  0
 25 26  1  6
 25 27  2  0
  6 11  1  0
  6 12  1  0
 29 36  1  0
 29 37  1  0
  9  7  1  6
  7 13  1  0
 10  8  1  1
  8 14  1  0
  4  5  1  0
 36 28  1  1
 33 30  1  1
 30 38  1  0
 34 31  1  6
 31 39  1  0
 35 32  1  1
 32 40  1  0
 41 43  1  0
 15 19  2  0
 42 43  2  0
 16 22  2  0
 12 17  1  6
 17 19  1  0
 17 20  1  0
 18 19  1  0
 18 22  1  0
 18 23  1  0
  9 10  1  0
  9 11  1  0
 10 12  1  0
 11  5  1  6
 33 34  1  0
 33 35  1  0
 34 36  1  0
 35 37  1  0
 37 43  1  1
 20 21  2  0
 21 22  1  0
M  CHG  3   2  -1  26  -1  41  -1
M  END
>  <COMPND>  (146) 
    udp_gluA.pdb 

>  <AUTHOR>  (146) 
    GENERATED BY OPEN BABEL 3.1.1

>  <MASTER>  (146) 
        0    0    0    0    0    0    0    0   56    0   56    0

>  <minimizedAffinity>  (146) 
-7.98245

>  <CNNscore>  (146) 
0.8504449129

>  <CNNaffinity>  (146) 
4.6135587692

>  <CNN_VS>  (146) 
3.9235775471

>  <CNNaffinity_variance>  (146) 
0.0420369096

$$$$
147
     RDKit          3D

 43 45  0  0  0  0  0  0  0  0999 V2000
   22.8923   72.1152   -3.8440 P   0  0  2  0  0  0  0  0  0  0  0  0
   23.5083   73.0427   -5.0184 O   0  0  0  0  0  0  0  0  0  0  0  0
   23.8646   71.1613   -3.2143 O   0  0  0  0  0  0  0  0  0  0  0  0
   21.5881   71.4417   -4.5247 O   0  0  0  0  0  0  0  0  0  0  0  0
   20.8832   70.4503   -3.8003 C   0  0  0  0  0  0  0  0  0  0  0  0
   18.9861   71.5998   -4.7263 O   0  0  0  0  0  0  0  0  0  0  0  0
   17.3905   70.3664   -2.5072 O   0  0  0  0  0  0  0  0  0  0  0  0
   16.7791   68.7757   -4.6361 O   0  0  0  0  0  0  0  0  0  0  0  0
   18.4813   69.8190   -3.2482 C   0  0  1  0  0  0  0  0  0  0  0  0
   18.0284   69.4344   -4.6407 C   0  0  2  0  0  0  0  0  0  0  0  0
   19.4671   70.9438   -3.5331 C   0  0  1  0  0  0  0  0  0  0  0  0
   17.9761   70.7825   -5.3390 C   0  0  2  0  0  0  0  0  0  0  0  0
   16.7472   69.6662   -2.3133 H   0  0  0  0  0  0  0  0  0  0  0  0
   16.8649   67.9230   -4.1807 H   0  0  0  0  0  0  0  0  0  0  0  0
   16.0258   70.2150   -7.3013 O   0  0  0  0  0  0  0  0  0  0  0  0
   19.1270   70.4212  -10.7048 O   0  0  0  0  0  0  0  0  0  0  0  0
   18.2465   70.6821   -6.7453 N   0  0  0  0  0  0  0  0  0  0  0  0
   17.5724   70.3172   -8.9945 N   0  0  0  0  0  0  0  0  0  0  0  0
   17.1953   70.3927   -7.6472 C   0  0  0  0  0  0  0  0  0  0  0  0
   19.5393   70.8709   -7.2183 C   0  0  0  0  0  0  0  0  0  0  0  0
   19.8834   70.7960   -8.5054 C   0  0  0  0  0  0  0  0  0  0  0  0
   18.8447   70.4967   -9.5128 C   0  0  0  0  0  0  0  0  0  0  0  0
   16.8581   70.1148   -9.6411 H   0  0  0  0  0  0  0  0  0  0  0  0
   22.2536   73.1958   -2.8256 O   0  0  0  0  0  0  0  0  0  0  0  0
   22.9499   74.1797   -1.7482 P   0  0  2  0  0  0  0  0  0  0  0  0
   22.1377   75.5673   -1.9355 O   0  0  0  0  0  0  0  0  0  0  0  0
   24.4376   74.3081   -1.9029 O   0  0  0  0  0  0  0  0  0  0  0  0
   22.4720   73.6188   -0.3130 O   0  0  0  0  0  0  0  0  0  0  0  0
   23.1135   71.4003    0.2120 O   0  0  0  0  0  0  0  0  0  0  0  0
   20.3243   72.1880    3.1561 O   0  0  0  0  0  0  0  0  0  0  0  0
   19.8482   73.0339    0.4007 O   0  0  0  0  0  0  0  0  0  0  0  0
   23.1606   72.1972    3.7932 O   0  0  0  0  0  0  0  0  0  0  0  0
   21.3584   72.5016    2.2233 C   0  0  2  0  0  0  0  0  0  0  0  0
   20.8927   72.1578    0.8082 C   0  0  2  0  0  0  0  0  0  0  0  0
   22.5938   71.6771    2.5921 C   0  0  1  0  0  0  0  0  0  0  0  0
   22.0479   72.2626   -0.1885 C   0  0  1  0  0  0  0  0  0  0  0  0
   23.6491   71.7319    1.4912 C   0  0  1  0  0  0  0  0  0  0  0  0
   19.5288   72.7003    2.9415 H   0  0  0  0  0  0  0  0  0  0  0  0
   19.1119   72.9727    1.0289 H   0  0  0  0  0  0  0  0  0  0  0  0
   22.4991   72.1682    4.5019 H   0  0  0  0  0  0  0  0  0  0  0  0
   25.3702   70.4442    0.5525 O   0  0  0  0  0  0  0  0  0  0  0  0
   24.9074   70.1109    2.7601 O   0  0  0  0  0  0  0  0  0  0  0  0
   24.6902   70.6812    1.7016 C   0  0  0  0  0  0  0  0  0  0  0  0
  1  4  1  0
  1 24  1  0
  1  2  1  6
  1  3  2  0
 25 28  1  0
 25 24  1  0
 25 26  1  6
 25 27  2  0
  6 11  1  0
  6 12  1  0
 29 36  1  0
 29 37  1  0
  9  7  1  1
  7 13  1  0
 10  8  1  1
  8 14  1  0
  4  5  1  0
 36 28  1  1
 33 30  1  1
 30 38  1  0
 34 31  1  6
 31 39  1  0
 35 32  1  1
 32 40  1  0
 41 43  1  0
 15 19  2  0
 42 43  2  0
 16 22  2  0
 12 17  1  6
 17 19  1  0
 17 20  1  0
 18 19  1  0
 18 22  1  0
 18 23  1  0
  9 10  1  0
  9 11  1  0
 10 12  1  0
 11  5  1  6
 33 34  1  0
 33 35  1  0
 34 36  1  0
 35 37  1  0
 37 43  1  1
 20 21  2  0
 21 22  1  0
M  CHG  3   2  -1  26  -1  41  -1
M  END
>  <COMPND>  (147) 
    udp_gluA.pdb 

>  <AUTHOR>  (147) 
    GENERATED BY OPEN BABEL 3.1.1

>  <MASTER>  (147) 
        0    0    0    0    0    0    0    0   56    0   56    0

>  <minimizedAffinity>  (147) 
-8.22233

>  <CNNscore>  (147) 
0.8258255124

>  <CNNaffinity>  (147) 
4.6538276672

>  <CNN_VS>  (147) 
3.8432495594

>  <CNNaffinity_variance>  (147) 
0.0305122137

$$$$
148
     RDKit          3D

 43 45  0  0  0  0  0  0  0  0999 V2000
   21.1757   72.0746   -2.0714 P   0  0  2  0  0  0  0  0  0  0  0  0
   21.8326   73.4536   -2.6057 O   0  0  0  0  0  0  0  0  0  0  0  0
   21.7094   70.8279   -2.7140 O   0  0  0  0  0  0  0  0  0  0  0  0
   19.5834   72.3177   -2.2248 O   0  0  0  0  0  0  0  0  0  0  0  0
   19.0333   72.3931   -3.5272 C   0  0  0  0  0  0  0  0  0  0  0  0
   17.1139   71.8250   -4.8578 O   0  0  0  0  0  0  0  0  0  0  0  0
   16.3523   69.9666   -2.6312 O   0  0  0  0  0  0  0  0  0  0  0  0
   17.4482   68.2765   -4.4693 O   0  0  0  0  0  0  0  0  0  0  0  0
   17.6490   70.2958   -3.1298 C   0  0  1  0  0  0  0  0  0  0  0  0
   17.8849   69.6196   -4.4637 C   0  0  2  0  0  0  0  0  0  0  0  0
   17.6439   71.7687   -3.5158 C   0  0  1  0  0  0  0  0  0  0  0  0
   17.0841   70.4988   -5.4090 C   0  0  2  0  0  0  0  0  0  0  0  0
   16.3311   69.0301   -2.3780 H   0  0  0  0  0  0  0  0  0  0  0  0
   17.9890   67.7581   -3.8523 H   0  0  0  0  0  0  0  0  0  0  0  0
   15.5714   70.2585   -7.7819 O   0  0  0  0  0  0  0  0  0  0  0  0
   19.3256   70.6338  -10.4295 O   0  0  0  0  0  0  0  0  0  0  0  0
   17.6408   70.5304   -6.7319 N   0  0  0  0  0  0  0  0  0  0  0  0
   17.4428   70.4446   -9.0982 N   0  0  0  0  0  0  0  0  0  0  0  0
   16.7933   70.4008   -7.8575 C   0  0  0  0  0  0  0  0  0  0  0  0
   19.0103   70.6898   -6.9044 C   0  0  0  0  0  0  0  0  0  0  0  0
   19.6149   70.7297   -8.0934 C   0  0  0  0  0  0  0  0  0  0  0  0
   18.8014   70.6007   -9.3202 C   0  0  0  0  0  0  0  0  0  0  0  0
   16.8738   70.3544   -9.8966 H   0  0  0  0  0  0  0  0  0  0  0  0
   21.4039   72.1591   -0.4734 O   0  0  0  0  0  0  0  0  0  0  0  0
   22.2320   71.2021    0.5326 P   0  0  2  0  0  0  0  0  0  0  0  0
   23.6814   71.0839   -0.1784 O   0  0  0  0  0  0  0  0  0  0  0  0
   21.5709   69.8834    0.8119 O   0  0  0  0  0  0  0  0  0  0  0  0
   22.4927   72.1105    1.8400 O   0  0  0  0  0  0  0  0  0  0  0  0
   21.3462   74.0082    2.6728 O   0  0  0  0  0  0  0  0  0  0  0  0
   25.2468   74.8441    3.7472 O   0  0  0  0  0  0  0  0  0  0  0  0
   24.6431   73.7205    1.1190 O   0  0  0  0  0  0  0  0  0  0  0  0
   23.3435   73.9395    5.7498 O   0  0  0  0  0  0  0  0  0  0  0  0
   24.1214   74.0105    3.4706 C   0  0  2  0  0  0  0  0  0  0  0  0
   23.6691   74.2242    2.0259 C   0  0  2  0  0  0  0  0  0  0  0  0
   23.0010   74.3912    4.4409 C   0  0  1  0  0  0  0  0  0  0  0  0
   22.3344   73.5260    1.7615 C   0  0  1  0  0  0  0  0  0  0  0  0
   21.6741   73.7548    4.0371 C   0  0  1  0  0  0  0  0  0  0  0  0
   25.9717   74.6202    3.1425 H   0  0  0  0  0  0  0  0  0  0  0  0
   25.4927   74.1590    1.2813 H   0  0  0  0  0  0  0  0  0  0  0  0
   24.1864   74.3372    6.0188 H   0  0  0  0  0  0  0  0  0  0  0  0
   19.4643   74.5376    3.9637 O   0  0  0  0  0  0  0  0  0  0  0  0
   20.5633   74.7104    5.9540 O   0  0  0  0  0  0  0  0  0  0  0  0
   20.5379   74.3821    4.7773 C   0  0  0  0  0  0  0  0  0  0  0  0
  1  4  1  0
  1 24  1  0
  1  2  1  6
  1  3  2  0
 25 28  1  0
 25 24  1  0
 25 26  1  6
 25 27  2  0
  6 11  1  0
  6 12  1  0
 29 36  1  0
 29 37  1  0
  9  7  1  6
  7 13  1  0
 10  8  1  1
  8 14  1  0
  4  5  1  0
 36 28  1  1
 33 30  1  1
 30 38  1  0
 34 31  1  6
 31 39  1  0
 35 32  1  1
 32 40  1  0
 41 43  1  0
 15 19  2  0
 42 43  2  0
 16 22  2  0
 12 17  1  6
 17 19  1  0
 17 20  1  0
 18 19  1  0
 18 22  1  0
 18 23  1  0
  9 10  1  0
  9 11  1  0
 10 12  1  0
 11  5  1  6
 33 34  1  0
 33 35  1  0
 34 36  1  0
 35 37  1  0
 37 43  1  1
 20 21  2  0
 21 22  1  0
M  CHG  3   2  -1  26  -1  41  -1
M  END
>  <COMPND>  (148) 
    udp_gluA.pdb 

>  <AUTHOR>  (148) 
    GENERATED BY OPEN BABEL 3.1.1

>  <MASTER>  (148) 
        0    0    0    0    0    0    0    0   56    0   56    0

>  <minimizedAffinity>  (148) 
-6.76663

>  <CNNscore>  (148) 
0.8045538664

>  <CNNaffinity>  (148) 
4.5277748108

>  <CNN_VS>  (148) 
3.6428387165

>  <CNNaffinity_variance>  (148) 
0.0738210008

$$$$
149
     RDKit          3D

 43 45  0  0  0  0  0  0  0  0999 V2000
   22.8562   71.6570   -2.1341 P   0  0  2  0  0  0  0  0  0  0  0  0
   22.6523   73.0728   -2.8910 O   0  0  0  0  0  0  0  0  0  0  0  0
   24.1179   70.9255   -2.4878 O   0  0  0  0  0  0  0  0  0  0  0  0
   21.4778   70.8603   -2.4223 O   0  0  0  0  0  0  0  0  0  0  0  0
   20.8264   71.0630   -3.6629 C   0  0  0  0  0  0  0  0  0  0  0  0
   18.7522   71.7990   -4.6291 O   0  0  0  0  0  0  0  0  0  0  0  0
   17.4049   70.3772   -2.3587 O   0  0  0  0  0  0  0  0  0  0  0  0
   17.1130   68.6172   -4.4210 O   0  0  0  0  0  0  0  0  0  0  0  0
   18.5826   70.0151   -3.0800 C   0  0  1  0  0  0  0  0  0  0  0  0
   18.2167   69.4976   -4.4550 C   0  0  2  0  0  0  0  0  0  0  0  0
   19.3416   71.2926   -3.4119 C   0  0  1  0  0  0  0  0  0  0  0  0
   17.9163   70.7834   -5.2062 C   0  0  2  0  0  0  0  0  0  0  0  0
   16.9032   69.5771   -2.1354 H   0  0  0  0  0  0  0  0  0  0  0  0
   17.3547   67.8143   -3.9324 H   0  0  0  0  0  0  0  0  0  0  0  0
   16.0887   69.8590   -7.1509 O   0  0  0  0  0  0  0  0  0  0  0  0
   19.1426   70.4284  -10.5558 O   0  0  0  0  0  0  0  0  0  0  0  0
   18.2076   70.6799   -6.6081 N   0  0  0  0  0  0  0  0  0  0  0  0
   17.6118   70.1425   -8.8447 N   0  0  0  0  0  0  0  0  0  0  0  0
   17.2191   70.2030   -7.5011 C   0  0  0  0  0  0  0  0  0  0  0  0
   19.4591   71.0498   -7.0856 C   0  0  0  0  0  0  0  0  0  0  0  0
   19.8186   70.9867   -8.3691 C   0  0  0  0  0  0  0  0  0  0  0  0
   18.8446   70.4985   -9.3673 C   0  0  0  0  0  0  0  0  0  0  0  0
   16.9411   69.8116   -9.4851 H   0  0  0  0  0  0  0  0  0  0  0  0
   22.7250   72.0575   -0.5736 O   0  0  0  0  0  0  0  0  0  0  0  0
   22.7766   71.1497    0.7632 P   0  0  2  0  0  0  0  0  0  0  0  0
   24.2632   70.5105    0.7190 O   0  0  0  0  0  0  0  0  0  0  0  0
   21.6715   70.1386    0.8640 O   0  0  0  0  0  0  0  0  0  0  0  0
   22.8257   72.2111    1.9770 O   0  0  0  0  0  0  0  0  0  0  0  0
   22.2820   72.5411    4.2584 O   0  0  0  0  0  0  0  0  0  0  0  0
   20.0893   75.5279    2.4310 O   0  0  0  0  0  0  0  0  0  0  0  0
   20.2175   72.8557    1.2575 O   0  0  0  0  0  0  0  0  0  0  0  0
   22.5383   76.1790    3.8557 O   0  0  0  0  0  0  0  0  0  0  0  0
   21.1890   74.6323    2.5938 C   0  0  2  0  0  0  0  0  0  0  0  0
   20.6836   73.1898    2.5597 C   0  0  2  0  0  0  0  0  0  0  0  0
   21.8486   74.9334    3.9415 C   0  0  1  0  0  0  0  0  0  0  0  0
   21.7905   72.2127    2.9584 C   0  0  1  0  0  0  0  0  0  0  0  0
   22.8490   73.8476    4.3271 C   0  0  1  0  0  0  0  0  0  0  0  0
   19.6545   75.3551    1.5811 H   0  0  0  0  0  0  0  0  0  0  0  0
   19.5152   73.4719    0.9979 H   0  0  0  0  0  0  0  0  0  0  0  0
   21.9128   76.8787    3.6107 H   0  0  0  0  0  0  0  0  0  0  0  0
   24.0561   75.0343    5.9507 O   0  0  0  0  0  0  0  0  0  0  0  0
   22.8690   73.2201    6.6567 O   0  0  0  0  0  0  0  0  0  0  0  0
   23.2368   73.9698    5.7648 C   0  0  0  0  0  0  0  0  0  0  0  0
  1  4  1  0
  1 24  1  0
  1  2  1  6
  1  3  2  0
 25 28  1  0
 25 24  1  0
 25 26  1  6
 25 27  2  0
  6 11  1  0
  6 12  1  0
 29 36  1  0
 29 37  1  0
  9  7  1  1
  7 13  1  0
 10  8  1  1
  8 14  1  0
  4  5  1  0
 36 28  1  6
 33 30  1  1
 30 38  1  0
 34 31  1  6
 31 39  1  0
 35 32  1  6
 32 40  1  0
 41 43  1  0
 15 19  2  0
 42 43  2  0
 16 22  2  0
 12 17  1  6
 17 19  1  0
 17 20  1  0
 18 19  1  0
 18 22  1  0
 18 23  1  0
  9 10  1  0
  9 11  1  0
 10 12  1  0
 11  5  1  6
 33 34  1  0
 33 35  1  0
 34 36  1  0
 35 37  1  0
 37 43  1  1
 20 21  2  0
 21 22  1  0
M  CHG  3   2  -1  26  -1  41  -1
M  END
>  <COMPND>  (149) 
    udp_gluA.pdb 

>  <AUTHOR>  (149) 
    GENERATED BY OPEN BABEL 3.1.1

>  <MASTER>  (149) 
        0    0    0    0    0    0    0    0   56    0   56    0

>  <minimizedAffinity>  (149) 
-7.53450

>  <CNNscore>  (149) 
0.8043297529

>  <CNNaffinity>  (149) 
4.6612758636

>  <CNN_VS>  (149) 
3.7492029667

>  <CNNaffinity_variance>  (149) 
0.0400202647

$$$$
150
     RDKit          3D

 43 45  0  0  0  0  0  0  0  0999 V2000
   22.7028   74.6295   -3.6269 P   0  0  2  0  0  0  0  0  0  0  0  0
   23.4079   73.4864   -2.7240 O   0  0  0  0  0  0  0  0  0  0  0  0
   23.6420   75.4352   -4.4758 O   0  0  0  0  0  0  0  0  0  0  0  0
   21.8169   75.4710   -2.5662 O   0  0  0  0  0  0  0  0  0  0  0  0
   22.0996   75.3290   -1.1862 C   0  0  0  0  0  0  0  0  0  0  0  0
   21.2577   73.3160   -0.1779 O   0  0  0  0  0  0  0  0  0  0  0  0
   19.1670   75.0487    1.0942 O   0  0  0  0  0  0  0  0  0  0  0  0
   20.9474   74.6745    3.1255 O   0  0  0  0  0  0  0  0  0  0  0  0
   20.5384   75.3390    0.8226 C   0  0  1  0  0  0  0  0  0  0  0  0
   21.4327   74.6073    1.8009 C   0  0  2  0  0  0  0  0  0  0  0  0
   20.9053   74.6789   -0.4995 C   0  0  1  0  0  0  0  0  0  0  0  0
   21.4191   73.1938    1.2442 C   0  0  2  0  0  0  0  0  0  0  0  0
   18.9094   75.4602    1.9344 H   0  0  0  0  0  0  0  0  0  0  0  0
   20.9765   75.5943    3.4341 H   0  0  0  0  0  0  0  0  0  0  0  0
   21.6759   70.3817    1.1916 O   0  0  0  0  0  0  0  0  0  0  0  0
   26.1435   70.5861    2.3062 O   0  0  0  0  0  0  0  0  0  0  0  0
   22.6379   72.4858    1.5167 N   0  0  0  0  0  0  0  0  0  0  0  0
   23.9005   70.4862    1.7478 N   0  0  0  0  0  0  0  0  0  0  0  0
   22.6599   71.0720    1.4639 C   0  0  0  0  0  0  0  0  0  0  0  0
   23.7940   73.1903    1.8301 C   0  0  0  0  0  0  0  0  0  0  0  0
   24.9692   72.6179    2.0982 C   0  0  0  0  0  0  0  0  0  0  0  0
   25.0775   71.1446    2.0652 C   0  0  0  0  0  0  0  0  0  0  0  0
   23.9401   69.5028    1.7192 H   0  0  0  0  0  0  0  0  0  0  0  0
   21.5885   73.8017   -4.4551 O   0  0  0  0  0  0  0  0  0  0  0  0
   20.4065   72.8190   -3.9543 P   0  0  2  0  0  0  0  0  0  0  0  0
   19.3388   73.8356   -3.2859 O   0  0  0  0  0  0  0  0  0  0  0  0
   20.8659   71.7178   -3.0432 O   0  0  0  0  0  0  0  0  0  0  0  0
   19.6933   72.3127   -5.3098 O   0  0  0  0  0  0  0  0  0  0  0  0
   18.6628   70.2696   -5.9203 O   0  0  0  0  0  0  0  0  0  0  0  0
   20.5063   71.3692   -9.4503 O   0  0  0  0  0  0  0  0  0  0  0  0
   21.8895   71.6845   -6.8966 O   0  0  0  0  0  0  0  0  0  0  0  0
   17.6324   71.6834   -9.1455 O   0  0  0  0  0  0  0  0  0  0  0  0
   19.8472   71.5841   -8.2023 C   0  0  2  0  0  0  0  0  0  0  0  0
   20.6738   70.9667   -7.0741 C   0  0  2  0  0  0  0  0  0  0  0  0
   18.4689   70.9233   -8.2754 C   0  0  1  0  0  0  0  0  0  0  0  0
   19.8946   70.9736   -5.7581 C   0  0  1  0  0  0  0  0  0  0  0  0
   17.8097   70.8561   -6.9008 C   0  0  1  0  0  0  0  0  0  0  0  0
   21.3847   71.7805   -9.4274 H   0  0  0  0  0  0  0  0  0  0  0  0
   22.3889   71.6843   -7.7278 H   0  0  0  0  0  0  0  0  0  0  0  0
   18.0406   71.7340  -10.0239 H   0  0  0  0  0  0  0  0  0  0  0  0
   16.7343   69.0124   -5.9283 O   0  0  0  0  0  0  0  0  0  0  0  0
   15.7094   69.9912   -7.7146 O   0  0  0  0  0  0  0  0  0  0  0  0
   16.6358   69.9320   -6.9201 C   0  0  0  0  0  0  0  0  0  0  0  0
  1  4  1  0
  1 24  1  0
  1  2  1  1
  1  3  2  0
 25 28  1  0
 25 24  1  0
 25 26  1  1
 25 27  2  0
  6 11  1  0
  6 12  1  0
 29 36  1  0
 29 37  1  0
  9  7  1  1
  7 13  1  0
 10  8  1  1
  8 14  1  0
  4  5  1  0
 36 28  1  6
 33 30  1  6
 30 38  1  0
 34 31  1  1
 31 39  1  0
 35 32  1  6
 32 40  1  0
 41 43  1  0
 15 19  2  0
 42 43  2  0
 16 22  2  0
 12 17  1  6
 17 19  1  0
 17 20  1  0
 18 19  1  0
 18 22  1  0
 18 23  1  0
  9 10  1  0
  9 11  1  0
 10 12  1  0
 11  5  1  1
 33 34  1  0
 33 35  1  0
 34 36  1  0
 35 37  1  0
 37 43  1  6
 20 21  2  0
 21 22  1  0
M  CHG  3   2  -1  26  -1  41  -1
M  END
>  <COMPND>  (150) 
    udp_gluA.pdb 

>  <AUTHOR>  (150) 
    GENERATED BY OPEN BABEL 3.1.1

>  <MASTER>  (150) 
        0    0    0    0    0    0    0    0   56    0   56    0

>  <minimizedAffinity>  (150) 
-6.53610

>  <CNNscore>  (150) 
0.7358235121

>  <CNNaffinity>  (150) 
4.5529408455

>  <CNN_VS>  (150) 
3.3501608372

>  <CNNaffinity_variance>  (150) 
0.1511870772

$$$$
151
     RDKit          3D

 43 45  0  0  0  0  0  0  0  0999 V2000
   22.1622   73.3568   -7.1208 P   0  0  2  0  0  0  0  0  0  0  0  0
   21.0756   74.5483   -6.9845 O   0  0  0  0  0  0  0  0  0  0  0  0
   23.4238   73.7294   -7.8428 O   0  0  0  0  0  0  0  0  0  0  0  0
   21.3196   72.1343   -7.7637 O   0  0  0  0  0  0  0  0  0  0  0  0
   19.9061   72.1789   -7.6977 C   0  0  0  0  0  0  0  0  0  0  0  0
   18.8725   70.0693   -7.1886 O   0  0  0  0  0  0  0  0  0  0  0  0
   18.0316   69.9982  -10.0660 O   0  0  0  0  0  0  0  0  0  0  0  0
   15.7544   70.8021   -8.7994 O   0  0  0  0  0  0  0  0  0  0  0  0
   18.1351   71.1147   -9.1822 C   0  0  1  0  0  0  0  0  0  0  0  0
   16.9917   71.1055   -8.1899 C   0  0  2  0  0  0  0  0  0  0  0  0
   19.3412   70.8899   -8.2805 C   0  0  1  0  0  0  0  0  0  0  0  0
   17.4365   70.0368   -7.2060 C   0  0  2  0  0  0  0  0  0  0  0  0
   17.2678   70.1191  -10.6522 H   0  0  0  0  0  0  0  0  0  0  0  0
   15.5150   71.5122   -9.4162 H   0  0  0  0  0  0  0  0  0  0  0  0
   16.3093   68.0557   -5.5384 O   0  0  0  0  0  0  0  0  0  0  0  0
   15.5949   71.0733   -2.1284 O   0  0  0  0  0  0  0  0  0  0  0  0
   16.9479   70.2773   -5.8777 N   0  0  0  0  0  0  0  0  0  0  0  0
   15.9536   69.5607   -3.8420 N   0  0  0  0  0  0  0  0  0  0  0  0
   16.4000   69.2127   -5.1237 C   0  0  0  0  0  0  0  0  0  0  0  0
   17.0154   71.5545   -5.3345 C   0  0  0  0  0  0  0  0  0  0  0  0
   16.5860   71.8708   -4.1113 C   0  0  0  0  0  0  0  0  0  0  0  0
   15.9991   70.8165   -3.2584 C   0  0  0  0  0  0  0  0  0  0  0  0
   15.5663   68.8366   -3.2989 H   0  0  0  0  0  0  0  0  0  0  0  0
   22.3769   72.8846   -5.5898 O   0  0  0  0  0  0  0  0  0  0  0  0
   23.2229   73.5489   -4.3829 P   0  0  2  0  0  0  0  0  0  0  0  0
   23.3409   75.1017   -4.8248 O   0  0  0  0  0  0  0  0  0  0  0  0
   24.5401   72.8808   -4.1137 O   0  0  0  0  0  0  0  0  0  0  0  0
   22.2083   73.5584   -3.1287 O   0  0  0  0  0  0  0  0  0  0  0  0
   20.3265   72.2605   -3.7479 O   0  0  0  0  0  0  0  0  0  0  0  0
   19.3519   73.3665    0.1115 O   0  0  0  0  0  0  0  0  0  0  0  0
   20.5529   75.2965   -1.7235 O   0  0  0  0  0  0  0  0  0  0  0  0
   20.2657   70.6635   -0.4451 O   0  0  0  0  0  0  0  0  0  0  0  0
   20.2244   73.0163   -0.9628 C   0  0  2  0  0  0  0  0  0  0  0  0
   20.0573   74.0185   -2.1052 C   0  0  2  0  0  0  0  0  0  0  0  0
   19.8545   71.6075   -1.4322 C   0  0  1  0  0  0  0  0  0  0  0  0
   20.8003   73.5498   -3.3571 C   0  0  1  0  0  0  0  0  0  0  0  0
   20.5387   71.2625   -2.7519 C   0  0  1  0  0  0  0  0  0  0  0  0
   19.5682   74.2584    0.4263 H   0  0  0  0  0  0  0  0  0  0  0  0
   20.0860   75.5999   -0.9295 H   0  0  0  0  0  0  0  0  0  0  0  0
   19.8374   70.8720    0.3998 H   0  0  0  0  0  0  0  0  0  0  0  0
   18.8806   69.6087   -2.6198 O   0  0  0  0  0  0  0  0  0  0  0  0
   20.3120   69.5072   -4.3918 O   0  0  0  0  0  0  0  0  0  0  0  0
   19.9282   70.0435   -3.3631 C   0  0  0  0  0  0  0  0  0  0  0  0
  1  4  1  0
  1 24  1  0
  1  2  1  1
  1  3  2  0
 25 28  1  0
 25 24  1  0
 25 26  1  6
 25 27  2  0
  6 11  1  0
  6 12  1  0
 29 36  1  0
 29 37  1  0
  9  7  1  6
  7 13  1  0
 10  8  1  6
  8 14  1  0
  4  5  1  0
 36 28  1  1
 33 30  1  1
 30 38  1  0
 34 31  1  1
 31 39  1  0
 35 32  1  1
 32 40  1  0
 41 43  1  0
 15 19  2  0
 42 43  2  0
 16 22  2  0
 12 17  1  1
 17 19  1  0
 17 20  1  0
 18 19  1  0
 18 22  1  0
 18 23  1  0
  9 10  1  0
  9 11  1  0
 10 12  1  0
 11  5  1  1
 33 34  1  0
 33 35  1  0
 34 36  1  0
 35 37  1  0
 37 43  1  6
 20 21  2  0
 21 22  1  0
M  CHG  3   2  -1  26  -1  41  -1
M  END
>  <COMPND>  (151) 
    udp_gluA.pdb 

>  <AUTHOR>  (151) 
    GENERATED BY OPEN BABEL 3.1.1

>  <MASTER>  (151) 
        0    0    0    0    0    0    0    0   56    0   56    0

>  <minimizedAffinity>  (151) 
-7.48169

>  <CNNscore>  (151) 
0.6952092648

>  <CNNaffinity>  (151) 
4.4748239517

>  <CNN_VS>  (151) 
3.1109390259

>  <CNNaffinity_variance>  (151) 
0.5952417254

$$$$
152
     RDKit          3D

 43 45  0  0  0  0  0  0  0  0999 V2000
   23.5877   72.8821   -3.4998 P   0  0  2  0  0  0  0  0  0  0  0  0
   23.9164   71.3240   -3.2114 O   0  0  0  0  0  0  0  0  0  0  0  0
   24.6731   73.6380   -4.2085 O   0  0  0  0  0  0  0  0  0  0  0  0
   23.1572   73.4627   -2.0522 O   0  0  0  0  0  0  0  0  0  0  0  0
   22.2116   74.5150   -1.9998 C   0  0  0  0  0  0  0  0  0  0  0  0
   21.3219   72.7907   -0.5810 O   0  0  0  0  0  0  0  0  0  0  0  0
   19.2441   74.7927    0.2353 O   0  0  0  0  0  0  0  0  0  0  0  0
   20.9903   74.8589    2.3288 O   0  0  0  0  0  0  0  0  0  0  0  0
   20.6238   74.9960   -0.0710 C   0  0  1  0  0  0  0  0  0  0  0  0
   21.4922   74.4900    1.0613 C   0  0  2  0  0  0  0  0  0  0  0  0
   20.9972   74.0516   -1.2054 C   0  0  1  0  0  0  0  0  0  0  0  0
   21.4620   72.9881    0.8349 C   0  0  2  0  0  0  0  0  0  0  0  0
   18.9822   75.3854    0.9577 H   0  0  0  0  0  0  0  0  0  0  0  0
   21.0309   75.8239    2.4242 H   0  0  0  0  0  0  0  0  0  0  0  0
   21.7498   70.1966    1.1530 O   0  0  0  0  0  0  0  0  0  0  0  0
   26.1223   70.6224    2.5473 O   0  0  0  0  0  0  0  0  0  0  0  0
   22.6647   72.3426    1.2796 N   0  0  0  0  0  0  0  0  0  0  0  0
   23.9270   70.4114    1.8481 N   0  0  0  0  0  0  0  0  0  0  0  0
   22.7045   70.9339    1.4059 C   0  0  0  0  0  0  0  0  0  0  0  0
   23.7879   73.1023    1.5836 C   0  0  0  0  0  0  0  0  0  0  0  0
   24.9461   72.5900    2.0039 C   0  0  0  0  0  0  0  0  0  0  0  0
   25.0712   71.1263    2.1633 C   0  0  0  0  0  0  0  0  0  0  0  0
   23.9783   69.4331    1.9457 H   0  0  0  0  0  0  0  0  0  0  0  0
   22.1830   72.8151   -4.2967 O   0  0  0  0  0  0  0  0  0  0  0  0
   21.8124   73.1814   -5.8271 P   0  0  2  0  0  0  0  0  0  0  0  0
   22.8965   72.3368   -6.6825 O   0  0  0  0  0  0  0  0  0  0  0  0
   21.8023   74.6533   -6.1229 O   0  0  0  0  0  0  0  0  0  0  0  0
   20.4085   72.4344   -6.0983 O   0  0  0  0  0  0  0  0  0  0  0  0
   19.7114   70.2585   -5.4749 O   0  0  0  0  0  0  0  0  0  0  0  0
   17.6649   70.8132   -9.0206 O   0  0  0  0  0  0  0  0  0  0  0  0
   20.4493   71.6608   -8.7697 O   0  0  0  0  0  0  0  0  0  0  0  0
   16.2638   71.0093   -6.4811 O   0  0  0  0  0  0  0  0  0  0  0  0
   18.2751   71.2096   -7.7924 C   0  0  2  0  0  0  0  0  0  0  0  0
   19.7616   70.8534   -7.8211 C   0  0  2  0  0  0  0  0  0  0  0  0
   17.5718   70.4674   -6.6538 C   0  0  1  0  0  0  0  0  0  0  0  0
   20.3982   71.0507   -6.4446 C   0  0  1  0  0  0  0  0  0  0  0  0
   18.3359   70.6093   -5.3406 C   0  0  1  0  0  0  0  0  0  0  0  0
   18.0957   71.2723   -9.7588 H   0  0  0  0  0  0  0  0  0  0  0  0
   20.0505   71.5408   -9.6454 H   0  0  0  0  0  0  0  0  0  0  0  0
   15.7670   70.9253   -7.3099 H   0  0  0  0  0  0  0  0  0  0  0  0
   16.4875   69.7000   -4.2189 O   0  0  0  0  0  0  0  0  0  0  0  0
   18.5414   68.8662   -3.6850 O   0  0  0  0  0  0  0  0  0  0  0  0
   17.8373   69.6301   -4.3282 C   0  0  0  0  0  0  0  0  0  0  0  0
  1  4  1  0
  1 24  1  0
  1  2  1  1
  1  3  2  0
 25 28  1  0
 25 24  1  0
 25 26  1  6
 25 27  2  0
  6 11  1  0
  6 12  1  0
 29 36  1  0
 29 37  1  0
  9  7  1  1
  7 13  1  0
 10  8  1  1
  8 14  1  0
  4  5  1  0
 36 28  1  1
 33 30  1  6
 30 38  1  0
 34 31  1  6
 31 39  1  0
 35 32  1  1
 32 40  1  0
 41 43  1  0
 15 19  2  0
 42 43  2  0
 16 22  2  0
 12 17  1  6
 17 19  1  0
 17 20  1  0
 18 19  1  0
 18 22  1  0
 18 23  1  0
  9 10  1  0
  9 11  1  0
 10 12  1  0
 11  5  1  1
 33 34  1  0
 33 35  1  0
 34 36  1  0
 35 37  1  0
 37 43  1  1
 20 21  2  0
 21 22  1  0
M  CHG  3   2  -1  26  -1  41  -1
M  END
>  <COMPND>  (152) 
    udp_gluA.pdb 

>  <AUTHOR>  (152) 
    GENERATED BY OPEN BABEL 3.1.1

>  <MASTER>  (152) 
        0    0    0    0    0    0    0    0   56    0   56    0

>  <minimizedAffinity>  (152) 
-7.61881

>  <CNNscore>  (152) 
0.6516093612

>  <CNNaffinity>  (152) 
4.5263724327

>  <CNN_VS>  (152) 
2.9494266510

>  <CNNaffinity_variance>  (152) 
0.0446001068

$$$$
153
     RDKit          3D

 43 45  0  0  0  0  0  0  0  0999 V2000
   23.1084   73.3777   -4.5542 P   0  0  2  0  0  0  0  0  0  0  0  0
   24.2307   72.3021   -4.1043 O   0  0  0  0  0  0  0  0  0  0  0  0
   23.6456   74.7102   -4.9875 O   0  0  0  0  0  0  0  0  0  0  0  0
   22.0770   73.4074   -3.3079 O   0  0  0  0  0  0  0  0  0  0  0  0
   22.5949   73.2630   -1.9981 C   0  0  0  0  0  0  0  0  0  0  0  0
   23.3698   71.3694   -0.7366 O   0  0  0  0  0  0  0  0  0  0  0  0
   20.4852   70.5880   -0.4909 O   0  0  0  0  0  0  0  0  0  0  0  0
   21.0027   71.7262    1.9324 O   0  0  0  0  0  0  0  0  0  0  0  0
   21.0718   71.8897   -0.4926 C   0  0  1  0  0  0  0  0  0  0  0  0
   21.7693   72.1519    0.8254 C   0  0  2  0  0  0  0  0  0  0  0  0
   22.2367   71.8787   -1.4729 C   0  0  1  0  0  0  0  0  0  0  0  0
   23.0552   71.3590    0.6649 C   0  0  2  0  0  0  0  0  0  0  0  0
   19.7383   70.5703    0.1284 H   0  0  0  0  0  0  0  0  0  0  0  0
   20.1952   72.2615    1.9915 H   0  0  0  0  0  0  0  0  0  0  0  0
   24.9315   69.8745    2.1657 O   0  0  0  0  0  0  0  0  0  0  0  0
   27.2120   73.6786    3.4195 O   0  0  0  0  0  0  0  0  0  0  0  0
   24.1493   71.9361    1.3934 N   0  0  0  0  0  0  0  0  0  0  0  0
   26.0649   71.7707    2.7896 N   0  0  0  0  0  0  0  0  0  0  0  0
   25.0349   71.1016    2.1155 C   0  0  0  0  0  0  0  0  0  0  0  0
   24.3377   73.3129    1.3865 C   0  0  0  0  0  0  0  0  0  0  0  0
   25.3243   73.9361    2.0338 C   0  0  0  0  0  0  0  0  0  0  0  0
   26.2927   73.1371    2.8130 C   0  0  0  0  0  0  0  0  0  0  0  0
   26.6929   71.2108    3.3010 H   0  0  0  0  0  0  0  0  0  0  0  0
   22.2801   72.5832   -5.6925 O   0  0  0  0  0  0  0  0  0  0  0  0
   21.1819   73.0992   -6.7608 P   0  0  2  0  0  0  0  0  0  0  0  0
   21.7071   72.4783   -8.1604 O   0  0  0  0  0  0  0  0  0  0  0  0
   20.9914   74.5883   -6.7776 O   0  0  0  0  0  0  0  0  0  0  0  0
   19.8492   72.2577   -6.4166 O   0  0  0  0  0  0  0  0  0  0  0  0
   19.5579   70.0953   -5.4955 O   0  0  0  0  0  0  0  0  0  0  0  0
   16.3726   70.3290   -8.1160 O   0  0  0  0  0  0  0  0  0  0  0  0
   19.0077   71.3198   -8.8962 O   0  0  0  0  0  0  0  0  0  0  0  0
   15.9343   70.6194   -5.2569 O   0  0  0  0  0  0  0  0  0  0  0  0
   17.3449   70.8302   -7.1987 C   0  0  2  0  0  0  0  0  0  0  0  0
   18.7483   70.5426   -7.7328 C   0  0  2  0  0  0  0  0  0  0  0  0
   17.1328   70.1292   -5.8550 C   0  0  1  0  0  0  0  0  0  0  0  0
   19.8100   70.8559   -6.6777 C   0  0  1  0  0  0  0  0  0  0  0  0
   18.2955   70.3893   -4.9015 C   0  0  1  0  0  0  0  0  0  0  0  0
   16.4879   70.7602   -8.9774 H   0  0  0  0  0  0  0  0  0  0  0  0
   18.3376   71.1263   -9.5699 H   0  0  0  0  0  0  0  0  0  0  0  0
   15.1865   70.4602   -5.8538 H   0  0  0  0  0  0  0  0  0  0  0  0
   19.1484   69.8175   -2.7926 O   0  0  0  0  0  0  0  0  0  0  0  0
   17.4982   68.4924   -3.6413 O   0  0  0  0  0  0  0  0  0  0  0  0
   18.2464   69.4537   -3.7376 C   0  0  0  0  0  0  0  0  0  0  0  0
  1  4  1  0
  1 24  1  0
  1  2  1  1
  1  3  2  0
 25 28  1  0
 25 24  1  0
 25 26  1  6
 25 27  2  0
  6 11  1  0
  6 12  1  0
 29 36  1  0
 29 37  1  0
  9  7  1  1
  7 13  1  0
 10  8  1  1
  8 14  1  0
  4  5  1  0
 36 28  1  1
 33 30  1  6
 30 38  1  0
 34 31  1  6
 31 39  1  0
 35 32  1  1
 32 40  1  0
 41 43  1  0
 15 19  2  0
 42 43  2  0
 16 22  2  0
 12 17  1  1
 17 19  1  0
 17 20  1  0
 18 19  1  0
 18 22  1  0
 18 23  1  0
  9 10  1  0
  9 11  1  0
 10 12  1  0
 11  5  1  1
 33 34  1  0
 33 35  1  0
 34 36  1  0
 35 37  1  0
 37 43  1  1
 20 21  2  0
 21 22  1  0
M  CHG  3   2  -1  26  -1  41  -1
M  END
>  <COMPND>  (153) 
    udp_gluA.pdb 

>  <AUTHOR>  (153) 
    GENERATED BY OPEN BABEL 3.1.1

>  <MASTER>  (153) 
        0    0    0    0    0    0    0    0   56    0   56    0

>  <minimizedAffinity>  (153) 
-7.89901

>  <CNNscore>  (153) 
0.6346136332

>  <CNNaffinity>  (153) 
4.5047726631

>  <CNN_VS>  (153) 
2.8587901592

>  <CNNaffinity_variance>  (153) 
0.0522388145

$$$$
154
     RDKit          3D

 43 45  0  0  0  0  0  0  0  0999 V2000
   21.8259   72.4224   -5.6692 P   0  0  2  0  0  0  0  0  0  0  0  0
   21.1542   73.8396   -5.2703 O   0  0  0  0  0  0  0  0  0  0  0  0
   23.0478   72.5216   -6.5347 O   0  0  0  0  0  0  0  0  0  0  0  0
   20.5965   71.5692   -6.2845 O   0  0  0  0  0  0  0  0  0  0  0  0
   20.0718   71.9507   -7.5430 C   0  0  0  0  0  0  0  0  0  0  0  0
   18.8227   69.9359   -7.1453 O   0  0  0  0  0  0  0  0  0  0  0  0
   18.0855   70.0407  -10.0499 O   0  0  0  0  0  0  0  0  0  0  0  0
   15.8507   71.0200   -8.8323 O   0  0  0  0  0  0  0  0  0  0  0  0
   18.2629   71.1125   -9.1235 C   0  0  1  0  0  0  0  0  0  0  0  0
   17.0881   71.1819   -8.1710 C   0  0  2  0  0  0  0  0  0  0  0  0
   19.4079   70.7423   -8.1906 C   0  0  1  0  0  0  0  0  0  0  0  0
   17.3919   70.0435   -7.2120 C   0  0  2  0  0  0  0  0  0  0  0  0
   17.3589   70.2543  -10.6567 H   0  0  0  0  0  0  0  0  0  0  0  0
   15.7035   71.7698   -9.4308 H   0  0  0  0  0  0  0  0  0  0  0  0
   16.4005   68.0358   -5.4907 O   0  0  0  0  0  0  0  0  0  0  0  0
   15.4526   71.0921   -2.1734 O   0  0  0  0  0  0  0  0  0  0  0  0
   16.8799   70.2868   -5.8931 N   0  0  0  0  0  0  0  0  0  0  0  0
   15.9284   69.5601   -3.8406 N   0  0  0  0  0  0  0  0  0  0  0  0
   16.4056   69.2079   -5.1099 C   0  0  0  0  0  0  0  0  0  0  0  0
   16.8526   71.5808   -5.3874 C   0  0  0  0  0  0  0  0  0  0  0  0
   16.3948   71.9009   -4.1755 C   0  0  0  0  0  0  0  0  0  0  0  0
   15.8804   70.8323   -3.2940 C   0  0  0  0  0  0  0  0  0  0  0  0
   15.5910   68.8261   -3.2777 H   0  0  0  0  0  0  0  0  0  0  0  0
   22.0726   71.7209   -4.2339 O   0  0  0  0  0  0  0  0  0  0  0  0
   23.2492   71.9203   -3.1433 P   0  0  2  0  0  0  0  0  0  0  0  0
   23.9128   73.3340   -3.5694 O   0  0  0  0  0  0  0  0  0  0  0  0
   24.2208   70.7782   -3.0700 O   0  0  0  0  0  0  0  0  0  0  0  0
   22.4777   72.2328   -1.7614 O   0  0  0  0  0  0  0  0  0  0  0  0
   23.1102   70.6734   -0.0948 O   0  0  0  0  0  0  0  0  0  0  0  0
   20.2247   72.8814    1.8715 O   0  0  0  0  0  0  0  0  0  0  0  0
   19.8344   72.0777   -0.9098 O   0  0  0  0  0  0  0  0  0  0  0  0
   23.0390   73.2954    2.4708 O   0  0  0  0  0  0  0  0  0  0  0  0
   21.2872   72.6569    0.9449 C   0  0  2  0  0  0  0  0  0  0  0  0
   20.8686   71.5874   -0.0643 C   0  0  2  0  0  0  0  0  0  0  0  0
   22.5131   72.1927    1.7346 C   0  0  1  0  0  0  0  0  0  0  0  0
   22.0548   71.1555   -0.9275 C   0  0  1  0  0  0  0  0  0  0  0  0
   23.6031   71.6600    0.8089 C   0  0  1  0  0  0  0  0  0  0  0  0
   19.4346   73.1772    1.3924 H   0  0  0  0  0  0  0  0  0  0  0  0
   19.0786   72.3538   -0.3687 H   0  0  0  0  0  0  0  0  0  0  0  0
   22.3551   73.6439    3.0638 H   0  0  0  0  0  0  0  0  0  0  0  0
   24.2085   70.6662    2.8454 O   0  0  0  0  0  0  0  0  0  0  0  0
   25.7302   70.5736    1.1499 O   0  0  0  0  0  0  0  0  0  0  0  0
   24.6408   70.9159    1.5846 C   0  0  0  0  0  0  0  0  0  0  0  0
  1  4  1  0
  1 24  1  0
  1  2  1  1
  1  3  2  0
 25 28  1  0
 25 24  1  0
 25 26  1  6
 25 27  2  0
  6 11  1  0
  6 12  1  0
 29 36  1  0
 29 37  1  0
  9  7  1  6
  7 13  1  0
 10  8  1  6
  8 14  1  0
  4  5  1  0
 36 28  1  1
 33 30  1  1
 30 38  1  0
 34 31  1  6
 31 39  1  0
 35 32  1  6
 32 40  1  0
 41 43  1  0
 15 19  2  0
 42 43  2  0
 16 22  2  0
 12 17  1  1
 17 19  1  0
 17 20  1  0
 18 19  1  0
 18 22  1  0
 18 23  1  0
  9 10  1  0
  9 11  1  0
 10 12  1  0
 11  5  1  1
 33 34  1  0
 33 35  1  0
 34 36  1  0
 35 37  1  0
 37 43  1  1
 20 21  2  0
 21 22  1  0
M  CHG  3   2  -1  26  -1  41  -1
M  END
>  <COMPND>  (154) 
    udp_gluA.pdb 

>  <AUTHOR>  (154) 
    GENERATED BY OPEN BABEL 3.1.1

>  <MASTER>  (154) 
        0    0    0    0    0    0    0    0   56    0   56    0

>  <minimizedAffinity>  (154) 
-8.48470

>  <CNNscore>  (154) 
0.6301553249

>  <CNNaffinity>  (154) 
4.4235692024

>  <CNN_VS>  (154) 
2.7875356674

>  <CNNaffinity_variance>  (154) 
0.2671236396

$$$$
155
     RDKit          3D

 43 45  0  0  0  0  0  0  0  0999 V2000
   20.4810   72.0395   -0.8922 P   0  0  2  0  0  0  0  0  0  0  0  0
   20.7820   70.6269   -0.1623 O   0  0  0  0  0  0  0  0  0  0  0  0
   19.5376   72.9448   -0.1558 O   0  0  0  0  0  0  0  0  0  0  0  0
   20.0260   71.6158   -2.3860 O   0  0  0  0  0  0  0  0  0  0  0  0
   20.2832   72.5124   -3.4511 C   0  0  0  0  0  0  0  0  0  0  0  0
   20.7087   70.9102   -5.1916 O   0  0  0  0  0  0  0  0  0  0  0  0
   23.2410   72.4286   -5.7143 O   0  0  0  0  0  0  0  0  0  0  0  0
   21.5901   73.3246   -7.6911 O   0  0  0  0  0  0  0  0  0  0  0  0
   21.9584   72.9182   -5.3223 C   0  0  1  0  0  0  0  0  0  0  0  0
   20.9987   72.8692   -6.4923 C   0  0  2  0  0  0  0  0  0  0  0  0
   21.3432   71.9084   -4.3631 C   0  0  1  0  0  0  0  0  0  0  0  0
   20.6370   71.3945   -6.5420 C   0  0  2  0  0  0  0  0  0  0  0  0
   23.6538   73.0572   -6.3276 H   0  0  0  0  0  0  0  0  0  0  0  0
   21.8015   74.2683   -7.6092 H   0  0  0  0  0  0  0  0  0  0  0  0
   20.0058   69.5866   -8.6180 O   0  0  0  0  0  0  0  0  0  0  0  0
   15.5197   70.6222   -8.4031 O   0  0  0  0  0  0  0  0  0  0  0  0
   19.3122   71.1719   -7.0482 N   0  0  0  0  0  0  0  0  0  0  0  0
   17.7722   70.1049   -8.5097 N   0  0  0  0  0  0  0  0  0  0  0  0
   19.1031   70.2416   -8.0935 C   0  0  0  0  0  0  0  0  0  0  0  0
   18.2377   71.8692   -6.5095 C   0  0  0  0  0  0  0  0  0  0  0  0
   16.9747   71.7281   -6.9166 C   0  0  0  0  0  0  0  0  0  0  0  0
   16.6704   70.7765   -8.0052 C   0  0  0  0  0  0  0  0  0  0  0  0
   17.6020   69.4643   -9.2377 H   0  0  0  0  0  0  0  0  0  0  0  0
   21.9594   72.6513   -1.1225 O   0  0  0  0  0  0  0  0  0  0  0  0
   23.2568   72.6834   -0.1585 P   0  0  2  0  0  0  0  0  0  0  0  0
   24.0981   73.9505   -0.7127 O   0  0  0  0  0  0  0  0  0  0  0  0
   24.0290   71.3965   -0.1222 O   0  0  0  0  0  0  0  0  0  0  0  0
   22.6909   73.1652    1.2734 O   0  0  0  0  0  0  0  0  0  0  0  0
   24.1335   72.8229    3.1202 O   0  0  0  0  0  0  0  0  0  0  0  0
   20.5835   73.7964    4.9957 O   0  0  0  0  0  0  0  0  0  0  0  0
   20.5965   72.0045    2.6884 O   0  0  0  0  0  0  0  0  0  0  0  0
   22.7318   75.7483    4.8346 O   0  0  0  0  0  0  0  0  0  0  0  0
   21.5613   73.8343    3.9562 C   0  0  2  0  0  0  0  0  0  0  0  0
   21.7601   72.4284    3.3891 C   0  0  2  0  0  0  0  0  0  0  0  0
   22.8689   74.3562    4.5558 C   0  0  1  0  0  0  0  0  0  0  0  0
   22.9571   72.3863    2.4383 C   0  0  1  0  0  0  0  0  0  0  0  0
   24.0383   74.1641    3.5945 C   0  0  1  0  0  0  0  0  0  0  0  0
   19.7437   73.4677    4.6380 H   0  0  0  0  0  0  0  0  0  0  0  0
   19.8330   72.0291    3.2857 H   0  0  0  0  0  0  0  0  0  0  0  0
   21.9906   75.8843    5.4453 H   0  0  0  0  0  0  0  0  0  0  0  0
   25.1495   74.4938    5.6337 O   0  0  0  0  0  0  0  0  0  0  0  0
   26.4339   74.4054    3.7518 O   0  0  0  0  0  0  0  0  0  0  0  0
   25.3414   74.3646    4.2975 C   0  0  0  0  0  0  0  0  0  0  0  0
  1  4  1  0
  1 24  1  0
  1  2  1  1
  1  3  2  0
 25 28  1  0
 25 24  1  0
 25 26  1  6
 25 27  2  0
  6 11  1  0
  6 12  1  0
 29 36  1  0
 29 37  1  0
  9  7  1  6
  7 13  1  0
 10  8  1  6
  8 14  1  0
  4  5  1  0
 36 28  1  6
 33 30  1  1
 30 38  1  0
 34 31  1  6
 31 39  1  0
 35 32  1  6
 32 40  1  0
 41 43  1  0
 15 19  2  0
 42 43  2  0
 16 22  2  0
 12 17  1  1
 17 19  1  0
 17 20  1  0
 18 19  1  0
 18 22  1  0
 18 23  1  0
  9 10  1  0
  9 11  1  0
 10 12  1  0
 11  5  1  1
 33 34  1  0
 33 35  1  0
 34 36  1  0
 35 37  1  0
 37 43  1  1
 20 21  2  0
 21 22  1  0
M  CHG  3   2  -1  26  -1  41  -1
M  END
>  <COMPND>  (155) 
    udp_gluA.pdb 

>  <AUTHOR>  (155) 
    GENERATED BY OPEN BABEL 3.1.1

>  <MASTER>  (155) 
        0    0    0    0    0    0    0    0   56    0   56    0

>  <minimizedAffinity>  (155) 
-6.94192

>  <CNNscore>  (155) 
0.6207202077

>  <CNNaffinity>  (155) 
4.2516822815

>  <CNN_VS>  (155) 
2.6391050816

>  <CNNaffinity_variance>  (155) 
0.0377861522

$$$$
156
     RDKit          3D

 43 45  0  0  0  0  0  0  0  0999 V2000
   23.4875   71.8663   -3.2242 P   0  0  2  0  0  0  0  0  0  0  0  0
   24.1794   72.9549   -4.2015 O   0  0  0  0  0  0  0  0  0  0  0  0
   24.2629   70.5944   -3.0429 O   0  0  0  0  0  0  0  0  0  0  0  0
   21.9941   71.6994   -3.8240 O   0  0  0  0  0  0  0  0  0  0  0  0
   21.5800   72.5717   -4.8594 C   0  0  0  0  0  0  0  0  0  0  0  0
   20.6999   70.5835   -5.8842 O   0  0  0  0  0  0  0  0  0  0  0  0
   21.0939   71.9844   -8.5059 O   0  0  0  0  0  0  0  0  0  0  0  0
   18.4198   72.2858   -8.0653 O   0  0  0  0  0  0  0  0  0  0  0  0
   20.6963   72.5226   -7.2446 C   0  0  1  0  0  0  0  0  0  0  0  0
   19.2626   72.1425   -6.9411 C   0  0  2  0  0  0  0  0  0  0  0  0
   21.4598   71.7810   -6.1558 C   0  0  1  0  0  0  0  0  0  0  0  0
   19.4065   70.6963   -6.4988 C   0  0  2  0  0  0  0  0  0  0  0  0
   20.6192   72.4427   -9.2175 H   0  0  0  0  0  0  0  0  0  0  0  0
   18.3605   73.2238   -8.3073 H   0  0  0  0  0  0  0  0  0  0  0  0
   16.8121   69.8173   -7.1863 O   0  0  0  0  0  0  0  0  0  0  0  0
   15.6365   69.2460   -2.7663 O   0  0  0  0  0  0  0  0  0  0  0  0
   18.4024   70.3116   -5.5477 N   0  0  0  0  0  0  0  0  0  0  0  0
   16.2287   69.5346   -4.9842 N   0  0  0  0  0  0  0  0  0  0  0  0
   17.1305   69.8850   -5.9976 C   0  0  0  0  0  0  0  0  0  0  0  0
   18.6820   70.3572   -4.1873 C   0  0  0  0  0  0  0  0  0  0  0  0
   17.8121   70.0200   -3.2331 C   0  0  0  0  0  0  0  0  0  0  0  0
   16.4604   69.5641   -3.6186 C   0  0  0  0  0  0  0  0  0  0  0  0
   15.3359   69.2364   -5.2729 H   0  0  0  0  0  0  0  0  0  0  0  0
   23.2413   72.7044   -1.8641 O   0  0  0  0  0  0  0  0  0  0  0  0
   21.9994   72.7071   -0.8291 P   0  0  2  0  0  0  0  0  0  0  0  0
   21.6064   71.1406   -0.7189 O   0  0  0  0  0  0  0  0  0  0  0  0
   20.8638   73.6026   -1.2321 O   0  0  0  0  0  0  0  0  0  0  0  0
   22.6582   73.0630    0.5998 O   0  0  0  0  0  0  0  0  0  0  0  0
   24.3911   72.1135    1.9054 O   0  0  0  0  0  0  0  0  0  0  0  0
   21.6200   73.1285    4.7966 O   0  0  0  0  0  0  0  0  0  0  0  0
   20.7594   71.9196    2.2801 O   0  0  0  0  0  0  0  0  0  0  0  0
   24.0093   74.7443    4.4344 O   0  0  0  0  0  0  0  0  0  0  0  0
   22.3226   73.2619    3.5611 C   0  0  2  0  0  0  0  0  0  0  0  0
   22.1117   72.0065    2.7143 C   0  0  2  0  0  0  0  0  0  0  0  0
   23.8081   73.4458    3.8794 C   0  0  1  0  0  0  0  0  0  0  0  0
   23.0284   72.0119    1.4902 C   0  0  1  0  0  0  0  0  0  0  0  0
   24.6672   73.3130    2.6252 C   0  0  1  0  0  0  0  0  0  0  0  0
   20.6734   73.0104    4.6193 H   0  0  0  0  0  0  0  0  0  0  0  0
   20.1722   71.9160    3.0518 H   0  0  0  0  0  0  0  0  0  0  0  0
   23.4679   74.8419    5.2333 H   0  0  0  0  0  0  0  0  0  0  0  0
   26.5444   71.9092    2.7104 O   0  0  0  0  0  0  0  0  0  0  0  0
   26.8099   74.0475    3.4563 O   0  0  0  0  0  0  0  0  0  0  0  0
   26.1100   73.1644    2.9838 C   0  0  0  0  0  0  0  0  0  0  0  0
  1  4  1  0
  1 24  1  0
  1  2  1  6
  1  3  2  0
 25 28  1  0
 25 24  1  0
 25 26  1  1
 25 27  2  0
  6 11  1  0
  6 12  1  0
 29 36  1  0
 29 37  1  0
  9  7  1  6
  7 13  1  0
 10  8  1  6
  8 14  1  0
  4  5  1  0
 36 28  1  6
 33 30  1  1
 30 38  1  0
 34 31  1  6
 31 39  1  0
 35 32  1  6
 32 40  1  0
 41 43  1  0
 15 19  2  0
 42 43  2  0
 16 22  2  0
 12 17  1  1
 17 19  1  0
 17 20  1  0
 18 19  1  0
 18 22  1  0
 18 23  1  0
  9 10  1  0
  9 11  1  0
 10 12  1  0
 11  5  1  1
 33 34  1  0
 33 35  1  0
 34 36  1  0
 35 37  1  0
 37 43  1  1
 20 21  2  0
 21 22  1  0
M  CHG  3   2  -1  26  -1  41  -1
M  END
>  <COMPND>  (156) 
    udp_gluA.pdb 

>  <AUTHOR>  (156) 
    GENERATED BY OPEN BABEL 3.1.1

>  <MASTER>  (156) 
        0    0    0    0    0    0    0    0   56    0   56    0

>  <minimizedAffinity>  (156) 
-7.80910

>  <CNNscore>  (156) 
0.6029461026

>  <CNNaffinity>  (156) 
4.3259177208

>  <CNN_VS>  (156) 
2.6082952023

>  <CNNaffinity_variance>  (156) 
0.1168941259

$$$$
157
     RDKit          3D

 43 45  0  0  0  0  0  0  0  0999 V2000
   21.6661   72.9188   -5.7919 P   0  0  2  0  0  0  0  0  0  0  0  0
   21.3699   74.3067   -6.5696 O   0  0  0  0  0  0  0  0  0  0  0  0
   23.0884   72.4453   -5.8602 O   0  0  0  0  0  0  0  0  0  0  0  0
   20.5570   71.8988   -6.3815 O   0  0  0  0  0  0  0  0  0  0  0  0
   19.9852   72.1790   -7.6460 C   0  0  0  0  0  0  0  0  0  0  0  0
   18.9321   70.0774   -7.1440 O   0  0  0  0  0  0  0  0  0  0  0  0
   18.1341   69.9991  -10.0334 O   0  0  0  0  0  0  0  0  0  0  0  0
   15.8428   70.8210   -8.8045 O   0  0  0  0  0  0  0  0  0  0  0  0
   18.2307   71.1186   -9.1527 C   0  0  1  0  0  0  0  0  0  0  0  0
   17.0725   71.1199   -8.1776 C   0  0  2  0  0  0  0  0  0  0  0  0
   19.4219   70.8907   -8.2321 C   0  0  1  0  0  0  0  0  0  0  0  0
   17.4964   70.0529   -7.1829 C   0  0  2  0  0  0  0  0  0  0  0  0
   17.3799   70.1219  -10.6315 H   0  0  0  0  0  0  0  0  0  0  0  0
   15.6168   71.5299   -9.4277 H   0  0  0  0  0  0  0  0  0  0  0  0
   16.3617   68.0786   -5.5122 O   0  0  0  0  0  0  0  0  0  0  0  0
   15.5833   71.1209   -2.1384 O   0  0  0  0  0  0  0  0  0  0  0  0
   16.9893   70.3016   -5.8631 N   0  0  0  0  0  0  0  0  0  0  0  0
   15.9742   69.5959   -3.8338 N   0  0  0  0  0  0  0  0  0  0  0  0
   16.4392   69.2398   -5.1066 C   0  0  0  0  0  0  0  0  0  0  0  0
   17.0411   71.5839   -5.3304 C   0  0  0  0  0  0  0  0  0  0  0  0
   16.5940   71.9080   -4.1156 C   0  0  0  0  0  0  0  0  0  0  0  0
   16.0035   70.8571   -3.2609 C   0  0  0  0  0  0  0  0  0  0  0  0
   15.5850   68.8740   -3.2892 H   0  0  0  0  0  0  0  0  0  0  0  0
   21.1269   73.2178   -4.2977 O   0  0  0  0  0  0  0  0  0  0  0  0
   21.6826   74.2084   -3.1472 P   0  0  2  0  0  0  0  0  0  0  0  0
   20.5357   75.3469   -3.0537 O   0  0  0  0  0  0  0  0  0  0  0  0
   23.0624   74.7404   -3.4063 O   0  0  0  0  0  0  0  0  0  0  0  0
   21.5352   73.3685   -1.7777 O   0  0  0  0  0  0  0  0  0  0  0  0
   22.9392   73.7964    0.0810 O   0  0  0  0  0  0  0  0  0  0  0  0
   21.5377   70.0063    0.9409 O   0  0  0  0  0  0  0  0  0  0  0  0
   22.3410   70.7064   -1.7793 O   0  0  0  0  0  0  0  0  0  0  0  0
   20.4765   72.3111    2.3595 O   0  0  0  0  0  0  0  0  0  0  0  0
   21.4775   71.3267    0.4015 C   0  0  2  0  0  0  0  0  0  0  0  0
   22.5902   71.5090   -0.6310 C   0  0  2  0  0  0  0  0  0  0  0  0
   21.6541   72.3171    1.5547 C   0  0  1  0  0  0  0  0  0  0  0  0
   22.7032   72.9722   -1.0611 C   0  0  1  0  0  0  0  0  0  0  0  0
   21.8864   73.7350    1.0407 C   0  0  1  0  0  0  0  0  0  0  0  0
   21.4279   69.3596    0.2261 H   0  0  0  0  0  0  0  0  0  0  0  0
   22.2679   69.7766   -1.5137 H   0  0  0  0  0  0  0  0  0  0  0  0
   20.3173   71.4143    2.6929 H   0  0  0  0  0  0  0  0  0  0  0  0
   23.7324   74.7094    2.1103 O   0  0  0  0  0  0  0  0  0  0  0  0
   21.6684   75.1966    2.9480 O   0  0  0  0  0  0  0  0  0  0  0  0
   22.3794   74.6225    2.1368 C   0  0  0  0  0  0  0  0  0  0  0  0
  1  4  1  0
  1 24  1  0
  1  2  1  6
  1  3  2  0
 25 28  1  0
 25 24  1  0
 25 26  1  1
 25 27  2  0
  6 11  1  0
  6 12  1  0
 29 36  1  0
 29 37  1  0
  9  7  1  6
  7 13  1  0
 10  8  1  6
  8 14  1  0
  4  5  1  0
 36 28  1  1
 33 30  1  1
 30 38  1  0
 34 31  1  6
 31 39  1  0
 35 32  1  1
 32 40  1  0
 41 43  1  0
 15 19  2  0
 42 43  2  0
 16 22  2  0
 12 17  1  1
 17 19  1  0
 17 20  1  0
 18 19  1  0
 18 22  1  0
 18 23  1  0
  9 10  1  0
  9 11  1  0
 10 12  1  0
 11  5  1  1
 33 34  1  0
 33 35  1  0
 34 36  1  0
 35 37  1  0
 37 43  1  1
 20 21  2  0
 21 22  1  0
M  CHG  3   2  -1  26  -1  41  -1
M  END
>  <COMPND>  (157) 
    udp_gluA.pdb 

>  <AUTHOR>  (157) 
    GENERATED BY OPEN BABEL 3.1.1

>  <MASTER>  (157) 
        0    0    0    0    0    0    0    0   56    0   56    0

>  <minimizedAffinity>  (157) 
-7.33173

>  <CNNscore>  (157) 
0.5824624896

>  <CNNaffinity>  (157) 
4.4950170517

>  <CNN_VS>  (157) 
2.6181788445

>  <CNNaffinity_variance>  (157) 
0.1190642864

$$$$
158
     RDKit          3D

 43 45  0  0  0  0  0  0  0  0999 V2000
   21.9737   72.3962   -5.8546 P   0  0  2  0  0  0  0  0  0  0  0  0
   21.3130   73.6428   -5.0618 O   0  0  0  0  0  0  0  0  0  0  0  0
   23.0081   72.7711   -6.8751 O   0  0  0  0  0  0  0  0  0  0  0  0
   20.6989   71.5731   -6.4160 O   0  0  0  0  0  0  0  0  0  0  0  0
   20.1783   71.9170   -7.6869 C   0  0  0  0  0  0  0  0  0  0  0  0
   18.8825   69.9546   -7.1892 O   0  0  0  0  0  0  0  0  0  0  0  0
   18.0826   69.9769  -10.0790 O   0  0  0  0  0  0  0  0  0  0  0  0
   15.9045   71.0632   -8.8495 O   0  0  0  0  0  0  0  0  0  0  0  0
   18.3111   71.0755   -9.1962 C   0  0  1  0  0  0  0  0  0  0  0  0
   17.1607   71.2128   -8.2216 C   0  0  2  0  0  0  0  0  0  0  0  0
   19.4662   70.7059   -8.2756 C   0  0  1  0  0  0  0  0  0  0  0  0
   17.4541   70.1011   -7.2286 C   0  0  2  0  0  0  0  0  0  0  0  0
   17.3487   70.1896  -10.6772 H   0  0  0  0  0  0  0  0  0  0  0  0
   15.7648   71.7951   -9.4714 H   0  0  0  0  0  0  0  0  0  0  0  0
   16.4266   68.1886   -5.4222 O   0  0  0  0  0  0  0  0  0  0  0  0
   15.6614   71.3843   -2.1901 O   0  0  0  0  0  0  0  0  0  0  0  0
   16.9794   70.4059   -5.9086 N   0  0  0  0  0  0  0  0  0  0  0  0
   16.0455   69.7822   -3.8145 N   0  0  0  0  0  0  0  0  0  0  0  0
   16.4827   69.3715   -5.0807 C   0  0  0  0  0  0  0  0  0  0  0  0
   17.0101   71.7158   -5.4458 C   0  0  0  0  0  0  0  0  0  0  0  0
   16.5901   72.0919   -4.2363 C   0  0  0  0  0  0  0  0  0  0  0  0
   16.0556   71.0724   -3.3097 C   0  0  0  0  0  0  0  0  0  0  0  0
   15.6935   69.0800   -3.2210 H   0  0  0  0  0  0  0  0  0  0  0  0
   22.5175   71.4533   -4.6596 O   0  0  0  0  0  0  0  0  0  0  0  0
   23.4287   71.7953   -3.3687 P   0  0  2  0  0  0  0  0  0  0  0  0
   24.1316   73.1963   -3.7728 O   0  0  0  0  0  0  0  0  0  0  0  0
   24.3911   70.7076   -2.9886 O   0  0  0  0  0  0  0  0  0  0  0  0
   22.3722   72.1879   -2.2145 O   0  0  0  0  0  0  0  0  0  0  0  0
   21.7669   71.0106   -0.2506 O   0  0  0  0  0  0  0  0  0  0  0  0
   18.2373   72.9377   -1.1969 O   0  0  0  0  0  0  0  0  0  0  0  0
   19.8544   71.6973   -3.2899 O   0  0  0  0  0  0  0  0  0  0  0  0
   19.8929   73.9132    0.9844 O   0  0  0  0  0  0  0  0  0  0  0  0
   19.6535   72.7734   -1.1248 C   0  0  2  0  0  0  0  0  0  0  0  0
   20.0628   71.5171   -1.8939 C   0  0  2  0  0  0  0  0  0  0  0  0
   20.0401   72.6441    0.3503 C   0  0  1  0  0  0  0  0  0  0  0  0
   21.5346   71.1810   -1.6493 C   0  0  1  0  0  0  0  0  0  0  0  0
   21.4865   72.1843    0.5089 C   0  0  1  0  0  0  0  0  0  0  0  0
   17.9682   73.0220   -2.1252 H   0  0  0  0  0  0  0  0  0  0  0  0
   18.9226   71.9111   -3.4523 H   0  0  0  0  0  0  0  0  0  0  0  0
   18.9767   74.2173    0.8905 H   0  0  0  0  0  0  0  0  0  0  0  0
   22.8316   70.9266    1.9615 O   0  0  0  0  0  0  0  0  0  0  0  0
   21.0971   72.0810    2.8878 O   0  0  0  0  0  0  0  0  0  0  0  0
   21.7533   71.7475    1.9125 C   0  0  0  0  0  0  0  0  0  0  0  0
  1  4  1  0
  1 24  1  0
  1  2  1  1
  1  3  2  0
 25 28  1  0
 25 24  1  0
 25 26  1  6
 25 27  2  0
  6 11  1  0
  6 12  1  0
 29 36  1  0
 29 37  1  0
  9  7  1  6
  7 13  1  0
 10  8  1  6
  8 14  1  0
  4  5  1  0
 36 28  1  1
 33 30  1  1
 30 38  1  0
 34 31  1  6
 31 39  1  0
 35 32  1  1
 32 40  1  0
 41 43  1  0
 15 19  2  0
 42 43  2  0
 16 22  2  0
 12 17  1  1
 17 19  1  0
 17 20  1  0
 18 19  1  0
 18 22  1  0
 18 23  1  0
  9 10  1  0
  9 11  1  0
 10 12  1  0
 11  5  1  1
 33 34  1  0
 33 35  1  0
 34 36  1  0
 35 37  1  0
 37 43  1  1
 20 21  2  0
 21 22  1  0
M  CHG  3   2  -1  26  -1  41  -1
M  END
>  <COMPND>  (158) 
    udp_gluA.pdb 

>  <AUTHOR>  (158) 
    GENERATED BY OPEN BABEL 3.1.1

>  <MASTER>  (158) 
        0    0    0    0    0    0    0    0   56    0   56    0

>  <minimizedAffinity>  (158) 
-7.84658

>  <CNNscore>  (158) 
0.5570326447

>  <CNNaffinity>  (158) 
4.2999372482

>  <CNN_VS>  (158) 
2.3952054977

>  <CNNaffinity_variance>  (158) 
0.4378440976

$$$$
159
     RDKit          3D

 43 45  0  0  0  0  0  0  0  0999 V2000
   22.9938   71.9732   -2.8664 P   0  0  2  0  0  0  0  0  0  0  0  0
   23.7591   73.2097   -3.5766 O   0  0  0  0  0  0  0  0  0  0  0  0
   23.8892   70.8807   -2.3600 O   0  0  0  0  0  0  0  0  0  0  0  0
   21.8854   71.5247   -3.9565 O   0  0  0  0  0  0  0  0  0  0  0  0
   21.5294   72.4412   -4.9752 C   0  0  0  0  0  0  0  0  0  0  0  0
   20.5312   70.4928   -5.9677 O   0  0  0  0  0  0  0  0  0  0  0  0
   20.7777   71.9298   -8.5879 O   0  0  0  0  0  0  0  0  0  0  0  0
   18.1488   72.2869   -7.9575 O   0  0  0  0  0  0  0  0  0  0  0  0
   20.4819   72.4550   -7.2936 C   0  0  1  0  0  0  0  0  0  0  0  0
   19.0635   72.1038   -6.8971 C   0  0  2  0  0  0  0  0  0  0  0  0
   21.3001   71.6765   -6.2725 C   0  0  1  0  0  0  0  0  0  0  0  0
   19.2016   70.6470   -6.4890 C   0  0  2  0  0  0  0  0  0  0  0  0
   20.2665   72.4117   -9.2573 H   0  0  0  0  0  0  0  0  0  0  0  0
   18.0963   73.2302   -8.1799 H   0  0  0  0  0  0  0  0  0  0  0  0
   16.5790   69.7402   -7.0142 O   0  0  0  0  0  0  0  0  0  0  0  0
   15.6621   69.2267   -2.5265 O   0  0  0  0  0  0  0  0  0  0  0  0
   18.2564   70.2697   -5.4765 N   0  0  0  0  0  0  0  0  0  0  0  0
   16.1245   69.4863   -4.7785 N   0  0  0  0  0  0  0  0  0  0  0  0
   16.9643   69.8277   -5.8468 C   0  0  0  0  0  0  0  0  0  0  0  0
   18.6128   70.3374   -4.1351 C   0  0  0  0  0  0  0  0  0  0  0  0
   17.8014   70.0085   -3.1280 C   0  0  0  0  0  0  0  0  0  0  0  0
   16.4335   69.5377   -3.4289 C   0  0  0  0  0  0  0  0  0  0  0  0
   15.2190   69.1777   -5.0114 H   0  0  0  0  0  0  0  0  0  0  0  0
   22.1085   72.7010   -1.7264 O   0  0  0  0  0  0  0  0  0  0  0  0
   20.8666   72.1629   -0.8423 P   0  0  2  0  0  0  0  0  0  0  0  0
   20.9596   70.5559   -1.0134 O   0  0  0  0  0  0  0  0  0  0  0  0
   19.5386   72.7496   -1.2246 O   0  0  0  0  0  0  0  0  0  0  0  0
   21.3039   72.4356    0.6864 O   0  0  0  0  0  0  0  0  0  0  0  0
   20.8070   74.2585    2.1144 O   0  0  0  0  0  0  0  0  0  0  0  0
   24.5776   73.1780    3.4116 O   0  0  0  0  0  0  0  0  0  0  0  0
   23.9589   73.2545    0.5575 O   0  0  0  0  0  0  0  0  0  0  0  0
   22.2364   72.4769    4.9858 O   0  0  0  0  0  0  0  0  0  0  0  0
   23.2756   72.9632    2.8671 C   0  0  2  0  0  0  0  0  0  0  0  0
   23.1184   73.7748    1.5810 C   0  0  2  0  0  0  0  0  0  0  0  0
   22.2477   73.4116    3.9084 C   0  0  1  0  0  0  0  0  0  0  0  0
   21.6688   73.7530    1.0941 C   0  0  1  0  0  0  0  0  0  0  0  0
   20.8453   73.4846    3.3113 C   0  0  1  0  0  0  0  0  0  0  0  0
   25.2476   72.9002    2.7672 H   0  0  0  0  0  0  0  0  0  0  0  0
   24.8803   73.2651    0.8599 H   0  0  0  0  0  0  0  0  0  0  0  0
   23.1233   72.4209    5.3745 H   0  0  0  0  0  0  0  0  0  0  0  0
   20.6193   74.9525    5.1267 O   0  0  0  0  0  0  0  0  0  0  0  0
   18.6999   74.1906    4.1600 O   0  0  0  0  0  0  0  0  0  0  0  0
   19.9198   74.2262    4.2201 C   0  0  0  0  0  0  0  0  0  0  0  0
  1  4  1  0
  1 24  1  0
  1  2  1  6
  1  3  2  0
 25 28  1  0
 25 24  1  0
 25 26  1  1
 25 27  2  0
  6 11  1  0
  6 12  1  0
 29 36  1  0
 29 37  1  0
  9  7  1  6
  7 13  1  0
 10  8  1  6
  8 14  1  0
  4  5  1  0
 36 28  1  1
 33 30  1  1
 30 38  1  0
 34 31  1  6
 31 39  1  0
 35 32  1  1
 32 40  1  0
 41 43  1  0
 15 19  2  0
 42 43  2  0
 16 22  2  0
 12 17  1  1
 17 19  1  0
 17 20  1  0
 18 19  1  0
 18 22  1  0
 18 23  1  0
  9 10  1  0
  9 11  1  0
 10 12  1  0
 11  5  1  1
 33 34  1  0
 33 35  1  0
 34 36  1  0
 35 37  1  0
 37 43  1  1
 20 21  2  0
 21 22  1  0
M  CHG  3   2  -1  26  -1  41  -1
M  END
>  <COMPND>  (159) 
    udp_gluA.pdb 

>  <AUTHOR>  (159) 
    GENERATED BY OPEN BABEL 3.1.1

>  <MASTER>  (159) 
        0    0    0    0    0    0    0    0   56    0   56    0

>  <minimizedAffinity>  (159) 
-6.66253

>  <CNNscore>  (159) 
0.5437203050

>  <CNNaffinity>  (159) 
4.1695914268

>  <CNN_VS>  (159) 
2.2670915127

>  <CNNaffinity_variance>  (159) 
0.1563914418

$$$$
160
     RDKit          3D

 43 45  0  0  0  0  0  0  0  0999 V2000
   23.5196   72.3003   -3.3148 P   0  0  2  0  0  0  0  0  0  0  0  0
   24.1454   70.8237   -3.0983 O   0  0  0  0  0  0  0  0  0  0  0  0
   24.5089   73.3553   -3.7151 O   0  0  0  0  0  0  0  0  0  0  0  0
   22.7072   72.5828   -1.9443 O   0  0  0  0  0  0  0  0  0  0  0  0
   23.4418   72.7588   -0.7469 C   0  0  0  0  0  0  0  0  0  0  0  0
   24.0071   71.7279    1.3496 O   0  0  0  0  0  0  0  0  0  0  0  0
   21.5079   70.1055    1.0133 O   0  0  0  0  0  0  0  0  0  0  0  0
   20.7365   72.0272    2.7875 O   0  0  0  0  0  0  0  0  0  0  0  0
   21.7582   71.4645    0.6541 C   0  0  1  0  0  0  0  0  0  0  0  0
   21.7825   72.3376    1.8908 C   0  0  2  0  0  0  0  0  0  0  0  0
   23.1969   71.5639    0.1656 C   0  0  1  0  0  0  0  0  0  0  0  0
   23.1553   72.0323    2.4654 C   0  0  2  0  0  0  0  0  0  0  0  0
   20.5945   70.0171    1.3286 H   0  0  0  0  0  0  0  0  0  0  0  0
   19.8838   72.2395    2.3755 H   0  0  0  0  0  0  0  0  0  0  0  0
   22.5480   72.6538    5.1527 O   0  0  0  0  0  0  0  0  0  0  0  0
   25.3345   76.3252    5.1243 O   0  0  0  0  0  0  0  0  0  0  0  0
   23.7079   73.1449    3.1849 N   0  0  0  0  0  0  0  0  0  0  0  0
   23.9356   74.4824    5.1357 N   0  0  0  0  0  0  0  0  0  0  0  0
   23.3370   73.3688    4.5319 C   0  0  0  0  0  0  0  0  0  0  0  0
   24.6071   73.9987    2.5578 C   0  0  0  0  0  0  0  0  0  0  0  0
   25.1695   75.0561    3.1464 C   0  0  0  0  0  0  0  0  0  0  0  0
   24.8347   75.3608    4.5529 C   0  0  0  0  0  0  0  0  0  0  0  0
   23.6913   74.6598    6.0728 H   0  0  0  0  0  0  0  0  0  0  0  0
   22.3404   72.0407   -4.3894 O   0  0  0  0  0  0  0  0  0  0  0  0
   21.7389   72.9865   -5.5545 P   0  0  2  0  0  0  0  0  0  0  0  0
   22.7125   72.6878   -6.8127 O   0  0  0  0  0  0  0  0  0  0  0  0
   21.6394   74.4370   -5.1801 O   0  0  0  0  0  0  0  0  0  0  0  0
   20.3347   72.3004   -5.9543 O   0  0  0  0  0  0  0  0  0  0  0  0
   19.5930   70.0967   -5.5043 O   0  0  0  0  0  0  0  0  0  0  0  0
   17.6246   70.9412   -9.0371 O   0  0  0  0  0  0  0  0  0  0  0  0
   20.4160   71.7226   -8.6738 O   0  0  0  0  0  0  0  0  0  0  0  0
   16.1773   70.9751   -6.5161 O   0  0  0  0  0  0  0  0  0  0  0  0
   18.2165   71.2372   -7.7722 C   0  0  2  0  0  0  0  0  0  0  0  0
   19.6978   70.8597   -7.7995 C   0  0  2  0  0  0  0  0  0  0  0  0
   17.4801   70.4257   -6.7039 C   0  0  1  0  0  0  0  0  0  0  0  0
   20.3103   70.9459   -6.4009 C   0  0  1  0  0  0  0  0  0  0  0  0
   18.2205   70.4592   -5.3701 C   0  0  1  0  0  0  0  0  0  0  0  0
   18.0765   71.4457   -9.7317 H   0  0  0  0  0  0  0  0  0  0  0  0
   20.0325   71.6731   -9.5631 H   0  0  0  0  0  0  0  0  0  0  0  0
   15.6955   70.9598   -7.3579 H   0  0  0  0  0  0  0  0  0  0  0  0
   18.6039   69.1103   -3.4899 O   0  0  0  0  0  0  0  0  0  0  0  0
   16.5795   68.9085   -4.5195 O   0  0  0  0  0  0  0  0  0  0  0  0
   17.6876   69.4173   -4.4413 C   0  0  0  0  0  0  0  0  0  0  0  0
  1  4  1  0
  1 24  1  0
  1  2  1  1
  1  3  2  0
 25 28  1  0
 25 24  1  0
 25 26  1  6
 25 27  2  0
  6 11  1  0
  6 12  1  0
 29 36  1  0
 29 37  1  0
  9  7  1  1
  7 13  1  0
 10  8  1  1
  8 14  1  0
  4  5  1  0
 36 28  1  1
 33 30  1  6
 30 38  1  0
 34 31  1  6
 31 39  1  0
 35 32  1  1
 32 40  1  0
 41 43  1  0
 15 19  2  0
 42 43  2  0
 16 22  2  0
 12 17  1  6
 17 19  1  0
 17 20  1  0
 18 19  1  0
 18 22  1  0
 18 23  1  0
  9 10  1  0
  9 11  1  0
 10 12  1  0
 11  5  1  6
 33 34  1  0
 33 35  1  0
 34 36  1  0
 35 37  1  0
 37 43  1  1
 20 21  2  0
 21 22  1  0
M  CHG  3   2  -1  26  -1  41  -1
M  END
>  <COMPND>  (160) 
    udp_gluA.pdb 

>  <AUTHOR>  (160) 
    GENERATED BY OPEN BABEL 3.1.1

>  <MASTER>  (160) 
        0    0    0    0    0    0    0    0   56    0   56    0

>  <minimizedAffinity>  (160) 
-7.93340

>  <CNNscore>  (160) 
0.4627961516

>  <CNNaffinity>  (160) 
4.1204447746

>  <CNN_VS>  (160) 
1.9069260359

>  <CNNaffinity_variance>  (160) 
0.1920216829

$$$$
161
     RDKit          3D

 43 45  0  0  0  0  0  0  0  0999 V2000
   20.6294   71.8222   -2.1124 P   0  0  2  0  0  0  0  0  0  0  0  0
   20.6050   70.6857   -0.9605 O   0  0  0  0  0  0  0  0  0  0  0  0
   19.6661   72.9541   -1.9061 O   0  0  0  0  0  0  0  0  0  0  0  0
   20.4482   70.9868   -3.4862 O   0  0  0  0  0  0  0  0  0  0  0  0
   19.5645   69.8807   -3.4933 C   0  0  0  0  0  0  0  0  0  0  0  0
   17.9425   71.1945   -4.6851 O   0  0  0  0  0  0  0  0  0  0  0  0
   15.8673   69.7787   -3.0480 O   0  0  0  0  0  0  0  0  0  0  0  0
   15.7475   68.4598   -5.4317 O   0  0  0  0  0  0  0  0  0  0  0  0
   17.0942   69.2787   -3.5803 C   0  0  1  0  0  0  0  0  0  0  0  0
   16.9704   69.0692   -5.0746 C   0  0  2  0  0  0  0  0  0  0  0  0
   18.1297   70.3920   -3.4993 C   0  0  1  0  0  0  0  0  0  0  0  0
   17.0930   70.4882   -5.6032 C   0  0  2  0  0  0  0  0  0  0  0  0
   15.1901   69.0849   -3.0891 H   0  0  0  0  0  0  0  0  0  0  0  0
   15.7181   67.5588   -5.0722 H   0  0  0  0  0  0  0  0  0  0  0  0
   15.6237   70.3776   -8.0126 O   0  0  0  0  0  0  0  0  0  0  0  0
   19.4458   70.6810  -10.5706 O   0  0  0  0  0  0  0  0  0  0  0  0
   17.6789   70.5364   -6.9129 N   0  0  0  0  0  0  0  0  0  0  0  0
   17.5288   70.5278   -9.2843 N   0  0  0  0  0  0  0  0  0  0  0  0
   16.8515   70.4735   -8.0590 C   0  0  0  0  0  0  0  0  0  0  0  0
   19.0571   70.6462   -7.0526 C   0  0  0  0  0  0  0  0  0  0  0  0
   19.6882   70.6969   -8.2273 C   0  0  0  0  0  0  0  0  0  0  0  0
   18.8970   70.6363   -9.4738 C   0  0  0  0  0  0  0  0  0  0  0  0
   16.9740   70.4837  -10.0965 H   0  0  0  0  0  0  0  0  0  0  0  0
   22.1845   72.2610   -2.1564 O   0  0  0  0  0  0  0  0  0  0  0  0
   23.3087   72.0721   -3.3028 P   0  0  2  0  0  0  0  0  0  0  0  0
   22.4432   72.0579   -4.6707 O   0  0  0  0  0  0  0  0  0  0  0  0
   24.1854   70.8682   -3.1132 O   0  0  0  0  0  0  0  0  0  0  0  0
   24.0996   73.4778   -3.3360 O   0  0  0  0  0  0  0  0  0  0  0  0
   23.6473   75.4564   -2.1156 O   0  0  0  0  0  0  0  0  0  0  0  0
   25.3309   76.9672   -5.5726 O   0  0  0  0  0  0  0  0  0  0  0  0
   23.4079   74.7717   -5.6989 O   0  0  0  0  0  0  0  0  0  0  0  0
   26.8778   76.8818   -3.1128 O   0  0  0  0  0  0  0  0  0  0  0  0
   25.1322   76.0140   -4.5286 C   0  0  2  0  0  0  0  0  0  0  0  0
   23.6772   75.5443   -4.5348 C   0  0  2  0  0  0  0  0  0  0  0  0
   25.4667   76.6928   -3.1985 C   0  0  1  0  0  0  0  0  0  0  0  0
   23.3690   74.7022   -3.2959 C   0  0  1  0  0  0  0  0  0  0  0  0
   25.0149   75.8463   -2.0120 C   0  0  1  0  0  0  0  0  0  0  0  0
   25.1243   76.5582   -6.4278 H   0  0  0  0  0  0  0  0  0  0  0  0
   23.6016   75.2997   -6.4889 H   0  0  0  0  0  0  0  0  0  0  0  0
   27.1783   77.4190   -3.8625 H   0  0  0  0  0  0  0  0  0  0  0  0
   23.9851   76.3284    0.0395 O   0  0  0  0  0  0  0  0  0  0  0  0
   25.8944   77.4705   -0.4596 O   0  0  0  0  0  0  0  0  0  0  0  0
   25.0413   76.6453   -0.7497 C   0  0  0  0  0  0  0  0  0  0  0  0
  1  4  1  0
  1 24  1  0
  1  2  1  1
  1  3  2  0
 25 28  1  0
 25 24  1  0
 25 26  1  6
 25 27  2  0
  6 11  1  0
  6 12  1  0
 29 36  1  0
 29 37  1  0
  9  7  1  6
  7 13  1  0
 10  8  1  1
  8 14  1  0
  4  5  1  0
 36 28  1  6
 33 30  1  6
 30 38  1  0
 34 31  1  6
 31 39  1  0
 35 32  1  1
 32 40  1  0
 41 43  1  0
 15 19  2  0
 42 43  2  0
 16 22  2  0
 12 17  1  6
 17 19  1  0
 17 20  1  0
 18 19  1  0
 18 22  1  0
 18 23  1  0
  9 10  1  0
  9 11  1  0
 10 12  1  0
 11  5  1  6
 33 34  1  0
 33 35  1  0
 34 36  1  0
 35 37  1  0
 37 43  1  1
 20 21  2  0
 21 22  1  0
M  CHG  3   2  -1  26  -1  41  -1
M  END
>  <COMPND>  (161) 
    udp_gluA.pdb 

>  <AUTHOR>  (161) 
    GENERATED BY OPEN BABEL 3.1.1

>  <MASTER>  (161) 
        0    0    0    0    0    0    0    0   56    0   56    0

>  <minimizedAffinity>  (161) 
-7.15831

>  <CNNscore>  (161) 
0.9569030404

>  <CNNaffinity>  (161) 
4.9663629532

>  <CNN_VS>  (161) 
4.7523279190

>  <CNNaffinity_variance>  (161) 
0.1877953708

$$$$
162
     RDKit          3D

 43 45  0  0  0  0  0  0  0  0999 V2000
   20.5308   71.6629   -2.2391 P   0  0  2  0  0  0  0  0  0  0  0  0
   20.2734   70.5572   -1.0859 O   0  0  0  0  0  0  0  0  0  0  0  0
   19.7176   72.9171   -2.1072 O   0  0  0  0  0  0  0  0  0  0  0  0
   20.3336   70.8395   -3.6179 O   0  0  0  0  0  0  0  0  0  0  0  0
   19.4038   69.7721   -3.6408 C   0  0  0  0  0  0  0  0  0  0  0  0
   17.8620   71.1477   -4.8689 O   0  0  0  0  0  0  0  0  0  0  0  0
   15.6979   69.8304   -3.2649 O   0  0  0  0  0  0  0  0  0  0  0  0
   15.5663   68.5054   -5.6446 O   0  0  0  0  0  0  0  0  0  0  0  0
   16.9120   69.2757   -3.7717 C   0  0  1  0  0  0  0  0  0  0  0  0
   16.8073   69.0639   -5.2672 C   0  0  2  0  0  0  0  0  0  0  0  0
   17.9925   70.3442   -3.6761 C   0  0  1  0  0  0  0  0  0  0  0  0
   17.0004   70.4735   -5.7997 C   0  0  2  0  0  0  0  0  0  0  0  0
   14.9925   69.1659   -3.3157 H   0  0  0  0  0  0  0  0  0  0  0  0
   15.4917   67.6084   -5.2817 H   0  0  0  0  0  0  0  0  0  0  0  0
   15.5718   70.4501   -8.2359 O   0  0  0  0  0  0  0  0  0  0  0  0
   19.4516   70.5377  -10.7225 O   0  0  0  0  0  0  0  0  0  0  0  0
   17.6121   70.4898   -7.0983 N   0  0  0  0  0  0  0  0  0  0  0  0
   17.5056   70.4927   -9.4721 N   0  0  0  0  0  0  0  0  0  0  0  0
   16.8038   70.4757   -8.2595 C   0  0  0  0  0  0  0  0  0  0  0  0
   18.9967   70.5209   -7.2124 C   0  0  0  0  0  0  0  0  0  0  0  0
   19.6512   70.5369   -8.3752 C   0  0  0  0  0  0  0  0  0  0  0  0
   18.8810   70.5231   -9.6361 C   0  0  0  0  0  0  0  0  0  0  0  0
   16.9643   70.4814  -10.2944 H   0  0  0  0  0  0  0  0  0  0  0  0
   22.1303   71.8878   -2.1758 O   0  0  0  0  0  0  0  0  0  0  0  0
   23.1032   72.8424   -3.0451 P   0  0  2  0  0  0  0  0  0  0  0  0
   22.0779   73.6179   -4.0288 O   0  0  0  0  0  0  0  0  0  0  0  0
   24.2083   72.1138   -3.7536 O   0  0  0  0  0  0  0  0  0  0  0  0
   23.6035   73.9712   -2.0068 O   0  0  0  0  0  0  0  0  0  0  0  0
   23.2080   73.8557    0.3254 O   0  0  0  0  0  0  0  0  0  0  0  0
   23.8357   77.9023   -0.2214 O   0  0  0  0  0  0  0  0  0  0  0  0
   22.2235   76.3831   -2.1260 O   0  0  0  0  0  0  0  0  0  0  0  0
   25.9135   76.2504    0.9639 O   0  0  0  0  0  0  0  0  0  0  0  0
   24.0063   76.5097   -0.4853 C   0  0  2  0  0  0  0  0  0  0  0  0
   22.6600   75.8919   -0.8639 C   0  0  2  0  0  0  0  0  0  0  0  0
   24.5560   75.8520    0.7824 C   0  0  1  0  0  0  0  0  0  0  0  0
   22.7568   74.3671   -0.9293 C   0  0  1  0  0  0  0  0  0  0  0  0
   24.5028   74.3299    0.6883 C   0  0  1  0  0  0  0  0  0  0  0  0
   23.4870   78.3413   -1.0133 H   0  0  0  0  0  0  0  0  0  0  0  0
   22.1601   77.3502   -2.0918 H   0  0  0  0  0  0  0  0  0  0  0  0
   25.9613   77.2173    1.0251 H   0  0  0  0  0  0  0  0  0  0  0  0
   23.9579   72.5985    2.1739 O   0  0  0  0  0  0  0  0  0  0  0  0
   25.4910   74.1313    2.8805 O   0  0  0  0  0  0  0  0  0  0  0  0
   24.7246   73.7075    2.0284 C   0  0  0  0  0  0  0  0  0  0  0  0
  1  4  1  0
  1 24  1  0
  1  2  1  1
  1  3  2  0
 25 28  1  0
 25 24  1  0
 25 26  1  6
 25 27  2  0
  6 11  1  0
  6 12  1  0
 29 36  1  0
 29 37  1  0
  9  7  1  6
  7 13  1  0
 10  8  1  1
  8 14  1  0
  4  5  1  0
 36 28  1  6
 33 30  1  1
 30 38  1  0
 34 31  1  6
 31 39  1  0
 35 32  1  6
 32 40  1  0
 41 43  1  0
 15 19  2  0
 42 43  2  0
 16 22  2  0
 12 17  1  6
 17 19  1  0
 17 20  1  0
 18 19  1  0
 18 22  1  0
 18 23  1  0
  9 10  1  0
  9 11  1  0
 10 12  1  0
 11  5  1  6
 33 34  1  0
 33 35  1  0
 34 36  1  0
 35 37  1  0
 37 43  1  1
 20 21  2  0
 21 22  1  0
M  CHG  3   2  -1  26  -1  41  -1
M  END
>  <COMPND>  (162) 
    udp_gluA.pdb 

>  <AUTHOR>  (162) 
    GENERATED BY OPEN BABEL 3.1.1

>  <MASTER>  (162) 
        0    0    0    0    0    0    0    0   56    0   56    0

>  <minimizedAffinity>  (162) 
-6.86765

>  <CNNscore>  (162) 
0.9254169464

>  <CNNaffinity>  (162) 
4.7249169350

>  <CNN_VS>  (162) 
4.3725180626

>  <CNNaffinity_variance>  (162) 
0.1867165416

$$$$
163
     RDKit          3D

 43 45  0  0  0  0  0  0  0  0999 V2000
   22.5490   72.1829   -3.0137 P   0  0  2  0  0  0  0  0  0  0  0  0
   22.5388   73.7577   -2.6409 O   0  0  0  0  0  0  0  0  0  0  0  0
   23.8232   71.6862   -3.6313 O   0  0  0  0  0  0  0  0  0  0  0  0
   21.2129   71.9860   -3.9048 O   0  0  0  0  0  0  0  0  0  0  0  0
   20.4703   70.7899   -3.7548 C   0  0  0  0  0  0  0  0  0  0  0  0
   18.5448   71.7174   -4.8547 O   0  0  0  0  0  0  0  0  0  0  0  0
   16.9129   70.3641   -2.7341 O   0  0  0  0  0  0  0  0  0  0  0  0
   16.6403   68.6798   -4.8613 O   0  0  0  0  0  0  0  0  0  0  0  0
   18.1099   69.9206   -3.3737 C   0  0  1  0  0  0  0  0  0  0  0  0
   17.8115   69.4655   -4.7866 C   0  0  2  0  0  0  0  0  0  0  0  0
   18.9942   71.1372   -3.6110 C   0  0  1  0  0  0  0  0  0  0  0  0
   17.6764   70.7879   -5.5220 C   0  0  2  0  0  0  0  0  0  0  0  0
   16.3318   69.6040   -2.5721 H   0  0  0  0  0  0  0  0  0  0  0  0
   16.7769   67.8491   -4.3784 H   0  0  0  0  0  0  0  0  0  0  0  0
   15.9157   70.1553   -7.6377 O   0  0  0  0  0  0  0  0  0  0  0  0
   19.2846   70.4432  -10.7701 O   0  0  0  0  0  0  0  0  0  0  0  0
   18.0669   70.6909   -6.9000 N   0  0  0  0  0  0  0  0  0  0  0  0
   17.5955   70.2983   -9.1957 N   0  0  0  0  0  0  0  0  0  0  0  0
   17.1044   70.3669   -7.8853 C   0  0  0  0  0  0  0  0  0  0  0  0
   19.3888   70.9170   -7.2639 C   0  0  0  0  0  0  0  0  0  0  0  0
   19.8419   70.8481   -8.5172 C   0  0  0  0  0  0  0  0  0  0  0  0
   18.9009   70.5143   -9.6065 C   0  0  0  0  0  0  0  0  0  0  0  0
   16.9444   70.0723   -9.8987 H   0  0  0  0  0  0  0  0  0  0  0  0
   22.1592   71.4760   -1.6133 O   0  0  0  0  0  0  0  0  0  0  0  0
   21.2432   71.9892   -0.3840 P   0  0  2  0  0  0  0  0  0  0  0  0
   20.8893   70.6231    0.4091 O   0  0  0  0  0  0  0  0  0  0  0  0
   20.0440   72.7900   -0.8020 O   0  0  0  0  0  0  0  0  0  0  0  0
   22.2648   72.7717    0.5888 O   0  0  0  0  0  0  0  0  0  0  0  0
   23.3879   71.5221    2.2581 O   0  0  0  0  0  0  0  0  0  0  0  0
   24.0401   75.3987    3.5287 O   0  0  0  0  0  0  0  0  0  0  0  0
   21.4217   74.5938    2.5137 O   0  0  0  0  0  0  0  0  0  0  0  0
   26.1792   73.9034    2.2482 O   0  0  0  0  0  0  0  0  0  0  0  0
   23.8355   74.3573    2.5739 C   0  0  2  0  0  0  0  0  0  0  0  0
   22.4803   73.6944    2.8222 C   0  0  2  0  0  0  0  0  0  0  0  0
   24.9647   73.3374    2.7372 C   0  0  1  0  0  0  0  0  0  0  0  0
   22.3249   72.4321    1.9730 C   0  0  1  0  0  0  0  0  0  0  0  0
   24.6755   72.0568    1.9594 C   0  0  1  0  0  0  0  0  0  0  0  0
   23.3342   76.0588    3.4437 H   0  0  0  0  0  0  0  0  0  0  0  0
   21.5142   75.3972    3.0489 H   0  0  0  0  0  0  0  0  0  0  0  0
   26.3746   74.7193    2.7349 H   0  0  0  0  0  0  0  0  0  0  0  0
   24.9366   69.7806    2.4618 O   0  0  0  0  0  0  0  0  0  0  0  0
   26.7903   71.0992    2.6168 O   0  0  0  0  0  0  0  0  0  0  0  0
   25.5996   70.9606    2.3799 C   0  0  0  0  0  0  0  0  0  0  0  0
  1  4  1  0
  1 24  1  0
  1  2  1  1
  1  3  2  0
 25 28  1  0
 25 24  1  0
 25 26  1  1
 25 27  2  0
  6 11  1  0
  6 12  1  0
 29 36  1  0
 29 37  1  0
  9  7  1  6
  7 13  1  0
 10  8  1  1
  8 14  1  0
  4  5  1  0
 36 28  1  6
 33 30  1  1
 30 38  1  0
 34 31  1  6
 31 39  1  0
 35 32  1  6
 32 40  1  0
 41 43  1  0
 15 19  2  0
 42 43  2  0
 16 22  2  0
 12 17  1  6
 17 19  1  0
 17 20  1  0
 18 19  1  0
 18 22  1  0
 18 23  1  0
  9 10  1  0
  9 11  1  0
 10 12  1  0
 11  5  1  6
 33 34  1  0
 33 35  1  0
 34 36  1  0
 35 37  1  0
 37 43  1  1
 20 21  2  0
 21 22  1  0
M  CHG  3   2  -1  26  -1  41  -1
M  END
>  <COMPND>  (163) 
    udp_gluA.pdb 

>  <AUTHOR>  (163) 
    GENERATED BY OPEN BABEL 3.1.1

>  <MASTER>  (163) 
        0    0    0    0    0    0    0    0   56    0   56    0

>  <minimizedAffinity>  (163) 
-7.86509

>  <CNNscore>  (163) 
0.9047724009

>  <CNNaffinity>  (163) 
4.7840418816

>  <CNN_VS>  (163) 
4.3284692764

>  <CNNaffinity_variance>  (163) 
0.0642371923

$$$$
164
     RDKit          3D

 43 45  0  0  0  0  0  0  0  0999 V2000
   22.7042   72.2137   -3.6694 P   0  0  2  0  0  0  0  0  0  0  0  0
   23.7680   72.5605   -4.8386 O   0  0  0  0  0  0  0  0  0  0  0  0
   23.2666   71.4480   -2.5079 O   0  0  0  0  0  0  0  0  0  0  0  0
   21.4820   71.5015   -4.4549 O   0  0  0  0  0  0  0  0  0  0  0  0
   20.7558   70.4820   -3.7933 C   0  0  0  0  0  0  0  0  0  0  0  0
   18.8647   71.6053   -4.7626 O   0  0  0  0  0  0  0  0  0  0  0  0
   17.2406   70.3709   -2.5648 O   0  0  0  0  0  0  0  0  0  0  0  0
   16.6855   68.7592   -4.6932 O   0  0  0  0  0  0  0  0  0  0  0  0
   18.3507   69.8297   -3.2814 C   0  0  1  0  0  0  0  0  0  0  0  0
   17.9278   69.4307   -4.6793 C   0  0  2  0  0  0  0  0  0  0  0  0
   19.3300   70.9627   -3.5560 C   0  0  1  0  0  0  0  0  0  0  0  0
   17.8748   70.7733   -5.3881 C   0  0  2  0  0  0  0  0  0  0  0  0
   16.6011   69.6654   -2.3778 H   0  0  0  0  0  0  0  0  0  0  0  0
   16.7715   67.9105   -4.2302 H   0  0  0  0  0  0  0  0  0  0  0  0
   15.9618   70.2021   -7.3858 O   0  0  0  0  0  0  0  0  0  0  0  0
   19.1296   70.3850  -10.7287 O   0  0  0  0  0  0  0  0  0  0  0  0
   18.1723   70.6659   -6.7884 N   0  0  0  0  0  0  0  0  0  0  0  0
   17.5416   70.2927   -9.0487 N   0  0  0  0  0  0  0  0  0  0  0  0
   17.1383   70.3752   -7.7094 C   0  0  0  0  0  0  0  0  0  0  0  0
   19.4747   70.8493   -7.2367 C   0  0  0  0  0  0  0  0  0  0  0  0
   19.8438   70.7677   -8.5165 C   0  0  0  0  0  0  0  0  0  0  0  0
   18.8242   70.4666   -9.5428 C   0  0  0  0  0  0  0  0  0  0  0  0
   16.8395   70.0893   -9.7083 H   0  0  0  0  0  0  0  0  0  0  0  0
   22.0969   73.6629   -3.2899 O   0  0  0  0  0  0  0  0  0  0  0  0
   22.7522   74.9164   -2.5069 P   0  0  2  0  0  0  0  0  0  0  0  0
   21.5312   75.9754   -2.4168 O   0  0  0  0  0  0  0  0  0  0  0  0
   23.9964   75.4602   -3.1473 O   0  0  0  0  0  0  0  0  0  0  0  0
   22.9513   74.3948   -0.9934 O   0  0  0  0  0  0  0  0  0  0  0  0
   21.8135   72.6300    0.1022 O   0  0  0  0  0  0  0  0  0  0  0  0
   22.7242   75.1322    3.2610 O   0  0  0  0  0  0  0  0  0  0  0  0
   21.7695   76.2318    0.7284 O   0  0  0  0  0  0  0  0  0  0  0  0
   24.2440   72.6884    2.8502 O   0  0  0  0  0  0  0  0  0  0  0  0
   22.9234   74.5112    1.9911 C   0  0  2  0  0  0  0  0  0  0  0  0
   21.7535   74.8498    1.0667 C   0  0  2  0  0  0  0  0  0  0  0  0
   23.0069   72.9992    2.2119 C   0  0  1  0  0  0  0  0  0  0  0  0
   21.8138   74.0219   -0.2177 C   0  0  1  0  0  0  0  0  0  0  0  0
   22.9349   72.2385    0.8910 C   0  0  1  0  0  0  0  0  0  0  0  0
   22.6679   76.0938    3.1456 H   0  0  0  0  0  0  0  0  0  0  0  0
   21.7317   76.7630    1.5388 H   0  0  0  0  0  0  0  0  0  0  0  0
   24.3025   73.1664    3.6922 H   0  0  0  0  0  0  0  0  0  0  0  0
   23.8393   70.1486    1.4534 O   0  0  0  0  0  0  0  0  0  0  0  0
   21.5972   70.2366    1.0475 O   0  0  0  0  0  0  0  0  0  0  0  0
   22.6863   70.7846    1.1291 C   0  0  0  0  0  0  0  0  0  0  0  0
  1  4  1  0
  1 24  1  0
  1  2  1  6
  1  3  2  0
 25 28  1  0
 25 24  1  0
 25 26  1  1
 25 27  2  0
  6 11  1  0
  6 12  1  0
 29 36  1  0
 29 37  1  0
  9  7  1  1
  7 13  1  0
 10  8  1  1
  8 14  1  0
  4  5  1  0
 36 28  1  1
 33 30  1  1
 30 38  1  0
 34 31  1  6
 31 39  1  0
 35 32  1  6
 32 40  1  0
 41 43  1  0
 15 19  2  0
 42 43  2  0
 16 22  2  0
 12 17  1  6
 17 19  1  0
 17 20  1  0
 18 19  1  0
 18 22  1  0
 18 23  1  0
  9 10  1  0
  9 11  1  0
 10 12  1  0
 11  5  1  6
 33 34  1  0
 33 35  1  0
 34 36  1  0
 35 37  1  0
 37 43  1  1
 20 21  2  0
 21 22  1  0
M  CHG  3   2  -1  26  -1  41  -1
M  END
>  <COMPND>  (164) 
    udp_gluA.pdb 

>  <AUTHOR>  (164) 
    GENERATED BY OPEN BABEL 3.1.1

>  <MASTER>  (164) 
        0    0    0    0    0    0    0    0   56    0   56    0

>  <minimizedAffinity>  (164) 
-7.36566

>  <CNNscore>  (164) 
0.8781255484

>  <CNNaffinity>  (164) 
4.7625226974

>  <CNN_VS>  (164) 
4.1820926666

>  <CNNaffinity_variance>  (164) 
0.0342811160

$$$$
165
     RDKit          3D

 43 45  0  0  0  0  0  0  0  0999 V2000
   20.5995   71.0888   -1.3173 P   0  0  2  0  0  0  0  0  0  0  0  0
   21.9082   70.8334   -2.2342 O   0  0  0  0  0  0  0  0  0  0  0  0
   20.7476   70.6931    0.1226 O   0  0  0  0  0  0  0  0  0  0  0  0
   19.4075   70.3547   -2.1286 O   0  0  0  0  0  0  0  0  0  0  0  0
   19.1618   70.7433   -3.4677 C   0  0  0  0  0  0  0  0  0  0  0  0
   17.4684   71.5977   -4.9442 O   0  0  0  0  0  0  0  0  0  0  0  0
   15.4991   70.0981   -3.2517 O   0  0  0  0  0  0  0  0  0  0  0  0
   15.7916   68.4639   -5.4150 O   0  0  0  0  0  0  0  0  0  0  0  0
   16.8299   69.7381   -3.6232 C   0  0  1  0  0  0  0  0  0  0  0  0
   16.8709   69.3087   -5.0745 C   0  0  2  0  0  0  0  0  0  0  0  0
   17.6717   71.0067   -3.6424 C   0  0  1  0  0  0  0  0  0  0  0  0
   16.8207   70.6427   -5.7996 C   0  0  2  0  0  0  0  0  0  0  0  0
   14.9423   69.3036   -3.2326 H   0  0  0  0  0  0  0  0  0  0  0  0
   15.8690   67.6281   -4.9278 H   0  0  0  0  0  0  0  0  0  0  0  0
   15.5318   70.6348   -8.3126 O   0  0  0  0  0  0  0  0  0  0  0  0
   19.5454   70.5030  -10.5750 O   0  0  0  0  0  0  0  0  0  0  0  0
   17.5046   70.6067   -7.0613 N   0  0  0  0  0  0  0  0  0  0  0  0
   17.5320   70.5681   -9.4370 N   0  0  0  0  0  0  0  0  0  0  0  0
   16.7631   70.6057   -8.2663 C   0  0  0  0  0  0  0  0  0  0  0  0
   18.8934   70.5746   -7.0967 C   0  0  0  0  0  0  0  0  0  0  0  0
   19.6124   70.5391   -8.2203 C   0  0  0  0  0  0  0  0  0  0  0  0
   18.9144   70.5347   -9.5227 C   0  0  0  0  0  0  0  0  0  0  0  0
   17.0379   70.5646  -10.2885 H   0  0  0  0  0  0  0  0  0  0  0  0
   20.2894   72.6571   -1.5561 O   0  0  0  0  0  0  0  0  0  0  0  0
   21.0593   73.9818   -1.0404 P   0  0  2  0  0  0  0  0  0  0  0  0
   22.3615   73.3833   -0.2877 O   0  0  0  0  0  0  0  0  0  0  0  0
   20.2187   74.8918   -0.1924 O   0  0  0  0  0  0  0  0  0  0  0  0
   21.6419   74.6646   -2.3809 O   0  0  0  0  0  0  0  0  0  0  0  0
   22.7743   73.5140   -4.1138 O   0  0  0  0  0  0  0  0  0  0  0  0
   24.2401   77.3513   -4.5548 O   0  0  0  0  0  0  0  0  0  0  0  0
   23.9198   76.1850   -1.8956 O   0  0  0  0  0  0  0  0  0  0  0  0
   22.2481   76.3282   -6.4084 O   0  0  0  0  0  0  0  0  0  0  0  0
   23.2702   76.3565   -4.2268 C   0  0  2  0  0  0  0  0  0  0  0  0
   23.8136   75.4590   -3.1147 C   0  0  2  0  0  0  0  0  0  0  0  0
   22.9921   75.5336   -5.4868 C   0  0  1  0  0  0  0  0  0  0  0  0
   22.9053   74.2483   -2.8959 C   0  0  1  0  0  0  0  0  0  0  0  0
   22.1875   74.2775   -5.1654 C   0  0  1  0  0  0  0  0  0  0  0  0
   24.4328   77.8868   -3.7690 H   0  0  0  0  0  0  0  0  0  0  0  0
   24.4946   76.9548   -2.0272 H   0  0  0  0  0  0  0  0  0  0  0  0
   22.7491   77.1311   -6.6211 H   0  0  0  0  0  0  0  0  0  0  0  0
   23.0900   72.3249   -6.1006 O   0  0  0  0  0  0  0  0  0  0  0  0
   21.5146   73.4314   -7.3224 O   0  0  0  0  0  0  0  0  0  0  0  0
   22.2036   73.3277   -6.3187 C   0  0  0  0  0  0  0  0  0  0  0  0
  1  4  1  0
  1 24  1  0
  1  2  1  6
  1  3  2  0
 25 28  1  0
 25 24  1  0
 25 26  1  1
 25 27  2  0
  6 11  1  0
  6 12  1  0
 29 36  1  0
 29 37  1  0
  9  7  1  6
  7 13  1  0
 10  8  1  6
  8 14  1  0
  4  5  1  0
 36 28  1  6
 33 30  1  6
 30 38  1  0
 34 31  1  1
 31 39  1  0
 35 32  1  6
 32 40  1  0
 41 43  1  0
 15 19  2  0
 42 43  2  0
 16 22  2  0
 12 17  1  6
 17 19  1  0
 17 20  1  0
 18 19  1  0
 18 22  1  0
 18 23  1  0
  9 10  1  0
  9 11  1  0
 10 12  1  0
 11  5  1  6
 33 34  1  0
 33 35  1  0
 34 36  1  0
 35 37  1  0
 37 43  1  6
 20 21  2  0
 21 22  1  0
M  CHG  3   2  -1  26  -1  41  -1
M  END
>  <COMPND>  (165) 
    udp_gluA.pdb 

>  <AUTHOR>  (165) 
    GENERATED BY OPEN BABEL 3.1.1

>  <MASTER>  (165) 
        0    0    0    0    0    0    0    0   56    0   56    0

>  <minimizedAffinity>  (165) 
-7.07693

>  <CNNscore>  (165) 
0.8744590282

>  <CNNaffinity>  (165) 
4.7142901421

>  <CNN_VS>  (165) 
4.1224536896

>  <CNNaffinity_variance>  (165) 
0.1990118474

$$$$
166
     RDKit          3D

 43 45  0  0  0  0  0  0  0  0999 V2000
   21.3553   71.9202   -2.5332 P   0  0  2  0  0  0  0  0  0  0  0  0
   21.9016   73.0811   -3.5194 O   0  0  0  0  0  0  0  0  0  0  0  0
   22.0491   70.5964   -2.6674 O   0  0  0  0  0  0  0  0  0  0  0  0
   19.7588   71.9066   -2.7960 O   0  0  0  0  0  0  0  0  0  0  0  0
   19.2061   70.8403   -3.5456 C   0  0  0  0  0  0  0  0  0  0  0  0
   17.4705   71.6459   -5.0005 O   0  0  0  0  0  0  0  0  0  0  0  0
   15.5639   70.1069   -3.2719 O   0  0  0  0  0  0  0  0  0  0  0  0
   15.8641   68.4698   -5.4319 O   0  0  0  0  0  0  0  0  0  0  0  0
   16.8974   69.7777   -3.6617 C   0  0  1  0  0  0  0  0  0  0  0  0
   16.9274   69.3423   -5.1114 C   0  0  2  0  0  0  0  0  0  0  0  0
   17.7075   71.0664   -3.6992 C   0  0  1  0  0  0  0  0  0  0  0  0
   16.8337   70.6712   -5.8418 C   0  0  2  0  0  0  0  0  0  0  0  0
   15.0271   69.2992   -3.2408 H   0  0  0  0  0  0  0  0  0  0  0  0
   15.9693   67.6385   -4.9421 H   0  0  0  0  0  0  0  0  0  0  0  0
   15.5090   70.5587   -8.3335 O   0  0  0  0  0  0  0  0  0  0  0  0
   19.4897   70.5777  -10.6568 O   0  0  0  0  0  0  0  0  0  0  0  0
   17.4995   70.6456   -7.1134 N   0  0  0  0  0  0  0  0  0  0  0  0
   17.4929   70.5672   -9.4882 N   0  0  0  0  0  0  0  0  0  0  0  0
   16.7408   70.5887   -8.3063 C   0  0  0  0  0  0  0  0  0  0  0  0
   18.8875   70.6786   -7.1703 C   0  0  0  0  0  0  0  0  0  0  0  0
   19.5904   70.6577   -8.3045 C   0  0  0  0  0  0  0  0  0  0  0  0
   18.8739   70.5977   -9.5954 C   0  0  0  0  0  0  0  0  0  0  0  0
   16.9867   70.5256  -10.3317 H   0  0  0  0  0  0  0  0  0  0  0  0
   21.4771   72.5990   -1.0712 O   0  0  0  0  0  0  0  0  0  0  0  0
   21.1166   72.0279    0.3976 P   0  0  2  0  0  0  0  0  0  0  0  0
   20.6279   70.5144    0.0962 O   0  0  0  0  0  0  0  0  0  0  0  0
   20.1221   72.8596    1.1547 O   0  0  0  0  0  0  0  0  0  0  0  0
   22.5429   71.8567    1.1316 O   0  0  0  0  0  0  0  0  0  0  0  0
   24.1893   73.2751    0.1898 O   0  0  0  0  0  0  0  0  0  0  0  0
   26.4224   71.0546    2.8639 O   0  0  0  0  0  0  0  0  0  0  0  0
   24.3810   69.7709    1.2150 O   0  0  0  0  0  0  0  0  0  0  0  0
   25.7080   73.8025    3.4880 O   0  0  0  0  0  0  0  0  0  0  0  0
   25.2558   71.7150    2.3732 C   0  0  2  0  0  0  0  0  0  0  0  0
   24.8468   71.1031    1.0331 C   0  0  2  0  0  0  0  0  0  0  0  0
   25.5892   73.1986    2.2012 C   0  0  1  0  0  0  0  0  0  0  0  0
   23.7454   71.9294    0.3677 C   0  0  1  0  0  0  0  0  0  0  0  0
   24.5003   73.9273    1.4191 C   0  0  1  0  0  0  0  0  0  0  0  0
   26.2344   70.1100    2.9810 H   0  0  0  0  0  0  0  0  0  0  0  0
   25.0748   69.2410    1.6370 H   0  0  0  0  0  0  0  0  0  0  0  0
   26.3978   73.3478    3.9961 H   0  0  0  0  0  0  0  0  0  0  0  0
   25.2042   76.0762    2.0421 O   0  0  0  0  0  0  0  0  0  0  0  0
   25.1421   75.6080   -0.1886 O   0  0  0  0  0  0  0  0  0  0  0  0
   24.9762   75.2719    0.9743 C   0  0  0  0  0  0  0  0  0  0  0  0
  1  4  1  0
  1 24  1  0
  1  2  1  6
  1  3  2  0
 25 28  1  0
 25 24  1  0
 25 26  1  6
 25 27  2  0
  6 11  1  0
  6 12  1  0
 29 36  1  0
 29 37  1  0
  9  7  1  6
  7 13  1  0
 10  8  1  1
  8 14  1  0
  4  5  1  0
 36 28  1  1
 33 30  1  6
 30 38  1  0
 34 31  1  1
 31 39  1  0
 35 32  1  1
 32 40  1  0
 41 43  1  0
 15 19  2  0
 42 43  2  0
 16 22  2  0
 12 17  1  6
 17 19  1  0
 17 20  1  0
 18 19  1  0
 18 22  1  0
 18 23  1  0
  9 10  1  0
  9 11  1  0
 10 12  1  0
 11  5  1  6
 33 34  1  0
 33 35  1  0
 34 36  1  0
 35 37  1  0
 37 43  1  6
 20 21  2  0
 21 22  1  0
M  CHG  3   2  -1  26  -1  41  -1
M  END
>  <COMPND>  (166) 
    udp_gluA.pdb 

>  <AUTHOR>  (166) 
    GENERATED BY OPEN BABEL 3.1.1

>  <MASTER>  (166) 
        0    0    0    0    0    0    0    0   56    0   56    0

>  <minimizedAffinity>  (166) 
-7.52675

>  <CNNscore>  (166) 
0.8691744208

>  <CNNaffinity>  (166) 
4.8247842789

>  <CNN_VS>  (166) 
4.1935791969

>  <CNNaffinity_variance>  (166) 
0.1275569648

$$$$
167
     RDKit          3D

 43 45  0  0  0  0  0  0  0  0999 V2000
   23.1315   71.8541   -3.3694 P   0  0  2  0  0  0  0  0  0  0  0  0
   22.9352   72.2190   -4.9338 O   0  0  0  0  0  0  0  0  0  0  0  0
   24.1828   70.8214   -3.0868 O   0  0  0  0  0  0  0  0  0  0  0  0
   21.6375   71.4923   -2.8645 O   0  0  0  0  0  0  0  0  0  0  0  0
   20.8003   70.7342   -3.7182 C   0  0  0  0  0  0  0  0  0  0  0  0
   18.8517   71.7465   -4.6960 O   0  0  0  0  0  0  0  0  0  0  0  0
   17.2976   70.4544   -2.4808 O   0  0  0  0  0  0  0  0  0  0  0  0
   16.8236   68.7918   -4.5897 O   0  0  0  0  0  0  0  0  0  0  0  0
   18.4331   69.9636   -3.1937 C   0  0  1  0  0  0  0  0  0  0  0  0
   18.0294   69.5272   -4.5861 C   0  0  2  0  0  0  0  0  0  0  0  0
   19.3517   71.1428   -3.4832 C   0  0  1  0  0  0  0  0  0  0  0  0
   17.9054   70.8571   -5.3099 C   0  0  2  0  0  0  0  0  0  0  0  0
   16.6959   69.7188   -2.2845 H   0  0  0  0  0  0  0  0  0  0  0  0
   16.9544   67.9541   -4.1173 H   0  0  0  0  0  0  0  0  0  0  0  0
   16.0178   70.1805   -7.2988 O   0  0  0  0  0  0  0  0  0  0  0  0
   19.1703   70.4729  -10.6484 O   0  0  0  0  0  0  0  0  0  0  0  0
   18.2059   70.7493   -6.7095 N   0  0  0  0  0  0  0  0  0  0  0  0
   17.5900   70.3258   -8.9651 N   0  0  0  0  0  0  0  0  0  0  0  0
   17.1849   70.4032   -7.6260 C   0  0  0  0  0  0  0  0  0  0  0  0
   19.4982   70.9868   -7.1617 C   0  0  0  0  0  0  0  0  0  0  0  0
   19.8690   70.9092   -8.4413 C   0  0  0  0  0  0  0  0  0  0  0  0
   18.8629   70.5524   -9.4629 C   0  0  0  0  0  0  0  0  0  0  0  0
   16.8970   70.0844   -9.6215 H   0  0  0  0  0  0  0  0  0  0  0  0
   23.4048   73.2961   -2.6920 O   0  0  0  0  0  0  0  0  0  0  0  0
   22.3823   74.4335   -2.1678 P   0  0  2  0  0  0  0  0  0  0  0  0
   21.0584   74.1823   -3.0647 O   0  0  0  0  0  0  0  0  0  0  0  0
   22.9247   75.8313   -2.2439 O   0  0  0  0  0  0  0  0  0  0  0  0
   21.9655   73.9568   -0.6841 O   0  0  0  0  0  0  0  0  0  0  0  0
   20.9081   75.1562    1.0630 O   0  0  0  0  0  0  0  0  0  0  0  0
   23.3502   72.5766    3.1724 O   0  0  0  0  0  0  0  0  0  0  0  0
   24.3355   73.9175    0.7712 O   0  0  0  0  0  0  0  0  0  0  0  0
   20.4917   72.0735    3.0087 O   0  0  0  0  0  0  0  0  0  0  0  0
   22.5202   72.9904    2.0872 C   0  0  2  0  0  0  0  0  0  0  0  0
   23.1169   74.2368    1.4329 C   0  0  2  0  0  0  0  0  0  0  0  0
   21.1289   73.2969    2.6460 C   0  0  1  0  0  0  0  0  0  0  0  0
   22.1440   74.8421    0.4201 C   0  0  1  0  0  0  0  0  0  0  0  0
   20.2601   74.0127    1.6158 C   0  0  1  0  0  0  0  0  0  0  0  0
   24.2399   72.3764    2.8413 H   0  0  0  0  0  0  0  0  0  0  0  0
   24.9574   73.5327    1.4080 H   0  0  0  0  0  0  0  0  0  0  0  0
   21.0347   71.6080    3.6640 H   0  0  0  0  0  0  0  0  0  0  0  0
   19.1973   74.6535    3.6061 O   0  0  0  0  0  0  0  0  0  0  0  0
   18.0462   74.9708    1.6635 O   0  0  0  0  0  0  0  0  0  0  0  0
   19.0442   74.5948    2.2600 C   0  0  0  0  0  0  0  0  0  0  0  0
  1  4  1  0
  1 24  1  0
  1  2  1  6
  1  3  2  0
 25 28  1  0
 25 24  1  0
 25 26  1  6
 25 27  2  0
  6 11  1  0
  6 12  1  0
 29 36  1  0
 29 37  1  0
  9  7  1  1
  7 13  1  0
 10  8  1  1
  8 14  1  0
  4  5  1  0
 36 28  1  6
 33 30  1  1
 30 38  1  0
 34 31  1  6
 31 39  1  0
 35 32  1  6
 32 40  1  0
 41 43  1  0
 15 19  2  0
 42 43  2  0
 16 22  2  0
 12 17  1  6
 17 19  1  0
 17 20  1  0
 18 19  1  0
 18 22  1  0
 18 23  1  0
  9 10  1  0
  9 11  1  0
 10 12  1  0
 11  5  1  6
 33 34  1  0
 33 35  1  0
 34 36  1  0
 35 37  1  0
 37 43  1  1
 20 21  2  0
 21 22  1  0
M  CHG  3   2  -1  26  -1  41  -1
M  END
>  <COMPND>  (167) 
    udp_gluA.pdb 

>  <AUTHOR>  (167) 
    GENERATED BY OPEN BABEL 3.1.1

>  <MASTER>  (167) 
        0    0    0    0    0    0    0    0   56    0   56    0

>  <minimizedAffinity>  (167) 
-7.06355

>  <CNNscore>  (167) 
0.8403276801

>  <CNNaffinity>  (167) 
4.6127409935

>  <CNN_VS>  (167) 
3.8762140274

>  <CNNaffinity_variance>  (167) 
0.0086863115

$$$$
168
     RDKit          3D

 43 45  0  0  0  0  0  0  0  0999 V2000
   20.8562   71.0600   -1.4500 P   0  0  2  0  0  0  0  0  0  0  0  0
   21.9470   70.7634   -2.6081 O   0  0  0  0  0  0  0  0  0  0  0  0
   21.0749   70.3125   -0.1673 O   0  0  0  0  0  0  0  0  0  0  0  0
   19.4352   70.8026   -2.1797 O   0  0  0  0  0  0  0  0  0  0  0  0
   19.2012   71.4095   -3.4373 C   0  0  0  0  0  0  0  0  0  0  0  0
   17.4709   72.0001   -4.9977 O   0  0  0  0  0  0  0  0  0  0  0  0
   15.5760   70.6050   -3.1391 O   0  0  0  0  0  0  0  0  0  0  0  0
   15.9597   68.7505   -5.1012 O   0  0  0  0  0  0  0  0  0  0  0  0
   16.9248   70.2739   -3.4703 C   0  0  1  0  0  0  0  0  0  0  0  0
   16.9928   69.6834   -4.8627 C   0  0  2  0  0  0  0  0  0  0  0  0
   17.7000   71.5737   -3.6372 C   0  0  1  0  0  0  0  0  0  0  0  0
   16.8762   70.9210   -5.7361 C   0  0  2  0  0  0  0  0  0  0  0  0
   15.0608   69.7902   -3.0274 H   0  0  0  0  0  0  0  0  0  0  0  0
   16.0786   67.9813   -4.5214 H   0  0  0  0  0  0  0  0  0  0  0  0
   15.5970   70.6418   -8.2386 O   0  0  0  0  0  0  0  0  0  0  0  0
   19.6206   70.3705  -10.4704 O   0  0  0  0  0  0  0  0  0  0  0  0
   17.5653   70.7757   -6.9871 N   0  0  0  0  0  0  0  0  0  0  0  0
   17.6022   70.5059   -9.3476 N   0  0  0  0  0  0  0  0  0  0  0  0
   16.8284   70.6421   -8.1876 C   0  0  0  0  0  0  0  0  0  0  0  0
   18.9546   70.7682   -7.0169 C   0  0  0  0  0  0  0  0  0  0  0  0
   19.6783   70.6376   -8.1304 C   0  0  0  0  0  0  0  0  0  0  0  0
   18.9853   70.4920   -9.4274 C   0  0  0  0  0  0  0  0  0  0  0  0
   17.1113   70.4093  -10.1956 H   0  0  0  0  0  0  0  0  0  0  0  0
   20.9058   72.6694   -1.3084 O   0  0  0  0  0  0  0  0  0  0  0  0
   22.1521   73.6794   -1.1074 P   0  0  2  0  0  0  0  0  0  0  0  0
   21.6043   75.0707   -1.7274 O   0  0  0  0  0  0  0  0  0  0  0  0
   23.4390   73.1973   -1.7119 O   0  0  0  0  0  0  0  0  0  0  0  0
   22.2157   73.9396    0.4834 O   0  0  0  0  0  0  0  0  0  0  0  0
   23.9216   73.1927    1.9466 O   0  0  0  0  0  0  0  0  0  0  0  0
   20.6954   73.5075    4.5080 O   0  0  0  0  0  0  0  0  0  0  0  0
   20.3609   72.3707    1.8378 O   0  0  0  0  0  0  0  0  0  0  0  0
   22.7925   75.5204    4.5484 O   0  0  0  0  0  0  0  0  0  0  0  0
   21.5045   73.8507    3.3830 C   0  0  2  0  0  0  0  0  0  0  0  0
   21.6167   72.6469    2.4471 C   0  0  2  0  0  0  0  0  0  0  0  0
   22.8874   74.2533    3.9003 C   0  0  1  0  0  0  0  0  0  0  0  0
   22.6560   72.8988    1.3539 C   0  0  1  0  0  0  0  0  0  0  0  0
   23.8980   74.3621    2.7621 C   0  0  1  0  0  0  0  0  0  0  0  0
   19.8115   73.2481    4.2036 H   0  0  0  0  0  0  0  0  0  0  0  0
   19.6965   72.2101    2.5257 H   0  0  0  0  0  0  0  0  0  0  0  0
   22.1522   75.4648    5.2749 H   0  0  0  0  0  0  0  0  0  0  0  0
   26.1206   73.6386    2.5671 O   0  0  0  0  0  0  0  0  0  0  0  0
   25.6462   75.0990    4.2527 O   0  0  0  0  0  0  0  0  0  0  0  0
   25.2922   74.4277    3.2951 C   0  0  0  0  0  0  0  0  0  0  0  0
  1  4  1  0
  1 24  1  0
  1  2  1  6
  1  3  2  0
 25 28  1  0
 25 24  1  0
 25 26  1  6
 25 27  2  0
  6 11  1  0
  6 12  1  0
 29 36  1  0
 29 37  1  0
  9  7  1  6
  7 13  1  0
 10  8  1  6
  8 14  1  0
  4  5  1  0
 36 28  1  1
 33 30  1  1
 30 38  1  0
 34 31  1  6
 31 39  1  0
 35 32  1  6
 32 40  1  0
 41 43  1  0
 15 19  2  0
 42 43  2  0
 16 22  2  0
 12 17  1  6
 17 19  1  0
 17 20  1  0
 18 19  1  0
 18 22  1  0
 18 23  1  0
  9 10  1  0
  9 11  1  0
 10 12  1  0
 11  5  1  6
 33 34  1  0
 33 35  1  0
 34 36  1  0
 35 37  1  0
 37 43  1  1
 20 21  2  0
 21 22  1  0
M  CHG  3   2  -1  26  -1  41  -1
M  END
>  <COMPND>  (168) 
    udp_gluA.pdb 

>  <AUTHOR>  (168) 
    GENERATED BY OPEN BABEL 3.1.1

>  <MASTER>  (168) 
        0    0    0    0    0    0    0    0   56    0   56    0

>  <minimizedAffinity>  (168) 
-6.79893

>  <CNNscore>  (168) 
0.8218844533

>  <CNNaffinity>  (168) 
4.5558271408

>  <CNN_VS>  (168) 
3.7443635464

>  <CNNaffinity_variance>  (168) 
0.1437897235

$$$$
169
     RDKit          3D

 43 45  0  0  0  0  0  0  0  0999 V2000
   21.2430   73.1873   -4.5301 P   0  0  2  0  0  0  0  0  0  0  0  0
   21.5980   74.5458   -3.7256 O   0  0  0  0  0  0  0  0  0  0  0  0
   21.5676   73.2152   -5.9949 O   0  0  0  0  0  0  0  0  0  0  0  0
   19.6927   72.9099   -4.1592 O   0  0  0  0  0  0  0  0  0  0  0  0
   19.3358   71.6363   -3.6541 C   0  0  0  0  0  0  0  0  0  0  0  0
   17.4013   71.8223   -5.0687 O   0  0  0  0  0  0  0  0  0  0  0  0
   15.9966   70.0952   -3.0599 O   0  0  0  0  0  0  0  0  0  0  0  0
   16.6046   68.3268   -5.0447 O   0  0  0  0  0  0  0  0  0  0  0  0
   17.3541   70.0483   -3.4998 C   0  0  1  0  0  0  0  0  0  0  0  0
   17.4338   69.4598   -4.8925 C   0  0  2  0  0  0  0  0  0  0  0  0
   17.8227   71.4785   -3.7310 C   0  0  1  0  0  0  0  0  0  0  0  0
   16.9902   70.6292   -5.7549 C   0  0  2  0  0  0  0  0  0  0  0  0
   15.6751   69.1927   -2.9056 H   0  0  0  0  0  0  0  0  0  0  0  0
   16.9285   67.6103   -4.4758 H   0  0  0  0  0  0  0  0  0  0  0  0
   15.5439   70.5545   -8.1796 O   0  0  0  0  0  0  0  0  0  0  0  0
   19.4061   70.5537  -10.6950 O   0  0  0  0  0  0  0  0  0  0  0  0
   17.5926   70.6088   -7.0578 N   0  0  0  0  0  0  0  0  0  0  0  0
   17.4689   70.5531   -9.4301 N   0  0  0  0  0  0  0  0  0  0  0  0
   16.7758   70.5712   -8.2125 C   0  0  0  0  0  0  0  0  0  0  0  0
   18.9765   70.6277   -7.1824 C   0  0  0  0  0  0  0  0  0  0  0  0
   19.6227   70.6102   -8.3498 C   0  0  0  0  0  0  0  0  0  0  0  0
   18.8432   70.5701   -9.6045 C   0  0  0  0  0  0  0  0  0  0  0  0
   16.9216   70.5249  -10.2480 H   0  0  0  0  0  0  0  0  0  0  0  0
   22.0269   72.0517   -3.6883 O   0  0  0  0  0  0  0  0  0  0  0  0
   23.5392   72.0071   -3.1184 P   0  0  2  0  0  0  0  0  0  0  0  0
   24.3301   73.0343   -4.0878 O   0  0  0  0  0  0  0  0  0  0  0  0
   24.1345   70.6302   -3.0590 O   0  0  0  0  0  0  0  0  0  0  0  0
   23.4633   72.7657   -1.6967 O   0  0  0  0  0  0  0  0  0  0  0  0
   23.3738   71.4162    0.2476 O   0  0  0  0  0  0  0  0  0  0  0  0
   22.3213   75.1198    1.7455 O   0  0  0  0  0  0  0  0  0  0  0  0
   21.2493   74.1971   -0.8107 O   0  0  0  0  0  0  0  0  0  0  0  0
   24.9830   74.0543    2.2258 O   0  0  0  0  0  0  0  0  0  0  0  0
   22.9934   74.2089    0.8757 C   0  0  2  0  0  0  0  0  0  0  0  0
   21.9635   73.3791    0.1088 C   0  0  2  0  0  0  0  0  0  0  0  0
   23.8767   73.3003    1.7337 C   0  0  1  0  0  0  0  0  0  0  0  0
   22.6389   72.2410   -0.6575 C   0  0  1  0  0  0  0  0  0  0  0  0
   24.4109   72.1200    0.9275 C   0  0  1  0  0  0  0  0  0  0  0  0
   21.7537   75.7076    1.2223 H   0  0  0  0  0  0  0  0  0  0  0  0
   20.8184   74.9216   -0.3312 H   0  0  0  0  0  0  0  0  0  0  0  0
   24.6567   74.8087    2.7407 H   0  0  0  0  0  0  0  0  0  0  0  0
   26.0493   71.5717    2.5138 O   0  0  0  0  0  0  0  0  0  0  0  0
   24.5643   69.9376    1.9449 O   0  0  0  0  0  0  0  0  0  0  0  0
   24.9871   71.0783    1.8303 C   0  0  0  0  0  0  0  0  0  0  0  0
  1  4  1  0
  1 24  1  0
  1  2  1  1
  1  3  2  0
 25 28  1  0
 25 24  1  0
 25 26  1  6
 25 27  2  0
  6 11  1  0
  6 12  1  0
 29 36  1  0
 29 37  1  0
  9  7  1  6
  7 13  1  0
 10  8  1  1
  8 14  1  0
  4  5  1  0
 36 28  1  6
 33 30  1  1
 30 38  1  0
 34 31  1  6
 31 39  1  0
 35 32  1  6
 32 40  1  0
 41 43  1  0
 15 19  2  0
 42 43  2  0
 16 22  2  0
 12 17  1  6
 17 19  1  0
 17 20  1  0
 18 19  1  0
 18 22  1  0
 18 23  1  0
  9 10  1  0
  9 11  1  0
 10 12  1  0
 11  5  1  6
 33 34  1  0
 33 35  1  0
 34 36  1  0
 35 37  1  0
 37 43  1  1
 20 21  2  0
 21 22  1  0
M  CHG  3   2  -1  26  -1  41  -1
M  END
>  <COMPND>  (169) 
    udp_gluA.pdb 

>  <AUTHOR>  (169) 
    GENERATED BY OPEN BABEL 3.1.1

>  <MASTER>  (169) 
        0    0    0    0    0    0    0    0   56    0   56    0

>  <minimizedAffinity>  (169) 
-7.91216

>  <CNNscore>  (169) 
0.8108190298

>  <CNNaffinity>  (169) 
4.5999612808

>  <CNN_VS>  (169) 
3.7297360897

>  <CNNaffinity_variance>  (169) 
0.0293767955

$$$$
170
     RDKit          3D

 43 45  0  0  0  0  0  0  0  0999 V2000
   22.8012   72.9475   -4.2810 P   0  0  2  0  0  0  0  0  0  0  0  0
   23.2225   73.8149   -5.5806 O   0  0  0  0  0  0  0  0  0  0  0  0
   23.8531   71.9998   -3.7837 O   0  0  0  0  0  0  0  0  0  0  0  0
   21.3920   72.2741   -4.7034 O   0  0  0  0  0  0  0  0  0  0  0  0
   20.8668   71.2396   -3.8920 C   0  0  0  0  0  0  0  0  0  0  0  0
   18.7991   71.9778   -4.8705 O   0  0  0  0  0  0  0  0  0  0  0  0
   17.4441   70.6780   -2.5326 O   0  0  0  0  0  0  0  0  0  0  0  0
   17.0981   68.8414   -4.5184 O   0  0  0  0  0  0  0  0  0  0  0  0
   18.6077   70.2626   -3.2481 C   0  0  1  0  0  0  0  0  0  0  0  0
   18.2191   69.6969   -4.5976 C   0  0  2  0  0  0  0  0  0  0  0  0
   19.3892   71.5097   -3.6385 C   0  0  1  0  0  0  0  0  0  0  0  0
   17.9377   70.9568   -5.3986 C   0  0  2  0  0  0  0  0  0  0  0  0
   16.9285   69.8982   -2.2725 H   0  0  0  0  0  0  0  0  0  0  0  0
   17.3281   68.0544   -3.9991 H   0  0  0  0  0  0  0  0  0  0  0  0
   16.0505   70.0676   -7.3024 O   0  0  0  0  0  0  0  0  0  0  0  0
   19.1095   70.3541  -10.7382 O   0  0  0  0  0  0  0  0  0  0  0  0
   18.2143   70.7900   -6.7973 N   0  0  0  0  0  0  0  0  0  0  0  0
   17.5762   70.2102   -9.0116 N   0  0  0  0  0  0  0  0  0  0  0  0
   17.1958   70.3375   -7.6691 C   0  0  0  0  0  0  0  0  0  0  0  0
   19.4809   71.0748   -7.2927 C   0  0  0  0  0  0  0  0  0  0  0  0
   19.8285   70.9487   -8.5749 C   0  0  0  0  0  0  0  0  0  0  0  0
   18.8231   70.4806   -9.5515 C   0  0  0  0  0  0  0  0  0  0  0  0
   16.8845   69.8947   -9.6373 H   0  0  0  0  0  0  0  0  0  0  0  0
   22.3580   74.0804   -3.2166 O   0  0  0  0  0  0  0  0  0  0  0  0
   23.1262   74.6859   -1.9294 P   0  0  2  0  0  0  0  0  0  0  0  0
   22.4142   76.1240   -1.7165 O   0  0  0  0  0  0  0  0  0  0  0  0
   24.6188   74.7506   -2.0771 O   0  0  0  0  0  0  0  0  0  0  0  0
   22.6144   73.7906   -0.6888 O   0  0  0  0  0  0  0  0  0  0  0  0
   23.6919   73.5672    1.4084 O   0  0  0  0  0  0  0  0  0  0  0  0
   21.6111   70.0075    1.1488 O   0  0  0  0  0  0  0  0  0  0  0  0
   23.0049   71.0816   -1.1832 O   0  0  0  0  0  0  0  0  0  0  0  0
   20.6539   72.1340    2.8845 O   0  0  0  0  0  0  0  0  0  0  0  0
   21.8485   71.3975    0.9260 C   0  0  2  0  0  0  0  0  0  0  0  0
   23.1497   71.5755    0.1433 C   0  0  2  0  0  0  0  0  0  0  0  0
   21.9494   72.0845    2.2897 C   0  0  1  0  0  0  0  0  0  0  0  0
   23.5557   73.0488    0.0847 C   0  0  1  0  0  0  0  0  0  0  0  0
   22.4804   73.5090    2.1579 C   0  0  1  0  0  0  0  0  0  0  0  0
   21.5434   69.5501    0.2959 H   0  0  0  0  0  0  0  0  0  0  0  0
   22.7471   70.1472   -1.1535 H   0  0  0  0  0  0  0  0  0  0  0  0
   20.3045   71.2336    2.9738 H   0  0  0  0  0  0  0  0  0  0  0  0
   23.7802   75.0577    3.3469 O   0  0  0  0  0  0  0  0  0  0  0  0
   22.4675   73.6477    4.5667 O   0  0  0  0  0  0  0  0  0  0  0  0
   22.8842   74.0501    3.4908 C   0  0  0  0  0  0  0  0  0  0  0  0
  1  4  1  0
  1 24  1  0
  1  2  1  6
  1  3  2  0
 25 28  1  0
 25 24  1  0
 25 26  1  1
 25 27  2  0
  6 11  1  0
  6 12  1  0
 29 36  1  0
 29 37  1  0
  9  7  1  1
  7 13  1  0
 10  8  1  1
  8 14  1  0
  4  5  1  0
 36 28  1  6
 33 30  1  1
 30 38  1  0
 34 31  1  6
 31 39  1  0
 35 32  1  6
 32 40  1  0
 41 43  1  0
 15 19  2  0
 42 43  2  0
 16 22  2  0
 12 17  1  6
 17 19  1  0
 17 20  1  0
 18 19  1  0
 18 22  1  0
 18 23  1  0
  9 10  1  0
  9 11  1  0
 10 12  1  0
 11  5  1  6
 33 34  1  0
 33 35  1  0
 34 36  1  0
 35 37  1  0
 37 43  1  1
 20 21  2  0
 21 22  1  0
M  CHG  3   2  -1  26  -1  41  -1
M  END
>  <COMPND>  (170) 
    udp_gluA.pdb 

>  <AUTHOR>  (170) 
    GENERATED BY OPEN BABEL 3.1.1

>  <MASTER>  (170) 
        0    0    0    0    0    0    0    0   56    0   56    0

>  <minimizedAffinity>  (170) 
-7.71488

>  <CNNscore>  (170) 
0.7993205786

>  <CNNaffinity>  (170) 
4.6067447662

>  <CNN_VS>  (170) 
3.6822659969

>  <CNNaffinity_variance>  (170) 
0.0433675051

$$$$
171
     RDKit          3D

 43 45  0  0  0  0  0  0  0  0999 V2000
   20.7156   71.9257   -2.1272 P   0  0  2  0  0  0  0  0  0  0  0  0
   20.5999   70.6494   -1.1390 O   0  0  0  0  0  0  0  0  0  0  0  0
   20.2919   73.2334   -1.5255 O   0  0  0  0  0  0  0  0  0  0  0  0
   19.9068   71.4666   -3.4512 O   0  0  0  0  0  0  0  0  0  0  0  0
   19.1418   70.2764   -3.3974 C   0  0  0  0  0  0  0  0  0  0  0  0
   17.4979   71.3548   -4.7803 O   0  0  0  0  0  0  0  0  0  0  0  0
   15.4514   69.7907   -3.2450 O   0  0  0  0  0  0  0  0  0  0  0  0
   15.6742   68.3684   -5.5610 O   0  0  0  0  0  0  0  0  0  0  0  0
   16.7649   69.4057   -3.6514 C   0  0  1  0  0  0  0  0  0  0  0  0
   16.7914   69.1218   -5.1383 C   0  0  2  0  0  0  0  0  0  0  0  0
   17.6669   70.6276   -3.5442 C   0  0  1  0  0  0  0  0  0  0  0  0
   16.8086   70.5224   -5.7265 C   0  0  2  0  0  0  0  0  0  0  0  0
   14.8569   69.0261   -3.3051 H   0  0  0  0  0  0  0  0  0  0  0  0
   15.7092   67.4853   -5.1598 H   0  0  0  0  0  0  0  0  0  0  0  0
   15.5336   70.4205   -8.2445 O   0  0  0  0  0  0  0  0  0  0  0  0
   19.5439   70.7494  -10.4925 O   0  0  0  0  0  0  0  0  0  0  0  0
   17.4955   70.5795   -6.9858 N   0  0  0  0  0  0  0  0  0  0  0  0
   17.5323   70.5834   -9.3617 N   0  0  0  0  0  0  0  0  0  0  0  0
   16.7609   70.5204   -8.1938 C   0  0  0  0  0  0  0  0  0  0  0  0
   18.8800   70.6943   -7.0162 C   0  0  0  0  0  0  0  0  0  0  0  0
   19.6013   70.7533   -8.1373 C   0  0  0  0  0  0  0  0  0  0  0  0
   18.9107   70.6970   -9.4424 C   0  0  0  0  0  0  0  0  0  0  0  0
   17.0432   70.5419  -10.2152 H   0  0  0  0  0  0  0  0  0  0  0  0
   22.2582   71.8739   -2.6076 O   0  0  0  0  0  0  0  0  0  0  0  0
   23.2717   73.0526   -3.0518 P   0  0  2  0  0  0  0  0  0  0  0  0
   24.3428   72.2847   -3.9916 O   0  0  0  0  0  0  0  0  0  0  0  0
   23.8825   73.8042   -1.9047 O   0  0  0  0  0  0  0  0  0  0  0  0
   22.4166   73.9653   -4.0707 O   0  0  0  0  0  0  0  0  0  0  0  0
   23.4335   75.7268   -5.2840 O   0  0  0  0  0  0  0  0  0  0  0  0
   19.4373   76.7514   -5.5048 O   0  0  0  0  0  0  0  0  0  0  0  0
   20.5751   75.7565   -3.0047 O   0  0  0  0  0  0  0  0  0  0  0  0
   20.7778   75.5991   -7.8126 O   0  0  0  0  0  0  0  0  0  0  0  0
   20.5527   75.8637   -5.4284 C   0  0  2  0  0  0  0  0  0  0  0  0
   21.3371   76.1367   -4.1447 C   0  0  2  0  0  0  0  0  0  0  0  0
   21.4361   76.1078   -6.6540 C   0  0  1  0  0  0  0  0  0  0  0  0
   22.6598   75.3692   -4.1382 C   0  0  1  0  0  0  0  0  0  0  0  0
   22.7866   75.4111   -6.5149 C   0  0  1  0  0  0  0  0  0  0  0  0
   18.8616   76.6145   -4.7359 H   0  0  0  0  0  0  0  0  0  0  0  0
   19.7342   76.2395   -3.0027 H   0  0  0  0  0  0  0  0  0  0  0  0
   19.9168   76.0343   -7.9125 H   0  0  0  0  0  0  0  0  0  0  0  0
   24.9993   76.0049   -7.0176 O   0  0  0  0  0  0  0  0  0  0  0  0
   23.4633   76.2032   -8.6911 O   0  0  0  0  0  0  0  0  0  0  0  0
   23.7509   75.9139   -7.5393 C   0  0  0  0  0  0  0  0  0  0  0  0
  1  4  1  0
  1 24  1  0
  1  2  1  1
  1  3  2  0
 25 28  1  0
 25 24  1  0
 25 26  1  6
 25 27  2  0
  6 11  1  0
  6 12  1  0
 29 36  1  0
 29 37  1  0
  9  7  1  6
  7 13  1  0
 10  8  1  6
  8 14  1  0
  4  5  1  0
 36 28  1  6
 33 30  1  6
 30 38  1  0
 34 31  1  1
 31 39  1  0
 35 32  1  6
 32 40  1  0
 41 43  1  0
 15 19  2  0
 42 43  2  0
 16 22  2  0
 12 17  1  6
 17 19  1  0
 17 20  1  0
 18 19  1  0
 18 22  1  0
 18 23  1  0
  9 10  1  0
  9 11  1  0
 10 12  1  0
 11  5  1  6
 33 34  1  0
 33 35  1  0
 34 36  1  0
 35 37  1  0
 37 43  1  6
 20 21  2  0
 21 22  1  0
M  CHG  3   2  -1  26  -1  41  -1
M  END
>  <COMPND>  (171) 
    udp_gluA.pdb 

>  <AUTHOR>  (171) 
    GENERATED BY OPEN BABEL 3.1.1

>  <MASTER>  (171) 
        0    0    0    0    0    0    0    0   56    0   56    0

>  <minimizedAffinity>  (171) 
-7.03171

>  <CNNscore>  (171) 
0.7759104967

>  <CNNaffinity>  (171) 
4.5164380074

>  <CNN_VS>  (171) 
3.5043516159

>  <CNNaffinity_variance>  (171) 
0.3795543313

$$$$
172
     RDKit          3D

 43 45  0  0  0  0  0  0  0  0999 V2000
   22.8732   72.9653   -3.5403 P   0  0  2  0  0  0  0  0  0  0  0  0
   23.8189   72.5064   -4.7707 O   0  0  0  0  0  0  0  0  0  0  0  0
   22.2996   74.3465   -3.6630 O   0  0  0  0  0  0  0  0  0  0  0  0
   23.7830   72.6962   -2.2297 O   0  0  0  0  0  0  0  0  0  0  0  0
   23.2159   72.9291   -0.9535 C   0  0  0  0  0  0  0  0  0  0  0  0
   24.3052   71.3639    0.5099 O   0  0  0  0  0  0  0  0  0  0  0  0
   21.5752   70.2404    1.0358 O   0  0  0  0  0  0  0  0  0  0  0  0
   22.0207   71.7805    3.2416 O   0  0  0  0  0  0  0  0  0  0  0  0
   21.9680   71.5956    0.8177 C   0  0  1  0  0  0  0  0  0  0  0  0
   22.6730   72.1405    2.0418 C   0  0  2  0  0  0  0  0  0  0  0  0
   23.0820   71.6007   -0.2202 C   0  0  1  0  0  0  0  0  0  0  0  0
   24.0520   71.5157    1.9157 C   0  0  2  0  0  0  0  0  0  0  0  0
   20.8642   70.2117    1.6955 H   0  0  0  0  0  0  0  0  0  0  0  0
   21.1478   72.2034    3.2744 H   0  0  0  0  0  0  0  0  0  0  0  0
   26.7149   70.6746    2.3377 O   0  0  0  0  0  0  0  0  0  0  0  0
   27.9123   74.7514    4.1238 O   0  0  0  0  0  0  0  0  0  0  0  0
   25.0803   72.3370    2.4893 N   0  0  0  0  0  0  0  0  0  0  0  0
   27.3085   72.7056    3.2278 N   0  0  0  0  0  0  0  0  0  0  0  0
   26.3858   71.8182    2.6583 C   0  0  0  0  0  0  0  0  0  0  0  0
   24.7920   73.6402    2.8759 C   0  0  0  0  0  0  0  0  0  0  0  0
   25.6821   74.4741    3.4173 C   0  0  0  0  0  0  0  0  0  0  0  0
   27.0688   74.0099    3.6288 C   0  0  0  0  0  0  0  0  0  0  0  0
   28.2236   72.3663    3.3573 H   0  0  0  0  0  0  0  0  0  0  0  0
   21.7730   71.7833   -3.4678 O   0  0  0  0  0  0  0  0  0  0  0  0
   20.1640   71.8385   -3.3198 P   0  0  2  0  0  0  0  0  0  0  0  0
   19.8859   73.3695   -2.8736 O   0  0  0  0  0  0  0  0  0  0  0  0
   19.5958   70.8093   -2.3861 O   0  0  0  0  0  0  0  0  0  0  0  0
   19.6106   71.7484   -4.8325 O   0  0  0  0  0  0  0  0  0  0  0  0
   18.4699   69.9657   -5.8955 O   0  0  0  0  0  0  0  0  0  0  0  0
   20.4904   71.6799   -9.0652 O   0  0  0  0  0  0  0  0  0  0  0  0
   21.8103   71.3308   -6.4825 O   0  0  0  0  0  0  0  0  0  0  0  0
   17.6347   72.1200   -8.7457 O   0  0  0  0  0  0  0  0  0  0  0  0
   19.8078   71.6620   -7.8116 C   0  0  2  0  0  0  0  0  0  0  0  0
   20.5570   70.7562   -6.8339 C   0  0  2  0  0  0  0  0  0  0  0  0
   18.3926   71.1312   -8.0512 C   0  0  1  0  0  0  0  0  0  0  0  0
   19.7390   70.5292   -5.5618 C   0  0  1  0  0  0  0  0  0  0  0  0
   17.6877   70.8109   -6.7363 C   0  0  1  0  0  0  0  0  0  0  0  0
   21.3924   72.0138   -8.9377 H   0  0  0  0  0  0  0  0  0  0  0  0
   22.3345   71.4778   -7.2850 H   0  0  0  0  0  0  0  0  0  0  0  0
   18.0727   72.3330   -9.5845 H   0  0  0  0  0  0  0  0  0  0  0  0
   16.3408   69.0183   -6.0477 O   0  0  0  0  0  0  0  0  0  0  0  0
   15.6606   70.1845   -7.8852 O   0  0  0  0  0  0  0  0  0  0  0  0
   16.4577   69.9979   -6.9782 C   0  0  0  0  0  0  0  0  0  0  0  0
  1  4  1  0
  1 24  1  0
  1  2  1  6
  1  3  2  0
 25 28  1  0
 25 24  1  0
 25 26  1  1
 25 27  2  0
  6 11  1  0
  6 12  1  0
 29 36  1  0
 29 37  1  0
  9  7  1  1
  7 13  1  0
 10  8  1  1
  8 14  1  0
  4  5  1  0
 36 28  1  6
 33 30  1  6
 30 38  1  0
 34 31  1  1
 31 39  1  0
 35 32  1  1
 32 40  1  0
 41 43  1  0
 15 19  2  0
 42 43  2  0
 16 22  2  0
 12 17  1  6
 17 19  1  0
 17 20  1  0
 18 19  1  0
 18 22  1  0
 18 23  1  0
  9 10  1  0
  9 11  1  0
 10 12  1  0
 11  5  1  1
 33 34  1  0
 33 35  1  0
 34 36  1  0
 35 37  1  0
 37 43  1  6
 20 21  2  0
 21 22  1  0
M  CHG  3   2  -1  26  -1  41  -1
M  END
>  <COMPND>  (172) 
    udp_gluA.pdb 

>  <AUTHOR>  (172) 
    GENERATED BY OPEN BABEL 3.1.1

>  <MASTER>  (172) 
        0    0    0    0    0    0    0    0   56    0   56    0

>  <minimizedAffinity>  (172) 
-7.43645

>  <CNNscore>  (172) 
0.7459679842

>  <CNNaffinity>  (172) 
4.4134283066

>  <CNN_VS>  (172) 
3.2922761440

>  <CNNaffinity_variance>  (172) 
0.0990022570

$$$$
173
     RDKit          3D

 43 45  0  0  0  0  0  0  0  0999 V2000
   23.8191   73.2567   -3.5920 P   0  0  2  0  0  0  0  0  0  0  0  0
   24.2740   71.7049   -3.6522 O   0  0  0  0  0  0  0  0  0  0  0  0
   24.7243   74.2109   -4.3144 O   0  0  0  0  0  0  0  0  0  0  0  0
   23.6155   73.5409   -2.0122 O   0  0  0  0  0  0  0  0  0  0  0  0
   22.3112   73.4437   -1.4703 C   0  0  0  0  0  0  0  0  0  0  0  0
   23.3096   71.5442   -0.3874 O   0  0  0  0  0  0  0  0  0  0  0  0
   20.5105   70.5883    0.1053 O   0  0  0  0  0  0  0  0  0  0  0  0
   21.2120   71.6469    2.5184 O   0  0  0  0  0  0  0  0  0  0  0  0
   21.0244   71.9204    0.1096 C   0  0  1  0  0  0  0  0  0  0  0  0
   21.8381   72.1642    1.3629 C   0  0  2  0  0  0  0  0  0  0  0  0
   22.0821   72.0194   -0.9811 C   0  0  1  0  0  0  0  0  0  0  0  0
   23.1408   71.4543    1.0362 C   0  0  2  0  0  0  0  0  0  0  0  0
   19.8328   70.5006    0.7942 H   0  0  0  0  0  0  0  0  0  0  0  0
   20.3877   72.1318    2.6840 H   0  0  0  0  0  0  0  0  0  0  0  0
   25.1239   70.0276    2.4535 O   0  0  0  0  0  0  0  0  0  0  0  0
   27.4349   73.8851    3.4651 O   0  0  0  0  0  0  0  0  0  0  0  0
   24.2717   72.0608    1.6798 N   0  0  0  0  0  0  0  0  0  0  0  0
   26.2725   71.9503    2.9568 N   0  0  0  0  0  0  0  0  0  0  0  0
   25.2100   71.2540    2.3659 C   0  0  0  0  0  0  0  0  0  0  0  0
   24.4436   73.4386    1.6263 C   0  0  0  0  0  0  0  0  0  0  0  0
   25.4616   74.0881    2.1944 C   0  0  0  0  0  0  0  0  0  0  0  0
   26.4857   73.3191    2.9313 C   0  0  0  0  0  0  0  0  0  0  0  0
   26.9375   71.4101    3.4419 H   0  0  0  0  0  0  0  0  0  0  0  0
   22.3032   73.2124   -4.1514 O   0  0  0  0  0  0  0  0  0  0  0  0
   21.7265   73.2732   -5.6606 P   0  0  2  0  0  0  0  0  0  0  0  0
   22.8026   72.4055   -6.5029 O   0  0  0  0  0  0  0  0  0  0  0  0
   21.5104   74.6645   -6.1816 O   0  0  0  0  0  0  0  0  0  0  0  0
   20.3995   72.3565   -5.6289 O   0  0  0  0  0  0  0  0  0  0  0  0
   20.0136   70.2285   -4.6634 O   0  0  0  0  0  0  0  0  0  0  0  0
   17.5855   70.0893   -8.0031 O   0  0  0  0  0  0  0  0  0  0  0  0
   20.2688   71.2324   -8.1697 O   0  0  0  0  0  0  0  0  0  0  0  0
   16.4228   70.4926   -5.3694 O   0  0  0  0  0  0  0  0  0  0  0  0
   18.2631   70.7080   -6.9094 C   0  0  2  0  0  0  0  0  0  0  0  0
   19.7704   70.4988   -7.0570 C   0  0  2  0  0  0  0  0  0  0  0  0
   17.7604   70.0631   -5.6158 C   0  0  1  0  0  0  0  0  0  0  0  0
   20.5107   70.9441   -5.7950 C   0  0  1  0  0  0  0  0  0  0  0  0
   18.6269   70.4576   -4.4233 C   0  0  1  0  0  0  0  0  0  0  0  0
   17.8890   70.4831   -8.8362 H   0  0  0  0  0  0  0  0  0  0  0  0
   19.8033   70.9551   -8.9739 H   0  0  0  0  0  0  0  0  0  0  0  0
   15.8608   70.2477   -6.1211 H   0  0  0  0  0  0  0  0  0  0  0  0
   17.6424   68.4834   -3.6267 O   0  0  0  0  0  0  0  0  0  0  0  0
   18.6871   69.8148   -2.0986 O   0  0  0  0  0  0  0  0  0  0  0  0
   18.3409   69.5820   -3.2470 C   0  0  0  0  0  0  0  0  0  0  0  0
  1  4  1  0
  1 24  1  0
  1  2  1  1
  1  3  2  0
 25 28  1  0
 25 24  1  0
 25 26  1  6
 25 27  2  0
  6 11  1  0
  6 12  1  0
 29 36  1  0
 29 37  1  0
  9  7  1  1
  7 13  1  0
 10  8  1  1
  8 14  1  0
  4  5  1  0
 36 28  1  1
 33 30  1  6
 30 38  1  0
 34 31  1  6
 31 39  1  0
 35 32  1  1
 32 40  1  0
 41 43  1  0
 15 19  2  0
 42 43  2  0
 16 22  2  0
 12 17  1  1
 17 19  1  0
 17 20  1  0
 18 19  1  0
 18 22  1  0
 18 23  1  0
  9 10  1  0
  9 11  1  0
 10 12  1  0
 11  5  1  1
 33 34  1  0
 33 35  1  0
 34 36  1  0
 35 37  1  0
 37 43  1  1
 20 21  2  0
 21 22  1  0
M  CHG  3   2  -1  26  -1  41  -1
M  END
>  <COMPND>  (173) 
    udp_gluA.pdb 

>  <AUTHOR>  (173) 
    GENERATED BY OPEN BABEL 3.1.1

>  <MASTER>  (173) 
        0    0    0    0    0    0    0    0   56    0   56    0

>  <minimizedAffinity>  (173) 
-7.72471

>  <CNNscore>  (173) 
0.6739652157

>  <CNNaffinity>  (173) 
4.4641666412

>  <CNN_VS>  (173) 
3.0086929798

>  <CNNaffinity_variance>  (173) 
0.0974157378

$$$$
174
     RDKit          3D

 43 45  0  0  0  0  0  0  0  0999 V2000
   20.5417   71.2764   -1.5739 P   0  0  2  0  0  0  0  0  0  0  0  0
   21.1696   70.5601   -0.2657 O   0  0  0  0  0  0  0  0  0  0  0  0
   20.0881   72.6915   -1.3652 O   0  0  0  0  0  0  0  0  0  0  0  0
   19.4042   70.2407   -2.0755 O   0  0  0  0  0  0  0  0  0  0  0  0
   19.0372   70.2497   -3.4429 C   0  0  0  0  0  0  0  0  0  0  0  0
   17.3567   71.3429   -4.7689 O   0  0  0  0  0  0  0  0  0  0  0  0
   15.3569   69.7069   -3.2472 O   0  0  0  0  0  0  0  0  0  0  0  0
   15.5625   68.3538   -5.6058 O   0  0  0  0  0  0  0  0  0  0  0  0
   16.6689   69.3524   -3.6846 C   0  0  1  0  0  0  0  0  0  0  0  0
   16.6757   69.1110   -5.1793 C   0  0  2  0  0  0  0  0  0  0  0  0
   17.5554   70.5837   -3.5567 C   0  0  1  0  0  0  0  0  0  0  0  0
   16.6641   70.5277   -5.7276 C   0  0  2  0  0  0  0  0  0  0  0  0
   14.7721   68.9358   -3.3197 H   0  0  0  0  0  0  0  0  0  0  0  0
   15.6162   67.4604   -5.2305 H   0  0  0  0  0  0  0  0  0  0  0  0
   16.1227   72.5178   -7.6572 O   0  0  0  0  0  0  0  0  0  0  0  0
   19.2800   70.8237  -10.5564 O   0  0  0  0  0  0  0  0  0  0  0  0
   17.3299   70.6301   -6.9953 N   0  0  0  0  0  0  0  0  0  0  0  0
   17.6951   71.6715   -9.0997 N   0  0  0  0  0  0  0  0  0  0  0  0
   16.9832   71.6675   -7.8929 C   0  0  0  0  0  0  0  0  0  0  0  0
   18.3147   69.7115   -7.3377 C   0  0  0  0  0  0  0  0  0  0  0  0
   18.9846   69.7282   -8.4917 C   0  0  0  0  0  0  0  0  0  0  0  0
   18.6822   70.7791   -9.4855 C   0  0  0  0  0  0  0  0  0  0  0  0
   17.4697   72.3832   -9.7416 H   0  0  0  0  0  0  0  0  0  0  0  0
   21.7075   71.0991   -2.6795 O   0  0  0  0  0  0  0  0  0  0  0  0
   23.0798   71.9204   -2.9160 P   0  0  2  0  0  0  0  0  0  0  0  0
   24.1941   70.7523   -3.0350 O   0  0  0  0  0  0  0  0  0  0  0  0
   23.3717   72.9484   -1.8616 O   0  0  0  0  0  0  0  0  0  0  0  0
   22.9497   72.5129   -4.4108 O   0  0  0  0  0  0  0  0  0  0  0  0
   21.9312   74.5545   -5.0461 O   0  0  0  0  0  0  0  0  0  0  0  0
   21.4585   72.2804   -8.4627 O   0  0  0  0  0  0  0  0  0  0  0  0
   21.0153   71.1021   -5.8265 O   0  0  0  0  0  0  0  0  0  0  0  0
   23.4823   74.3651   -8.3658 O   0  0  0  0  0  0  0  0  0  0  0  0
   22.1064   72.7194   -7.2687 C   0  0  2  0  0  0  0  0  0  0  0  0
   21.1818   72.4938   -6.0722 C   0  0  2  0  0  0  0  0  0  0  0  0
   22.4236   74.2085   -7.4229 C   0  0  1  0  0  0  0  0  0  0  0  0
   21.7431   73.1580   -4.8142 C   0  0  1  0  0  0  0  0  0  0  0  0
   22.8565   74.8261   -6.0964 C   0  0  1  0  0  0  0  0  0  0  0  0
   21.2472   71.3365   -8.3878 H   0  0  0  0  0  0  0  0  0  0  0  0
   20.6597   70.6743   -6.6207 H   0  0  0  0  0  0  0  0  0  0  0  0
   23.2196   73.9759   -9.2146 H   0  0  0  0  0  0  0  0  0  0  0  0
   22.3432   76.7291   -7.3680 O   0  0  0  0  0  0  0  0  0  0  0  0
   23.2284   77.0712   -5.2947 O   0  0  0  0  0  0  0  0  0  0  0  0
   22.8442   76.3180   -6.1768 C   0  0  0  0  0  0  0  0  0  0  0  0
  1  4  1  0
  1 24  1  0
  1  2  1  1
  1  3  2  0
 25 28  1  0
 25 24  1  0
 25 26  1  6
 25 27  2  0
  6 11  1  0
  6 12  1  0
 29 36  1  0
 29 37  1  0
  9  7  1  6
  7 13  1  0
 10  8  1  6
  8 14  1  0
  4  5  1  0
 36 28  1  6
 33 30  1  6
 30 38  1  0
 34 31  1  1
 31 39  1  0
 35 32  1  6
 32 40  1  0
 41 43  1  0
 15 19  2  0
 42 43  2  0
 16 22  2  0
 12 17  1  6
 17 19  1  0
 17 20  1  0
 18 19  1  0
 18 22  1  0
 18 23  1  0
  9 10  1  0
  9 11  1  0
 10 12  1  0
 11  5  1  6
 33 34  1  0
 33 35  1  0
 34 36  1  0
 35 37  1  0
 37 43  1  6
 20 21  2  0
 21 22  1  0
M  CHG  3   2  -1  26  -1  41  -1
M  END
>  <COMPND>  (174) 
    udp_gluA.pdb 

>  <AUTHOR>  (174) 
    GENERATED BY OPEN BABEL 3.1.1

>  <MASTER>  (174) 
        0    0    0    0    0    0    0    0   56    0   56    0

>  <minimizedAffinity>  (174) 
-7.81842

>  <CNNscore>  (174) 
0.6528267264

>  <CNNaffinity>  (174) 
4.5883593559

>  <CNN_VS>  (174) 
2.9954035282

>  <CNNaffinity_variance>  (174) 
0.7452220917

$$$$
175
     RDKit          3D

 43 45  0  0  0  0  0  0  0  0999 V2000
   21.9246   72.5170   -5.8703 P   0  0  2  0  0  0  0  0  0  0  0  0
   21.3366   73.9298   -5.3442 O   0  0  0  0  0  0  0  0  0  0  0  0
   23.0382   72.6271   -6.8702 O   0  0  0  0  0  0  0  0  0  0  0  0
   20.6125   71.7104   -6.3660 O   0  0  0  0  0  0  0  0  0  0  0  0
   20.0409   72.0519   -7.6155 C   0  0  0  0  0  0  0  0  0  0  0  0
   18.8892   69.9907   -7.1649 O   0  0  0  0  0  0  0  0  0  0  0  0
   18.0905   70.0214  -10.0550 O   0  0  0  0  0  0  0  0  0  0  0  0
   15.8397   70.9202   -8.8052 O   0  0  0  0  0  0  0  0  0  0  0  0
   18.2393   71.1131   -9.1470 C   0  0  1  0  0  0  0  0  0  0  0  0
   17.0817   71.1452   -8.1717 C   0  0  2  0  0  0  0  0  0  0  0  0
   19.4177   70.8065   -8.2329 C   0  0  1  0  0  0  0  0  0  0  0  0
   17.4540   70.0351   -7.2037 C   0  0  2  0  0  0  0  0  0  0  0  0
   17.3434   70.1944  -10.6496 H   0  0  0  0  0  0  0  0  0  0  0  0
   15.6479   71.6542   -9.4106 H   0  0  0  0  0  0  0  0  0  0  0  0
   16.3151   68.0538   -5.5443 O   0  0  0  0  0  0  0  0  0  0  0  0
   15.5853   71.0691   -2.1356 O   0  0  0  0  0  0  0  0  0  0  0  0
   16.9583   70.2749   -5.8780 N   0  0  0  0  0  0  0  0  0  0  0  0
   15.9518   69.5577   -3.8485 N   0  0  0  0  0  0  0  0  0  0  0  0
   16.4049   69.2103   -5.1280 C   0  0  0  0  0  0  0  0  0  0  0  0
   17.0243   71.5516   -5.3332 C   0  0  0  0  0  0  0  0  0  0  0  0
   16.5884   71.8673   -4.1121 C   0  0  0  0  0  0  0  0  0  0  0  0
   15.9955   70.8129   -3.2636 C   0  0  0  0  0  0  0  0  0  0  0  0
   15.5606   68.8336   -3.3082 H   0  0  0  0  0  0  0  0  0  0  0  0
   22.3225   71.7568   -4.5004 O   0  0  0  0  0  0  0  0  0  0  0  0
   23.5065   72.0376   -3.4360 P   0  0  2  0  0  0  0  0  0  0  0  0
   24.4720   73.0727   -4.2213 O   0  0  0  0  0  0  0  0  0  0  0  0
   24.1980   70.7994   -2.9432 O   0  0  0  0  0  0  0  0  0  0  0  0
   22.8150   72.9237   -2.2789 O   0  0  0  0  0  0  0  0  0  0  0  0
   21.6441   71.6756   -0.6417 O   0  0  0  0  0  0  0  0  0  0  0  0
   20.4931   75.5386    0.2640 O   0  0  0  0  0  0  0  0  0  0  0  0
   20.6496   74.6532   -2.5155 O   0  0  0  0  0  0  0  0  0  0  0  0
   22.4493   74.1718    1.9241 O   0  0  0  0  0  0  0  0  0  0  0  0
   21.3736   74.5170   -0.2040 C   0  0  2  0  0  0  0  0  0  0  0  0
   20.7322   73.7909   -1.3867 C   0  0  2  0  0  0  0  0  0  0  0  0
   21.6211   73.5414    0.9488 C   0  0  1  0  0  0  0  0  0  0  0  0
   21.5375   72.5478   -1.7675 C   0  0  1  0  0  0  0  0  0  0  0  0
   22.3167   72.2724    0.4649 C   0  0  1  0  0  0  0  0  0  0  0  0
   20.3212   76.1705   -0.4518 H   0  0  0  0  0  0  0  0  0  0  0  0
   20.1401   75.4443   -2.2810 H   0  0  0  0  0  0  0  0  0  0  0  0
   22.0181   74.9811    2.2401 H   0  0  0  0  0  0  0  0  0  0  0  0
   21.5348   70.1452    1.0692 O   0  0  0  0  0  0  0  0  0  0  0  0
   22.7886   71.2682    2.6075 O   0  0  0  0  0  0  0  0  0  0  0  0
   22.2584   71.2047    1.5084 C   0  0  0  0  0  0  0  0  0  0  0  0
  1  4  1  0
  1 24  1  0
  1  2  1  1
  1  3  2  0
 25 28  1  0
 25 24  1  0
 25 26  1  6
 25 27  2  0
  6 11  1  0
  6 12  1  0
 29 36  1  0
 29 37  1  0
  9  7  1  6
  7 13  1  0
 10  8  1  6
  8 14  1  0
  4  5  1  0
 36 28  1  1
 33 30  1  1
 30 38  1  0
 34 31  1  6
 31 39  1  0
 35 32  1  1
 32 40  1  0
 41 43  1  0
 15 19  2  0
 42 43  2  0
 16 22  2  0
 12 17  1  1
 17 19  1  0
 17 20  1  0
 18 19  1  0
 18 22  1  0
 18 23  1  0
  9 10  1  0
  9 11  1  0
 10 12  1  0
 11  5  1  1
 33 34  1  0
 33 35  1  0
 34 36  1  0
 35 37  1  0
 37 43  1  1
 20 21  2  0
 21 22  1  0
M  CHG  3   2  -1  26  -1  41  -1
M  END
>  <COMPND>  (175) 
    udp_gluA.pdb 

>  <AUTHOR>  (175) 
    GENERATED BY OPEN BABEL 3.1.1

>  <MASTER>  (175) 
        0    0    0    0    0    0    0    0   56    0   56    0

>  <minimizedAffinity>  (175) 
-8.42264

>  <CNNscore>  (175) 
0.6461094618

>  <CNNaffinity>  (175) 
4.4400405884

>  <CNN_VS>  (175) 
2.8687522411

>  <CNNaffinity_variance>  (175) 
0.3915142715

$$$$
176
     RDKit          3D

 43 45  0  0  0  0  0  0  0  0999 V2000
   21.8588   72.4697   -5.6659 P   0  0  2  0  0  0  0  0  0  0  0  0
   21.2275   73.9063   -5.2704 O   0  0  0  0  0  0  0  0  0  0  0  0
   23.0759   72.5318   -6.5414 O   0  0  0  0  0  0  0  0  0  0  0  0
   20.6026   71.6454   -6.2664 O   0  0  0  0  0  0  0  0  0  0  0  0
   20.1143   71.9962   -7.5482 C   0  0  0  0  0  0  0  0  0  0  0  0
   18.9103   69.9580   -7.1317 O   0  0  0  0  0  0  0  0  0  0  0  0
   18.1434   70.0375  -10.0295 O   0  0  0  0  0  0  0  0  0  0  0  0
   15.9009   70.9756   -8.7937 O   0  0  0  0  0  0  0  0  0  0  0  0
   18.3079   71.1159   -9.1083 C   0  0  1  0  0  0  0  0  0  0  0  0
   17.1410   71.1648   -8.1449 C   0  0  2  0  0  0  0  0  0  0  0  0
   19.4690   70.7723   -8.1853 C   0  0  1  0  0  0  0  0  0  0  0  0
   17.4770   70.0363   -7.1850 C   0  0  2  0  0  0  0  0  0  0  0  0
   17.4069   70.2341  -10.6299 H   0  0  0  0  0  0  0  0  0  0  0  0
   15.7327   71.7201   -9.3932 H   0  0  0  0  0  0  0  0  0  0  0  0
   16.2915   68.0607   -5.5516 O   0  0  0  0  0  0  0  0  0  0  0  0
   15.5779   71.0609   -2.1262 O   0  0  0  0  0  0  0  0  0  0  0  0
   16.9728   70.2738   -5.8620 N   0  0  0  0  0  0  0  0  0  0  0  0
   15.9363   69.5571   -3.8475 N   0  0  0  0  0  0  0  0  0  0  0  0
   16.3957   69.2124   -5.1255 C   0  0  0  0  0  0  0  0  0  0  0  0
   17.0540   71.5450   -5.3067 C   0  0  0  0  0  0  0  0  0  0  0  0
   16.6118   71.8582   -4.0872 C   0  0  0  0  0  0  0  0  0  0  0  0
   15.9944   70.8069   -3.2524 C   0  0  0  0  0  0  0  0  0  0  0  0
   15.5287   68.8351   -3.3165 H   0  0  0  0  0  0  0  0  0  0  0  0
   22.0984   71.7704   -4.2283 O   0  0  0  0  0  0  0  0  0  0  0  0
   23.2911   71.9414   -3.1504 P   0  0  2  0  0  0  0  0  0  0  0  0
   23.9678   73.3514   -3.5682 O   0  0  0  0  0  0  0  0  0  0  0  0
   24.2485   70.7860   -3.1029 O   0  0  0  0  0  0  0  0  0  0  0  0
   22.5412   72.2473   -1.7552 O   0  0  0  0  0  0  0  0  0  0  0  0
   23.1992   70.7564   -0.0367 O   0  0  0  0  0  0  0  0  0  0  0  0
   20.1447   72.8521    1.7925 O   0  0  0  0  0  0  0  0  0  0  0  0
   19.8837   71.9735   -0.9814 O   0  0  0  0  0  0  0  0  0  0  0  0
   22.9141   73.4223    2.4681 O   0  0  0  0  0  0  0  0  0  0  0  0
   21.2459   72.6639    0.9037 C   0  0  2  0  0  0  0  0  0  0  0  0
   20.9142   71.5542   -0.0943 C   0  0  2  0  0  0  0  0  0  0  0  0
   22.4684   72.2794    1.7402 C   0  0  1  0  0  0  0  0  0  0  0  0
   22.1475   71.1667   -0.9114 C   0  0  1  0  0  0  0  0  0  0  0  0
   23.6126   71.7850    0.8600 C   0  0  1  0  0  0  0  0  0  0  0  0
   19.3562   73.0971    1.2832 H   0  0  0  0  0  0  0  0  0  0  0  0
   19.0981   72.2212   -0.4696 H   0  0  0  0  0  0  0  0  0  0  0  0
   22.1950   73.7470    3.0323 H   0  0  0  0  0  0  0  0  0  0  0  0
   25.5406   72.0190    2.1752 O   0  0  0  0  0  0  0  0  0  0  0  0
   24.7254   69.9087    1.8907 O   0  0  0  0  0  0  0  0  0  0  0  0
   24.6619   71.1111    1.6829 C   0  0  0  0  0  0  0  0  0  0  0  0
  1  4  1  0
  1 24  1  0
  1  2  1  1
  1  3  2  0
 25 28  1  0
 25 24  1  0
 25 26  1  6
 25 27  2  0
  6 11  1  0
  6 12  1  0
 29 36  1  0
 29 37  1  0
  9  7  1  6
  7 13  1  0
 10  8  1  6
  8 14  1  0
  4  5  1  0
 36 28  1  1
 33 30  1  1
 30 38  1  0
 34 31  1  6
 31 39  1  0
 35 32  1  6
 32 40  1  0
 41 43  1  0
 15 19  2  0
 42 43  2  0
 16 22  2  0
 12 17  1  1
 17 19  1  0
 17 20  1  0
 18 19  1  0
 18 22  1  0
 18 23  1  0
  9 10  1  0
  9 11  1  0
 10 12  1  0
 11  5  1  1
 33 34  1  0
 33 35  1  0
 34 36  1  0
 35 37  1  0
 37 43  1  1
 20 21  2  0
 21 22  1  0
M  CHG  3   2  -1  26  -1  41  -1
M  END
>  <COMPND>  (176) 
    udp_gluA.pdb 

>  <AUTHOR>  (176) 
    GENERATED BY OPEN BABEL 3.1.1

>  <MASTER>  (176) 
        0    0    0    0    0    0    0    0   56    0   56    0

>  <minimizedAffinity>  (176) 
-8.39350

>  <CNNscore>  (176) 
0.6292747259

>  <CNNaffinity>  (176) 
4.4348134995

>  <CNN_VS>  (176) 
2.7907159328

>  <CNNaffinity_variance>  (176) 
0.2338874787

$$$$
177
     RDKit          3D

 43 45  0  0  0  0  0  0  0  0999 V2000
   21.7497   72.7138   -5.4899 P   0  0  2  0  0  0  0  0  0  0  0  0
   21.2330   74.2444   -5.5864 O   0  0  0  0  0  0  0  0  0  0  0  0
   23.0957   72.4597   -6.1025 O   0  0  0  0  0  0  0  0  0  0  0  0
   20.5251   71.8512   -6.1016 O   0  0  0  0  0  0  0  0  0  0  0  0
   20.1467   72.0746   -7.4475 C   0  0  0  0  0  0  0  0  0  0  0  0
   19.0243   70.0139   -6.9267 O   0  0  0  0  0  0  0  0  0  0  0  0
   18.3017   69.8889   -9.8342 O   0  0  0  0  0  0  0  0  0  0  0  0
   16.0014   70.7994   -8.6872 O   0  0  0  0  0  0  0  0  0  0  0  0
   18.4050   71.0259   -8.9769 C   0  0  1  0  0  0  0  0  0  0  0  0
   17.2216   71.0805   -8.0340 C   0  0  2  0  0  0  0  0  0  0  0  0
   19.5646   70.7883   -8.0192 C   0  0  1  0  0  0  0  0  0  0  0  0
   17.5900   70.0263   -7.0041 C   0  0  2  0  0  0  0  0  0  0  0  0
   17.5672   70.0175  -10.4553 H   0  0  0  0  0  0  0  0  0  0  0  0
   15.8113   71.4993   -9.3322 H   0  0  0  0  0  0  0  0  0  0  0  0
   16.2276   68.1580   -5.3824 O   0  0  0  0  0  0  0  0  0  0  0  0
   15.5795   71.2605   -2.0360 O   0  0  0  0  0  0  0  0  0  0  0  0
   17.0548   70.3191   -5.7046 N   0  0  0  0  0  0  0  0  0  0  0  0
   15.9052   69.7053   -3.7177 N   0  0  0  0  0  0  0  0  0  0  0  0
   16.3876   69.3091   -4.9720 C   0  0  0  0  0  0  0  0  0  0  0  0
   17.1945   71.5933   -5.1680 C   0  0  0  0  0  0  0  0  0  0  0  0
   16.7295   71.9559   -3.9709 C   0  0  0  0  0  0  0  0  0  0  0  0
   16.0192   70.9602   -3.1418 C   0  0  0  0  0  0  0  0  0  0  0  0
   15.4352   69.0197   -3.1899 H   0  0  0  0  0  0  0  0  0  0  0  0
   21.6602   72.3998   -3.9068 O   0  0  0  0  0  0  0  0  0  0  0  0
   21.9567   71.0456   -3.0749 P   0  0  2  0  0  0  0  0  0  0  0  0
   23.5727   70.9521   -3.0843 O   0  0  0  0  0  0  0  0  0  0  0  0
   21.2637   69.8277   -3.6137 O   0  0  0  0  0  0  0  0  0  0  0  0
   21.5789   71.4112   -1.5497 O   0  0  0  0  0  0  0  0  0  0  0  0
   23.1802   72.8966   -0.6340 O   0  0  0  0  0  0  0  0  0  0  0  0
   20.7389   72.1811    2.6212 O   0  0  0  0  0  0  0  0  0  0  0  0
   21.5156   69.9964    0.8441 O   0  0  0  0  0  0  0  0  0  0  0  0
   20.5544   74.7018    1.1850 O   0  0  0  0  0  0  0  0  0  0  0  0
   21.0519   72.3449    1.2381 C   0  0  2  0  0  0  0  0  0  0  0  0
   22.0863   71.2996    0.8201 C   0  0  2  0  0  0  0  0  0  0  0  0
   21.6124   73.7557    1.0439 C   0  0  1  0  0  0  0  0  0  0  0  0
   22.6159   71.5856   -0.5859 C   0  0  1  0  0  0  0  0  0  0  0  0
   22.2347   73.9224   -0.3394 C   0  0  1  0  0  0  0  0  0  0  0  0
   20.3810   71.2915    2.7687 H   0  0  0  0  0  0  0  0  0  0  0  0
   21.1773   69.8083    1.7332 H   0  0  0  0  0  0  0  0  0  0  0  0
   20.1497   74.6061    2.0613 H   0  0  0  0  0  0  0  0  0  0  0  0
   24.3712   74.8642   -0.5623 O   0  0  0  0  0  0  0  0  0  0  0  0
   22.6190   76.3043   -0.3275 O   0  0  0  0  0  0  0  0  0  0  0  0
   23.0589   75.1669   -0.4037 C   0  0  0  0  0  0  0  0  0  0  0  0
  1  4  1  0
  1 24  1  0
  1  2  1  1
  1  3  2  0
 25 28  1  0
 25 24  1  0
 25 26  1  1
 25 27  2  0
  6 11  1  0
  6 12  1  0
 29 36  1  0
 29 37  1  0
  9  7  1  6
  7 13  1  0
 10  8  1  6
  8 14  1  0
  4  5  1  0
 36 28  1  6
 33 30  1  1
 30 38  1  0
 34 31  1  6
 31 39  1  0
 35 32  1  6
 32 40  1  0
 41 43  1  0
 15 19  2  0
 42 43  2  0
 16 22  2  0
 12 17  1  1
 17 19  1  0
 17 20  1  0
 18 19  1  0
 18 22  1  0
 18 23  1  0
  9 10  1  0
  9 11  1  0
 10 12  1  0
 11  5  1  1
 33 34  1  0
 33 35  1  0
 34 36  1  0
 35 37  1  0
 37 43  1  1
 20 21  2  0
 21 22  1  0
M  CHG  3   2  -1  26  -1  41  -1
M  END
>  <COMPND>  (177) 
    udp_gluA.pdb 

>  <AUTHOR>  (177) 
    GENERATED BY OPEN BABEL 3.1.1

>  <MASTER>  (177) 
        0    0    0    0    0    0    0    0   56    0   56    0

>  <minimizedAffinity>  (177) 
-7.58957

>  <CNNscore>  (177) 
0.5845928788

>  <CNNaffinity>  (177) 
4.5134100914

>  <CNN_VS>  (177) 
2.6385073662

>  <CNNaffinity_variance>  (177) 
0.2050863206

$$$$
178
     RDKit          3D

 43 45  0  0  0  0  0  0  0  0999 V2000
   21.4537   71.6303   -0.0132 P   0  0  2  0  0  0  0  0  0  0  0  0
   21.5711   70.2587    0.8376 O   0  0  0  0  0  0  0  0  0  0  0  0
   20.2889   72.5037    0.3505 O   0  0  0  0  0  0  0  0  0  0  0  0
   21.5087   71.1380   -1.5535 O   0  0  0  0  0  0  0  0  0  0  0  0
   21.7081   72.1070   -2.5663 C   0  0  0  0  0  0  0  0  0  0  0  0
   20.9954   70.2612   -3.9311 O   0  0  0  0  0  0  0  0  0  0  0  0
   22.1823   71.7548   -6.2445 O   0  0  0  0  0  0  0  0  0  0  0  0
   19.5175   72.2713   -6.5059 O   0  0  0  0  0  0  0  0  0  0  0  0
   21.4993   72.2605   -5.0971 C   0  0  1  0  0  0  0  0  0  0  0  0
   20.0132   71.9951   -5.2126 C   0  0  2  0  0  0  0  0  0  0  0  0
   21.8851   71.3983   -3.9030 C   0  0  1  0  0  0  0  0  0  0  0  0
   19.9274   70.5209   -4.8559 C   0  0  2  0  0  0  0  0  0  0  0  0
   21.9515   72.2899   -7.0205 H   0  0  0  0  0  0  0  0  0  0  0  0
   19.5938   73.2221   -6.6851 H   0  0  0  0  0  0  0  0  0  0  0  0
   17.5452   69.9631   -6.2668 O   0  0  0  0  0  0  0  0  0  0  0  0
   15.1964   69.2206   -2.3712 O   0  0  0  0  0  0  0  0  0  0  0  0
   18.6789   70.1790   -4.2353 N   0  0  0  0  0  0  0  0  0  0  0  0
   16.3774   69.5948   -4.3251 N   0  0  0  0  0  0  0  0  0  0  0  0
   17.5414   69.9174   -5.0352 C   0  0  0  0  0  0  0  0  0  0  0  0
   18.5902   70.1040   -2.8506 C   0  0  0  0  0  0  0  0  0  0  0  0
   17.4738   69.7951   -2.1881 C   0  0  0  0  0  0  0  0  0  0  0  0
   16.2401   69.5084   -2.9492 C   0  0  0  0  0  0  0  0  0  0  0  0
   15.5719   69.4106   -4.8604 H   0  0  0  0  0  0  0  0  0  0  0  0
   22.9019   72.3154    0.2013 O   0  0  0  0  0  0  0  0  0  0  0  0
   23.3114   73.8174    0.6371 P   0  0  2  0  0  0  0  0  0  0  0  0
   22.3023   74.7416   -0.2276 O   0  0  0  0  0  0  0  0  0  0  0  0
   24.7648   74.1401    0.4435 O   0  0  0  0  0  0  0  0  0  0  0  0
   22.7911   73.9587    2.1576 O   0  0  0  0  0  0  0  0  0  0  0  0
   24.3472   73.3952    3.8517 O   0  0  0  0  0  0  0  0  0  0  0  0
   20.8223   73.6336    5.9934 O   0  0  0  0  0  0  0  0  0  0  0  0
   20.8781   72.3456    3.3719 O   0  0  0  0  0  0  0  0  0  0  0  0
   22.7816   75.7743    6.1650 O   0  0  0  0  0  0  0  0  0  0  0  0
   21.7408   73.9703    4.9537 C   0  0  2  0  0  0  0  0  0  0  0  0
   22.0333   72.7307    4.1079 C   0  0  2  0  0  0  0  0  0  0  0  0
   23.0258   74.4849    5.6061 C   0  0  1  0  0  0  0  0  0  0  0  0
   23.1812   72.9927    3.1320 C   0  0  1  0  0  0  0  0  0  0  0  0
   24.1588   74.6002    4.5905 C   0  0  1  0  0  0  0  0  0  0  0  0
   19.9978   73.3039    5.6025 H   0  0  0  0  0  0  0  0  0  0  0  0
   20.1456   72.1780    3.9849 H   0  0  0  0  0  0  0  0  0  0  0  0
   22.0624   75.7149    6.8131 H   0  0  0  0  0  0  0  0  0  0  0  0
   26.4640   74.9758    4.3751 O   0  0  0  0  0  0  0  0  0  0  0  0
   25.6387   74.7583    6.4895 O   0  0  0  0  0  0  0  0  0  0  0  0
   25.4724   74.7803    5.2792 C   0  0  0  0  0  0  0  0  0  0  0  0
  1  4  1  0
  1 24  1  0
  1  2  1  1
  1  3  2  0
 25 28  1  0
 25 24  1  0
 25 26  1  6
 25 27  2  0
  6 11  1  0
  6 12  1  0
 29 36  1  0
 29 37  1  0
  9  7  1  6
  7 13  1  0
 10  8  1  6
  8 14  1  0
  4  5  1  0
 36 28  1  6
 33 30  1  1
 30 38  1  0
 34 31  1  6
 31 39  1  0
 35 32  1  6
 32 40  1  0
 41 43  1  0
 15 19  2  0
 42 43  2  0
 16 22  2  0
 12 17  1  1
 17 19  1  0
 17 20  1  0
 18 19  1  0
 18 22  1  0
 18 23  1  0
  9 10  1  0
  9 11  1  0
 10 12  1  0
 11  5  1  1
 33 34  1  0
 33 35  1  0
 34 36  1  0
 35 37  1  0
 37 43  1  1
 20 21  2  0
 21 22  1  0
M  CHG  3   2  -1  26  -1  41  -1
M  END
>  <COMPND>  (178) 
    udp_gluA.pdb 

>  <AUTHOR>  (178) 
    GENERATED BY OPEN BABEL 3.1.1

>  <MASTER>  (178) 
        0    0    0    0    0    0    0    0   56    0   56    0

>  <minimizedAffinity>  (178) 
-6.30198

>  <CNNscore>  (178) 
0.4957314432

>  <CNNaffinity>  (178) 
4.0169134140

>  <CNN_VS>  (178) 
1.9913102388

>  <CNNaffinity_variance>  (178) 
0.1537012309

$$$$
179
     RDKit          3D

 43 45  0  0  0  0  0  0  0  0999 V2000
   23.2642   72.0360   -2.8809 P   0  0  2  0  0  0  0  0  0  0  0  0
   23.8873   73.4039   -3.4805 O   0  0  0  0  0  0  0  0  0  0  0  0
   24.1403   70.8259   -3.0211 O   0  0  0  0  0  0  0  0  0  0  0  0
   21.8080   71.9338   -3.5787 O   0  0  0  0  0  0  0  0  0  0  0  0
   21.5297   72.7686   -4.6879 C   0  0  0  0  0  0  0  0  0  0  0  0
   20.7980   70.7070   -5.6839 O   0  0  0  0  0  0  0  0  0  0  0  0
   21.3063   72.0215   -8.3307 O   0  0  0  0  0  0  0  0  0  0  0  0
   18.5992   72.2262   -8.0738 O   0  0  0  0  0  0  0  0  0  0  0  0
   20.8062   72.5904   -7.1204 C   0  0  1  0  0  0  0  0  0  0  0  0
   19.3719   72.1620   -6.8933 C   0  0  2  0  0  0  0  0  0  0  0  0
   21.5259   71.9243   -5.9557 C   0  0  1  0  0  0  0  0  0  0  0  0
   19.5441   70.7412   -6.3837 C   0  0  2  0  0  0  0  0  0  0  0  0
   20.8611   72.4315   -9.0892 H   0  0  0  0  0  0  0  0  0  0  0  0
   18.5186   73.1508   -8.3575 H   0  0  0  0  0  0  0  0  0  0  0  0
   17.0145   69.7856   -7.1990 O   0  0  0  0  0  0  0  0  0  0  0  0
   15.6003   69.2745   -2.8421 O   0  0  0  0  0  0  0  0  0  0  0  0
   18.4961   70.3512   -5.4833 N   0  0  0  0  0  0  0  0  0  0  0  0
   16.3122   69.5329   -5.0282 N   0  0  0  0  0  0  0  0  0  0  0  0
   17.2625   69.8848   -5.9958 C   0  0  0  0  0  0  0  0  0  0  0  0
   18.6958   70.4310   -4.1105 C   0  0  0  0  0  0  0  0  0  0  0  0
   17.7806   70.0918   -3.2005 C   0  0  0  0  0  0  0  0  0  0  0  0
   16.4643   69.5955   -3.6525 C   0  0  0  0  0  0  0  0  0  0  0  0
   15.4447   69.2073   -5.3609 H   0  0  0  0  0  0  0  0  0  0  0  0
   22.9089   72.4370   -1.3558 O   0  0  0  0  0  0  0  0  0  0  0  0
   22.5574   71.5200   -0.0716 P   0  0  2  0  0  0  0  0  0  0  0  0
   23.9497   70.7495    0.2250 O   0  0  0  0  0  0  0  0  0  0  0  0
   21.3778   70.6122   -0.2675 O   0  0  0  0  0  0  0  0  0  0  0  0
   22.4027   72.5651    1.1476 O   0  0  0  0  0  0  0  0  0  0  0  0
   21.9860   72.4350    3.4753 O   0  0  0  0  0  0  0  0  0  0  0  0
   19.5584   75.5869    2.3615 O   0  0  0  0  0  0  0  0  0  0  0  0
   19.7299   73.1905    0.6994 O   0  0  0  0  0  0  0  0  0  0  0  0
   22.0595   76.0928    3.7540 O   0  0  0  0  0  0  0  0  0  0  0  0
   20.7037   74.7373    2.2948 C   0  0  2  0  0  0  0  0  0  0  0  0
   20.2600   73.3012    2.0152 C   0  0  2  0  0  0  0  0  0  0  0  0
   21.4310   74.8176    3.6389 C   0  0  1  0  0  0  0  0  0  0  0  0
   21.4304   72.3282    2.1641 C   0  0  1  0  0  0  0  0  0  0  0  0
   22.4991   73.7346    3.7599 C   0  0  1  0  0  0  0  0  0  0  0  0
   19.0802   75.5520    1.5180 H   0  0  0  0  0  0  0  0  0  0  0  0
   18.9869   73.8054    0.5978 H   0  0  0  0  0  0  0  0  0  0  0  0
   21.3905   76.7910    3.6785 H   0  0  0  0  0  0  0  0  0  0  0  0
   23.9499   74.5068    5.4333 O   0  0  0  0  0  0  0  0  0  0  0  0
   22.5321   72.8093    5.9879 O   0  0  0  0  0  0  0  0  0  0  0  0
   22.9685   73.6080    5.1726 C   0  0  0  0  0  0  0  0  0  0  0  0
  1  4  1  0
  1 24  1  0
  1  2  1  6
  1  3  2  0
 25 28  1  0
 25 24  1  0
 25 26  1  1
 25 27  2  0
  6 11  1  0
  6 12  1  0
 29 36  1  0
 29 37  1  0
  9  7  1  6
  7 13  1  0
 10  8  1  6
  8 14  1  0
  4  5  1  0
 36 28  1  6
 33 30  1  1
 30 38  1  0
 34 31  1  6
 31 39  1  0
 35 32  1  6
 32 40  1  0
 41 43  1  0
 15 19  2  0
 42 43  2  0
 16 22  2  0
 12 17  1  1
 17 19  1  0
 17 20  1  0
 18 19  1  0
 18 22  1  0
 18 23  1  0
  9 10  1  0
  9 11  1  0
 10 12  1  0
 11  5  1  1
 33 34  1  0
 33 35  1  0
 34 36  1  0
 35 37  1  0
 37 43  1  1
 20 21  2  0
 21 22  1  0
M  CHG  3   2  -1  26  -1  41  -1
M  END
>  <COMPND>  (179) 
    udp_gluA.pdb 

>  <AUTHOR>  (179) 
    GENERATED BY OPEN BABEL 3.1.1

>  <MASTER>  (179) 
        0    0    0    0    0    0    0    0   56    0   56    0

>  <minimizedAffinity>  (179) 
-7.17460

>  <CNNscore>  (179) 
0.4628832042

>  <CNNaffinity>  (179) 
4.0794930458

>  <CNN_VS>  (179) 
1.8883287907

>  <CNNaffinity_variance>  (179) 
0.1712360084

$$$$
180
     RDKit          3D

 43 45  0  0  0  0  0  0  0  0999 V2000
   22.5308   73.2935   -4.7553 P   0  0  2  0  0  0  0  0  0  0  0  0
   22.7605   74.8952   -4.7817 O   0  0  0  0  0  0  0  0  0  0  0  0
   23.3068   72.5251   -5.7845 O   0  0  0  0  0  0  0  0  0  0  0  0
   20.9224   73.1305   -4.8218 O   0  0  0  0  0  0  0  0  0  0  0  0
   20.1388   74.2722   -5.1165 C   0  0  0  0  0  0  0  0  0  0  0  0
   19.0157   72.5522   -6.3648 O   0  0  0  0  0  0  0  0  0  0  0  0
   17.3961   74.7582   -7.5903 O   0  0  0  0  0  0  0  0  0  0  0  0
   15.6986   73.7457   -5.7116 O   0  0  0  0  0  0  0  0  0  0  0  0
   17.8943   74.6360   -6.2579 C   0  0  1  0  0  0  0  0  0  0  0  0
   17.0867   73.6124   -5.4882 C   0  0  2  0  0  0  0  0  0  0  0  0
   19.2639   73.9743   -6.3274 C   0  0  1  0  0  0  0  0  0  0  0  0
   17.6424   72.3042   -6.0244 C   0  0  2  0  0  0  0  0  0  0  0  0
   16.5216   75.1785   -7.5715 H   0  0  0  0  0  0  0  0  0  0  0  0
   15.3933   74.5939   -5.3522 H   0  0  0  0  0  0  0  0  0  0  0  0
   16.7338   69.6868   -6.5723 O   0  0  0  0  0  0  0  0  0  0  0  0
   17.4668   68.3270   -2.2298 O   0  0  0  0  0  0  0  0  0  0  0  0
   17.5853   71.2465   -5.0554 N   0  0  0  0  0  0  0  0  0  0  0  0
   17.0988   69.0123   -4.4088 N   0  0  0  0  0  0  0  0  0  0  0  0
   17.1124   69.9676   -5.4336 C   0  0  0  0  0  0  0  0  0  0  0  0
   17.9960   71.4800   -3.7487 C   0  0  0  0  0  0  0  0  0  0  0  0
   17.9774   70.5594   -2.7828 C   0  0  0  0  0  0  0  0  0  0  0  0
   17.4965   69.1974   -3.0946 C   0  0  0  0  0  0  0  0  0  0  0  0
   16.7716   68.1149   -4.6475 H   0  0  0  0  0  0  0  0  0  0  0  0
   22.8726   72.9031   -3.2244 O   0  0  0  0  0  0  0  0  0  0  0  0
   22.8637   71.4756   -2.4657 P   0  0  2  0  0  0  0  0  0  0  0  0
   24.2606   70.8016   -2.9293 O   0  0  0  0  0  0  0  0  0  0  0  0
   21.6499   70.6373   -2.7450 O   0  0  0  0  0  0  0  0  0  0  0  0
   23.0833   71.8379   -0.9091 O   0  0  0  0  0  0  0  0  0  0  0  0
   24.3699   70.8871    0.8372 O   0  0  0  0  0  0  0  0  0  0  0  0
   20.9037   71.9391    2.8238 O   0  0  0  0  0  0  0  0  0  0  0  0
   20.7787   70.7179    0.1728 O   0  0  0  0  0  0  0  0  0  0  0  0
   23.3107   73.5377    3.1424 O   0  0  0  0  0  0  0  0  0  0  0  0
   21.9274   72.0595    1.8361 C   0  0  2  0  0  0  0  0  0  0  0  0
   21.9542   70.7996    0.9705 C   0  0  2  0  0  0  0  0  0  0  0  0
   23.2642   72.2367    2.5598 C   0  0  1  0  0  0  0  0  0  0  0  0
   23.1791   70.7909    0.0548 C   0  0  1  0  0  0  0  0  0  0  0  0
   24.4411   72.0898    1.5997 C   0  0  1  0  0  0  0  0  0  0  0  0
   20.0447   71.8255    2.3872 H   0  0  0  0  0  0  0  0  0  0  0  0
   19.9976   70.7232    0.7474 H   0  0  0  0  0  0  0  0  0  0  0  0
   22.5667   73.6442    3.7556 H   0  0  0  0  0  0  0  0  0  0  0  0
   26.1521   73.1339    2.8178 O   0  0  0  0  0  0  0  0  0  0  0  0
   26.3089   70.8776    2.5287 O   0  0  0  0  0  0  0  0  0  0  0  0
   25.7229   71.9350    2.3516 C   0  0  0  0  0  0  0  0  0  0  0  0
  1  4  1  0
  1 24  1  0
  1  2  1  1
  1  3  2  0
 25 28  1  0
 25 24  1  0
 25 26  1  6
 25 27  2  0
  6 11  1  0
  6 12  1  0
 29 36  1  0
 29 37  1  0
  9  7  1  6
  7 13  1  0
 10  8  1  6
  8 14  1  0
  4  5  1  0
 36 28  1  6
 33 30  1  1
 30 38  1  0
 34 31  1  6
 31 39  1  0
 35 32  1  6
 32 40  1  0
 41 43  1  0
 15 19  2  0
 42 43  2  0
 16 22  2  0
 12 17  1  1
 17 19  1  0
 17 20  1  0
 18 19  1  0
 18 22  1  0
 18 23  1  0
  9 10  1  0
  9 11  1  0
 10 12  1  0
 11  5  1  1
 33 34  1  0
 33 35  1  0
 34 36  1  0
 35 37  1  0
 37 43  1  1
 20 21  2  0
 21 22  1  0
M  CHG  3   2  -1  26  -1  41  -1
M  END
>  <COMPND>  (180) 
    udp_gluA.pdb 

>  <AUTHOR>  (180) 
    GENERATED BY OPEN BABEL 3.1.1

>  <MASTER>  (180) 
        0    0    0    0    0    0    0    0   56    0   56    0

>  <minimizedAffinity>  (180) 
-7.42751

>  <CNNscore>  (180) 
0.4625321031

>  <CNNaffinity>  (180) 
4.1706304550

>  <CNN_VS>  (180) 
1.9290504456

>  <CNNaffinity_variance>  (180) 
0.1059545651

$$$$
181
     RDKit          3D

 43 45  0  0  0  0  0  0  0  0999 V2000
   22.9487   71.4066   -2.3876 P   0  0  2  0  0  0  0  0  0  0  0  0
   22.7866   73.0162   -2.3455 O   0  0  0  0  0  0  0  0  0  0  0  0
   24.1819   70.9121   -3.0850 O   0  0  0  0  0  0  0  0  0  0  0  0
   21.5418   70.8902   -2.9974 O   0  0  0  0  0  0  0  0  0  0  0  0
   20.8867   71.6945   -3.9609 C   0  0  0  0  0  0  0  0  0  0  0  0
   18.6868   72.0763   -4.8510 O   0  0  0  0  0  0  0  0  0  0  0  0
   17.6590   70.6471   -2.4235 O   0  0  0  0  0  0  0  0  0  0  0  0
   17.5139   68.7251   -4.3526 O   0  0  0  0  0  0  0  0  0  0  0  0
   18.8395   70.3975   -3.1870 C   0  0  1  0  0  0  0  0  0  0  0  0
   18.4828   69.7414   -4.5041 C   0  0  2  0  0  0  0  0  0  0  0  0
   19.3982   71.7393   -3.6404 C   0  0  1  0  0  0  0  0  0  0  0  0
   17.9722   70.9200   -5.3154 C   0  0  2  0  0  0  0  0  0  0  0  0
   17.2838   69.8042   -2.1227 H   0  0  0  0  0  0  0  0  0  0  0  0
   17.8873   67.9978   -3.8295 H   0  0  0  0  0  0  0  0  0  0  0  0
   15.9417   70.5092   -7.2350 O   0  0  0  0  0  0  0  0  0  0  0  0
   18.9906   70.3177  -10.6863 O   0  0  0  0  0  0  0  0  0  0  0  0
   18.2074   70.7596   -6.7224 N   0  0  0  0  0  0  0  0  0  0  0  0
   17.4622   70.4132   -8.9520 N   0  0  0  0  0  0  0  0  0  0  0  0
   17.1173   70.5582   -7.6018 C   0  0  0  0  0  0  0  0  0  0  0  0
   19.5047   70.8042   -7.2183 C   0  0  0  0  0  0  0  0  0  0  0  0
   19.8178   70.6644   -8.5079 C   0  0  0  0  0  0  0  0  0  0  0  0
   18.7374   70.4495   -9.4927 C   0  0  0  0  0  0  0  0  0  0  0  0
   16.7203   70.2698   -9.5831 H   0  0  0  0  0  0  0  0  0  0  0  0
   22.8439   70.9904   -0.8291 O   0  0  0  0  0  0  0  0  0  0  0  0
   21.7487   71.3672    0.2987 P   0  0  2  0  0  0  0  0  0  0  0  0
   21.4894   69.9562    1.0485 O   0  0  0  0  0  0  0  0  0  0  0  0
   20.5079   72.0179   -0.2408 O   0  0  0  0  0  0  0  0  0  0  0  0
   22.5578   72.2569    1.3739 O   0  0  0  0  0  0  0  0  0  0  0  0
   24.3513   71.4740    2.7079 O   0  0  0  0  0  0  0  0  0  0  0  0
   22.9268   74.6193    4.9765 O   0  0  0  0  0  0  0  0  0  0  0  0
   21.0737   72.7789    3.6676 O   0  0  0  0  0  0  0  0  0  0  0  0
   25.3822   74.9165    3.4489 O   0  0  0  0  0  0  0  0  0  0  0  0
   23.2189   73.9069    3.7743 C   0  0  2  0  0  0  0  0  0  0  0  0
   22.4768   72.5702    3.7784 C   0  0  2  0  0  0  0  0  0  0  0  0
   24.7307   73.6762    3.7168 C   0  0  1  0  0  0  0  0  0  0  0  0
   22.9412   71.6832    2.6224 C   0  0  1  0  0  0  0  0  0  0  0  0
   25.1013   72.6834    2.6188 C   0  0  1  0  0  0  0  0  0  0  0  0
   21.9714   74.7773    5.0349 H   0  0  0  0  0  0  0  0  0  0  0  0
   20.7722   73.3412    4.3979 H   0  0  0  0  0  0  0  0  0  0  0  0
   25.1545   75.5574    4.1405 H   0  0  0  0  0  0  0  0  0  0  0  0
   26.6365   70.9259    2.3825 O   0  0  0  0  0  0  0  0  0  0  0  0
   27.4314   72.8974    3.2075 O   0  0  0  0  0  0  0  0  0  0  0  0
   26.5114   72.2164    2.7799 C   0  0  0  0  0  0  0  0  0  0  0  0
  1  4  1  0
  1 24  1  0
  1  2  1  1
  1  3  2  0
 25 28  1  0
 25 24  1  0
 25 26  1  1
 25 27  2  0
  6 11  1  0
  6 12  1  0
 29 36  1  0
 29 37  1  0
  9  7  1  1
  7 13  1  0
 10  8  1  1
  8 14  1  0
  4  5  1  0
 36 28  1  6
 33 30  1  1
 30 38  1  0
 34 31  1  6
 31 39  1  0
 35 32  1  6
 32 40  1  0
 41 43  1  0
 15 19  2  0
 42 43  2  0
 16 22  2  0
 12 17  1  6
 17 19  1  0
 17 20  1  0
 18 19  1  0
 18 22  1  0
 18 23  1  0
  9 10  1  0
  9 11  1  0
 10 12  1  0
 11  5  1  6
 33 34  1  0
 33 35  1  0
 34 36  1  0
 35 37  1  0
 37 43  1  1
 20 21  2  0
 21 22  1  0
M  CHG  3   2  -1  26  -1  41  -1
M  END
>  <COMPND>  (181) 
    udp_gluA.pdb 

>  <AUTHOR>  (181) 
    GENERATED BY OPEN BABEL 3.1.1

>  <MASTER>  (181) 
        0    0    0    0    0    0    0    0   56    0   56    0

>  <minimizedAffinity>  (181) 
-8.21985

>  <CNNscore>  (181) 
0.9180472493

>  <CNNaffinity>  (181) 
4.7357320786

>  <CNN_VS>  (181) 
4.3476257324

>  <CNNaffinity_variance>  (181) 
0.0811914057

$$$$
182
     RDKit          3D

 43 45  0  0  0  0  0  0  0  0999 V2000
   21.8509   72.0734   -2.8482 P   0  0  2  0  0  0  0  0  0  0  0  0
   22.4763   73.4687   -3.3782 O   0  0  0  0  0  0  0  0  0  0  0  0
   22.8099   70.9195   -2.8199 O   0  0  0  0  0  0  0  0  0  0  0  0
   20.5310   71.8676   -3.7610 O   0  0  0  0  0  0  0  0  0  0  0  0
   19.7394   70.7120   -3.5544 C   0  0  0  0  0  0  0  0  0  0  0  0
   17.9879   71.7248   -4.8522 O   0  0  0  0  0  0  0  0  0  0  0  0
   16.0747   70.3917   -2.9670 O   0  0  0  0  0  0  0  0  0  0  0  0
   16.0003   68.7556   -5.1473 O   0  0  0  0  0  0  0  0  0  0  0  0
   17.3237   69.9184   -3.4714 C   0  0  1  0  0  0  0  0  0  0  0  0
   17.1793   69.4988   -4.9189 C   0  0  2  0  0  0  0  0  0  0  0  0
   18.2686   71.1076   -3.5772 C   0  0  1  0  0  0  0  0  0  0  0  0
   17.1747   70.8378   -5.6365 C   0  0  2  0  0  0  0  0  0  0  0  0
   15.4543   69.6494   -2.8907 H   0  0  0  0  0  0  0  0  0  0  0  0
   16.0522   67.9122   -4.6697 H   0  0  0  0  0  0  0  0  0  0  0  0
   15.6518   70.3317   -7.9606 O   0  0  0  0  0  0  0  0  0  0  0  0
   19.3782   70.5286  -10.6660 O   0  0  0  0  0  0  0  0  0  0  0  0
   17.7214   70.7516   -6.9611 N   0  0  0  0  0  0  0  0  0  0  0  0
   17.5094   70.4293   -9.3057 N   0  0  0  0  0  0  0  0  0  0  0  0
   16.8695   70.4932   -8.0609 C   0  0  0  0  0  0  0  0  0  0  0  0
   19.0858   70.9238   -7.1608 C   0  0  0  0  0  0  0  0  0  0  0  0
   19.6811   70.8601   -8.3534 C   0  0  0  0  0  0  0  0  0  0  0  0
   18.8625   70.5930   -9.5542 C   0  0  0  0  0  0  0  0  0  0  0  0
   16.9372   70.2484  -10.0862 H   0  0  0  0  0  0  0  0  0  0  0  0
   21.2375   72.4746   -1.4075 O   0  0  0  0  0  0  0  0  0  0  0  0
   20.3645   73.7542   -0.9447 P   0  0  2  0  0  0  0  0  0  0  0  0
   19.0977   73.0847   -0.1914 O   0  0  0  0  0  0  0  0  0  0  0  0
   19.9972   74.6861   -2.0630 O   0  0  0  0  0  0  0  0  0  0  0  0
   21.2282   74.4334    0.2364 O   0  0  0  0  0  0  0  0  0  0  0  0
   21.5924   72.7023    1.8112 O   0  0  0  0  0  0  0  0  0  0  0  0
   23.7694   75.8054    3.4543 O   0  0  0  0  0  0  0  0  0  0  0  0
   21.1312   76.2961    2.2996 O   0  0  0  0  0  0  0  0  0  0  0  0
   25.1320   73.6252    2.0974 O   0  0  0  0  0  0  0  0  0  0  0  0
   23.1976   75.0290    2.4016 C   0  0  2  0  0  0  0  0  0  0  0  0
   21.6762   75.0060    2.5510 C   0  0  2  0  0  0  0  0  0  0  0  0
   23.7635   73.6105    2.4991 C   0  0  1  0  0  0  0  0  0  0  0  0
   21.0466   74.0023    1.5840 C   0  0  1  0  0  0  0  0  0  0  0  0
   23.0010   72.6434    1.5980 C   0  0  1  0  0  0  0  0  0  0  0  0
   23.4243   76.7112    3.4125 H   0  0  0  0  0  0  0  0  0  0  0  0
   21.5264   76.9381    2.9095 H   0  0  0  0  0  0  0  0  0  0  0  0
   25.6284   74.2372    2.6630 H   0  0  0  0  0  0  0  0  0  0  0  0
   22.7110   70.3720    1.0898 O   0  0  0  0  0  0  0  0  0  0  0  0
   24.0647   70.8786    2.8533 O   0  0  0  0  0  0  0  0  0  0  0  0
   23.3329   71.2271    1.9389 C   0  0  0  0  0  0  0  0  0  0  0  0
  1  4  1  0
  1 24  1  0
  1  2  1  6
  1  3  2  0
 25 28  1  0
 25 24  1  0
 25 26  1  1
 25 27  2  0
  6 11  1  0
  6 12  1  0
 29 36  1  0
 29 37  1  0
  9  7  1  6
  7 13  1  0
 10  8  1  1
  8 14  1  0
  4  5  1  0
 36 28  1  6
 33 30  1  1
 30 38  1  0
 34 31  1  6
 31 39  1  0
 35 32  1  6
 32 40  1  0
 41 43  1  0
 15 19  2  0
 42 43  2  0
 16 22  2  0
 12 17  1  6
 17 19  1  0
 17 20  1  0
 18 19  1  0
 18 22  1  0
 18 23  1  0
  9 10  1  0
  9 11  1  0
 10 12  1  0
 11  5  1  6
 33 34  1  0
 33 35  1  0
 34 36  1  0
 35 37  1  0
 37 43  1  1
 20 21  2  0
 21 22  1  0
M  CHG  3   2  -1  26  -1  41  -1
M  END
>  <COMPND>  (182) 
    udp_gluA.pdb 

>  <AUTHOR>  (182) 
    GENERATED BY OPEN BABEL 3.1.1

>  <MASTER>  (182) 
        0    0    0    0    0    0    0    0   56    0   56    0

>  <minimizedAffinity>  (182) 
-6.76020

>  <CNNscore>  (182) 
0.8681214452

>  <CNNaffinity>  (182) 
4.6896414757

>  <CNN_VS>  (182) 
4.0711784363

>  <CNNaffinity_variance>  (182) 
0.0728796571

$$$$
183
     RDKit          3D

 43 45  0  0  0  0  0  0  0  0999 V2000
   20.9837   73.0680   -3.8632 P   0  0  2  0  0  0  0  0  0  0  0  0
   20.5268   73.4848   -2.3678 O   0  0  0  0  0  0  0  0  0  0  0  0
   21.4864   74.1997   -4.7107 O   0  0  0  0  0  0  0  0  0  0  0  0
   19.7078   72.2641   -4.4494 O   0  0  0  0  0  0  0  0  0  0  0  0
   19.0816   71.2970   -3.6265 C   0  0  0  0  0  0  0  0  0  0  0  0
   17.3246   71.7930   -5.1900 O   0  0  0  0  0  0  0  0  0  0  0  0
   15.5099   70.2760   -3.3469 O   0  0  0  0  0  0  0  0  0  0  0  0
   16.0102   68.4599   -5.3186 O   0  0  0  0  0  0  0  0  0  0  0  0
   16.8772   70.0280   -3.6750 C   0  0  1  0  0  0  0  0  0  0  0  0
   16.9850   69.4512   -5.0707 C   0  0  2  0  0  0  0  0  0  0  0  0
   17.5741   71.3727   -3.8311 C   0  0  1  0  0  0  0  0  0  0  0  0
   16.7979   70.6850   -5.9371 C   0  0  2  0  0  0  0  0  0  0  0  0
   15.0439   69.4313   -3.2421 H   0  0  0  0  0  0  0  0  0  0  0  0
   16.1728   67.6955   -4.7430 H   0  0  0  0  0  0  0  0  0  0  0  0
   15.5579   70.7792   -8.4728 O   0  0  0  0  0  0  0  0  0  0  0  0
   19.5859   70.3062  -10.6627 O   0  0  0  0  0  0  0  0  0  0  0  0
   17.4988   70.5888   -7.1862 N   0  0  0  0  0  0  0  0  0  0  0  0
   17.5651   70.5425   -9.5610 N   0  0  0  0  0  0  0  0  0  0  0  0
   16.7813   70.6471   -8.4044 C   0  0  0  0  0  0  0  0  0  0  0  0
   18.8803   70.4404   -7.1967 C   0  0  0  0  0  0  0  0  0  0  0  0
   19.6137   70.3421   -8.3073 C   0  0  0  0  0  0  0  0  0  0  0  0
   18.9412   70.3931   -9.6220 C   0  0  0  0  0  0  0  0  0  0  0  0
   17.0877   70.5784  -10.4213 H   0  0  0  0  0  0  0  0  0  0  0  0
   22.0629   71.8939   -3.5989 O   0  0  0  0  0  0  0  0  0  0  0  0
   23.4629   71.9014   -2.7906 P   0  0  2  0  0  0  0  0  0  0  0  0
   24.1268   73.3158   -3.2138 O   0  0  0  0  0  0  0  0  0  0  0  0
   24.3327   70.7064   -3.0544 O   0  0  0  0  0  0  0  0  0  0  0  0
   23.0423   72.0952   -1.2452 O   0  0  0  0  0  0  0  0  0  0  0  0
   24.2202   71.0244    0.5084 O   0  0  0  0  0  0  0  0  0  0  0  0
   20.6235   71.9177    2.3343 O   0  0  0  0  0  0  0  0  0  0  0  0
   20.6814   70.8917   -0.4004 O   0  0  0  0  0  0  0  0  0  0  0  0
   22.9916   73.4971    2.9247 O   0  0  0  0  0  0  0  0  0  0  0  0
   21.7084   72.1130    1.4271 C   0  0  2  0  0  0  0  0  0  0  0  0
   21.8017   70.9193    0.4764 C   0  0  2  0  0  0  0  0  0  0  0  0
   22.9937   72.2417    2.2477 C   0  0  1  0  0  0  0  0  0  0  0  0
   23.0836   70.9812   -0.3552 C   0  0  1  0  0  0  0  0  0  0  0  0
   24.2318   72.1689    1.3588 C   0  0  1  0  0  0  0  0  0  0  0  0
   19.7957   71.8332    1.8353 H   0  0  0  0  0  0  0  0  0  0  0  0
   19.8645   70.8527    0.1206 H   0  0  0  0  0  0  0  0  0  0  0  0
   22.2084   73.5563    3.4938 H   0  0  0  0  0  0  0  0  0  0  0  0
   25.9896   70.7350    1.9550 O   0  0  0  0  0  0  0  0  0  0  0  0
   25.9383   72.7866    2.9486 O   0  0  0  0  0  0  0  0  0  0  0  0
   25.4631   71.9642    2.1799 C   0  0  0  0  0  0  0  0  0  0  0  0
  1  4  1  0
  1 24  1  0
  1  2  1  1
  1  3  2  0
 25 28  1  0
 25 24  1  0
 25 26  1  6
 25 27  2  0
  6 11  1  0
  6 12  1  0
 29 36  1  0
 29 37  1  0
  9  7  1  6
  7 13  1  0
 10  8  1  6
  8 14  1  0
  4  5  1  0
 36 28  1  1
 33 30  1  1
 30 38  1  0
 34 31  1  6
 31 39  1  0
 35 32  1  6
 32 40  1  0
 41 43  1  0
 15 19  2  0
 42 43  2  0
 16 22  2  0
 12 17  1  6
 17 19  1  0
 17 20  1  0
 18 19  1  0
 18 22  1  0
 18 23  1  0
  9 10  1  0
  9 11  1  0
 10 12  1  0
 11  5  1  6
 33 34  1  0
 33 35  1  0
 34 36  1  0
 35 37  1  0
 37 43  1  1
 20 21  2  0
 21 22  1  0
M  CHG  3   2  -1  26  -1  41  -1
M  END
>  <COMPND>  (183) 
    udp_gluA.pdb 

>  <AUTHOR>  (183) 
    GENERATED BY OPEN BABEL 3.1.1

>  <MASTER>  (183) 
        0    0    0    0    0    0    0    0   56    0   56    0

>  <minimizedAffinity>  (183) 
-8.34497

>  <CNNscore>  (183) 
0.8619868755

>  <CNNaffinity>  (183) 
4.6845078468

>  <CNN_VS>  (183) 
4.0379843712

>  <CNNaffinity_variance>  (183) 
0.0485594645

$$$$
184
     RDKit          3D

 43 45  0  0  0  0  0  0  0  0999 V2000
   21.5815   71.4710   -1.6242 P   0  0  2  0  0  0  0  0  0  0  0  0
   22.6555   70.6656   -2.5279 O   0  0  0  0  0  0  0  0  0  0  0  0
   20.8090   70.6256   -0.6544 O   0  0  0  0  0  0  0  0  0  0  0  0
   20.6964   72.2856   -2.7064 O   0  0  0  0  0  0  0  0  0  0  0  0
   20.1119   71.5691   -3.7785 C   0  0  0  0  0  0  0  0  0  0  0  0
   18.1279   72.1246   -5.0166 O   0  0  0  0  0  0  0  0  0  0  0  0
   16.6032   70.7549   -2.8278 O   0  0  0  0  0  0  0  0  0  0  0  0
   16.6459   68.8674   -4.7954 O   0  0  0  0  0  0  0  0  0  0  0  0
   17.8741   70.4237   -3.3876 C   0  0  1  0  0  0  0  0  0  0  0  0
   17.6982   69.8088   -4.7599 C   0  0  2  0  0  0  0  0  0  0  0  0
   18.5980   71.7235   -3.7114 C   0  0  1  0  0  0  0  0  0  0  0  0
   17.4194   71.0300   -5.6194 C   0  0  2  0  0  0  0  0  0  0  0  0
   16.1219   69.9402   -2.6127 H   0  0  0  0  0  0  0  0  0  0  0  0
   16.8714   68.1091   -4.2332 H   0  0  0  0  0  0  0  0  0  0  0  0
   15.7977   70.1434   -7.7549 O   0  0  0  0  0  0  0  0  0  0  0  0
   19.2797   70.4354  -10.7607 O   0  0  0  0  0  0  0  0  0  0  0  0
   17.8766   70.8654   -6.9702 N   0  0  0  0  0  0  0  0  0  0  0  0
   17.5338   70.2887   -9.2497 N   0  0  0  0  0  0  0  0  0  0  0  0
   16.9810   70.4140   -7.9684 C   0  0  0  0  0  0  0  0  0  0  0  0
   19.1970   71.1511   -7.2953 C   0  0  0  0  0  0  0  0  0  0  0  0
   19.7094   71.0269   -8.5212 C   0  0  0  0  0  0  0  0  0  0  0  0
   18.8406   70.5601   -9.6215 C   0  0  0  0  0  0  0  0  0  0  0  0
   16.9300   69.9741   -9.9610 H   0  0  0  0  0  0  0  0  0  0  0  0
   22.4780   72.6300   -0.9417 O   0  0  0  0  0  0  0  0  0  0  0  0
   23.4872   72.5863    0.3206 P   0  0  2  0  0  0  0  0  0  0  0  0
   24.3920   73.9130    0.1168 O   0  0  0  0  0  0  0  0  0  0  0  0
   24.2740   71.3130    0.4362 O   0  0  0  0  0  0  0  0  0  0  0  0
   22.5595   72.9184    1.5979 O   0  0  0  0  0  0  0  0  0  0  0  0
   21.4365   74.9776    1.9265 O   0  0  0  0  0  0  0  0  0  0  0  0
   21.7351   73.5564    5.7942 O   0  0  0  0  0  0  0  0  0  0  0  0
   23.9886   73.3173    3.9505 O   0  0  0  0  0  0  0  0  0  0  0  0
   19.1950   73.4318    4.3858 O   0  0  0  0  0  0  0  0  0  0  0  0
   21.6042   73.4577    4.3760 C   0  0  2  0  0  0  0  0  0  0  0  0
   22.8216   74.0934    3.7043 C   0  0  2  0  0  0  0  0  0  0  0  0
   20.3260   74.1931    3.9668 C   0  0  1  0  0  0  0  0  0  0  0  0
   22.6128   74.2133    2.1940 C   0  0  1  0  0  0  0  0  0  0  0  0
   20.2527   74.3834    2.4545 C   0  0  1  0  0  0  0  0  0  0  0  0
   22.5408   73.0961    6.0775 H   0  0  0  0  0  0  0  0  0  0  0  0
   24.1270   73.2369    4.9070 H   0  0  0  0  0  0  0  0  0  0  0  0
   19.2296   73.3034    5.3466 H   0  0  0  0  0  0  0  0  0  0  0  0
   18.9768   76.2364    3.1178 O   0  0  0  0  0  0  0  0  0  0  0  0
   18.5972   75.4064    1.0283 O   0  0  0  0  0  0  0  0  0  0  0  0
   19.1920   75.3723    2.0951 C   0  0  0  0  0  0  0  0  0  0  0  0
  1  4  1  0
  1 24  1  0
  1  2  1  6
  1  3  2  0
 25 28  1  0
 25 24  1  0
 25 26  1  6
 25 27  2  0
  6 11  1  0
  6 12  1  0
 29 36  1  0
 29 37  1  0
  9  7  1  6
  7 13  1  0
 10  8  1  1
  8 14  1  0
  4  5  1  0
 36 28  1  1
 33 30  1  1
 30 38  1  0
 34 31  1  6
 31 39  1  0
 35 32  1  6
 32 40  1  0
 41 43  1  0
 15 19  2  0
 42 43  2  0
 16 22  2  0
 12 17  1  6
 17 19  1  0
 17 20  1  0
 18 19  1  0
 18 22  1  0
 18 23  1  0
  9 10  1  0
  9 11  1  0
 10 12  1  0
 11  5  1  6
 33 34  1  0
 33 35  1  0
 34 36  1  0
 35 37  1  0
 37 43  1  1
 20 21  2  0
 21 22  1  0
M  CHG  3   2  -1  26  -1  41  -1
M  END
>  <COMPND>  (184) 
    udp_gluA.pdb 

>  <AUTHOR>  (184) 
    GENERATED BY OPEN BABEL 3.1.1

>  <MASTER>  (184) 
        0    0    0    0    0    0    0    0   56    0   56    0

>  <minimizedAffinity>  (184) 
-6.76363

>  <CNNscore>  (184) 
0.8075344563

>  <CNNaffinity>  (184) 
4.5041408539

>  <CNN_VS>  (184) 
3.6372489929

>  <CNNaffinity_variance>  (184) 
0.0567775294

$$$$
185
     RDKit          3D

 43 45  0  0  0  0  0  0  0  0999 V2000
   21.8392   72.0303   -2.1043 P   0  0  2  0  0  0  0  0  0  0  0  0
   22.8198   73.3005   -2.3139 O   0  0  0  0  0  0  0  0  0  0  0  0
   22.3507   70.7358   -2.6650 O   0  0  0  0  0  0  0  0  0  0  0  0
   20.4178   72.5363   -2.6887 O   0  0  0  0  0  0  0  0  0  0  0  0
   19.9356   71.9585   -3.8879 C   0  0  0  0  0  0  0  0  0  0  0  0
   17.8775   72.0897   -5.1228 O   0  0  0  0  0  0  0  0  0  0  0  0
   16.6358   70.5728   -2.8537 O   0  0  0  0  0  0  0  0  0  0  0  0
   17.0075   68.6334   -4.7343 O   0  0  0  0  0  0  0  0  0  0  0  0
   17.9427   70.4493   -3.4152 C   0  0  1  0  0  0  0  0  0  0  0  0
   17.8732   69.7490   -4.7558 C   0  0  2  0  0  0  0  0  0  0  0  0
   18.4190   71.8414   -3.8073 C   0  0  1  0  0  0  0  0  0  0  0  0
   17.3746   70.8586   -5.6658 C   0  0  2  0  0  0  0  0  0  0  0  0
   16.3103   69.6958   -2.5955 H   0  0  0  0  0  0  0  0  0  0  0  0
   17.3688   67.9552   -4.1414 H   0  0  0  0  0  0  0  0  0  0  0  0
   15.7064   70.4181   -7.9017 O   0  0  0  0  0  0  0  0  0  0  0  0
   19.2961   70.3248  -10.7913 O   0  0  0  0  0  0  0  0  0  0  0  0
   17.8469   70.7155   -7.0139 N   0  0  0  0  0  0  0  0  0  0  0  0
   17.4959   70.3711   -9.3386 N   0  0  0  0  0  0  0  0  0  0  0  0
   16.9254   70.4968   -8.0651 C   0  0  0  0  0  0  0  0  0  0  0  0
   19.2077   70.7936   -7.2840 C   0  0  0  0  0  0  0  0  0  0  0  0
   19.7366   70.6719   -8.5031 C   0  0  0  0  0  0  0  0  0  0  0  0
   18.8426   70.4408   -9.6567 C   0  0  0  0  0  0  0  0  0  0  0  0
   16.8744   70.2162  -10.0863 H   0  0  0  0  0  0  0  0  0  0  0  0
   21.5930   72.0217   -0.5068 O   0  0  0  0  0  0  0  0  0  0  0  0
   22.3463   71.2216    0.6790 P   0  0  2  0  0  0  0  0  0  0  0  0
   23.8204   70.9540    0.0661 O   0  0  0  0  0  0  0  0  0  0  0  0
   21.6324   69.9826    1.1362 O   0  0  0  0  0  0  0  0  0  0  0  0
   22.5793   72.3245    1.8331 O   0  0  0  0  0  0  0  0  0  0  0  0
   21.6824   74.3587    2.6496 O   0  0  0  0  0  0  0  0  0  0  0  0
   25.6644   75.3377    2.1465 O   0  0  0  0  0  0  0  0  0  0  0  0
   24.2659   73.7438    0.1369 O   0  0  0  0  0  0  0  0  0  0  0  0
   24.6068   74.8509    4.8102 O   0  0  0  0  0  0  0  0  0  0  0  0
   24.5591   74.4799    2.4300 C   0  0  2  0  0  0  0  0  0  0  0  0
   23.6320   74.4213    1.2157 C   0  0  2  0  0  0  0  0  0  0  0  0
   23.8159   75.0504    3.6400 C   0  0  1  0  0  0  0  0  0  0  0  0
   22.3269   73.7012    1.5580 C   0  0  1  0  0  0  0  0  0  0  0  0
   22.4675   74.3645    3.8398 C   0  0  1  0  0  0  0  0  0  0  0  0
   26.1518   74.9950    1.3808 H   0  0  0  0  0  0  0  0  0  0  0  0
   25.0949   74.1952   -0.0854 H   0  0  0  0  0  0  0  0  0  0  0  0
   25.4679   75.2824    4.6959 H   0  0  0  0  0  0  0  0  0  0  0  0
   20.3700   74.6069    4.8611 O   0  0  0  0  0  0  0  0  0  0  0  0
   21.9892   76.1032    5.4428 O   0  0  0  0  0  0  0  0  0  0  0  0
   21.6180   75.1337    4.7984 C   0  0  0  0  0  0  0  0  0  0  0  0
  1  4  1  0
  1 24  1  0
  1  2  1  1
  1  3  2  0
 25 28  1  0
 25 24  1  0
 25 26  1  6
 25 27  2  0
  6 11  1  0
  6 12  1  0
 29 36  1  0
 29 37  1  0
  9  7  1  6
  7 13  1  0
 10  8  1  1
  8 14  1  0
  4  5  1  0
 36 28  1  1
 33 30  1  6
 30 38  1  0
 34 31  1  6
 31 39  1  0
 35 32  1  1
 32 40  1  0
 41 43  1  0
 15 19  2  0
 42 43  2  0
 16 22  2  0
 12 17  1  6
 17 19  1  0
 17 20  1  0
 18 19  1  0
 18 22  1  0
 18 23  1  0
  9 10  1  0
  9 11  1  0
 10 12  1  0
 11  5  1  6
 33 34  1  0
 33 35  1  0
 34 36  1  0
 35 37  1  0
 37 43  1  1
 20 21  2  0
 21 22  1  0
M  CHG  3   2  -1  26  -1  41  -1
M  END
>  <COMPND>  (185) 
    udp_gluA.pdb 

>  <AUTHOR>  (185) 
    GENERATED BY OPEN BABEL 3.1.1

>  <MASTER>  (185) 
        0    0    0    0    0    0    0    0   56    0   56    0

>  <minimizedAffinity>  (185) 
-6.91836

>  <CNNscore>  (185) 
0.7879763842

>  <CNNaffinity>  (185) 
4.5625829697

>  <CNN_VS>  (185) 
3.5952076912

>  <CNNaffinity_variance>  (185) 
0.1407714188

$$$$
186
     RDKit          3D

 43 45  0  0  0  0  0  0  0  0999 V2000
   21.3571   73.7951   -3.1578 P   0  0  2  0  0  0  0  0  0  0  0  0
   21.2943   75.0040   -2.0838 O   0  0  0  0  0  0  0  0  0  0  0  0
   21.6919   74.2105   -4.5604 O   0  0  0  0  0  0  0  0  0  0  0  0
   19.9417   73.0341   -2.9693 O   0  0  0  0  0  0  0  0  0  0  0  0
   19.5722   72.0491   -3.9169 C   0  0  0  0  0  0  0  0  0  0  0  0
   17.6003   72.1485   -5.2877 O   0  0  0  0  0  0  0  0  0  0  0  0
   16.2185   70.6578   -3.0833 O   0  0  0  0  0  0  0  0  0  0  0  0
   16.7252   68.6928   -4.9049 O   0  0  0  0  0  0  0  0  0  0  0  0
   17.5606   70.5344   -3.5546 C   0  0  1  0  0  0  0  0  0  0  0  0
   17.5843   69.8136   -4.8859 C   0  0  2  0  0  0  0  0  0  0  0  0
   18.0542   71.9234   -3.9355 C   0  0  1  0  0  0  0  0  0  0  0  0
   17.1414   70.9062   -5.8440 C   0  0  2  0  0  0  0  0  0  0  0  0
   15.8813   69.7827   -2.8338 H   0  0  0  0  0  0  0  0  0  0  0  0
   17.0499   68.0260   -4.2790 H   0  0  0  0  0  0  0  0  0  0  0  0
   15.6211   70.6745   -8.2129 O   0  0  0  0  0  0  0  0  0  0  0  0
   19.4032   70.2952  -10.8198 O   0  0  0  0  0  0  0  0  0  0  0  0
   17.7032   70.7460   -7.1553 N   0  0  0  0  0  0  0  0  0  0  0  0
   17.5063   70.4848   -9.5089 N   0  0  0  0  0  0  0  0  0  0  0  0
   16.8512   70.6387   -8.2799 C   0  0  0  0  0  0  0  0  0  0  0  0
   19.0824   70.6982   -7.3179 C   0  0  0  0  0  0  0  0  0  0  0  0
   19.6922   70.5511   -8.4957 C   0  0  0  0  0  0  0  0  0  0  0  0
   18.8744   70.4310   -9.7206 C   0  0  0  0  0  0  0  0  0  0  0  0
   16.9340   70.4059  -10.3061 H   0  0  0  0  0  0  0  0  0  0  0  0
   22.4128   72.7699   -2.4890 O   0  0  0  0  0  0  0  0  0  0  0  0
   22.2859   71.8106   -1.1939 P   0  0  2  0  0  0  0  0  0  0  0  0
   23.7993   71.2784   -0.9782 O   0  0  0  0  0  0  0  0  0  0  0  0
   21.2613   70.7219   -1.3320 O   0  0  0  0  0  0  0  0  0  0  0  0
   22.0292   72.8190    0.0388 O   0  0  0  0  0  0  0  0  0  0  0  0
   21.7997   72.3370    2.3462 O   0  0  0  0  0  0  0  0  0  0  0  0
   19.3846   75.6640    1.9381 O   0  0  0  0  0  0  0  0  0  0  0  0
   19.3486   73.5515   -0.0794 O   0  0  0  0  0  0  0  0  0  0  0  0
   22.0049   75.9057    3.1738 O   0  0  0  0  0  0  0  0  0  0  0  0
   20.4948   74.8158    1.6451 C   0  0  2  0  0  0  0  0  0  0  0  0
   19.9872   73.4480    1.1879 C   0  0  2  0  0  0  0  0  0  0  0  0
   21.3312   74.6746    2.9188 C   0  0  1  0  0  0  0  0  0  0  0  0
   21.1363   72.4440    1.0861 C   0  0  1  0  0  0  0  0  0  0  0  0
   22.3729   73.5679    2.7815 C   0  0  1  0  0  0  0  0  0  0  0  0
   18.8385   75.7683    1.1430 H   0  0  0  0  0  0  0  0  0  0  0  0
   18.6186   74.1872   -0.0222 H   0  0  0  0  0  0  0  0  0  0  0  0
   21.3531   76.6184    3.2631 H   0  0  0  0  0  0  0  0  0  0  0  0
   23.9082   74.1087    4.4702 O   0  0  0  0  0  0  0  0  0  0  0  0
   22.6142   72.2595    4.7942 O   0  0  0  0  0  0  0  0  0  0  0  0
   22.9518   73.2161    4.1131 C   0  0  0  0  0  0  0  0  0  0  0  0
  1  4  1  0
  1 24  1  0
  1  2  1  1
  1  3  2  0
 25 28  1  0
 25 24  1  0
 25 26  1  1
 25 27  2  0
  6 11  1  0
  6 12  1  0
 29 36  1  0
 29 37  1  0
  9  7  1  6
  7 13  1  0
 10  8  1  1
  8 14  1  0
  4  5  1  0
 36 28  1  6
 33 30  1  1
 30 38  1  0
 34 31  1  6
 31 39  1  0
 35 32  1  6
 32 40  1  0
 41 43  1  0
 15 19  2  0
 42 43  2  0
 16 22  2  0
 12 17  1  6
 17 19  1  0
 17 20  1  0
 18 19  1  0
 18 22  1  0
 18 23  1  0
  9 10  1  0
  9 11  1  0
 10 12  1  0
 11  5  1  6
 33 34  1  0
 33 35  1  0
 34 36  1  0
 35 37  1  0
 37 43  1  1
 20 21  2  0
 21 22  1  0
M  CHG  3   2  -1  26  -1  41  -1
M  END
>  <COMPND>  (186) 
    udp_gluA.pdb 

>  <AUTHOR>  (186) 
    GENERATED BY OPEN BABEL 3.1.1

>  <MASTER>  (186) 
        0    0    0    0    0    0    0    0   56    0   56    0

>  <minimizedAffinity>  (186) 
-6.31698

>  <CNNscore>  (186) 
0.7580837011

>  <CNNaffinity>  (186) 
4.4321718216

>  <CNN_VS>  (186) 
3.3599572182

>  <CNNaffinity_variance>  (186) 
0.0406404063

$$$$
187
     RDKit          3D

 43 45  0  0  0  0  0  0  0  0999 V2000
   23.4965   72.4367   -3.5810 P   0  0  2  0  0  0  0  0  0  0  0  0
   23.9828   70.9582   -3.1379 O   0  0  0  0  0  0  0  0  0  0  0  0
   24.5434   73.2715   -4.2585 O   0  0  0  0  0  0  0  0  0  0  0  0
   22.8678   73.0609   -2.2271 O   0  0  0  0  0  0  0  0  0  0  0  0
   21.8808   74.0695   -2.3425 C   0  0  0  0  0  0  0  0  0  0  0  0
   21.0657   72.5508   -0.6670 O   0  0  0  0  0  0  0  0  0  0  0  0
   19.0605   74.6733    0.0153 O   0  0  0  0  0  0  0  0  0  0  0  0
   20.9337   74.9715    1.9744 O   0  0  0  0  0  0  0  0  0  0  0  0
   20.4202   74.8138   -0.3970 C   0  0  1  0  0  0  0  0  0  0  0  0
   21.3526   74.4388    0.7353 C   0  0  2  0  0  0  0  0  0  0  0  0
   20.7141   73.7291   -1.4242 C   0  0  1  0  0  0  0  0  0  0  0  0
   21.2951   72.9211    0.7017 C   0  0  2  0  0  0  0  0  0  0  0  0
   18.8492   75.3558    0.6720 H   0  0  0  0  0  0  0  0  0  0  0  0
   20.9888   75.9400    1.9452 H   0  0  0  0  0  0  0  0  0  0  0  0
   21.6317   70.1544    1.1583 O   0  0  0  0  0  0  0  0  0  0  0  0
   26.0288   70.7124    2.4227 O   0  0  0  0  0  0  0  0  0  0  0  0
   22.5173   72.3164    1.1505 N   0  0  0  0  0  0  0  0  0  0  0  0
   23.8211   70.4351    1.7886 N   0  0  0  0  0  0  0  0  0  0  0  0
   22.5810   70.9169    1.3492 C   0  0  0  0  0  0  0  0  0  0  0  0
   23.6359   73.1062    1.3872 C   0  0  0  0  0  0  0  0  0  0  0  0
   24.8111   72.6324    1.8056 C   0  0  0  0  0  0  0  0  0  0  0  0
   24.9616   71.1810    2.0383 C   0  0  0  0  0  0  0  0  0  0  0  0
   23.8891   69.4640    1.9360 H   0  0  0  0  0  0  0  0  0  0  0  0
   22.1895   72.1338   -4.4826 O   0  0  0  0  0  0  0  0  0  0  0  0
   21.6111   72.8767   -5.7968 P   0  0  2  0  0  0  0  0  0  0  0  0
   22.5735   72.3362   -6.9809 O   0  0  0  0  0  0  0  0  0  0  0  0
   21.5516   74.3725   -5.6825 O   0  0  0  0  0  0  0  0  0  0  0  0
   20.1880   72.1693   -6.0739 O   0  0  0  0  0  0  0  0  0  0  0  0
   19.4647   70.0014   -5.4526 O   0  0  0  0  0  0  0  0  0  0  0  0
   17.3372   70.6309   -8.9376 O   0  0  0  0  0  0  0  0  0  0  0  0
   20.1434   71.4215   -8.7525 O   0  0  0  0  0  0  0  0  0  0  0  0
   16.0074   70.8291   -6.3602 O   0  0  0  0  0  0  0  0  0  0  0  0
   17.9871   71.0031   -7.7223 C   0  0  2  0  0  0  0  0  0  0  0  0
   19.4650   70.6183   -7.7937 C   0  0  2  0  0  0  0  0  0  0  0  0
   17.2994   70.2635   -6.5725 C   0  0  1  0  0  0  0  0  0  0  0  0
   20.1413   70.7895   -6.4327 C   0  0  1  0  0  0  0  0  0  0  0  0
   18.1004   70.3775   -5.2787 C   0  0  1  0  0  0  0  0  0  0  0  0
   17.7574   71.0888   -9.6826 H   0  0  0  0  0  0  0  0  0  0  0  0
   19.7194   71.3180   -9.6184 H   0  0  0  0  0  0  0  0  0  0  0  0
   15.4874   70.7630   -7.1763 H   0  0  0  0  0  0  0  0  0  0  0  0
   18.5387   69.2069   -3.2940 O   0  0  0  0  0  0  0  0  0  0  0  0
   16.5210   68.8435   -4.2919 O   0  0  0  0  0  0  0  0  0  0  0  0
   17.6093   69.3982   -4.2628 C   0  0  0  0  0  0  0  0  0  0  0  0
  1  4  1  0
  1 24  1  0
  1  2  1  1
  1  3  2  0
 25 28  1  0
 25 24  1  0
 25 26  1  6
 25 27  2  0
  6 11  1  0
  6 12  1  0
 29 36  1  0
 29 37  1  0
  9  7  1  1
  7 13  1  0
 10  8  1  1
  8 14  1  0
  4  5  1  0
 36 28  1  1
 33 30  1  6
 30 38  1  0
 34 31  1  6
 31 39  1  0
 35 32  1  1
 32 40  1  0
 41 43  1  0
 15 19  2  0
 42 43  2  0
 16 22  2  0
 12 17  1  6
 17 19  1  0
 17 20  1  0
 18 19  1  0
 18 22  1  0
 18 23  1  0
  9 10  1  0
  9 11  1  0
 10 12  1  0
 11  5  1  6
 33 34  1  0
 33 35  1  0
 34 36  1  0
 35 37  1  0
 37 43  1  1
 20 21  2  0
 21 22  1  0
M  CHG  3   2  -1  26  -1  41  -1
M  END
>  <COMPND>  (187) 
    udp_gluA.pdb 

>  <AUTHOR>  (187) 
    GENERATED BY OPEN BABEL 3.1.1

>  <MASTER>  (187) 
        0    0    0    0    0    0    0    0   56    0   56    0

>  <minimizedAffinity>  (187) 
-7.89406

>  <CNNscore>  (187) 
0.7120838165

>  <CNNaffinity>  (187) 
4.6346054077

>  <CNN_VS>  (187) 
3.3002274036

>  <CNNaffinity_variance>  (187) 
0.0438541882

$$$$
188
     RDKit          3D

 43 45  0  0  0  0  0  0  0  0999 V2000
   21.5517   72.5043   -5.5101 P   0  0  2  0  0  0  0  0  0  0  0  0
   20.9241   73.9286   -5.9535 O   0  0  0  0  0  0  0  0  0  0  0  0
   23.0452   72.4083   -5.6199 O   0  0  0  0  0  0  0  0  0  0  0  0
   20.7127   71.4241   -6.3746 O   0  0  0  0  0  0  0  0  0  0  0  0
   20.2347   71.8047   -7.6517 C   0  0  0  0  0  0  0  0  0  0  0  0
   18.9356   69.8314   -7.2093 O   0  0  0  0  0  0  0  0  0  0  0  0
   18.0558   69.9947  -10.0713 O   0  0  0  0  0  0  0  0  0  0  0  0
   15.9226   71.0393   -8.7317 O   0  0  0  0  0  0  0  0  0  0  0  0
   18.3187   71.0491   -9.1452 C   0  0  1  0  0  0  0  0  0  0  0  0
   17.1971   71.1496   -8.1332 C   0  0  2  0  0  0  0  0  0  0  0  0
   19.4955   70.6280   -8.2757 C   0  0  1  0  0  0  0  0  0  0  0  0
   17.5080   69.9905   -7.2016 C   0  0  2  0  0  0  0  0  0  0  0  0
   17.3075   70.2408  -10.6380 H   0  0  0  0  0  0  0  0  0  0  0  0
   15.7723   71.8004   -9.3147 H   0  0  0  0  0  0  0  0  0  0  0  0
   16.0966   68.1283   -5.6153 O   0  0  0  0  0  0  0  0  0  0  0  0
   15.8892   71.0447   -2.0523 O   0  0  0  0  0  0  0  0  0  0  0  0
   17.0729   70.2371   -5.8560 N   0  0  0  0  0  0  0  0  0  0  0  0
   15.9937   69.5829   -3.8426 N   0  0  0  0  0  0  0  0  0  0  0  0
   16.3706   69.2345   -5.1463 C   0  0  0  0  0  0  0  0  0  0  0  0
   17.3438   71.4591   -5.2524 C   0  0  0  0  0  0  0  0  0  0  0  0
   16.9783   71.7766   -4.0088 C   0  0  0  0  0  0  0  0  0  0  0  0
   16.2398   70.7852   -3.1995 C   0  0  0  0  0  0  0  0  0  0  0  0
   15.5018   68.9018   -3.3295 H   0  0  0  0  0  0  0  0  0  0  0  0
   20.9720   72.3021   -4.0148 O   0  0  0  0  0  0  0  0  0  0  0  0
   20.9829   71.0145   -3.0373 P   0  0  2  0  0  0  0  0  0  0  0  0
   22.5257   70.5268   -3.0852 O   0  0  0  0  0  0  0  0  0  0  0  0
   19.9871   69.9531   -3.4059 O   0  0  0  0  0  0  0  0  0  0  0  0
   20.7943   71.6238   -1.5556 O   0  0  0  0  0  0  0  0  0  0  0  0
   22.2826   73.3229   -0.8434 O   0  0  0  0  0  0  0  0  0  0  0  0
   20.5697   72.1537    2.7298 O   0  0  0  0  0  0  0  0  0  0  0  0
   21.3563   70.1618    0.7428 O   0  0  0  0  0  0  0  0  0  0  0  0
   19.7608   74.6458    1.4703 O   0  0  0  0  0  0  0  0  0  0  0  0
   20.6137   72.3972    1.3238 C   0  0  2  0  0  0  0  0  0  0  0  0
   21.7090   71.5393    0.6899 C   0  0  2  0  0  0  0  0  0  0  0  0
   20.9111   73.8831    1.1103 C   0  0  1  0  0  0  0  0  0  0  0  0
   21.9413   71.9382   -0.7681 C   0  0  1  0  0  0  0  0  0  0  0  0
   21.2558   74.1785   -0.3466 C   0  0  1  0  0  0  0  0  0  0  0  0
   20.3821   71.2154    2.8899 H   0  0  0  0  0  0  0  0  0  0  0  0
   21.2071   69.9019    1.6651 H   0  0  0  0  0  0  0  0  0  0  0  0
   19.5307   74.4668    2.3954 H   0  0  0  0  0  0  0  0  0  0  0  0
   23.2115   75.4673   -0.4730 O   0  0  0  0  0  0  0  0  0  0  0  0
   21.2240   76.5783   -0.5940 O   0  0  0  0  0  0  0  0  0  0  0  0
   21.8574   75.5392   -0.4840 C   0  0  0  0  0  0  0  0  0  0  0  0
  1  4  1  0
  1 24  1  0
  1  2  1  6
  1  3  2  0
 25 28  1  0
 25 24  1  0
 25 26  1  1
 25 27  2  0
  6 11  1  0
  6 12  1  0
 29 36  1  0
 29 37  1  0
  9  7  1  6
  7 13  1  0
 10  8  1  6
  8 14  1  0
  4  5  1  0
 36 28  1  6
 33 30  1  1
 30 38  1  0
 34 31  1  6
 31 39  1  0
 35 32  1  6
 32 40  1  0
 41 43  1  0
 15 19  2  0
 42 43  2  0
 16 22  2  0
 12 17  1  1
 17 19  1  0
 17 20  1  0
 18 19  1  0
 18 22  1  0
 18 23  1  0
  9 10  1  0
  9 11  1  0
 10 12  1  0
 11  5  1  1
 33 34  1  0
 33 35  1  0
 34 36  1  0
 35 37  1  0
 37 43  1  1
 20 21  2  0
 21 22  1  0
M  CHG  3   2  -1  26  -1  41  -1
M  END
>  <COMPND>  (188) 
    udp_gluA.pdb 

>  <AUTHOR>  (188) 
    GENERATED BY OPEN BABEL 3.1.1

>  <MASTER>  (188) 
        0    0    0    0    0    0    0    0   56    0   56    0

>  <minimizedAffinity>  (188) 
-7.41986

>  <CNNscore>  (188) 
0.6942567825

>  <CNNaffinity>  (188) 
4.6038680077

>  <CNN_VS>  (188) 
3.1962666512

>  <CNNaffinity_variance>  (188) 
0.1448071599

$$$$
189
     RDKit          3D

 43 45  0  0  0  0  0  0  0  0999 V2000
   21.9266   72.5319   -5.8844 P   0  0  2  0  0  0  0  0  0  0  0  0
   21.3321   73.9362   -5.3428 O   0  0  0  0  0  0  0  0  0  0  0  0
   23.0405   72.6582   -6.8819 O   0  0  0  0  0  0  0  0  0  0  0  0
   20.6183   71.7256   -6.3905 O   0  0  0  0  0  0  0  0  0  0  0  0
   20.0652   72.0573   -7.6508 C   0  0  0  0  0  0  0  0  0  0  0  0
   18.9328   69.9887   -7.1857 O   0  0  0  0  0  0  0  0  0  0  0  0
   18.0806   70.0242  -10.0605 O   0  0  0  0  0  0  0  0  0  0  0  0
   15.8487   70.9073   -8.7664 O   0  0  0  0  0  0  0  0  0  0  0  0
   18.2405   71.1139   -9.1518 C   0  0  1  0  0  0  0  0  0  0  0  0
   17.1010   71.1368   -8.1552 C   0  0  2  0  0  0  0  0  0  0  0  0
   19.4372   70.8106   -8.2606 C   0  0  1  0  0  0  0  0  0  0  0  0
   17.4969   70.0257   -7.1979 C   0  0  2  0  0  0  0  0  0  0  0  0
   17.3217   70.1952  -10.6406 H   0  0  0  0  0  0  0  0  0  0  0  0
   15.6419   71.6421   -9.3658 H   0  0  0  0  0  0  0  0  0  0  0  0
   16.2269   68.0793   -5.5931 O   0  0  0  0  0  0  0  0  0  0  0  0
   15.7257   71.0315   -2.0892 O   0  0  0  0  0  0  0  0  0  0  0  0
   17.0245   70.2587   -5.8624 N   0  0  0  0  0  0  0  0  0  0  0  0
   15.9776   69.5518   -3.8498 N   0  0  0  0  0  0  0  0  0  0  0  0
   16.4000   69.2132   -5.1421 C   0  0  0  0  0  0  0  0  0  0  0  0
   17.1829   71.5100   -5.2792 C   0  0  0  0  0  0  0  0  0  0  0  0
   16.7752   71.8177   -4.0464 C   0  0  0  0  0  0  0  0  0  0  0  0
   16.1123   70.7821   -3.2270 C   0  0  0  0  0  0  0  0  0  0  0  0
   15.5382   68.8408   -3.3296 H   0  0  0  0  0  0  0  0  0  0  0  0
   22.3264   71.7579   -4.5229 O   0  0  0  0  0  0  0  0  0  0  0  0
   23.5042   72.0356   -3.4507 P   0  0  2  0  0  0  0  0  0  0  0  0
   24.4768   73.0692   -4.2292 O   0  0  0  0  0  0  0  0  0  0  0  0
   24.1899   70.7957   -2.9543 O   0  0  0  0  0  0  0  0  0  0  0  0
   22.8070   72.9224   -2.2975 O   0  0  0  0  0  0  0  0  0  0  0  0
   21.6476   71.6679   -0.6571 O   0  0  0  0  0  0  0  0  0  0  0  0
   20.4769   75.5244    0.2511 O   0  0  0  0  0  0  0  0  0  0  0  0
   20.6312   74.6395   -2.5288 O   0  0  0  0  0  0  0  0  0  0  0  0
   22.4452   74.1690    1.9062 O   0  0  0  0  0  0  0  0  0  0  0  0
   21.3620   74.5078   -0.2191 C   0  0  2  0  0  0  0  0  0  0  0  0
   20.7217   73.7778   -1.4000 C   0  0  2  0  0  0  0  0  0  0  0  0
   21.6181   73.5338    0.9332 C   0  0  1  0  0  0  0  0  0  0  0  0
   21.5331   72.5393   -1.7827 C   0  0  1  0  0  0  0  0  0  0  0  0
   22.3196   72.2687    0.4477 C   0  0  1  0  0  0  0  0  0  0  0  0
   20.2996   76.1553   -0.4644 H   0  0  0  0  0  0  0  0  0  0  0  0
   20.1178   75.4277   -2.2930 H   0  0  0  0  0  0  0  0  0  0  0  0
   22.0102   74.9759    2.2233 H   0  0  0  0  0  0  0  0  0  0  0  0
   21.5433   70.1412    1.0581 O   0  0  0  0  0  0  0  0  0  0  0  0
   22.8091   71.2644    2.5862 O   0  0  0  0  0  0  0  0  0  0  0  0
   22.2700   71.2008    1.4915 C   0  0  0  0  0  0  0  0  0  0  0  0
  1  4  1  0
  1 24  1  0
  1  2  1  1
  1  3  2  0
 25 28  1  0
 25 24  1  0
 25 26  1  6
 25 27  2  0
  6 11  1  0
  6 12  1  0
 29 36  1  0
 29 37  1  0
  9  7  1  6
  7 13  1  0
 10  8  1  6
  8 14  1  0
  4  5  1  0
 36 28  1  1
 33 30  1  1
 30 38  1  0
 34 31  1  6
 31 39  1  0
 35 32  1  1
 32 40  1  0
 41 43  1  0
 15 19  2  0
 42 43  2  0
 16 22  2  0
 12 17  1  1
 17 19  1  0
 17 20  1  0
 18 19  1  0
 18 22  1  0
 18 23  1  0
  9 10  1  0
  9 11  1  0
 10 12  1  0
 11  5  1  1
 33 34  1  0
 33 35  1  0
 34 36  1  0
 35 37  1  0
 37 43  1  1
 20 21  2  0
 21 22  1  0
M  CHG  3   2  -1  26  -1  41  -1
M  END
>  <COMPND>  (189) 
    udp_gluA.pdb 

>  <AUTHOR>  (189) 
    GENERATED BY OPEN BABEL 3.1.1

>  <MASTER>  (189) 
        0    0    0    0    0    0    0    0   56    0   56    0

>  <minimizedAffinity>  (189) 
-8.40381

>  <CNNscore>  (189) 
0.6487296820

>  <CNNaffinity>  (189) 
4.4393463135

>  <CNN_VS>  (189) 
2.8799357414

>  <CNNaffinity_variance>  (189) 
0.3897825778

$$$$
190
     RDKit          3D

 43 45  0  0  0  0  0  0  0  0999 V2000
   22.8579   73.3356   -4.3608 P   0  0  2  0  0  0  0  0  0  0  0  0
   23.9131   72.1155   -4.2310 O   0  0  0  0  0  0  0  0  0  0  0  0
   23.4516   74.6431   -4.7964 O   0  0  0  0  0  0  0  0  0  0  0  0
   22.1018   73.3491   -2.9303 O   0  0  0  0  0  0  0  0  0  0  0  0
   22.8682   73.1391   -1.7585 C   0  0  0  0  0  0  0  0  0  0  0  0
   23.6053   71.3112   -0.3827 O   0  0  0  0  0  0  0  0  0  0  0  0
   20.7047   70.6142   -0.0785 O   0  0  0  0  0  0  0  0  0  0  0  0
   21.2600   71.8905    2.2665 O   0  0  0  0  0  0  0  0  0  0  0  0
   21.3211   71.8992   -0.1642 C   0  0  1  0  0  0  0  0  0  0  0  0
   22.0309   72.2276    1.1322 C   0  0  2  0  0  0  0  0  0  0  0  0
   22.4808   71.7994   -1.1458 C   0  0  1  0  0  0  0  0  0  0  0  0
   23.2973   71.3964    1.0178 C   0  0  2  0  0  0  0  0  0  0  0  0
   19.9606   70.6530    0.5432 H   0  0  0  0  0  0  0  0  0  0  0  0
   20.4654   72.4471    2.2945 H   0  0  0  0  0  0  0  0  0  0  0  0
   25.1659   69.9613    2.5751 O   0  0  0  0  0  0  0  0  0  0  0  0
   27.5189   73.7876    3.6079 O   0  0  0  0  0  0  0  0  0  0  0  0
   24.4080   71.9926    1.7046 N   0  0  0  0  0  0  0  0  0  0  0  0
   26.3354   71.8685    3.0888 N   0  0  0  0  0  0  0  0  0  0  0  0
   25.2879   71.1823    2.4604 C   0  0  0  0  0  0  0  0  0  0  0  0
   24.6179   73.3640    1.6246 C   0  0  0  0  0  0  0  0  0  0  0  0
   25.6209   74.0038    2.2291 C   0  0  0  0  0  0  0  0  0  0  0  0
   26.5848   73.2305    3.0392 C   0  0  0  0  0  0  0  0  0  0  0  0
   26.9599   71.3258    3.6225 H   0  0  0  0  0  0  0  0  0  0  0  0
   21.7352   72.7398   -5.3595 O   0  0  0  0  0  0  0  0  0  0  0  0
   20.9698   73.4093   -6.6163 P   0  0  2  0  0  0  0  0  0  0  0  0
   21.9937   73.1647   -7.8460 O   0  0  0  0  0  0  0  0  0  0  0  0
   20.5845   74.8454   -6.4088 O   0  0  0  0  0  0  0  0  0  0  0  0
   19.7309   72.4202   -6.9152 O   0  0  0  0  0  0  0  0  0  0  0  0
   19.2240   70.2364   -6.1514 O   0  0  0  0  0  0  0  0  0  0  0  0
   17.7995   70.1230  -10.0277 O   0  0  0  0  0  0  0  0  0  0  0  0
   20.3566   71.4015   -9.4265 O   0  0  0  0  0  0  0  0  0  0  0  0
   15.9477   70.3556   -7.7989 O   0  0  0  0  0  0  0  0  0  0  0  0
   18.1195   70.7263   -8.7741 C   0  0  2  0  0  0  0  0  0  0  0  0
   19.6202   70.5973   -8.5123 C   0  0  2  0  0  0  0  0  0  0  0  0
   17.3250   70.0027   -7.6845 C   0  0  1  0  0  0  0  0  0  0  0  0
   19.9652   71.0233   -7.0846 C   0  0  1  0  0  0  0  0  0  0  0  0
   17.8130   70.3873   -6.2908 C   0  0  1  0  0  0  0  0  0  0  0  0
   18.2929   70.5667  -10.7355 H   0  0  0  0  0  0  0  0  0  0  0  0
   20.1423   71.1367  -10.3345 H   0  0  0  0  0  0  0  0  0  0  0  0
   15.6248   70.1162   -8.6816 H   0  0  0  0  0  0  0  0  0  0  0  0
   18.0357   69.4751   -4.1414 O   0  0  0  0  0  0  0  0  0  0  0  0
   16.2778   68.7524   -5.4010 O   0  0  0  0  0  0  0  0  0  0  0  0
   17.2719   69.4489   -5.2617 C   0  0  0  0  0  0  0  0  0  0  0  0
  1  4  1  0
  1 24  1  0
  1  2  1  1
  1  3  2  0
 25 28  1  0
 25 24  1  0
 25 26  1  6
 25 27  2  0
  6 11  1  0
  6 12  1  0
 29 36  1  0
 29 37  1  0
  9  7  1  1
  7 13  1  0
 10  8  1  1
  8 14  1  0
  4  5  1  0
 36 28  1  6
 33 30  1  6
 30 38  1  0
 34 31  1  6
 31 39  1  0
 35 32  1  1
 32 40  1  0
 41 43  1  0
 15 19  2  0
 42 43  2  0
 16 22  2  0
 12 17  1  1
 17 19  1  0
 17 20  1  0
 18 19  1  0
 18 22  1  0
 18 23  1  0
  9 10  1  0
  9 11  1  0
 10 12  1  0
 11  5  1  1
 33 34  1  0
 33 35  1  0
 34 36  1  0
 35 37  1  0
 37 43  1  1
 20 21  2  0
 21 22  1  0
M  CHG  3   2  -1  26  -1  41  -1
M  END
>  <COMPND>  (190) 
    udp_gluA.pdb 

>  <AUTHOR>  (190) 
    GENERATED BY OPEN BABEL 3.1.1

>  <MASTER>  (190) 
        0    0    0    0    0    0    0    0   56    0   56    0

>  <minimizedAffinity>  (190) 
-7.98253

>  <CNNscore>  (190) 
0.5839846134

>  <CNNaffinity>  (190) 
4.4077177048

>  <CNN_VS>  (190) 
2.5740392208

>  <CNNaffinity_variance>  (190) 
0.0496520549

$$$$
191
     RDKit          3D

 43 45  0  0  0  0  0  0  0  0999 V2000
   21.7817   72.3638   -5.8607 P   0  0  2  0  0  0  0  0  0  0  0  0
   20.8398   73.6750   -5.7490 O   0  0  0  0  0  0  0  0  0  0  0  0
   23.1408   72.6083   -6.4480 O   0  0  0  0  0  0  0  0  0  0  0  0
   20.8605   71.2893   -6.6446 O   0  0  0  0  0  0  0  0  0  0  0  0
   19.9659   71.7610   -7.6354 C   0  0  0  0  0  0  0  0  0  0  0  0
   18.5791   69.8584   -7.1509 O   0  0  0  0  0  0  0  0  0  0  0  0
   17.8376   69.8931  -10.0561 O   0  0  0  0  0  0  0  0  0  0  0  0
   15.6835   71.0788   -8.8772 O   0  0  0  0  0  0  0  0  0  0  0  0
   18.0948   70.9876   -9.1760 C   0  0  1  0  0  0  0  0  0  0  0  0
   16.9323   71.1801   -8.2254 C   0  0  2  0  0  0  0  0  0  0  0  0
   19.2150   70.5766   -8.2303 C   0  0  1  0  0  0  0  0  0  0  0  0
   17.1592   70.0643   -7.2197 C   0  0  2  0  0  0  0  0  0  0  0  0
   17.1251   70.1321  -10.6701 H   0  0  0  0  0  0  0  0  0  0  0  0
   15.5869   71.8113   -9.5065 H   0  0  0  0  0  0  0  0  0  0  0  0
   16.6760   68.1830   -5.1693 O   0  0  0  0  0  0  0  0  0  0  0  0
   15.2899   71.4596   -2.2391 O   0  0  0  0  0  0  0  0  0  0  0  0
   16.6719   70.3984   -5.9113 N   0  0  0  0  0  0  0  0  0  0  0  0
   15.9851   69.8167   -3.7122 N   0  0  0  0  0  0  0  0  0  0  0  0
   16.4628   69.3776   -4.9540 C   0  0  0  0  0  0  0  0  0  0  0  0
   16.4083   71.7236   -5.5869 C   0  0  0  0  0  0  0  0  0  0  0  0
   15.9534   72.1267   -4.3989 C   0  0  0  0  0  0  0  0  0  0  0  0
   15.7075   71.1228   -3.3429 C   0  0  0  0  0  0  0  0  0  0  0  0
   15.8299   69.1238   -3.0301 H   0  0  0  0  0  0  0  0  0  0  0  0
   21.7944   71.7961   -4.3473 O   0  0  0  0  0  0  0  0  0  0  0  0
   20.6302   71.1063   -3.4627 P   0  0  2  0  0  0  0  0  0  0  0  0
   20.8022   69.5302   -3.7895 O   0  0  0  0  0  0  0  0  0  0  0  0
   19.2545   71.6461   -3.7268 O   0  0  0  0  0  0  0  0  0  0  0  0
   21.1291   71.2624   -1.9365 O   0  0  0  0  0  0  0  0  0  0  0  0
   21.4224   73.1730   -0.5681 O   0  0  0  0  0  0  0  0  0  0  0  0
   24.4996   70.7360    0.7201 O   0  0  0  0  0  0  0  0  0  0  0  0
   23.8884   70.9697   -2.1270 O   0  0  0  0  0  0  0  0  0  0  0  0
   22.1114   71.0540    2.3469 O   0  0  0  0  0  0  0  0  0  0  0  0
   23.2042   71.0343    0.1997 C   0  0  2  0  0  0  0  0  0  0  0  0
   23.3451   71.8064   -1.1124 C   0  0  2  0  0  0  0  0  0  0  0  0
   22.4608   71.8789    1.2370 C   0  0  1  0  0  0  0  0  0  0  0  0
   21.9911   72.3416   -1.5804 C   0  0  1  0  0  0  0  0  0  0  0  0
   21.1846   72.4798    0.6550 C   0  0  1  0  0  0  0  0  0  0  0  0
   24.9907   70.1998    0.0778 H   0  0  0  0  0  0  0  0  0  0  0  0
   24.7476   70.6263   -1.8367 H   0  0  0  0  0  0  0  0  0  0  0  0
   22.9150   70.6653    2.7264 H   0  0  0  0  0  0  0  0  0  0  0  0
   19.3537   73.8223    1.2441 O   0  0  0  0  0  0  0  0  0  0  0  0
   21.2777   74.1067    2.4343 O   0  0  0  0  0  0  0  0  0  0  0  0
   20.6469   73.5501    1.5482 C   0  0  0  0  0  0  0  0  0  0  0  0
  1  4  1  0
  1 24  1  0
  1  2  1  1
  1  3  2  0
 25 28  1  0
 25 24  1  0
 25 26  1  6
 25 27  2  0
  6 11  1  0
  6 12  1  0
 29 36  1  0
 29 37  1  0
  9  7  1  6
  7 13  1  0
 10  8  1  6
  8 14  1  0
  4  5  1  0
 36 28  1  1
 33 30  1  1
 30 38  1  0
 34 31  1  6
 31 39  1  0
 35 32  1  1
 32 40  1  0
 41 43  1  0
 15 19  2  0
 42 43  2  0
 16 22  2  0
 12 17  1  1
 17 19  1  0
 17 20  1  0
 18 19  1  0
 18 22  1  0
 18 23  1  0
  9 10  1  0
  9 11  1  0
 10 12  1  0
 11  5  1  1
 33 34  1  0
 33 35  1  0
 34 36  1  0
 35 37  1  0
 37 43  1  1
 20 21  2  0
 21 22  1  0
M  CHG  3   2  -1  26  -1  41  -1
M  END
>  <COMPND>  (191) 
    udp_gluA.pdb 

>  <AUTHOR>  (191) 
    GENERATED BY OPEN BABEL 3.1.1

>  <MASTER>  (191) 
        0    0    0    0    0    0    0    0   56    0   56    0

>  <minimizedAffinity>  (191) 
-7.58021

>  <CNNscore>  (191) 
0.5525782108

>  <CNNaffinity>  (191) 
4.4204564095

>  <CNN_VS>  (191) 
2.4426479340

>  <CNNaffinity_variance>  (191) 
0.3193669021

$$$$
192
     RDKit          3D

 43 45  0  0  0  0  0  0  0  0999 V2000
   20.9241   72.8070   -4.4425 P   0  0  2  0  0  0  0  0  0  0  0  0
   20.5573   71.6172   -3.4088 O   0  0  0  0  0  0  0  0  0  0  0  0
   19.8254   73.8013   -4.6798 O   0  0  0  0  0  0  0  0  0  0  0  0
   21.4632   72.0291   -5.7548 O   0  0  0  0  0  0  0  0  0  0  0  0
   20.7357   72.1565   -6.9628 C   0  0  0  0  0  0  0  0  0  0  0  0
   19.4120   70.2430   -6.3596 O   0  0  0  0  0  0  0  0  0  0  0  0
   19.4643   69.5222   -9.2698 O   0  0  0  0  0  0  0  0  0  0  0  0
   16.9951   70.6417   -8.9775 O   0  0  0  0  0  0  0  0  0  0  0  0
   19.3997   70.8111   -8.6591 C   0  0  1  0  0  0  0  0  0  0  0  0
   18.0164   71.0545   -8.0937 C   0  0  2  0  0  0  0  0  0  0  0  0
   20.2568   70.7785   -7.4011 C   0  0  1  0  0  0  0  0  0  0  0  0
   18.0497   70.2349   -6.8150 C   0  0  2  0  0  0  0  0  0  0  0  0
   18.9241   69.5185  -10.0759 H   0  0  0  0  0  0  0  0  0  0  0  0
   17.0154   71.1938   -9.7754 H   0  0  0  0  0  0  0  0  0  0  0  0
   16.8425   68.7223   -4.7579 O   0  0  0  0  0  0  0  0  0  0  0  0
   14.8515   72.4563   -2.9311 O   0  0  0  0  0  0  0  0  0  0  0  0
   17.2111   70.7864   -5.7886 N   0  0  0  0  0  0  0  0  0  0  0  0
   15.8512   70.5834   -3.8506 N   0  0  0  0  0  0  0  0  0  0  0  0
   16.6536   69.9394   -4.8017 C   0  0  0  0  0  0  0  0  0  0  0  0
   16.9497   72.1510   -5.7653 C   0  0  0  0  0  0  0  0  0  0  0  0
   16.1830   72.7503   -4.8523 C   0  0  0  0  0  0  0  0  0  0  0  0
   15.5617   71.9367   -3.7866 C   0  0  0  0  0  0  0  0  0  0  0  0
   15.4504   70.0140   -3.1546 H   0  0  0  0  0  0  0  0  0  0  0  0
   22.2739   73.4331   -3.8111 O   0  0  0  0  0  0  0  0  0  0  0  0
   23.6170   72.7217   -3.2598 P   0  0  2  0  0  0  0  0  0  0  0  0
   24.7925   73.7209   -3.7499 O   0  0  0  0  0  0  0  0  0  0  0  0
   23.7883   71.2989   -3.7072 O   0  0  0  0  0  0  0  0  0  0  0  0
   23.5567   72.9177   -1.6597 O   0  0  0  0  0  0  0  0  0  0  0  0
   23.6193   71.2695    0.0399 O   0  0  0  0  0  0  0  0  0  0  0  0
   21.3202   74.2122    1.8069 O   0  0  0  0  0  0  0  0  0  0  0  0
   20.9196   73.5052   -0.9992 O   0  0  0  0  0  0  0  0  0  0  0  0
   24.0911   73.8481    2.6070 O   0  0  0  0  0  0  0  0  0  0  0  0
   22.3423   73.6916    0.9571 C   0  0  2  0  0  0  0  0  0  0  0  0
   21.7179   72.7629   -0.0847 C   0  0  2  0  0  0  0  0  0  0  0  0
   23.3357   72.9210    1.8297 C   0  0  1  0  0  0  0  0  0  0  0  0
   22.7975   72.0099   -0.8634 C   0  0  1  0  0  0  0  0  0  0  0  0
   24.2996   72.0965    0.9813 C   0  0  1  0  0  0  0  0  0  0  0  0
   20.6770   74.7060    1.2742 H   0  0  0  0  0  0  0  0  0  0  0  0
   20.2326   73.9858   -0.5119 H   0  0  0  0  0  0  0  0  0  0  0  0
   23.4893   74.3794    3.1516 H   0  0  0  0  0  0  0  0  0  0  0  0
   26.0804   71.7013    2.4557 O   0  0  0  0  0  0  0  0  0  0  0  0
   24.7445   69.9271    1.9390 O   0  0  0  0  0  0  0  0  0  0  0  0
   25.0366   71.1081    1.8252 C   0  0  0  0  0  0  0  0  0  0  0  0
  1  4  1  0
  1 24  1  0
  1  2  1  1
  1  3  2  0
 25 28  1  0
 25 24  1  0
 25 26  1  6
 25 27  2  0
  6 11  1  0
  6 12  1  0
 29 36  1  0
 29 37  1  0
  9  7  1  1
  7 13  1  0
 10  8  1  6
  8 14  1  0
  4  5  1  0
 36 28  1  1
 33 30  1  1
 30 38  1  0
 34 31  1  6
 31 39  1  0
 35 32  1  6
 32 40  1  0
 41 43  1  0
 15 19  2  0
 42 43  2  0
 16 22  2  0
 12 17  1  1
 17 19  1  0
 17 20  1  0
 18 19  1  0
 18 22  1  0
 18 23  1  0
  9 10  1  0
  9 11  1  0
 10 12  1  0
 11  5  1  1
 33 34  1  0
 33 35  1  0
 34 36  1  0
 35 37  1  0
 37 43  1  1
 20 21  2  0
 21 22  1  0
M  CHG  3   2  -1  26  -1  41  -1
M  END
>  <COMPND>  (192) 
    udp_gluA.pdb 

>  <AUTHOR>  (192) 
    GENERATED BY OPEN BABEL 3.1.1

>  <MASTER>  (192) 
        0    0    0    0    0    0    0    0   56    0   56    0

>  <minimizedAffinity>  (192) 
-7.04517

>  <CNNscore>  (192) 
0.5197529197

>  <CNNaffinity>  (192) 
4.1975450516

>  <CNN_VS>  (192) 
2.1816864014

>  <CNNaffinity_variance>  (192) 
0.1520928144

$$$$
193
     RDKit          3D

 43 45  0  0  0  0  0  0  0  0999 V2000
   23.0799   71.6065   -2.5723 P   0  0  2  0  0  0  0  0  0  0  0  0
   23.3041   73.1115   -2.0212 O   0  0  0  0  0  0  0  0  0  0  0  0
   24.2345   71.0350   -3.3417 O   0  0  0  0  0  0  0  0  0  0  0  0
   21.6757   71.6907   -3.3717 O   0  0  0  0  0  0  0  0  0  0  0  0
   21.5206   72.6902   -4.3624 C   0  0  0  0  0  0  0  0  0  0  0  0
   20.6551   70.8090   -5.5829 O   0  0  0  0  0  0  0  0  0  0  0  0
   21.1000   72.4456   -8.0558 O   0  0  0  0  0  0  0  0  0  0  0  0
   18.4189   72.7151   -7.6373 O   0  0  0  0  0  0  0  0  0  0  0  0
   20.6806   72.8659   -6.7574 C   0  0  1  0  0  0  0  0  0  0  0  0
   19.2407   72.4648   -6.5163 C   0  0  2  0  0  0  0  0  0  0  0  0
   21.4224   72.0237   -5.7286 C   0  0  1  0  0  0  0  0  0  0  0  0
   19.3734   70.9833   -6.2076 C   0  0  2  0  0  0  0  0  0  0  0  0
   20.6393   72.9697   -8.7302 H   0  0  0  0  0  0  0  0  0  0  0  0
   18.3660   73.6717   -7.7923 H   0  0  0  0  0  0  0  0  0  0  0  0
   16.8197   70.1001   -7.0292 O   0  0  0  0  0  0  0  0  0  0  0  0
   15.5312   69.2118   -2.6939 O   0  0  0  0  0  0  0  0  0  0  0  0
   18.3513   70.5159   -5.3145 N   0  0  0  0  0  0  0  0  0  0  0  0
   16.1800   69.6594   -4.8691 N   0  0  0  0  0  0  0  0  0  0  0  0
   17.1025   70.0947   -5.8296 C   0  0  0  0  0  0  0  0  0  0  0  0
   18.5908   70.4763   -3.9463 C   0  0  0  0  0  0  0  0  0  0  0  0
   17.7016   70.0587   -3.0431 C   0  0  0  0  0  0  0  0  0  0  0  0
   16.3719   69.6025   -3.4981 C   0  0  0  0  0  0  0  0  0  0  0  0
   15.3027   69.3632   -5.2035 H   0  0  0  0  0  0  0  0  0  0  0  0
   22.6886   70.7853   -1.2361 O   0  0  0  0  0  0  0  0  0  0  0  0
   22.1882   71.2945    0.2144 P   0  0  2  0  0  0  0  0  0  0  0  0
   23.5512   71.8186    0.9129 O   0  0  0  0  0  0  0  0  0  0  0  0
   21.4452   70.2590    1.0079 O   0  0  0  0  0  0  0  0  0  0  0  0
   21.3454   72.6358   -0.0911 O   0  0  0  0  0  0  0  0  0  0  0  0
   20.8288   73.9999    1.7747 O   0  0  0  0  0  0  0  0  0  0  0  0
   18.3951   75.6149   -1.1470 O   0  0  0  0  0  0  0  0  0  0  0  0
   18.6839   72.7189   -0.8946 O   0  0  0  0  0  0  0  0  0  0  0  0
   20.8226   76.9969   -0.3419 O   0  0  0  0  0  0  0  0  0  0  0  0
   19.5577   74.9668   -0.6310 C   0  0  2  0  0  0  0  0  0  0  0  0
   19.1533   73.6642    0.0598 C   0  0  2  0  0  0  0  0  0  0  0  0
   20.2233   75.9151    0.3688 C   0  0  1  0  0  0  0  0  0  0  0  0
   20.3338   73.0593    0.8210 C   0  0  1  0  0  0  0  0  0  0  0  0
   21.3048   75.2034    1.1764 C   0  0  1  0  0  0  0  0  0  0  0  0
   17.9553   75.0309   -1.7848 H   0  0  0  0  0  0  0  0  0  0  0  0
   17.9350   73.0962   -1.3815 H   0  0  0  0  0  0  0  0  0  0  0  0
   20.1448   77.4582   -0.8602 H   0  0  0  0  0  0  0  0  0  0  0  0
   21.6716   75.2863    3.4916 O   0  0  0  0  0  0  0  0  0  0  0  0
   22.0442   77.2007    2.3103 O   0  0  0  0  0  0  0  0  0  0  0  0
   21.7137   76.0252    2.3553 C   0  0  0  0  0  0  0  0  0  0  0  0
  1  4  1  0
  1 24  1  0
  1  2  1  1
  1  3  2  0
 25 28  1  0
 25 24  1  0
 25 26  1  1
 25 27  2  0
  6 11  1  0
  6 12  1  0
 29 36  1  0
 29 37  1  0
  9  7  1  6
  7 13  1  0
 10  8  1  6
  8 14  1  0
  4  5  1  0
 36 28  1  6
 33 30  1  1
 30 38  1  0
 34 31  1  6
 31 39  1  0
 35 32  1  6
 32 40  1  0
 41 43  1  0
 15 19  2  0
 42 43  2  0
 16 22  2  0
 12 17  1  1
 17 19  1  0
 17 20  1  0
 18 19  1  0
 18 22  1  0
 18 23  1  0
  9 10  1  0
  9 11  1  0
 10 12  1  0
 11  5  1  1
 33 34  1  0
 33 35  1  0
 34 36  1  0
 35 37  1  0
 37 43  1  1
 20 21  2  0
 21 22  1  0
M  CHG  3   2  -1  26  -1  41  -1
M  END
>  <COMPND>  (193) 
    udp_gluA.pdb 

>  <AUTHOR>  (193) 
    GENERATED BY OPEN BABEL 3.1.1

>  <MASTER>  (193) 
        0    0    0    0    0    0    0    0   56    0   56    0

>  <minimizedAffinity>  (193) 
-6.47260

>  <CNNscore>  (193) 
0.4774663746

>  <CNNaffinity>  (193) 
4.0132546425

>  <CNN_VS>  (193) 
1.9161942005

>  <CNNaffinity_variance>  (193) 
0.2201678753

$$$$
194
     RDKit          3D

 43 45  0  0  0  0  0  0  0  0999 V2000
   20.1443   73.0885   -4.4371 P   0  0  2  0  0  0  0  0  0  0  0  0
   20.0392   71.7470   -3.5381 O   0  0  0  0  0  0  0  0  0  0  0  0
   19.6708   74.3423   -3.7620 O   0  0  0  0  0  0  0  0  0  0  0  0
   19.3805   72.6978   -5.8089 O   0  0  0  0  0  0  0  0  0  0  0  0
   20.1553   72.2915   -6.9220 C   0  0  0  0  0  0  0  0  0  0  0  0
   18.9421   70.3166   -6.2850 O   0  0  0  0  0  0  0  0  0  0  0  0
   18.8457   69.6583   -9.2089 O   0  0  0  0  0  0  0  0  0  0  0  0
   16.3588   70.6761   -8.7450 O   0  0  0  0  0  0  0  0  0  0  0  0
   18.7702   70.9310   -8.5662 C   0  0  1  0  0  0  0  0  0  0  0  0
   17.4155   71.1094   -7.9143 C   0  0  2  0  0  0  0  0  0  0  0  0
   19.7022   70.9054   -7.3625 C   0  0  1  0  0  0  0  0  0  0  0  0
   17.5561   70.2657   -6.6588 C   0  0  2  0  0  0  0  0  0  0  0  0
   18.2585   69.6505   -9.9814 H   0  0  0  0  0  0  0  0  0  0  0  0
   16.3105   71.2448   -9.5299 H   0  0  0  0  0  0  0  0  0  0  0  0
   16.8659   68.7635   -4.3689 O   0  0  0  0  0  0  0  0  0  0  0  0
   14.5003   72.2775   -2.5524 O   0  0  0  0  0  0  0  0  0  0  0  0
   16.7609   70.7634   -5.5721 N   0  0  0  0  0  0  0  0  0  0  0  0
   15.6876   70.5148   -3.4668 N   0  0  0  0  0  0  0  0  0  0  0  0
   16.4714   69.9269   -4.4683 C   0  0  0  0  0  0  0  0  0  0  0  0
   16.2784   72.0661   -5.6056 C   0  0  0  0  0  0  0  0  0  0  0  0
   15.5325   72.6125   -4.6434 C   0  0  0  0  0  0  0  0  0  0  0  0
   15.1841   71.8055   -3.4557 C   0  0  0  0  0  0  0  0  0  0  0  0
   15.4712   69.9511   -2.6891 H   0  0  0  0  0  0  0  0  0  0  0  0
   21.6988   73.1079   -4.8796 O   0  0  0  0  0  0  0  0  0  0  0  0
   23.0403   73.4141   -4.0308 P   0  0  2  0  0  0  0  0  0  0  0  0
   23.3645   74.9575   -4.3955 O   0  0  0  0  0  0  0  0  0  0  0  0
   24.1707   72.4640   -4.3018 O   0  0  0  0  0  0  0  0  0  0  0  0
   22.5522   73.4528   -2.4937 O   0  0  0  0  0  0  0  0  0  0  0  0
   23.5232   73.6698   -0.3445 O   0  0  0  0  0  0  0  0  0  0  0  0
   20.9125   70.5192    0.2267 O   0  0  0  0  0  0  0  0  0  0  0  0
   22.5218   70.6865   -2.2057 O   0  0  0  0  0  0  0  0  0  0  0  0
   20.2575   73.1607    1.2486 O   0  0  0  0  0  0  0  0  0  0  0  0
   21.3730   71.7423   -0.3477 C   0  0  2  0  0  0  0  0  0  0  0  0
   22.7069   71.5045   -1.0562 C   0  0  2  0  0  0  0  0  0  0  0  0
   21.5444   72.7603    0.7819 C   0  0  1  0  0  0  0  0  0  0  0  0
   23.3426   72.8280   -1.4840 C   0  0  1  0  0  0  0  0  0  0  0  0
   22.2978   73.9990    0.3059 C   0  0  1  0  0  0  0  0  0  0  0  0
   20.7963   69.8568   -0.4726 H   0  0  0  0  0  0  0  0  0  0  0  0
   22.1184   69.8451   -1.9417 H   0  0  0  0  0  0  0  0  0  0  0  0
   19.7675   72.3814    1.5544 H   0  0  0  0  0  0  0  0  0  0  0  0
   22.5588   74.1572    2.6315 O   0  0  0  0  0  0  0  0  0  0  0  0
   23.2189   75.9498    1.3865 O   0  0  0  0  0  0  0  0  0  0  0  0
   22.7458   74.8261    1.4668 C   0  0  0  0  0  0  0  0  0  0  0  0
  1  4  1  0
  1 24  1  0
  1  2  1  1
  1  3  2  0
 25 28  1  0
 25 24  1  0
 25 26  1  6
 25 27  2  0
  6 11  1  0
  6 12  1  0
 29 36  1  0
 29 37  1  0
  9  7  1  1
  7 13  1  0
 10  8  1  6
  8 14  1  0
  4  5  1  0
 36 28  1  6
 33 30  1  1
 30 38  1  0
 34 31  1  6
 31 39  1  0
 35 32  1  6
 32 40  1  0
 41 43  1  0
 15 19  2  0
 42 43  2  0
 16 22  2  0
 12 17  1  1
 17 19  1  0
 17 20  1  0
 18 19  1  0
 18 22  1  0
 18 23  1  0
  9 10  1  0
  9 11  1  0
 10 12  1  0
 11  5  1  1
 33 34  1  0
 33 35  1  0
 34 36  1  0
 35 37  1  0
 37 43  1  1
 20 21  2  0
 21 22  1  0
M  CHG  3   2  -1  26  -1  41  -1
M  END
>  <COMPND>  (194) 
    udp_gluA.pdb 

>  <AUTHOR>  (194) 
    GENERATED BY OPEN BABEL 3.1.1

>  <MASTER>  (194) 
        0    0    0    0    0    0    0    0   56    0   56    0

>  <minimizedAffinity>  (194) 
-6.63096

>  <CNNscore>  (194) 
0.4691922069

>  <CNNaffinity>  (194) 
4.1740899086

>  <CNN_VS>  (194) 
1.9584504366

>  <CNNaffinity_variance>  (194) 
0.2195313722

$$$$
195
     RDKit          3D

 43 45  0  0  0  0  0  0  0  0999 V2000
   23.1393   71.8241   -2.2989 P   0  0  2  0  0  0  0  0  0  0  0  0
   24.2166   70.8648   -3.0324 O   0  0  0  0  0  0  0  0  0  0  0  0
   23.6314   73.2070   -1.9872 O   0  0  0  0  0  0  0  0  0  0  0  0
   22.6434   70.9520   -1.0295 O   0  0  0  0  0  0  0  0  0  0  0  0
   23.4162   70.9843    0.1564 C   0  0  0  0  0  0  0  0  0  0  0  0
   23.2923   71.2380    2.5434 O   0  0  0  0  0  0  0  0  0  0  0  0
   20.4710   72.1577    2.1127 O   0  0  0  0  0  0  0  0  0  0  0  0
   21.8130   74.5032    2.4787 O   0  0  0  0  0  0  0  0  0  0  0  0
   21.6275   72.3814    1.3058 C   0  0  1  0  0  0  0  0  0  0  0  0
   22.5323   73.4046    1.9589 C   0  0  2  0  0  0  0  0  0  0  0  0
   22.4835   71.1231    1.3527 C   0  0  1  0  0  0  0  0  0  0  0  0
   23.2077   72.5821    3.0430 C   0  0  2  0  0  0  0  0  0  0  0  0
   19.9085   72.9483    2.0983 H   0  0  0  0  0  0  0  0  0  0  0  0
   21.4021   74.9947    1.7497 H   0  0  0  0  0  0  0  0  0  0  0  0
   23.7809   74.6983    4.8233 O   0  0  0  0  0  0  0  0  0  0  0  0
   28.3190   74.3021    4.1214 O   0  0  0  0  0  0  0  0  0  0  0  0
   24.5302   73.0525    3.3439 N   0  0  0  0  0  0  0  0  0  0  0  0
   26.0406   74.4996    4.4712 N   0  0  0  0  0  0  0  0  0  0  0  0
   24.7091   74.1223    4.2525 C   0  0  0  0  0  0  0  0  0  0  0  0
   25.6320   72.4553    2.7438 C   0  0  0  0  0  0  0  0  0  0  0  0
   26.8953   72.8259    2.9622 C   0  0  0  0  0  0  0  0  0  0  0  0
   27.1690   73.9366    3.8975 C   0  0  0  0  0  0  0  0  0  0  0  0
   26.1901   75.2437    5.0984 H   0  0  0  0  0  0  0  0  0  0  0  0
   21.8679   71.7705   -3.2956 O   0  0  0  0  0  0  0  0  0  0  0  0
   21.5026   72.6551   -4.5985 P   0  0  2  0  0  0  0  0  0  0  0  0
   22.6688   72.2632   -5.6505 O   0  0  0  0  0  0  0  0  0  0  0  0
   21.3817   74.1271   -4.3293 O   0  0  0  0  0  0  0  0  0  0  0  0
   20.1689   71.9721   -5.1962 O   0  0  0  0  0  0  0  0  0  0  0  0
   19.4135   69.7592   -4.8201 O   0  0  0  0  0  0  0  0  0  0  0  0
   17.7961   70.5802   -8.5320 O   0  0  0  0  0  0  0  0  0  0  0  0
   20.5275   71.3961   -7.8935 O   0  0  0  0  0  0  0  0  0  0  0  0
   16.1048   70.5952   -6.1676 O   0  0  0  0  0  0  0  0  0  0  0  0
   18.2555   70.8831   -7.2147 C   0  0  2  0  0  0  0  0  0  0  0  0
   19.7368   70.5241   -7.0942 C   0  0  2  0  0  0  0  0  0  0  0  0
   17.4266   70.0622   -6.2243 C   0  0  1  0  0  0  0  0  0  0  0  0
   20.2059   70.6175   -5.6416 C   0  0  1  0  0  0  0  0  0  0  0  0
   18.0301   70.1045   -4.8234 C   0  0  1  0  0  0  0  0  0  0  0  0
   18.3086   71.0905   -9.1787 H   0  0  0  0  0  0  0  0  0  0  0  0
   20.2351   71.3422   -8.8165 H   0  0  0  0  0  0  0  0  0  0  0  0
   15.7094   70.5742   -7.0530 H   0  0  0  0  0  0  0  0  0  0  0  0
   16.0943   69.2842   -3.7835 O   0  0  0  0  0  0  0  0  0  0  0  0
   18.0254   68.1170   -3.4555 O   0  0  0  0  0  0  0  0  0  0  0  0
   17.4204   69.0558   -3.9513 C   0  0  0  0  0  0  0  0  0  0  0  0
  1  4  1  0
  1 24  1  0
  1  2  1  6
  1  3  2  0
 25 28  1  0
 25 24  1  0
 25 26  1  6
 25 27  2  0
  6 11  1  0
  6 12  1  0
 29 36  1  0
 29 37  1  0
  9  7  1  1
  7 13  1  0
 10  8  1  1
  8 14  1  0
  4  5  1  0
 36 28  1  1
 33 30  1  6
 30 38  1  0
 34 31  1  6
 31 39  1  0
 35 32  1  1
 32 40  1  0
 41 43  1  0
 15 19  2  0
 42 43  2  0
 16 22  2  0
 12 17  1  6
 17 19  1  0
 17 20  1  0
 18 19  1  0
 18 22  1  0
 18 23  1  0
  9 10  1  0
  9 11  1  0
 10 12  1  0
 11  5  1  6
 33 34  1  0
 33 35  1  0
 34 36  1  0
 35 37  1  0
 37 43  1  1
 20 21  2  0
 21 22  1  0
M  CHG  3   2  -1  26  -1  41  -1
M  END
>  <COMPND>  (195) 
    udp_gluA.pdb 

>  <AUTHOR>  (195) 
    GENERATED BY OPEN BABEL 3.1.1

>  <MASTER>  (195) 
        0    0    0    0    0    0    0    0   56    0   56    0

>  <minimizedAffinity>  (195) 
-7.26173

>  <CNNscore>  (195) 
0.4670114815

>  <CNNaffinity>  (195) 
4.1777567863

>  <CNN_VS>  (195) 
1.9510604143

>  <CNNaffinity_variance>  (195) 
0.0956026688

$$$$
196
     RDKit          3D

 43 45  0  0  0  0  0  0  0  0999 V2000
   19.6718   76.8462   -6.6029 P   0  0  2  0  0  0  0  0  0  0  0  0
   19.3140   77.5163   -8.0318 O   0  0  0  0  0  0  0  0  0  0  0  0
   19.4980   77.7502   -5.4178 O   0  0  0  0  0  0  0  0  0  0  0  0
   21.1591   76.2462   -6.8167 O   0  0  0  0  0  0  0  0  0  0  0  0
   21.8294   75.6871   -5.7019 C   0  0  0  0  0  0  0  0  0  0  0  0
   23.2964   73.8913   -5.0690 O   0  0  0  0  0  0  0  0  0  0  0  0
   23.3894   73.1884   -7.9825 O   0  0  0  0  0  0  0  0  0  0  0  0
   21.6197   71.3683   -6.9866 O   0  0  0  0  0  0  0  0  0  0  0  0
   22.3003   73.6921   -7.2088 C   0  0  1  0  0  0  0  0  0  0  0  0
   21.7454   72.6039   -6.3141 C   0  0  2  0  0  0  0  0  0  0  0  0
   22.8612   74.6815   -6.1965 C   0  0  1  0  0  0  0  0  0  0  0  0
   22.7737   72.5595   -5.1967 C   0  0  2  0  0  0  0  0  0  0  0  0
   23.0556   72.5538   -8.6365 H   0  0  0  0  0  0  0  0  0  0  0  0
   20.9536   71.4483   -7.6880 H   0  0  0  0  0  0  0  0  0  0  0  0
   24.1024   70.9773   -3.2712 O   0  0  0  0  0  0  0  0  0  0  0  0
   20.4845   71.0869   -0.4177 O   0  0  0  0  0  0  0  0  0  0  0  0
   22.2023   72.1598   -3.9419 N   0  0  0  0  0  0  0  0  0  0  0  0
   22.2989   71.0325   -1.8523 N   0  0  0  0  0  0  0  0  0  0  0  0
   22.9543   71.3643   -3.0453 C   0  0  0  0  0  0  0  0  0  0  0  0
   20.9127   72.5562   -3.6093 C   0  0  0  0  0  0  0  0  0  0  0  0
   20.3013   72.2322   -2.4683 C   0  0  0  0  0  0  0  0  0  0  0  0
   21.0174   71.4024   -1.4773 C   0  0  0  0  0  0  0  0  0  0  0  0
   22.8017   70.4776   -1.2132 H   0  0  0  0  0  0  0  0  0  0  0  0
   18.7454   75.5218   -6.5810 O   0  0  0  0  0  0  0  0  0  0  0  0
   17.2766   75.2640   -5.9565 P   0  0  2  0  0  0  0  0  0  0  0  0
   16.2864   75.9154   -7.0590 O   0  0  0  0  0  0  0  0  0  0  0  0
   17.0950   75.8029   -4.5670 O   0  0  0  0  0  0  0  0  0  0  0  0
   17.0473   73.6730   -6.0928 O   0  0  0  0  0  0  0  0  0  0  0  0
   18.5703   71.8599   -6.1421 O   0  0  0  0  0  0  0  0  0  0  0  0
   15.6343   70.5626   -8.7431 O   0  0  0  0  0  0  0  0  0  0  0  0
   16.5508   73.3358   -8.8086 O   0  0  0  0  0  0  0  0  0  0  0  0
   15.8017   69.4536   -6.0611 O   0  0  0  0  0  0  0  0  0  0  0  0
   16.1592   71.2608   -7.6139 C   0  0  2  0  0  0  0  0  0  0  0  0
   17.1874   72.2911   -8.0819 C   0  0  2  0  0  0  0  0  0  0  0  0
   16.8169   70.2353   -6.6877 C   0  0  1  0  0  0  0  0  0  0  0  0
   17.9360   72.8957   -6.8933 C   0  0  1  0  0  0  0  0  0  0  0  0
   17.6474   70.9159   -5.6035 C   0  0  1  0  0  0  0  0  0  0  0  0
   15.2113   71.1942   -9.3460 H   0  0  0  0  0  0  0  0  0  0  0  0
   16.0736   72.9592   -9.5641 H   0  0  0  0  0  0  0  0  0  0  0  0
   15.2658   69.0151   -6.7404 H   0  0  0  0  0  0  0  0  0  0  0  0
   17.8150   69.1107   -4.1153 O   0  0  0  0  0  0  0  0  0  0  0  0
   19.7489   69.8618   -5.0612 O   0  0  0  0  0  0  0  0  0  0  0  0
   18.5372   69.9297   -4.9194 C   0  0  0  0  0  0  0  0  0  0  0  0
  1  4  1  0
  1 24  1  0
  1  2  1  6
  1  3  2  0
 25 28  1  0
 25 24  1  0
 25 26  1  6
 25 27  2  0
  6 11  1  0
  6 12  1  0
 29 36  1  0
 29 37  1  0
  9  7  1  6
  7 13  1  0
 10  8  1  6
  8 14  1  0
  4  5  1  0
 36 28  1  1
 33 30  1  6
 30 38  1  0
 34 31  1  1
 31 39  1  0
 35 32  1  1
 32 40  1  0
 41 43  1  0
 15 19  2  0
 42 43  2  0
 16 22  2  0
 12 17  1  1
 17 19  1  0
 17 20  1  0
 18 19  1  0
 18 22  1  0
 18 23  1  0
  9 10  1  0
  9 11  1  0
 10 12  1  0
 11  5  1  1
 33 34  1  0
 33 35  1  0
 34 36  1  0
 35 37  1  0
 37 43  1  6
 20 21  2  0
 21 22  1  0
M  CHG  3   2  -1  26  -1  41  -1
M  END
>  <COMPND>  (196) 
    udp_gluA.pdb 

>  <AUTHOR>  (196) 
    GENERATED BY OPEN BABEL 3.1.1

>  <MASTER>  (196) 
        0    0    0    0    0    0    0    0   56    0   56    0

>  <minimizedAffinity>  (196) 
-6.42385

>  <CNNscore>  (196) 
0.4056049585

>  <CNNaffinity>  (196) 
3.6991219521

>  <CNN_VS>  (196) 
1.5003821850

>  <CNNaffinity_variance>  (196) 
1.0056846142

$$$$
197
     RDKit          3D

 43 45  0  0  0  0  0  0  0  0999 V2000
   17.0910   74.9402   -2.8787 P   0  0  2  0  0  0  0  0  0  0  0  0
   15.5236   74.5500   -2.9774 O   0  0  0  0  0  0  0  0  0  0  0  0
   17.4028   76.0816   -1.9559 O   0  0  0  0  0  0  0  0  0  0  0  0
   17.5393   75.1404   -4.4204 O   0  0  0  0  0  0  0  0  0  0  0  0
   16.5425   75.4352   -5.3816 C   0  0  0  0  0  0  0  0  0  0  0  0
   17.8467   73.9494   -6.7487 O   0  0  0  0  0  0  0  0  0  0  0  0
   16.6117   75.3331   -9.1049 O   0  0  0  0  0  0  0  0  0  0  0  0
   15.1610   73.0301   -8.9387 O   0  0  0  0  0  0  0  0  0  0  0  0
   16.0337   75.0152   -7.8387 C   0  0  1  0  0  0  0  0  0  0  0  0
   15.7419   73.5320   -7.7533 C   0  0  2  0  0  0  0  0  0  0  0  0
   17.1084   75.1902   -6.7745 C   0  0  1  0  0  0  0  0  0  0  0  0
   17.1215   72.9539   -7.4879 C   0  0  2  0  0  0  0  0  0  0  0  0
   15.9438   75.2285   -9.8010 H   0  0  0  0  0  0  0  0  0  0  0  0
   14.2845   73.4279   -9.0628 H   0  0  0  0  0  0  0  0  0  0  0  0
   17.0017   70.3587   -8.5956 O   0  0  0  0  0  0  0  0  0  0  0  0
   16.9264   68.3865   -4.4304 O   0  0  0  0  0  0  0  0  0  0  0  0
   17.0698   71.7446   -6.7160 N   0  0  0  0  0  0  0  0  0  0  0  0
   16.9633   69.3790   -6.5200 N   0  0  0  0  0  0  0  0  0  0  0  0
   17.0113   70.4915   -7.3704 C   0  0  0  0  0  0  0  0  0  0  0  0
   17.0788   71.8070   -5.3278 C   0  0  0  0  0  0  0  0  0  0  0  0
   17.0327   70.7379   -4.5307 C   0  0  0  0  0  0  0  0  0  0  0  0
   16.9694   69.3908   -5.1346 C   0  0  0  0  0  0  0  0  0  0  0  0
   16.9201   68.4956   -6.9526 H   0  0  0  0  0  0  0  0  0  0  0  0
   17.7891   73.5389   -2.4763 O   0  0  0  0  0  0  0  0  0  0  0  0
   19.3339   73.1714   -2.1726 P   0  0  2  0  0  0  0  0  0  0  0  0
   19.2336   71.7364   -1.4304 O   0  0  0  0  0  0  0  0  0  0  0  0
   20.0747   74.2198   -1.3941 O   0  0  0  0  0  0  0  0  0  0  0  0
   19.9674   72.8387   -3.6184 O   0  0  0  0  0  0  0  0  0  0  0  0
   20.4687   71.0997   -5.1461 O   0  0  0  0  0  0  0  0  0  0  0  0
   24.2160   72.6728   -4.4039 O   0  0  0  0  0  0  0  0  0  0  0  0
   22.3105   72.2936   -2.2223 O   0  0  0  0  0  0  0  0  0  0  0  0
   22.8590   73.2548   -6.9080 O   0  0  0  0  0  0  0  0  0  0  0  0
   22.7977   72.7042   -4.5632 C   0  0  2  0  0  0  0  0  0  0  0  0
   22.1468   71.7759   -3.5375 C   0  0  2  0  0  0  0  0  0  0  0  0
   22.4711   72.2396   -5.9843 C   0  0  1  0  0  0  0  0  0  0  0  0
   20.6542   71.6054   -3.8235 C   0  0  1  0  0  0  0  0  0  0  0  0
   20.9785   71.9708   -6.1533 C   0  0  1  0  0  0  0  0  0  0  0  0
   24.4474   72.9641   -3.5079 H   0  0  0  0  0  0  0  0  0  0  0  0
   23.2553   72.4046   -2.0342 H   0  0  0  0  0  0  0  0  0  0  0  0
   23.8070   73.4355   -6.8106 H   0  0  0  0  0  0  0  0  0  0  0  0
   20.7888   69.8789   -7.1970 O   0  0  0  0  0  0  0  0  0  0  0  0
   20.4645   71.7235   -8.4976 O   0  0  0  0  0  0  0  0  0  0  0  0
   20.7151   71.2153   -7.4150 C   0  0  0  0  0  0  0  0  0  0  0  0
  1  4  1  0
  1 24  1  0
  1  2  1  6
  1  3  2  0
 25 28  1  0
 25 24  1  0
 25 26  1  1
 25 27  2  0
  6 11  1  0
  6 12  1  0
 29 36  1  0
 29 37  1  0
  9  7  1  6
  7 13  1  0
 10  8  1  6
  8 14  1  0
  4  5  1  0
 36 28  1  6
 33 30  1  6
 30 38  1  0
 34 31  1  1
 31 39  1  0
 35 32  1  6
 32 40  1  0
 41 43  1  0
 15 19  2  0
 42 43  2  0
 16 22  2  0
 12 17  1  1
 17 19  1  0
 17 20  1  0
 18 19  1  0
 18 22  1  0
 18 23  1  0
  9 10  1  0
  9 11  1  0
 10 12  1  0
 11  5  1  1
 33 34  1  0
 33 35  1  0
 34 36  1  0
 35 37  1  0
 37 43  1  6
 20 21  2  0
 21 22  1  0
M  CHG  3   2  -1  26  -1  41  -1
M  END
>  <COMPND>  (197) 
    udp_gluA.pdb 

>  <AUTHOR>  (197) 
    GENERATED BY OPEN BABEL 3.1.1

>  <MASTER>  (197) 
        0    0    0    0    0    0    0    0   56    0   56    0

>  <minimizedAffinity>  (197) 
-6.34740

>  <CNNscore>  (197) 
0.4024481177

>  <CNNaffinity>  (197) 
3.8683161736

>  <CNN_VS>  (197) 
1.5567965508

>  <CNNaffinity_variance>  (197) 
0.7904198170

$$$$
198
     RDKit          3D

 43 45  0  0  0  0  0  0  0  0999 V2000
   19.1377   71.5771   -1.8640 P   0  0  2  0  0  0  0  0  0  0  0  0
   20.3130   71.9094   -2.9257 O   0  0  0  0  0  0  0  0  0  0  0  0
   18.2844   72.7490   -1.4761 O   0  0  0  0  0  0  0  0  0  0  0  0
   19.9092   70.8371   -0.6494 O   0  0  0  0  0  0  0  0  0  0  0  0
   21.0715   71.4450   -0.1166 C   0  0  0  0  0  0  0  0  0  0  0  0
   21.6333   71.8306    2.1884 O   0  0  0  0  0  0  0  0  0  0  0  0
   19.9658   74.3146    1.9860 O   0  0  0  0  0  0  0  0  0  0  0  0
   22.5058   75.2828    1.7701 O   0  0  0  0  0  0  0  0  0  0  0  0
   20.8132   73.7128    1.0071 C   0  0  1  0  0  0  0  0  0  0  0  0
   22.2673   73.9550    1.3525 C   0  0  2  0  0  0  0  0  0  0  0  0
   20.6988   72.2015    1.1519 C   0  0  1  0  0  0  0  0  0  0  0  0
   22.5010   72.9425    2.4608 C   0  0  2  0  0  0  0  0  0  0  0  0
   20.0221   75.2806    1.9130 H   0  0  0  0  0  0  0  0  0  0  0  0
   22.3437   75.8887    1.0295 H   0  0  0  0  0  0  0  0  0  0  0  0
   24.6266   74.3273    3.7019 O   0  0  0  0  0  0  0  0  0  0  0  0
   27.6682   71.0612    2.5505 O   0  0  0  0  0  0  0  0  0  0  0  0
   23.8583   72.4768    2.5003 N   0  0  0  0  0  0  0  0  0  0  0  0
   26.1397   72.6998    3.1264 N   0  0  0  0  0  0  0  0  0  0  0  0
   24.8508   73.2486    3.1494 C   0  0  0  0  0  0  0  0  0  0  0  0
   24.1946   71.2683    1.9025 C   0  0  0  0  0  0  0  0  0  0  0  0
   25.4276   70.7580    1.8888 C   0  0  0  0  0  0  0  0  0  0  0  0
   26.5229   71.5023    2.5443 C   0  0  0  0  0  0  0  0  0  0  0  0
   26.8479   73.2201    3.5702 H   0  0  0  0  0  0  0  0  0  0  0  0
   18.3366   70.3673   -2.5763 O   0  0  0  0  0  0  0  0  0  0  0  0
   18.7504   69.3961   -3.8007 P   0  0  2  0  0  0  0  0  0  0  0  0
   17.9737   68.0178   -3.4582 O   0  0  0  0  0  0  0  0  0  0  0  0
   20.2316   69.2406   -3.9900 O   0  0  0  0  0  0  0  0  0  0  0  0
   17.9713   69.9954   -5.0799 O   0  0  0  0  0  0  0  0  0  0  0  0
   18.9073   71.0124   -7.0031 O   0  0  0  0  0  0  0  0  0  0  0  0
   15.2278   72.8770   -6.7727 O   0  0  0  0  0  0  0  0  0  0  0  0
   16.8088   72.4174   -4.3594 O   0  0  0  0  0  0  0  0  0  0  0  0
   15.6901   70.8011   -8.7546 O   0  0  0  0  0  0  0  0  0  0  0  0
   16.1579   71.8055   -6.6151 C   0  0  2  0  0  0  0  0  0  0  0  0
   17.2910   72.2437   -5.6868 C   0  0  2  0  0  0  0  0  0  0  0  0
   16.7096   71.4510   -7.9978 C   0  0  1  0  0  0  0  0  0  0  0  0
   18.4194   71.2115   -5.6758 C   0  0  1  0  0  0  0  0  0  0  0  0
   17.9116   70.5165   -7.8952 C   0  0  1  0  0  0  0  0  0  0  0  0
   14.8640   73.1195   -5.9066 H   0  0  0  0  0  0  0  0  0  0  0  0
   16.0924   73.0709   -4.3590 H   0  0  0  0  0  0  0  0  0  0  0  0
   14.9192   71.3853   -8.8272 H   0  0  0  0  0  0  0  0  0  0  0  0
   19.8702   70.9951   -9.0937 O   0  0  0  0  0  0  0  0  0  0  0  0
   18.1898   69.9462  -10.2230 O   0  0  0  0  0  0  0  0  0  0  0  0
   18.6372   70.4404   -9.1990 C   0  0  0  0  0  0  0  0  0  0  0  0
  1  4  1  0
  1 24  1  0
  1  2  1  6
  1  3  2  0
 25 28  1  0
 25 24  1  0
 25 26  1  1
 25 27  2  0
  6 11  1  0
  6 12  1  0
 29 36  1  0
 29 37  1  0
  9  7  1  1
  7 13  1  0
 10  8  1  1
  8 14  1  0
  4  5  1  0
 36 28  1  6
 33 30  1  6
 30 38  1  0
 34 31  1  1
 31 39  1  0
 35 32  1  6
 32 40  1  0
 41 43  1  0
 15 19  2  0
 42 43  2  0
 16 22  2  0
 12 17  1  6
 17 19  1  0
 17 20  1  0
 18 19  1  0
 18 22  1  0
 18 23  1  0
  9 10  1  0
  9 11  1  0
 10 12  1  0
 11  5  1  6
 33 34  1  0
 33 35  1  0
 34 36  1  0
 35 37  1  0
 37 43  1  6
 20 21  2  0
 21 22  1  0
M  CHG  3   2  -1  26  -1  41  -1
M  END
>  <COMPND>  (198) 
    udp_gluA.pdb 

>  <AUTHOR>  (198) 
    GENERATED BY OPEN BABEL 3.1.1

>  <MASTER>  (198) 
        0    0    0    0    0    0    0    0   56    0   56    0

>  <minimizedAffinity>  (198) 
-6.94136

>  <CNNscore>  (198) 
0.3834274113

>  <CNNaffinity>  (198) 
3.9624359608

>  <CNN_VS>  (198) 
1.5193065405

>  <CNNaffinity_variance>  (198) 
0.0428063124

$$$$
199
     RDKit          3D

 43 45  0  0  0  0  0  0  0  0999 V2000
   18.6308   75.2269   -1.4348 P   0  0  2  0  0  0  0  0  0  0  0  0
   18.3179   76.6646   -2.1087 O   0  0  0  0  0  0  0  0  0  0  0  0
   18.1627   75.0765   -0.0170 O   0  0  0  0  0  0  0  0  0  0  0  0
   20.2174   75.0216   -1.6764 O   0  0  0  0  0  0  0  0  0  0  0  0
   20.9559   74.2791   -0.7236 C   0  0  0  0  0  0  0  0  0  0  0  0
   22.7505   72.7350   -1.1392 O   0  0  0  0  0  0  0  0  0  0  0  0
   20.6229   70.6659   -1.5674 O   0  0  0  0  0  0  0  0  0  0  0  0
   21.4742   70.1295    0.9671 O   0  0  0  0  0  0  0  0  0  0  0  0
   20.6519   71.7545   -0.6440 C   0  0  1  0  0  0  0  0  0  0  0  0
   21.6064   71.4529    0.4919 C   0  0  2  0  0  0  0  0  0  0  0  0
   21.3325   72.9324   -1.3277 C   0  0  1  0  0  0  0  0  0  0  0  0
   22.9570   71.7100   -0.1543 C   0  0  2  0  0  0  0  0  0  0  0  0
   20.1924   69.9013   -1.1529 H   0  0  0  0  0  0  0  0  0  0  0  0
   20.5982   70.0164    1.3694 H   0  0  0  0  0  0  0  0  0  0  0  0
   24.4818   70.0020    1.4993 O   0  0  0  0  0  0  0  0  0  0  0  0
   26.6975   73.5513    3.4325 O   0  0  0  0  0  0  0  0  0  0  0  0
   23.9394   72.1611    0.7902 N   0  0  0  0  0  0  0  0  0  0  0  0
   25.5832   71.7714    2.4613 N   0  0  0  0  0  0  0  0  0  0  0  0
   24.6504   71.2207    1.5727 C   0  0  0  0  0  0  0  0  0  0  0  0
   24.1915   73.5201    0.9331 C   0  0  0  0  0  0  0  0  0  0  0  0
   25.0838   74.0300    1.7843 C   0  0  0  0  0  0  0  0  0  0  0  0
   25.8685   73.1155    2.6394 C   0  0  0  0  0  0  0  0  0  0  0  0
   26.0890   71.1364    3.0183 H   0  0  0  0  0  0  0  0  0  0  0  0
   17.9666   74.1852   -2.4772 O   0  0  0  0  0  0  0  0  0  0  0  0
   17.5250   74.3656   -4.0219 P   0  0  2  0  0  0  0  0  0  0  0  0
   18.8876   74.8627   -4.7405 O   0  0  0  0  0  0  0  0  0  0  0  0
   16.3506   75.2787   -4.2240 O   0  0  0  0  0  0  0  0  0  0  0  0
   17.3047   72.8618   -4.5628 O   0  0  0  0  0  0  0  0  0  0  0  0
   18.5572   70.9380   -3.9801 O   0  0  0  0  0  0  0  0  0  0  0  0
   17.2522   69.9726   -7.7792 O   0  0  0  0  0  0  0  0  0  0  0  0
   18.2147   72.6659   -7.1838 O   0  0  0  0  0  0  0  0  0  0  0  0
   16.0030   68.7547   -5.4538 O   0  0  0  0  0  0  0  0  0  0  0  0
   17.1769   70.5849   -6.4918 C   0  0  2  0  0  0  0  0  0  0  0  0
   18.3508   71.5482   -6.3138 C   0  0  2  0  0  0  0  0  0  0  0  0
   17.2327   69.4773   -5.4373 C   0  0  1  0  0  0  0  0  0  0  0  0
   18.4347   72.0476   -4.8708 C   0  0  1  0  0  0  0  0  0  0  0  0
   17.4433   70.0498   -4.0386 C   0  0  1  0  0  0  0  0  0  0  0  0
   17.2186   70.6574   -8.4656 H   0  0  0  0  0  0  0  0  0  0  0  0
   18.1605   72.3563   -8.1012 H   0  0  0  0  0  0  0  0  0  0  0  0
   15.8570   68.3852   -6.3387 H   0  0  0  0  0  0  0  0  0  0  0  0
   18.0063   69.4832   -1.8332 O   0  0  0  0  0  0  0  0  0  0  0  0
   17.9496   67.7905   -3.3599 O   0  0  0  0  0  0  0  0  0  0  0  0
   17.8226   68.9721   -3.0758 C   0  0  0  0  0  0  0  0  0  0  0  0
  1  4  1  0
  1 24  1  0
  1  2  1  6
  1  3  2  0
 25 28  1  0
 25 24  1  0
 25 26  1  6
 25 27  2  0
  6 11  1  0
  6 12  1  0
 29 36  1  0
 29 37  1  0
  9  7  1  6
  7 13  1  0
 10  8  1  6
  8 14  1  0
  4  5  1  0
 36 28  1  1
 33 30  1  6
 30 38  1  0
 34 31  1  6
 31 39  1  0
 35 32  1  1
 32 40  1  0
 41 43  1  0
 15 19  2  0
 42 43  2  0
 16 22  2  0
 12 17  1  1
 17 19  1  0
 17 20  1  0
 18 19  1  0
 18 22  1  0
 18 23  1  0
  9 10  1  0
  9 11  1  0
 10 12  1  0
 11  5  1  1
 33 34  1  0
 33 35  1  0
 34 36  1  0
 35 37  1  0
 37 43  1  1
 20 21  2  0
 21 22  1  0
M  CHG  3   2  -1  26  -1  41  -1
M  END
>  <COMPND>  (199) 
    udp_gluA.pdb 

>  <AUTHOR>  (199) 
    GENERATED BY OPEN BABEL 3.1.1

>  <MASTER>  (199) 
        0    0    0    0    0    0    0    0   56    0   56    0

>  <minimizedAffinity>  (199) 
-6.45658

>  <CNNscore>  (199) 
0.3802869618

>  <CNNaffinity>  (199) 
4.0472264290

>  <CNN_VS>  (199) 
1.5391074419

>  <CNNaffinity_variance>  (199) 
0.1526048630

$$$$
200
     RDKit          3D

 43 45  0  0  0  0  0  0  0  0999 V2000
   20.6555   74.2595   -4.0104 P   0  0  2  0  0  0  0  0  0  0  0  0
   20.0798   75.6697   -4.5570 O   0  0  0  0  0  0  0  0  0  0  0  0
   21.4567   73.4734   -5.0064 O   0  0  0  0  0  0  0  0  0  0  0  0
   19.3506   73.5128   -3.4122 O   0  0  0  0  0  0  0  0  0  0  0  0
   19.5124   72.2339   -2.8268 C   0  0  0  0  0  0  0  0  0  0  0  0
   17.3853   71.7477   -3.8351 O   0  0  0  0  0  0  0  0  0  0  0  0
   17.0028   69.7563   -1.6262 O   0  0  0  0  0  0  0  0  0  0  0  0
   17.7453   68.1822   -3.7255 O   0  0  0  0  0  0  0  0  0  0  0  0
   18.1966   70.1158   -2.3220 C   0  0  1  0  0  0  0  0  0  0  0  0
   18.1903   69.5226   -3.7149 C   0  0  2  0  0  0  0  0  0  0  0  0
   18.1398   71.6095   -2.6116 C   0  0  1  0  0  0  0  0  0  0  0  0
   17.2466   70.4578   -4.4517 C   0  0  2  0  0  0  0  0  0  0  0  0
   17.0162   68.8060   -1.4301 H   0  0  0  0  0  0  0  0  0  0  0  0
   18.3797   67.6272   -3.2444 H   0  0  0  0  0  0  0  0  0  0  0  0
   16.1112   68.8555   -6.4815 O   0  0  0  0  0  0  0  0  0  0  0  0
   18.5442   70.9778   -9.7709 O   0  0  0  0  0  0  0  0  0  0  0  0
   17.5654   70.5704   -5.8469 N   0  0  0  0  0  0  0  0  0  0  0  0
   17.3248   69.9134   -8.1177 N   0  0  0  0  0  0  0  0  0  0  0  0
   16.9386   69.7168   -6.7853 C   0  0  0  0  0  0  0  0  0  0  0  0
   18.4876   71.5185   -6.2733 C   0  0  0  0  0  0  0  0  0  0  0  0
   18.8455   71.6940   -7.5468 C   0  0  0  0  0  0  0  0  0  0  0  0
   18.2378   70.8423   -8.5902 C   0  0  0  0  0  0  0  0  0  0  0  0
   16.9034   69.3294   -8.7891 H   0  0  0  0  0  0  0  0  0  0  0  0
   21.4688   74.6901   -2.6815 O   0  0  0  0  0  0  0  0  0  0  0  0
   22.9392   74.2726   -2.1550 P   0  0  2  0  0  0  0  0  0  0  0  0
   23.6757   75.6987   -1.9454 O   0  0  0  0  0  0  0  0  0  0  0  0
   23.6716   73.3255   -3.0608 O   0  0  0  0  0  0  0  0  0  0  0  0
   22.6960   73.7163   -0.6603 O   0  0  0  0  0  0  0  0  0  0  0  0
   24.0121   73.2030    1.2406 O   0  0  0  0  0  0  0  0  0  0  0  0
   21.4908   69.9354    1.0565 O   0  0  0  0  0  0  0  0  0  0  0  0
   22.6774   71.0294   -1.3786 O   0  0  0  0  0  0  0  0  0  0  0  0
   21.0486   72.0095    3.0449 O   0  0  0  0  0  0  0  0  0  0  0  0
   21.8659   71.3029    0.8913 C   0  0  2  0  0  0  0  0  0  0  0  0
   23.0609   71.3947   -0.0580 C   0  0  2  0  0  0  0  0  0  0  0  0
   22.2352   71.8614    2.2674 C   0  0  1  0  0  0  0  0  0  0  0  0
   23.6344   72.8122   -0.0800 C   0  0  1  0  0  0  0  0  0  0  0  0
   22.9156   73.2224    2.1519 C   0  0  1  0  0  0  0  0  0  0  0  0
   21.2518   69.5592    0.1947 H   0  0  0  0  0  0  0  0  0  0  0  0
   22.3123   70.1310   -1.3720 H   0  0  0  0  0  0  0  0  0  0  0  0
   20.6058   71.1502    3.1259 H   0  0  0  0  0  0  0  0  0  0  0  0
   24.8941   73.7856    3.2789 O   0  0  0  0  0  0  0  0  0  0  0  0
   22.9740   73.7397    4.5079 O   0  0  0  0  0  0  0  0  0  0  0  0
   23.5604   73.6045    3.4444 C   0  0  0  0  0  0  0  0  0  0  0  0
  1  4  1  0
  1 24  1  0
  1  2  1  6
  1  3  2  0
 25 28  1  0
 25 24  1  0
 25 26  1  1
 25 27  2  0
  6 11  1  0
  6 12  1  0
 29 36  1  0
 29 37  1  0
  9  7  1  1
  7 13  1  0
 10  8  1  1
  8 14  1  0
  4  5  1  0
 36 28  1  1
 33 30  1  1
 30 38  1  0
 34 31  1  6
 31 39  1  0
 35 32  1  1
 32 40  1  0
 41 43  1  0
 15 19  2  0
 42 43  2  0
 16 22  2  0
 12 17  1  6
 17 19  1  0
 17 20  1  0
 18 19  1  0
 18 22  1  0
 18 23  1  0
  9 10  1  0
  9 11  1  0
 10 12  1  0
 11  5  1  6
 33 34  1  0
 33 35  1  0
 34 36  1  0
 35 37  1  0
 37 43  1  1
 20 21  2  0
 21 22  1  0
M  CHG  3   2  -1  26  -1  41  -1
M  END
>  <COMPND>  (200) 
    udp_gluA.pdb 

>  <AUTHOR>  (200) 
    GENERATED BY OPEN BABEL 3.1.1

>  <MASTER>  (200) 
        0    0    0    0    0    0    0    0   56    0   56    0

>  <minimizedAffinity>  (200) 
-6.45008

>  <CNNscore>  (200) 
0.3729588091

>  <CNNaffinity>  (200) 
4.1217546463

>  <CNN_VS>  (200) 
1.5372446775

>  <CNNaffinity_variance>  (200) 
0.1930111945

$$$$
201
     RDKit          3D

 43 45  0  0  0  0  0  0  0  0999 V2000
   22.2781   71.5213   -3.0718 P   0  0  2  0  0  0  0  0  0  0  0  0
   21.8370   73.0622   -2.8485 O   0  0  0  0  0  0  0  0  0  0  0  0
   23.7222   71.3207   -3.4270 O   0  0  0  0  0  0  0  0  0  0  0  0
   21.2059   70.9621   -4.1468 O   0  0  0  0  0  0  0  0  0  0  0  0
   20.2780   69.9785   -3.7273 C   0  0  0  0  0  0  0  0  0  0  0  0
   18.6266   71.3672   -4.7865 O   0  0  0  0  0  0  0  0  0  0  0  0
   16.6815   70.2524   -2.7952 O   0  0  0  0  0  0  0  0  0  0  0  0
   16.1239   68.8129   -5.0431 O   0  0  0  0  0  0  0  0  0  0  0  0
   17.7766   69.6084   -3.4468 C   0  0  1  0  0  0  0  0  0  0  0  0
   17.4319   69.3240   -4.8934 C   0  0  2  0  0  0  0  0  0  0  0  0
   18.9050   70.6218   -3.5815 C   0  0  1  0  0  0  0  0  0  0  0  0
   17.6021   70.6915   -5.5329 C   0  0  2  0  0  0  0  0  0  0  0  0
   15.9482   69.6245   -2.6979 H   0  0  0  0  0  0  0  0  0  0  0  0
   16.0670   67.9414   -4.6197 H   0  0  0  0  0  0  0  0  0  0  0  0
   15.8254   70.3094   -7.6948 O   0  0  0  0  0  0  0  0  0  0  0  0
   19.2598   70.3825  -10.7678 O   0  0  0  0  0  0  0  0  0  0  0  0
   18.0051   70.6070   -6.9082 N   0  0  0  0  0  0  0  0  0  0  0  0
   17.5377   70.3451   -9.2232 N   0  0  0  0  0  0  0  0  0  0  0  0
   17.0330   70.4136   -7.9179 C   0  0  0  0  0  0  0  0  0  0  0  0
   19.3487   70.7169   -7.2452 C   0  0  0  0  0  0  0  0  0  0  0  0
   19.8146   70.6497   -8.4939 C   0  0  0  0  0  0  0  0  0  0  0  0
   18.8648   70.4482   -9.6077 C   0  0  0  0  0  0  0  0  0  0  0  0
   16.8801   70.2088   -9.9431 H   0  0  0  0  0  0  0  0  0  0  0  0
   21.8181   70.8091   -1.6956 O   0  0  0  0  0  0  0  0  0  0  0  0
   21.3482   71.4361   -0.2814 P   0  0  2  0  0  0  0  0  0  0  0  0
   21.5119   70.1958    0.7457 O   0  0  0  0  0  0  0  0  0  0  0  0
   19.9758   72.0442   -0.3031 O   0  0  0  0  0  0  0  0  0  0  0  0
   22.5275   72.4593    0.1246 O   0  0  0  0  0  0  0  0  0  0  0  0
   22.2295   73.5577    2.2016 O   0  0  0  0  0  0  0  0  0  0  0  0
   25.4175   75.6402    0.5991 O   0  0  0  0  0  0  0  0  0  0  0  0
   23.1456   74.8902   -1.0774 O   0  0  0  0  0  0  0  0  0  0  0  0
   25.8595   73.6982    2.7167 O   0  0  0  0  0  0  0  0  0  0  0  0
   24.5906   74.5000    0.8321 C   0  0  2  0  0  0  0  0  0  0  0  0
   23.1715   74.7883    0.3416 C   0  0  2  0  0  0  0  0  0  0  0  0
   24.5869   74.2179    2.3361 C   0  0  1  0  0  0  0  0  0  0  0  0
   22.2068   73.6853    0.7794 C   0  0  1  0  0  0  0  0  0  0  0  0
   23.5130   73.2001    2.7094 C   0  0  1  0  0  0  0  0  0  0  0  0
   25.4350   75.8386   -0.3504 H   0  0  0  0  0  0  0  0  0  0  0  0
   23.7557   75.5881   -1.3621 H   0  0  0  0  0  0  0  0  0  0  0  0
   26.5520   74.3364    2.4844 H   0  0  0  0  0  0  0  0  0  0  0  0
   24.0012   74.1647    4.7909 O   0  0  0  0  0  0  0  0  0  0  0  0
   22.5780   72.3833    4.7782 O   0  0  0  0  0  0  0  0  0  0  0  0
   23.2946   73.1771    4.1872 C   0  0  0  0  0  0  0  0  0  0  0  0
  1  4  1  0
  1 24  1  0
  1  2  1  1
  1  3  2  0
 25 28  1  0
 25 24  1  0
 25 26  1  1
 25 27  2  0
  6 11  1  0
  6 12  1  0
 29 36  1  0
 29 37  1  0
  9  7  1  1
  7 13  1  0
 10  8  1  1
  8 14  1  0
  4  5  1  0
 36 28  1  6
 33 30  1  1
 30 38  1  0
 34 31  1  6
 31 39  1  0
 35 32  1  6
 32 40  1  0
 41 43  1  0
 15 19  2  0
 42 43  2  0
 16 22  2  0
 12 17  1  6
 17 19  1  0
 17 20  1  0
 18 19  1  0
 18 22  1  0
 18 23  1  0
  9 10  1  0
  9 11  1  0
 10 12  1  0
 11  5  1  6
 33 34  1  0
 33 35  1  0
 34 36  1  0
 35 37  1  0
 37 43  1  1
 20 21  2  0
 21 22  1  0
M  CHG  3   2  -1  26  -1  41  -1
M  END
>  <COMPND>  (201) 
    udp_gluA.pdb 

>  <AUTHOR>  (201) 
    GENERATED BY OPEN BABEL 3.1.1

>  <MASTER>  (201) 
        0    0    0    0    0    0    0    0   56    0   56    0

>  <minimizedAffinity>  (201) 
-7.67760

>  <CNNscore>  (201) 
0.9192664027

>  <CNNaffinity>  (201) 
4.7772245407

>  <CNN_VS>  (201) 
4.3915419579

>  <CNNaffinity_variance>  (201) 
0.0398417227

$$$$
202
     RDKit          3D

 43 45  0  0  0  0  0  0  0  0999 V2000
   21.3371   71.4834   -2.1033 P   0  0  2  0  0  0  0  0  0  0  0  0
   20.3061   72.2205   -1.0971 O   0  0  0  0  0  0  0  0  0  0  0  0
   21.7523   72.2976   -3.2934 O   0  0  0  0  0  0  0  0  0  0  0  0
   20.6161   70.0731   -2.4337 O   0  0  0  0  0  0  0  0  0  0  0  0
   19.9692   69.9211   -3.6839 C   0  0  0  0  0  0  0  0  0  0  0  0
   18.3332   71.2874   -4.7949 O   0  0  0  0  0  0  0  0  0  0  0  0
   16.3225   70.0651   -2.9363 O   0  0  0  0  0  0  0  0  0  0  0  0
   15.9269   68.6679   -5.2445 O   0  0  0  0  0  0  0  0  0  0  0  0
   17.4692   69.4705   -3.5447 C   0  0  1  0  0  0  0  0  0  0  0  0
   17.2090   69.2133   -5.0138 C   0  0  2  0  0  0  0  0  0  0  0  0
   18.5713   70.5198   -3.5952 C   0  0  1  0  0  0  0  0  0  0  0  0
   17.3701   70.6012   -5.6103 C   0  0  2  0  0  0  0  0  0  0  0  0
   15.6047   69.4135   -2.8930 H   0  0  0  0  0  0  0  0  0  0  0  0
   15.8748   67.7845   -4.8458 H   0  0  0  0  0  0  0  0  0  0  0  0
   15.7087   70.3361   -7.8788 O   0  0  0  0  0  0  0  0  0  0  0  0
   19.3068   70.4697  -10.7562 O   0  0  0  0  0  0  0  0  0  0  0  0
   17.8464   70.5639   -6.9641 N   0  0  0  0  0  0  0  0  0  0  0  0
   17.5024   70.4018   -9.3096 N   0  0  0  0  0  0  0  0  0  0  0  0
   16.9281   70.4277   -8.0319 C   0  0  0  0  0  0  0  0  0  0  0  0
   19.2080   70.6633   -7.2233 C   0  0  0  0  0  0  0  0  0  0  0  0
   19.7404   70.6372   -8.4466 C   0  0  0  0  0  0  0  0  0  0  0  0
   18.8500   70.4966   -9.6174 C   0  0  0  0  0  0  0  0  0  0  0  0
   16.8831   70.3057  -10.0690 H   0  0  0  0  0  0  0  0  0  0  0  0
   22.5506   71.0510   -1.1268 O   0  0  0  0  0  0  0  0  0  0  0  0
   22.6599   71.0323    0.4861 P   0  0  2  0  0  0  0  0  0  0  0  0
   24.1475   70.4507    0.7492 O   0  0  0  0  0  0  0  0  0  0  0  0
   21.5657   70.2635    1.1686 O   0  0  0  0  0  0  0  0  0  0  0  0
   22.7498   72.5867    0.9083 O   0  0  0  0  0  0  0  0  0  0  0  0
   23.6770   74.0241   -0.7298 O   0  0  0  0  0  0  0  0  0  0  0  0
   23.5516   76.4925    2.5807 O   0  0  0  0  0  0  0  0  0  0  0  0
   24.4064   73.7109    2.8391 O   0  0  0  0  0  0  0  0  0  0  0  0
   21.5991   76.8083    0.4503 O   0  0  0  0  0  0  0  0  0  0  0  0
   23.1146   75.4363    1.7254 C   0  0  2  0  0  0  0  0  0  0  0  0
   24.2202   74.3876    1.6013 C   0  0  2  0  0  0  0  0  0  0  0  0
   22.7962   76.0387    0.3551 C   0  0  1  0  0  0  0  0  0  0  0  0
   23.8822   73.3617    0.5187 C   0  0  1  0  0  0  0  0  0  0  0  0
   22.5954   74.9526   -0.6978 C   0  0  1  0  0  0  0  0  0  0  0  0
   23.7599   76.1334    3.4576 H   0  0  0  0  0  0  0  0  0  0  0  0
   24.6210   74.3559    3.5307 H   0  0  0  0  0  0  0  0  0  0  0  0
   21.7135   77.5031    1.1173 H   0  0  0  0  0  0  0  0  0  0  0  0
   21.3918   76.0226   -2.4031 O   0  0  0  0  0  0  0  0  0  0  0  0
   23.5918   75.5776   -2.8044 O   0  0  0  0  0  0  0  0  0  0  0  0
   22.6140   75.5368   -2.0728 C   0  0  0  0  0  0  0  0  0  0  0  0
  1  4  1  0
  1 24  1  0
  1  2  1  1
  1  3  2  0
 25 28  1  0
 25 24  1  0
 25 26  1  6
 25 27  2  0
  6 11  1  0
  6 12  1  0
 29 36  1  0
 29 37  1  0
  9  7  1  6
  7 13  1  0
 10  8  1  1
  8 14  1  0
  4  5  1  0
 36 28  1  1
 33 30  1  1
 30 38  1  0
 34 31  1  1
 31 39  1  0
 35 32  1  1
 32 40  1  0
 41 43  1  0
 15 19  2  0
 42 43  2  0
 16 22  2  0
 12 17  1  6
 17 19  1  0
 17 20  1  0
 18 19  1  0
 18 22  1  0
 18 23  1  0
  9 10  1  0
  9 11  1  0
 10 12  1  0
 11  5  1  6
 33 34  1  0
 33 35  1  0
 34 36  1  0
 35 37  1  0
 37 43  1  6
 20 21  2  0
 21 22  1  0
M  CHG  3   2  -1  26  -1  41  -1
M  END
>  <COMPND>  (202) 
    udp_gluA.pdb 

>  <AUTHOR>  (202) 
    GENERATED BY OPEN BABEL 3.1.1

>  <MASTER>  (202) 
        0    0    0    0    0    0    0    0   56    0   56    0

>  <minimizedAffinity>  (202) 
-6.93190

>  <CNNscore>  (202) 
0.9175268412

>  <CNNaffinity>  (202) 
4.7629990578

>  <CNN_VS>  (202) 
4.3701796532

>  <CNNaffinity_variance>  (202) 
0.1535089314

$$$$
203
     RDKit          3D

 43 45  0  0  0  0  0  0  0  0999 V2000
   22.9209   71.4363   -2.2791 P   0  0  2  0  0  0  0  0  0  0  0  0
   22.5680   72.9675   -2.6662 O   0  0  0  0  0  0  0  0  0  0  0  0
   24.2034   70.9158   -2.8588 O   0  0  0  0  0  0  0  0  0  0  0  0
   21.5848   70.6165   -2.6799 O   0  0  0  0  0  0  0  0  0  0  0  0
   20.9313   70.9403   -3.8934 C   0  0  0  0  0  0  0  0  0  0  0  0
   18.8733   71.7811   -4.8074 O   0  0  0  0  0  0  0  0  0  0  0  0
   17.5195   70.4771   -2.4711 O   0  0  0  0  0  0  0  0  0  0  0  0
   17.0597   68.7045   -4.4917 O   0  0  0  0  0  0  0  0  0  0  0  0
   18.6504   70.0351   -3.2223 C   0  0  1  0  0  0  0  0  0  0  0  0
   18.2111   69.5181   -4.5758 C   0  0  2  0  0  0  0  0  0  0  0  0
   19.4712   71.2605   -3.6004 C   0  0  1  0  0  0  0  0  0  0  0  0
   17.9618   70.8071   -5.3401 C   0  0  2  0  0  0  0  0  0  0  0  0
   16.9797   69.7114   -2.2181 H   0  0  0  0  0  0  0  0  0  0  0  0
   17.2701   67.8967   -3.9966 H   0  0  0  0  0  0  0  0  0  0  0  0
   15.9317   70.5129   -7.2814 O   0  0  0  0  0  0  0  0  0  0  0  0
   18.9974   70.2671  -10.7144 O   0  0  0  0  0  0  0  0  0  0  0  0
   18.2014   70.6643   -6.7483 N   0  0  0  0  0  0  0  0  0  0  0  0
   17.4606   70.3898   -8.9893 N   0  0  0  0  0  0  0  0  0  0  0  0
   17.1111   70.5226   -7.6390 C   0  0  0  0  0  0  0  0  0  0  0  0
   19.5033   70.6673   -7.2341 C   0  0  0  0  0  0  0  0  0  0  0  0
   19.8207   70.5398   -8.5239 C   0  0  0  0  0  0  0  0  0  0  0  0
   18.7403   70.3862   -9.5202 C   0  0  0  0  0  0  0  0  0  0  0  0
   16.7185   70.2877   -9.6282 H   0  0  0  0  0  0  0  0  0  0  0  0
   22.8685   71.4492   -0.6636 O   0  0  0  0  0  0  0  0  0  0  0  0
   21.6187   71.5494    0.3571 P   0  0  2  0  0  0  0  0  0  0  0  0
   21.5141   70.0516    0.9619 O   0  0  0  0  0  0  0  0  0  0  0  0
   20.3508   72.0532   -0.2695 O   0  0  0  0  0  0  0  0  0  0  0  0
   22.1622   72.4465    1.5828 O   0  0  0  0  0  0  0  0  0  0  0  0
   23.9639   71.4306    2.7365 O   0  0  0  0  0  0  0  0  0  0  0  0
   23.1672   74.6998    5.1335 O   0  0  0  0  0  0  0  0  0  0  0  0
   20.9820   73.1199    4.0096 O   0  0  0  0  0  0  0  0  0  0  0  0
   25.4824   74.7091    3.3754 O   0  0  0  0  0  0  0  0  0  0  0  0
   23.2514   73.9717    3.9084 C   0  0  2  0  0  0  0  0  0  0  0  0
   22.3523   72.7374    3.9838 C   0  0  2  0  0  0  0  0  0  0  0  0
   24.7100   73.5560    3.7046 C   0  0  1  0  0  0  0  0  0  0  0  0
   22.5893   71.8141    2.7880 C   0  0  1  0  0  0  0  0  0  0  0  0
   24.8468   72.5386    2.5756 C   0  0  1  0  0  0  0  0  0  0  0  0
   22.2490   74.9744    5.2842 H   0  0  0  0  0  0  0  0  0  0  0  0
   20.8246   73.7062    4.7658 H   0  0  0  0  0  0  0  0  0  0  0  0
   25.4038   75.3646    4.0859 H   0  0  0  0  0  0  0  0  0  0  0  0
   26.2026   70.7668    1.8517 O   0  0  0  0  0  0  0  0  0  0  0  0
   27.1669   72.3293    3.2037 O   0  0  0  0  0  0  0  0  0  0  0  0
   26.1965   71.8983    2.5991 C   0  0  0  0  0  0  0  0  0  0  0  0
  1  4  1  0
  1 24  1  0
  1  2  1  6
  1  3  2  0
 25 28  1  0
 25 24  1  0
 25 26  1  1
 25 27  2  0
  6 11  1  0
  6 12  1  0
 29 36  1  0
 29 37  1  0
  9  7  1  1
  7 13  1  0
 10  8  1  1
  8 14  1  0
  4  5  1  0
 36 28  1  6
 33 30  1  1
 30 38  1  0
 34 31  1  6
 31 39  1  0
 35 32  1  6
 32 40  1  0
 41 43  1  0
 15 19  2  0
 42 43  2  0
 16 22  2  0
 12 17  1  6
 17 19  1  0
 17 20  1  0
 18 19  1  0
 18 22  1  0
 18 23  1  0
  9 10  1  0
  9 11  1  0
 10 12  1  0
 11  5  1  6
 33 34  1  0
 33 35  1  0
 34 36  1  0
 35 37  1  0
 37 43  1  1
 20 21  2  0
 21 22  1  0
M  CHG  3   2  -1  26  -1  41  -1
M  END
>  <COMPND>  (203) 
    udp_gluA.pdb 

>  <AUTHOR>  (203) 
    GENERATED BY OPEN BABEL 3.1.1

>  <MASTER>  (203) 
        0    0    0    0    0    0    0    0   56    0   56    0

>  <minimizedAffinity>  (203) 
-8.21551

>  <CNNscore>  (203) 
0.9116364717

>  <CNNaffinity>  (203) 
4.7357664108

>  <CNN_VS>  (203) 
4.3172974586

>  <CNNaffinity_variance>  (203) 
0.0838084146

$$$$
204
     RDKit          3D

 43 45  0  0  0  0  0  0  0  0999 V2000
   22.9370   71.4009   -2.3227 P   0  0  2  0  0  0  0  0  0  0  0  0
   22.6736   72.9964   -2.3854 O   0  0  0  0  0  0  0  0  0  0  0  0
   24.1902   70.9383   -3.0062 O   0  0  0  0  0  0  0  0  0  0  0  0
   21.5581   70.7576   -2.8730 O   0  0  0  0  0  0  0  0  0  0  0  0
   20.9101   71.3813   -3.9664 C   0  0  0  0  0  0  0  0  0  0  0  0
   18.7453   71.9354   -4.8520 O   0  0  0  0  0  0  0  0  0  0  0  0
   17.6122   70.5476   -2.4475 O   0  0  0  0  0  0  0  0  0  0  0  0
   17.3314   68.6711   -4.4060 O   0  0  0  0  0  0  0  0  0  0  0  0
   18.7728   70.2246   -3.2139 C   0  0  1  0  0  0  0  0  0  0  0  0
   18.3718   69.6165   -4.5412 C   0  0  2  0  0  0  0  0  0  0  0  0
   19.4282   71.5291   -3.6462 C   0  0  1  0  0  0  0  0  0  0  0  0
   17.9495   70.8413   -5.3345 C   0  0  2  0  0  0  0  0  0  0  0  0
   17.1763   69.7296   -2.1600 H   0  0  0  0  0  0  0  0  0  0  0  0
   17.6501   67.9106   -3.8940 H   0  0  0  0  0  0  0  0  0  0  0  0
   15.9058   70.4366   -7.2414 O   0  0  0  0  0  0  0  0  0  0  0  0
   18.9305   70.2580  -10.7146 O   0  0  0  0  0  0  0  0  0  0  0  0
   18.1749   70.6860   -6.7438 N   0  0  0  0  0  0  0  0  0  0  0  0
   17.4143   70.3470   -8.9693 N   0  0  0  0  0  0  0  0  0  0  0  0
   17.0788   70.4873   -7.6162 C   0  0  0  0  0  0  0  0  0  0  0  0
   19.4687   70.7326   -7.2485 C   0  0  0  0  0  0  0  0  0  0  0  0
   19.7729   70.5975   -8.5408 C   0  0  0  0  0  0  0  0  0  0  0  0
   18.6856   70.3856   -9.5188 C   0  0  0  0  0  0  0  0  0  0  0  0
   16.6681   70.2057   -9.5957 H   0  0  0  0  0  0  0  0  0  0  0  0
   22.8783   71.0854   -0.7384 O   0  0  0  0  0  0  0  0  0  0  0  0
   21.7421   71.4054    0.3662 P   0  0  2  0  0  0  0  0  0  0  0  0
   21.6298   70.0187    1.1938 O   0  0  0  0  0  0  0  0  0  0  0  0
   20.4425   71.8889   -0.2094 O   0  0  0  0  0  0  0  0  0  0  0  0
   22.4451   72.4349    1.3901 O   0  0  0  0  0  0  0  0  0  0  0  0
   23.4833   74.4045    0.5826 O   0  0  0  0  0  0  0  0  0  0  0  0
   25.1523   74.0566    4.3458 O   0  0  0  0  0  0  0  0  0  0  0  0
   24.8115   71.6999    2.6534 O   0  0  0  0  0  0  0  0  0  0  0  0
   23.0763   76.0296    3.8469 O   0  0  0  0  0  0  0  0  0  0  0  0
   24.1342   73.9217    3.3542 C   0  0  2  0  0  0  0  0  0  0  0  0
   24.6451   73.0426    2.2125 C   0  0  2  0  0  0  0  0  0  0  0  0
   23.7902   75.3200    2.8363 C   0  0  1  0  0  0  0  0  0  0  0  0
   23.6748   73.0620    1.0306 C   0  0  1  0  0  0  0  0  0  0  0  0
   22.9226   75.2520    1.5828 C   0  0  1  0  0  0  0  0  0  0  0  0
   25.3873   73.1803    4.6895 H   0  0  0  0  0  0  0  0  0  0  0  0
   25.4259   71.6802    3.4034 H   0  0  0  0  0  0  0  0  0  0  0  0
   23.6176   76.0798    4.6503 H   0  0  0  0  0  0  0  0  0  0  0  0
   23.6327   77.4873    1.5607 O   0  0  0  0  0  0  0  0  0  0  0  0
   22.2247   76.8267   -0.1068 O   0  0  0  0  0  0  0  0  0  0  0  0
   22.8669   76.5815    0.9034 C   0  0  0  0  0  0  0  0  0  0  0  0
  1  4  1  0
  1 24  1  0
  1  2  1  1
  1  3  2  0
 25 28  1  0
 25 24  1  0
 25 26  1  1
 25 27  2  0
  6 11  1  0
  6 12  1  0
 29 36  1  0
 29 37  1  0
  9  7  1  1
  7 13  1  0
 10  8  1  1
  8 14  1  0
  4  5  1  0
 36 28  1  1
 33 30  1  1
 30 38  1  0
 34 31  1  1
 31 39  1  0
 35 32  1  1
 32 40  1  0
 41 43  1  0
 15 19  2  0
 42 43  2  0
 16 22  2  0
 12 17  1  6
 17 19  1  0
 17 20  1  0
 18 19  1  0
 18 22  1  0
 18 23  1  0
  9 10  1  0
  9 11  1  0
 10 12  1  0
 11  5  1  6
 33 34  1  0
 33 35  1  0
 34 36  1  0
 35 37  1  0
 37 43  1  6
 20 21  2  0
 21 22  1  0
M  CHG  3   2  -1  26  -1  41  -1
M  END
>  <COMPND>  (204) 
    udp_gluA.pdb 

>  <AUTHOR>  (204) 
    GENERATED BY OPEN BABEL 3.1.1

>  <MASTER>  (204) 
        0    0    0    0    0    0    0    0   56    0   56    0

>  <minimizedAffinity>  (204) 
-7.16535

>  <CNNscore>  (204) 
0.9044767618

>  <CNNaffinity>  (204) 
4.7425351143

>  <CNN_VS>  (204) 
4.2895126343

>  <CNNaffinity_variance>  (204) 
0.0539882481

$$$$
205
     RDKit          3D

 43 45  0  0  0  0  0  0  0  0999 V2000
   23.1856   72.0566   -3.2719 P   0  0  2  0  0  0  0  0  0  0  0  0
   24.2106   72.5679   -4.4150 O   0  0  0  0  0  0  0  0  0  0  0  0
   23.7456   71.0292   -2.3323 O   0  0  0  0  0  0  0  0  0  0  0  0
   21.8710   71.6075   -4.1015 O   0  0  0  0  0  0  0  0  0  0  0  0
   21.1248   70.4976   -3.6369 C   0  0  0  0  0  0  0  0  0  0  0  0
   19.1617   71.5843   -4.4989 O   0  0  0  0  0  0  0  0  0  0  0  0
   17.6862   70.3211   -2.2144 O   0  0  0  0  0  0  0  0  0  0  0  0
   17.0438   68.6977   -4.3091 O   0  0  0  0  0  0  0  0  0  0  0  0
   18.7646   69.8004   -2.9919 C   0  0  1  0  0  0  0  0  0  0  0  0
   18.2721   69.3925   -4.3643 C   0  0  2  0  0  0  0  0  0  0  0  0
   19.7056   70.9515   -3.3203 C   0  0  1  0  0  0  0  0  0  0  0  0
   18.1543   70.7334   -5.0685 C   0  0  2  0  0  0  0  0  0  0  0  0
   17.0715   69.6038   -1.9923 H   0  0  0  0  0  0  0  0  0  0  0  0
   17.1715   67.8511   -3.8519 H   0  0  0  0  0  0  0  0  0  0  0  0
   16.1826   69.9650   -6.9390 O   0  0  0  0  0  0  0  0  0  0  0  0
   19.1146   70.3732  -10.4718 O   0  0  0  0  0  0  0  0  0  0  0  0
   18.3753   70.6306   -6.4833 N   0  0  0  0  0  0  0  0  0  0  0  0
   17.6450   70.1681   -8.6966 N   0  0  0  0  0  0  0  0  0  0  0  0
   17.3175   70.2357   -7.3361 C   0  0  0  0  0  0  0  0  0  0  0  0
   19.6269   70.9207   -7.0126 C   0  0  0  0  0  0  0  0  0  0  0  0
   19.9239   70.8518   -8.3118 C   0  0  0  0  0  0  0  0  0  0  0  0
   18.8751   70.4463   -9.2703 C   0  0  0  0  0  0  0  0  0  0  0  0
   16.9253   69.8934   -9.3098 H   0  0  0  0  0  0  0  0  0  0  0  0
   22.7162   73.4318   -2.5639 O   0  0  0  0  0  0  0  0  0  0  0  0
   23.5733   74.6192   -1.8788 P   0  0  2  0  0  0  0  0  0  0  0  0
   22.4331   75.6159   -1.3071 O   0  0  0  0  0  0  0  0  0  0  0  0
   24.5626   75.2742   -2.7987 O   0  0  0  0  0  0  0  0  0  0  0  0
   24.2240   73.9482   -0.5640 O   0  0  0  0  0  0  0  0  0  0  0  0
   22.5682   73.2142    0.9620 O   0  0  0  0  0  0  0  0  0  0  0  0
   26.0383   72.5518    3.1039 O   0  0  0  0  0  0  0  0  0  0  0  0
   25.7062   74.9983    1.5423 O   0  0  0  0  0  0  0  0  0  0  0  0
   24.6228   70.3202    1.8926 O   0  0  0  0  0  0  0  0  0  0  0  0
   25.2293   72.6517    1.9320 C   0  0  2  0  0  0  0  0  0  0  0  0
   24.6654   74.0682    1.8186 C   0  0  2  0  0  0  0  0  0  0  0  0
   24.0925   71.6344    2.0540 C   0  0  1  0  0  0  0  0  0  0  0  0
   23.6153   74.1519    0.7098 C   0  0  1  0  0  0  0  0  0  0  0  0
   23.0235   71.8632    0.9893 C   0  0  1  0  0  0  0  0  0  0  0  0
   26.7676   73.1893    3.0489 H   0  0  0  0  0  0  0  0  0  0  0  0
   26.3761   74.9504    2.2418 H   0  0  0  0  0  0  0  0  0  0  0  0
   25.3045   70.1619    2.5642 H   0  0  0  0  0  0  0  0  0  0  0  0
   20.8969   71.8784    1.9786 O   0  0  0  0  0  0  0  0  0  0  0  0
   21.5820   69.9286    1.0153 O   0  0  0  0  0  0  0  0  0  0  0  0
   21.7818   71.0972    1.3111 C   0  0  0  0  0  0  0  0  0  0  0  0
  1  4  1  0
  1 24  1  0
  1  2  1  6
  1  3  2  0
 25 28  1  0
 25 24  1  0
 25 26  1  1
 25 27  2  0
  6 11  1  0
  6 12  1  0
 29 36  1  0
 29 37  1  0
  9  7  1  1
  7 13  1  0
 10  8  1  1
  8 14  1  0
  4  5  1  0
 36 28  1  6
 33 30  1  1
 30 38  1  0
 34 31  1  6
 31 39  1  0
 35 32  1  6
 32 40  1  0
 41 43  1  0
 15 19  2  0
 42 43  2  0
 16 22  2  0
 12 17  1  6
 17 19  1  0
 17 20  1  0
 18 19  1  0
 18 22  1  0
 18 23  1  0
  9 10  1  0
  9 11  1  0
 10 12  1  0
 11  5  1  6
 33 34  1  0
 33 35  1  0
 34 36  1  0
 35 37  1  0
 37 43  1  1
 20 21  2  0
 21 22  1  0
M  CHG  3   2  -1  26  -1  41  -1
M  END
>  <COMPND>  (205) 
    udp_gluA.pdb 

>  <AUTHOR>  (205) 
    GENERATED BY OPEN BABEL 3.1.1

>  <MASTER>  (205) 
        0    0    0    0    0    0    0    0   56    0   56    0

>  <minimizedAffinity>  (205) 
-8.07168

>  <CNNscore>  (205) 
0.8961619139

>  <CNNaffinity>  (205) 
4.8549399376

>  <CNN_VS>  (205) 
4.3508124352

>  <CNNaffinity_variance>  (205) 
0.1366344690

$$$$
206
     RDKit          3D

 43 45  0  0  0  0  0  0  0  0999 V2000
   20.3930   73.1586   -3.8219 P   0  0  2  0  0  0  0  0  0  0  0  0
   19.8402   73.0984   -2.3021 O   0  0  0  0  0  0  0  0  0  0  0  0
   20.0083   74.3904   -4.5877 O   0  0  0  0  0  0  0  0  0  0  0  0
   19.9144   71.7532   -4.4653 O   0  0  0  0  0  0  0  0  0  0  0  0
   19.2234   70.8327   -3.6409 C   0  0  0  0  0  0  0  0  0  0  0  0
   17.4927   71.5667   -5.1388 O   0  0  0  0  0  0  0  0  0  0  0  0
   15.5853   70.0792   -3.3665 O   0  0  0  0  0  0  0  0  0  0  0  0
   15.9161   68.3627   -5.4594 O   0  0  0  0  0  0  0  0  0  0  0  0
   16.9246   69.7467   -3.7332 C   0  0  1  0  0  0  0  0  0  0  0  0
   16.9695   69.2560   -5.1648 C   0  0  2  0  0  0  0  0  0  0  0  0
   17.7242   71.0398   -3.8144 C   0  0  1  0  0  0  0  0  0  0  0  0
   16.8706   70.5549   -5.9466 C   0  0  2  0  0  0  0  0  0  0  0  0
   15.0550   69.2687   -3.3083 H   0  0  0  0  0  0  0  0  0  0  0  0
   16.0243   67.5518   -4.9371 H   0  0  0  0  0  0  0  0  0  0  0  0
   15.5864   70.7530   -8.4542 O   0  0  0  0  0  0  0  0  0  0  0  0
   19.5640   70.2772  -10.7337 O   0  0  0  0  0  0  0  0  0  0  0  0
   17.5465   70.4861   -7.2112 N   0  0  0  0  0  0  0  0  0  0  0  0
   17.5685   70.5148   -9.5871 N   0  0  0  0  0  0  0  0  0  0  0  0
   16.8081   70.5965   -8.4132 C   0  0  0  0  0  0  0  0  0  0  0  0
   18.9247   70.3129   -7.2525 C   0  0  0  0  0  0  0  0  0  0  0  0
   19.6356   70.2370   -8.3793 C   0  0  0  0  0  0  0  0  0  0  0  0
   18.9402   70.3424   -9.6787 C   0  0  0  0  0  0  0  0  0  0  0  0
   17.0762   70.5871  -10.4366 H   0  0  0  0  0  0  0  0  0  0  0  0
   21.9853   72.9502   -3.6374 O   0  0  0  0  0  0  0  0  0  0  0  0
   23.2241   73.3261   -4.6057 P   0  0  2  0  0  0  0  0  0  0  0  0
   22.8265   72.6188   -6.0064 O   0  0  0  0  0  0  0  0  0  0  0  0
   24.5681   72.9250   -4.0700 O   0  0  0  0  0  0  0  0  0  0  0  0
   23.0596   74.9061   -4.8863 O   0  0  0  0  0  0  0  0  0  0  0  0
   22.2075   75.9497   -6.8342 O   0  0  0  0  0  0  0  0  0  0  0  0
   24.8256   78.8164   -5.4215 O   0  0  0  0  0  0  0  0  0  0  0  0
   25.5691   75.9913   -5.3973 O   0  0  0  0  0  0  0  0  0  0  0  0
   21.9596   79.1617   -5.0780 O   0  0  0  0  0  0  0  0  0  0  0  0
   23.8911   77.7419   -5.3203 C   0  0  2  0  0  0  0  0  0  0  0  0
   24.4312   76.5219   -6.0669 C   0  0  2  0  0  0  0  0  0  0  0  0
   22.5705   78.2038   -5.9404 C   0  0  1  0  0  0  0  0  0  0  0  0
   23.3646   75.4315   -6.1770 C   0  0  1  0  0  0  0  0  0  0  0  0
   21.6069   77.0362   -6.1328 C   0  0  1  0  0  0  0  0  0  0  0  0
   25.6728   78.5459   -5.0337 H   0  0  0  0  0  0  0  0  0  0  0  0
   26.2498   76.6780   -5.3237 H   0  0  0  0  0  0  0  0  0  0  0  0
   22.5628   79.9100   -4.9472 H   0  0  0  0  0  0  0  0  0  0  0  0
   19.7414   76.3377   -7.3710 O   0  0  0  0  0  0  0  0  0  0  0  0
   20.2302   78.5647   -7.3936 O   0  0  0  0  0  0  0  0  0  0  0  0
   20.4732   77.4255   -7.0246 C   0  0  0  0  0  0  0  0  0  0  0  0
  1  4  1  0
  1 24  1  0
  1  2  1  1
  1  3  2  0
 25 28  1  0
 25 24  1  0
 25 26  1  6
 25 27  2  0
  6 11  1  0
  6 12  1  0
 29 36  1  0
 29 37  1  0
  9  7  1  6
  7 13  1  0
 10  8  1  6
  8 14  1  0
  4  5  1  0
 36 28  1  1
 33 30  1  6
 30 38  1  0
 34 31  1  1
 31 39  1  0
 35 32  1  1
 32 40  1  0
 41 43  1  0
 15 19  2  0
 42 43  2  0
 16 22  2  0
 12 17  1  6
 17 19  1  0
 17 20  1  0
 18 19  1  0
 18 22  1  0
 18 23  1  0
  9 10  1  0
  9 11  1  0
 10 12  1  0
 11  5  1  6
 33 34  1  0
 33 35  1  0
 34 36  1  0
 35 37  1  0
 37 43  1  6
 20 21  2  0
 21 22  1  0
M  CHG  3   2  -1  26  -1  41  -1
M  END
>  <COMPND>  (206) 
    udp_gluA.pdb 

>  <AUTHOR>  (206) 
    GENERATED BY OPEN BABEL 3.1.1

>  <MASTER>  (206) 
        0    0    0    0    0    0    0    0   56    0   56    0

>  <minimizedAffinity>  (206) 
-6.47691

>  <CNNscore>  (206) 
0.8518208265

>  <CNNaffinity>  (206) 
4.5848731995

>  <CNN_VS>  (206) 
3.9054903984

>  <CNNaffinity_variance>  (206) 
0.1390931308

$$$$
207
     RDKit          3D

 43 45  0  0  0  0  0  0  0  0999 V2000
   21.2772   72.5897   -4.6908 P   0  0  2  0  0  0  0  0  0  0  0  0
   21.5756   74.1702   -4.8692 O   0  0  0  0  0  0  0  0  0  0  0  0
   21.8555   71.7110   -5.7610 O   0  0  0  0  0  0  0  0  0  0  0  0
   19.6707   72.5153   -4.5126 O   0  0  0  0  0  0  0  0  0  0  0  0
   19.1295   71.5136   -3.6711 C   0  0  0  0  0  0  0  0  0  0  0  0
   17.3202   71.8330   -5.2209 O   0  0  0  0  0  0  0  0  0  0  0  0
   15.6437   70.2521   -3.3022 O   0  0  0  0  0  0  0  0  0  0  0  0
   16.2448   68.4128   -5.2236 O   0  0  0  0  0  0  0  0  0  0  0  0
   17.0205   70.0909   -3.6442 C   0  0  1  0  0  0  0  0  0  0  0  0
   17.1499   69.4782   -5.0226 C   0  0  2  0  0  0  0  0  0  0  0  0
   17.6177   71.4757   -3.8538 C   0  0  1  0  0  0  0  0  0  0  0  0
   16.8635   70.6668   -5.9243 C   0  0  2  0  0  0  0  0  0  0  0  0
   15.2405   69.3804   -3.1634 H   0  0  0  0  0  0  0  0  0  0  0  0
   16.4693   67.6810   -4.6269 H   0  0  0  0  0  0  0  0  0  0  0  0
   15.5958   70.7513   -8.4467 O   0  0  0  0  0  0  0  0  0  0  0  0
   19.6053   70.3245  -10.6796 O   0  0  0  0  0  0  0  0  0  0  0  0
   17.5521   70.5799   -7.1809 N   0  0  0  0  0  0  0  0  0  0  0  0
   17.5939   70.5376   -9.5564 N   0  0  0  0  0  0  0  0  0  0  0  0
   16.8213   70.6322   -8.3914 C   0  0  0  0  0  0  0  0  0  0  0  0
   18.9350   70.4462   -7.2062 C   0  0  0  0  0  0  0  0  0  0  0  0
   19.6576   70.3574   -8.3245 C   0  0  0  0  0  0  0  0  0  0  0  0
   18.9708   70.4030   -9.6320 C   0  0  0  0  0  0  0  0  0  0  0  0
   17.1071   70.5696  -10.4115 H   0  0  0  0  0  0  0  0  0  0  0  0
   21.8227   72.2833   -3.2004 O   0  0  0  0  0  0  0  0  0  0  0  0
   23.3288   72.1768   -2.6224 P   0  0  2  0  0  0  0  0  0  0  0  0
   23.9677   73.6187   -2.9869 O   0  0  0  0  0  0  0  0  0  0  0  0
   24.1078   71.0050   -3.1459 O   0  0  0  0  0  0  0  0  0  0  0  0
   23.1545   72.2023   -1.0188 O   0  0  0  0  0  0  0  0  0  0  0  0
   24.0068   70.6668    0.5702 O   0  0  0  0  0  0  0  0  0  0  0  0
   20.5710   71.9934    2.4420 O   0  0  0  0  0  0  0  0  0  0  0  0
   20.5623   71.3932   -0.4170 O   0  0  0  0  0  0  0  0  0  0  0  0
   23.1723   72.9526    3.3162 O   0  0  0  0  0  0  0  0  0  0  0  0
   21.7174   72.0958    1.5975 C   0  0  2  0  0  0  0  0  0  0  0  0
   21.6202   71.0621    0.4751 C   0  0  2  0  0  0  0  0  0  0  0  0
   22.9597   71.8372    2.4530 C   0  0  1  0  0  0  0  0  0  0  0  0
   22.9293   70.9841   -0.3117 C   0  0  1  0  0  0  0  0  0  0  0  0
   24.2021   71.6463    1.5878 C   0  0  1  0  0  0  0  0  0  0  0  0
   19.7692   72.1540    1.9199 H   0  0  0  0  0  0  0  0  0  0  0  0
   19.7286   71.4447    0.0756 H   0  0  0  0  0  0  0  0  0  0  0  0
   22.3887   73.0851    3.8723 H   0  0  0  0  0  0  0  0  0  0  0  0
   25.0010   69.8466    2.8623 O   0  0  0  0  0  0  0  0  0  0  0  0
   26.3932   71.6329    2.5979 O   0  0  0  0  0  0  0  0  0  0  0  0
   25.3254   71.0761    2.3911 C   0  0  0  0  0  0  0  0  0  0  0  0
  1  4  1  0
  1 24  1  0
  1  2  1  6
  1  3  2  0
 25 28  1  0
 25 24  1  0
 25 26  1  6
 25 27  2  0
  6 11  1  0
  6 12  1  0
 29 36  1  0
 29 37  1  0
  9  7  1  6
  7 13  1  0
 10  8  1  1
  8 14  1  0
  4  5  1  0
 36 28  1  1
 33 30  1  1
 30 38  1  0
 34 31  1  6
 31 39  1  0
 35 32  1  1
 32 40  1  0
 41 43  1  0
 15 19  2  0
 42 43  2  0
 16 22  2  0
 12 17  1  6
 17 19  1  0
 17 20  1  0
 18 19  1  0
 18 22  1  0
 18 23  1  0
  9 10  1  0
  9 11  1  0
 10 12  1  0
 11  5  1  6
 33 34  1  0
 33 35  1  0
 34 36  1  0
 35 37  1  0
 37 43  1  1
 20 21  2  0
 21 22  1  0
M  CHG  3   2  -1  26  -1  41  -1
M  END
>  <COMPND>  (207) 
    udp_gluA.pdb 

>  <AUTHOR>  (207) 
    GENERATED BY OPEN BABEL 3.1.1

>  <MASTER>  (207) 
        0    0    0    0    0    0    0    0   56    0   56    0

>  <minimizedAffinity>  (207) 
-8.40702

>  <CNNscore>  (207) 
0.8407618403

>  <CNNaffinity>  (207) 
4.6984586716

>  <CNN_VS>  (207) 
3.9502847195

>  <CNNaffinity_variance>  (207) 
0.0362138227

$$$$
208
     RDKit          3D

 43 45  0  0  0  0  0  0  0  0999 V2000
   20.2744   73.2912   -3.8641 P   0  0  2  0  0  0  0  0  0  0  0  0
   19.6879   73.3689   -2.3578 O   0  0  0  0  0  0  0  0  0  0  0  0
   19.9997   74.4971   -4.7139 O   0  0  0  0  0  0  0  0  0  0  0  0
   19.7039   71.8873   -4.4312 O   0  0  0  0  0  0  0  0  0  0  0  0
   19.0540   71.0086   -3.5312 C   0  0  0  0  0  0  0  0  0  0  0  0
   17.3023   71.6297   -5.0555 O   0  0  0  0  0  0  0  0  0  0  0  0
   15.4639   70.0416   -3.2978 O   0  0  0  0  0  0  0  0  0  0  0  0
   15.9232   68.3358   -5.3752 O   0  0  0  0  0  0  0  0  0  0  0  0
   16.8252   69.7872   -3.6455 C   0  0  1  0  0  0  0  0  0  0  0  0
   16.9177   69.2919   -5.0732 C   0  0  2  0  0  0  0  0  0  0  0  0
   17.5476   71.1252   -3.7249 C   0  0  1  0  0  0  0  0  0  0  0  0
   16.7520   70.5781   -5.8646 C   0  0  2  0  0  0  0  0  0  0  0  0
   14.9819   69.2012   -3.2411 H   0  0  0  0  0  0  0  0  0  0  0  0
   16.0726   67.5358   -4.8464 H   0  0  0  0  0  0  0  0  0  0  0  0
   15.4912   70.6897   -8.3893 O   0  0  0  0  0  0  0  0  0  0  0  0
   19.5190   70.4336  -10.6154 O   0  0  0  0  0  0  0  0  0  0  0  0
   17.4472   70.5424   -7.1201 N   0  0  0  0  0  0  0  0  0  0  0  0
   17.4984   70.5610   -9.4956 N   0  0  0  0  0  0  0  0  0  0  0  0
   16.7193   70.6043   -8.3319 C   0  0  0  0  0  0  0  0  0  0  0  0
   18.8334   70.4490   -7.1429 C   0  0  0  0  0  0  0  0  0  0  0  0
   19.5622   70.4089   -8.2601 C   0  0  0  0  0  0  0  0  0  0  0  0
   18.8788   70.4677   -9.5689 C   0  0  0  0  0  0  0  0  0  0  0  0
   17.0138   70.6006  -10.3518 H   0  0  0  0  0  0  0  0  0  0  0  0
   21.8422   72.9773   -3.6273 O   0  0  0  0  0  0  0  0  0  0  0  0
   23.0925   72.9834   -4.6522 P   0  0  2  0  0  0  0  0  0  0  0  0
   22.5628   72.0809   -5.8872 O   0  0  0  0  0  0  0  0  0  0  0  0
   24.3843   72.5110   -4.0505 O   0  0  0  0  0  0  0  0  0  0  0  0
   23.1361   74.4867   -5.2357 O   0  0  0  0  0  0  0  0  0  0  0  0
   25.0013   75.9205   -5.5084 O   0  0  0  0  0  0  0  0  0  0  0  0
   21.9547   78.6255   -4.8231 O   0  0  0  0  0  0  0  0  0  0  0  0
   22.1296   76.1645   -3.2587 O   0  0  0  0  0  0  0  0  0  0  0  0
   22.9947   78.2493   -7.5115 O   0  0  0  0  0  0  0  0  0  0  0  0
   22.5378   77.4124   -5.2989 C   0  0  2  0  0  0  0  0  0  0  0  0
   23.1497   76.6446   -4.1269 C   0  0  2  0  0  0  0  0  0  0  0  0
   23.6186   77.7757   -6.3195 C   0  0  1  0  0  0  0  0  0  0  0  0
   23.9799   75.4599   -4.6229 C   0  0  1  0  0  0  0  0  0  0  0  0
   24.4837   76.5681   -6.6685 C   0  0  1  0  0  0  0  0  0  0  0  0
   21.2647   78.4195   -4.1728 H   0  0  0  0  0  0  0  0  0  0  0  0
   21.5987   76.9109   -2.9405 H   0  0  0  0  0  0  0  0  0  0  0  0
   22.4409   79.0179   -7.3032 H   0  0  0  0  0  0  0  0  0  0  0  0
   26.5350   75.9314   -7.6111 O   0  0  0  0  0  0  0  0  0  0  0  0
   25.9654   78.1348   -7.7509 O   0  0  0  0  0  0  0  0  0  0  0  0
   25.7185   76.9923   -7.3949 C   0  0  0  0  0  0  0  0  0  0  0  0
  1  4  1  0
  1 24  1  0
  1  2  1  1
  1  3  2  0
 25 28  1  0
 25 24  1  0
 25 26  1  6
 25 27  2  0
  6 11  1  0
  6 12  1  0
 29 36  1  0
 29 37  1  0
  9  7  1  6
  7 13  1  0
 10  8  1  6
  8 14  1  0
  4  5  1  0
 36 28  1  6
 33 30  1  1
 30 38  1  0
 34 31  1  1
 31 39  1  0
 35 32  1  6
 32 40  1  0
 41 43  1  0
 15 19  2  0
 42 43  2  0
 16 22  2  0
 12 17  1  6
 17 19  1  0
 17 20  1  0
 18 19  1  0
 18 22  1  0
 18 23  1  0
  9 10  1  0
  9 11  1  0
 10 12  1  0
 11  5  1  6
 33 34  1  0
 33 35  1  0
 34 36  1  0
 35 37  1  0
 37 43  1  6
 20 21  2  0
 21 22  1  0
M  CHG  3   2  -1  26  -1  41  -1
M  END
>  <COMPND>  (208) 
    udp_gluA.pdb 

>  <AUTHOR>  (208) 
    GENERATED BY OPEN BABEL 3.1.1

>  <MASTER>  (208) 
        0    0    0    0    0    0    0    0   56    0   56    0

>  <minimizedAffinity>  (208) 
-6.75562

>  <CNNscore>  (208) 
0.8360604644

>  <CNNaffinity>  (208) 
4.5981326103

>  <CNN_VS>  (208) 
3.8443169594

>  <CNNaffinity_variance>  (208) 
0.1723679006

$$$$
209
     RDKit          3D

 43 45  0  0  0  0  0  0  0  0999 V2000
   20.9843   73.5055   -2.0833 P   0  0  2  0  0  0  0  0  0  0  0  0
   20.0095   74.6433   -2.6950 O   0  0  0  0  0  0  0  0  0  0  0  0
   22.4037   73.5603   -2.5672 O   0  0  0  0  0  0  0  0  0  0  0  0
   20.1963   72.1223   -2.3725 O   0  0  0  0  0  0  0  0  0  0  0  0
   19.7373   71.8677   -3.6874 C   0  0  0  0  0  0  0  0  0  0  0  0
   17.7351   72.0885   -4.9990 O   0  0  0  0  0  0  0  0  0  0  0  0
   16.3724   70.5093   -2.8448 O   0  0  0  0  0  0  0  0  0  0  0  0
   16.7860   68.6378   -4.7846 O   0  0  0  0  0  0  0  0  0  0  0  0
   17.6990   70.3816   -3.3570 C   0  0  1  0  0  0  0  0  0  0  0  0
   17.6723   69.7359   -4.7262 C   0  0  2  0  0  0  0  0  0  0  0  0
   18.2168   71.7781   -3.6735 C   0  0  1  0  0  0  0  0  0  0  0  0
   17.2326   70.8900   -5.6107 C   0  0  2  0  0  0  0  0  0  0  0  0
   16.0203   69.6296   -2.6353 H   0  0  0  0  0  0  0  0  0  0  0  0
   17.1098   67.9298   -4.2050 H   0  0  0  0  0  0  0  0  0  0  0  0
   15.6846   70.2841   -7.8939 O   0  0  0  0  0  0  0  0  0  0  0  0
   19.3535   70.5332  -10.6726 O   0  0  0  0  0  0  0  0  0  0  0  0
   17.7578   70.7902   -6.9431 N   0  0  0  0  0  0  0  0  0  0  0  0
   17.5136   70.4077   -9.2755 N   0  0  0  0  0  0  0  0  0  0  0  0
   16.8946   70.4805   -8.0207 C   0  0  0  0  0  0  0  0  0  0  0  0
   19.1122   70.9996   -7.1722 C   0  0  0  0  0  0  0  0  0  0  0  0
   19.6877   70.9270   -8.3740 C   0  0  0  0  0  0  0  0  0  0  0  0
   18.8562   70.6073   -9.5530 C   0  0  0  0  0  0  0  0  0  0  0  0
   16.9333   70.1915  -10.0409 H   0  0  0  0  0  0  0  0  0  0  0  0
   20.8090   73.6969   -0.4879 O   0  0  0  0  0  0  0  0  0  0  0  0
   20.9271   75.0138    0.4425 P   0  0  2  0  0  0  0  0  0  0  0  0
   19.3889   75.4913    0.6047 O   0  0  0  0  0  0  0  0  0  0  0  0
   21.8484   76.0689   -0.0978 O   0  0  0  0  0  0  0  0  0  0  0  0
   21.3344   74.4511    1.8985 O   0  0  0  0  0  0  0  0  0  0  0  0
   23.6270   73.8662    2.0043 O   0  0  0  0  0  0  0  0  0  0  0  0
   22.2585   72.5714    5.6811 O   0  0  0  0  0  0  0  0  0  0  0  0
   20.6725   72.1231    3.2689 O   0  0  0  0  0  0  0  0  0  0  0  0
   23.8215   75.0145    5.4836 O   0  0  0  0  0  0  0  0  0  0  0  0
   22.2983   73.4113    4.5274 C   0  0  2  0  0  0  0  0  0  0  0  0
   22.0212   72.5765    3.2768 C   0  0  2  0  0  0  0  0  0  0  0  0
   23.6906   74.0414    4.4490 C   0  0  1  0  0  0  0  0  0  0  0  0
   22.2808   73.3894    2.0078 C   0  0  1  0  0  0  0  0  0  0  0  0
   23.9174   74.7258    3.1041 C   0  0  1  0  0  0  0  0  0  0  0  0
   21.3827   72.1598    5.7516 H   0  0  0  0  0  0  0  0  0  0  0  0
   20.5008   71.6067    4.0716 H   0  0  0  0  0  0  0  0  0  0  0  0
   23.6792   74.5918    6.3450 H   0  0  0  0  0  0  0  0  0  0  0  0
   25.7331   74.8221    1.6224 O   0  0  0  0  0  0  0  0  0  0  0  0
   26.1170   75.4512    3.7801 O   0  0  0  0  0  0  0  0  0  0  0  0
   25.3640   75.0442    2.9082 C   0  0  0  0  0  0  0  0  0  0  0  0
  1  4  1  0
  1 24  1  0
  1  2  1  6
  1  3  2  0
 25 28  1  0
 25 24  1  0
 25 26  1  1
 25 27  2  0
  6 11  1  0
  6 12  1  0
 29 36  1  0
 29 37  1  0
  9  7  1  6
  7 13  1  0
 10  8  1  1
  8 14  1  0
  4  5  1  0
 36 28  1  1
 33 30  1  1
 30 38  1  0
 34 31  1  1
 31 39  1  0
 35 32  1  1
 32 40  1  0
 41 43  1  0
 15 19  2  0
 42 43  2  0
 16 22  2  0
 12 17  1  6
 17 19  1  0
 17 20  1  0
 18 19  1  0
 18 22  1  0
 18 23  1  0
  9 10  1  0
  9 11  1  0
 10 12  1  0
 11  5  1  6
 33 34  1  0
 33 35  1  0
 34 36  1  0
 35 37  1  0
 37 43  1  6
 20 21  2  0
 21 22  1  0
M  CHG  3   2  -1  26  -1  41  -1
M  END
>  <COMPND>  (209) 
    udp_gluA.pdb 

>  <AUTHOR>  (209) 
    GENERATED BY OPEN BABEL 3.1.1

>  <MASTER>  (209) 
        0    0    0    0    0    0    0    0   56    0   56    0

>  <minimizedAffinity>  (209) 
-6.56332

>  <CNNscore>  (209) 
0.7086123824

>  <CNNaffinity>  (209) 
4.3130083084

>  <CNN_VS>  (209) 
3.0562510490

>  <CNNaffinity_variance>  (209) 
0.0965992436

$$$$
210
     RDKit          3D

 43 45  0  0  0  0  0  0  0  0999 V2000
   21.9149   72.5075   -5.8900 P   0  0  2  0  0  0  0  0  0  0  0  0
   21.2097   73.8637   -5.3586 O   0  0  0  0  0  0  0  0  0  0  0  0
   23.0513   72.7175   -6.8472 O   0  0  0  0  0  0  0  0  0  0  0  0
   20.6814   71.6210   -6.4474 O   0  0  0  0  0  0  0  0  0  0  0  0
   20.1077   71.9690   -7.6940 C   0  0  0  0  0  0  0  0  0  0  0  0
   18.9216   69.9338   -7.2156 O   0  0  0  0  0  0  0  0  0  0  0  0
   18.0604   69.9795  -10.0875 O   0  0  0  0  0  0  0  0  0  0  0  0
   15.8577   70.9282   -8.7898 O   0  0  0  0  0  0  0  0  0  0  0  0
   18.2529   71.0685   -9.1844 C   0  0  1  0  0  0  0  0  0  0  0  0
   17.1180   71.1266   -8.1840 C   0  0  2  0  0  0  0  0  0  0  0  0
   19.4441   70.7371   -8.2960 C   0  0  1  0  0  0  0  0  0  0  0  0
   17.4872   70.0094   -7.2230 C   0  0  2  0  0  0  0  0  0  0  0  0
   17.3044   70.1683  -10.6658 H   0  0  0  0  0  0  0  0  0  0  0  0
   15.6687   71.6656   -9.3918 H   0  0  0  0  0  0  0  0  0  0  0  0
   16.2265   68.0870   -5.5824 O   0  0  0  0  0  0  0  0  0  0  0  0
   15.7592   71.0863   -2.1140 O   0  0  0  0  0  0  0  0  0  0  0  0
   17.0261   70.2611   -5.8870 N   0  0  0  0  0  0  0  0  0  0  0  0
   15.9941   69.5830   -3.8569 N   0  0  0  0  0  0  0  0  0  0  0  0
   16.4054   69.2264   -5.1479 C   0  0  0  0  0  0  0  0  0  0  0  0
   17.1916   71.5196   -5.3217 C   0  0  0  0  0  0  0  0  0  0  0  0
   16.7944   71.8445   -4.0898 C   0  0  0  0  0  0  0  0  0  0  0  0
   16.1362   70.8211   -3.2514 C   0  0  0  0  0  0  0  0  0  0  0  0
   15.5575   68.8798   -3.3238 H   0  0  0  0  0  0  0  0  0  0  0  0
   22.3188   71.7482   -4.5214 O   0  0  0  0  0  0  0  0  0  0  0  0
   23.5011   72.0362   -3.4570 P   0  0  2  0  0  0  0  0  0  0  0  0
   24.4655   73.0695   -4.2460 O   0  0  0  0  0  0  0  0  0  0  0  0
   24.1944   70.8017   -2.9577 O   0  0  0  0  0  0  0  0  0  0  0  0
   22.8066   72.9264   -2.3048 O   0  0  0  0  0  0  0  0  0  0  0  0
   21.6629   71.6604   -0.6621 O   0  0  0  0  0  0  0  0  0  0  0  0
   20.5037   75.5107    0.2862 O   0  0  0  0  0  0  0  0  0  0  0  0
   20.6296   74.6463   -2.5015 O   0  0  0  0  0  0  0  0  0  0  0  0
   22.4877   74.1420    1.9115 O   0  0  0  0  0  0  0  0  0  0  0  0
   21.3835   74.4971   -0.2003 C   0  0  2  0  0  0  0  0  0  0  0  0
   20.7309   73.7763   -1.3801 C   0  0  2  0  0  0  0  0  0  0  0  0
   21.6504   73.5145    0.9421 C   0  0  1  0  0  0  0  0  0  0  0  0
   21.5377   72.5402   -1.7801 C   0  0  1  0  0  0  0  0  0  0  0  0
   22.3463   72.2525    0.4403 C   0  0  1  0  0  0  0  0  0  0  0  0
   20.3197   76.1469   -0.4228 H   0  0  0  0  0  0  0  0  0  0  0  0
   20.1191   75.4330   -2.2548 H   0  0  0  0  0  0  0  0  0  0  0  0
   22.0564   74.9467    2.2388 H   0  0  0  0  0  0  0  0  0  0  0  0
   21.5159   70.1520    1.0725 O   0  0  0  0  0  0  0  0  0  0  0  0
   22.9029   71.2076    2.5426 O   0  0  0  0  0  0  0  0  0  0  0  0
   22.3065   71.1770    1.4766 C   0  0  0  0  0  0  0  0  0  0  0  0
  1  4  1  0
  1 24  1  0
  1  2  1  1
  1  3  2  0
 25 28  1  0
 25 24  1  0
 25 26  1  6
 25 27  2  0
  6 11  1  0
  6 12  1  0
 29 36  1  0
 29 37  1  0
  9  7  1  6
  7 13  1  0
 10  8  1  6
  8 14  1  0
  4  5  1  0
 36 28  1  1
 33 30  1  1
 30 38  1  0
 34 31  1  6
 31 39  1  0
 35 32  1  1
 32 40  1  0
 41 43  1  0
 15 19  2  0
 42 43  2  0
 16 22  2  0
 12 17  1  1
 17 19  1  0
 17 20  1  0
 18 19  1  0
 18 22  1  0
 18 23  1  0
  9 10  1  0
  9 11  1  0
 10 12  1  0
 11  5  1  1
 33 34  1  0
 33 35  1  0
 34 36  1  0
 35 37  1  0
 37 43  1  1
 20 21  2  0
 21 22  1  0
M  CHG  3   2  -1  26  -1  41  -1
M  END
>  <COMPND>  (210) 
    udp_gluA.pdb 

>  <AUTHOR>  (210) 
    GENERATED BY OPEN BABEL 3.1.1

>  <MASTER>  (210) 
        0    0    0    0    0    0    0    0   56    0   56    0

>  <minimizedAffinity>  (210) 
-8.46629

>  <CNNscore>  (210) 
0.6662896276

>  <CNNaffinity>  (210) 
4.4676904678

>  <CNN_VS>  (210) 
2.9767758846

>  <CNNaffinity_variance>  (210) 
0.3828853965

$$$$
211
     RDKit          3D

 43 45  0  0  0  0  0  0  0  0999 V2000
   22.5906   73.0883   -1.6118 P   0  0  2  0  0  0  0  0  0  0  0  0
   21.0369   73.3753   -1.2618 O   0  0  0  0  0  0  0  0  0  0  0  0
   23.5440   74.1700   -1.1961 O   0  0  0  0  0  0  0  0  0  0  0  0
   22.5743   72.7346   -3.1906 O   0  0  0  0  0  0  0  0  0  0  0  0
   21.7503   73.5037   -4.0473 C   0  0  0  0  0  0  0  0  0  0  0  0
   21.2812   71.4826   -5.2608 O   0  0  0  0  0  0  0  0  0  0  0  0
   21.1322   73.2075   -7.7090 O   0  0  0  0  0  0  0  0  0  0  0  0
   18.5042   72.8078   -7.1009 O   0  0  0  0  0  0  0  0  0  0  0  0
   20.7195   73.4970   -6.3732 C   0  0  1  0  0  0  0  0  0  0  0  0
   19.4421   72.7529   -6.0464 C   0  0  2  0  0  0  0  0  0  0  0  0
   21.7173   72.8497   -5.4226 C   0  0  1  0  0  0  0  0  0  0  0  0
   19.9534   71.3453   -5.7912 C   0  0  2  0  0  0  0  0  0  0  0  0
   20.5097   73.6109   -8.3347 H   0  0  0  0  0  0  0  0  0  0  0  0
   18.2091   73.7242   -7.2237 H   0  0  0  0  0  0  0  0  0  0  0  0
   17.5926   69.9419   -6.4498 O   0  0  0  0  0  0  0  0  0  0  0  0
   16.9279   68.6425   -2.0779 O   0  0  0  0  0  0  0  0  0  0  0  0
   19.1439   70.6315   -4.8446 N   0  0  0  0  0  0  0  0  0  0  0  0
   17.2633   69.2969   -4.2716 N   0  0  0  0  0  0  0  0  0  0  0  0
   17.9769   69.9595   -5.2789 C   0  0  0  0  0  0  0  0  0  0  0  0
   19.5088   70.6003   -3.5042 C   0  0  0  0  0  0  0  0  0  0  0  0
   18.8185   69.9644   -2.5556 C   0  0  0  0  0  0  0  0  0  0  0  0
   17.5860   69.2382   -2.9255 C   0  0  0  0  0  0  0  0  0  0  0  0
   16.4459   68.8236   -4.5494 H   0  0  0  0  0  0  0  0  0  0  0  0
   22.8590   71.6520   -0.9204 O   0  0  0  0  0  0  0  0  0  0  0  0
   22.4243   71.0718    0.5246 P   0  0  2  0  0  0  0  0  0  0  0  0
   23.6874   70.1529    0.9494 O   0  0  0  0  0  0  0  0  0  0  0  0
   21.1068   70.3519    0.5281 O   0  0  0  0  0  0  0  0  0  0  0  0
   22.4949   72.3437    1.5144 O   0  0  0  0  0  0  0  0  0  0  0  0
   24.0374   72.5987    3.2934 O   0  0  0  0  0  0  0  0  0  0  0  0
   20.9193   75.0092    4.5323 O   0  0  0  0  0  0  0  0  0  0  0  0
   20.3868   72.4015    3.3280 O   0  0  0  0  0  0  0  0  0  0  0  0
   23.3449   76.1981    3.4579 O   0  0  0  0  0  0  0  0  0  0  0  0
   21.7777   74.3726    3.5858 C   0  0  2  0  0  0  0  0  0  0  0  0
   21.6715   72.8550    3.7385 C   0  0  2  0  0  0  0  0  0  0  0  0
   23.2101   74.8361    3.8598 C   0  0  1  0  0  0  0  0  0  0  0  0
   22.7399   72.1453    2.9056 C   0  0  1  0  0  0  0  0  0  0  0  0
   24.2244   73.9972    3.0878 C   0  0  1  0  0  0  0  0  0  0  0  0
   20.0033   74.7296    4.3776 H   0  0  0  0  0  0  0  0  0  0  0  0
   19.7040   72.8480    3.8522 H   0  0  0  0  0  0  0  0  0  0  0  0
   22.7047   76.7428    3.9419 H   0  0  0  0  0  0  0  0  0  0  0  0
   25.5701   74.7727    4.8454 O   0  0  0  0  0  0  0  0  0  0  0  0
   26.6353   73.9682    2.9968 O   0  0  0  0  0  0  0  0  0  0  0  0
   25.6073   74.2300    3.6032 C   0  0  0  0  0  0  0  0  0  0  0  0
  1  4  1  0
  1 24  1  0
  1  2  1  1
  1  3  2  0
 25 28  1  0
 25 24  1  0
 25 26  1  1
 25 27  2  0
  6 11  1  0
  6 12  1  0
 29 36  1  0
 29 37  1  0
  9  7  1  6
  7 13  1  0
 10  8  1  6
  8 14  1  0
  4  5  1  0
 36 28  1  6
 33 30  1  1
 30 38  1  0
 34 31  1  6
 31 39  1  0
 35 32  1  6
 32 40  1  0
 41 43  1  0
 15 19  2  0
 42 43  2  0
 16 22  2  0
 12 17  1  1
 17 19  1  0
 17 20  1  0
 18 19  1  0
 18 22  1  0
 18 23  1  0
  9 10  1  0
  9 11  1  0
 10 12  1  0
 11  5  1  1
 33 34  1  0
 33 35  1  0
 34 36  1  0
 35 37  1  0
 37 43  1  1
 20 21  2  0
 21 22  1  0
M  CHG  3   2  -1  26  -1  41  -1
M  END
>  <COMPND>  (211) 
    udp_gluA.pdb 

>  <AUTHOR>  (211) 
    GENERATED BY OPEN BABEL 3.1.1

>  <MASTER>  (211) 
        0    0    0    0    0    0    0    0   56    0   56    0

>  <minimizedAffinity>  (211) 
-6.69840

>  <CNNscore>  (211) 
0.6589967012

>  <CNNaffinity>  (211) 
4.2218713760

>  <CNN_VS>  (211) 
2.7821993828

>  <CNNaffinity_variance>  (211) 
0.0672531947

$$$$
212
     RDKit          3D

 43 45  0  0  0  0  0  0  0  0999 V2000
   23.3931   71.8772   -3.3824 P   0  0  2  0  0  0  0  0  0  0  0  0
   24.1469   72.8810   -4.4037 O   0  0  0  0  0  0  0  0  0  0  0  0
   24.2034   70.6924   -2.9449 O   0  0  0  0  0  0  0  0  0  0  0  0
   21.9988   71.5375   -4.1297 O   0  0  0  0  0  0  0  0  0  0  0  0
   21.5305   72.4289   -5.1250 C   0  0  0  0  0  0  0  0  0  0  0  0
   20.5299   70.4660   -6.0861 O   0  0  0  0  0  0  0  0  0  0  0  0
   20.7293   71.8819   -8.7218 O   0  0  0  0  0  0  0  0  0  0  0  0
   18.1077   72.2286   -8.0560 O   0  0  0  0  0  0  0  0  0  0  0  0
   20.4491   72.4164   -7.4279 C   0  0  1  0  0  0  0  0  0  0  0  0
   19.0389   72.0602   -7.0077 C   0  0  2  0  0  0  0  0  0  0  0  0
   21.2870   71.6517   -6.4123 C   0  0  1  0  0  0  0  0  0  0  0  0
   19.1919   70.6078   -6.5891 C   0  0  2  0  0  0  0  0  0  0  0  0
   20.2053   72.3549   -9.3878 H   0  0  0  0  0  0  0  0  0  0  0  0
   18.0462   73.1696   -8.2857 H   0  0  0  0  0  0  0  0  0  0  0  0
   16.5182   69.8284   -7.0587 O   0  0  0  0  0  0  0  0  0  0  0  0
   15.7220   69.1929   -2.5636 O   0  0  0  0  0  0  0  0  0  0  0  0
   18.2640   70.2335   -5.5597 N   0  0  0  0  0  0  0  0  0  0  0  0
   16.1239   69.5136   -4.8193 N   0  0  0  0  0  0  0  0  0  0  0  0
   16.9434   69.8583   -5.9023 C   0  0  0  0  0  0  0  0  0  0  0  0
   18.6648   70.2387   -4.2292 C   0  0  0  0  0  0  0  0  0  0  0  0
   17.8724   69.9074   -3.2079 C   0  0  0  0  0  0  0  0  0  0  0  0
   16.4771   69.5041   -3.4797 C   0  0  0  0  0  0  0  0  0  0  0  0
   15.1994   69.2508   -5.0328 H   0  0  0  0  0  0  0  0  0  0  0  0
   22.9328   72.8582   -2.1829 O   0  0  0  0  0  0  0  0  0  0  0  0
   21.9827   72.5948   -0.9017 P   0  0  2  0  0  0  0  0  0  0  0  0
   21.6645   71.0105   -0.9966 O   0  0  0  0  0  0  0  0  0  0  0  0
   20.7629   73.4685   -0.8496 O   0  0  0  0  0  0  0  0  0  0  0  0
   22.9634   72.7376    0.3713 O   0  0  0  0  0  0  0  0  0  0  0  0
   24.5120   71.5221    1.6879 O   0  0  0  0  0  0  0  0  0  0  0  0
   21.8454   72.8587    4.5463 O   0  0  0  0  0  0  0  0  0  0  0  0
   20.8818   71.8404    1.9832 O   0  0  0  0  0  0  0  0  0  0  0  0
   24.4481   74.1244    4.2736 O   0  0  0  0  0  0  0  0  0  0  0  0
   22.5891   72.9174    3.3291 C   0  0  2  0  0  0  0  0  0  0  0  0
   22.2220   71.7238    2.4470 C   0  0  2  0  0  0  0  0  0  0  0  0
   24.0776   72.8804    3.6823 C   0  0  1  0  0  0  0  0  0  0  0  0
   23.1591   71.6251    1.2424 C   0  0  1  0  0  0  0  0  0  0  0  0
   24.9387   72.6538    2.4430 C   0  0  1  0  0  0  0  0  0  0  0  0
   20.8961   72.8808    4.3468 H   0  0  0  0  0  0  0  0  0  0  0  0
   20.2818   71.9037    2.7424 H   0  0  0  0  0  0  0  0  0  0  0  0
   23.9073   74.2808    5.0635 H   0  0  0  0  0  0  0  0  0  0  0  0
   26.6354   71.0344    2.4201 O   0  0  0  0  0  0  0  0  0  0  0  0
   27.1116   73.0257    3.4237 O   0  0  0  0  0  0  0  0  0  0  0  0
   26.3367   72.2930    2.8272 C   0  0  0  0  0  0  0  0  0  0  0  0
  1  4  1  0
  1 24  1  0
  1  2  1  6
  1  3  2  0
 25 28  1  0
 25 24  1  0
 25 26  1  6
 25 27  2  0
  6 11  1  0
  6 12  1  0
 29 36  1  0
 29 37  1  0
  9  7  1  6
  7 13  1  0
 10  8  1  6
  8 14  1  0
  4  5  1  0
 36 28  1  6
 33 30  1  1
 30 38  1  0
 34 31  1  6
 31 39  1  0
 35 32  1  6
 32 40  1  0
 41 43  1  0
 15 19  2  0
 42 43  2  0
 16 22  2  0
 12 17  1  1
 17 19  1  0
 17 20  1  0
 18 19  1  0
 18 22  1  0
 18 23  1  0
  9 10  1  0
  9 11  1  0
 10 12  1  0
 11  5  1  1
 33 34  1  0
 33 35  1  0
 34 36  1  0
 35 37  1  0
 37 43  1  1
 20 21  2  0
 21 22  1  0
M  CHG  3   2  -1  26  -1  41  -1
M  END
>  <COMPND>  (212) 
    udp_gluA.pdb 

>  <AUTHOR>  (212) 
    GENERATED BY OPEN BABEL 3.1.1

>  <MASTER>  (212) 
        0    0    0    0    0    0    0    0   56    0   56    0

>  <minimizedAffinity>  (212) 
-8.01877

>  <CNNscore>  (212) 
0.6456838250

>  <CNNaffinity>  (212) 
4.4106111526

>  <CNN_VS>  (212) 
2.8478603363

>  <CNNaffinity_variance>  (212) 
0.0898967013

$$$$
213
     RDKit          3D

 43 45  0  0  0  0  0  0  0  0999 V2000
   23.1145   73.3678   -4.5962 P   0  0  2  0  0  0  0  0  0  0  0  0
   24.2224   72.2821   -4.1349 O   0  0  0  0  0  0  0  0  0  0  0  0
   23.6650   74.7079   -4.9871 O   0  0  0  0  0  0  0  0  0  0  0  0
   22.0470   73.3743   -3.3803 O   0  0  0  0  0  0  0  0  0  0  0  0
   22.5290   73.2313   -2.0567 C   0  0  0  0  0  0  0  0  0  0  0  0
   23.2978   71.3268   -0.8079 O   0  0  0  0  0  0  0  0  0  0  0  0
   20.4120   70.5444   -0.5810 O   0  0  0  0  0  0  0  0  0  0  0  0
   20.9196   71.6621    1.8540 O   0  0  0  0  0  0  0  0  0  0  0  0
   20.9991   71.8459   -0.5692 C   0  0  1  0  0  0  0  0  0  0  0  0
   21.6911   72.0968    0.7538 C   0  0  2  0  0  0  0  0  0  0  0  0
   22.1681   71.8427   -1.5447 C   0  0  1  0  0  0  0  0  0  0  0  0
   22.9773   71.3048    0.5922 C   0  0  2  0  0  0  0  0  0  0  0  0
   19.6625   70.5219    0.0349 H   0  0  0  0  0  0  0  0  0  0  0  0
   20.1121   72.1971    1.9142 H   0  0  0  0  0  0  0  0  0  0  0  0
   24.8383   69.8081    2.0999 O   0  0  0  0  0  0  0  0  0  0  0  0
   27.1237   73.5994    3.3831 O   0  0  0  0  0  0  0  0  0  0  0  0
   24.0686   71.8753    1.3300 N   0  0  0  0  0  0  0  0  0  0  0  0
   25.9742   71.6979    2.7384 N   0  0  0  0  0  0  0  0  0  0  0  0
   24.9463   71.0350    2.0549 C   0  0  0  0  0  0  0  0  0  0  0  0
   24.2618   73.2514    1.3296 C   0  0  0  0  0  0  0  0  0  0  0  0
   25.2462   73.8688    1.9858 C   0  0  0  0  0  0  0  0  0  0  0  0
   26.2066   73.0634    2.7685 C   0  0  0  0  0  0  0  0  0  0  0  0
   26.5968   71.1340    3.2519 H   0  0  0  0  0  0  0  0  0  0  0  0
   22.3194   72.5970   -5.7737 O   0  0  0  0  0  0  0  0  0  0  0  0
   21.2880   73.1437   -6.8922 P   0  0  2  0  0  0  0  0  0  0  0  0
   21.8738   72.5259   -8.2689 O   0  0  0  0  0  0  0  0  0  0  0  0
   21.1263   74.6362   -6.9037 O   0  0  0  0  0  0  0  0  0  0  0  0
   19.9239   72.3246   -6.6263 O   0  0  0  0  0  0  0  0  0  0  0  0
   19.4991   70.1914   -5.6892 O   0  0  0  0  0  0  0  0  0  0  0  0
   16.6094   70.4066   -8.6340 O   0  0  0  0  0  0  0  0  0  0  0  0
   19.3290   71.3363   -9.1572 O   0  0  0  0  0  0  0  0  0  0  0  0
   15.8804   70.7771   -5.8443 O   0  0  0  0  0  0  0  0  0  0  0  0
   17.4895   70.9162   -7.6321 C   0  0  2  0  0  0  0  0  0  0  0  0
   18.9356   70.5934   -8.0091 C   0  0  2  0  0  0  0  0  0  0  0  0
   17.1258   70.2534   -6.3016 C   0  0  1  0  0  0  0  0  0  0  0  0
   19.8869   70.9173   -6.8563 C   0  0  1  0  0  0  0  0  0  0  0  0
   18.1870   70.5199   -5.2380 C   0  0  1  0  0  0  0  0  0  0  0  0
   16.8218   70.8137   -9.4886 H   0  0  0  0  0  0  0  0  0  0  0  0
   18.7295   71.1359   -9.8925 H   0  0  0  0  0  0  0  0  0  0  0  0
   15.1962   70.6142   -6.5123 H   0  0  0  0  0  0  0  0  0  0  0  0
   18.9519   69.8455   -3.1257 O   0  0  0  0  0  0  0  0  0  0  0  0
   17.1127   68.7823   -3.9541 O   0  0  0  0  0  0  0  0  0  0  0  0
   17.9999   69.6154   -4.0636 C   0  0  0  0  0  0  0  0  0  0  0  0
  1  4  1  0
  1 24  1  0
  1  2  1  1
  1  3  2  0
 25 28  1  0
 25 24  1  0
 25 26  1  6
 25 27  2  0
  6 11  1  0
  6 12  1  0
 29 36  1  0
 29 37  1  0
  9  7  1  1
  7 13  1  0
 10  8  1  1
  8 14  1  0
  4  5  1  0
 36 28  1  1
 33 30  1  6
 30 38  1  0
 34 31  1  6
 31 39  1  0
 35 32  1  1
 32 40  1  0
 41 43  1  0
 15 19  2  0
 42 43  2  0
 16 22  2  0
 12 17  1  1
 17 19  1  0
 17 20  1  0
 18 19  1  0
 18 22  1  0
 18 23  1  0
  9 10  1  0
  9 11  1  0
 10 12  1  0
 11  5  1  1
 33 34  1  0
 33 35  1  0
 34 36  1  0
 35 37  1  0
 37 43  1  1
 20 21  2  0
 21 22  1  0
M  CHG  3   2  -1  26  -1  41  -1
M  END
>  <COMPND>  (213) 
    udp_gluA.pdb 

>  <AUTHOR>  (213) 
    GENERATED BY OPEN BABEL 3.1.1

>  <MASTER>  (213) 
        0    0    0    0    0    0    0    0   56    0   56    0

>  <minimizedAffinity>  (213) 
-7.94153

>  <CNNscore>  (213) 
0.6295678616

>  <CNNaffinity>  (213) 
4.5048203468

>  <CNN_VS>  (213) 
2.8360900879

>  <CNNaffinity_variance>  (213) 
0.0434627794

$$$$
214
     RDKit          3D

 43 45  0  0  0  0  0  0  0  0999 V2000
   20.4726   72.9617   -1.1893 P   0  0  2  0  0  0  0  0  0  0  0  0
   18.8577   73.0417   -1.2562 O   0  0  0  0  0  0  0  0  0  0  0  0
   21.1874   74.2048   -1.6315 O   0  0  0  0  0  0  0  0  0  0  0  0
   20.8294   71.6154   -2.0127 O   0  0  0  0  0  0  0  0  0  0  0  0
   20.2146   71.4097   -3.2714 C   0  0  0  0  0  0  0  0  0  0  0  0
   20.7384   70.4806   -5.4254 O   0  0  0  0  0  0  0  0  0  0  0  0
   23.0775   72.3566   -5.4589 O   0  0  0  0  0  0  0  0  0  0  0  0
   21.2689   73.6308   -7.0531 O   0  0  0  0  0  0  0  0  0  0  0  0
   21.7666   72.5561   -4.9295 C   0  0  1  0  0  0  0  0  0  0  0  0
   20.7737   72.7650   -6.0532 C   0  0  2  0  0  0  0  0  0  0  0  0
   21.2965   71.2379   -4.3298 C   0  0  1  0  0  0  0  0  0  0  0  0
   20.5659   71.3472   -6.5579 C   0  0  2  0  0  0  0  0  0  0  0  0
   23.3992   73.1854   -5.8477 H   0  0  0  0  0  0  0  0  0  0  0  0
   21.3839   74.5204   -6.6824 H   0  0  0  0  0  0  0  0  0  0  0  0
   19.9748   69.5855   -8.6848 O   0  0  0  0  0  0  0  0  0  0  0  0
   15.4938   70.6584   -8.5697 O   0  0  0  0  0  0  0  0  0  0  0  0
   19.2532   71.1467   -7.1036 N   0  0  0  0  0  0  0  0  0  0  0  0
   17.7438   70.1223   -8.6261 N   0  0  0  0  0  0  0  0  0  0  0  0
   19.0641   70.2386   -8.1720 C   0  0  0  0  0  0  0  0  0  0  0  0
   18.1708   71.8435   -6.5803 C   0  0  0  0  0  0  0  0  0  0  0  0
   16.9180   71.7220   -7.0236 C   0  0  0  0  0  0  0  0  0  0  0  0
   16.6347   70.7943   -8.1383 C   0  0  0  0  0  0  0  0  0  0  0  0
   17.5876   69.4974   -9.3708 H   0  0  0  0  0  0  0  0  0  0  0  0
   20.7514   72.5342    0.3445 O   0  0  0  0  0  0  0  0  0  0  0  0
   21.9423   71.6616    1.0034 P   0  0  2  0  0  0  0  0  0  0  0  0
   23.2282   72.0490    0.0998 O   0  0  0  0  0  0  0  0  0  0  0  0
   21.6588   70.1891    1.0766 O   0  0  0  0  0  0  0  0  0  0  0  0
   22.2214   72.3614    2.4299 O   0  0  0  0  0  0  0  0  0  0  0  0
   21.2364   74.3121    3.3430 O   0  0  0  0  0  0  0  0  0  0  0  0
   24.9966   74.3899    5.0526 O   0  0  0  0  0  0  0  0  0  0  0  0
   24.6636   73.6786    2.2388 O   0  0  0  0  0  0  0  0  0  0  0  0
   22.6927   73.5816    6.6305 O   0  0  0  0  0  0  0  0  0  0  0  0
   23.8230   73.7826    4.5123 C   0  0  2  0  0  0  0  0  0  0  0  0
   23.6393   74.2262    3.0607 C   0  0  2  0  0  0  0  0  0  0  0  0
   22.6283   74.2258    5.3596 C   0  0  1  0  0  0  0  0  0  0  0  0
   22.2783   73.7838    2.5216 C   0  0  1  0  0  0  0  0  0  0  0  0
   21.3057   73.8584    4.6930 C   0  0  1  0  0  0  0  0  0  0  0  0
   25.7691   74.1226    4.5301 H   0  0  0  0  0  0  0  0  0  0  0  0
   25.5300   73.9551    2.5753 H   0  0  0  0  0  0  0  0  0  0  0  0
   23.5299   73.8071    7.0653 H   0  0  0  0  0  0  0  0  0  0  0  0
   19.0092   74.3353    4.6797 O   0  0  0  0  0  0  0  0  0  0  0  0
   20.2563   75.2716    6.3431 O   0  0  0  0  0  0  0  0  0  0  0  0
   20.1666   74.5718    5.3456 C   0  0  0  0  0  0  0  0  0  0  0  0
  1  4  1  0
  1 24  1  0
  1  2  1  1
  1  3  2  0
 25 28  1  0
 25 24  1  0
 25 26  1  6
 25 27  2  0
  6 11  1  0
  6 12  1  0
 29 36  1  0
 29 37  1  0
  9  7  1  6
  7 13  1  0
 10  8  1  6
  8 14  1  0
  4  5  1  0
 36 28  1  1
 33 30  1  1
 30 38  1  0
 34 31  1  6
 31 39  1  0
 35 32  1  1
 32 40  1  0
 41 43  1  0
 15 19  2  0
 42 43  2  0
 16 22  2  0
 12 17  1  1
 17 19  1  0
 17 20  1  0
 18 19  1  0
 18 22  1  0
 18 23  1  0
  9 10  1  0
  9 11  1  0
 10 12  1  0
 11  5  1  1
 33 34  1  0
 33 35  1  0
 34 36  1  0
 35 37  1  0
 37 43  1  1
 20 21  2  0
 21 22  1  0
M  CHG  3   2  -1  26  -1  41  -1
M  END
>  <COMPND>  (214) 
    udp_gluA.pdb 

>  <AUTHOR>  (214) 
    GENERATED BY OPEN BABEL 3.1.1

>  <MASTER>  (214) 
        0    0    0    0    0    0    0    0   56    0   56    0

>  <minimizedAffinity>  (214) 
-6.39383

>  <CNNscore>  (214) 
0.6117882729

>  <CNNaffinity>  (214) 
4.1647782326

>  <CNN_VS>  (214) 
2.5479624271

>  <CNNaffinity_variance>  (214) 
0.0836156011

$$$$
215
     RDKit          3D

 43 45  0  0  0  0  0  0  0  0999 V2000
   21.6976   72.6459   -5.5657 P   0  0  2  0  0  0  0  0  0  0  0  0
   21.2161   74.1857   -5.6926 O   0  0  0  0  0  0  0  0  0  0  0  0
   23.0368   72.3486   -6.1739 O   0  0  0  0  0  0  0  0  0  0  0  0
   20.4529   71.7995   -6.1592 O   0  0  0  0  0  0  0  0  0  0  0  0
   19.9947   72.0968   -7.4654 C   0  0  0  0  0  0  0  0  0  0  0  0
   18.8676   70.0215   -7.0177 O   0  0  0  0  0  0  0  0  0  0  0  0
   18.1258   70.0122   -9.9231 O   0  0  0  0  0  0  0  0  0  0  0  0
   15.8366   70.8859   -8.7265 O   0  0  0  0  0  0  0  0  0  0  0  0
   18.2391   71.1146   -9.0229 C   0  0  1  0  0  0  0  0  0  0  0  0
   17.0620   71.1370   -8.0709 C   0  0  2  0  0  0  0  0  0  0  0  0
   19.4039   70.8358   -8.0829 C   0  0  1  0  0  0  0  0  0  0  0  0
   17.4329   70.0421   -7.0851 C   0  0  2  0  0  0  0  0  0  0  0  0
   17.3879   70.1676  -10.5339 H   0  0  0  0  0  0  0  0  0  0  0  0
   15.6451   71.6110   -9.3426 H   0  0  0  0  0  0  0  0  0  0  0  0
   16.2933   68.0581   -5.4294 O   0  0  0  0  0  0  0  0  0  0  0  0
   15.4479   71.0927   -2.0648 O   0  0  0  0  0  0  0  0  0  0  0  0
   16.9072   70.2862   -5.7718 N   0  0  0  0  0  0  0  0  0  0  0  0
   15.8724   69.5716   -3.7556 N   0  0  0  0  0  0  0  0  0  0  0  0
   16.3563   69.2198   -5.0226 C   0  0  0  0  0  0  0  0  0  0  0  0
   16.9420   71.5688   -5.2381 C   0  0  0  0  0  0  0  0  0  0  0  0
   16.4770   71.8887   -4.0289 C   0  0  0  0  0  0  0  0  0  0  0  0
   15.8844   70.8327   -3.1820 C   0  0  0  0  0  0  0  0  0  0  0  0
   15.4823   68.8463   -3.2162 H   0  0  0  0  0  0  0  0  0  0  0  0
   21.6026   72.3658   -3.9766 O   0  0  0  0  0  0  0  0  0  0  0  0
   21.9235   71.0381   -3.1118 P   0  0  2  0  0  0  0  0  0  0  0  0
   23.5393   70.9506   -3.1542 O   0  0  0  0  0  0  0  0  0  0  0  0
   21.2243   69.8020   -3.5988 O   0  0  0  0  0  0  0  0  0  0  0  0
   21.5777   71.4472   -1.5901 O   0  0  0  0  0  0  0  0  0  0  0  0
   23.2511   72.8538   -0.6788 O   0  0  0  0  0  0  0  0  0  0  0  0
   20.8051   72.2294    2.5916 O   0  0  0  0  0  0  0  0  0  0  0  0
   21.4692   70.0226    0.7962 O   0  0  0  0  0  0  0  0  0  0  0  0
   20.7231   74.7643    1.1708 O   0  0  0  0  0  0  0  0  0  0  0  0
   21.1145   72.3872    1.2069 C   0  0  2  0  0  0  0  0  0  0  0  0
   22.0977   71.2990    0.7750 C   0  0  2  0  0  0  0  0  0  0  0  0
   21.7364   73.7725    1.0162 C   0  0  1  0  0  0  0  0  0  0  0  0
   22.6288   71.5692   -0.6335 C   0  0  1  0  0  0  0  0  0  0  0  0
   22.3549   73.9192   -0.3710 C   0  0  1  0  0  0  0  0  0  0  0  0
   20.4087   71.3559    2.7370 H   0  0  0  0  0  0  0  0  0  0  0  0
   21.1296   69.8447    1.6870 H   0  0  0  0  0  0  0  0  0  0  0  0
   20.3212   74.6817    2.0497 H   0  0  0  0  0  0  0  0  0  0  0  0
   24.4248   74.8207   -1.0071 O   0  0  0  0  0  0  0  0  0  0  0  0
   22.9284   76.2382   -0.0322 O   0  0  0  0  0  0  0  0  0  0  0  0
   23.2338   75.1258   -0.4350 C   0  0  0  0  0  0  0  0  0  0  0  0
  1  4  1  0
  1 24  1  0
  1  2  1  1
  1  3  2  0
 25 28  1  0
 25 24  1  0
 25 26  1  1
 25 27  2  0
  6 11  1  0
  6 12  1  0
 29 36  1  0
 29 37  1  0
  9  7  1  6
  7 13  1  0
 10  8  1  6
  8 14  1  0
  4  5  1  0
 36 28  1  6
 33 30  1  1
 30 38  1  0
 34 31  1  6
 31 39  1  0
 35 32  1  6
 32 40  1  0
 41 43  1  0
 15 19  2  0
 42 43  2  0
 16 22  2  0
 12 17  1  1
 17 19  1  0
 17 20  1  0
 18 19  1  0
 18 22  1  0
 18 23  1  0
  9 10  1  0
  9 11  1  0
 10 12  1  0
 11  5  1  1
 33 34  1  0
 33 35  1  0
 34 36  1  0
 35 37  1  0
 37 43  1  1
 20 21  2  0
 21 22  1  0
M  CHG  3   2  -1  26  -1  41  -1
M  END
>  <COMPND>  (215) 
    udp_gluA.pdb 

>  <AUTHOR>  (215) 
    GENERATED BY OPEN BABEL 3.1.1

>  <MASTER>  (215) 
        0    0    0    0    0    0    0    0   56    0   56    0

>  <minimizedAffinity>  (215) 
-7.72322

>  <CNNscore>  (215) 
0.5944430232

>  <CNNaffinity>  (215) 
4.5298557281

>  <CNN_VS>  (215) 
2.6927411556

>  <CNNaffinity_variance>  (215) 
0.1901300848

$$$$
216
     RDKit          3D

 43 45  0  0  0  0  0  0  0  0999 V2000
   23.0656   71.9966   -3.4388 P   0  0  2  0  0  0  0  0  0  0  0  0
   23.3713   70.4809   -2.9614 O   0  0  0  0  0  0  0  0  0  0  0  0
   24.1954   72.6748   -4.1568 O   0  0  0  0  0  0  0  0  0  0  0  0
   22.5468   72.7306   -2.0934 O   0  0  0  0  0  0  0  0  0  0  0  0
   22.5919   72.0150   -0.8726 C   0  0  0  0  0  0  0  0  0  0  0  0
   22.5712   72.5373    1.4736 O   0  0  0  0  0  0  0  0  0  0  0  0
   21.0629   75.0165    0.7184 O   0  0  0  0  0  0  0  0  0  0  0  0
   23.5979   75.9508    1.0881 O   0  0  0  0  0  0  0  0  0  0  0  0
   22.1134   74.3494    0.0184 C   0  0  1  0  0  0  0  0  0  0  0  0
   23.4409   74.6015    0.7014 C   0  0  2  0  0  0  0  0  0  0  0  0
   21.9325   72.8507    0.2170 C   0  0  1  0  0  0  0  0  0  0  0  0
   23.3687   73.6574    1.8894 C   0  0  2  0  0  0  0  0  0  0  0  0
   21.1573   75.9757    0.6063 H   0  0  0  0  0  0  0  0  0  0  0  0
   23.6388   76.5112    0.2968 H   0  0  0  0  0  0  0  0  0  0  0  0
   25.2349   75.1820    3.3622 O   0  0  0  0  0  0  0  0  0  0  0  0
   28.3030   71.7425    3.3837 O   0  0  0  0  0  0  0  0  0  0  0  0
   24.6627   73.1849    2.2933 N   0  0  0  0  0  0  0  0  0  0  0  0
   26.7616   73.4678    3.3706 N   0  0  0  0  0  0  0  0  0  0  0  0
   25.5246   74.0309    3.0305 C   0  0  0  0  0  0  0  0  0  0  0  0
   25.0657   71.8972    1.9609 C   0  0  0  0  0  0  0  0  0  0  0  0
   26.2479   71.3744    2.2923 C   0  0  0  0  0  0  0  0  0  0  0  0
   27.2075   72.1928    3.0623 C   0  0  0  0  0  0  0  0  0  0  0  0
   27.3795   74.0386    3.8823 H   0  0  0  0  0  0  0  0  0  0  0  0
   21.7135   71.8369   -4.3101 O   0  0  0  0  0  0  0  0  0  0  0  0
   20.4770   72.8513   -4.5464 P   0  0  2  0  0  0  0  0  0  0  0  0
   21.2027   74.2081   -5.0494 O   0  0  0  0  0  0  0  0  0  0  0  0
   19.5909   73.0317   -3.3481 O   0  0  0  0  0  0  0  0  0  0  0  0
   19.7253   72.2823   -5.8554 O   0  0  0  0  0  0  0  0  0  0  0  0
   19.1656   70.0279   -5.3932 O   0  0  0  0  0  0  0  0  0  0  0  0
   17.5875   70.5268   -9.1786 O   0  0  0  0  0  0  0  0  0  0  0  0
   20.2130   71.6212   -8.5127 O   0  0  0  0  0  0  0  0  0  0  0  0
   15.8344   70.4911   -6.8598 O   0  0  0  0  0  0  0  0  0  0  0  0
   17.9790   70.9302   -7.8663 C   0  0  2  0  0  0  0  0  0  0  0  0
   19.4828   70.7163   -7.6925 C   0  0  2  0  0  0  0  0  0  0  0  0
   17.2006   70.0813   -6.8586 C   0  0  1  0  0  0  0  0  0  0  0  0
   19.8993   70.9183   -6.2349 C   0  0  1  0  0  0  0  0  0  0  0  0
   17.7570   70.2427   -5.4469 C   0  0  1  0  0  0  0  0  0  0  0  0
   18.0695   71.0528   -9.8360 H   0  0  0  0  0  0  0  0  0  0  0  0
   19.9535   71.4987   -9.4390 H   0  0  0  0  0  0  0  0  0  0  0  0
   15.4683   70.3935   -7.7528 H   0  0  0  0  0  0  0  0  0  0  0  0
   18.1811   68.7552   -3.6836 O   0  0  0  0  0  0  0  0  0  0  0  0
   16.0768   68.7544   -4.5618 O   0  0  0  0  0  0  0  0  0  0  0  0
   17.2212   69.1821   -4.5412 C   0  0  0  0  0  0  0  0  0  0  0  0
  1  4  1  0
  1 24  1  0
  1  2  1  1
  1  3  2  0
 25 28  1  0
 25 24  1  0
 25 26  1  6
 25 27  2  0
  6 11  1  0
  6 12  1  0
 29 36  1  0
 29 37  1  0
  9  7  1  1
  7 13  1  0
 10  8  1  1
  8 14  1  0
  4  5  1  0
 36 28  1  1
 33 30  1  6
 30 38  1  0
 34 31  1  6
 31 39  1  0
 35 32  1  1
 32 40  1  0
 41 43  1  0
 15 19  2  0
 42 43  2  0
 16 22  2  0
 12 17  1  6
 17 19  1  0
 17 20  1  0
 18 19  1  0
 18 22  1  0
 18 23  1  0
  9 10  1  0
  9 11  1  0
 10 12  1  0
 11  5  1  6
 33 34  1  0
 33 35  1  0
 34 36  1  0
 35 37  1  0
 37 43  1  1
 20 21  2  0
 21 22  1  0
M  CHG  3   2  -1  26  -1  41  -1
M  END
>  <COMPND>  (216) 
    udp_gluA.pdb 

>  <AUTHOR>  (216) 
    GENERATED BY OPEN BABEL 3.1.1

>  <MASTER>  (216) 
        0    0    0    0    0    0    0    0   56    0   56    0

>  <minimizedAffinity>  (216) 
-6.82524

>  <CNNscore>  (216) 
0.5897594094

>  <CNNaffinity>  (216) 
4.3634767532

>  <CNN_VS>  (216) 
2.5734014511

>  <CNNaffinity_variance>  (216) 
0.0581759214

$$$$
217
     RDKit          3D

 43 45  0  0  0  0  0  0  0  0999 V2000
   23.1865   73.5757   -4.1456 P   0  0  2  0  0  0  0  0  0  0  0  0
   24.1166   72.2514   -4.1396 O   0  0  0  0  0  0  0  0  0  0  0  0
   23.7992   74.7772   -4.8036 O   0  0  0  0  0  0  0  0  0  0  0  0
   22.7659   73.7621   -2.5944 O   0  0  0  0  0  0  0  0  0  0  0  0
   21.8176   74.7609   -2.2663 C   0  0  0  0  0  0  0  0  0  0  0  0
   21.0260   72.8144   -1.0993 O   0  0  0  0  0  0  0  0  0  0  0  0
   18.7268   74.5168   -0.2011 O   0  0  0  0  0  0  0  0  0  0  0  0
   20.3491   74.5018    1.9907 O   0  0  0  0  0  0  0  0  0  0  0  0
   20.0944   74.8763   -0.3982 C   0  0  1  0  0  0  0  0  0  0  0  0
   20.9482   74.3252    0.7241 C   0  0  2  0  0  0  0  0  0  0  0  0
   20.6142   74.1036   -1.6029 C   0  0  1  0  0  0  0  0  0  0  0  0
   21.0738   72.8619    0.3355 C   0  0  2  0  0  0  0  0  0  0  0  0
   18.3726   74.9980    0.5636 H   0  0  0  0  0  0  0  0  0  0  0  0
   20.2921   75.4495    2.1921 H   0  0  0  0  0  0  0  0  0  0  0  0
   21.4231   70.1241    0.9344 O   0  0  0  0  0  0  0  0  0  0  0  0
   25.8554   70.7430    2.0367 O   0  0  0  0  0  0  0  0  0  0  0  0
   22.3085   72.2807    0.7810 N   0  0  0  0  0  0  0  0  0  0  0  0
   23.6300   70.4351    1.4838 N   0  0  0  0  0  0  0  0  0  0  0  0
   22.3777   70.8942    1.0550 C   0  0  0  0  0  0  0  0  0  0  0  0
   23.4337   73.0803    0.9408 C   0  0  0  0  0  0  0  0  0  0  0  0
   24.6206   72.6283    1.3503 C   0  0  0  0  0  0  0  0  0  0  0  0
   24.7775   71.1917    1.6584 C   0  0  0  0  0  0  0  0  0  0  0  0
   23.7022   69.4736    1.6827 H   0  0  0  0  0  0  0  0  0  0  0  0
   21.8190   73.0557   -4.8329 O   0  0  0  0  0  0  0  0  0  0  0  0
   21.1684   73.3769   -6.2776 P   0  0  2  0  0  0  0  0  0  0  0  0
   22.2237   72.7180   -7.3133 O   0  0  0  0  0  0  0  0  0  0  0  0
   20.8922   74.8327   -6.5187 O   0  0  0  0  0  0  0  0  0  0  0  0
   19.8680   72.4259   -6.3614 O   0  0  0  0  0  0  0  0  0  0  0  0
   19.4014   70.2208   -5.6338 O   0  0  0  0  0  0  0  0  0  0  0  0
   17.4206   70.3474   -9.2571 O   0  0  0  0  0  0  0  0  0  0  0  0
   20.0819   71.5206   -8.9826 O   0  0  0  0  0  0  0  0  0  0  0  0
   15.9253   70.5169   -6.7700 O   0  0  0  0  0  0  0  0  0  0  0  0
   17.9422   70.8761   -8.0380 C   0  0  2  0  0  0  0  0  0  0  0  0
   19.4596   70.6915   -8.0079 C   0  0  2  0  0  0  0  0  0  0  0  0
   17.2910   70.1199   -6.8777 C   0  0  1  0  0  0  0  0  0  0  0  0
   20.0252   71.0336   -6.6288 C   0  0  1  0  0  0  0  0  0  0  0  0
   17.9915   70.4183   -5.5553 C   0  0  1  0  0  0  0  0  0  0  0  0
   17.8203   70.8128  -10.0088 H   0  0  0  0  0  0  0  0  0  0  0  0
   19.7276   71.3091   -9.8601 H   0  0  0  0  0  0  0  0  0  0  0  0
   15.4680   70.3325   -7.6053 H   0  0  0  0  0  0  0  0  0  0  0  0
   18.6371   69.0716   -3.7467 O   0  0  0  0  0  0  0  0  0  0  0  0
   16.4348   69.0353   -4.3365 O   0  0  0  0  0  0  0  0  0  0  0  0
   17.5744   69.4438   -4.5024 C   0  0  0  0  0  0  0  0  0  0  0  0
  1  4  1  0
  1 24  1  0
  1  2  1  1
  1  3  2  0
 25 28  1  0
 25 24  1  0
 25 26  1  6
 25 27  2  0
  6 11  1  0
  6 12  1  0
 29 36  1  0
 29 37  1  0
  9  7  1  1
  7 13  1  0
 10  8  1  1
  8 14  1  0
  4  5  1  0
 36 28  1  1
 33 30  1  6
 30 38  1  0
 34 31  1  6
 31 39  1  0
 35 32  1  1
 32 40  1  0
 41 43  1  0
 15 19  2  0
 42 43  2  0
 16 22  2  0
 12 17  1  6
 17 19  1  0
 17 20  1  0
 18 19  1  0
 18 22  1  0
 18 23  1  0
  9 10  1  0
  9 11  1  0
 10 12  1  0
 11  5  1  1
 33 34  1  0
 33 35  1  0
 34 36  1  0
 35 37  1  0
 37 43  1  1
 20 21  2  0
 21 22  1  0
M  CHG  3   2  -1  26  -1  41  -1
M  END
>  <COMPND>  (217) 
    udp_gluA.pdb 

>  <AUTHOR>  (217) 
    GENERATED BY OPEN BABEL 3.1.1

>  <MASTER>  (217) 
        0    0    0    0    0    0    0    0   56    0   56    0

>  <minimizedAffinity>  (217) 
-7.76645

>  <CNNscore>  (217) 
0.5855168700

>  <CNNaffinity>  (217) 
4.5001869202

>  <CNN_VS>  (217) 
2.6349353790

>  <CNNaffinity_variance>  (217) 
0.0667085499

$$$$
218
     RDKit          3D

 43 45  0  0  0  0  0  0  0  0999 V2000
   19.8748   73.0577   -4.8958 P   0  0  2  0  0  0  0  0  0  0  0  0
   18.4852   73.7426   -5.3637 O   0  0  0  0  0  0  0  0  0  0  0  0
   20.9026   74.0113   -4.3611 O   0  0  0  0  0  0  0  0  0  0  0  0
   20.3282   72.1831   -6.1793 O   0  0  0  0  0  0  0  0  0  0  0  0
   19.6433   72.3738   -7.4036 C   0  0  0  0  0  0  0  0  0  0  0  0
   18.6359   70.2737   -6.8102 O   0  0  0  0  0  0  0  0  0  0  0  0
   18.0462   69.9431   -9.7316 O   0  0  0  0  0  0  0  0  0  0  0  0
   15.6454   70.7582   -8.7276 O   0  0  0  0  0  0  0  0  0  0  0  0
   18.0393   71.1293   -8.9369 C   0  0  1  0  0  0  0  0  0  0  0  0
   16.8162   71.1555   -8.0449 C   0  0  2  0  0  0  0  0  0  0  0  0
   19.1705   71.0222   -7.9233 C   0  0  1  0  0  0  0  0  0  0  0  0
   17.2084   70.1856   -6.9433 C   0  0  2  0  0  0  0  0  0  0  0  0
   17.3318   69.9883  -10.3868 H   0  0  0  0  0  0  0  0  0  0  0  0
   15.4377   71.4077   -9.4182 H   0  0  0  0  0  0  0  0  0  0  0  0
   16.8908   68.3660   -4.8068 O   0  0  0  0  0  0  0  0  0  0  0  0
   14.8635   71.5472   -2.1584 O   0  0  0  0  0  0  0  0  0  0  0  0
   16.6010   70.5119   -5.6842 N   0  0  0  0  0  0  0  0  0  0  0  0
   15.8805   69.9519   -3.4902 N   0  0  0  0  0  0  0  0  0  0  0  0
   16.4901   69.5242   -4.6770 C   0  0  0  0  0  0  0  0  0  0  0  0
   16.1247   71.7972   -5.4562 C   0  0  0  0  0  0  0  0  0  0  0  0
   15.5460   72.1900   -4.3197 C   0  0  0  0  0  0  0  0  0  0  0  0
   15.3906   71.2188   -3.2170 C   0  0  0  0  0  0  0  0  0  0  0  0
   15.7902   69.2813   -2.7750 H   0  0  0  0  0  0  0  0  0  0  0  0
   19.3880   71.9322   -3.8427 O   0  0  0  0  0  0  0  0  0  0  0  0
   19.0033   72.0399   -2.2762 P   0  0  2  0  0  0  0  0  0  0  0  0
   18.5713   70.5268   -1.8965 O   0  0  0  0  0  0  0  0  0  0  0  0
   17.9617   73.0763   -1.9678 O   0  0  0  0  0  0  0  0  0  0  0  0
   20.4124   72.2622   -1.5229 O   0  0  0  0  0  0  0  0  0  0  0  0
   22.4738   71.8465   -2.6125 O   0  0  0  0  0  0  0  0  0  0  0  0
   23.5876   71.7361    1.3643 O   0  0  0  0  0  0  0  0  0  0  0  0
   21.1069   70.4679    0.4855 O   0  0  0  0  0  0  0  0  0  0  0  0
   24.2283   74.0557   -0.2666 O   0  0  0  0  0  0  0  0  0  0  0  0
   22.8242   72.1634    0.2362 C   0  0  2  0  0  0  0  0  0  0  0  0
   22.1163   70.9606   -0.3880 C   0  0  2  0  0  0  0  0  0  0  0  0
   23.7849   72.7977   -0.7720 C   0  0  1  0  0  0  0  0  0  0  0  0
   21.4776   71.3354   -1.7260 C   0  0  1  0  0  0  0  0  0  0  0  0
   23.1072   73.0252   -2.1202 C   0  0  1  0  0  0  0  0  0  0  0  0
   22.9979   71.3295    2.0187 H   0  0  0  0  0  0  0  0  0  0  0  0
   21.5052   70.2283    1.3366 H   0  0  0  0  0  0  0  0  0  0  0  0
   24.6614   73.9249    0.5914 H   0  0  0  0  0  0  0  0  0  0  0  0
   24.1543   72.3397   -4.1039 O   0  0  0  0  0  0  0  0  0  0  0  0
   24.8181   74.3302   -3.2116 O   0  0  0  0  0  0  0  0  0  0  0  0
   24.1182   73.3293   -3.1775 C   0  0  0  0  0  0  0  0  0  0  0  0
  1  4  1  0
  1 24  1  0
  1  2  1  6
  1  3  2  0
 25 28  1  0
 25 24  1  0
 25 26  1  1
 25 27  2  0
  6 11  1  0
  6 12  1  0
 29 36  1  0
 29 37  1  0
  9  7  1  6
  7 13  1  0
 10  8  1  6
  8 14  1  0
  4  5  1  0
 36 28  1  1
 33 30  1  1
 30 38  1  0
 34 31  1  1
 31 39  1  0
 35 32  1  1
 32 40  1  0
 41 43  1  0
 15 19  2  0
 42 43  2  0
 16 22  2  0
 12 17  1  1
 17 19  1  0
 17 20  1  0
 18 19  1  0
 18 22  1  0
 18 23  1  0
  9 10  1  0
  9 11  1  0
 10 12  1  0
 11  5  1  1
 33 34  1  0
 33 35  1  0
 34 36  1  0
 35 37  1  0
 37 43  1  6
 20 21  2  0
 21 22  1  0
M  CHG  3   2  -1  26  -1  41  -1
M  END
>  <COMPND>  (218) 
    udp_gluA.pdb 

>  <AUTHOR>  (218) 
    GENERATED BY OPEN BABEL 3.1.1

>  <MASTER>  (218) 
        0    0    0    0    0    0    0    0   56    0   56    0

>  <minimizedAffinity>  (218) 
-7.03382

>  <CNNscore>  (218) 
0.5728447437

>  <CNNaffinity>  (218) 
4.3914275169

>  <CNN_VS>  (218) 
2.5156061649

>  <CNNaffinity_variance>  (218) 
0.2775904834

$$$$
219
     RDKit          3D

 43 45  0  0  0  0  0  0  0  0999 V2000
   23.6074   75.2109   -3.3733 P   0  0  2  0  0  0  0  0  0  0  0  0
   24.9647   74.5809   -2.7572 O   0  0  0  0  0  0  0  0  0  0  0  0
   23.3627   76.6503   -3.0265 O   0  0  0  0  0  0  0  0  0  0  0  0
   22.4543   74.1721   -2.9157 O   0  0  0  0  0  0  0  0  0  0  0  0
   22.2658   73.9377   -1.5323 C   0  0  0  0  0  0  0  0  0  0  0  0
   23.3486   71.9336   -0.7649 O   0  0  0  0  0  0  0  0  0  0  0  0
   20.5982   70.7656   -0.5148 O   0  0  0  0  0  0  0  0  0  0  0  0
   21.2010   71.4276    2.0610 O   0  0  0  0  0  0  0  0  0  0  0  0
   21.0383   72.1016   -0.2696 C   0  0  1  0  0  0  0  0  0  0  0  0
   21.8167   72.1672    1.0274 C   0  0  2  0  0  0  0  0  0  0  0  0
   22.1068   72.4407   -1.2999 C   0  0  1  0  0  0  0  0  0  0  0  0
   23.1616   71.5915    0.6176 C   0  0  2  0  0  0  0  0  0  0  0  0
   19.9150   70.5262    0.1314 H   0  0  0  0  0  0  0  0  0  0  0  0
   20.3488   71.8340    2.2859 H   0  0  0  0  0  0  0  0  0  0  0  0
   24.9839   70.0443    2.1214 O   0  0  0  0  0  0  0  0  0  0  0  0
   27.2867   73.7840    3.5199 O   0  0  0  0  0  0  0  0  0  0  0  0
   24.2469   72.1351    1.3840 N   0  0  0  0  0  0  0  0  0  0  0  0
   26.1285   71.9084    2.8173 N   0  0  0  0  0  0  0  0  0  0  0  0
   25.1048   71.2707    2.1043 C   0  0  0  0  0  0  0  0  0  0  0  0
   24.4537   73.5089    1.4159 C   0  0  0  0  0  0  0  0  0  0  0  0
   25.4339   74.1021    2.1000 C   0  0  0  0  0  0  0  0  0  0  0  0
   26.3739   73.2706    2.8800 C   0  0  0  0  0  0  0  0  0  0  0  0
   26.7374   71.3274    3.3282 H   0  0  0  0  0  0  0  0  0  0  0  0
   23.7558   74.9153   -4.9555 O   0  0  0  0  0  0  0  0  0  0  0  0
   22.7425   75.1870   -6.1857 P   0  0  2  0  0  0  0  0  0  0  0  0
   23.6624   74.9149   -7.4895 O   0  0  0  0  0  0  0  0  0  0  0  0
   22.0911   76.5394   -6.1597 O   0  0  0  0  0  0  0  0  0  0  0  0
   21.7118   73.9466   -6.1485 O   0  0  0  0  0  0  0  0  0  0  0  0
   21.7605   71.8410   -5.0652 O   0  0  0  0  0  0  0  0  0  0  0  0
   19.9580   70.8953   -8.6603 O   0  0  0  0  0  0  0  0  0  0  0  0
   22.2449   72.7115   -8.5829 O   0  0  0  0  0  0  0  0  0  0  0  0
   18.3650   71.0922   -6.2366 O   0  0  0  0  0  0  0  0  0  0  0  0
   20.2864   71.7244   -7.5455 C   0  0  2  0  0  0  0  0  0  0  0  0
   21.8011   71.9234   -7.4845 C   0  0  2  0  0  0  0  0  0  0  0  0
   19.7894   71.0289   -6.2762 C   0  0  1  0  0  0  0  0  0  0  0  0
   22.2105   72.6105   -6.1810 C   0  0  1  0  0  0  0  0  0  0  0  0
   20.3425   71.6981   -5.0213 C   0  0  1  0  0  0  0  0  0  0  0  0
   20.2644   71.3171   -9.4785 H   0  0  0  0  0  0  0  0  0  0  0  0
   21.9882   72.2815   -9.4134 H   0  0  0  0  0  0  0  0  0  0  0  0
   18.0003   70.6698   -7.0299 H   0  0  0  0  0  0  0  0  0  0  0  0
   18.9618   71.1470   -3.2070 O   0  0  0  0  0  0  0  0  0  0  0  0
   20.8952   69.9610   -3.4407 O   0  0  0  0  0  0  0  0  0  0  0  0
   20.1294   70.8337   -3.8214 C   0  0  0  0  0  0  0  0  0  0  0  0
  1  4  1  0
  1 24  1  0
  1  2  1  1
  1  3  2  0
 25 28  1  0
 25 24  1  0
 25 26  1  6
 25 27  2  0
  6 11  1  0
  6 12  1  0
 29 36  1  0
 29 37  1  0
  9  7  1  6
  7 13  1  0
 10  8  1  1
  8 14  1  0
  4  5  1  0
 36 28  1  1
 33 30  1  6
 30 38  1  0
 34 31  1  6
 31 39  1  0
 35 32  1  1
 32 40  1  0
 41 43  1  0
 15 19  2  0
 42 43  2  0
 16 22  2  0
 12 17  1  1
 17 19  1  0
 17 20  1  0
 18 19  1  0
 18 22  1  0
 18 23  1  0
  9 10  1  0
  9 11  1  0
 10 12  1  0
 11  5  1  1
 33 34  1  0
 33 35  1  0
 34 36  1  0
 35 37  1  0
 37 43  1  1
 20 21  2  0
 21 22  1  0
M  CHG  3   2  -1  26  -1  41  -1
M  END
>  <COMPND>  (219) 
    udp_gluA.pdb 

>  <AUTHOR>  (219) 
    GENERATED BY OPEN BABEL 3.1.1

>  <MASTER>  (219) 
        0    0    0    0    0    0    0    0   56    0   56    0

>  <minimizedAffinity>  (219) 
-6.32524

>  <CNNscore>  (219) 
0.5432066917

>  <CNNaffinity>  (219) 
4.1147217751

>  <CNN_VS>  (219) 
2.2351443768

>  <CNNaffinity_variance>  (219) 
0.1171051487

$$$$
220
     RDKit          3D

 43 45  0  0  0  0  0  0  0  0999 V2000
   21.7667   72.2492   -5.7651 P   0  0  2  0  0  0  0  0  0  0  0  0
   20.8386   73.4283   -5.1592 O   0  0  0  0  0  0  0  0  0  0  0  0
   23.2443   72.4910   -5.6645 O   0  0  0  0  0  0  0  0  0  0  0  0
   21.1907   72.0315   -7.2614 O   0  0  0  0  0  0  0  0  0  0  0  0
   19.8019   72.1959   -7.4818 C   0  0  0  0  0  0  0  0  0  0  0  0
   18.6530   70.1606   -6.9201 O   0  0  0  0  0  0  0  0  0  0  0  0
   18.0101   69.9365   -9.8404 O   0  0  0  0  0  0  0  0  0  0  0  0
   15.6846   70.8988   -8.7904 O   0  0  0  0  0  0  0  0  0  0  0  0
   18.0966   71.1026   -9.0210 C   0  0  1  0  0  0  0  0  0  0  0  0
   16.8881   71.1966   -8.1139 C   0  0  2  0  0  0  0  0  0  0  0  0
   19.2280   70.8931   -8.0238 C   0  0  1  0  0  0  0  0  0  0  0  0
   17.2215   70.1776   -7.0377 C   0  0  2  0  0  0  0  0  0  0  0  0
   17.2938   70.0468  -10.4857 H   0  0  0  0  0  0  0  0  0  0  0  0
   15.5166   71.5763   -9.4647 H   0  0  0  0  0  0  0  0  0  0  0  0
   16.7338   68.3268   -4.9609 O   0  0  0  0  0  0  0  0  0  0  0  0
   15.0347   71.5996   -2.1958 O   0  0  0  0  0  0  0  0  0  0  0  0
   16.6525   70.5190   -5.7646 N   0  0  0  0  0  0  0  0  0  0  0  0
   15.8870   69.9584   -3.5861 N   0  0  0  0  0  0  0  0  0  0  0  0
   16.4485   69.5135   -4.7902 C   0  0  0  0  0  0  0  0  0  0  0  0
   16.3048   71.8363   -5.4912 C   0  0  0  0  0  0  0  0  0  0  0  0
   15.7706   72.2451   -4.3387 C   0  0  0  0  0  0  0  0  0  0  0  0
   15.5241   71.2571   -3.2679 C   0  0  0  0  0  0  0  0  0  0  0  0
   15.7337   69.2761   -2.8931 H   0  0  0  0  0  0  0  0  0  0  0  0
   21.2441   70.9364   -4.9800 O   0  0  0  0  0  0  0  0  0  0  0  0
   20.2776   70.7838   -3.6931 P   0  0  2  0  0  0  0  0  0  0  0  0
   19.7786   69.2467   -3.7855 O   0  0  0  0  0  0  0  0  0  0  0  0
   19.1669   71.7922   -3.6342 O   0  0  0  0  0  0  0  0  0  0  0  0
   21.2757   70.8124   -2.4260 O   0  0  0  0  0  0  0  0  0  0  0  0
   21.1284   72.7444   -1.0642 O   0  0  0  0  0  0  0  0  0  0  0  0
   24.5523   70.9485    0.3919 O   0  0  0  0  0  0  0  0  0  0  0  0
   24.0456   71.0582   -2.4831 O   0  0  0  0  0  0  0  0  0  0  0  0
   22.0720   70.8001    1.9009 O   0  0  0  0  0  0  0  0  0  0  0  0
   23.2503   70.9907   -0.1921 C   0  0  2  0  0  0  0  0  0  0  0  0
   23.3027   71.7747   -1.5036 C   0  0  2  0  0  0  0  0  0  0  0  0
   22.3088   71.6763    0.8006 C   0  0  1  0  0  0  0  0  0  0  0  0
   21.8951   72.0380   -2.0402 C   0  0  1  0  0  0  0  0  0  0  0  0
   20.9702   72.0190    0.1531 C   0  0  1  0  0  0  0  0  0  0  0  0
   25.1680   70.5169   -0.2212 H   0  0  0  0  0  0  0  0  0  0  0  0
   24.9398   70.8874   -2.1491 H   0  0  0  0  0  0  0  0  0  0  0  0
   22.9162   70.5741    2.3217 H   0  0  0  0  0  0  0  0  0  0  0  0
   19.2144   73.5682    0.2903 O   0  0  0  0  0  0  0  0  0  0  0  0
   20.4037   73.1726    2.1951 O   0  0  0  0  0  0  0  0  0  0  0  0
   20.1937   72.9657    1.0093 C   0  0  0  0  0  0  0  0  0  0  0  0
  1  4  1  0
  1 24  1  0
  1  2  1  1
  1  3  2  0
 25 28  1  0
 25 24  1  0
 25 26  1  6
 25 27  2  0
  6 11  1  0
  6 12  1  0
 29 36  1  0
 29 37  1  0
  9  7  1  6
  7 13  1  0
 10  8  1  6
  8 14  1  0
  4  5  1  0
 36 28  1  1
 33 30  1  1
 30 38  1  0
 34 31  1  6
 31 39  1  0
 35 32  1  1
 32 40  1  0
 41 43  1  0
 15 19  2  0
 42 43  2  0
 16 22  2  0
 12 17  1  1
 17 19  1  0
 17 20  1  0
 18 19  1  0
 18 22  1  0
 18 23  1  0
  9 10  1  0
  9 11  1  0
 10 12  1  0
 11  5  1  1
 33 34  1  0
 33 35  1  0
 34 36  1  0
 35 37  1  0
 37 43  1  1
 20 21  2  0
 21 22  1  0
M  CHG  3   2  -1  26  -1  41  -1
M  END
>  <COMPND>  (220) 
    udp_gluA.pdb 

>  <AUTHOR>  (220) 
    GENERATED BY OPEN BABEL 3.1.1

>  <MASTER>  (220) 
        0    0    0    0    0    0    0    0   56    0   56    0

>  <minimizedAffinity>  (220) 
-7.69300

>  <CNNscore>  (220) 
0.5258889198

>  <CNNaffinity>  (220) 
4.4099678993

>  <CNN_VS>  (220) 
2.3191533089

>  <CNNaffinity_variance>  (220) 
0.3423403203

$$$$
221
     RDKit          3D

 43 45  0  0  0  0  0  0  0  0999 V2000
   23.0623   71.6131   -2.6103 P   0  0  2  0  0  0  0  0  0  0  0  0
   23.3132   73.1581   -2.1995 O   0  0  0  0  0  0  0  0  0  0  0  0
   24.2509   70.9137   -3.2017 O   0  0  0  0  0  0  0  0  0  0  0  0
   21.7430   71.6691   -3.5454 O   0  0  0  0  0  0  0  0  0  0  0  0
   20.9095   70.5264   -3.6077 C   0  0  0  0  0  0  0  0  0  0  0  0
   18.9613   71.5768   -4.5454 O   0  0  0  0  0  0  0  0  0  0  0  0
   17.4192   70.2691   -2.3311 O   0  0  0  0  0  0  0  0  0  0  0  0
   16.8992   68.6452   -4.4591 O   0  0  0  0  0  0  0  0  0  0  0  0
   18.5398   69.7759   -3.0655 C   0  0  1  0  0  0  0  0  0  0  0  0
   18.1137   69.3660   -4.4593 C   0  0  2  0  0  0  0  0  0  0  0  0
   19.4690   70.9485   -3.3484 C   0  0  1  0  0  0  0  0  0  0  0  0
   17.9968   70.7084   -5.1610 C   0  0  2  0  0  0  0  0  0  0  0  0
   16.8111   69.5378   -2.1385 H   0  0  0  0  0  0  0  0  0  0  0  0
   17.0257   67.7988   -4.0014 H   0  0  0  0  0  0  0  0  0  0  0  0
   16.0978   69.9960   -7.1264 O   0  0  0  0  0  0  0  0  0  0  0  0
   19.1901   70.3966  -10.5207 O   0  0  0  0  0  0  0  0  0  0  0  0
   18.2787   70.6188   -6.5658 N   0  0  0  0  0  0  0  0  0  0  0  0
   17.6400   70.1952   -8.8150 N   0  0  0  0  0  0  0  0  0  0  0  0
   17.2535   70.2521   -7.4694 C   0  0  0  0  0  0  0  0  0  0  0  0
   19.5572   70.8939   -7.0355 C   0  0  0  0  0  0  0  0  0  0  0  0
   19.9105   70.8355   -8.3211 C   0  0  0  0  0  0  0  0  0  0  0  0
   18.8988   70.4593   -9.3301 C   0  0  0  0  0  0  0  0  0  0  0  0
   16.9438   69.9401   -9.4627 H   0  0  0  0  0  0  0  0  0  0  0  0
   22.5088   70.9585   -1.2400 O   0  0  0  0  0  0  0  0  0  0  0  0
   21.6465   71.5975   -0.0310 P   0  0  2  0  0  0  0  0  0  0  0  0
   21.0536   70.2967    0.7284 O   0  0  0  0  0  0  0  0  0  0  0  0
   20.6046   72.5843   -0.4722 O   0  0  0  0  0  0  0  0  0  0  0  0
   22.7473   72.1957    0.9853 O   0  0  0  0  0  0  0  0  0  0  0  0
   24.4780   71.3819    2.3824 O   0  0  0  0  0  0  0  0  0  0  0  0
   22.5601   74.0495    4.8870 O   0  0  0  0  0  0  0  0  0  0  0  0
   21.0173   72.2666    3.1621 O   0  0  0  0  0  0  0  0  0  0  0  0
   25.1052   74.7583    3.6741 O   0  0  0  0  0  0  0  0  0  0  0  0
   23.0270   73.5398    3.6380 C   0  0  2  0  0  0  0  0  0  0  0  0
   22.4180   72.1597    3.3887 C   0  0  2  0  0  0  0  0  0  0  0  0
   24.5528   73.4437    3.7070 C   0  0  1  0  0  0  0  0  0  0  0  0
   23.0681   71.4851    2.1799 C   0  0  1  0  0  0  0  0  0  0  0  0
   25.1146   72.6489    2.5318 C   0  0  1  0  0  0  0  0  0  0  0  0
   21.5926   74.1193    4.8667 H   0  0  0  0  0  0  0  0  0  0  0  0
   20.5985   72.6941    3.9251 H   0  0  0  0  0  0  0  0  0  0  0  0
   24.7555   75.2747    4.4170 H   0  0  0  0  0  0  0  0  0  0  0  0
   26.7789   71.0024    2.3883 O   0  0  0  0  0  0  0  0  0  0  0  0
   27.3866   73.0230    3.2525 O   0  0  0  0  0  0  0  0  0  0  0  0
   26.5421   72.2805    2.7746 C   0  0  0  0  0  0  0  0  0  0  0  0
  1  4  1  0
  1 24  1  0
  1  2  1  1
  1  3  2  0
 25 28  1  0
 25 24  1  0
 25 26  1  1
 25 27  2  0
  6 11  1  0
  6 12  1  0
 29 36  1  0
 29 37  1  0
  9  7  1  1
  7 13  1  0
 10  8  1  1
  8 14  1  0
  4  5  1  0
 36 28  1  6
 33 30  1  1
 30 38  1  0
 34 31  1  6
 31 39  1  0
 35 32  1  6
 32 40  1  0
 41 43  1  0
 15 19  2  0
 42 43  2  0
 16 22  2  0
 12 17  1  6
 17 19  1  0
 17 20  1  0
 18 19  1  0
 18 22  1  0
 18 23  1  0
  9 10  1  0
  9 11  1  0
 10 12  1  0
 11  5  1  6
 33 34  1  0
 33 35  1  0
 34 36  1  0
 35 37  1  0
 37 43  1  1
 20 21  2  0
 21 22  1  0
M  CHG  3   2  -1  26  -1  41  -1
M  END
>  <COMPND>  (221) 
    udp_gluA.pdb 

>  <AUTHOR>  (221) 
    GENERATED BY OPEN BABEL 3.1.1

>  <MASTER>  (221) 
        0    0    0    0    0    0    0    0   56    0   56    0

>  <minimizedAffinity>  (221) 
-8.22619

>  <CNNscore>  (221) 
0.9201024175

>  <CNNaffinity>  (221) 
4.8057847023

>  <CNN_VS>  (221) 
4.4218139648

>  <CNNaffinity_variance>  (221) 
0.0631687120

$$$$
222
     RDKit          3D

 43 45  0  0  0  0  0  0  0  0999 V2000
   20.5947   71.2347   -1.5354 P   0  0  2  0  0  0  0  0  0  0  0  0
   21.2550   70.5209   -0.2418 O   0  0  0  0  0  0  0  0  0  0  0  0
   20.0696   72.6198   -1.2956 O   0  0  0  0  0  0  0  0  0  0  0  0
   19.5123   70.1548   -2.0648 O   0  0  0  0  0  0  0  0  0  0  0  0
   19.1645   70.1633   -3.4372 C   0  0  0  0  0  0  0  0  0  0  0  0
   17.5568   71.3073   -4.8099 O   0  0  0  0  0  0  0  0  0  0  0  0
   15.4588   69.8197   -3.2681 O   0  0  0  0  0  0  0  0  0  0  0  0
   15.6158   68.3951   -5.5881 O   0  0  0  0  0  0  0  0  0  0  0  0
   16.7546   69.3853   -3.6816 C   0  0  1  0  0  0  0  0  0  0  0  0
   16.7632   69.1040   -5.1692 C   0  0  2  0  0  0  0  0  0  0  0  0
   17.7035   70.5714   -3.5761 C   0  0  1  0  0  0  0  0  0  0  0  0
   16.8316   70.5042   -5.7545 C   0  0  2  0  0  0  0  0  0  0  0  0
   14.8350   69.0787   -3.3270 H   0  0  0  0  0  0  0  0  0  0  0  0
   15.6187   67.5104   -5.1889 H   0  0  0  0  0  0  0  0  0  0  0  0
   15.5394   70.5931   -8.2643 O   0  0  0  0  0  0  0  0  0  0  0  0
   19.5513   70.6295  -10.5332 O   0  0  0  0  0  0  0  0  0  0  0  0
   17.5142   70.5376   -7.0170 N   0  0  0  0  0  0  0  0  0  0  0  0
   17.5388   70.6101   -9.3920 N   0  0  0  0  0  0  0  0  0  0  0  0
   16.7710   70.5811   -8.2203 C   0  0  0  0  0  0  0  0  0  0  0  0
   18.9032   70.5289   -7.0549 C   0  0  0  0  0  0  0  0  0  0  0  0
   19.6211   70.5570   -8.1795 C   0  0  0  0  0  0  0  0  0  0  0  0
   18.9214   70.6023   -9.4802 C   0  0  0  0  0  0  0  0  0  0  0  0
   17.0435   70.6385  -10.2424 H   0  0  0  0  0  0  0  0  0  0  0  0
   21.7706   71.1424   -2.6406 O   0  0  0  0  0  0  0  0  0  0  0  0
   23.1189   72.0138   -2.8312 P   0  0  2  0  0  0  0  0  0  0  0  0
   24.2546   70.8879   -3.0819 O   0  0  0  0  0  0  0  0  0  0  0  0
   23.4145   72.9477   -1.6936 O   0  0  0  0  0  0  0  0  0  0  0  0
   22.9399   72.7371   -4.2620 O   0  0  0  0  0  0  0  0  0  0  0  0
   20.6394   73.2476   -4.4996 O   0  0  0  0  0  0  0  0  0  0  0  0
   22.2032   74.7594   -8.0121 O   0  0  0  0  0  0  0  0  0  0  0  0
   23.1013   72.1775   -6.9817 O   0  0  0  0  0  0  0  0  0  0  0  0
   21.4523   76.5586   -5.8557 O   0  0  0  0  0  0  0  0  0  0  0  0
   22.2088   74.4057   -6.6290 C   0  0  2  0  0  0  0  0  0  0  0  0
   21.9813   72.9008   -6.4847 C   0  0  2  0  0  0  0  0  0  0  0  0
   21.0860   75.1825   -5.9377 C   0  0  1  0  0  0  0  0  0  0  0  0
   21.7520   72.5200   -5.0213 C   0  0  1  0  0  0  0  0  0  0  0  0
   20.8341   74.6599   -4.5264 C   0  0  1  0  0  0  0  0  0  0  0  0
   22.9087   74.2777   -8.4720 H   0  0  0  0  0  0  0  0  0  0  0  0
   23.2527   72.4144   -7.9098 H   0  0  0  0  0  0  0  0  0  0  0  0
   21.6156   76.9034   -6.7475 H   0  0  0  0  0  0  0  0  0  0  0  0
   19.7019   76.4472   -3.5139 O   0  0  0  0  0  0  0  0  0  0  0  0
   18.4867   74.5738   -3.9752 O   0  0  0  0  0  0  0  0  0  0  0  0
   19.5438   75.1866   -3.9881 C   0  0  0  0  0  0  0  0  0  0  0  0
  1  4  1  0
  1 24  1  0
  1  2  1  1
  1  3  2  0
 25 28  1  0
 25 24  1  0
 25 26  1  6
 25 27  2  0
  6 11  1  0
  6 12  1  0
 29 36  1  0
 29 37  1  0
  9  7  1  6
  7 13  1  0
 10  8  1  6
  8 14  1  0
  4  5  1  0
 36 28  1  1
 33 30  1  6
 30 38  1  0
 34 31  1  1
 31 39  1  0
 35 32  1  1
 32 40  1  0
 41 43  1  0
 15 19  2  0
 42 43  2  0
 16 22  2  0
 12 17  1  6
 17 19  1  0
 17 20  1  0
 18 19  1  0
 18 22  1  0
 18 23  1  0
  9 10  1  0
  9 11  1  0
 10 12  1  0
 11  5  1  6
 33 34  1  0
 33 35  1  0
 34 36  1  0
 35 37  1  0
 37 43  1  6
 20 21  2  0
 21 22  1  0
M  CHG  3   2  -1  26  -1  41  -1
M  END
>  <COMPND>  (222) 
    udp_gluA.pdb 

>  <AUTHOR>  (222) 
    GENERATED BY OPEN BABEL 3.1.1

>  <MASTER>  (222) 
        0    0    0    0    0    0    0    0   56    0   56    0

>  <minimizedAffinity>  (222) 
-8.03174

>  <CNNscore>  (222) 
0.9135289788

>  <CNNaffinity>  (222) 
4.7296342850

>  <CNN_VS>  (222) 
4.3206582069

>  <CNNaffinity_variance>  (222) 
0.8037229776

$$$$
223
     RDKit          3D

 43 45  0  0  0  0  0  0  0  0999 V2000
   21.3456   72.8092   -5.1298 P   0  0  2  0  0  0  0  0  0  0  0  0
   21.6035   74.3755   -4.8149 O   0  0  0  0  0  0  0  0  0  0  0  0
   21.8551   72.3383   -6.4604 O   0  0  0  0  0  0  0  0  0  0  0  0
   19.7589   72.6183   -4.8774 O   0  0  0  0  0  0  0  0  0  0  0  0
   19.3392   71.7937   -3.8057 C   0  0  0  0  0  0  0  0  0  0  0  0
   17.4049   71.8875   -5.2295 O   0  0  0  0  0  0  0  0  0  0  0  0
   16.0092   70.2677   -3.1273 O   0  0  0  0  0  0  0  0  0  0  0  0
   16.6300   68.3940   -5.0088 O   0  0  0  0  0  0  0  0  0  0  0  0
   17.3674   70.2046   -3.5631 C   0  0  1  0  0  0  0  0  0  0  0  0
   17.4520   69.5390   -4.9203 C   0  0  2  0  0  0  0  0  0  0  0  0
   17.8272   71.6223   -3.8743 C   0  0  1  0  0  0  0  0  0  0  0  0
   17.0019   70.6550   -5.8475 C   0  0  2  0  0  0  0  0  0  0  0  0
   15.6931   69.3733   -2.9225 H   0  0  0  0  0  0  0  0  0  0  0  0
   16.9578   67.7128   -4.4001 H   0  0  0  0  0  0  0  0  0  0  0  0
   15.5716   70.7529   -8.2808 O   0  0  0  0  0  0  0  0  0  0  0  0
   19.4220   70.2996  -10.7734 O   0  0  0  0  0  0  0  0  0  0  0  0
   17.6056   70.5649   -7.1468 N   0  0  0  0  0  0  0  0  0  0  0  0
   17.4906   70.5260   -9.5199 N   0  0  0  0  0  0  0  0  0  0  0  0
   16.7971   70.6246   -8.3065 C   0  0  0  0  0  0  0  0  0  0  0  0
   18.9828   70.4209   -7.2633 C   0  0  0  0  0  0  0  0  0  0  0  0
   19.6295   70.3284   -8.4269 C   0  0  0  0  0  0  0  0  0  0  0  0
   18.8584   70.3813   -9.6862 C   0  0  0  0  0  0  0  0  0  0  0  0
   16.9487   70.5630  -10.3411 H   0  0  0  0  0  0  0  0  0  0  0  0
   22.0082   72.0689   -3.8548 O   0  0  0  0  0  0  0  0  0  0  0  0
   23.5110   72.1192   -3.2609 P   0  0  2  0  0  0  0  0  0  0  0  0
   24.3318   72.9255   -4.3994 O   0  0  0  0  0  0  0  0  0  0  0  0
   24.0842   70.7738   -2.9211 O   0  0  0  0  0  0  0  0  0  0  0  0
   23.4257   73.1439   -2.0178 O   0  0  0  0  0  0  0  0  0  0  0  0
   21.6654   72.5036   -0.5685 O   0  0  0  0  0  0  0  0  0  0  0  0
   23.0065   75.9773    1.2212 O   0  0  0  0  0  0  0  0  0  0  0  0
   22.7350   75.8172   -1.6832 O   0  0  0  0  0  0  0  0  0  0  0  0
   23.6787   73.3918    2.3675 O   0  0  0  0  0  0  0  0  0  0  0  0
   23.1240   74.7691    0.4700 C   0  0  2  0  0  0  0  0  0  0  0  0
   22.2330   74.8485   -0.7698 C   0  0  2  0  0  0  0  0  0  0  0  0
   22.6853   73.6097    1.3674 C   0  0  1  0  0  0  0  0  0  0  0  0
   22.1540   73.4935   -1.4745 C   0  0  1  0  0  0  0  0  0  0  0  0
   22.5078   72.3224    0.5675 C   0  0  1  0  0  0  0  0  0  0  0  0
   23.2800   76.7282    0.6710 H   0  0  0  0  0  0  0  0  0  0  0  0
   22.7880   76.6795   -1.2426 H   0  0  0  0  0  0  0  0  0  0  0  0
   23.8014   74.2038    2.8837 H   0  0  0  0  0  0  0  0  0  0  0  0
   21.2091   71.8604    2.4652 O   0  0  0  0  0  0  0  0  0  0  0  0
   21.6884   70.1121    1.0820 O   0  0  0  0  0  0  0  0  0  0  0  0
   21.7742   71.2968    1.3689 C   0  0  0  0  0  0  0  0  0  0  0  0
  1  4  1  0
  1 24  1  0
  1  2  1  1
  1  3  2  0
 25 28  1  0
 25 24  1  0
 25 26  1  6
 25 27  2  0
  6 11  1  0
  6 12  1  0
 29 36  1  0
 29 37  1  0
  9  7  1  6
  7 13  1  0
 10  8  1  1
  8 14  1  0
  4  5  1  0
 36 28  1  1
 33 30  1  1
 30 38  1  0
 34 31  1  6
 31 39  1  0
 35 32  1  1
 32 40  1  0
 41 43  1  0
 15 19  2  0
 42 43  2  0
 16 22  2  0
 12 17  1  6
 17 19  1  0
 17 20  1  0
 18 19  1  0
 18 22  1  0
 18 23  1  0
  9 10  1  0
  9 11  1  0
 10 12  1  0
 11  5  1  6
 33 34  1  0
 33 35  1  0
 34 36  1  0
 35 37  1  0
 37 43  1  1
 20 21  2  0
 21 22  1  0
M  CHG  3   2  -1  26  -1  41  -1
M  END
>  <COMPND>  (223) 
    udp_gluA.pdb 

>  <AUTHOR>  (223) 
    GENERATED BY OPEN BABEL 3.1.1

>  <MASTER>  (223) 
        0    0    0    0    0    0    0    0   56    0   56    0

>  <minimizedAffinity>  (223) 
-8.12323

>  <CNNscore>  (223) 
0.8845325708

>  <CNNaffinity>  (223) 
4.7005286217

>  <CNN_VS>  (223) 
4.1577706337

>  <CNNaffinity_variance>  (223) 
0.0758862793

$$$$
224
     RDKit          3D

 43 45  0  0  0  0  0  0  0  0999 V2000
   20.5830   73.5000   -3.0159 P   0  0  2  0  0  0  0  0  0  0  0  0
   20.0959   72.9618   -1.5695 O   0  0  0  0  0  0  0  0  0  0  0  0
   20.4944   74.9864   -3.2015 O   0  0  0  0  0  0  0  0  0  0  0  0
   19.7358   72.6088   -4.0675 O   0  0  0  0  0  0  0  0  0  0  0  0
   19.0854   71.4430   -3.5959 C   0  0  0  0  0  0  0  0  0  0  0  0
   17.3718   71.9990   -5.1871 O   0  0  0  0  0  0  0  0  0  0  0  0
   15.4664   70.5954   -3.3456 O   0  0  0  0  0  0  0  0  0  0  0  0
   15.9029   68.7299   -5.2861 O   0  0  0  0  0  0  0  0  0  0  0  0
   16.8241   70.2787   -3.6537 C   0  0  1  0  0  0  0  0  0  0  0  0
   16.9206   69.6777   -5.0399 C   0  0  2  0  0  0  0  0  0  0  0  0
   17.5856   71.5867   -3.8198 C   0  0  1  0  0  0  0  0  0  0  0  0
   16.8019   70.9065   -5.9253 C   0  0  2  0  0  0  0  0  0  0  0  0
   14.9598   69.7752   -3.2349 H   0  0  0  0  0  0  0  0  0  0  0  0
   16.0225   67.9670   -4.6982 H   0  0  0  0  0  0  0  0  0  0  0  0
   15.5644   70.6421   -8.4503 O   0  0  0  0  0  0  0  0  0  0  0  0
   19.6243   70.3492  -10.6126 O   0  0  0  0  0  0  0  0  0  0  0  0
   17.5116   70.7597   -7.1645 N   0  0  0  0  0  0  0  0  0  0  0  0
   17.5877   70.4955   -9.5247 N   0  0  0  0  0  0  0  0  0  0  0  0
   16.7947   70.6340   -8.3779 C   0  0  0  0  0  0  0  0  0  0  0  0
   18.9011   70.7429   -7.1702 C   0  0  0  0  0  0  0  0  0  0  0  0
   19.6431   70.6102   -8.2714 C   0  0  0  0  0  0  0  0  0  0  0  0
   18.9718   70.4725   -9.5805 C   0  0  0  0  0  0  0  0  0  0  0  0
   17.1110   70.4043  -10.3814 H   0  0  0  0  0  0  0  0  0  0  0  0
   22.0756   72.8931   -3.1450 O   0  0  0  0  0  0  0  0  0  0  0  0
   22.7288   71.5436   -2.5400 P   0  0  2  0  0  0  0  0  0  0  0  0
   24.1992   71.5091   -3.2161 O   0  0  0  0  0  0  0  0  0  0  0  0
   21.9117   70.3059   -2.7731 O   0  0  0  0  0  0  0  0  0  0  0  0
   23.0027   71.8823   -0.9867 O   0  0  0  0  0  0  0  0  0  0  0  0
   24.3123   70.9198    0.7360 O   0  0  0  0  0  0  0  0  0  0  0  0
   20.8461   71.8962    2.7609 O   0  0  0  0  0  0  0  0  0  0  0  0
   20.7193   70.7162    0.0914 O   0  0  0  0  0  0  0  0  0  0  0  0
   23.2350   73.5196    3.0903 O   0  0  0  0  0  0  0  0  0  0  0  0
   21.8619   72.0453    1.7689 C   0  0  2  0  0  0  0  0  0  0  0  0
   21.8988   70.7999    0.8829 C   0  0  2  0  0  0  0  0  0  0  0  0
   23.2009   72.2276    2.4870 C   0  0  1  0  0  0  0  0  0  0  0  0
   23.1177   70.8212   -0.0404 C   0  0  1  0  0  0  0  0  0  0  0  0
   24.3734   72.1109    1.5173 C   0  0  1  0  0  0  0  0  0  0  0  0
   19.9858   71.7789    2.3279 H   0  0  0  0  0  0  0  0  0  0  0  0
   19.9418   70.7025    0.6709 H   0  0  0  0  0  0  0  0  0  0  0  0
   22.4937   73.6069    3.7097 H   0  0  0  0  0  0  0  0  0  0  0  0
   26.0374   73.1405    2.8107 O   0  0  0  0  0  0  0  0  0  0  0  0
   26.2950   70.9201    2.3604 O   0  0  0  0  0  0  0  0  0  0  0  0
   25.6618   71.9602    2.2586 C   0  0  0  0  0  0  0  0  0  0  0  0
  1  4  1  0
  1 24  1  0
  1  2  1  1
  1  3  2  0
 25 28  1  0
 25 24  1  0
 25 26  1  6
 25 27  2  0
  6 11  1  0
  6 12  1  0
 29 36  1  0
 29 37  1  0
  9  7  1  6
  7 13  1  0
 10  8  1  6
  8 14  1  0
  4  5  1  0
 36 28  1  6
 33 30  1  1
 30 38  1  0
 34 31  1  6
 31 39  1  0
 35 32  1  6
 32 40  1  0
 41 43  1  0
 15 19  2  0
 42 43  2  0
 16 22  2  0
 12 17  1  6
 17 19  1  0
 17 20  1  0
 18 19  1  0
 18 22  1  0
 18 23  1  0
  9 10  1  0
  9 11  1  0
 10 12  1  0
 11  5  1  6
 33 34  1  0
 33 35  1  0
 34 36  1  0
 35 37  1  0
 37 43  1  1
 20 21  2  0
 21 22  1  0
M  CHG  3   2  -1  26  -1  41  -1
M  END
>  <COMPND>  (224) 
    udp_gluA.pdb 

>  <AUTHOR>  (224) 
    GENERATED BY OPEN BABEL 3.1.1

>  <MASTER>  (224) 
        0    0    0    0    0    0    0    0   56    0   56    0

>  <minimizedAffinity>  (224) 
-8.25889

>  <CNNscore>  (224) 
0.8710767031

>  <CNNaffinity>  (224) 
4.6824965477

>  <CNN_VS>  (224) 
4.0788135529

>  <CNNaffinity_variance>  (224) 
0.0693298429

$$$$
225
     RDKit          3D

 43 45  0  0  0  0  0  0  0  0999 V2000
   22.7650   71.8386   -3.6176 P   0  0  2  0  0  0  0  0  0  0  0  0
   23.5224   72.6902   -4.7664 O   0  0  0  0  0  0  0  0  0  0  0  0
   23.6301   70.8575   -2.8821 O   0  0  0  0  0  0  0  0  0  0  0  0
   21.4833   71.2114   -4.3802 O   0  0  0  0  0  0  0  0  0  0  0  0
   20.6969   70.2491   -3.7018 C   0  0  0  0  0  0  0  0  0  0  0  0
   18.8966   71.5122   -4.6720 O   0  0  0  0  0  0  0  0  0  0  0  0
   17.1677   70.3530   -2.5136 O   0  0  0  0  0  0  0  0  0  0  0  0
   16.5319   68.8174   -4.6755 O   0  0  0  0  0  0  0  0  0  0  0  0
   18.2477   69.7507   -3.2274 C   0  0  1  0  0  0  0  0  0  0  0  0
   17.8160   69.4040   -4.6365 C   0  0  2  0  0  0  0  0  0  0  0  0
   19.3036   70.8201   -3.4717 C   0  0  1  0  0  0  0  0  0  0  0  0
   17.8610   70.7587   -5.3225 C   0  0  2  0  0  0  0  0  0  0  0  0
   16.4803   69.6889   -2.3459 H   0  0  0  0  0  0  0  0  0  0  0  0
   16.5555   67.9573   -4.2264 H   0  0  0  0  0  0  0  0  0  0  0  0
   15.9438   70.3036   -7.3458 O   0  0  0  0  0  0  0  0  0  0  0  0
   19.1509   70.3781  -10.6553 O   0  0  0  0  0  0  0  0  0  0  0  0
   18.1675   70.6548   -6.7211 N   0  0  0  0  0  0  0  0  0  0  0  0
   17.5431   70.3401   -8.9921 N   0  0  0  0  0  0  0  0  0  0  0  0
   17.1304   70.4249   -7.6558 C   0  0  0  0  0  0  0  0  0  0  0  0
   19.4817   70.7819   -7.1545 C   0  0  0  0  0  0  0  0  0  0  0  0
   19.8596   70.6989   -8.4316 C   0  0  0  0  0  0  0  0  0  0  0  0
   18.8375   70.4593   -9.4715 C   0  0  0  0  0  0  0  0  0  0  0  0
   16.8390   70.1784   -9.6610 H   0  0  0  0  0  0  0  0  0  0  0  0
   22.1088   72.9867   -2.6880 O   0  0  0  0  0  0  0  0  0  0  0  0
   22.7911   74.0891   -1.7222 P   0  0  2  0  0  0  0  0  0  0  0  0
   21.8662   75.3988   -1.9446 O   0  0  0  0  0  0  0  0  0  0  0  0
   24.2530   74.3133   -1.9801 O   0  0  0  0  0  0  0  0  0  0  0  0
   22.4433   73.5943   -0.2266 O   0  0  0  0  0  0  0  0  0  0  0  0
   23.3001   71.5142    0.5139 O   0  0  0  0  0  0  0  0  0  0  0  0
   20.3624   72.2608    3.3212 O   0  0  0  0  0  0  0  0  0  0  0  0
   19.8768   72.7978    0.4910 O   0  0  0  0  0  0  0  0  0  0  0  0
   23.1632   72.6325    4.0058 O   0  0  0  0  0  0  0  0  0  0  0  0
   21.3834   72.5980    2.3821 C   0  0  2  0  0  0  0  0  0  0  0  0
   20.9961   72.0795    0.9969 C   0  0  2  0  0  0  0  0  0  0  0  0
   22.6880   71.9479    2.8482 C   0  0  1  0  0  0  0  0  0  0  0  0
   22.1611   72.2172    0.0158 C   0  0  1  0  0  0  0  0  0  0  0  0
   23.7619   72.0159    1.7662 C   0  0  1  0  0  0  0  0  0  0  0  0
   19.5237   72.6631    3.0456 H   0  0  0  0  0  0  0  0  0  0  0  0
   19.1339   72.7150    1.1087 H   0  0  0  0  0  0  0  0  0  0  0  0
   22.4889   72.5967    4.7021 H   0  0  0  0  0  0  0  0  0  0  0  0
   24.6428   69.8442    1.6698 O   0  0  0  0  0  0  0  0  0  0  0  0
   25.9299   71.4458    2.6585 O   0  0  0  0  0  0  0  0  0  0  0  0
   24.9017   71.1066    2.0921 C   0  0  0  0  0  0  0  0  0  0  0  0
  1  4  1  0
  1 24  1  0
  1  2  1  6
  1  3  2  0
 25 28  1  0
 25 24  1  0
 25 26  1  6
 25 27  2  0
  6 11  1  0
  6 12  1  0
 29 36  1  0
 29 37  1  0
  9  7  1  1
  7 13  1  0
 10  8  1  1
  8 14  1  0
  4  5  1  0
 36 28  1  1
 33 30  1  1
 30 38  1  0
 34 31  1  6
 31 39  1  0
 35 32  1  1
 32 40  1  0
 41 43  1  0
 15 19  2  0
 42 43  2  0
 16 22  2  0
 12 17  1  6
 17 19  1  0
 17 20  1  0
 18 19  1  0
 18 22  1  0
 18 23  1  0
  9 10  1  0
  9 11  1  0
 10 12  1  0
 11  5  1  6
 33 34  1  0
 33 35  1  0
 34 36  1  0
 35 37  1  0
 37 43  1  1
 20 21  2  0
 21 22  1  0
M  CHG  3   2  -1  26  -1  41  -1
M  END
>  <COMPND>  (225) 
    udp_gluA.pdb 

>  <AUTHOR>  (225) 
    GENERATED BY OPEN BABEL 3.1.1

>  <MASTER>  (225) 
        0    0    0    0    0    0    0    0   56    0   56    0

>  <minimizedAffinity>  (225) 
-8.03277

>  <CNNscore>  (225) 
0.8516818285

>  <CNNaffinity>  (225) 
4.6869192123

>  <CNN_VS>  (225) 
3.9917638302

>  <CNNaffinity_variance>  (225) 
0.0280289166

$$$$
226
     RDKit          3D

 43 45  0  0  0  0  0  0  0  0999 V2000
   20.4790   71.1585   -1.2852 P   0  0  2  0  0  0  0  0  0  0  0  0
   20.7972   70.4809    0.1495 O   0  0  0  0  0  0  0  0  0  0  0  0
   20.0381   72.5916   -1.2252 O   0  0  0  0  0  0  0  0  0  0  0  0
   19.4380   70.1315   -1.9776 O   0  0  0  0  0  0  0  0  0  0  0  0
   19.1356   70.2985   -3.3506 C   0  0  0  0  0  0  0  0  0  0  0  0
   17.5002   71.3952   -4.7291 O   0  0  0  0  0  0  0  0  0  0  0  0
   15.4404   69.8543   -3.1883 O   0  0  0  0  0  0  0  0  0  0  0  0
   15.6409   68.4295   -5.5047 O   0  0  0  0  0  0  0  0  0  0  0  0
   16.7483   69.4545   -3.5981 C   0  0  1  0  0  0  0  0  0  0  0  0
   16.7677   69.1703   -5.0851 C   0  0  2  0  0  0  0  0  0  0  0  0
   17.6643   70.6663   -3.4934 C   0  0  1  0  0  0  0  0  0  0  0  0
   16.7991   70.5706   -5.6734 C   0  0  2  0  0  0  0  0  0  0  0  0
   14.8371   69.0965   -3.2467 H   0  0  0  0  0  0  0  0  0  0  0  0
   15.6670   67.5461   -5.1035 H   0  0  0  0  0  0  0  0  0  0  0  0
   15.5228   70.4048   -8.1875 O   0  0  0  0  0  0  0  0  0  0  0  0
   19.5235   70.7705  -10.4468 O   0  0  0  0  0  0  0  0  0  0  0  0
   17.4831   70.6199   -6.9346 N   0  0  0  0  0  0  0  0  0  0  0  0
   17.5167   70.5860   -9.3103 N   0  0  0  0  0  0  0  0  0  0  0  0
   16.7482   70.5278   -8.1403 C   0  0  0  0  0  0  0  0  0  0  0  0
   18.8652   70.7594   -6.9690 C   0  0  0  0  0  0  0  0  0  0  0  0
   19.5839   70.8135   -8.0921 C   0  0  0  0  0  0  0  0  0  0  0  0
   18.8928   70.7236   -9.3950 C   0  0  0  0  0  0  0  0  0  0  0  0
   17.0274   70.5219  -10.1623 H   0  0  0  0  0  0  0  0  0  0  0  0
   21.8431   70.9080   -2.1155 O   0  0  0  0  0  0  0  0  0  0  0  0
   23.3057   71.5840   -1.9830 P   0  0  2  0  0  0  0  0  0  0  0  0
   24.2101   70.7120   -3.0038 O   0  0  0  0  0  0  0  0  0  0  0  0
   23.8347   71.6370   -0.5790 O   0  0  0  0  0  0  0  0  0  0  0  0
   23.1577   73.0228   -2.6974 O   0  0  0  0  0  0  0  0  0  0  0  0
   23.6832   73.2451   -4.9961 O   0  0  0  0  0  0  0  0  0  0  0  0
   23.7170   77.1812   -3.7416 O   0  0  0  0  0  0  0  0  0  0  0  0
   24.9164   75.0905   -2.0908 O   0  0  0  0  0  0  0  0  0  0  0  0
   21.4728   76.1597   -5.2815 O   0  0  0  0  0  0  0  0  0  0  0  0
   23.2950   75.8174   -3.7428 C   0  0  2  0  0  0  0  0  0  0  0  0
   24.4883   74.9122   -3.4361 C   0  0  2  0  0  0  0  0  0  0  0  0
   22.7277   75.4991   -5.1280 C   0  0  1  0  0  0  0  0  0  0  0  0
   24.1297   73.4416   -3.6538 C   0  0  1  0  0  0  0  0  0  0  0  0
   22.5151   73.9993   -5.3117 C   0  0  1  0  0  0  0  0  0  0  0  0
   24.0813   77.4064   -2.8711 H   0  0  0  0  0  0  0  0  0  0  0  0
   25.1453   76.0216   -1.9455 H   0  0  0  0  0  0  0  0  0  0  0  0
   21.5942   77.1152   -5.1667 H   0  0  0  0  0  0  0  0  0  0  0  0
   21.0362   74.0480   -7.1316 O   0  0  0  0  0  0  0  0  0  0  0  0
   23.0943   73.1336   -7.4881 O   0  0  0  0  0  0  0  0  0  0  0  0
   22.2810   73.6690   -6.7499 C   0  0  0  0  0  0  0  0  0  0  0  0
  1  4  1  0
  1 24  1  0
  1  2  1  1
  1  3  2  0
 25 28  1  0
 25 24  1  0
 25 26  1  6
 25 27  2  0
  6 11  1  0
  6 12  1  0
 29 36  1  0
 29 37  1  0
  9  7  1  6
  7 13  1  0
 10  8  1  6
  8 14  1  0
  4  5  1  0
 36 28  1  1
 33 30  1  6
 30 38  1  0
 34 31  1  1
 31 39  1  0
 35 32  1  1
 32 40  1  0
 41 43  1  0
 15 19  2  0
 42 43  2  0
 16 22  2  0
 12 17  1  6
 17 19  1  0
 17 20  1  0
 18 19  1  0
 18 22  1  0
 18 23  1  0
  9 10  1  0
  9 11  1  0
 10 12  1  0
 11  5  1  6
 33 34  1  0
 33 35  1  0
 34 36  1  0
 35 37  1  0
 37 43  1  6
 20 21  2  0
 21 22  1  0
M  CHG  3   2  -1  26  -1  41  -1
M  END
>  <COMPND>  (226) 
    udp_gluA.pdb 

>  <AUTHOR>  (226) 
    GENERATED BY OPEN BABEL 3.1.1

>  <MASTER>  (226) 
        0    0    0    0    0    0    0    0   56    0   56    0

>  <minimizedAffinity>  (226) 
-8.15884

>  <CNNscore>  (226) 
0.8201293349

>  <CNNaffinity>  (226) 
4.6154718399

>  <CNN_VS>  (226) 
3.7852838039

>  <CNNaffinity_variance>  (226) 
0.2829183936

$$$$
227
     RDKit          3D

 43 45  0  0  0  0  0  0  0  0999 V2000
   21.2381   72.9673   -3.0057 P   0  0  2  0  0  0  0  0  0  0  0  0
   21.0367   74.5581   -2.7872 O   0  0  0  0  0  0  0  0  0  0  0  0
   22.5476   72.5735   -3.6237 O   0  0  0  0  0  0  0  0  0  0  0  0
   19.9137   72.5160   -3.8182 O   0  0  0  0  0  0  0  0  0  0  0  0
   19.2614   71.3188   -3.4364 C   0  0  0  0  0  0  0  0  0  0  0  0
   17.4871   72.0009   -4.9075 O   0  0  0  0  0  0  0  0  0  0  0  0
   15.6392   70.5363   -3.0550 O   0  0  0  0  0  0  0  0  0  0  0  0
   15.9364   68.7750   -5.1155 O   0  0  0  0  0  0  0  0  0  0  0  0
   16.9724   70.2085   -3.4470 C   0  0  1  0  0  0  0  0  0  0  0  0
   16.9874   69.6852   -4.8676 C   0  0  2  0  0  0  0  0  0  0  0  0
   17.7564   71.5072   -3.5775 C   0  0  1  0  0  0  0  0  0  0  0  0
   16.8560   70.9646   -5.6763 C   0  0  2  0  0  0  0  0  0  0  0  0
   15.1188   69.7221   -2.9652 H   0  0  0  0  0  0  0  0  0  0  0  0
   16.0658   67.9776   -4.5777 H   0  0  0  0  0  0  0  0  0  0  0  0
   15.5398   70.2898   -8.0823 O   0  0  0  0  0  0  0  0  0  0  0  0
   19.4327   70.6436  -10.5245 O   0  0  0  0  0  0  0  0  0  0  0  0
   17.5015   70.8731   -6.9553 N   0  0  0  0  0  0  0  0  0  0  0  0
   17.4801   70.4657   -9.2962 N   0  0  0  0  0  0  0  0  0  0  0  0
   16.7492   70.5264   -8.1025 C   0  0  0  0  0  0  0  0  0  0  0  0
   18.8633   71.1268   -7.0647 C   0  0  0  0  0  0  0  0  0  0  0  0
   19.5462   71.0651   -8.2095 C   0  0  0  0  0  0  0  0  0  0  0  0
   18.8349   70.7088   -9.4547 C   0  0  0  0  0  0  0  0  0  0  0  0
   16.9783   70.2243  -10.1081 H   0  0  0  0  0  0  0  0  0  0  0  0
   20.9818   72.3629   -1.5286 O   0  0  0  0  0  0  0  0  0  0  0  0
   21.9200   71.4536   -0.5763 P   0  0  2  0  0  0  0  0  0  0  0  0
   22.8237   70.6231   -1.6317 O   0  0  0  0  0  0  0  0  0  0  0  0
   21.1631   70.5977    0.3976 O   0  0  0  0  0  0  0  0  0  0  0  0
   22.9448   72.4968    0.1048 O   0  0  0  0  0  0  0  0  0  0  0  0
   22.2625   73.5995    2.0866 O   0  0  0  0  0  0  0  0  0  0  0  0
   25.5156   75.8721    0.9375 O   0  0  0  0  0  0  0  0  0  0  0  0
   23.5800   74.9480   -1.0459 O   0  0  0  0  0  0  0  0  0  0  0  0
   25.7544   73.9924    3.1422 O   0  0  0  0  0  0  0  0  0  0  0  0
   24.7387   74.6817    1.0690 C   0  0  2  0  0  0  0  0  0  0  0  0
   23.3954   74.8667    0.3627 C   0  0  2  0  0  0  0  0  0  0  0  0
   24.5237   74.4197    2.5613 C   0  0  1  0  0  0  0  0  0  0  0  0
   22.4489   73.7067    0.6748 C   0  0  1  0  0  0  0  0  0  0  0  0
   23.4738   73.3364    2.7911 C   0  0  1  0  0  0  0  0  0  0  0  0
   25.6650   76.0588   -0.0028 H   0  0  0  0  0  0  0  0  0  0  0  0
   24.1798   75.6818   -1.2511 H   0  0  0  0  0  0  0  0  0  0  0  0
   26.4313   74.6730    3.0027 H   0  0  0  0  0  0  0  0  0  0  0  0
   23.1481   74.5517    4.7707 O   0  0  0  0  0  0  0  0  0  0  0  0
   22.6252   72.3327    4.8144 O   0  0  0  0  0  0  0  0  0  0  0  0
   23.0343   73.3181    4.2190 C   0  0  0  0  0  0  0  0  0  0  0  0
  1  4  1  0
  1 24  1  0
  1  2  1  1
  1  3  2  0
 25 28  1  0
 25 24  1  0
 25 26  1  6
 25 27  2  0
  6 11  1  0
  6 12  1  0
 29 36  1  0
 29 37  1  0
  9  7  1  6
  7 13  1  0
 10  8  1  1
  8 14  1  0
  4  5  1  0
 36 28  1  1
 33 30  1  1
 30 38  1  0
 34 31  1  6
 31 39  1  0
 35 32  1  6
 32 40  1  0
 41 43  1  0
 15 19  2  0
 42 43  2  0
 16 22  2  0
 12 17  1  6
 17 19  1  0
 17 20  1  0
 18 19  1  0
 18 22  1  0
 18 23  1  0
  9 10  1  0
  9 11  1  0
 10 12  1  0
 11  5  1  6
 33 34  1  0
 33 35  1  0
 34 36  1  0
 35 37  1  0
 37 43  1  1
 20 21  2  0
 21 22  1  0
M  CHG  3   2  -1  26  -1  41  -1
M  END
>  <COMPND>  (227) 
    udp_gluA.pdb 

>  <AUTHOR>  (227) 
    GENERATED BY OPEN BABEL 3.1.1

>  <MASTER>  (227) 
        0    0    0    0    0    0    0    0   56    0   56    0

>  <minimizedAffinity>  (227) 
-6.61976

>  <CNNscore>  (227) 
0.8091984987

>  <CNNaffinity>  (227) 
4.5430884361

>  <CNN_VS>  (227) 
3.6762602329

>  <CNNaffinity_variance>  (227) 
0.1098162308

$$$$
228
     RDKit          3D

 43 45  0  0  0  0  0  0  0  0999 V2000
   20.5225   71.2223   -1.4807 P   0  0  2  0  0  0  0  0  0  0  0  0
   21.2150   70.5709   -0.1712 O   0  0  0  0  0  0  0  0  0  0  0  0
   19.9304   72.5853   -1.2725 O   0  0  0  0  0  0  0  0  0  0  0  0
   19.4946   70.0794   -1.9858 O   0  0  0  0  0  0  0  0  0  0  0  0
   19.1256   70.0581   -3.3525 C   0  0  0  0  0  0  0  0  0  0  0  0
   17.5511   71.2840   -4.6925 O   0  0  0  0  0  0  0  0  0  0  0  0
   15.4121   69.8019   -3.2026 O   0  0  0  0  0  0  0  0  0  0  0  0
   15.5405   68.4468   -5.5655 O   0  0  0  0  0  0  0  0  0  0  0  0
   16.6979   69.3484   -3.6265 C   0  0  1  0  0  0  0  0  0  0  0  0
   16.7040   69.1135   -5.1221 C   0  0  2  0  0  0  0  0  0  0  0  0
   17.6756   70.5066   -3.4819 C   0  0  1  0  0  0  0  0  0  0  0  0
   16.8089   70.5291   -5.6633 C   0  0  2  0  0  0  0  0  0  0  0  0
   14.7702   69.0789   -3.2859 H   0  0  0  0  0  0  0  0  0  0  0  0
   15.5202   67.5504   -5.1941 H   0  0  0  0  0  0  0  0  0  0  0  0
   15.5371   70.3913   -8.1813 O   0  0  0  0  0  0  0  0  0  0  0  0
   19.5447   70.7526  -10.4292 O   0  0  0  0  0  0  0  0  0  0  0  0
   17.4959   70.5848   -6.9226 N   0  0  0  0  0  0  0  0  0  0  0  0
   17.5344   70.5704   -9.2984 N   0  0  0  0  0  0  0  0  0  0  0  0
   16.7631   70.5070   -8.1305 C   0  0  0  0  0  0  0  0  0  0  0  0
   18.8789   70.7167   -6.9530 C   0  0  0  0  0  0  0  0  0  0  0  0
   19.6003   70.7758   -8.0741 C   0  0  0  0  0  0  0  0  0  0  0  0
   18.9114   70.7006   -9.3791 C   0  0  0  0  0  0  0  0  0  0  0  0
   17.0466   70.5161  -10.1519 H   0  0  0  0  0  0  0  0  0  0  0  0
   21.7030   71.1623   -2.5833 O   0  0  0  0  0  0  0  0  0  0  0  0
   23.0367   72.0587   -2.7602 P   0  0  2  0  0  0  0  0  0  0  0  0
   24.1579   70.9728   -3.1894 O   0  0  0  0  0  0  0  0  0  0  0  0
   23.3958   72.8736   -1.5515 O   0  0  0  0  0  0  0  0  0  0  0  0
   22.7746   72.9232   -4.0967 O   0  0  0  0  0  0  0  0  0  0  0  0
   22.8822   75.2664   -4.4235 O   0  0  0  0  0  0  0  0  0  0  0  0
   19.9401   74.1771   -7.1115 O   0  0  0  0  0  0  0  0  0  0  0  0
   20.0154   72.9975   -4.4399 O   0  0  0  0  0  0  0  0  0  0  0  0
   22.6098   74.8331   -8.0567 O   0  0  0  0  0  0  0  0  0  0  0  0
   21.1312   74.0067   -6.3433 C   0  0  2  0  0  0  0  0  0  0  0  0
   20.7991   74.1104   -4.8545 C   0  0  2  0  0  0  0  0  0  0  0  0
   22.1157   75.1066   -6.7469 C   0  0  1  0  0  0  0  0  0  0  0  0
   22.0743   74.1630   -4.0119 C   0  0  1  0  0  0  0  0  0  0  0  0
   23.2978   75.1768   -5.7845 C   0  0  1  0  0  0  0  0  0  0  0  0
   19.2994   73.4890   -6.8720 H   0  0  0  0  0  0  0  0  0  0  0  0
   19.2048   72.9578   -4.9706 H   0  0  0  0  0  0  0  0  0  0  0  0
   21.8673   74.7857   -8.6790 H   0  0  0  0  0  0  0  0  0  0  0  0
   24.4898   76.9372   -4.7937 O   0  0  0  0  0  0  0  0  0  0  0  0
   24.2971   76.9605   -7.0655 O   0  0  0  0  0  0  0  0  0  0  0  0
   24.0695   76.4406   -5.9835 C   0  0  0  0  0  0  0  0  0  0  0  0
  1  4  1  0
  1 24  1  0
  1  2  1  1
  1  3  2  0
 25 28  1  0
 25 24  1  0
 25 26  1  6
 25 27  2  0
  6 11  1  0
  6 12  1  0
 29 36  1  0
 29 37  1  0
  9  7  1  6
  7 13  1  0
 10  8  1  6
  8 14  1  0
  4  5  1  0
 36 28  1  6
 33 30  1  6
 30 38  1  0
 34 31  1  1
 31 39  1  0
 35 32  1  6
 32 40  1  0
 41 43  1  0
 15 19  2  0
 42 43  2  0
 16 22  2  0
 12 17  1  6
 17 19  1  0
 17 20  1  0
 18 19  1  0
 18 22  1  0
 18 23  1  0
  9 10  1  0
  9 11  1  0
 10 12  1  0
 11  5  1  6
 33 34  1  0
 33 35  1  0
 34 36  1  0
 35 37  1  0
 37 43  1  6
 20 21  2  0
 21 22  1  0
M  CHG  3   2  -1  26  -1  41  -1
M  END
>  <COMPND>  (228) 
    udp_gluA.pdb 

>  <AUTHOR>  (228) 
    GENERATED BY OPEN BABEL 3.1.1

>  <MASTER>  (228) 
        0    0    0    0    0    0    0    0   56    0   56    0

>  <minimizedAffinity>  (228) 
-7.54568

>  <CNNscore>  (228) 
0.7845776081

>  <CNNaffinity>  (228) 
4.6140923500

>  <CNN_VS>  (228) 
3.6201136112

>  <CNNaffinity_variance>  (228) 
0.4668059945

$$$$
229
     RDKit          3D

 43 45  0  0  0  0  0  0  0  0999 V2000
   21.6073   72.0729   -5.6401 P   0  0  2  0  0  0  0  0  0  0  0  0
   23.1915   72.4021   -5.6105 O   0  0  0  0  0  0  0  0  0  0  0  0
   21.1291   71.1613   -4.5483 O   0  0  0  0  0  0  0  0  0  0  0  0
   21.3459   71.5568   -7.1512 O   0  0  0  0  0  0  0  0  0  0  0  0
   20.1553   71.9557   -7.8054 C   0  0  0  0  0  0  0  0  0  0  0  0
   19.0115   69.9017   -7.3048 O   0  0  0  0  0  0  0  0  0  0  0  0
   18.0228   69.9795  -10.1347 O   0  0  0  0  0  0  0  0  0  0  0  0
   15.8710   70.8868   -8.7265 O   0  0  0  0  0  0  0  0  0  0  0  0
   18.2447   71.0574   -9.2250 C   0  0  1  0  0  0  0  0  0  0  0  0
   17.1550   71.0895   -8.1744 C   0  0  2  0  0  0  0  0  0  0  0  0
   19.4775   70.7256   -8.3954 C   0  0  1  0  0  0  0  0  0  0  0  0
   17.5775   69.9626   -7.2473 C   0  0  2  0  0  0  0  0  0  0  0  0
   17.2398   70.1688  -10.6759 H   0  0  0  0  0  0  0  0  0  0  0  0
   15.6482   71.6308   -9.3086 H   0  0  0  0  0  0  0  0  0  0  0  0
   16.0422   68.1538   -5.7152 O   0  0  0  0  0  0  0  0  0  0  0  0
   16.0875   70.9408   -2.0444 O   0  0  0  0  0  0  0  0  0  0  0  0
   17.1739   70.1903   -5.8886 N   0  0  0  0  0  0  0  0  0  0  0  0
   16.0654   69.5440   -3.8887 N   0  0  0  0  0  0  0  0  0  0  0  0
   16.4035   69.2176   -5.2086 C   0  0  0  0  0  0  0  0  0  0  0  0
   17.5421   71.3646   -5.2433 C   0  0  0  0  0  0  0  0  0  0  0  0
   17.2124   71.6616   -3.9848 C   0  0  0  0  0  0  0  0  0  0  0  0
   16.4075   70.6991   -3.2043 C   0  0  0  0  0  0  0  0  0  0  0  0
   15.5274   68.8831   -3.3956 H   0  0  0  0  0  0  0  0  0  0  0  0
   20.9314   73.5413   -5.6356 O   0  0  0  0  0  0  0  0  0  0  0  0
   20.8037   74.6474   -4.4635 P   0  0  2  0  0  0  0  0  0  0  0  0
   19.2649   74.5010   -3.9828 O   0  0  0  0  0  0  0  0  0  0  0  0
   21.1914   76.0360   -4.8823 O   0  0  0  0  0  0  0  0  0  0  0  0
   21.6707   74.0503   -3.2411 O   0  0  0  0  0  0  0  0  0  0  0  0
   20.6887   73.0934   -1.3100 O   0  0  0  0  0  0  0  0  0  0  0  0
   24.4471   74.1081    0.0731 O   0  0  0  0  0  0  0  0  0  0  0  0
   22.9620   75.9358   -1.6557 O   0  0  0  0  0  0  0  0  0  0  0  0
   23.8104   71.3344   -0.5204 O   0  0  0  0  0  0  0  0  0  0  0  0
   23.4828   73.6920   -0.8939 C   0  0  2  0  0  0  0  0  0  0  0  0
   22.4124   74.7729   -1.0471 C   0  0  2  0  0  0  0  0  0  0  0  0
   22.8539   72.3861   -0.4029 C   0  0  1  0  0  0  0  0  0  0  0  0
   21.2450   74.2702   -1.8975 C   0  0  1  0  0  0  0  0  0  0  0  0
   21.6213   72.0182   -1.2238 C   0  0  1  0  0  0  0  0  0  0  0  0
   24.8600   74.9365   -0.2176 H   0  0  0  0  0  0  0  0  0  0  0  0
   23.7035   76.2600   -1.1215 H   0  0  0  0  0  0  0  0  0  0  0  0
   24.6000   71.5562   -0.0026 H   0  0  0  0  0  0  0  0  0  0  0  0
   19.7616   70.5908   -1.2973 O   0  0  0  0  0  0  0  0  0  0  0  0
   21.1117   70.4466    0.5345 O   0  0  0  0  0  0  0  0  0  0  0  0
   20.8337   70.9445   -0.5461 C   0  0  0  0  0  0  0  0  0  0  0  0
  1  4  1  0
  1 24  1  0
  1  2  1  1
  1  3  2  0
 25 28  1  0
 25 24  1  0
 25 26  1  1
 25 27  2  0
  6 11  1  0
  6 12  1  0
 29 36  1  0
 29 37  1  0
  9  7  1  6
  7 13  1  0
 10  8  1  6
  8 14  1  0
  4  5  1  0
 36 28  1  6
 33 30  1  1
 30 38  1  0
 34 31  1  6
 31 39  1  0
 35 32  1  6
 32 40  1  0
 41 43  1  0
 15 19  2  0
 42 43  2  0
 16 22  2  0
 12 17  1  1
 17 19  1  0
 17 20  1  0
 18 19  1  0
 18 22  1  0
 18 23  1  0
  9 10  1  0
  9 11  1  0
 10 12  1  0
 11  5  1  1
 33 34  1  0
 33 35  1  0
 34 36  1  0
 35 37  1  0
 37 43  1  1
 20 21  2  0
 21 22  1  0
M  CHG  3   2  -1  26  -1  41  -1
M  END
>  <COMPND>  (229) 
    udp_gluA.pdb 

>  <AUTHOR>  (229) 
    GENERATED BY OPEN BABEL 3.1.1

>  <MASTER>  (229) 
        0    0    0    0    0    0    0    0   56    0   56    0

>  <minimizedAffinity>  (229) 
-7.43037

>  <CNNscore>  (229) 
0.7779884934

>  <CNNaffinity>  (229) 
4.6558923721

>  <CNN_VS>  (229) 
3.6222307682

>  <CNNaffinity_variance>  (229) 
0.2282145023

$$$$
230
     RDKit          3D

 43 45  0  0  0  0  0  0  0  0999 V2000
   21.9439   72.4930   -5.9019 P   0  0  2  0  0  0  0  0  0  0  0  0
   21.2531   73.8760   -5.4232 O   0  0  0  0  0  0  0  0  0  0  0  0
   23.0971   72.6553   -6.8483 O   0  0  0  0  0  0  0  0  0  0  0  0
   20.7045   71.6089   -6.4497 O   0  0  0  0  0  0  0  0  0  0  0  0
   20.1089   71.9701   -7.6823 C   0  0  0  0  0  0  0  0  0  0  0  0
   18.9200   69.9331   -7.2188 O   0  0  0  0  0  0  0  0  0  0  0  0
   18.0730   69.9918  -10.0947 O   0  0  0  0  0  0  0  0  0  0  0  0
   15.8642   70.9354   -8.8036 O   0  0  0  0  0  0  0  0  0  0  0  0
   18.2613   71.0767   -9.1858 C   0  0  1  0  0  0  0  0  0  0  0  0
   17.1215   71.1307   -8.1907 C   0  0  2  0  0  0  0  0  0  0  0  0
   19.4480   70.7410   -8.2929 C   0  0  1  0  0  0  0  0  0  0  0  0
   17.4856   70.0092   -7.2329 C   0  0  2  0  0  0  0  0  0  0  0  0
   17.3198   70.1834  -10.6758 H   0  0  0  0  0  0  0  0  0  0  0  0
   15.6783   71.6756   -9.4033 H   0  0  0  0  0  0  0  0  0  0  0  0
   16.2384   68.0732   -5.5980 O   0  0  0  0  0  0  0  0  0  0  0  0
   15.7316   71.0644   -2.1282 O   0  0  0  0  0  0  0  0  0  0  0  0
   17.0179   70.2551   -5.8981 N   0  0  0  0  0  0  0  0  0  0  0  0
   15.9863   69.5651   -3.8718 N   0  0  0  0  0  0  0  0  0  0  0  0
   16.4050   69.2137   -5.1619 C   0  0  0  0  0  0  0  0  0  0  0  0
   17.1696   71.5146   -5.3310 C   0  0  0  0  0  0  0  0  0  0  0  0
   16.7655   71.8344   -4.1001 C   0  0  0  0  0  0  0  0  0  0  0  0
   16.1146   70.8039   -3.2647 C   0  0  0  0  0  0  0  0  0  0  0  0
   15.5548   68.8572   -3.3407 H   0  0  0  0  0  0  0  0  0  0  0  0
   22.3161   71.7706   -4.5046 O   0  0  0  0  0  0  0  0  0  0  0  0
   23.5104   72.0486   -3.4511 P   0  0  2  0  0  0  0  0  0  0  0  0
   24.4635   73.0929   -4.2396 O   0  0  0  0  0  0  0  0  0  0  0  0
   24.2119   70.8098   -2.9744 O   0  0  0  0  0  0  0  0  0  0  0  0
   22.8281   72.9241   -2.2805 O   0  0  0  0  0  0  0  0  0  0  0  0
   21.6407   71.6825   -0.6502 O   0  0  0  0  0  0  0  0  0  0  0  0
   20.5055   75.5519    0.2485 O   0  0  0  0  0  0  0  0  0  0  0  0
   20.6736   74.6654   -2.5300 O   0  0  0  0  0  0  0  0  0  0  0  0
   22.4444   74.1745    1.9202 O   0  0  0  0  0  0  0  0  0  0  0  0
   21.3832   74.5254   -0.2142 C   0  0  2  0  0  0  0  0  0  0  0  0
   20.7448   73.8027   -1.4007 C   0  0  2  0  0  0  0  0  0  0  0  0
   21.6186   73.5486    0.9400 C   0  0  1  0  0  0  0  0  0  0  0  0
   21.5456   72.5552   -1.7766 C   0  0  1  0  0  0  0  0  0  0  0  0
   22.3101   72.2757    0.4604 C   0  0  1  0  0  0  0  0  0  0  0  0
   20.3414   76.1847   -0.4683 H   0  0  0  0  0  0  0  0  0  0  0  0
   20.1671   75.4593   -2.2985 H   0  0  0  0  0  0  0  0  0  0  0  0
   22.0158   74.9861    2.2336 H   0  0  0  0  0  0  0  0  0  0  0  0
   21.5300   70.1444    1.0527 O   0  0  0  0  0  0  0  0  0  0  0  0
   22.7502   71.2757    2.6116 O   0  0  0  0  0  0  0  0  0  0  0  0
   22.2396   71.2084    1.5036 C   0  0  0  0  0  0  0  0  0  0  0  0
  1  4  1  0
  1 24  1  0
  1  2  1  1
  1  3  2  0
 25 28  1  0
 25 24  1  0
 25 26  1  6
 25 27  2  0
  6 11  1  0
  6 12  1  0
 29 36  1  0
 29 37  1  0
  9  7  1  6
  7 13  1  0
 10  8  1  6
  8 14  1  0
  4  5  1  0
 36 28  1  1
 33 30  1  1
 30 38  1  0
 34 31  1  6
 31 39  1  0
 35 32  1  1
 32 40  1  0
 41 43  1  0
 15 19  2  0
 42 43  2  0
 16 22  2  0
 12 17  1  1
 17 19  1  0
 17 20  1  0
 18 19  1  0
 18 22  1  0
 18 23  1  0
  9 10  1  0
  9 11  1  0
 10 12  1  0
 11  5  1  1
 33 34  1  0
 33 35  1  0
 34 36  1  0
 35 37  1  0
 37 43  1  1
 20 21  2  0
 21 22  1  0
M  CHG  3   2  -1  26  -1  41  -1
M  END
>  <COMPND>  (230) 
    udp_gluA.pdb 

>  <AUTHOR>  (230) 
    GENERATED BY OPEN BABEL 3.1.1

>  <MASTER>  (230) 
        0    0    0    0    0    0    0    0   56    0   56    0

>  <minimizedAffinity>  (230) 
-8.45980

>  <CNNscore>  (230) 
0.6608564258

>  <CNNaffinity>  (230) 
4.4596290588

>  <CNN_VS>  (230) 
2.9471745491

>  <CNNaffinity_variance>  (230) 
0.3908580542

$$$$
231
     RDKit          3D

 43 45  0  0  0  0  0  0  0  0999 V2000
   20.9881   71.7488   -1.5126 P   0  0  2  0  0  0  0  0  0  0  0  0
   20.7260   73.0405   -2.4517 O   0  0  0  0  0  0  0  0  0  0  0  0
   21.9835   70.7644   -2.0528 O   0  0  0  0  0  0  0  0  0  0  0  0
   19.5053   71.1659   -1.2310 O   0  0  0  0  0  0  0  0  0  0  0  0
   18.9646   70.2252   -2.1404 C   0  0  0  0  0  0  0  0  0  0  0  0
   17.6087   71.4996   -3.6620 O   0  0  0  0  0  0  0  0  0  0  0  0
   15.2967   69.8611   -2.6814 O   0  0  0  0  0  0  0  0  0  0  0  0
   15.8975   68.6781   -5.0637 O   0  0  0  0  0  0  0  0  0  0  0  0
   16.6541   69.4725   -2.8938 C   0  0  1  0  0  0  0  0  0  0  0  0
   16.9364   69.3427   -4.3756 C   0  0  2  0  0  0  0  0  0  0  0  0
   17.5449   70.6432   -2.5011 C   0  0  1  0  0  0  0  0  0  0  0  0
   17.0817   70.7949   -4.7973 C   0  0  2  0  0  0  0  0  0  0  0  0
   14.7085   69.1290   -2.9254 H   0  0  0  0  0  0  0  0  0  0  0  0
   15.8458   67.7576   -4.7602 H   0  0  0  0  0  0  0  0  0  0  0  0
   16.2736   71.4489   -7.4233 O   0  0  0  0  0  0  0  0  0  0  0  0
   20.6151   71.3892   -8.9698 O   0  0  0  0  0  0  0  0  0  0  0  0
   17.9800   70.9564   -5.9054 N   0  0  0  0  0  0  0  0  0  0  0  0
   18.4365   71.4176   -8.1913 N   0  0  0  0  0  0  0  0  0  0  0  0
   17.4715   71.2854   -7.1842 C   0  0  0  0  0  0  0  0  0  0  0  0
   19.3472   70.7912   -5.7197 C   0  0  0  0  0  0  0  0  0  0  0  0
   20.2548   70.9205   -6.6893 C   0  0  0  0  0  0  0  0  0  0  0  0
   19.8066   71.2623   -8.0552 C   0  0  0  0  0  0  0  0  0  0  0  0
   18.1063   71.6442   -9.0906 H   0  0  0  0  0  0  0  0  0  0  0  0
   21.3949   72.4081   -0.0939 O   0  0  0  0  0  0  0  0  0  0  0  0
   21.5118   71.7606    1.3828 P   0  0  2  0  0  0  0  0  0  0  0  0
   21.5716   70.1705    1.0857 O   0  0  0  0  0  0  0  0  0  0  0  0
   20.4176   72.1731    2.3244 O   0  0  0  0  0  0  0  0  0  0  0  0
   22.9996   72.1384    1.8788 O   0  0  0  0  0  0  0  0  0  0  0  0
   24.5679   73.5480    0.8005 O   0  0  0  0  0  0  0  0  0  0  0  0
   27.0420   70.9491    2.8481 O   0  0  0  0  0  0  0  0  0  0  0  0
   24.6703   69.9539    1.4629 O   0  0  0  0  0  0  0  0  0  0  0  0
   26.6407   73.6571    3.8261 O   0  0  0  0  0  0  0  0  0  0  0  0
   25.8617   71.7201    2.6235 C   0  0  2  0  0  0  0  0  0  0  0  0
   25.1955   71.2690    1.3235 C   0  0  2  0  0  0  0  0  0  0  0  0
   26.2692   73.1922    2.5298 C   0  0  1  0  0  0  0  0  0  0  0  0
   24.0627   72.2186    0.9311 C   0  0  1  0  0  0  0  0  0  0  0  0
   25.1226   74.0557    2.0120 C   0  0  1  0  0  0  0  0  0  0  0  0
   26.8077   70.0097    2.9111 H   0  0  0  0  0  0  0  0  0  0  0  0
   25.3836   69.3461    1.7121 H   0  0  0  0  0  0  0  0  0  0  0  0
   27.3697   73.1157    4.1671 H   0  0  0  0  0  0  0  0  0  0  0  0
   25.1921   75.7242    0.3649 O   0  0  0  0  0  0  0  0  0  0  0  0
   26.3033   76.1383    2.3124 O   0  0  0  0  0  0  0  0  0  0  0  0
   25.6155   75.4089    1.6140 C   0  0  0  0  0  0  0  0  0  0  0  0
  1  4  1  0
  1 24  1  0
  1  2  1  6
  1  3  2  0
 25 28  1  0
 25 24  1  0
 25 26  1  6
 25 27  2  0
  6 11  1  0
  6 12  1  0
 29 36  1  0
 29 37  1  0
  9  7  1  6
  7 13  1  0
 10  8  1  6
  8 14  1  0
  4  5  1  0
 36 28  1  1
 33 30  1  6
 30 38  1  0
 34 31  1  1
 31 39  1  0
 35 32  1  1
 32 40  1  0
 41 43  1  0
 15 19  2  0
 42 43  2  0
 16 22  2  0
 12 17  1  6
 17 19  1  0
 17 20  1  0
 18 19  1  0
 18 22  1  0
 18 23  1  0
  9 10  1  0
  9 11  1  0
 10 12  1  0
 11  5  1  6
 33 34  1  0
 33 35  1  0
 34 36  1  0
 35 37  1  0
 37 43  1  6
 20 21  2  0
 21 22  1  0
M  CHG  3   2  -1  26  -1  41  -1
M  END
>  <COMPND>  (231) 
    udp_gluA.pdb 

>  <AUTHOR>  (231) 
    GENERATED BY OPEN BABEL 3.1.1

>  <MASTER>  (231) 
        0    0    0    0    0    0    0    0   56    0   56    0

>  <minimizedAffinity>  (231) 
-7.10457

>  <CNNscore>  (231) 
0.6490358710

>  <CNNaffinity>  (231) 
4.4595518112

>  <CNN_VS>  (231) 
2.8944091797

>  <CNNaffinity_variance>  (231) 
0.0523631088

$$$$
232
     RDKit          3D

 43 45  0  0  0  0  0  0  0  0999 V2000
   20.3696   74.3759   -3.6921 P   0  0  2  0  0  0  0  0  0  0  0  0
   20.1589   75.9625   -3.9311 O   0  0  0  0  0  0  0  0  0  0  0  0
   19.1042   73.5726   -3.6197 O   0  0  0  0  0  0  0  0  0  0  0  0
   21.3239   74.3029   -2.3875 O   0  0  0  0  0  0  0  0  0  0  0  0
   21.0025   75.1089   -1.2688 C   0  0  0  0  0  0  0  0  0  0  0  0
   20.4872   73.0374   -0.1638 O   0  0  0  0  0  0  0  0  0  0  0  0
   18.5241   74.6110    1.4676 O   0  0  0  0  0  0  0  0  0  0  0  0
   20.6437   74.3602    3.1648 O   0  0  0  0  0  0  0  0  0  0  0  0
   19.8059   75.0003    0.9737 C   0  0  1  0  0  0  0  0  0  0  0  0
   20.9019   74.3321    1.7766 C   0  0  2  0  0  0  0  0  0  0  0  0
   19.9901   74.3724   -0.4010 C   0  0  1  0  0  0  0  0  0  0  0  0
   20.8945   72.9230    1.2089 C   0  0  2  0  0  0  0  0  0  0  0  0
   18.3835   75.0003    2.3453 H   0  0  0  0  0  0  0  0  0  0  0  0
   20.6594   75.2787    3.4780 H   0  0  0  0  0  0  0  0  0  0  0  0
   21.3444   70.1448    0.9726 O   0  0  0  0  0  0  0  0  0  0  0  0
   25.9020   70.6594    1.4271 O   0  0  0  0  0  0  0  0  0  0  0  0
   22.1886   72.3040    1.2619 N   0  0  0  0  0  0  0  0  0  0  0  0
   23.6138   70.4036    1.2002 N   0  0  0  0  0  0  0  0  0  0  0  0
   22.3052   70.8998    1.1328 C   0  0  0  0  0  0  0  0  0  0  0  0
   23.3243   73.0850    1.4381 C   0  0  0  0  0  0  0  0  0  0  0  0
   24.5651   72.5977    1.5002 C   0  0  0  0  0  0  0  0  0  0  0  0
   24.7741   71.1404    1.3749 C   0  0  0  0  0  0  0  0  0  0  0  0
   23.7201   69.4286    1.1149 H   0  0  0  0  0  0  0  0  0  0  0  0
   21.3653   73.9569   -4.8945 O   0  0  0  0  0  0  0  0  0  0  0  0
   21.7124   72.5116   -5.5303 P   0  0  2  0  0  0  0  0  0  0  0  0
   21.8465   71.5578   -4.2293 O   0  0  0  0  0  0  0  0  0  0  0  0
   22.9162   72.5065   -6.4274 O   0  0  0  0  0  0  0  0  0  0  0  0
   20.3445   72.0386   -6.2427 O   0  0  0  0  0  0  0  0  0  0  0  0
   19.5271   69.9164   -5.5815 O   0  0  0  0  0  0  0  0  0  0  0  0
   17.1666   70.7389   -8.8708 O   0  0  0  0  0  0  0  0  0  0  0  0
   20.0265   71.3337   -8.9144 O   0  0  0  0  0  0  0  0  0  0  0  0
   16.0719   70.9907   -6.1895 O   0  0  0  0  0  0  0  0  0  0  0  0
   17.9392   71.0487   -7.7110 C   0  0  2  0  0  0  0  0  0  0  0  0
   19.3760   70.5651   -7.9090 C   0  0  2  0  0  0  0  0  0  0  0  0
   17.2997   70.3414   -6.5140 C   0  0  1  0  0  0  0  0  0  0  0  0
   20.1729   70.6705   -6.6080 C   0  0  1  0  0  0  0  0  0  0  0  0
   18.2112   70.3821   -5.2908 C   0  0  1  0  0  0  0  0  0  0  0  0
   17.5543   71.1776   -9.6444 H   0  0  0  0  0  0  0  0  0  0  0  0
   19.5260   71.2716   -9.7427 H   0  0  0  0  0  0  0  0  0  0  0  0
   15.4827   70.9718   -6.9599 H   0  0  0  0  0  0  0  0  0  0  0  0
   16.6984   68.6876   -4.7065 O   0  0  0  0  0  0  0  0  0  0  0  0
   18.2212   69.3119   -3.1284 O   0  0  0  0  0  0  0  0  0  0  0  0
   17.7395   69.4243   -4.2457 C   0  0  0  0  0  0  0  0  0  0  0  0
  1  4  1  0
  1 24  1  0
  1  2  1  6
  1  3  2  0
 25 28  1  0
 25 24  1  0
 25 26  1  1
 25 27  2  0
  6 11  1  0
  6 12  1  0
 29 36  1  0
 29 37  1  0
  9  7  1  1
  7 13  1  0
 10  8  1  1
  8 14  1  0
  4  5  1  0
 36 28  1  1
 33 30  1  6
 30 38  1  0
 34 31  1  6
 31 39  1  0
 35 32  1  1
 32 40  1  0
 41 43  1  0
 15 19  2  0
 42 43  2  0
 16 22  2  0
 12 17  1  6
 17 19  1  0
 17 20  1  0
 18 19  1  0
 18 22  1  0
 18 23  1  0
  9 10  1  0
  9 11  1  0
 10 12  1  0
 11  5  1  6
 33 34  1  0
 33 35  1  0
 34 36  1  0
 35 37  1  0
 37 43  1  1
 20 21  2  0
 21 22  1  0
M  CHG  3   2  -1  26  -1  41  -1
M  END
>  <COMPND>  (232) 
    udp_gluA.pdb 

>  <AUTHOR>  (232) 
    GENERATED BY OPEN BABEL 3.1.1

>  <MASTER>  (232) 
        0    0    0    0    0    0    0    0   56    0   56    0

>  <minimizedAffinity>  (232) 
-6.98032

>  <CNNscore>  (232) 
0.6447255611

>  <CNNaffinity>  (232) 
4.5428862572

>  <CNN_VS>  (232) 
2.9289147854

>  <CNNaffinity_variance>  (232) 
0.0774281472

$$$$
233
     RDKit          3D

 43 45  0  0  0  0  0  0  0  0999 V2000
   20.6073   71.8117   -0.8028 P   0  0  2  0  0  0  0  0  0  0  0  0
   20.8863   70.5505    0.1721 O   0  0  0  0  0  0  0  0  0  0  0  0
   19.4895   72.7135   -0.3679 O   0  0  0  0  0  0  0  0  0  0  0  0
   20.4409   71.1421   -2.2663 O   0  0  0  0  0  0  0  0  0  0  0  0
   20.3102   71.9948   -3.3890 C   0  0  0  0  0  0  0  0  0  0  0  0
   20.7436   70.7036   -5.3696 O   0  0  0  0  0  0  0  0  0  0  0  0
   23.1401   72.4617   -5.7664 O   0  0  0  0  0  0  0  0  0  0  0  0
   21.3298   73.5196   -7.5099 O   0  0  0  0  0  0  0  0  0  0  0  0
   21.8516   72.7937   -5.2487 C   0  0  1  0  0  0  0  0  0  0  0  0
   20.8350   72.8497   -6.3693 C   0  0  2  0  0  0  0  0  0  0  0  0
   21.3561   71.6109   -4.4279 C   0  0  1  0  0  0  0  0  0  0  0  0
   20.5676   71.3765   -6.6264 C   0  0  2  0  0  0  0  0  0  0  0  0
   23.4774   73.2026   -6.2947 H   0  0  0  0  0  0  0  0  0  0  0  0
   21.4837   74.4534   -7.2950 H   0  0  0  0  0  0  0  0  0  0  0  0
   19.9232   69.6383   -8.7570 O   0  0  0  0  0  0  0  0  0  0  0  0
   15.4187   70.5325   -8.3653 O   0  0  0  0  0  0  0  0  0  0  0  0
   19.2345   71.1364   -7.1019 N   0  0  0  0  0  0  0  0  0  0  0  0
   17.6804   70.0861   -8.5606 N   0  0  0  0  0  0  0  0  0  0  0  0
   19.0192   70.2443   -8.1788 C   0  0  0  0  0  0  0  0  0  0  0  0
   18.1581   71.7792   -6.5026 C   0  0  0  0  0  0  0  0  0  0  0  0
   16.8875   71.6182   -6.8774 C   0  0  0  0  0  0  0  0  0  0  0  0
   16.5764   70.7038   -7.9957 C   0  0  0  0  0  0  0  0  0  0  0  0
   17.5057   69.4715   -9.3096 H   0  0  0  0  0  0  0  0  0  0  0  0
   22.0537   72.5276   -0.8930 O   0  0  0  0  0  0  0  0  0  0  0  0
   22.6000   73.9026   -0.2414 P   0  0  2  0  0  0  0  0  0  0  0  0
   21.4596   74.9798   -0.6408 O   0  0  0  0  0  0  0  0  0  0  0  0
   23.9868   74.2809   -0.6745 O   0  0  0  0  0  0  0  0  0  0  0  0
   22.4278   73.6983    1.3495 O   0  0  0  0  0  0  0  0  0  0  0  0
   24.4866   73.0171    2.3015 O   0  0  0  0  0  0  0  0  0  0  0  0
   21.9722   72.9197    5.5781 O   0  0  0  0  0  0  0  0  0  0  0  0
   21.0717   71.9077    2.9898 O   0  0  0  0  0  0  0  0  0  0  0  0
   23.8742   75.0954    5.2626 O   0  0  0  0  0  0  0  0  0  0  0  0
   22.4561   73.3907    4.3203 C   0  0  2  0  0  0  0  0  0  0  0  0
   22.4168   72.2539    3.2987 C   0  0  2  0  0  0  0  0  0  0  0  0
   23.8930   73.8784    4.5190 C   0  0  1  0  0  0  0  0  0  0  0  0
   23.1373   72.6517    2.0097 C   0  0  1  0  0  0  0  0  0  0  0  0
   24.5843   74.1338    3.1828 C   0  0  1  0  0  0  0  0  0  0  0  0
   21.0603   72.6045    5.4765 H   0  0  0  0  0  0  0  0  0  0  0  0
   20.6085   71.6545    3.8033 H   0  0  0  0  0  0  0  0  0  0  0  0
   23.4366   74.9466    6.1153 H   0  0  0  0  0  0  0  0  0  0  0  0
   26.4919   75.4514    2.8271 O   0  0  0  0  0  0  0  0  0  0  0  0
   26.7819   73.4785    3.9329 O   0  0  0  0  0  0  0  0  0  0  0  0
   26.0589   74.2862    3.3691 C   0  0  0  0  0  0  0  0  0  0  0  0
  1  4  1  0
  1 24  1  0
  1  2  1  1
  1  3  2  0
 25 28  1  0
 25 24  1  0
 25 26  1  6
 25 27  2  0
  6 11  1  0
  6 12  1  0
 29 36  1  0
 29 37  1  0
  9  7  1  6
  7 13  1  0
 10  8  1  6
  8 14  1  0
  4  5  1  0
 36 28  1  1
 33 30  1  1
 30 38  1  0
 34 31  1  6
 31 39  1  0
 35 32  1  1
 32 40  1  0
 41 43  1  0
 15 19  2  0
 42 43  2  0
 16 22  2  0
 12 17  1  1
 17 19  1  0
 17 20  1  0
 18 19  1  0
 18 22  1  0
 18 23  1  0
  9 10  1  0
  9 11  1  0
 10 12  1  0
 11  5  1  1
 33 34  1  0
 33 35  1  0
 34 36  1  0
 35 37  1  0
 37 43  1  1
 20 21  2  0
 21 22  1  0
M  CHG  3   2  -1  26  -1  41  -1
M  END
>  <COMPND>  (233) 
    udp_gluA.pdb 

>  <AUTHOR>  (233) 
    GENERATED BY OPEN BABEL 3.1.1

>  <MASTER>  (233) 
        0    0    0    0    0    0    0    0   56    0   56    0

>  <minimizedAffinity>  (233) 
-7.01908

>  <CNNscore>  (233) 
0.6252186894

>  <CNNaffinity>  (233) 
4.1901307106

>  <CNN_VS>  (233) 
2.6197481155

>  <CNNaffinity_variance>  (233) 
0.0985536873

$$$$
234
     RDKit          3D

 43 45  0  0  0  0  0  0  0  0999 V2000
   23.3839   71.8487   -3.3281 P   0  0  2  0  0  0  0  0  0  0  0  0
   24.0989   73.0030   -4.2085 O   0  0  0  0  0  0  0  0  0  0  0  0
   24.2724   70.7012   -2.9464 O   0  0  0  0  0  0  0  0  0  0  0  0
   22.0686   71.4630   -4.1879 O   0  0  0  0  0  0  0  0  0  0  0  0
   21.6094   72.3763   -5.1675 C   0  0  0  0  0  0  0  0  0  0  0  0
   20.5546   70.4410   -6.1265 O   0  0  0  0  0  0  0  0  0  0  0  0
   20.7151   71.8838   -8.7502 O   0  0  0  0  0  0  0  0  0  0  0  0
   18.1159   72.2649   -8.0187 O   0  0  0  0  0  0  0  0  0  0  0  0
   20.4742   72.4077   -7.4441 C   0  0  1  0  0  0  0  0  0  0  0  0
   19.0686   72.0694   -6.9946 C   0  0  2  0  0  0  0  0  0  0  0  0
   21.3231   71.6180   -6.4572 C   0  0  1  0  0  0  0  0  0  0  0  0
   19.2077   70.6100   -6.5961 C   0  0  2  0  0  0  0  0  0  0  0  0
   20.1835   72.3727   -9.3982 H   0  0  0  0  0  0  0  0  0  0  0  0
   18.0644   73.2093   -8.2363 H   0  0  0  0  0  0  0  0  0  0  0  0
   16.5396   69.7861   -7.0193 O   0  0  0  0  0  0  0  0  0  0  0  0
   15.8091   69.2095   -2.5051 O   0  0  0  0  0  0  0  0  0  0  0  0
   18.2981   70.2388   -5.5492 N   0  0  0  0  0  0  0  0  0  0  0  0
   16.1780   69.5006   -4.7705 N   0  0  0  0  0  0  0  0  0  0  0  0
   16.9788   69.8399   -5.8690 C   0  0  0  0  0  0  0  0  0  0  0  0
   18.7156   70.2703   -4.2242 C   0  0  0  0  0  0  0  0  0  0  0  0
   17.9409   69.9440   -3.1879 C   0  0  0  0  0  0  0  0  0  0  0  0
   16.5481   69.5170   -3.4355 C   0  0  0  0  0  0  0  0  0  0  0  0
   15.2547   69.2217   -4.9680 H   0  0  0  0  0  0  0  0  0  0  0  0
   22.7727   72.6718   -2.0784 O   0  0  0  0  0  0  0  0  0  0  0  0
   21.3975   72.4783   -1.2506 P   0  0  2  0  0  0  0  0  0  0  0  0
   21.1672   70.8764   -1.2854 O   0  0  0  0  0  0  0  0  0  0  0  0
   20.2433   73.2806   -1.7779 O   0  0  0  0  0  0  0  0  0  0  0  0
   21.7925   72.7997    0.2801 O   0  0  0  0  0  0  0  0  0  0  0  0
   23.1439   74.2546    1.5709 O   0  0  0  0  0  0  0  0  0  0  0  0
   24.3151   70.5507    2.9771 O   0  0  0  0  0  0  0  0  0  0  0  0
   23.8933   70.9840    0.1189 O   0  0  0  0  0  0  0  0  0  0  0  0
   22.5602   72.2298    4.5745 O   0  0  0  0  0  0  0  0  0  0  0  0
   23.4092   71.5127    2.4368 C   0  0  2  0  0  0  0  0  0  0  0  0
   23.9399   72.0183    1.0950 C   0  0  2  0  0  0  0  0  0  0  0  0
   23.2961   72.6680    3.4339 C   0  0  1  0  0  0  0  0  0  0  0  0
   23.1213   73.2103    0.5971 C   0  0  1  0  0  0  0  0  0  0  0  0
   22.5767   73.8655    2.8198 C   0  0  1  0  0  0  0  0  0  0  0  0
   24.4029   69.8069    2.3603 H   0  0  0  0  0  0  0  0  0  0  0  0
   24.4104   70.2243    0.4285 H   0  0  0  0  0  0  0  0  0  0  0  0
   23.0075   71.4678    4.9747 H   0  0  0  0  0  0  0  0  0  0  0  0
   23.5059   76.0102    3.0151 O   0  0  0  0  0  0  0  0  0  0  0  0
   22.2984   75.2346    4.7869 O   0  0  0  0  0  0  0  0  0  0  0  0
   22.7584   75.0840    3.6650 C   0  0  0  0  0  0  0  0  0  0  0  0
  1  4  1  0
  1 24  1  0
  1  2  1  6
  1  3  2  0
 25 28  1  0
 25 24  1  0
 25 26  1  1
 25 27  2  0
  6 11  1  0
  6 12  1  0
 29 36  1  0
 29 37  1  0
  9  7  1  6
  7 13  1  0
 10  8  1  6
  8 14  1  0
  4  5  1  0
 36 28  1  1
 33 30  1  1
 30 38  1  0
 34 31  1  6
 31 39  1  0
 35 32  1  1
 32 40  1  0
 41 43  1  0
 15 19  2  0
 42 43  2  0
 16 22  2  0
 12 17  1  1
 17 19  1  0
 17 20  1  0
 18 19  1  0
 18 22  1  0
 18 23  1  0
  9 10  1  0
  9 11  1  0
 10 12  1  0
 11  5  1  1
 33 34  1  0
 33 35  1  0
 34 36  1  0
 35 37  1  0
 37 43  1  1
 20 21  2  0
 21 22  1  0
M  CHG  3   2  -1  26  -1  41  -1
M  END
>  <COMPND>  (234) 
    udp_gluA.pdb 

>  <AUTHOR>  (234) 
    GENERATED BY OPEN BABEL 3.1.1

>  <MASTER>  (234) 
        0    0    0    0    0    0    0    0   56    0   56    0

>  <minimizedAffinity>  (234) 
-7.57451

>  <CNNscore>  (234) 
0.6235404015

>  <CNNaffinity>  (234) 
4.3947038651

>  <CNN_VS>  (234) 
2.7402753830

>  <CNNaffinity_variance>  (234) 
0.1220760792

$$$$
235
     RDKit          3D

 43 45  0  0  0  0  0  0  0  0999 V2000
   20.3144   71.2666   -1.5501 P   0  0  2  0  0  0  0  0  0  0  0  0
   21.7517   70.5241   -1.5093 O   0  0  0  0  0  0  0  0  0  0  0  0
   19.1966   70.4519   -2.1320 O   0  0  0  0  0  0  0  0  0  0  0  0
   20.6228   72.6695   -2.2948 O   0  0  0  0  0  0  0  0  0  0  0  0
   20.2491   72.8103   -3.6532 C   0  0  0  0  0  0  0  0  0  0  0  0
   20.6621   71.0914   -5.2818 O   0  0  0  0  0  0  0  0  0  0  0  0
   23.1902   72.5692   -5.9269 O   0  0  0  0  0  0  0  0  0  0  0  0
   21.5247   73.3269   -7.9488 O   0  0  0  0  0  0  0  0  0  0  0  0
   21.9104   73.0851   -5.5603 C   0  0  1  0  0  0  0  0  0  0  0  0
   20.9421   72.9557   -6.7170 C   0  0  2  0  0  0  0  0  0  0  0  0
   21.3025   72.1443   -4.5290 C   0  0  1  0  0  0  0  0  0  0  0  0
   20.5804   71.4812   -6.6619 C   0  0  2  0  0  0  0  0  0  0  0  0
   23.5984   73.1537   -6.5852 H   0  0  0  0  0  0  0  0  0  0  0  0
   21.7365   74.2739   -7.9339 H   0  0  0  0  0  0  0  0  0  0  0  0
   19.9440   69.5891   -8.6597 O   0  0  0  0  0  0  0  0  0  0  0  0
   15.4491   70.5810   -8.4246 O   0  0  0  0  0  0  0  0  0  0  0  0
   19.2519   71.2246   -7.1418 N   0  0  0  0  0  0  0  0  0  0  0  0
   17.7060   70.0856   -8.5414 N   0  0  0  0  0  0  0  0  0  0  0  0
   19.0404   70.2531   -8.1484 C   0  0  0  0  0  0  0  0  0  0  0  0
   18.1762   71.9296   -6.6156 C   0  0  0  0  0  0  0  0  0  0  0  0
   16.9098   71.7589   -7.0002 C   0  0  0  0  0  0  0  0  0  0  0  0
   16.6029   70.7634   -8.0481 C   0  0  0  0  0  0  0  0  0  0  0  0
   17.5341   69.4161   -9.2425 H   0  0  0  0  0  0  0  0  0  0  0  0
   20.0926   71.7127   -0.0123 O   0  0  0  0  0  0  0  0  0  0  0  0
   21.1498   71.9438    1.1888 P   0  0  2  0  0  0  0  0  0  0  0  0
   21.9954   70.5636    1.2080 O   0  0  0  0  0  0  0  0  0  0  0  0
   20.5194   72.3012    2.5037 O   0  0  0  0  0  0  0  0  0  0  0  0
   22.1815   73.0456    0.6196 O   0  0  0  0  0  0  0  0  0  0  0  0
   23.7882   72.8967   -1.1141 O   0  0  0  0  0  0  0  0  0  0  0  0
   25.6172   75.5171    1.5042 O   0  0  0  0  0  0  0  0  0  0  0  0
   24.2216   73.1547    2.5070 O   0  0  0  0  0  0  0  0  0  0  0  0
   24.3985   76.5105   -0.9410 O   0  0  0  0  0  0  0  0  0  0  0  0
   24.5182   74.8928    0.8406 C   0  0  2  0  0  0  0  0  0  0  0  0
   24.5260   73.3931    1.1376 C   0  0  2  0  0  0  0  0  0  0  0  0
   24.6718   75.1386   -0.6621 C   0  0  1  0  0  0  0  0  0  0  0  0
   23.5077   72.6573    0.2656 C   0  0  1  0  0  0  0  0  0  0  0  0
   23.7066   74.2752   -1.4693 C   0  0  1  0  0  0  0  0  0  0  0  0
   25.5410   75.3742    2.4608 H   0  0  0  0  0  0  0  0  0  0  0  0
   24.8637   73.6189    3.0661 H   0  0  0  0  0  0  0  0  0  0  0  0
   25.0060   77.0709   -0.4332 H   0  0  0  0  0  0  0  0  0  0  0  0
   24.4507   73.0284   -3.3114 O   0  0  0  0  0  0  0  0  0  0  0  0
   24.0572   75.2489   -3.6488 O   0  0  0  0  0  0  0  0  0  0  0  0
   24.0808   74.2716   -2.9157 C   0  0  0  0  0  0  0  0  0  0  0  0
  1  4  1  0
  1 24  1  0
  1  2  1  1
  1  3  2  0
 25 28  1  0
 25 24  1  0
 25 26  1  1
 25 27  2  0
  6 11  1  0
  6 12  1  0
 29 36  1  0
 29 37  1  0
  9  7  1  6
  7 13  1  0
 10  8  1  6
  8 14  1  0
  4  5  1  0
 36 28  1  1
 33 30  1  1
 30 38  1  0
 34 31  1  1
 31 39  1  0
 35 32  1  1
 32 40  1  0
 41 43  1  0
 15 19  2  0
 42 43  2  0
 16 22  2  0
 12 17  1  1
 17 19  1  0
 17 20  1  0
 18 19  1  0
 18 22  1  0
 18 23  1  0
  9 10  1  0
  9 11  1  0
 10 12  1  0
 11  5  1  6
 33 34  1  0
 33 35  1  0
 34 36  1  0
 35 37  1  0
 37 43  1  6
 20 21  2  0
 21 22  1  0
M  CHG  3   2  -1  26  -1  41  -1
M  END
>  <COMPND>  (235) 
    udp_gluA.pdb 

>  <AUTHOR>  (235) 
    GENERATED BY OPEN BABEL 3.1.1

>  <MASTER>  (235) 
        0    0    0    0    0    0    0    0   56    0   56    0

>  <minimizedAffinity>  (235) 
-6.68252

>  <CNNscore>  (235) 
0.6157964468

>  <CNNaffinity>  (235) 
4.2442498207

>  <CNN_VS>  (235) 
2.6135940552

>  <CNNaffinity_variance>  (235) 
0.0462977290

$$$$
236
     RDKit          3D

 43 45  0  0  0  0  0  0  0  0999 V2000
   23.1091   71.6549   -2.4937 P   0  0  2  0  0  0  0  0  0  0  0  0
   23.3229   73.2057   -2.0837 O   0  0  0  0  0  0  0  0  0  0  0  0
   24.2686   71.0222   -3.2058 O   0  0  0  0  0  0  0  0  0  0  0  0
   21.7057   71.6559   -3.2990 O   0  0  0  0  0  0  0  0  0  0  0  0
   21.4865   72.6585   -4.2743 C   0  0  0  0  0  0  0  0  0  0  0  0
   20.6355   70.7953   -5.5319 O   0  0  0  0  0  0  0  0  0  0  0  0
   21.1443   72.4532   -7.9782 O   0  0  0  0  0  0  0  0  0  0  0  0
   18.4565   72.7364   -7.6148 O   0  0  0  0  0  0  0  0  0  0  0  0
   20.6996   72.8635   -6.6849 C   0  0  1  0  0  0  0  0  0  0  0  0
   19.2523   72.4696   -6.4789 C   0  0  2  0  0  0  0  0  0  0  0  0
   21.4136   72.0062   -5.6488 C   0  0  1  0  0  0  0  0  0  0  0  0
   19.3688   70.9842   -6.1823 C   0  0  2  0  0  0  0  0  0  0  0  0
   20.7016   72.9870   -8.6570 H   0  0  0  0  0  0  0  0  0  0  0  0
   18.4132   73.6949   -7.7613 H   0  0  0  0  0  0  0  0  0  0  0  0
   16.8673   70.0240   -7.0752 O   0  0  0  0  0  0  0  0  0  0  0  0
   15.4381   69.2090   -2.7697 O   0  0  0  0  0  0  0  0  0  0  0  0
   18.3246   70.5149   -5.3162 N   0  0  0  0  0  0  0  0  0  0  0  0
   16.1575   69.6200   -4.9299 N   0  0  0  0  0  0  0  0  0  0  0  0
   17.1053   70.0534   -5.8663 C   0  0  0  0  0  0  0  0  0  0  0  0
   18.5138   70.5130   -3.9396 C   0  0  0  0  0  0  0  0  0  0  0  0
   17.6010   70.0967   -3.0596 C   0  0  0  0  0  0  0  0  0  0  0  0
   16.2994   69.5998   -3.5518 C   0  0  0  0  0  0  0  0  0  0  0  0
   15.2999   69.2961   -5.2889 H   0  0  0  0  0  0  0  0  0  0  0  0
   22.7208   70.9580   -1.0878 O   0  0  0  0  0  0  0  0  0  0  0  0
   21.3915   71.0773   -0.1755 P   0  0  2  0  0  0  0  0  0  0  0  0
   21.7151   70.1061    1.0785 O   0  0  0  0  0  0  0  0  0  0  0  0
   20.1170   70.7499   -0.8984 O   0  0  0  0  0  0  0  0  0  0  0  0
   21.4489   72.5680    0.4386 O   0  0  0  0  0  0  0  0  0  0  0  0
   23.2736   73.8852    1.1765 O   0  0  0  0  0  0  0  0  0  0  0  0
   20.2909   75.0410    3.7910 O   0  0  0  0  0  0  0  0  0  0  0  0
   20.6227   72.2288    3.0727 O   0  0  0  0  0  0  0  0  0  0  0  0
   21.0780   76.7928    1.6086 O   0  0  0  0  0  0  0  0  0  0  0  0
   20.8331   74.5886    2.5502 C   0  0  2  0  0  0  0  0  0  0  0  0
   21.5552   73.2578    2.7621 C   0  0  2  0  0  0  0  0  0  0  0  0
   21.8124   75.6513    2.0466 C   0  0  1  0  0  0  0  0  0  0  0  0
   22.3414   72.8570    1.5131 C   0  0  1  0  0  0  0  0  0  0  0  0
   22.6472   75.1312    0.8799 C   0  0  1  0  0  0  0  0  0  0  0  0
   19.6655   74.3815    4.1303 H   0  0  0  0  0  0  0  0  0  0  0  0
   20.1201   72.4766    3.8641 H   0  0  0  0  0  0  0  0  0  0  0  0
   20.5422   77.1335    2.3419 H   0  0  0  0  0  0  0  0  0  0  0  0
   24.9783   75.3740    0.7872 O   0  0  0  0  0  0  0  0  0  0  0  0
   23.7207   77.2074    0.2813 O   0  0  0  0  0  0  0  0  0  0  0  0
   23.8069   76.0347    0.6132 C   0  0  0  0  0  0  0  0  0  0  0  0
  1  4  1  0
  1 24  1  0
  1  2  1  1
  1  3  2  0
 25 28  1  0
 25 24  1  0
 25 26  1  1
 25 27  2  0
  6 11  1  0
  6 12  1  0
 29 36  1  0
 29 37  1  0
  9  7  1  6
  7 13  1  0
 10  8  1  6
  8 14  1  0
  4  5  1  0
 36 28  1  6
 33 30  1  1
 30 38  1  0
 34 31  1  6
 31 39  1  0
 35 32  1  6
 32 40  1  0
 41 43  1  0
 15 19  2  0
 42 43  2  0
 16 22  2  0
 12 17  1  1
 17 19  1  0
 17 20  1  0
 18 19  1  0
 18 22  1  0
 18 23  1  0
  9 10  1  0
  9 11  1  0
 10 12  1  0
 11  5  1  1
 33 34  1  0
 33 35  1  0
 34 36  1  0
 35 37  1  0
 37 43  1  1
 20 21  2  0
 21 22  1  0
M  CHG  3   2  -1  26  -1  41  -1
M  END
>  <COMPND>  (236) 
    udp_gluA.pdb 

>  <AUTHOR>  (236) 
    GENERATED BY OPEN BABEL 3.1.1

>  <MASTER>  (236) 
        0    0    0    0    0    0    0    0   56    0   56    0

>  <minimizedAffinity>  (236) 
-7.24048

>  <CNNscore>  (236) 
0.6076524258

>  <CNNaffinity>  (236) 
4.2263088226

>  <CNN_VS>  (236) 
2.5681269169

>  <CNNaffinity_variance>  (236) 
0.2747677267

$$$$
237
     RDKit          3D

 43 45  0  0  0  0  0  0  0  0999 V2000
   22.3912   71.8349   -3.5220 P   0  0  2  0  0  0  0  0  0  0  0  0
   21.6440   70.4137   -3.3202 O   0  0  0  0  0  0  0  0  0  0  0  0
   23.8340   71.7407   -3.9235 O   0  0  0  0  0  0  0  0  0  0  0  0
   22.0960   72.6283   -2.1432 O   0  0  0  0  0  0  0  0  0  0  0  0
   23.0913   72.6276   -1.1363 C   0  0  0  0  0  0  0  0  0  0  0  0
   24.1563   71.2082    0.4851 O   0  0  0  0  0  0  0  0  0  0  0  0
   21.4347   70.0541    0.9876 O   0  0  0  0  0  0  0  0  0  0  0  0
   21.7513   71.7688    3.0842 O   0  0  0  0  0  0  0  0  0  0  0  0
   21.8035   71.3991    0.6816 C   0  0  1  0  0  0  0  0  0  0  0  0
   22.4439   72.0542    1.8870 C   0  0  2  0  0  0  0  0  0  0  0  0
   22.9591   71.3555   -0.3088 C   0  0  1  0  0  0  0  0  0  0  0  0
   23.8416   71.4593    1.8639 C   0  0  2  0  0  0  0  0  0  0  0  0
   20.6978   70.0562    1.6190 H   0  0  0  0  0  0  0  0  0  0  0  0
   20.8678   72.1690    3.0499 H   0  0  0  0  0  0  0  0  0  0  0  0
   26.5205   70.7419    2.3979 O   0  0  0  0  0  0  0  0  0  0  0  0
   27.5272   74.9560    3.9701 O   0  0  0  0  0  0  0  0  0  0  0  0
   24.8251   72.3494    2.4128 N   0  0  0  0  0  0  0  0  0  0  0  0
   27.0191   72.8412    3.1814 N   0  0  0  0  0  0  0  0  0  0  0  0
   26.1432   71.8893    2.6430 C   0  0  0  0  0  0  0  0  0  0  0  0
   24.4813   73.6613    2.7153 C   0  0  0  0  0  0  0  0  0  0  0  0
   25.3272   74.5571    3.2280 C   0  0  0  0  0  0  0  0  0  0  0  0
   26.7234   74.1569    3.4994 C   0  0  0  0  0  0  0  0  0  0  0  0
   27.9419   72.5436    3.3523 H   0  0  0  0  0  0  0  0  0  0  0  0
   21.4437   72.5949   -4.5886 O   0  0  0  0  0  0  0  0  0  0  0  0
   19.8652   72.9418   -4.5477 P   0  0  2  0  0  0  0  0  0  0  0  0
   19.8319   74.5420   -4.7898 O   0  0  0  0  0  0  0  0  0  0  0  0
   19.1678   72.4909   -3.2970 O   0  0  0  0  0  0  0  0  0  0  0  0
   19.2723   72.3116   -5.9092 O   0  0  0  0  0  0  0  0  0  0  0  0
   18.7867   70.0343   -5.4761 O   0  0  0  0  0  0  0  0  0  0  0  0
   17.6132   70.4089   -9.4195 O   0  0  0  0  0  0  0  0  0  0  0  0
   20.0862   71.6527   -8.4859 O   0  0  0  0  0  0  0  0  0  0  0  0
   15.6185   70.2990   -7.3077 O   0  0  0  0  0  0  0  0  0  0  0  0
   17.8347   70.8459   -8.0787 C   0  0  2  0  0  0  0  0  0  0  0  0
   19.3193   70.7169   -7.7370 C   0  0  2  0  0  0  0  0  0  0  0  0
   16.9962   69.9652   -7.1496 C   0  0  1  0  0  0  0  0  0  0  0  0
   19.5602   70.9556   -6.2458 C   0  0  1  0  0  0  0  0  0  0  0  0
   17.3833   70.1706   -5.6879 C   0  0  1  0  0  0  0  0  0  0  0  0
   18.1361   70.9543  -10.0281 H   0  0  0  0  0  0  0  0  0  0  0  0
   19.9379   71.5071   -9.4331 H   0  0  0  0  0  0  0  0  0  0  0  0
   15.3594   70.1728   -8.2338 H   0  0  0  0  0  0  0  0  0  0  0  0
   16.2901   68.0975   -5.5941 O   0  0  0  0  0  0  0  0  0  0  0  0
   16.8033   69.0935   -3.6083 O   0  0  0  0  0  0  0  0  0  0  0  0
   16.8082   69.0909   -4.8301 C   0  0  0  0  0  0  0  0  0  0  0  0
  1  4  1  0
  1 24  1  0
  1  2  1  1
  1  3  2  0
 25 28  1  0
 25 24  1  0
 25 26  1  6
 25 27  2  0
  6 11  1  0
  6 12  1  0
 29 36  1  0
 29 37  1  0
  9  7  1  1
  7 13  1  0
 10  8  1  1
  8 14  1  0
  4  5  1  0
 36 28  1  1
 33 30  1  6
 30 38  1  0
 34 31  1  6
 31 39  1  0
 35 32  1  1
 32 40  1  0
 41 43  1  0
 15 19  2  0
 42 43  2  0
 16 22  2  0
 12 17  1  6
 17 19  1  0
 17 20  1  0
 18 19  1  0
 18 22  1  0
 18 23  1  0
  9 10  1  0
  9 11  1  0
 10 12  1  0
 11  5  1  1
 33 34  1  0
 33 35  1  0
 34 36  1  0
 35 37  1  0
 37 43  1  1
 20 21  2  0
 21 22  1  0
M  CHG  3   2  -1  26  -1  41  -1
M  END
>  <COMPND>  (237) 
    udp_gluA.pdb 

>  <AUTHOR>  (237) 
    GENERATED BY OPEN BABEL 3.1.1

>  <MASTER>  (237) 
        0    0    0    0    0    0    0    0   56    0   56    0

>  <minimizedAffinity>  (237) 
-8.17098

>  <CNNscore>  (237) 
0.6040690541

>  <CNNaffinity>  (237) 
4.4539461136

>  <CNN_VS>  (237) 
2.6904909611

>  <CNNaffinity_variance>  (237) 
0.1058770865

$$$$
238
     RDKit          3D

 43 45  0  0  0  0  0  0  0  0999 V2000
   19.2410   71.2769   -1.8072 P   0  0  2  0  0  0  0  0  0  0  0  0
   17.9621   72.0612   -1.2005 O   0  0  0  0  0  0  0  0  0  0  0  0
   18.9309   69.9497   -2.4350 O   0  0  0  0  0  0  0  0  0  0  0  0
   20.2949   71.2446   -0.5800 O   0  0  0  0  0  0  0  0  0  0  0  0
   20.8859   72.4620   -0.1640 C   0  0  0  0  0  0  0  0  0  0  0  0
   23.0614   73.3294    0.3769 O   0  0  0  0  0  0  0  0  0  0  0  0
   24.1655   71.0272   -1.1954 O   0  0  0  0  0  0  0  0  0  0  0  0
   24.4596   70.1846    1.3813 O   0  0  0  0  0  0  0  0  0  0  0  0
   23.0117   71.0775   -0.3560 C   0  0  1  0  0  0  0  0  0  0  0  0
   23.4239   71.1027    1.1006 C   0  0  2  0  0  0  0  0  0  0  0  0
   22.3650   72.4452   -0.5278 C   0  0  1  0  0  0  0  0  0  0  0  0
   23.8583   72.5473    1.2805 C   0  0  2  0  0  0  0  0  0  0  0  0
   24.5958   70.1623   -1.1027 H   0  0  0  0  0  0  0  0  0  0  0  0
   24.1332   69.2797    1.2526 H   0  0  0  0  0  0  0  0  0  0  0  0
   25.8333   73.8079    2.8575 O   0  0  0  0  0  0  0  0  0  0  0  0
   22.9338   74.3223    6.4032 O   0  0  0  0  0  0  0  0  0  0  0  0
   23.6465   73.0206    2.6191 N   0  0  0  0  0  0  0  0  0  0  0  0
   24.3876   74.0620    4.6223 N   0  0  0  0  0  0  0  0  0  0  0  0
   24.7053   73.6397    3.3247 C   0  0  0  0  0  0  0  0  0  0  0  0
   22.4019   72.8713    3.2188 C   0  0  0  0  0  0  0  0  0  0  0  0
   22.1142   73.2790    4.4564 C   0  0  0  0  0  0  0  0  0  0  0  0
   23.1651   73.9350    5.2618 C   0  0  0  0  0  0  0  0  0  0  0  0
   25.1093   74.4940    5.1339 H   0  0  0  0  0  0  0  0  0  0  0  0
   19.8887   72.3631   -2.8139 O   0  0  0  0  0  0  0  0  0  0  0  0
   20.7441   72.1733   -4.1726 P   0  0  2  0  0  0  0  0  0  0  0  0
   21.3944   70.7013   -3.9976 O   0  0  0  0  0  0  0  0  0  0  0  0
   21.7431   73.2643   -4.4287 O   0  0  0  0  0  0  0  0  0  0  0  0
   19.6366   71.9940   -5.3318 O   0  0  0  0  0  0  0  0  0  0  0  0
   18.6018   69.8698   -5.4933 O   0  0  0  0  0  0  0  0  0  0  0  0
   17.4464   71.6399   -9.0429 O   0  0  0  0  0  0  0  0  0  0  0  0
   20.1805   71.9414   -8.0590 O   0  0  0  0  0  0  0  0  0  0  0  0
   15.5521   71.3918   -6.8518 O   0  0  0  0  0  0  0  0  0  0  0  0
   17.8109   71.6032   -7.6632 C   0  0  2  0  0  0  0  0  0  0  0  0
   19.2235   71.0357   -7.5219 C   0  0  2  0  0  0  0  0  0  0  0  0
   16.8039   70.7128   -6.9316 C   0  0  1  0  0  0  0  0  0  0  0  0
   19.5609   70.7667   -6.0547 C   0  0  1  0  0  0  0  0  0  0  0  0
   17.2733   70.3872   -5.5165 C   0  0  1  0  0  0  0  0  0  0  0  0
   18.0725   72.2001   -9.5282 H   0  0  0  0  0  0  0  0  0  0  0  0
   19.9723   72.1168   -8.9897 H   0  0  0  0  0  0  0  0  0  0  0  0
   15.2423   71.6049   -7.7459 H   0  0  0  0  0  0  0  0  0  0  0  0
   16.1052   68.3894   -5.8983 O   0  0  0  0  0  0  0  0  0  0  0  0
   16.1753   69.1597   -3.7533 O   0  0  0  0  0  0  0  0  0  0  0  0
   16.4684   69.2713   -4.9343 C   0  0  0  0  0  0  0  0  0  0  0  0
  1  4  1  0
  1 24  1  0
  1  2  1  1
  1  3  2  0
 25 28  1  0
 25 24  1  0
 25 26  1  1
 25 27  2  0
  6 11  1  0
  6 12  1  0
 29 36  1  0
 29 37  1  0
  9  7  1  6
  7 13  1  0
 10  8  1  6
  8 14  1  0
  4  5  1  0
 36 28  1  1
 33 30  1  6
 30 38  1  0
 34 31  1  1
 31 39  1  0
 35 32  1  1
 32 40  1  0
 41 43  1  0
 15 19  2  0
 42 43  2  0
 16 22  2  0
 12 17  1  1
 17 19  1  0
 17 20  1  0
 18 19  1  0
 18 22  1  0
 18 23  1  0
  9 10  1  0
  9 11  1  0
 10 12  1  0
 11  5  1  1
 33 34  1  0
 33 35  1  0
 34 36  1  0
 35 37  1  0
 37 43  1  6
 20 21  2  0
 21 22  1  0
M  CHG  3   2  -1  26  -1  41  -1
M  END
>  <COMPND>  (238) 
    udp_gluA.pdb 

>  <AUTHOR>  (238) 
    GENERATED BY OPEN BABEL 3.1.1

>  <MASTER>  (238) 
        0    0    0    0    0    0    0    0   56    0   56    0

>  <minimizedAffinity>  (238) 
-6.65122

>  <CNNscore>  (238) 
0.5819715261

>  <CNNaffinity>  (238) 
4.2359037399

>  <CNN_VS>  (238) 
2.4651753902

>  <CNNaffinity_variance>  (238) 
0.0933372080

$$$$
239
     RDKit          3D

 43 45  0  0  0  0  0  0  0  0999 V2000
   21.6715   72.6491   -5.5469 P   0  0  2  0  0  0  0  0  0  0  0  0
   21.0738   74.1465   -5.6866 O   0  0  0  0  0  0  0  0  0  0  0  0
   23.0674   72.4728   -6.0687 O   0  0  0  0  0  0  0  0  0  0  0  0
   20.5421   71.7145   -6.2318 O   0  0  0  0  0  0  0  0  0  0  0  0
   20.0834   72.0488   -7.5288 C   0  0  0  0  0  0  0  0  0  0  0  0
   18.9040   69.9964   -7.1115 O   0  0  0  0  0  0  0  0  0  0  0  0
   18.1395   70.0634  -10.0102 O   0  0  0  0  0  0  0  0  0  0  0  0
   15.8842   70.9753   -8.7779 O   0  0  0  0  0  0  0  0  0  0  0  0
   18.2896   71.1448   -9.0901 C   0  0  1  0  0  0  0  0  0  0  0  0
   17.1212   71.1804   -8.1280 C   0  0  2  0  0  0  0  0  0  0  0  0
   19.4538   70.8164   -8.1653 C   0  0  1  0  0  0  0  0  0  0  0  0
   17.4699   70.0571   -7.1665 C   0  0  2  0  0  0  0  0  0  0  0  0
   17.4012   70.2504  -10.6117 H   0  0  0  0  0  0  0  0  0  0  0  0
   15.7076   71.7170   -9.3784 H   0  0  0  0  0  0  0  0  0  0  0  0
   16.3187   68.0661   -5.5272 O   0  0  0  0  0  0  0  0  0  0  0  0
   15.5522   71.0640   -2.1112 O   0  0  0  0  0  0  0  0  0  0  0  0
   16.9614   70.2898   -5.8443 N   0  0  0  0  0  0  0  0  0  0  0  0
   15.9371   69.5613   -3.8278 N   0  0  0  0  0  0  0  0  0  0  0  0
   16.4027   69.2208   -5.1046 C   0  0  0  0  0  0  0  0  0  0  0  0
   17.0202   71.5640   -5.2929 C   0  0  0  0  0  0  0  0  0  0  0  0
   16.5724   71.8732   -4.0744 C   0  0  0  0  0  0  0  0  0  0  0  0
   15.9733   70.8138   -3.2365 C   0  0  0  0  0  0  0  0  0  0  0  0
   15.5420   68.8340   -3.2946 H   0  0  0  0  0  0  0  0  0  0  0  0
   21.4970   72.3342   -3.9710 O   0  0  0  0  0  0  0  0  0  0  0  0
   21.8365   71.0091   -3.1094 P   0  0  2  0  0  0  0  0  0  0  0  0
   23.4543   70.9589   -3.1301 O   0  0  0  0  0  0  0  0  0  0  0  0
   21.1726   69.7603   -3.6130 O   0  0  0  0  0  0  0  0  0  0  0  0
   21.4607   71.4012   -1.5904 O   0  0  0  0  0  0  0  0  0  0  0  0
   23.0016   72.9740   -0.7181 O   0  0  0  0  0  0  0  0  0  0  0  0
   20.6367   72.1966    2.5790 O   0  0  0  0  0  0  0  0  0  0  0  0
   21.4932   70.0228    0.8252 O   0  0  0  0  0  0  0  0  0  0  0  0
   20.3165   74.6830    1.1071 O   0  0  0  0  0  0  0  0  0  0  0  0
   20.9247   72.3531    1.1895 C   0  0  2  0  0  0  0  0  0  0  0  0
   22.0018   71.3508    0.7740 C   0  0  2  0  0  0  0  0  0  0  0  0
   21.4159   73.7852    0.9667 C   0  0  1  0  0  0  0  0  0  0  0  0
   22.5000   71.6390   -0.6428 C   0  0  1  0  0  0  0  0  0  0  0  0
   22.0127   73.9590   -0.4269 C   0  0  1  0  0  0  0  0  0  0  0  0
   20.3227   71.2937    2.7446 H   0  0  0  0  0  0  0  0  0  0  0  0
   21.1750   69.8333    1.7214 H   0  0  0  0  0  0  0  0  0  0  0  0
   19.9275   74.5823    1.9900 H   0  0  0  0  0  0  0  0  0  0  0  0
   23.3154   75.3859   -1.7567 O   0  0  0  0  0  0  0  0  0  0  0  0
   22.9020   76.0498    0.3851 O   0  0  0  0  0  0  0  0  0  0  0  0
   22.7768   75.2395   -0.5208 C   0  0  0  0  0  0  0  0  0  0  0  0
  1  4  1  0
  1 24  1  0
  1  2  1  1
  1  3  2  0
 25 28  1  0
 25 24  1  0
 25 26  1  1
 25 27  2  0
  6 11  1  0
  6 12  1  0
 29 36  1  0
 29 37  1  0
  9  7  1  6
  7 13  1  0
 10  8  1  6
  8 14  1  0
  4  5  1  0
 36 28  1  6
 33 30  1  1
 30 38  1  0
 34 31  1  6
 31 39  1  0
 35 32  1  6
 32 40  1  0
 41 43  1  0
 15 19  2  0
 42 43  2  0
 16 22  2  0
 12 17  1  1
 17 19  1  0
 17 20  1  0
 18 19  1  0
 18 22  1  0
 18 23  1  0
  9 10  1  0
  9 11  1  0
 10 12  1  0
 11  5  1  1
 33 34  1  0
 33 35  1  0
 34 36  1  0
 35 37  1  0
 37 43  1  1
 20 21  2  0
 21 22  1  0
M  CHG  3   2  -1  26  -1  41  -1
M  END
>  <COMPND>  (239) 
    udp_gluA.pdb 

>  <AUTHOR>  (239) 
    GENERATED BY OPEN BABEL 3.1.1

>  <MASTER>  (239) 
        0    0    0    0    0    0    0    0   56    0   56    0

>  <minimizedAffinity>  (239) 
-7.69873

>  <CNNscore>  (239) 
0.5792192221

>  <CNNaffinity>  (239) 
4.5454378128

>  <CNN_VS>  (239) 
2.6328048706

>  <CNNaffinity_variance>  (239) 
0.1709719449

$$$$
240
     RDKit          3D

 43 45  0  0  0  0  0  0  0  0999 V2000
   23.2601   71.9045   -3.0609 P   0  0  2  0  0  0  0  0  0  0  0  0
   23.8142   73.2793   -3.7103 O   0  0  0  0  0  0  0  0  0  0  0  0
   24.2404   70.7684   -3.0507 O   0  0  0  0  0  0  0  0  0  0  0  0
   21.8759   71.6310   -3.8530 O   0  0  0  0  0  0  0  0  0  0  0  0
   21.4963   72.5280   -4.8804 C   0  0  0  0  0  0  0  0  0  0  0  0
   20.5644   70.5605   -5.8993 O   0  0  0  0  0  0  0  0  0  0  0  0
   20.9018   71.9828   -8.5174 O   0  0  0  0  0  0  0  0  0  0  0  0
   18.2448   72.3108   -7.9992 O   0  0  0  0  0  0  0  0  0  0  0  0
   20.5460   72.5129   -7.2403 C   0  0  1  0  0  0  0  0  0  0  0  0
   19.1168   72.1465   -6.9005 C   0  0  2  0  0  0  0  0  0  0  0  0
   21.3306   71.7517   -6.1805 C   0  0  1  0  0  0  0  0  0  0  0  0
   19.2559   70.6943   -6.4764 C   0  0  2  0  0  0  0  0  0  0  0  0
   20.4129   72.4536   -9.2109 H   0  0  0  0  0  0  0  0  0  0  0  0
   18.1898   73.2518   -8.2304 H   0  0  0  0  0  0  0  0  0  0  0  0
   16.6715   69.7433   -7.1034 O   0  0  0  0  0  0  0  0  0  0  0  0
   15.5724   69.2563   -2.6538 O   0  0  0  0  0  0  0  0  0  0  0  0
   18.2742   70.3118   -5.5013 N   0  0  0  0  0  0  0  0  0  0  0  0
   16.1262   69.5026   -4.8867 N   0  0  0  0  0  0  0  0  0  0  0  0
   17.0055   69.8471   -5.9216 C   0  0  0  0  0  0  0  0  0  0  0  0
   18.5722   70.3970   -4.1467 C   0  0  0  0  0  0  0  0  0  0  0  0
   17.7237   70.0649   -3.1718 C   0  0  0  0  0  0  0  0  0  0  0  0
   16.3769   69.5709   -3.5257 C   0  0  0  0  0  0  0  0  0  0  0  0
   15.2361   69.1783   -5.1547 H   0  0  0  0  0  0  0  0  0  0  0  0
   22.7555   72.3716   -1.5981 O   0  0  0  0  0  0  0  0  0  0  0  0
   22.2470   71.5127   -0.3264 P   0  0  2  0  0  0  0  0  0  0  0  0
   23.5858   70.7435    0.1597 O   0  0  0  0  0  0  0  0  0  0  0  0
   21.0856   70.6075   -0.6193 O   0  0  0  0  0  0  0  0  0  0  0  0
   21.9676   72.6095    0.8231 O   0  0  0  0  0  0  0  0  0  0  0  0
   20.2461   74.2178    1.0663 O   0  0  0  0  0  0  0  0  0  0  0  0
   23.4826   76.1966    2.7028 O   0  0  0  0  0  0  0  0  0  0  0  0
   23.7859   74.6354    0.2522 O   0  0  0  0  0  0  0  0  0  0  0  0
   21.4348   75.0698    4.4313 O   0  0  0  0  0  0  0  0  0  0  0  0
   22.6804   75.0638    2.3690 C   0  0  2  0  0  0  0  0  0  0  0  0
   22.5379   74.9675    0.8498 C   0  0  2  0  0  0  0  0  0  0  0  0
   21.3085   75.2470    3.0217 C   0  0  1  0  0  0  0  0  0  0  0  0
   21.5035   73.9095    0.4633 C   0  0  1  0  0  0  0  0  0  0  0  0
   20.2992   74.2329    2.4911 C   0  0  1  0  0  0  0  0  0  0  0  0
   24.3596   76.1023    2.2987 H   0  0  0  0  0  0  0  0  0  0  0  0
   24.4471   75.3025    0.4935 H   0  0  0  0  0  0  0  0  0  0  0  0
   22.0746   75.7092    4.7816 H   0  0  0  0  0  0  0  0  0  0  0  0
   18.1226   74.7338    1.7749 O   0  0  0  0  0  0  0  0  0  0  0  0
   18.5214   74.8049    4.0188 O   0  0  0  0  0  0  0  0  0  0  0  0
   18.9077   74.6189    2.8746 C   0  0  0  0  0  0  0  0  0  0  0  0
  1  4  1  0
  1 24  1  0
  1  2  1  6
  1  3  2  0
 25 28  1  0
 25 24  1  0
 25 26  1  1
 25 27  2  0
  6 11  1  0
  6 12  1  0
 29 36  1  0
 29 37  1  0
  9  7  1  6
  7 13  1  0
 10  8  1  6
  8 14  1  0
  4  5  1  0
 36 28  1  1
 33 30  1  6
 30 38  1  0
 34 31  1  6
 31 39  1  0
 35 32  1  1
 32 40  1  0
 41 43  1  0
 15 19  2  0
 42 43  2  0
 16 22  2  0
 12 17  1  1
 17 19  1  0
 17 20  1  0
 18 19  1  0
 18 22  1  0
 18 23  1  0
  9 10  1  0
  9 11  1  0
 10 12  1  0
 11  5  1  1
 33 34  1  0
 33 35  1  0
 34 36  1  0
 35 37  1  0
 37 43  1  1
 20 21  2  0
 21 22  1  0
M  CHG  3   2  -1  26  -1  41  -1
M  END
>  <COMPND>  (240) 
    udp_gluA.pdb 

>  <AUTHOR>  (240) 
    GENERATED BY OPEN BABEL 3.1.1

>  <MASTER>  (240) 
        0    0    0    0    0    0    0    0   56    0   56    0

>  <minimizedAffinity>  (240) 
-6.59476

>  <CNNscore>  (240) 
0.5474837422

>  <CNNaffinity>  (240) 
4.1920785904

>  <CNN_VS>  (240) 
2.2950949669

>  <CNNaffinity_variance>  (240) 
0.1200977564

$$$$
241
     RDKit          3D

 43 45  0  0  0  0  0  0  0  0999 V2000
   20.7406   72.0930   -1.8803 P   0  0  2  0  0  0  0  0  0  0  0  0
   20.3626   70.6497   -1.2534 O   0  0  0  0  0  0  0  0  0  0  0  0
   21.4967   73.0053   -0.9595 O   0  0  0  0  0  0  0  0  0  0  0  0
   19.3280   72.6608   -2.4279 O   0  0  0  0  0  0  0  0  0  0  0  0
   18.9815   72.4218   -3.7797 C   0  0  0  0  0  0  0  0  0  0  0  0
   17.0880   72.0943   -5.2237 O   0  0  0  0  0  0  0  0  0  0  0  0
   15.9387   70.4091   -3.0258 O   0  0  0  0  0  0  0  0  0  0  0  0
   16.9006   68.5433   -4.7663 O   0  0  0  0  0  0  0  0  0  0  0  0
   17.2970   70.5450   -3.4441 C   0  0  1  0  0  0  0  0  0  0  0  0
   17.5188   69.8130   -4.7507 C   0  0  2  0  0  0  0  0  0  0  0  0
   17.5208   71.9955   -3.8495 C   0  0  1  0  0  0  0  0  0  0  0  0
   16.9083   70.7730   -5.7576 C   0  0  2  0  0  0  0  0  0  0  0  0
   15.7717   69.4904   -2.7618 H   0  0  0  0  0  0  0  0  0  0  0  0
   17.3248   67.9692   -4.1087 H   0  0  0  0  0  0  0  0  0  0  0  0
   15.5264   70.6058   -8.2150 O   0  0  0  0  0  0  0  0  0  0  0  0
   19.4539   70.4893  -10.6245 O   0  0  0  0  0  0  0  0  0  0  0  0
   17.5449   70.6978   -7.0421 N   0  0  0  0  0  0  0  0  0  0  0  0
   17.4839   70.5469   -9.4127 N   0  0  0  0  0  0  0  0  0  0  0  0
   16.7588   70.6166   -8.2158 C   0  0  0  0  0  0  0  0  0  0  0  0
   18.9317   70.7066   -7.1304 C   0  0  0  0  0  0  0  0  0  0  0  0
   19.6085   70.6396   -8.2785 C   0  0  0  0  0  0  0  0  0  0  0  0
   18.8624   70.5517   -9.5509 C   0  0  0  0  0  0  0  0  0  0  0  0
   16.9583   70.4877  -10.2431 H   0  0  0  0  0  0  0  0  0  0  0  0
   21.5269   71.7042   -3.2380 O   0  0  0  0  0  0  0  0  0  0  0  0
   22.9905   72.1306   -3.7762 P   0  0  2  0  0  0  0  0  0  0  0  0
   22.8073   72.1319   -5.3845 O   0  0  0  0  0  0  0  0  0  0  0  0
   24.1070   71.2571   -3.2817 O   0  0  0  0  0  0  0  0  0  0  0  0
   23.1340   73.6881   -3.3815 O   0  0  0  0  0  0  0  0  0  0  0  0
   24.7513   75.0591   -4.4370 O   0  0  0  0  0  0  0  0  0  0  0  0
   23.8744   77.2514   -1.0469 O   0  0  0  0  0  0  0  0  0  0  0  0
   24.1886   74.3510   -0.8946 O   0  0  0  0  0  0  0  0  0  0  0  0
   22.8158   78.0692   -3.6278 O   0  0  0  0  0  0  0  0  0  0  0  0
   23.6044   76.3576   -2.1268 C   0  0  2  0  0  0  0  0  0  0  0  0
   24.5267   75.1422   -2.0279 C   0  0  2  0  0  0  0  0  0  0  0  0
   23.8532   77.1093   -3.4363 C   0  0  1  0  0  0  0  0  0  0  0  0
   24.4294   74.2778   -3.2857 C   0  0  1  0  0  0  0  0  0  0  0  0
   23.8652   76.1593   -4.6304 C   0  0  1  0  0  0  0  0  0  0  0  0
   23.7231   76.7954   -0.2040 H   0  0  0  0  0  0  0  0  0  0  0  0
   24.2480   74.8932   -0.0929 H   0  0  0  0  0  0  0  0  0  0  0  0
   22.7973   78.6800   -2.8745 H   0  0  0  0  0  0  0  0  0  0  0  0
   24.7494   75.9221   -6.7899 O   0  0  0  0  0  0  0  0  0  0  0  0
   24.5762   78.0402   -5.9638 O   0  0  0  0  0  0  0  0  0  0  0  0
   24.4269   76.8339   -5.8394 C   0  0  0  0  0  0  0  0  0  0  0  0
  1  4  1  0
  1 24  1  0
  1  2  1  1
  1  3  2  0
 25 28  1  0
 25 24  1  0
 25 26  1  6
 25 27  2  0
  6 11  1  0
  6 12  1  0
 29 36  1  0
 29 37  1  0
  9  7  1  6
  7 13  1  0
 10  8  1  1
  8 14  1  0
  4  5  1  0
 36 28  1  6
 33 30  1  1
 30 38  1  0
 34 31  1  1
 31 39  1  0
 35 32  1  6
 32 40  1  0
 41 43  1  0
 15 19  2  0
 42 43  2  0
 16 22  2  0
 12 17  1  6
 17 19  1  0
 17 20  1  0
 18 19  1  0
 18 22  1  0
 18 23  1  0
  9 10  1  0
  9 11  1  0
 10 12  1  0
 11  5  1  6
 33 34  1  0
 33 35  1  0
 34 36  1  0
 35 37  1  0
 37 43  1  6
 20 21  2  0
 21 22  1  0
M  CHG  3   2  -1  26  -1  41  -1
M  END
>  <COMPND>  (241) 
    udp_gluA.pdb 

>  <AUTHOR>  (241) 
    GENERATED BY OPEN BABEL 3.1.1

>  <MASTER>  (241) 
        0    0    0    0    0    0    0    0   56    0   56    0

>  <minimizedAffinity>  (241) 
-6.83487

>  <CNNscore>  (241) 
0.8976672888

>  <CNNaffinity>  (241) 
4.8592901230

>  <CNN_VS>  (241) 
4.3620257378

>  <CNNaffinity_variance>  (241) 
0.1484856158

$$$$
242
     RDKit          3D

 43 45  0  0  0  0  0  0  0  0999 V2000
   21.6248   71.8733   -2.2906 P   0  0  2  0  0  0  0  0  0  0  0  0
   22.7624   71.0166   -1.5219 O   0  0  0  0  0  0  0  0  0  0  0  0
   21.3949   73.2528   -1.7466 O   0  0  0  0  0  0  0  0  0  0  0  0
   20.3362   70.8949   -2.2921 O   0  0  0  0  0  0  0  0  0  0  0  0
   19.7611   70.5362   -3.5351 C   0  0  0  0  0  0  0  0  0  0  0  0
   18.0265   71.6080   -4.8079 O   0  0  0  0  0  0  0  0  0  0  0  0
   16.0923   70.2764   -2.9432 O   0  0  0  0  0  0  0  0  0  0  0  0
   15.9802   68.6846   -5.1545 O   0  0  0  0  0  0  0  0  0  0  0  0
   17.3305   69.7885   -3.4603 C   0  0  1  0  0  0  0  0  0  0  0  0
   17.1742   69.4000   -4.9153 C   0  0  2  0  0  0  0  0  0  0  0  0
   18.2983   70.9608   -3.5459 C   0  0  1  0  0  0  0  0  0  0  0  0
   17.1940   70.7525   -5.6068 C   0  0  2  0  0  0  0  0  0  0  0  0
   15.4576   69.5451   -2.8795 H   0  0  0  0  0  0  0  0  0  0  0  0
   16.0167   67.8313   -4.6935 H   0  0  0  0  0  0  0  0  0  0  0  0
   15.6522   70.3512   -7.9388 O   0  0  0  0  0  0  0  0  0  0  0  0
   19.3784   70.4961  -10.6477 O   0  0  0  0  0  0  0  0  0  0  0  0
   17.7356   70.6813   -6.9344 N   0  0  0  0  0  0  0  0  0  0  0  0
   17.5096   70.4227   -9.2856 N   0  0  0  0  0  0  0  0  0  0  0  0
   16.8742   70.4765   -8.0381 C   0  0  0  0  0  0  0  0  0  0  0  0
   19.1043   70.8152   -7.1332 C   0  0  0  0  0  0  0  0  0  0  0  0
   19.6954   70.7618   -8.3284 C   0  0  0  0  0  0  0  0  0  0  0  0
   18.8669   70.5498   -9.5334 C   0  0  0  0  0  0  0  0  0  0  0  0
   16.9307   70.2789  -10.0689 H   0  0  0  0  0  0  0  0  0  0  0  0
   22.1160   71.8298   -3.8300 O   0  0  0  0  0  0  0  0  0  0  0  0
   22.9711   72.8893   -4.7017 P   0  0  2  0  0  0  0  0  0  0  0  0
   23.0836   72.1724   -6.1486 O   0  0  0  0  0  0  0  0  0  0  0  0
   24.2912   73.2643   -4.0929 O   0  0  0  0  0  0  0  0  0  0  0  0
   21.9668   74.1294   -4.9387 O   0  0  0  0  0  0  0  0  0  0  0  0
   19.7093   74.4487   -4.2977 O   0  0  0  0  0  0  0  0  0  0  0  0
   19.8458   76.4397   -7.9151 O   0  0  0  0  0  0  0  0  0  0  0  0
   21.1800   73.8608   -7.5929 O   0  0  0  0  0  0  0  0  0  0  0  0
   19.8200   77.9387   -5.4245 O   0  0  0  0  0  0  0  0  0  0  0  0
   20.3599   75.9519   -6.6758 C   0  0  2  0  0  0  0  0  0  0  0  0
   20.2745   74.4256   -6.6517 C   0  0  2  0  0  0  0  0  0  0  0  0
   19.5182   76.5500   -5.5464 C   0  0  1  0  0  0  0  0  0  0  0  0
   20.5993   73.8814   -5.2598 C   0  0  1  0  0  0  0  0  0  0  0  0
   19.8105   75.8684   -4.2128 C   0  0  1  0  0  0  0  0  0  0  0  0
   20.3653   76.0727   -8.6477 H   0  0  0  0  0  0  0  0  0  0  0  0
   20.9798   74.2020   -8.4783 H   0  0  0  0  0  0  0  0  0  0  0  0
   19.6384   78.3842   -6.2667 H   0  0  0  0  0  0  0  0  0  0  0  0
   18.3813   75.1163   -2.5117 O   0  0  0  0  0  0  0  0  0  0  0  0
   18.3280   77.3414   -3.0069 O   0  0  0  0  0  0  0  0  0  0  0  0
   18.7705   76.2188   -3.1988 C   0  0  0  0  0  0  0  0  0  0  0  0
  1  4  1  0
  1 24  1  0
  1  2  1  1
  1  3  2  0
 25 28  1  0
 25 24  1  0
 25 26  1  6
 25 27  2  0
  6 11  1  0
  6 12  1  0
 29 36  1  0
 29 37  1  0
  9  7  1  6
  7 13  1  0
 10  8  1  1
  8 14  1  0
  4  5  1  0
 36 28  1  1
 33 30  1  6
 30 38  1  0
 34 31  1  6
 31 39  1  0
 35 32  1  1
 32 40  1  0
 41 43  1  0
 15 19  2  0
 42 43  2  0
 16 22  2  0
 12 17  1  6
 17 19  1  0
 17 20  1  0
 18 19  1  0
 18 22  1  0
 18 23  1  0
  9 10  1  0
  9 11  1  0
 10 12  1  0
 11  5  1  6
 33 34  1  0
 33 35  1  0
 34 36  1  0
 35 37  1  0
 37 43  1  1
 20 21  2  0
 21 22  1  0
M  CHG  3   2  -1  26  -1  41  -1
M  END
>  <COMPND>  (242) 
    udp_gluA.pdb 

>  <AUTHOR>  (242) 
    GENERATED BY OPEN BABEL 3.1.1

>  <MASTER>  (242) 
        0    0    0    0    0    0    0    0   56    0   56    0

>  <minimizedAffinity>  (242) 
-6.91547

>  <CNNscore>  (242) 
0.8862080574

>  <CNNaffinity>  (242) 
4.5628342628

>  <CNN_VS>  (242) 
4.0436205864

>  <CNNaffinity_variance>  (242) 
0.3950050175

$$$$
243
     RDKit          3D

 43 45  0  0  0  0  0  0  0  0999 V2000
   23.1076   72.0642   -2.9972 P   0  0  2  0  0  0  0  0  0  0  0  0
   23.9843   73.2338   -3.6917 O   0  0  0  0  0  0  0  0  0  0  0  0
   23.7448   70.7056   -3.0046 O   0  0  0  0  0  0  0  0  0  0  0  0
   21.6691   72.1695   -3.7305 O   0  0  0  0  0  0  0  0  0  0  0  0
   20.9163   70.9848   -3.9158 C   0  0  0  0  0  0  0  0  0  0  0  0
   18.8596   71.7932   -4.8613 O   0  0  0  0  0  0  0  0  0  0  0  0
   17.4911   70.4712   -2.5438 O   0  0  0  0  0  0  0  0  0  0  0  0
   17.0885   68.6898   -4.5688 O   0  0  0  0  0  0  0  0  0  0  0  0
   18.6397   70.0457   -3.2775 C   0  0  1  0  0  0  0  0  0  0  0  0
   18.2285   69.5206   -4.6367 C   0  0  2  0  0  0  0  0  0  0  0  0
   19.4473   71.2830   -3.6449 C   0  0  1  0  0  0  0  0  0  0  0  0
   17.9710   70.8049   -5.4062 C   0  0  2  0  0  0  0  0  0  0  0  0
   16.9593   69.6976   -2.2979 H   0  0  0  0  0  0  0  0  0  0  0  0
   17.3037   67.8857   -4.0696 H   0  0  0  0  0  0  0  0  0  0  0  0
   15.9754   70.4663   -7.3759 O   0  0  0  0  0  0  0  0  0  0  0  0
   19.0946   70.2759  -10.7640 O   0  0  0  0  0  0  0  0  0  0  0  0
   18.2337   70.6644   -6.8105 N   0  0  0  0  0  0  0  0  0  0  0  0
   17.5309   70.3708   -9.0614 N   0  0  0  0  0  0  0  0  0  0  0  0
   17.1594   70.4991   -7.7165 C   0  0  0  0  0  0  0  0  0  0  0  0
   19.5421   70.6926   -7.2776 C   0  0  0  0  0  0  0  0  0  0  0  0
   19.8805   70.5692   -8.5625 C   0  0  0  0  0  0  0  0  0  0  0  0
   18.8179   70.3920   -9.5739 C   0  0  0  0  0  0  0  0  0  0  0  0
   16.8003   70.2525   -9.7107 H   0  0  0  0  0  0  0  0  0  0  0  0
   22.8092   72.6601   -1.5246 O   0  0  0  0  0  0  0  0  0  0  0  0
   21.6309   72.3347   -0.4666 P   0  0  2  0  0  0  0  0  0  0  0  0
   21.5982   70.7166   -0.4355 O   0  0  0  0  0  0  0  0  0  0  0  0
   20.3131   72.9737   -0.7968 O   0  0  0  0  0  0  0  0  0  0  0  0
   22.2394   72.7572    0.9665 O   0  0  0  0  0  0  0  0  0  0  0  0
   23.9623   71.5624    2.0680 O   0  0  0  0  0  0  0  0  0  0  0  0
   22.1531   73.5265    5.2204 O   0  0  0  0  0  0  0  0  0  0  0  0
   20.5385   72.2977    3.1186 O   0  0  0  0  0  0  0  0  0  0  0  0
   24.7030   74.4649    4.1868 O   0  0  0  0  0  0  0  0  0  0  0  0
   22.5899   73.3508    3.8727 C   0  0  2  0  0  0  0  0  0  0  0  0
   21.9381   72.1002    3.2824 C   0  0  2  0  0  0  0  0  0  0  0  0
   24.1130   73.2020    3.8848 C   0  0  1  0  0  0  0  0  0  0  0  0
   22.5536   71.7504    1.9268 C   0  0  1  0  0  0  0  0  0  0  0  0
   24.6373   72.7296    2.5318 C   0  0  1  0  0  0  0  0  0  0  0  0
   21.1879   73.6233    5.2376 H   0  0  0  0  0  0  0  0  0  0  0  0
   20.1414   72.5203    3.9749 H   0  0  0  0  0  0  0  0  0  0  0  0
   24.3774   74.7769    5.0455 H   0  0  0  0  0  0  0  0  0  0  0  0
   26.1879   71.0032    2.1900 O   0  0  0  0  0  0  0  0  0  0  0  0
   26.9774   72.9501    3.0764 O   0  0  0  0  0  0  0  0  0  0  0  0
   26.0562   72.2749    2.6422 C   0  0  0  0  0  0  0  0  0  0  0  0
  1  4  1  0
  1 24  1  0
  1  2  1  6
  1  3  2  0
 25 28  1  0
 25 24  1  0
 25 26  1  1
 25 27  2  0
  6 11  1  0
  6 12  1  0
 29 36  1  0
 29 37  1  0
  9  7  1  1
  7 13  1  0
 10  8  1  1
  8 14  1  0
  4  5  1  0
 36 28  1  6
 33 30  1  1
 30 38  1  0
 34 31  1  6
 31 39  1  0
 35 32  1  6
 32 40  1  0
 41 43  1  0
 15 19  2  0
 42 43  2  0
 16 22  2  0
 12 17  1  6
 17 19  1  0
 17 20  1  0
 18 19  1  0
 18 22  1  0
 18 23  1  0
  9 10  1  0
  9 11  1  0
 10 12  1  0
 11  5  1  6
 33 34  1  0
 33 35  1  0
 34 36  1  0
 35 37  1  0
 37 43  1  1
 20 21  2  0
 21 22  1  0
M  CHG  3   2  -1  26  -1  41  -1
M  END
>  <COMPND>  (243) 
    udp_gluA.pdb 

>  <AUTHOR>  (243) 
    GENERATED BY OPEN BABEL 3.1.1

>  <MASTER>  (243) 
        0    0    0    0    0    0    0    0   56    0   56    0

>  <minimizedAffinity>  (243) 
-7.50472

>  <CNNscore>  (243) 
0.8850969076

>  <CNNaffinity>  (243) 
4.7577877045

>  <CNN_VS>  (243) 
4.2111029625

>  <CNNaffinity_variance>  (243) 
0.0327108391

$$$$
244
     RDKit          3D

 43 45  0  0  0  0  0  0  0  0999 V2000
   21.3377   72.9709   -5.1881 P   0  0  2  0  0  0  0  0  0  0  0  0
   21.7414   74.4446   -4.6551 O   0  0  0  0  0  0  0  0  0  0  0  0
   21.6685   72.7050   -6.6274 O   0  0  0  0  0  0  0  0  0  0  0  0
   19.7766   72.8272   -4.7878 O   0  0  0  0  0  0  0  0  0  0  0  0
   19.4105   71.8469   -3.8341 C   0  0  0  0  0  0  0  0  0  0  0  0
   17.4503   71.9094   -5.2238 O   0  0  0  0  0  0  0  0  0  0  0  0
   16.1148   70.2762   -3.0929 O   0  0  0  0  0  0  0  0  0  0  0  0
   16.7286   68.4060   -4.9802 O   0  0  0  0  0  0  0  0  0  0  0  0
   17.4659   70.2309   -3.5525 C   0  0  1  0  0  0  0  0  0  0  0  0
   17.5358   69.5626   -4.9093 C   0  0  2  0  0  0  0  0  0  0  0  0
   17.9001   71.6541   -3.8756 C   0  0  1  0  0  0  0  0  0  0  0  0
   17.0538   70.6696   -5.8313 C   0  0  2  0  0  0  0  0  0  0  0  0
   15.8150   69.3781   -2.8802 H   0  0  0  0  0  0  0  0  0  0  0  0
   17.0767   67.7312   -4.3756 H   0  0  0  0  0  0  0  0  0  0  0  0
   15.5769   70.7093   -8.2383 O   0  0  0  0  0  0  0  0  0  0  0  0
   19.3915   70.3355  -10.7983 O   0  0  0  0  0  0  0  0  0  0  0  0
   17.6357   70.5842   -7.1409 N   0  0  0  0  0  0  0  0  0  0  0  0
   17.4781   70.5221   -9.5110 N   0  0  0  0  0  0  0  0  0  0  0  0
   16.8047   70.6128   -8.2857 C   0  0  0  0  0  0  0  0  0  0  0  0
   19.0138   70.4754   -7.2817 C   0  0  0  0  0  0  0  0  0  0  0  0
   19.6413   70.3899   -8.4564 C   0  0  0  0  0  0  0  0  0  0  0  0
   18.8460   70.4117   -9.7015 C   0  0  0  0  0  0  0  0  0  0  0  0
   16.9205   70.5378  -10.3223 H   0  0  0  0  0  0  0  0  0  0  0  0
   22.0744   71.9899   -4.1356 O   0  0  0  0  0  0  0  0  0  0  0  0
   23.4848   72.1339   -3.3585 P   0  0  2  0  0  0  0  0  0  0  0  0
   24.3967   72.9734   -4.3996 O   0  0  0  0  0  0  0  0  0  0  0  0
   24.0848   70.8280   -2.9244 O   0  0  0  0  0  0  0  0  0  0  0  0
   23.1855   73.1660   -2.1552 O   0  0  0  0  0  0  0  0  0  0  0  0
   21.8374   72.0652   -0.5491 O   0  0  0  0  0  0  0  0  0  0  0  0
   22.2376   75.8221    1.1221 O   0  0  0  0  0  0  0  0  0  0  0  0
   21.7615   75.5195   -1.7442 O   0  0  0  0  0  0  0  0  0  0  0  0
   23.7536   73.5821    2.1876 O   0  0  0  0  0  0  0  0  0  0  0  0
   22.6414   74.6862    0.3575 C   0  0  2  0  0  0  0  0  0  0  0  0
   21.6576   74.4672   -0.7921 C   0  0  2  0  0  0  0  0  0  0  0  0
   22.6532   73.4705    1.2869 C   0  0  1  0  0  0  0  0  0  0  0  0
   21.9228   73.1338   -1.4925 C   0  0  1  0  0  0  0  0  0  0  0  0
   22.7959   72.1701    0.5013 C   0  0  1  0  0  0  0  0  0  0  0  0
   22.2227   76.6071    0.5522 H   0  0  0  0  0  0  0  0  0  0  0  0
   21.5947   76.3686   -1.3065 H   0  0  0  0  0  0  0  0  0  0  0  0
   23.6749   74.4058    2.6937 H   0  0  0  0  0  0  0  0  0  0  0  0
   23.3763   70.8832    2.3745 O   0  0  0  0  0  0  0  0  0  0  0  0
   21.5410   70.2281    1.1907 O   0  0  0  0  0  0  0  0  0  0  0  0
   22.4788   70.9919    1.3637 C   0  0  0  0  0  0  0  0  0  0  0  0
  1  4  1  0
  1 24  1  0
  1  2  1  1
  1  3  2  0
 25 28  1  0
 25 24  1  0
 25 26  1  6
 25 27  2  0
  6 11  1  0
  6 12  1  0
 29 36  1  0
 29 37  1  0
  9  7  1  6
  7 13  1  0
 10  8  1  1
  8 14  1  0
  4  5  1  0
 36 28  1  1
 33 30  1  1
 30 38  1  0
 34 31  1  6
 31 39  1  0
 35 32  1  1
 32 40  1  0
 41 43  1  0
 15 19  2  0
 42 43  2  0
 16 22  2  0
 12 17  1  6
 17 19  1  0
 17 20  1  0
 18 19  1  0
 18 22  1  0
 18 23  1  0
  9 10  1  0
  9 11  1  0
 10 12  1  0
 11  5  1  6
 33 34  1  0
 33 35  1  0
 34 36  1  0
 35 37  1  0
 37 43  1  1
 20 21  2  0
 21 22  1  0
M  CHG  3   2  -1  26  -1  41  -1
M  END
>  <COMPND>  (244) 
    udp_gluA.pdb 

>  <AUTHOR>  (244) 
    GENERATED BY OPEN BABEL 3.1.1

>  <MASTER>  (244) 
        0    0    0    0    0    0    0    0   56    0   56    0

>  <minimizedAffinity>  (244) 
-8.05795

>  <CNNscore>  (244) 
0.8843291402

>  <CNNaffinity>  (244) 
4.6931529045

>  <CNN_VS>  (244) 
4.1502919197

>  <CNNaffinity_variance>  (244) 
0.0522847362

$$$$
245
     RDKit          3D

 43 45  0  0  0  0  0  0  0  0999 V2000
   21.5555   72.5874   -4.7928 P   0  0  2  0  0  0  0  0  0  0  0  0
   21.2597   74.1782   -4.8205 O   0  0  0  0  0  0  0  0  0  0  0  0
   22.5766   72.1155   -5.7860 O   0  0  0  0  0  0  0  0  0  0  0  0
   20.0884   71.9171   -4.9211 O   0  0  0  0  0  0  0  0  0  0  0  0
   19.5310   71.2872   -3.7822 C   0  0  0  0  0  0  0  0  0  0  0  0
   17.6566   71.7668   -5.2085 O   0  0  0  0  0  0  0  0  0  0  0  0
   15.9943   70.2618   -3.2178 O   0  0  0  0  0  0  0  0  0  0  0  0
   16.3447   68.4302   -5.2074 O   0  0  0  0  0  0  0  0  0  0  0  0
   17.3326   70.0137   -3.6489 C   0  0  1  0  0  0  0  0  0  0  0  0
   17.3332   69.4255   -5.0440 C   0  0  2  0  0  0  0  0  0  0  0  0
   18.0119   71.3583   -3.8698 C   0  0  1  0  0  0  0  0  0  0  0  0
   17.0762   70.6516   -5.9034 C   0  0  2  0  0  0  0  0  0  0  0  0
   15.5400   69.4171   -3.0701 H   0  0  0  0  0  0  0  0  0  0  0  0
   16.5534   67.6710   -4.6400 H   0  0  0  0  0  0  0  0  0  0  0  0
   15.6434   70.7280   -8.3360 O   0  0  0  0  0  0  0  0  0  0  0  0
   19.4897   70.2383  -10.8280 O   0  0  0  0  0  0  0  0  0  0  0  0
   17.6782   70.5463   -7.2024 N   0  0  0  0  0  0  0  0  0  0  0  0
   17.5604   70.4830   -9.5748 N   0  0  0  0  0  0  0  0  0  0  0  0
   16.8685   70.5961   -8.3617 C   0  0  0  0  0  0  0  0  0  0  0  0
   19.0549   70.3974   -7.3188 C   0  0  0  0  0  0  0  0  0  0  0  0
   19.7000   70.2911   -8.4821 C   0  0  0  0  0  0  0  0  0  0  0  0
   18.9276   70.3328   -9.7411 C   0  0  0  0  0  0  0  0  0  0  0  0
   17.0177   70.5129  -10.3957 H   0  0  0  0  0  0  0  0  0  0  0  0
   21.9445   72.3174   -3.2473 O   0  0  0  0  0  0  0  0  0  0  0  0
   23.3801   72.1001   -2.5365 P   0  0  2  0  0  0  0  0  0  0  0  0
   24.1713   73.4714   -2.8740 O   0  0  0  0  0  0  0  0  0  0  0  0
   24.0963   70.8518   -2.9639 O   0  0  0  0  0  0  0  0  0  0  0  0
   23.0713   72.1868   -0.9554 O   0  0  0  0  0  0  0  0  0  0  0  0
   24.3274   70.9694    0.6413 O   0  0  0  0  0  0  0  0  0  0  0  0
   20.8601   71.7766    2.7374 O   0  0  0  0  0  0  0  0  0  0  0  0
   20.7402   70.9587   -0.0646 O   0  0  0  0  0  0  0  0  0  0  0  0
   23.2885   73.2713    3.3028 O   0  0  0  0  0  0  0  0  0  0  0  0
   21.8944   72.0233    1.7849 C   0  0  2  0  0  0  0  0  0  0  0  0
   21.9096   70.9034    0.7443 C   0  0  2  0  0  0  0  0  0  0  0  0
   23.2271   72.0705    2.5355 C   0  0  1  0  0  0  0  0  0  0  0  0
   23.1423   71.0084   -0.1547 C   0  0  1  0  0  0  0  0  0  0  0  0
   24.4103   72.0463    1.5721 C   0  0  1  0  0  0  0  0  0  0  0  0
   20.0034   71.7424    2.2832 H   0  0  0  0  0  0  0  0  0  0  0  0
   19.9541   70.8929    0.4994 H   0  0  0  0  0  0  0  0  0  0  0  0
   22.5407   73.2992    3.9200 H   0  0  0  0  0  0  0  0  0  0  0  0
   26.1309   72.8747    2.9340 O   0  0  0  0  0  0  0  0  0  0  0  0
   26.2470   70.6786    2.3319 O   0  0  0  0  0  0  0  0  0  0  0  0
   25.6827   71.7619    2.3017 C   0  0  0  0  0  0  0  0  0  0  0  0
  1  4  1  0
  1 24  1  0
  1  2  1  1
  1  3  2  0
 25 28  1  0
 25 24  1  0
 25 26  1  6
 25 27  2  0
  6 11  1  0
  6 12  1  0
 29 36  1  0
 29 37  1  0
  9  7  1  6
  7 13  1  0
 10  8  1  1
  8 14  1  0
  4  5  1  0
 36 28  1  1
 33 30  1  1
 30 38  1  0
 34 31  1  6
 31 39  1  0
 35 32  1  6
 32 40  1  0
 41 43  1  0
 15 19  2  0
 42 43  2  0
 16 22  2  0
 12 17  1  6
 17 19  1  0
 17 20  1  0
 18 19  1  0
 18 22  1  0
 18 23  1  0
  9 10  1  0
  9 11  1  0
 10 12  1  0
 11  5  1  6
 33 34  1  0
 33 35  1  0
 34 36  1  0
 35 37  1  0
 37 43  1  1
 20 21  2  0
 21 22  1  0
M  CHG  3   2  -1  26  -1  41  -1
M  END
>  <COMPND>  (245) 
    udp_gluA.pdb 

>  <AUTHOR>  (245) 
    GENERATED BY OPEN BABEL 3.1.1

>  <MASTER>  (245) 
        0    0    0    0    0    0    0    0   56    0   56    0

>  <minimizedAffinity>  (245) 
-8.56147

>  <CNNscore>  (245) 
0.8780138493

>  <CNNaffinity>  (245) 
4.7581758499

>  <CNN_VS>  (245) 
4.1777443886

>  <CNNaffinity_variance>  (245) 
0.0382093564

$$$$
246
     RDKit          3D

 43 45  0  0  0  0  0  0  0  0999 V2000
   22.5200   71.8354   -3.2227 P   0  0  2  0  0  0  0  0  0  0  0  0
   24.0116   71.2080   -3.2071 O   0  0  0  0  0  0  0  0  0  0  0  0
   22.3504   73.0865   -2.4116 O   0  0  0  0  0  0  0  0  0  0  0  0
   21.5715   70.5931   -2.8046 O   0  0  0  0  0  0  0  0  0  0  0  0
   20.6716   70.0755   -3.7674 C   0  0  0  0  0  0  0  0  0  0  0  0
   18.8910   71.3927   -4.7013 O   0  0  0  0  0  0  0  0  0  0  0  0
   17.1464   70.2073   -2.5699 O   0  0  0  0  0  0  0  0  0  0  0  0
   16.4818   68.7384   -4.7691 O   0  0  0  0  0  0  0  0  0  0  0  0
   18.2151   69.6058   -3.3010 C   0  0  1  0  0  0  0  0  0  0  0  0
   17.7755   69.3025   -4.7177 C   0  0  2  0  0  0  0  0  0  0  0  0
   19.2883   70.6634   -3.5199 C   0  0  1  0  0  0  0  0  0  0  0  0
   17.8420   70.6735   -5.3688 C   0  0  2  0  0  0  0  0  0  0  0  0
   16.4484   69.5506   -2.4178 H   0  0  0  0  0  0  0  0  0  0  0  0
   16.4919   67.8669   -4.3422 H   0  0  0  0  0  0  0  0  0  0  0  0
   15.9055   70.3983   -7.4062 O   0  0  0  0  0  0  0  0  0  0  0  0
   19.1174   70.4035  -10.7119 O   0  0  0  0  0  0  0  0  0  0  0  0
   18.1445   70.6004   -6.7703 N   0  0  0  0  0  0  0  0  0  0  0  0
   17.5071   70.4001   -9.0506 N   0  0  0  0  0  0  0  0  0  0  0  0
   17.0976   70.4622   -7.7121 C   0  0  0  0  0  0  0  0  0  0  0  0
   19.4645   70.6671   -7.1993 C   0  0  0  0  0  0  0  0  0  0  0  0
   19.8393   70.6067   -8.4786 C   0  0  0  0  0  0  0  0  0  0  0  0
   18.8071   70.4616   -9.5259 C   0  0  0  0  0  0  0  0  0  0  0  0
   16.7961   70.3019   -9.7245 H   0  0  0  0  0  0  0  0  0  0  0  0
   22.2161   72.0096   -4.8007 O   0  0  0  0  0  0  0  0  0  0  0  0
   22.2827   73.3114   -5.7571 P   0  0  2  0  0  0  0  0  0  0  0  0
   22.3938   72.6747   -7.2412 O   0  0  0  0  0  0  0  0  0  0  0  0
   23.3832   74.2728   -5.4128 O   0  0  0  0  0  0  0  0  0  0  0  0
   20.7991   73.9417   -5.6945 O   0  0  0  0  0  0  0  0  0  0  0  0
   20.4203   76.2608   -5.9899 O   0  0  0  0  0  0  0  0  0  0  0  0
   16.9604   75.0826   -4.0642 O   0  0  0  0  0  0  0  0  0  0  0  0
   19.5561   74.0507   -3.2087 O   0  0  0  0  0  0  0  0  0  0  0  0
   16.9266   75.6334   -6.9184 O   0  0  0  0  0  0  0  0  0  0  0  0
   18.0875   74.9316   -4.9272 C   0  0  2  0  0  0  0  0  0  0  0  0
   19.3751   75.1236   -4.1256 C   0  0  2  0  0  0  0  0  0  0  0  0
   17.9841   75.9882   -6.0294 C   0  0  1  0  0  0  0  0  0  0  0  0
   20.5901   75.1977   -5.0515 C   0  0  1  0  0  0  0  0  0  0  0  0
   19.2802   76.0883   -6.8285 C   0  0  1  0  0  0  0  0  0  0  0  0
   17.0046   74.4213   -3.3556 H   0  0  0  0  0  0  0  0  0  0  0  0
   18.7887   73.9976   -2.6182 H   0  0  0  0  0  0  0  0  0  0  0  0
   16.0958   75.5662   -6.4222 H   0  0  0  0  0  0  0  0  0  0  0  0
   18.4101   77.2142   -8.6931 O   0  0  0  0  0  0  0  0  0  0  0  0
   19.9929   78.3036   -7.4656 O   0  0  0  0  0  0  0  0  0  0  0  0
   19.2914   77.3239   -7.6684 C   0  0  0  0  0  0  0  0  0  0  0  0
  1  4  1  0
  1 24  1  0
  1  2  1  6
  1  3  2  0
 25 28  1  0
 25 24  1  0
 25 26  1  6
 25 27  2  0
  6 11  1  0
  6 12  1  0
 29 36  1  0
 29 37  1  0
  9  7  1  1
  7 13  1  0
 10  8  1  1
  8 14  1  0
  4  5  1  0
 36 28  1  6
 33 30  1  1
 30 38  1  0
 34 31  1  1
 31 39  1  0
 35 32  1  6
 32 40  1  0
 41 43  1  0
 15 19  2  0
 42 43  2  0
 16 22  2  0
 12 17  1  6
 17 19  1  0
 17 20  1  0
 18 19  1  0
 18 22  1  0
 18 23  1  0
  9 10  1  0
  9 11  1  0
 10 12  1  0
 11  5  1  6
 33 34  1  0
 33 35  1  0
 34 36  1  0
 35 37  1  0
 37 43  1  6
 20 21  2  0
 21 22  1  0
M  CHG  3   2  -1  26  -1  41  -1
M  END
>  <COMPND>  (246) 
    udp_gluA.pdb 

>  <AUTHOR>  (246) 
    GENERATED BY OPEN BABEL 3.1.1

>  <MASTER>  (246) 
        0    0    0    0    0    0    0    0   56    0   56    0

>  <minimizedAffinity>  (246) 
-6.28766

>  <CNNscore>  (246) 
0.8268173933

>  <CNNaffinity>  (246) 
4.4961175919

>  <CNN_VS>  (246) 
3.7174682617

>  <CNNaffinity_variance>  (246) 
0.2471237183

$$$$
247
     RDKit          3D

 43 45  0  0  0  0  0  0  0  0999 V2000
   20.8828   71.3909   -1.6265 P   0  0  2  0  0  0  0  0  0  0  0  0
   22.3248   70.8586   -2.1326 O   0  0  0  0  0  0  0  0  0  0  0  0
   19.8548   70.3206   -1.4041 O   0  0  0  0  0  0  0  0  0  0  0  0
   20.4886   72.5303   -2.7055 O   0  0  0  0  0  0  0  0  0  0  0  0
   19.9917   72.1236   -3.9673 C   0  0  0  0  0  0  0  0  0  0  0  0
   18.2586   72.8306   -5.4753 O   0  0  0  0  0  0  0  0  0  0  0  0
   16.3251   72.0801   -3.3097 O   0  0  0  0  0  0  0  0  0  0  0  0
   16.1785   69.9486   -5.0043 O   0  0  0  0  0  0  0  0  0  0  0  0
   17.5539   71.4547   -3.6806 C   0  0  1  0  0  0  0  0  0  0  0  0
   17.3819   70.6873   -4.9743 C   0  0  2  0  0  0  0  0  0  0  0  0
   18.5334   72.5475   -4.0862 C   0  0  1  0  0  0  0  0  0  0  0  0
   17.4107   71.8005   -6.0076 C   0  0  2  0  0  0  0  0  0  0  0  0
   15.6832   71.4016   -3.0465 H   0  0  0  0  0  0  0  0  0  0  0  0
   16.2096   69.2524   -4.3288 H   0  0  0  0  0  0  0  0  0  0  0  0
   15.8815   70.5804   -8.0446 O   0  0  0  0  0  0  0  0  0  0  0  0
   19.5504   70.1677  -10.8037 O   0  0  0  0  0  0  0  0  0  0  0  0
   17.9410   71.3644   -7.2683 N   0  0  0  0  0  0  0  0  0  0  0  0
   17.7105   70.3751   -9.4165 N   0  0  0  0  0  0  0  0  0  0  0  0
   17.0873   70.7628   -8.2230 C   0  0  0  0  0  0  0  0  0  0  0  0
   19.2910   71.5353   -7.5494 C   0  0  0  0  0  0  0  0  0  0  0  0
   19.8706   71.1608   -8.6915 C   0  0  0  0  0  0  0  0  0  0  0  0
   19.0491   70.5235   -9.7415 C   0  0  0  0  0  0  0  0  0  0  0  0
   17.1368   69.9521  -10.0956 H   0  0  0  0  0  0  0  0  0  0  0  0
   21.2552   72.2509   -0.3094 O   0  0  0  0  0  0  0  0  0  0  0  0
   21.3706   71.8174    1.2438 P   0  0  2  0  0  0  0  0  0  0  0  0
   21.5064   70.2061    1.1689 O   0  0  0  0  0  0  0  0  0  0  0  0
   20.2404   72.3034    2.1043 O   0  0  0  0  0  0  0  0  0  0  0  0
   22.8300   72.3281    1.7039 O   0  0  0  0  0  0  0  0  0  0  0  0
   24.4510   73.6610    0.6063 O   0  0  0  0  0  0  0  0  0  0  0  0
   26.8245   71.0267    2.7266 O   0  0  0  0  0  0  0  0  0  0  0  0
   24.4295   70.0808    1.3469 O   0  0  0  0  0  0  0  0  0  0  0  0
   26.5076   73.7673    3.6430 O   0  0  0  0  0  0  0  0  0  0  0  0
   25.6719   71.8314    2.4773 C   0  0  2  0  0  0  0  0  0  0  0  0
   24.9990   71.3744    1.1827 C   0  0  2  0  0  0  0  0  0  0  0  0
   26.1288   73.2868    2.3546 C   0  0  1  0  0  0  0  0  0  0  0  0
   23.9010   72.3523    0.7621 C   0  0  1  0  0  0  0  0  0  0  0  0
   25.0148   74.1764    1.8103 C   0  0  1  0  0  0  0  0  0  0  0  0
   26.5586   70.0973    2.8083 H   0  0  0  0  0  0  0  0  0  0  0  0
   25.1206   69.4552    1.6141 H   0  0  0  0  0  0  0  0  0  0  0  0
   27.2160   73.2096    4.0007 H   0  0  0  0  0  0  0  0  0  0  0  0
   25.1376   75.8122    0.1338 O   0  0  0  0  0  0  0  0  0  0  0  0
   26.2723   76.2192    2.0693 O   0  0  0  0  0  0  0  0  0  0  0  0
   25.5550   75.5034    1.3866 C   0  0  0  0  0  0  0  0  0  0  0  0
  1  4  1  0
  1 24  1  0
  1  2  1  6
  1  3  2  0
 25 28  1  0
 25 24  1  0
 25 26  1  6
 25 27  2  0
  6 11  1  0
  6 12  1  0
 29 36  1  0
 29 37  1  0
  9  7  1  6
  7 13  1  0
 10  8  1  1
  8 14  1  0
  4  5  1  0
 36 28  1  1
 33 30  1  6
 30 38  1  0
 34 31  1  1
 31 39  1  0
 35 32  1  1
 32 40  1  0
 41 43  1  0
 15 19  2  0
 42 43  2  0
 16 22  2  0
 12 17  1  6
 17 19  1  0
 17 20  1  0
 18 19  1  0
 18 22  1  0
 18 23  1  0
  9 10  1  0
  9 11  1  0
 10 12  1  0
 11  5  1  6
 33 34  1  0
 33 35  1  0
 34 36  1  0
 35 37  1  0
 37 43  1  6
 20 21  2  0
 21 22  1  0
M  CHG  3   2  -1  26  -1  41  -1
M  END
>  <COMPND>  (247) 
    udp_gluA.pdb 

>  <AUTHOR>  (247) 
    GENERATED BY OPEN BABEL 3.1.1

>  <MASTER>  (247) 
        0    0    0    0    0    0    0    0   56    0   56    0

>  <minimizedAffinity>  (247) 
-7.62975

>  <CNNscore>  (247) 
0.8202062845

>  <CNNaffinity>  (247) 
4.5946774483

>  <CNN_VS>  (247) 
3.7685832977

>  <CNNaffinity_variance>  (247) 
0.1116440743

$$$$
248
     RDKit          3D

 43 45  0  0  0  0  0  0  0  0999 V2000
   22.9482   73.1791   -4.3595 P   0  0  2  0  0  0  0  0  0  0  0  0
   23.3010   74.1952   -5.5685 O   0  0  0  0  0  0  0  0  0  0  0  0
   24.0657   72.2626   -3.9556 O   0  0  0  0  0  0  0  0  0  0  0  0
   21.5861   72.4540   -4.8463 O   0  0  0  0  0  0  0  0  0  0  0  0
   21.0070   71.4706   -4.0085 C   0  0  0  0  0  0  0  0  0  0  0  0
   18.9731   72.2505   -5.0249 O   0  0  0  0  0  0  0  0  0  0  0  0
   17.5652   71.1398   -2.6216 O   0  0  0  0  0  0  0  0  0  0  0  0
   17.1306   69.2188   -4.5076 O   0  0  0  0  0  0  0  0  0  0  0  0
   18.7069   70.6340   -3.3141 C   0  0  1  0  0  0  0  0  0  0  0  0
   18.2895   70.0163   -4.6318 C   0  0  2  0  0  0  0  0  0  0  0  0
   19.5440   71.8214   -3.7698 C   0  0  1  0  0  0  0  0  0  0  0  0
   18.0645   71.2437   -5.4983 C   0  0  2  0  0  0  0  0  0  0  0  0
   17.0149   70.3993   -2.3207 H   0  0  0  0  0  0  0  0  0  0  0  0
   17.3254   68.4505   -3.9474 H   0  0  0  0  0  0  0  0  0  0  0  0
   16.1406   70.3169   -7.3466 O   0  0  0  0  0  0  0  0  0  0  0  0
   19.1945   70.3078  -10.7987 O   0  0  0  0  0  0  0  0  0  0  0  0
   18.3298   70.9907   -6.8863 N   0  0  0  0  0  0  0  0  0  0  0  0
   17.6637   70.3123   -9.0639 N   0  0  0  0  0  0  0  0  0  0  0  0
   17.2930   70.5264   -7.7298 C   0  0  0  0  0  0  0  0  0  0  0  0
   19.6036   71.2039   -7.3990 C   0  0  0  0  0  0  0  0  0  0  0  0
   19.9417   70.9954   -8.6730 C   0  0  0  0  0  0  0  0  0  0  0  0
   18.9172   70.5093   -9.6203 C   0  0  0  0  0  0  0  0  0  0  0  0
   16.9593   69.9870   -9.6700 H   0  0  0  0  0  0  0  0  0  0  0  0
   22.4344   74.1703   -3.1906 O   0  0  0  0  0  0  0  0  0  0  0  0
   23.1824   74.7359   -1.8737 P   0  0  2  0  0  0  0  0  0  0  0  0
   22.4316   76.1433   -1.5977 O   0  0  0  0  0  0  0  0  0  0  0  0
   24.6731   74.8470   -2.0122 O   0  0  0  0  0  0  0  0  0  0  0  0
   22.6911   73.7710   -0.6778 O   0  0  0  0  0  0  0  0  0  0  0  0
   23.8418   73.4483    1.3669 O   0  0  0  0  0  0  0  0  0  0  0  0
   21.6735   69.9451    1.0604 O   0  0  0  0  0  0  0  0  0  0  0  0
   23.0020   71.0743   -1.2836 O   0  0  0  0  0  0  0  0  0  0  0  0
   20.8303   72.0262    2.9067 O   0  0  0  0  0  0  0  0  0  0  0  0
   21.9333   71.3370    0.8786 C   0  0  2  0  0  0  0  0  0  0  0  0
   23.2077   71.5161    0.0532 C   0  0  2  0  0  0  0  0  0  0  0  0
   22.1010   71.9713    2.2611 C   0  0  1  0  0  0  0  0  0  0  0  0
   23.6441   72.9817    0.0318 C   0  0  1  0  0  0  0  0  0  0  0  0
   22.6584   73.3882    2.1601 C   0  0  1  0  0  0  0  0  0  0  0  0
   21.5634   69.5207    0.1949 H   0  0  0  0  0  0  0  0  0  0  0  0
   22.7246   70.1451   -1.2775 H   0  0  0  0  0  0  0  0  0  0  0  0
   20.4645   71.1306    2.9772 H   0  0  0  0  0  0  0  0  0  0  0  0
   23.9030   74.9734    3.3599 O   0  0  0  0  0  0  0  0  0  0  0  0
   22.8447   73.3529    4.5653 O   0  0  0  0  0  0  0  0  0  0  0  0
   23.1242   73.8715    3.4949 C   0  0  0  0  0  0  0  0  0  0  0  0
  1  4  1  0
  1 24  1  0
  1  2  1  6
  1  3  2  0
 25 28  1  0
 25 24  1  0
 25 26  1  1
 25 27  2  0
  6 11  1  0
  6 12  1  0
 29 36  1  0
 29 37  1  0
  9  7  1  6
  7 13  1  0
 10  8  1  1
  8 14  1  0
  4  5  1  0
 36 28  1  1
 33 30  1  1
 30 38  1  0
 34 31  1  6
 31 39  1  0
 35 32  1  6
 32 40  1  0
 41 43  1  0
 15 19  2  0
 42 43  2  0
 16 22  2  0
 12 17  1  6
 17 19  1  0
 17 20  1  0
 18 19  1  0
 18 22  1  0
 18 23  1  0
  9 10  1  0
  9 11  1  0
 10 12  1  0
 11  5  1  6
 33 34  1  0
 33 35  1  0
 34 36  1  0
 35 37  1  0
 37 43  1  1
 20 21  2  0
 21 22  1  0
M  CHG  3   2  -1  26  -1  41  -1
M  END
>  <COMPND>  (248) 
    udp_gluA.pdb 

>  <AUTHOR>  (248) 
    GENERATED BY OPEN BABEL 3.1.1

>  <MASTER>  (248) 
        0    0    0    0    0    0    0    0   56    0   56    0

>  <minimizedAffinity>  (248) 
-7.63586

>  <CNNscore>  (248) 
0.7849254012

>  <CNNaffinity>  (248) 
4.5669374466

>  <CNN_VS>  (248) 
3.5847051144

>  <CNNaffinity_variance>  (248) 
0.0338477008

$$$$
249
     RDKit          3D

 43 45  0  0  0  0  0  0  0  0999 V2000
   19.8408   74.1025   -2.1786 P   0  0  2  0  0  0  0  0  0  0  0  0
   18.4021   74.3521   -1.4809 O   0  0  0  0  0  0  0  0  0  0  0  0
   20.7688   75.2814   -2.1563 O   0  0  0  0  0  0  0  0  0  0  0  0
   19.4672   73.5299   -3.6451 O   0  0  0  0  0  0  0  0  0  0  0  0
   19.2366   72.1405   -3.7899 C   0  0  0  0  0  0  0  0  0  0  0  0
   17.3393   72.0779   -5.2643 O   0  0  0  0  0  0  0  0  0  0  0  0
   15.9641   70.4892   -3.1250 O   0  0  0  0  0  0  0  0  0  0  0  0
   16.7221   68.5647   -4.9021 O   0  0  0  0  0  0  0  0  0  0  0  0
   17.3351   70.4715   -3.5234 C   0  0  1  0  0  0  0  0  0  0  0  0
   17.4873   69.7505   -4.8460 C   0  0  2  0  0  0  0  0  0  0  0  0
   17.7366   71.8942   -3.8882 C   0  0  1  0  0  0  0  0  0  0  0  0
   17.0110   70.8010   -5.8346 C   0  0  2  0  0  0  0  0  0  0  0  0
   15.6846   69.5909   -2.8871 H   0  0  0  0  0  0  0  0  0  0  0  0
   17.0648   67.9280   -4.2547 H   0  0  0  0  0  0  0  0  0  0  0  0
   15.6421   70.6817   -8.3021 O   0  0  0  0  0  0  0  0  0  0  0  0
   19.5775   70.3428  -10.6772 O   0  0  0  0  0  0  0  0  0  0  0  0
   17.6532   70.6816   -7.1130 N   0  0  0  0  0  0  0  0  0  0  0  0
   17.6034   70.5120   -9.4826 N   0  0  0  0  0  0  0  0  0  0  0  0
   16.8734   70.6297   -8.2925 C   0  0  0  0  0  0  0  0  0  0  0  0
   19.0392   70.6189   -7.1897 C   0  0  0  0  0  0  0  0  0  0  0  0
   19.7209   70.5069   -8.3314 C   0  0  0  0  0  0  0  0  0  0  0  0
   18.9815   70.4453   -9.6093 C   0  0  0  0  0  0  0  0  0  0  0  0
   17.0822   70.4719  -10.3169 H   0  0  0  0  0  0  0  0  0  0  0  0
   20.3955   72.7942   -1.4082 O   0  0  0  0  0  0  0  0  0  0  0  0
   21.8884   72.1851   -1.2904 P   0  0  2  0  0  0  0  0  0  0  0  0
   22.6168   72.7300   -2.6294 O   0  0  0  0  0  0  0  0  0  0  0  0
   21.9338   70.6936   -1.1251 O   0  0  0  0  0  0  0  0  0  0  0  0
   22.5746   73.0131   -0.0879 O   0  0  0  0  0  0  0  0  0  0  0  0
   23.3480   71.6819    1.7117 O   0  0  0  0  0  0  0  0  0  0  0  0
   23.7153   75.4920    3.2660 O   0  0  0  0  0  0  0  0  0  0  0  0
   21.3557   74.7474    1.7129 O   0  0  0  0  0  0  0  0  0  0  0  0
   26.0738   74.0481    2.3697 O   0  0  0  0  0  0  0  0  0  0  0  0
   23.7101   74.4972    2.2422 C   0  0  2  0  0  0  0  0  0  0  0  0
   22.3358   73.8298    2.1841 C   0  0  2  0  0  0  0  0  0  0  0  0
   24.7889   73.4656    2.5798 C   0  0  1  0  0  0  0  0  0  0  0  0
   22.3589   72.6091    1.2630 C   0  0  1  0  0  0  0  0  0  0  0  0
   24.6668   72.2239    1.7012 C   0  0  1  0  0  0  0  0  0  0  0  0
   23.0374   76.1586    3.0728 H   0  0  0  0  0  0  0  0  0  0  0  0
   21.3358   75.5245    2.2925 H   0  0  0  0  0  0  0  0  0  0  0  0
   26.1644   74.8396    2.9231 H   0  0  0  0  0  0  0  0  0  0  0  0
   24.7175   70.0297    2.5284 O   0  0  0  0  0  0  0  0  0  0  0  0
   26.7033   71.1445    2.4148 O   0  0  0  0  0  0  0  0  0  0  0  0
   25.4937   71.1052    2.2460 C   0  0  0  0  0  0  0  0  0  0  0  0
  1  4  1  0
  1 24  1  0
  1  2  1  1
  1  3  2  0
 25 28  1  0
 25 24  1  0
 25 26  1  6
 25 27  2  0
  6 11  1  0
  6 12  1  0
 29 36  1  0
 29 37  1  0
  9  7  1  6
  7 13  1  0
 10  8  1  1
  8 14  1  0
  4  5  1  0
 36 28  1  6
 33 30  1  1
 30 38  1  0
 34 31  1  6
 31 39  1  0
 35 32  1  6
 32 40  1  0
 41 43  1  0
 15 19  2  0
 42 43  2  0
 16 22  2  0
 12 17  1  6
 17 19  1  0
 17 20  1  0
 18 19  1  0
 18 22  1  0
 18 23  1  0
  9 10  1  0
  9 11  1  0
 10 12  1  0
 11  5  1  6
 33 34  1  0
 33 35  1  0
 34 36  1  0
 35 37  1  0
 37 43  1  1
 20 21  2  0
 21 22  1  0
M  CHG  3   2  -1  26  -1  41  -1
M  END
>  <COMPND>  (249) 
    udp_gluA.pdb 

>  <AUTHOR>  (249) 
    GENERATED BY OPEN BABEL 3.1.1

>  <MASTER>  (249) 
        0    0    0    0    0    0    0    0   56    0   56    0

>  <minimizedAffinity>  (249) 
-6.85803

>  <CNNscore>  (249) 
0.7720736265

>  <CNNaffinity>  (249) 
4.4221177101

>  <CNN_VS>  (249) 
3.4142005444

>  <CNNaffinity_variance>  (249) 
0.0424476340

$$$$
250
     RDKit          3D

 43 45  0  0  0  0  0  0  0  0999 V2000
   21.7393   72.3962   -5.3902 P   0  0  2  0  0  0  0  0  0  0  0  0
   20.9952   73.8005   -5.0848 O   0  0  0  0  0  0  0  0  0  0  0  0
   23.0232   72.5135   -6.1582 O   0  0  0  0  0  0  0  0  0  0  0  0
   20.5897   71.4888   -6.0778 O   0  0  0  0  0  0  0  0  0  0  0  0
   20.0733   71.8892   -7.3338 C   0  0  0  0  0  0  0  0  0  0  0  0
   18.7604   69.9104   -6.9618 O   0  0  0  0  0  0  0  0  0  0  0  0
   18.1029   70.0222   -9.8852 O   0  0  0  0  0  0  0  0  0  0  0  0
   15.8640   71.0664   -8.7306 O   0  0  0  0  0  0  0  0  0  0  0  0
   18.2847   71.0929   -8.9584 C   0  0  1  0  0  0  0  0  0  0  0  0
   17.0875   71.1979   -8.0375 C   0  0  2  0  0  0  0  0  0  0  0  0
   19.3944   70.6962   -7.9942 C   0  0  1  0  0  0  0  0  0  0  0  0
   17.3352   70.0560   -7.0666 C   0  0  2  0  0  0  0  0  0  0  0  0
   17.3985   70.2525  -10.5117 H   0  0  0  0  0  0  0  0  0  0  0  0
   15.7527   71.8172   -9.3355 H   0  0  0  0  0  0  0  0  0  0  0  0
   16.4261   68.0616   -5.2855 O   0  0  0  0  0  0  0  0  0  0  0  0
   15.2839   71.1794   -2.0889 O   0  0  0  0  0  0  0  0  0  0  0  0
   16.7955   70.3187   -5.7625 N   0  0  0  0  0  0  0  0  0  0  0  0
   15.8572   69.6164   -3.6955 N   0  0  0  0  0  0  0  0  0  0  0  0
   16.3671   69.2450   -4.9466 C   0  0  0  0  0  0  0  0  0  0  0  0
   16.6964   71.6265   -5.3035 C   0  0  0  0  0  0  0  0  0  0  0  0
   16.2082   71.9649   -4.1085 C   0  0  0  0  0  0  0  0  0  0  0  0
   15.7380   70.9029   -3.1951 C   0  0  0  0  0  0  0  0  0  0  0  0
   15.5507   68.8863   -3.1105 H   0  0  0  0  0  0  0  0  0  0  0  0
   21.8910   71.7389   -3.9213 O   0  0  0  0  0  0  0  0  0  0  0  0
   23.0944   71.8133   -2.8443 P   0  0  2  0  0  0  0  0  0  0  0  0
   23.6288   73.3342   -2.9913 O   0  0  0  0  0  0  0  0  0  0  0  0
   24.1530   70.7651   -3.0303 O   0  0  0  0  0  0  0  0  0  0  0  0
   22.3609   71.7765   -1.4079 O   0  0  0  0  0  0  0  0  0  0  0  0
   23.9035   72.7675    0.0913 O   0  0  0  0  0  0  0  0  0  0  0  0
   20.6354   72.1415    2.5398 O   0  0  0  0  0  0  0  0  0  0  0  0
   21.4602   70.0997    0.6202 O   0  0  0  0  0  0  0  0  0  0  0  0
   21.2424   74.8145    1.5714 O   0  0  0  0  0  0  0  0  0  0  0  0
   21.3103   72.4200    1.3131 C   0  0  2  0  0  0  0  0  0  0  0  0
   22.2275   71.2498    0.9566 C   0  0  2  0  0  0  0  0  0  0  0  0
   22.1287   73.6990    1.5033 C   0  0  1  0  0  0  0  0  0  0  0  0
   23.1349   71.6053   -0.2220 C   0  0  1  0  0  0  0  0  0  0  0  0
   23.0990   73.9168    0.3458 C   0  0  1  0  0  0  0  0  0  0  0  0
   20.1086   71.3326    2.4429 H   0  0  0  0  0  0  0  0  0  0  0  0
   20.8819   69.8686    1.3635 H   0  0  0  0  0  0  0  0  0  0  0  0
   20.6194   74.6882    2.3040 H   0  0  0  0  0  0  0  0  0  0  0  0
   23.6273   76.2010    0.4141 O   0  0  0  0  0  0  0  0  0  0  0  0
   25.2156   74.7435    1.1570 O   0  0  0  0  0  0  0  0  0  0  0  0
   24.1083   74.9634    0.6896 C   0  0  0  0  0  0  0  0  0  0  0  0
  1  4  1  0
  1 24  1  0
  1  2  1  1
  1  3  2  0
 25 28  1  0
 25 24  1  0
 25 26  1  6
 25 27  2  0
  6 11  1  0
  6 12  1  0
 29 36  1  0
 29 37  1  0
  9  7  1  6
  7 13  1  0
 10  8  1  6
  8 14  1  0
  4  5  1  0
 36 28  1  6
 33 30  1  1
 30 38  1  0
 34 31  1  6
 31 39  1  0
 35 32  1  6
 32 40  1  0
 41 43  1  0
 15 19  2  0
 42 43  2  0
 16 22  2  0
 12 17  1  1
 17 19  1  0
 17 20  1  0
 18 19  1  0
 18 22  1  0
 18 23  1  0
  9 10  1  0
  9 11  1  0
 10 12  1  0
 11  5  1  1
 33 34  1  0
 33 35  1  0
 34 36  1  0
 35 37  1  0
 37 43  1  1
 20 21  2  0
 21 22  1  0
M  CHG  3   2  -1  26  -1  41  -1
M  END
>  <COMPND>  (250) 
    udp_gluA.pdb 

>  <AUTHOR>  (250) 
    GENERATED BY OPEN BABEL 3.1.1

>  <MASTER>  (250) 
        0    0    0    0    0    0    0    0   56    0   56    0

>  <minimizedAffinity>  (250) 
-8.00301

>  <CNNscore>  (250) 
0.7279173732

>  <CNNaffinity>  (250) 
4.5548620224

>  <CNN_VS>  (250) 
3.3155632019

>  <CNNaffinity_variance>  (250) 
0.2215215862

$$$$
251
     RDKit          3D

 43 45  0  0  0  0  0  0  0  0999 V2000
   23.0680   71.6028   -2.7460 P   0  0  2  0  0  0  0  0  0  0  0  0
   23.1331   73.1980   -2.4814 O   0  0  0  0  0  0  0  0  0  0  0  0
   24.3434   70.9911   -3.2469 O   0  0  0  0  0  0  0  0  0  0  0  0
   21.7773   71.4204   -3.7046 O   0  0  0  0  0  0  0  0  0  0  0  0
   21.5317   72.3959   -4.7008 C   0  0  0  0  0  0  0  0  0  0  0  0
   20.5200   70.5190   -5.8104 O   0  0  0  0  0  0  0  0  0  0  0  0
   20.8718   72.0696   -8.3527 O   0  0  0  0  0  0  0  0  0  0  0  0
   18.2344   72.4576   -7.7782 O   0  0  0  0  0  0  0  0  0  0  0  0
   20.5509   72.5410   -7.0437 C   0  0  1  0  0  0  0  0  0  0  0  0
   19.1145   72.2047   -6.7030 C   0  0  2  0  0  0  0  0  0  0  0  0
   21.3228   71.6975   -6.0383 C   0  0  1  0  0  0  0  0  0  0  0  0
   19.2093   70.7278   -6.3599 C   0  0  2  0  0  0  0  0  0  0  0  0
   20.3902   72.5935   -9.0125 H   0  0  0  0  0  0  0  0  0  0  0  0
   18.2088   73.4111   -7.9575 H   0  0  0  0  0  0  0  0  0  0  0  0
   16.6190   69.8052   -7.0046 O   0  0  0  0  0  0  0  0  0  0  0  0
   15.5271   69.2129   -2.5660 O   0  0  0  0  0  0  0  0  0  0  0  0
   18.2279   70.3259   -5.3924 N   0  0  0  0  0  0  0  0  0  0  0  0
   16.0773   69.5120   -4.7933 N   0  0  0  0  0  0  0  0  0  0  0  0
   16.9561   69.8780   -5.8214 C   0  0  0  0  0  0  0  0  0  0  0  0
   18.5292   70.3758   -4.0368 C   0  0  0  0  0  0  0  0  0  0  0  0
   17.6812   70.0236   -3.0685 C   0  0  0  0  0  0  0  0  0  0  0  0
   16.3312   69.5451   -3.4316 C   0  0  0  0  0  0  0  0  0  0  0  0
   15.1850   69.1989   -5.0672 H   0  0  0  0  0  0  0  0  0  0  0  0
   22.5532   71.0206   -1.3287 O   0  0  0  0  0  0  0  0  0  0  0  0
   21.4222   71.5602   -0.3073 P   0  0  2  0  0  0  0  0  0  0  0  0
   21.1972   70.3064    0.6915 O   0  0  0  0  0  0  0  0  0  0  0  0
   20.1708   72.0498   -0.9769 O   0  0  0  0  0  0  0  0  0  0  0  0
   22.1771   72.6667    0.5918 O   0  0  0  0  0  0  0  0  0  0  0  0
   24.3665   73.5580    0.4468 O   0  0  0  0  0  0  0  0  0  0  0  0
   23.7221   73.5712    4.5275 O   0  0  0  0  0  0  0  0  0  0  0  0
   22.8852   71.2916    2.9035 O   0  0  0  0  0  0  0  0  0  0  0  0
   23.5860   76.0536    3.0208 O   0  0  0  0  0  0  0  0  0  0  0  0
   23.3568   73.6587    3.1503 C   0  0  2  0  0  0  0  0  0  0  0  0
   23.7145   72.3518    2.4420 C   0  0  2  0  0  0  0  0  0  0  0  0
   24.1256   74.8277    2.5304 C   0  0  1  0  0  0  0  0  0  0  0  0
   23.5519   72.4881    0.9275 C   0  0  1  0  0  0  0  0  0  0  0  0
   24.0170   74.8212    1.0083 C   0  0  1  0  0  0  0  0  0  0  0  0
   23.2457   72.8349    4.9425 H   0  0  0  0  0  0  0  0  0  0  0  0
   22.9831   71.1997    3.8639 H   0  0  0  0  0  0  0  0  0  0  0  0
   23.6489   76.0703    3.9885 H   0  0  0  0  0  0  0  0  0  0  0  0
   24.9648   75.6916   -0.9528 O   0  0  0  0  0  0  0  0  0  0  0  0
   25.7862   76.4616    1.0300 O   0  0  0  0  0  0  0  0  0  0  0  0
   25.0200   75.7473    0.4010 C   0  0  0  0  0  0  0  0  0  0  0  0
  1  4  1  0
  1 24  1  0
  1  2  1  1
  1  3  2  0
 25 28  1  0
 25 24  1  0
 25 26  1  1
 25 27  2  0
  6 11  1  0
  6 12  1  0
 29 36  1  0
 29 37  1  0
  9  7  1  6
  7 13  1  0
 10  8  1  6
  8 14  1  0
  4  5  1  0
 36 28  1  1
 33 30  1  1
 30 38  1  0
 34 31  1  1
 31 39  1  0
 35 32  1  1
 32 40  1  0
 41 43  1  0
 15 19  2  0
 42 43  2  0
 16 22  2  0
 12 17  1  1
 17 19  1  0
 17 20  1  0
 18 19  1  0
 18 22  1  0
 18 23  1  0
  9 10  1  0
  9 11  1  0
 10 12  1  0
 11  5  1  1
 33 34  1  0
 33 35  1  0
 34 36  1  0
 35 37  1  0
 37 43  1  6
 20 21  2  0
 21 22  1  0
M  CHG  3   2  -1  26  -1  41  -1
M  END
>  <COMPND>  (251) 
    udp_gluA.pdb 

>  <AUTHOR>  (251) 
    GENERATED BY OPEN BABEL 3.1.1

>  <MASTER>  (251) 
        0    0    0    0    0    0    0    0   56    0   56    0

>  <minimizedAffinity>  (251) 
-7.24090

>  <CNNscore>  (251) 
0.7146518826

>  <CNNaffinity>  (251) 
4.3852729797

>  <CNN_VS>  (251) 
3.1339435577

>  <CNNaffinity_variance>  (251) 
0.1233275756

$$$$
252
     RDKit          3D

 43 45  0  0  0  0  0  0  0  0999 V2000
   23.4406   71.8318   -3.1852 P   0  0  2  0  0  0  0  0  0  0  0  0
   24.1193   73.0382   -4.0235 O   0  0  0  0  0  0  0  0  0  0  0  0
   24.3289   70.6454   -2.9503 O   0  0  0  0  0  0  0  0  0  0  0  0
   22.0640   71.5322   -3.9811 O   0  0  0  0  0  0  0  0  0  0  0  0
   21.6418   72.4516   -4.9715 C   0  0  0  0  0  0  0  0  0  0  0  0
   20.6436   70.5141   -5.9851 O   0  0  0  0  0  0  0  0  0  0  0  0
   20.8819   71.9832   -8.5883 O   0  0  0  0  0  0  0  0  0  0  0  0
   18.2541   72.3293   -7.9471 O   0  0  0  0  0  0  0  0  0  0  0  0
   20.5886   72.4922   -7.2870 C   0  0  1  0  0  0  0  0  0  0  0  0
   19.1716   72.1345   -6.8913 C   0  0  2  0  0  0  0  0  0  0  0  0
   21.4103   71.7024   -6.2774 C   0  0  1  0  0  0  0  0  0  0  0  0
   19.3125   70.6730   -6.5012 C   0  0  2  0  0  0  0  0  0  0  0  0
   20.3683   72.4725   -9.2505 H   0  0  0  0  0  0  0  0  0  0  0  0
   18.1999   73.2751   -8.1580 H   0  0  0  0  0  0  0  0  0  0  0  0
   16.6766   69.8069   -7.0286 O   0  0  0  0  0  0  0  0  0  0  0  0
   15.7852   69.1983   -2.5477 O   0  0  0  0  0  0  0  0  0  0  0  0
   18.3703   70.2822   -5.4911 N   0  0  0  0  0  0  0  0  0  0  0  0
   16.2348   69.5056   -4.7963 N   0  0  0  0  0  0  0  0  0  0  0  0
   17.0709   69.8629   -5.8623 C   0  0  0  0  0  0  0  0  0  0  0  0
   18.7367   70.3147   -4.1511 C   0  0  0  0  0  0  0  0  0  0  0  0
   17.9288   69.9709   -3.1462 C   0  0  0  0  0  0  0  0  0  0  0  0
   16.5537   69.5220   -3.4481 C   0  0  0  0  0  0  0  0  0  0  0  0
   15.3244   69.2122   -5.0298 H   0  0  0  0  0  0  0  0  0  0  0  0
   22.9296   72.5674   -1.8396 O   0  0  0  0  0  0  0  0  0  0  0  0
   21.5231   72.4747   -1.0480 P   0  0  2  0  0  0  0  0  0  0  0  0
   21.2140   70.8859   -1.0277 O   0  0  0  0  0  0  0  0  0  0  0  0
   20.4262   73.3105   -1.6416 O   0  0  0  0  0  0  0  0  0  0  0  0
   21.8890   72.8379    0.4806 O   0  0  0  0  0  0  0  0  0  0  0  0
   22.9900   71.1172    1.6790 O   0  0  0  0  0  0  0  0  0  0  0  0
   22.0883   73.7959    4.6922 O   0  0  0  0  0  0  0  0  0  0  0  0
   20.1319   73.2002    2.6060 O   0  0  0  0  0  0  0  0  0  0  0  0
   24.8076   73.5943    3.6845 O   0  0  0  0  0  0  0  0  0  0  0  0
   22.4280   73.3928    3.3655 C   0  0  2  0  0  0  0  0  0  0  0  0
   21.3374   72.4736    2.8149 C   0  0  2  0  0  0  0  0  0  0  0  0
   23.7671   72.6542    3.4240 C   0  0  1  0  0  0  0  0  0  0  0  0
   21.7723   71.8397    1.4928 C   0  0  1  0  0  0  0  0  0  0  0  0
   24.0696   71.9442    2.1076 C   0  0  1  0  0  0  0  0  0  0  0  0
   21.2405   74.2675    4.6799 H   0  0  0  0  0  0  0  0  0  0  0  0
   19.8503   73.6053    3.4408 H   0  0  0  0  0  0  0  0  0  0  0  0
   24.6271   74.0533    4.5197 H   0  0  0  0  0  0  0  0  0  0  0  0
   24.7625   69.7039    2.0549 O   0  0  0  0  0  0  0  0  0  0  0  0
   26.3397   71.2687    2.5676 O   0  0  0  0  0  0  0  0  0  0  0  0
   25.1912   70.9715    2.2752 C   0  0  0  0  0  0  0  0  0  0  0  0
  1  4  1  0
  1 24  1  0
  1  2  1  6
  1  3  2  0
 25 28  1  0
 25 24  1  0
 25 26  1  1
 25 27  2  0
  6 11  1  0
  6 12  1  0
 29 36  1  0
 29 37  1  0
  9  7  1  6
  7 13  1  0
 10  8  1  6
  8 14  1  0
  4  5  1  0
 36 28  1  6
 33 30  1  1
 30 38  1  0
 34 31  1  6
 31 39  1  0
 35 32  1  6
 32 40  1  0
 41 43  1  0
 15 19  2  0
 42 43  2  0
 16 22  2  0
 12 17  1  1
 17 19  1  0
 17 20  1  0
 18 19  1  0
 18 22  1  0
 18 23  1  0
  9 10  1  0
  9 11  1  0
 10 12  1  0
 11  5  1  1
 33 34  1  0
 33 35  1  0
 34 36  1  0
 35 37  1  0
 37 43  1  1
 20 21  2  0
 21 22  1  0
M  CHG  3   2  -1  26  -1  41  -1
M  END
>  <COMPND>  (252) 
    udp_gluA.pdb 

>  <AUTHOR>  (252) 
    GENERATED BY OPEN BABEL 3.1.1

>  <MASTER>  (252) 
        0    0    0    0    0    0    0    0   56    0   56    0

>  <minimizedAffinity>  (252) 
-7.92700

>  <CNNscore>  (252) 
0.7118312716

>  <CNNaffinity>  (252) 
4.4272370338

>  <CNN_VS>  (252) 
3.1514458656

>  <CNNaffinity_variance>  (252) 
0.1193621978

$$$$
253
     RDKit          3D

 43 45  0  0  0  0  0  0  0  0999 V2000
   21.3948   71.6671   -1.3014 P   0  0  2  0  0  0  0  0  0  0  0  0
   22.8750   71.1235   -1.6651 O   0  0  0  0  0  0  0  0  0  0  0  0
   20.3518   70.6012   -1.1342 O   0  0  0  0  0  0  0  0  0  0  0  0
   21.0942   72.7708   -2.4458 O   0  0  0  0  0  0  0  0  0  0  0  0
   20.4221   72.3594   -3.6220 C   0  0  0  0  0  0  0  0  0  0  0  0
   20.7970   70.8819   -5.4805 O   0  0  0  0  0  0  0  0  0  0  0  0
   23.2511   72.5113   -6.0410 O   0  0  0  0  0  0  0  0  0  0  0  0
   21.4678   73.4729   -7.8661 O   0  0  0  0  0  0  0  0  0  0  0  0
   21.9784   72.9338   -5.5508 C   0  0  1  0  0  0  0  0  0  0  0  0
   20.9572   72.9256   -6.6685 C   0  0  2  0  0  0  0  0  0  0  0  0
   21.4471   71.8474   -4.6258 C   0  0  1  0  0  0  0  0  0  0  0  0
   20.6365   71.4458   -6.7919 C   0  0  2  0  0  0  0  0  0  0  0  0
   23.6108   73.1895   -6.6346 H   0  0  0  0  0  0  0  0  0  0  0  0
   21.6558   74.4161   -7.7362 H   0  0  0  0  0  0  0  0  0  0  0  0
   19.9260   69.6014   -8.8093 O   0  0  0  0  0  0  0  0  0  0  0  0
   15.4495   70.6308   -8.4284 O   0  0  0  0  0  0  0  0  0  0  0  0
   19.2927   71.2117   -7.2395 N   0  0  0  0  0  0  0  0  0  0  0  0
   17.6972   70.1166   -8.6184 N   0  0  0  0  0  0  0  0  0  0  0  0
   19.0436   70.2632   -8.2595 C   0  0  0  0  0  0  0  0  0  0  0  0
   18.2392   71.9158   -6.6692 C   0  0  0  0  0  0  0  0  0  0  0  0
   16.9610   71.7651   -7.0217 C   0  0  0  0  0  0  0  0  0  0  0  0
   16.6151   70.7943   -8.0807 C   0  0  0  0  0  0  0  0  0  0  0  0
   17.4992   69.4633   -9.3279 H   0  0  0  0  0  0  0  0  0  0  0  0
   21.6526   72.5693    0.0148 O   0  0  0  0  0  0  0  0  0  0  0  0
   21.6099   72.1909    1.5860 P   0  0  2  0  0  0  0  0  0  0  0  0
   22.0838   70.6433    1.6068 O   0  0  0  0  0  0  0  0  0  0  0  0
   20.2835   72.4404    2.2436 O   0  0  0  0  0  0  0  0  0  0  0  0
   22.8428   73.0031    2.2362 O   0  0  0  0  0  0  0  0  0  0  0  0
   24.6893   72.0084    3.3363 O   0  0  0  0  0  0  0  0  0  0  0  0
   24.6392   75.7803    5.0210 O   0  0  0  0  0  0  0  0  0  0  0  0
   22.1469   74.3198    4.5852 O   0  0  0  0  0  0  0  0  0  0  0  0
   26.6286   75.1061    3.0114 O   0  0  0  0  0  0  0  0  0  0  0  0
   24.4474   74.8104    3.9913 C   0  0  2  0  0  0  0  0  0  0  0  0
   23.4469   73.7547    4.4624 C   0  0  2  0  0  0  0  0  0  0  0  0
   25.8020   74.1640    3.6923 C   0  0  1  0  0  0  0  0  0  0  0  0
   23.3892   72.5805    3.4843 C   0  0  1  0  0  0  0  0  0  0  0  0
   25.6468   72.9264    2.8132 C   0  0  1  0  0  0  0  0  0  0  0  0
   23.7914   76.2043    5.2280 H   0  0  0  0  0  0  0  0  0  0  0  0
   22.1762   75.0657    5.2043 H   0  0  0  0  0  0  0  0  0  0  0  0
   26.7352   75.8988    3.5603 H   0  0  0  0  0  0  0  0  0  0  0  0
   26.6781   70.8812    2.3084 O   0  0  0  0  0  0  0  0  0  0  0  0
   27.9988   72.5266    3.1730 O   0  0  0  0  0  0  0  0  0  0  0  0
   26.9074   72.1245    2.7988 C   0  0  0  0  0  0  0  0  0  0  0  0
  1  4  1  0
  1 24  1  0
  1  2  1  6
  1  3  2  0
 25 28  1  0
 25 24  1  0
 25 26  1  6
 25 27  2  0
  6 11  1  0
  6 12  1  0
 29 36  1  0
 29 37  1  0
  9  7  1  6
  7 13  1  0
 10  8  1  6
  8 14  1  0
  4  5  1  0
 36 28  1  6
 33 30  1  1
 30 38  1  0
 34 31  1  6
 31 39  1  0
 35 32  1  6
 32 40  1  0
 41 43  1  0
 15 19  2  0
 42 43  2  0
 16 22  2  0
 12 17  1  1
 17 19  1  0
 17 20  1  0
 18 19  1  0
 18 22  1  0
 18 23  1  0
  9 10  1  0
  9 11  1  0
 10 12  1  0
 11  5  1  1
 33 34  1  0
 33 35  1  0
 34 36  1  0
 35 37  1  0
 37 43  1  1
 20 21  2  0
 21 22  1  0
M  CHG  3   2  -1  26  -1  41  -1
M  END
>  <COMPND>  (253) 
    udp_gluA.pdb 

>  <AUTHOR>  (253) 
    GENERATED BY OPEN BABEL 3.1.1

>  <MASTER>  (253) 
        0    0    0    0    0    0    0    0   56    0   56    0

>  <minimizedAffinity>  (253) 
-7.17162

>  <CNNscore>  (253) 
0.6644535065

>  <CNNaffinity>  (253) 
4.2628231049

>  <CNN_VS>  (253) 
2.8324477673

>  <CNNaffinity_variance>  (253) 
0.1346167624

$$$$
254
     RDKit          3D

 43 45  0  0  0  0  0  0  0  0999 V2000
   21.8995   72.4279   -5.7330 P   0  0  2  0  0  0  0  0  0  0  0  0
   21.2235   73.8374   -5.3146 O   0  0  0  0  0  0  0  0  0  0  0  0
   23.1103   72.5421   -6.6120 O   0  0  0  0  0  0  0  0  0  0  0  0
   20.6684   71.5718   -6.3407 O   0  0  0  0  0  0  0  0  0  0  0  0
   20.1430   71.9444   -7.6015 C   0  0  0  0  0  0  0  0  0  0  0  0
   18.9011   69.9301   -7.1801 O   0  0  0  0  0  0  0  0  0  0  0  0
   18.1209   70.0269  -10.0738 O   0  0  0  0  0  0  0  0  0  0  0  0
   15.9038   71.0082   -8.8257 O   0  0  0  0  0  0  0  0  0  0  0  0
   18.3114   71.1012   -9.1528 C   0  0  1  0  0  0  0  0  0  0  0  0
   17.1507   71.1724   -8.1833 C   0  0  2  0  0  0  0  0  0  0  0  0
   19.4703   70.7340   -8.2361 C   0  0  1  0  0  0  0  0  0  0  0  0
   17.4693   70.0367   -7.2259 C   0  0  2  0  0  0  0  0  0  0  0  0
   17.3852   70.2385  -10.6703 H   0  0  0  0  0  0  0  0  0  0  0  0
   15.7473   71.7563   -9.4239 H   0  0  0  0  0  0  0  0  0  0  0  0
   16.3144   68.0683   -5.5621 O   0  0  0  0  0  0  0  0  0  0  0  0
   15.6142   71.0957   -2.1579 O   0  0  0  0  0  0  0  0  0  0  0  0
   16.9769   70.2832   -5.9002 N   0  0  0  0  0  0  0  0  0  0  0  0
   15.9658   69.5782   -3.8686 N   0  0  0  0  0  0  0  0  0  0  0  0
   16.4147   69.2247   -5.1479 C   0  0  0  0  0  0  0  0  0  0  0  0
   17.0546   71.5601   -5.3576 C   0  0  0  0  0  0  0  0  0  0  0  0
   16.6225   71.8817   -4.1367 C   0  0  0  0  0  0  0  0  0  0  0  0
   16.0211   70.8340   -3.2858 C   0  0  0  0  0  0  0  0  0  0  0  0
   15.5687   68.8585   -3.3268 H   0  0  0  0  0  0  0  0  0  0  0  0
   22.1677   71.7164   -4.3066 O   0  0  0  0  0  0  0  0  0  0  0  0
   23.3882   71.8685   -3.2574 P   0  0  2  0  0  0  0  0  0  0  0  0
   24.1461   73.2065   -3.7631 O   0  0  0  0  0  0  0  0  0  0  0  0
   24.2704   70.6577   -3.1592 O   0  0  0  0  0  0  0  0  0  0  0  0
   22.6847   72.2985   -1.8707 O   0  0  0  0  0  0  0  0  0  0  0  0
   23.1219   70.7805   -0.1061 O   0  0  0  0  0  0  0  0  0  0  0  0
   20.3237   73.2862    1.6143 O   0  0  0  0  0  0  0  0  0  0  0  0
   20.0013   72.3780   -1.1436 O   0  0  0  0  0  0  0  0  0  0  0  0
   23.1309   73.5229    2.3314 O   0  0  0  0  0  0  0  0  0  0  0  0
   21.4074   72.9398    0.7520 C   0  0  2  0  0  0  0  0  0  0  0  0
   20.9561   71.8557   -0.2270 C   0  0  2  0  0  0  0  0  0  0  0  0
   22.5579   72.4268    1.6210 C   0  0  1  0  0  0  0  0  0  0  0  0
   22.1447   71.2969   -1.0105 C   0  0  1  0  0  0  0  0  0  0  0  0
   23.6458   71.7716    0.7750 C   0  0  1  0  0  0  0  0  0  0  0  0
   19.5807   73.6149    1.0840 H   0  0  0  0  0  0  0  0  0  0  0  0
   19.2444   72.7345   -0.6532 H   0  0  0  0  0  0  0  0  0  0  0  0
   22.4488   73.9488    2.8737 H   0  0  0  0  0  0  0  0  0  0  0  0
   24.0763   70.8268    2.8783 O   0  0  0  0  0  0  0  0  0  0  0  0
   25.6718   70.5591    1.2715 O   0  0  0  0  0  0  0  0  0  0  0  0
   24.5884   70.9927    1.6336 C   0  0  0  0  0  0  0  0  0  0  0  0
  1  4  1  0
  1 24  1  0
  1  2  1  1
  1  3  2  0
 25 28  1  0
 25 24  1  0
 25 26  1  6
 25 27  2  0
  6 11  1  0
  6 12  1  0
 29 36  1  0
 29 37  1  0
  9  7  1  6
  7 13  1  0
 10  8  1  6
  8 14  1  0
  4  5  1  0
 36 28  1  1
 33 30  1  1
 30 38  1  0
 34 31  1  6
 31 39  1  0
 35 32  1  6
 32 40  1  0
 41 43  1  0
 15 19  2  0
 42 43  2  0
 16 22  2  0
 12 17  1  1
 17 19  1  0
 17 20  1  0
 18 19  1  0
 18 22  1  0
 18 23  1  0
  9 10  1  0
  9 11  1  0
 10 12  1  0
 11  5  1  1
 33 34  1  0
 33 35  1  0
 34 36  1  0
 35 37  1  0
 37 43  1  1
 20 21  2  0
 21 22  1  0
M  CHG  3   2  -1  26  -1  41  -1
M  END
>  <COMPND>  (254) 
    udp_gluA.pdb 

>  <AUTHOR>  (254) 
    GENERATED BY OPEN BABEL 3.1.1

>  <MASTER>  (254) 
        0    0    0    0    0    0    0    0   56    0   56    0

>  <minimizedAffinity>  (254) 
-8.41554

>  <CNNscore>  (254) 
0.6606107950

>  <CNNaffinity>  (254) 
4.4641575813

>  <CNN_VS>  (254) 
2.9490706921

>  <CNNaffinity_variance>  (254) 
0.2445749342

$$$$
255
     RDKit          3D

 43 45  0  0  0  0  0  0  0  0999 V2000
   21.0758   71.5861   -1.3243 P   0  0  2  0  0  0  0  0  0  0  0  0
   22.5125   70.9534   -1.7172 O   0  0  0  0  0  0  0  0  0  0  0  0
   19.9411   70.6049   -1.2839 O   0  0  0  0  0  0  0  0  0  0  0  0
   20.9003   72.8211   -2.3548 O   0  0  0  0  0  0  0  0  0  0  0  0
   20.3059   72.5709   -3.6152 C   0  0  0  0  0  0  0  0  0  0  0  0
   20.7434   71.0160   -5.3952 O   0  0  0  0  0  0  0  0  0  0  0  0
   23.2130   72.6257   -5.9441 O   0  0  0  0  0  0  0  0  0  0  0  0
   21.4899   73.5040   -7.8665 O   0  0  0  0  0  0  0  0  0  0  0  0
   21.9244   73.0658   -5.5146 C   0  0  1  0  0  0  0  0  0  0  0  0
   20.9406   73.0073   -6.6639 C   0  0  2  0  0  0  0  0  0  0  0  0
   21.3639   72.0188   -4.5618 C   0  0  1  0  0  0  0  0  0  0  0  0
   20.6256   71.5228   -6.7341 C   0  0  2  0  0  0  0  0  0  0  0  0
   23.5913   73.2788   -6.5540 H   0  0  0  0  0  0  0  0  0  0  0  0
   21.6725   74.4524   -7.7710 H   0  0  0  0  0  0  0  0  0  0  0  0
   19.9755   69.5490   -8.6467 O   0  0  0  0  0  0  0  0  0  0  0  0
   15.4967   70.6281   -8.5064 O   0  0  0  0  0  0  0  0  0  0  0  0
   19.2976   71.2665   -7.2153 N   0  0  0  0  0  0  0  0  0  0  0  0
   17.7455   70.0890   -8.5757 N   0  0  0  0  0  0  0  0  0  0  0  0
   19.0788   70.2520   -8.1770 C   0  0  0  0  0  0  0  0  0  0  0  0
   18.2294   72.0141   -6.7345 C   0  0  0  0  0  0  0  0  0  0  0  0
   16.9641   71.8470   -7.1240 C   0  0  0  0  0  0  0  0  0  0  0  0
   16.6498   70.8082   -8.1268 C   0  0  0  0  0  0  0  0  0  0  0  0
   17.5687   69.3900   -9.2461 H   0  0  0  0  0  0  0  0  0  0  0  0
   21.3770   72.3255    0.0812 O   0  0  0  0  0  0  0  0  0  0  0  0
   21.5654   71.7326    1.5734 P   0  0  2  0  0  0  0  0  0  0  0  0
   21.7085   70.1398    1.3232 O   0  0  0  0  0  0  0  0  0  0  0  0
   20.4722   72.1127    2.5296 O   0  0  0  0  0  0  0  0  0  0  0  0
   23.0407   72.2088    2.0197 O   0  0  0  0  0  0  0  0  0  0  0  0
   24.5772   73.6724    0.9678 O   0  0  0  0  0  0  0  0  0  0  0  0
   27.1085   70.9493    2.7692 O   0  0  0  0  0  0  0  0  0  0  0  0
   24.6818   70.0455    1.4170 O   0  0  0  0  0  0  0  0  0  0  0  0
   26.7596   73.5976    3.9163 O   0  0  0  0  0  0  0  0  0  0  0  0
   25.9255   71.7367    2.6332 C   0  0  2  0  0  0  0  0  0  0  0  0
   25.2095   71.3644    1.3346 C   0  0  2  0  0  0  0  0  0  0  0  0
   26.3383   73.2102    2.6098 C   0  0  1  0  0  0  0  0  0  0  0  0
   24.0690   72.3397    1.0398 C   0  0  1  0  0  0  0  0  0  0  0  0
   25.1788   74.1068    2.1853 C   0  0  1  0  0  0  0  0  0  0  0  0
   26.8710   70.0088    2.7864 H   0  0  0  0  0  0  0  0  0  0  0  0
   25.4000   69.4215    1.6042 H   0  0  0  0  0  0  0  0  0  0  0  0
   27.4972   73.0344    4.1984 H   0  0  0  0  0  0  0  0  0  0  0  0
   25.3924   75.7789    0.5544 O   0  0  0  0  0  0  0  0  0  0  0  0
   26.2291   76.2337    2.6261 O   0  0  0  0  0  0  0  0  0  0  0  0
   25.6650   75.4788    1.8484 C   0  0  0  0  0  0  0  0  0  0  0  0
  1  4  1  0
  1 24  1  0
  1  2  1  6
  1  3  2  0
 25 28  1  0
 25 24  1  0
 25 26  1  6
 25 27  2  0
  6 11  1  0
  6 12  1  0
 29 36  1  0
 29 37  1  0
  9  7  1  6
  7 13  1  0
 10  8  1  6
  8 14  1  0
  4  5  1  0
 36 28  1  1
 33 30  1  6
 30 38  1  0
 34 31  1  1
 31 39  1  0
 35 32  1  1
 32 40  1  0
 41 43  1  0
 15 19  2  0
 42 43  2  0
 16 22  2  0
 12 17  1  1
 17 19  1  0
 17 20  1  0
 18 19  1  0
 18 22  1  0
 18 23  1  0
  9 10  1  0
  9 11  1  0
 10 12  1  0
 11  5  1  1
 33 34  1  0
 33 35  1  0
 34 36  1  0
 35 37  1  0
 37 43  1  6
 20 21  2  0
 21 22  1  0
M  CHG  3   2  -1  26  -1  41  -1
M  END
>  <COMPND>  (255) 
    udp_gluA.pdb 

>  <AUTHOR>  (255) 
    GENERATED BY OPEN BABEL 3.1.1

>  <MASTER>  (255) 
        0    0    0    0    0    0    0    0   56    0   56    0

>  <minimizedAffinity>  (255) 
-7.72907

>  <CNNscore>  (255) 
0.6546057463

>  <CNNaffinity>  (255) 
4.4643807411

>  <CNN_VS>  (255) 
2.9224092960

>  <CNNaffinity_variance>  (255) 
0.1040125862

$$$$
256
     RDKit          3D

 43 45  0  0  0  0  0  0  0  0999 V2000
   23.5265   73.6088   -4.1564 P   0  0  2  0  0  0  0  0  0  0  0  0
   22.7464   75.0054   -4.4006 O   0  0  0  0  0  0  0  0  0  0  0  0
   25.0184   73.7271   -4.0471 O   0  0  0  0  0  0  0  0  0  0  0  0
   22.9826   72.6480   -5.3391 O   0  0  0  0  0  0  0  0  0  0  0  0
   21.6151   72.2813   -5.3374 C   0  0  0  0  0  0  0  0  0  0  0  0
   20.5173   70.3602   -6.2766 O   0  0  0  0  0  0  0  0  0  0  0  0
   20.6793   71.7866   -8.9092 O   0  0  0  0  0  0  0  0  0  0  0  0
   18.0942   72.2177   -8.1560 O   0  0  0  0  0  0  0  0  0  0  0  0
   20.4598   72.3214   -7.6037 C   0  0  1  0  0  0  0  0  0  0  0  0
   19.0526   72.0105   -7.1397 C   0  0  2  0  0  0  0  0  0  0  0  0
   21.3035   71.5217   -6.6204 C   0  0  1  0  0  0  0  0  0  0  0  0
   19.1693   70.5509   -6.7348 C   0  0  2  0  0  0  0  0  0  0  0  0
   20.1505   72.2817   -9.5549 H   0  0  0  0  0  0  0  0  0  0  0  0
   18.0574   73.1618   -8.3781 H   0  0  0  0  0  0  0  0  0  0  0  0
   16.4713   69.8133   -7.1262 O   0  0  0  0  0  0  0  0  0  0  0  0
   15.7847   69.2298   -2.6060 O   0  0  0  0  0  0  0  0  0  0  0  0
   18.2630   70.2013   -5.6778 N   0  0  0  0  0  0  0  0  0  0  0  0
   16.1317   69.5244   -4.8744 N   0  0  0  0  0  0  0  0  0  0  0  0
   16.9276   69.8458   -5.9818 C   0  0  0  0  0  0  0  0  0  0  0  0
   18.6993   70.2109   -4.3585 C   0  0  0  0  0  0  0  0  0  0  0  0
   17.9289   69.9020   -3.3136 C   0  0  0  0  0  0  0  0  0  0  0  0
   16.5203   69.5203   -3.5445 C   0  0  0  0  0  0  0  0  0  0  0  0
   15.1975   69.2756   -5.0609 H   0  0  0  0  0  0  0  0  0  0  0  0
   22.8002   73.0126   -2.8411 O   0  0  0  0  0  0  0  0  0  0  0  0
   22.8971   71.5579   -2.1425 P   0  0  2  0  0  0  0  0  0  0  0  0
   24.2471   70.9312   -2.7789 O   0  0  0  0  0  0  0  0  0  0  0  0
   21.6746   70.7053   -2.3233 O   0  0  0  0  0  0  0  0  0  0  0  0
   23.2767   71.8665   -0.6053 O   0  0  0  0  0  0  0  0  0  0  0  0
   24.6339   70.8431    1.0439 O   0  0  0  0  0  0  0  0  0  0  0  0
   21.2960   71.8975    3.2380 O   0  0  0  0  0  0  0  0  0  0  0  0
   21.0106   70.7559    0.5641 O   0  0  0  0  0  0  0  0  0  0  0  0
   23.7462   73.4439    3.4748 O   0  0  0  0  0  0  0  0  0  0  0  0
   22.2692   72.0286    2.2019 C   0  0  2  0  0  0  0  0  0  0  0  0
   22.2272   70.7940    1.3011 C   0  0  2  0  0  0  0  0  0  0  0  0
   23.6448   72.1613    2.8592 C   0  0  1  0  0  0  0  0  0  0  0  0
   23.4025   70.7904    0.3226 C   0  0  1  0  0  0  0  0  0  0  0  0
   24.7674   72.0218    1.8350 C   0  0  1  0  0  0  0  0  0  0  0  0
   20.4135   71.8116    2.8441 H   0  0  0  0  0  0  0  0  0  0  0  0
   20.2605   70.7583    1.1787 H   0  0  0  0  0  0  0  0  0  0  0  0
   23.0371   73.5456    4.1289 H   0  0  0  0  0  0  0  0  0  0  0  0
   26.5099   72.9794    3.0793 O   0  0  0  0  0  0  0  0  0  0  0  0
   26.6961   70.7668    2.5606 O   0  0  0  0  0  0  0  0  0  0  0  0
   26.0833   71.8229    2.5141 C   0  0  0  0  0  0  0  0  0  0  0  0
  1  4  1  0
  1 24  1  0
  1  2  1  6
  1  3  2  0
 25 28  1  0
 25 24  1  0
 25 26  1  6
 25 27  2  0
  6 11  1  0
  6 12  1  0
 29 36  1  0
 29 37  1  0
  9  7  1  6
  7 13  1  0
 10  8  1  6
  8 14  1  0
  4  5  1  0
 36 28  1  6
 33 30  1  1
 30 38  1  0
 34 31  1  6
 31 39  1  0
 35 32  1  6
 32 40  1  0
 41 43  1  0
 15 19  2  0
 42 43  2  0
 16 22  2  0
 12 17  1  1
 17 19  1  0
 17 20  1  0
 18 19  1  0
 18 22  1  0
 18 23  1  0
  9 10  1  0
  9 11  1  0
 10 12  1  0
 11  5  1  1
 33 34  1  0
 33 35  1  0
 34 36  1  0
 35 37  1  0
 37 43  1  1
 20 21  2  0
 21 22  1  0
M  CHG  3   2  -1  26  -1  41  -1
M  END
>  <COMPND>  (256) 
    udp_gluA.pdb 

>  <AUTHOR>  (256) 
    GENERATED BY OPEN BABEL 3.1.1

>  <MASTER>  (256) 
        0    0    0    0    0    0    0    0   56    0   56    0

>  <minimizedAffinity>  (256) 
-8.59180

>  <CNNscore>  (256) 
0.6421624422

>  <CNNaffinity>  (256) 
4.3466477394

>  <CNN_VS>  (256) 
2.7912540436

>  <CNNaffinity_variance>  (256) 
0.1936112791

$$$$
257
     RDKit          3D

 43 45  0  0  0  0  0  0  0  0999 V2000
   21.9268   72.5157   -5.8669 P   0  0  2  0  0  0  0  0  0  0  0  0
   21.3550   73.9431   -5.3624 O   0  0  0  0  0  0  0  0  0  0  0  0
   23.0521   72.5978   -6.8562 O   0  0  0  0  0  0  0  0  0  0  0  0
   20.6076   71.7237   -6.3674 O   0  0  0  0  0  0  0  0  0  0  0  0
   20.0576   72.0558   -7.6290 C   0  0  0  0  0  0  0  0  0  0  0  0
   18.9162   69.9901   -7.1735 O   0  0  0  0  0  0  0  0  0  0  0  0
   18.1054   70.0172  -10.0602 O   0  0  0  0  0  0  0  0  0  0  0  0
   15.8561   70.9071   -8.8012 O   0  0  0  0  0  0  0  0  0  0  0  0
   18.2535   71.1096   -9.1529 C   0  0  1  0  0  0  0  0  0  0  0  0
   17.0998   71.1371   -8.1729 C   0  0  2  0  0  0  0  0  0  0  0  0
   19.4369   70.8079   -8.2437 C   0  0  1  0  0  0  0  0  0  0  0  0
   17.4806   70.0286   -7.2063 C   0  0  2  0  0  0  0  0  0  0  0  0
   17.3550   70.1872  -10.6517 H   0  0  0  0  0  0  0  0  0  0  0  0
   15.6589   71.6402   -9.4059 H   0  0  0  0  0  0  0  0  0  0  0  0
   16.2914   68.0586   -5.5690 O   0  0  0  0  0  0  0  0  0  0  0  0
   15.6322   71.0548   -2.1292 O   0  0  0  0  0  0  0  0  0  0  0  0
   16.9894   70.2666   -5.8786 N   0  0  0  0  0  0  0  0  0  0  0  0
   15.9633   69.5530   -3.8577 N   0  0  0  0  0  0  0  0  0  0  0  0
   16.4092   69.2081   -5.1404 C   0  0  0  0  0  0  0  0  0  0  0  0
   17.0862   71.5354   -5.3203 C   0  0  0  0  0  0  0  0  0  0  0  0
   16.6568   71.8488   -4.0963 C   0  0  0  0  0  0  0  0  0  0  0  0
   16.0372   70.8005   -3.2595 C   0  0  0  0  0  0  0  0  0  0  0  0
   15.5537   68.8330   -3.3254 H   0  0  0  0  0  0  0  0  0  0  0  0
   22.2988   71.7648   -4.4846 O   0  0  0  0  0  0  0  0  0  0  0  0
   23.4902   72.0243   -3.4231 P   0  0  2  0  0  0  0  0  0  0  0  0
   24.4525   73.0717   -4.1959 O   0  0  0  0  0  0  0  0  0  0  0  0
   24.1825   70.7763   -2.9571 O   0  0  0  0  0  0  0  0  0  0  0  0
   22.8078   72.8907   -2.2457 O   0  0  0  0  0  0  0  0  0  0  0  0
   21.5963   71.7224   -0.5794 O   0  0  0  0  0  0  0  0  0  0  0  0
   20.3723   75.6152    0.0653 O   0  0  0  0  0  0  0  0  0  0  0  0
   20.6324   74.5755   -2.6524 O   0  0  0  0  0  0  0  0  0  0  0  0
   22.2865   74.3706    1.8646 O   0  0  0  0  0  0  0  0  0  0  0  0
   21.2794   74.5803   -0.3142 C   0  0  2  0  0  0  0  0  0  0  0  0
   20.6865   73.7798   -1.4740 C   0  0  2  0  0  0  0  0  0  0  0  0
   21.4988   73.6751    0.9001 C   0  0  1  0  0  0  0  0  0  0  0  0
   21.5181   72.5278   -1.7562 C   0  0  1  0  0  0  0  0  0  0  0  0
   22.2245   72.3898    0.5129 C   0  0  1  0  0  0  0  0  0  0  0  0
   20.2177   76.2032   -0.6909 H   0  0  0  0  0  0  0  0  0  0  0  0
   20.1065   75.3719   -2.4805 H   0  0  0  0  0  0  0  0  0  0  0  0
   21.8358   75.1908    2.1194 H   0  0  0  0  0  0  0  0  0  0  0  0
   21.6299   70.2137    1.1551 O   0  0  0  0  0  0  0  0  0  0  0  0
   22.4903   71.5759    2.7686 O   0  0  0  0  0  0  0  0  0  0  0  0
   22.1428   71.3824    1.6133 C   0  0  0  0  0  0  0  0  0  0  0  0
  1  4  1  0
  1 24  1  0
  1  2  1  1
  1  3  2  0
 25 28  1  0
 25 24  1  0
 25 26  1  6
 25 27  2  0
  6 11  1  0
  6 12  1  0
 29 36  1  0
 29 37  1  0
  9  7  1  6
  7 13  1  0
 10  8  1  6
  8 14  1  0
  4  5  1  0
 36 28  1  1
 33 30  1  1
 30 38  1  0
 34 31  1  6
 31 39  1  0
 35 32  1  1
 32 40  1  0
 41 43  1  0
 15 19  2  0
 42 43  2  0
 16 22  2  0
 12 17  1  1
 17 19  1  0
 17 20  1  0
 18 19  1  0
 18 22  1  0
 18 23  1  0
  9 10  1  0
  9 11  1  0
 10 12  1  0
 11  5  1  1
 33 34  1  0
 33 35  1  0
 34 36  1  0
 35 37  1  0
 37 43  1  1
 20 21  2  0
 21 22  1  0
M  CHG  3   2  -1  26  -1  41  -1
M  END
>  <COMPND>  (257) 
    udp_gluA.pdb 

>  <AUTHOR>  (257) 
    GENERATED BY OPEN BABEL 3.1.1

>  <MASTER>  (257) 
        0    0    0    0    0    0    0    0   56    0   56    0

>  <minimizedAffinity>  (257) 
-8.33390

>  <CNNscore>  (257) 
0.6204499602

>  <CNNaffinity>  (257) 
4.4106516838

>  <CNN_VS>  (257) 
2.7365887165

>  <CNNaffinity_variance>  (257) 
0.4030239582

$$$$
258
     RDKit          3D

 43 45  0  0  0  0  0  0  0  0999 V2000
   23.0719   73.6147   -4.2690 P   0  0  2  0  0  0  0  0  0  0  0  0
   24.0035   72.2927   -4.3258 O   0  0  0  0  0  0  0  0  0  0  0  0
   23.6622   74.8340   -4.9144 O   0  0  0  0  0  0  0  0  0  0  0  0
   22.6993   73.7603   -2.7012 O   0  0  0  0  0  0  0  0  0  0  0  0
   21.7767   74.7628   -2.3158 C   0  0  0  0  0  0  0  0  0  0  0  0
   20.9940   72.8153   -1.1443 O   0  0  0  0  0  0  0  0  0  0  0  0
   18.6922   74.5120   -0.2420 O   0  0  0  0  0  0  0  0  0  0  0  0
   20.3203   74.5044    1.9455 O   0  0  0  0  0  0  0  0  0  0  0  0
   20.0582   74.8753   -0.4432 C   0  0  1  0  0  0  0  0  0  0  0  0
   20.9166   74.3281    0.6775 C   0  0  2  0  0  0  0  0  0  0  0  0
   20.5771   74.1027   -1.6483 C   0  0  1  0  0  0  0  0  0  0  0  0
   21.0455   72.8647    0.2903 C   0  0  2  0  0  0  0  0  0  0  0  0
   18.3386   74.9931    0.5230 H   0  0  0  0  0  0  0  0  0  0  0  0
   20.2611   75.4522    2.1459 H   0  0  0  0  0  0  0  0  0  0  0  0
   21.4008   70.1311    0.9047 O   0  0  0  0  0  0  0  0  0  0  0  0
   25.8380   70.7618    1.9806 O   0  0  0  0  0  0  0  0  0  0  0  0
   22.2831   72.2876    0.7332 N   0  0  0  0  0  0  0  0  0  0  0  0
   23.6102   70.4480    1.4409 N   0  0  0  0  0  0  0  0  0  0  0  0
   22.3552   70.9030    1.0156 C   0  0  0  0  0  0  0  0  0  0  0  0
   23.4082   73.0895    0.8823 C   0  0  0  0  0  0  0  0  0  0  0  0
   24.5977   72.6414    1.2886 C   0  0  0  0  0  0  0  0  0  0  0  0
   24.7577   71.2069    1.6049 C   0  0  0  0  0  0  0  0  0  0  0  0
   23.6844   69.4878    1.6454 H   0  0  0  0  0  0  0  0  0  0  0  0
   21.6845   73.1095   -4.9268 O   0  0  0  0  0  0  0  0  0  0  0  0
   20.9485   73.5280   -6.3041 P   0  0  2  0  0  0  0  0  0  0  0  0
   21.9949   73.0495   -7.4427 O   0  0  0  0  0  0  0  0  0  0  0  0
   20.5688   74.9783   -6.3834 O   0  0  0  0  0  0  0  0  0  0  0  0
   19.7092   72.5033   -6.4336 O   0  0  0  0  0  0  0  0  0  0  0  0
   19.3186   70.2943   -5.6743 O   0  0  0  0  0  0  0  0  0  0  0  0
   17.5614   70.2213   -9.4126 O   0  0  0  0  0  0  0  0  0  0  0  0
   20.1333   71.5473   -9.0108 O   0  0  0  0  0  0  0  0  0  0  0  0
   15.9083   70.3683   -7.0258 O   0  0  0  0  0  0  0  0  0  0  0  0
   17.9774   70.8080   -8.1794 C   0  0  2  0  0  0  0  0  0  0  0  0
   19.4978   70.7090   -8.0527 C   0  0  2  0  0  0  0  0  0  0  0  0
   17.2976   70.0455   -7.0399 C   0  0  1  0  0  0  0  0  0  0  0  0
   19.9577   71.1158   -6.6521 C   0  0  1  0  0  0  0  0  0  0  0  0
   17.8979   70.4148   -5.6865 C   0  0  1  0  0  0  0  0  0  0  0  0
   17.9810   70.6896  -10.1514 H   0  0  0  0  0  0  0  0  0  0  0  0
   19.8458   71.2949   -9.9019 H   0  0  0  0  0  0  0  0  0  0  0  0
   15.5142   70.1382   -7.8817 H   0  0  0  0  0  0  0  0  0  0  0  0
   18.4386   69.2974   -3.6963 O   0  0  0  0  0  0  0  0  0  0  0  0
   16.3962   68.8620   -4.6117 O   0  0  0  0  0  0  0  0  0  0  0  0
   17.4699   69.4447   -4.6338 C   0  0  0  0  0  0  0  0  0  0  0  0
  1  4  1  0
  1 24  1  0
  1  2  1  1
  1  3  2  0
 25 28  1  0
 25 24  1  0
 25 26  1  6
 25 27  2  0
  6 11  1  0
  6 12  1  0
 29 36  1  0
 29 37  1  0
  9  7  1  1
  7 13  1  0
 10  8  1  1
  8 14  1  0
  4  5  1  0
 36 28  1  1
 33 30  1  6
 30 38  1  0
 34 31  1  6
 31 39  1  0
 35 32  1  1
 32 40  1  0
 41 43  1  0
 15 19  2  0
 42 43  2  0
 16 22  2  0
 12 17  1  6
 17 19  1  0
 17 20  1  0
 18 19  1  0
 18 22  1  0
 18 23  1  0
  9 10  1  0
  9 11  1  0
 10 12  1  0
 11  5  1  1
 33 34  1  0
 33 35  1  0
 34 36  1  0
 35 37  1  0
 37 43  1  1
 20 21  2  0
 21 22  1  0
M  CHG  3   2  -1  26  -1  41  -1
M  END
>  <COMPND>  (258) 
    udp_gluA.pdb 

>  <AUTHOR>  (258) 
    GENERATED BY OPEN BABEL 3.1.1

>  <MASTER>  (258) 
        0    0    0    0    0    0    0    0   56    0   56    0

>  <minimizedAffinity>  (258) 
-7.80680

>  <CNNscore>  (258) 
0.5949978828

>  <CNNaffinity>  (258) 
4.5281472206

>  <CNN_VS>  (258) 
2.6942379475

>  <CNNaffinity_variance>  (258) 
0.0690831393

$$$$
259
     RDKit          3D

 43 45  0  0  0  0  0  0  0  0999 V2000
   22.5818   72.3576   -3.6417 P   0  0  2  0  0  0  0  0  0  0  0  0
   21.9803   70.8553   -3.6346 O   0  0  0  0  0  0  0  0  0  0  0  0
   24.0290   72.4589   -4.0253 O   0  0  0  0  0  0  0  0  0  0  0  0
   22.2005   72.9357   -2.1793 O   0  0  0  0  0  0  0  0  0  0  0  0
   23.1763   72.8806   -1.1550 C   0  0  0  0  0  0  0  0  0  0  0  0
   24.2422   71.3484    0.3595 O   0  0  0  0  0  0  0  0  0  0  0  0
   21.5120   70.1982    0.8230 O   0  0  0  0  0  0  0  0  0  0  0  0
   21.8761   71.7725    3.0196 O   0  0  0  0  0  0  0  0  0  0  0  0
   21.8946   71.5552    0.5979 C   0  0  1  0  0  0  0  0  0  0  0  0
   22.5579   72.1247    1.8340 C   0  0  2  0  0  0  0  0  0  0  0  0
   23.0375   71.5604   -0.4080 C   0  0  1  0  0  0  0  0  0  0  0  0
   23.9473   71.5154    1.7554 C   0  0  2  0  0  0  0  0  0  0  0  0
   20.7829   70.1693    1.4627 H   0  0  0  0  0  0  0  0  0  0  0  0
   20.9975   72.1849    3.0220 H   0  0  0  0  0  0  0  0  0  0  0  0
   26.5431   70.6526    2.4581 O   0  0  0  0  0  0  0  0  0  0  0  0
   27.7073   74.8305    4.0181 O   0  0  0  0  0  0  0  0  0  0  0  0
   24.9489   72.3569    2.3468 N   0  0  0  0  0  0  0  0  0  0  0  0
   27.1202   72.7340    3.2354 N   0  0  0  0  0  0  0  0  0  0  0  0
   26.2216   71.8248    2.6618 C   0  0  0  0  0  0  0  0  0  0  0  0
   24.6672   73.6925    2.6071 C   0  0  0  0  0  0  0  0  0  0  0  0
   25.5341   74.5469    3.1542 C   0  0  0  0  0  0  0  0  0  0  0  0
   26.8858   74.0708    3.5139 C   0  0  0  0  0  0  0  0  0  0  0  0
   28.0121   72.3862    3.4652 H   0  0  0  0  0  0  0  0  0  0  0  0
   21.5685   73.1495   -4.6210 O   0  0  0  0  0  0  0  0  0  0  0  0
   21.4240   73.1399   -6.2312 P   0  0  2  0  0  0  0  0  0  0  0  0
   22.5836   72.1126   -6.7005 O   0  0  0  0  0  0  0  0  0  0  0  0
   21.5077   74.4983   -6.8650 O   0  0  0  0  0  0  0  0  0  0  0  0
   20.0442   72.3532   -6.5136 O   0  0  0  0  0  0  0  0  0  0  0  0
   19.4725   70.1861   -5.7480 O   0  0  0  0  0  0  0  0  0  0  0  0
   17.2104   70.4850   -9.1920 O   0  0  0  0  0  0  0  0  0  0  0  0
   19.9675   71.4495   -9.1429 O   0  0  0  0  0  0  0  0  0  0  0  0
   15.9463   70.7540   -6.5881 O   0  0  0  0  0  0  0  0  0  0  0  0
   17.8714   70.9651   -8.0214 C   0  0  2  0  0  0  0  0  0  0  0  0
   19.3674   70.6647   -8.1188 C   0  0  2  0  0  0  0  0  0  0  0  0
   17.2637   70.2543   -6.8100 C   0  0  1  0  0  0  0  0  0  0  0  0
   20.0711   70.9545   -6.7924 C   0  0  1  0  0  0  0  0  0  0  0  0
   18.0935   70.4905   -5.5513 C   0  0  1  0  0  0  0  0  0  0  0  0
   17.5802   70.9228   -9.9749 H   0  0  0  0  0  0  0  0  0  0  0  0
   19.5256   71.2708   -9.9874 H   0  0  0  0  0  0  0  0  0  0  0  0
   15.4078   70.6099   -7.3819 H   0  0  0  0  0  0  0  0  0  0  0  0
   16.7552   68.6727   -4.9138 O   0  0  0  0  0  0  0  0  0  0  0  0
   18.1437   69.5478   -3.3309 O   0  0  0  0  0  0  0  0  0  0  0  0
   17.6925   69.5447   -4.4664 C   0  0  0  0  0  0  0  0  0  0  0  0
  1  4  1  0
  1 24  1  0
  1  2  1  1
  1  3  2  0
 25 28  1  0
 25 24  1  0
 25 26  1  6
 25 27  2  0
  6 11  1  0
  6 12  1  0
 29 36  1  0
 29 37  1  0
  9  7  1  1
  7 13  1  0
 10  8  1  1
  8 14  1  0
  4  5  1  0
 36 28  1  1
 33 30  1  6
 30 38  1  0
 34 31  1  6
 31 39  1  0
 35 32  1  1
 32 40  1  0
 41 43  1  0
 15 19  2  0
 42 43  2  0
 16 22  2  0
 12 17  1  6
 17 19  1  0
 17 20  1  0
 18 19  1  0
 18 22  1  0
 18 23  1  0
  9 10  1  0
  9 11  1  0
 10 12  1  0
 11  5  1  1
 33 34  1  0
 33 35  1  0
 34 36  1  0
 35 37  1  0
 37 43  1  1
 20 21  2  0
 21 22  1  0
M  CHG  3   2  -1  26  -1  41  -1
M  END
>  <COMPND>  (259) 
    udp_gluA.pdb 

>  <AUTHOR>  (259) 
    GENERATED BY OPEN BABEL 3.1.1

>  <MASTER>  (259) 
        0    0    0    0    0    0    0    0   56    0   56    0

>  <minimizedAffinity>  (259) 
-7.98428

>  <CNNscore>  (259) 
0.5794876218

>  <CNNaffinity>  (259) 
4.3639898300

>  <CNN_VS>  (259) 
2.5288779736

>  <CNNaffinity_variance>  (259) 
0.0857222453

$$$$
260
     RDKit          3D

 43 45  0  0  0  0  0  0  0  0999 V2000
   20.5993   71.2711   -1.4971 P   0  0  2  0  0  0  0  0  0  0  0  0
   21.1106   70.5616   -0.1354 O   0  0  0  0  0  0  0  0  0  0  0  0
   20.2565   72.7259   -1.3633 O   0  0  0  0  0  0  0  0  0  0  0  0
   19.4017   70.3112   -2.0092 O   0  0  0  0  0  0  0  0  0  0  0  0
   19.0357   70.3575   -3.3761 C   0  0  0  0  0  0  0  0  0  0  0  0
   17.3352   71.4222   -4.7000 O   0  0  0  0  0  0  0  0  0  0  0  0
   15.3617   69.7861   -3.1443 O   0  0  0  0  0  0  0  0  0  0  0  0
   15.5596   68.4092   -5.4897 O   0  0  0  0  0  0  0  0  0  0  0  0
   16.6731   69.4379   -3.5886 C   0  0  1  0  0  0  0  0  0  0  0  0
   16.6699   69.1803   -5.0806 C   0  0  2  0  0  0  0  0  0  0  0  0
   17.5502   70.6779   -3.4814 C   0  0  1  0  0  0  0  0  0  0  0  0
   16.6418   70.5908   -5.6441 C   0  0  2  0  0  0  0  0  0  0  0  0
   14.7830   69.0095   -3.2037 H   0  0  0  0  0  0  0  0  0  0  0  0
   15.6239   67.5204   -5.1052 H   0  0  0  0  0  0  0  0  0  0  0  0
   16.5247   72.8506   -7.3341 O   0  0  0  0  0  0  0  0  0  0  0  0
   19.1924   70.8409  -10.5103 O   0  0  0  0  0  0  0  0  0  0  0  0
   17.2964   70.6850   -6.9183 N   0  0  0  0  0  0  0  0  0  0  0  0
   17.8526   71.8471   -8.9149 N   0  0  0  0  0  0  0  0  0  0  0  0
   17.1739   71.8651   -7.6893 C   0  0  0  0  0  0  0  0  0  0  0  0
   18.0504   69.6179   -7.3912 C   0  0  0  0  0  0  0  0  0  0  0  0
   18.6917   69.6155   -8.5614 C   0  0  0  0  0  0  0  0  0  0  0  0
   18.6141   70.8097   -9.4282 C   0  0  0  0  0  0  0  0  0  0  0  0
   17.7804   72.6569   -9.4702 H   0  0  0  0  0  0  0  0  0  0  0  0
   21.7914   70.9536   -2.5415 O   0  0  0  0  0  0  0  0  0  0  0  0
   23.0938   71.8153   -2.9597 P   0  0  2  0  0  0  0  0  0  0  0  0
   24.2742   70.7082   -2.9949 O   0  0  0  0  0  0  0  0  0  0  0  0
   23.3711   72.9868   -2.0627 O   0  0  0  0  0  0  0  0  0  0  0  0
   22.8502   72.2001   -4.5074 O   0  0  0  0  0  0  0  0  0  0  0  0
   21.8514   74.2836   -5.0275 O   0  0  0  0  0  0  0  0  0  0  0  0
   21.4285   72.2357   -8.5905 O   0  0  0  0  0  0  0  0  0  0  0  0
   20.9348   70.8932   -6.0433 O   0  0  0  0  0  0  0  0  0  0  0  0
   23.4589   74.2992   -8.3256 O   0  0  0  0  0  0  0  0  0  0  0  0
   22.0574   72.5939   -7.3600 C   0  0  2  0  0  0  0  0  0  0  0  0
   21.1113   72.2968   -6.1963 C   0  0  2  0  0  0  0  0  0  0  0  0
   22.3834   74.0881   -7.4129 C   0  0  1  0  0  0  0  0  0  0  0  0
   21.6535   72.8761   -4.8889 C   0  0  1  0  0  0  0  0  0  0  0  0
   22.7958   74.6171   -6.0423 C   0  0  1  0  0  0  0  0  0  0  0  0
   21.2120   71.2901   -8.5800 H   0  0  0  0  0  0  0  0  0  0  0  0
   20.5912   70.5190   -6.8694 H   0  0  0  0  0  0  0  0  0  0  0  0
   23.2093   73.9667   -9.2019 H   0  0  0  0  0  0  0  0  0  0  0  0
   21.8668   76.5779   -5.1513 O   0  0  0  0  0  0  0  0  0  0  0  0
   23.5181   76.8219   -6.7046 O   0  0  0  0  0  0  0  0  0  0  0  0
   22.7911   76.1111   -6.0269 C   0  0  0  0  0  0  0  0  0  0  0  0
  1  4  1  0
  1 24  1  0
  1  2  1  1
  1  3  2  0
 25 28  1  0
 25 24  1  0
 25 26  1  6
 25 27  2  0
  6 11  1  0
  6 12  1  0
 29 36  1  0
 29 37  1  0
  9  7  1  6
  7 13  1  0
 10  8  1  1
  8 14  1  0
  4  5  1  0
 36 28  1  6
 33 30  1  6
 30 38  1  0
 34 31  1  1
 31 39  1  0
 35 32  1  6
 32 40  1  0
 41 43  1  0
 15 19  2  0
 42 43  2  0
 16 22  2  0
 12 17  1  6
 17 19  1  0
 17 20  1  0
 18 19  1  0
 18 22  1  0
 18 23  1  0
  9 10  1  0
  9 11  1  0
 10 12  1  0
 11  5  1  6
 33 34  1  0
 33 35  1  0
 34 36  1  0
 35 37  1  0
 37 43  1  6
 20 21  2  0
 21 22  1  0
M  CHG  3   2  -1  26  -1  41  -1
M  END
>  <COMPND>  (260) 
    udp_gluA.pdb 

>  <AUTHOR>  (260) 
    GENERATED BY OPEN BABEL 3.1.1

>  <MASTER>  (260) 
        0    0    0    0    0    0    0    0   56    0   56    0

>  <minimizedAffinity>  (260) 
-7.89557

>  <CNNscore>  (260) 
0.5744008422

>  <CNNaffinity>  (260) 
4.5120253563

>  <CNN_VS>  (260) 
2.5917112827

>  <CNNaffinity_variance>  (260) 
0.7949751616

$$$$
261
     RDKit          3D

 43 45  0  0  0  0  0  0  0  0999 V2000
   22.5990   71.6027   -2.8792 P   0  0  2  0  0  0  0  0  0  0  0  0
   22.3316   73.1631   -2.5439 O   0  0  0  0  0  0  0  0  0  0  0  0
   24.0077   71.2725   -3.2770 O   0  0  0  0  0  0  0  0  0  0  0  0
   21.4580   71.2380   -3.9668 O   0  0  0  0  0  0  0  0  0  0  0  0
   20.5840   70.1581   -3.6937 C   0  0  0  0  0  0  0  0  0  0  0  0
   18.7833   71.4157   -4.6702 O   0  0  0  0  0  0  0  0  0  0  0  0
   17.0299   70.1760   -2.5773 O   0  0  0  0  0  0  0  0  0  0  0  0
   16.4639   68.6843   -4.7887 O   0  0  0  0  0  0  0  0  0  0  0  0
   18.1341   69.6090   -3.2828 C   0  0  1  0  0  0  0  0  0  0  0  0
   17.7371   69.2903   -4.7086 C   0  0  2  0  0  0  0  0  0  0  0  0
   19.1770   70.7008   -3.4789 C   0  0  1  0  0  0  0  0  0  0  0  0
   17.7738   70.6621   -5.3603 C   0  0  2  0  0  0  0  0  0  0  0  0
   16.3503   69.4971   -2.4401 H   0  0  0  0  0  0  0  0  0  0  0  0
   16.4926   67.8139   -4.3602 H   0  0  0  0  0  0  0  0  0  0  0  0
   15.9028   70.2511   -7.4356 O   0  0  0  0  0  0  0  0  0  0  0  0
   19.1788   70.4327  -10.6727 O   0  0  0  0  0  0  0  0  0  0  0  0
   18.1105   70.5977   -6.7544 N   0  0  0  0  0  0  0  0  0  0  0  0
   17.5364   70.3409   -9.0458 N   0  0  0  0  0  0  0  0  0  0  0  0
   17.0950   70.3872   -7.7169 C   0  0  0  0  0  0  0  0  0  0  0  0
   19.4328   70.7438   -7.1560 C   0  0  0  0  0  0  0  0  0  0  0  0
   19.8382   70.6974   -8.4265 C   0  0  0  0  0  0  0  0  0  0  0  0
   18.8399   70.4801   -9.4940 C   0  0  0  0  0  0  0  0  0  0  0  0
   16.8476   70.1933   -9.7337 H   0  0  0  0  0  0  0  0  0  0  0  0
   22.0824   70.8511   -1.5446 O   0  0  0  0  0  0  0  0  0  0  0  0
   21.3633   71.4240   -0.2148 P   0  0  2  0  0  0  0  0  0  0  0  0
   21.4336   70.1739    0.8113 O   0  0  0  0  0  0  0  0  0  0  0  0
   19.9793   71.9582   -0.4447 O   0  0  0  0  0  0  0  0  0  0  0  0
   22.4058   72.5004    0.3828 O   0  0  0  0  0  0  0  0  0  0  0  0
   22.7549   73.4709    2.5148 O   0  0  0  0  0  0  0  0  0  0  0  0
   23.3703   76.6988    0.0108 O   0  0  0  0  0  0  0  0  0  0  0  0
   21.1733   74.8380   -0.4846 O   0  0  0  0  0  0  0  0  0  0  0  0
   25.6342   75.3607    1.2499 O   0  0  0  0  0  0  0  0  0  0  0  0
   23.3838   75.3226    0.3901 C   0  0  2  0  0  0  0  0  0  0  0  0
   21.9590   74.8636    0.7015 C   0  0  2  0  0  0  0  0  0  0  0  0
   24.2709   75.1822    1.6292 C   0  0  1  0  0  0  0  0  0  0  0  0
   21.9584   73.4691    1.3294 C   0  0  1  0  0  0  0  0  0  0  0  0
   24.1191   73.8057    2.2701 C   0  0  1  0  0  0  0  0  0  0  0  0
   22.8125   76.8123   -0.7749 H   0  0  0  0  0  0  0  0  0  0  0  0
   21.1696   75.7197   -0.8885 H   0  0  0  0  0  0  0  0  0  0  0  0
   25.7444   76.2331    0.8404 H   0  0  0  0  0  0  0  0  0  0  0  0
   26.0556   73.5667    3.5717 O   0  0  0  0  0  0  0  0  0  0  0  0
   24.0996   73.9528    4.6782 O   0  0  0  0  0  0  0  0  0  0  0  0
   24.7194   73.7884    3.6381 C   0  0  0  0  0  0  0  0  0  0  0  0
  1  4  1  0
  1 24  1  0
  1  2  1  1
  1  3  2  0
 25 28  1  0
 25 24  1  0
 25 26  1  1
 25 27  2  0
  6 11  1  0
  6 12  1  0
 29 36  1  0
 29 37  1  0
  9  7  1  1
  7 13  1  0
 10  8  1  1
  8 14  1  0
  4  5  1  0
 36 28  1  6
 33 30  1  1
 30 38  1  0
 34 31  1  6
 31 39  1  0
 35 32  1  6
 32 40  1  0
 41 43  1  0
 15 19  2  0
 42 43  2  0
 16 22  2  0
 12 17  1  6
 17 19  1  0
 17 20  1  0
 18 19  1  0
 18 22  1  0
 18 23  1  0
  9 10  1  0
  9 11  1  0
 10 12  1  0
 11  5  1  6
 33 34  1  0
 33 35  1  0
 34 36  1  0
 35 37  1  0
 37 43  1  1
 20 21  2  0
 21 22  1  0
M  CHG  3   2  -1  26  -1  41  -1
M  END
>  <COMPND>  (261) 
    udp_gluA.pdb 

>  <AUTHOR>  (261) 
    GENERATED BY OPEN BABEL 3.1.1

>  <MASTER>  (261) 
        0    0    0    0    0    0    0    0   56    0   56    0

>  <minimizedAffinity>  (261) 
-7.35391

>  <CNNscore>  (261) 
0.9242665768

>  <CNNaffinity>  (261) 
4.8093347549

>  <CNN_VS>  (261) 
4.4451074600

>  <CNNaffinity_variance>  (261) 
0.0618260577

$$$$
262
     RDKit          3D

 43 45  0  0  0  0  0  0  0  0999 V2000
   23.0771   71.5872   -2.6646 P   0  0  2  0  0  0  0  0  0  0  0  0
   23.3095   73.1404   -2.2744 O   0  0  0  0  0  0  0  0  0  0  0  0
   24.2967   70.8703   -3.1650 O   0  0  0  0  0  0  0  0  0  0  0  0
   21.8185   71.6260   -3.6807 O   0  0  0  0  0  0  0  0  0  0  0  0
   20.9643   70.4985   -3.7423 C   0  0  0  0  0  0  0  0  0  0  0  0
   19.0166   71.5917   -4.6306 O   0  0  0  0  0  0  0  0  0  0  0  0
   17.4952   70.2848   -2.4015 O   0  0  0  0  0  0  0  0  0  0  0  0
   16.9074   68.6939   -4.5369 O   0  0  0  0  0  0  0  0  0  0  0  0
   18.5931   69.7814   -3.1628 C   0  0  1  0  0  0  0  0  0  0  0  0
   18.1337   69.3944   -4.5526 C   0  0  2  0  0  0  0  0  0  0  0  0
   19.5363   70.9415   -3.4506 C   0  0  1  0  0  0  0  0  0  0  0  0
   18.0261   70.7464   -5.2370 C   0  0  2  0  0  0  0  0  0  0  0  0
   16.8787   69.5615   -2.2054 H   0  0  0  0  0  0  0  0  0  0  0  0
   17.0284   67.8404   -4.0910 H   0  0  0  0  0  0  0  0  0  0  0  0
   16.0676   70.1343   -7.1777 O   0  0  0  0  0  0  0  0  0  0  0  0
   19.1120   70.4732  -10.6216 O   0  0  0  0  0  0  0  0  0  0  0  0
   18.2796   70.6680   -6.6479 N   0  0  0  0  0  0  0  0  0  0  0  0
   17.5859   70.3026   -8.8910 N   0  0  0  0  0  0  0  0  0  0  0  0
   17.2257   70.3531   -7.5380 C   0  0  0  0  0  0  0  0  0  0  0  0
   19.5588   70.9033   -7.1368 C   0  0  0  0  0  0  0  0  0  0  0  0
   19.8869   70.8517   -8.4293 C   0  0  0  0  0  0  0  0  0  0  0  0
   18.8443   70.5283   -9.4252 C   0  0  0  0  0  0  0  0  0  0  0  0
   16.8695   70.0832   -9.5296 H   0  0  0  0  0  0  0  0  0  0  0  0
   22.4368   70.9662   -1.3165 O   0  0  0  0  0  0  0  0  0  0  0  0
   21.5795   71.6571   -0.1327 P   0  0  2  0  0  0  0  0  0  0  0  0
   20.9219   70.3924    0.6343 O   0  0  0  0  0  0  0  0  0  0  0  0
   20.5858   72.6777   -0.6070 O   0  0  0  0  0  0  0  0  0  0  0  0
   22.6853   72.2264    0.8947 O   0  0  0  0  0  0  0  0  0  0  0  0
   24.4048   71.3967    2.2962 O   0  0  0  0  0  0  0  0  0  0  0  0
   22.4315   73.9925    4.8332 O   0  0  0  0  0  0  0  0  0  0  0  0
   20.9268   72.2349    3.0497 O   0  0  0  0  0  0  0  0  0  0  0  0
   24.9857   74.7492    3.6695 O   0  0  0  0  0  0  0  0  0  0  0  0
   22.9189   73.5142    3.5796 C   0  0  2  0  0  0  0  0  0  0  0  0
   22.3253   72.1349    3.2922 C   0  0  2  0  0  0  0  0  0  0  0  0
   24.4444   73.4295    3.6665 C   0  0  1  0  0  0  0  0  0  0  0  0
   22.9967   71.4925    2.0776 C   0  0  1  0  0  0  0  0  0  0  0  0
   25.0283   72.6655    2.4816 C   0  0  1  0  0  0  0  0  0  0  0  0
   21.4638   74.0545    4.8017 H   0  0  0  0  0  0  0  0  0  0  0  0
   20.4944   72.6419    3.8163 H   0  0  0  0  0  0  0  0  0  0  0  0
   24.6219   75.2462    4.4188 H   0  0  0  0  0  0  0  0  0  0  0  0
   26.6824   71.0035    2.4248 O   0  0  0  0  0  0  0  0  0  0  0  0
   27.3082   73.0690    3.1605 O   0  0  0  0  0  0  0  0  0  0  0  0
   26.4557   72.3040    2.7350 C   0  0  0  0  0  0  0  0  0  0  0  0
  1  4  1  0
  1 24  1  0
  1  2  1  1
  1  3  2  0
 25 28  1  0
 25 24  1  0
 25 26  1  1
 25 27  2  0
  6 11  1  0
  6 12  1  0
 29 36  1  0
 29 37  1  0
  9  7  1  1
  7 13  1  0
 10  8  1  1
  8 14  1  0
  4  5  1  0
 36 28  1  6
 33 30  1  1
 30 38  1  0
 34 31  1  6
 31 39  1  0
 35 32  1  6
 32 40  1  0
 41 43  1  0
 15 19  2  0
 42 43  2  0
 16 22  2  0
 12 17  1  6
 17 19  1  0
 17 20  1  0
 18 19  1  0
 18 22  1  0
 18 23  1  0
  9 10  1  0
  9 11  1  0
 10 12  1  0
 11  5  1  6
 33 34  1  0
 33 35  1  0
 34 36  1  0
 35 37  1  0
 37 43  1  1
 20 21  2  0
 21 22  1  0
M  CHG  3   2  -1  26  -1  41  -1
M  END
>  <COMPND>  (262) 
    udp_gluA.pdb 

>  <AUTHOR>  (262) 
    GENERATED BY OPEN BABEL 3.1.1

>  <MASTER>  (262) 
        0    0    0    0    0    0    0    0   56    0   56    0

>  <minimizedAffinity>  (262) 
-8.24816

>  <CNNscore>  (262) 
0.9217204452

>  <CNNaffinity>  (262) 
4.8222360611

>  <CNN_VS>  (262) 
4.4447536469

>  <CNNaffinity_variance>  (262) 
0.0535151139

$$$$
263
     RDKit          3D

 43 45  0  0  0  0  0  0  0  0999 V2000
   22.7993   72.1038   -3.8413 P   0  0  2  0  0  0  0  0  0  0  0  0
   22.5258   72.0202   -5.4341 O   0  0  0  0  0  0  0  0  0  0  0  0
   23.9625   71.2903   -3.3546 O   0  0  0  0  0  0  0  0  0  0  0  0
   21.3660   71.7451   -3.1817 O   0  0  0  0  0  0  0  0  0  0  0  0
   20.5382   70.8008   -3.8355 C   0  0  0  0  0  0  0  0  0  0  0  0
   18.6465   71.7936   -4.9370 O   0  0  0  0  0  0  0  0  0  0  0  0
   16.9787   70.5852   -2.7577 O   0  0  0  0  0  0  0  0  0  0  0  0
   16.5913   68.8578   -4.8319 O   0  0  0  0  0  0  0  0  0  0  0  0
   18.1426   70.0636   -3.3995 C   0  0  1  0  0  0  0  0  0  0  0  0
   17.8016   69.5847   -4.7947 C   0  0  2  0  0  0  0  0  0  0  0  0
   19.0836   71.2265   -3.6830 C   0  0  1  0  0  0  0  0  0  0  0  0
   17.7230   70.8911   -5.5662 C   0  0  2  0  0  0  0  0  0  0  0  0
   16.3623   69.8605   -2.5666 H   0  0  0  0  0  0  0  0  0  0  0  0
   16.6926   68.0351   -4.3270 H   0  0  0  0  0  0  0  0  0  0  0  0
   15.9331   70.1309   -7.6143 O   0  0  0  0  0  0  0  0  0  0  0  0
   19.2356   70.3258  -10.8236 O   0  0  0  0  0  0  0  0  0  0  0  0
   18.0885   70.7356   -6.9457 N   0  0  0  0  0  0  0  0  0  0  0  0
   17.5799   70.2277   -9.2106 N   0  0  0  0  0  0  0  0  0  0  0  0
   17.1129   70.3500   -7.8953 C   0  0  0  0  0  0  0  0  0  0  0  0
   19.3991   70.9658   -7.3462 C   0  0  0  0  0  0  0  0  0  0  0  0
   19.8291   70.8453   -8.6037 C   0  0  0  0  0  0  0  0  0  0  0  0
   18.8733   70.4453   -9.6571 C   0  0  0  0  0  0  0  0  0  0  0  0
   16.9194   69.9583   -9.8891 H   0  0  0  0  0  0  0  0  0  0  0  0
   22.9324   73.6933   -3.5789 O   0  0  0  0  0  0  0  0  0  0  0  0
   24.0860   74.5547   -2.8435 P   0  0  2  0  0  0  0  0  0  0  0  0
   23.3852   75.9966   -2.6200 O   0  0  0  0  0  0  0  0  0  0  0  0
   25.3862   74.6085   -3.5924 O   0  0  0  0  0  0  0  0  0  0  0  0
   24.1912   73.9194   -1.3644 O   0  0  0  0  0  0  0  0  0  0  0  0
   22.3469   73.4514    0.0458 O   0  0  0  0  0  0  0  0  0  0  0  0
   25.4056   73.9070    2.7853 O   0  0  0  0  0  0  0  0  0  0  0  0
   25.1723   75.7247    0.5102 O   0  0  0  0  0  0  0  0  0  0  0  0
   24.4194   71.2527    2.1274 O   0  0  0  0  0  0  0  0  0  0  0  0
   24.8205   73.5527    1.5323 C   0  0  2  0  0  0  0  0  0  0  0  0
   24.1760   74.7871    0.9011 C   0  0  2  0  0  0  0  0  0  0  0  0
   23.7654   72.4749    1.7910 C   0  0  1  0  0  0  0  0  0  0  0  0
   23.3444   74.4042   -0.3239 C   0  0  1  0  0  0  0  0  0  0  0  0
   22.8956   72.2397    0.5595 C   0  0  1  0  0  0  0  0  0  0  0  0
   26.0795   74.5910    2.6458 H   0  0  0  0  0  0  0  0  0  0  0  0
   25.7040   75.9719    1.2826 H   0  0  0  0  0  0  0  0  0  0  0  0
   24.9764   71.3888    2.9097 H   0  0  0  0  0  0  0  0  0  0  0  0
   21.3020   70.6625   -0.1293 O   0  0  0  0  0  0  0  0  0  0  0  0
   21.1040   71.4847    1.9882 O   0  0  0  0  0  0  0  0  0  0  0  0
   21.6810   71.4443    0.9119 C   0  0  0  0  0  0  0  0  0  0  0  0
  1  4  1  0
  1 24  1  0
  1  2  1  6
  1  3  2  0
 25 28  1  0
 25 24  1  0
 25 26  1  1
 25 27  2  0
  6 11  1  0
  6 12  1  0
 29 36  1  0
 29 37  1  0
  9  7  1  6
  7 13  1  0
 10  8  1  1
  8 14  1  0
  4  5  1  0
 36 28  1  6
 33 30  1  1
 30 38  1  0
 34 31  1  6
 31 39  1  0
 35 32  1  6
 32 40  1  0
 41 43  1  0
 15 19  2  0
 42 43  2  0
 16 22  2  0
 12 17  1  6
 17 19  1  0
 17 20  1  0
 18 19  1  0
 18 22  1  0
 18 23  1  0
  9 10  1  0
  9 11  1  0
 10 12  1  0
 11  5  1  6
 33 34  1  0
 33 35  1  0
 34 36  1  0
 35 37  1  0
 37 43  1  1
 20 21  2  0
 21 22  1  0
M  CHG  3   2  -1  26  -1  41  -1
M  END
>  <COMPND>  (263) 
    udp_gluA.pdb 

>  <AUTHOR>  (263) 
    GENERATED BY OPEN BABEL 3.1.1

>  <MASTER>  (263) 
        0    0    0    0    0    0    0    0   56    0   56    0

>  <minimizedAffinity>  (263) 
-7.41254

>  <CNNscore>  (263) 
0.9062632918

>  <CNNaffinity>  (263) 
4.8029904366

>  <CNN_VS>  (263) 
4.3527741432

>  <CNNaffinity_variance>  (263) 
0.0973774642

$$$$
264
     RDKit          3D

 43 45  0  0  0  0  0  0  0  0999 V2000
   20.5440   71.2990   -1.4527 P   0  0  2  0  0  0  0  0  0  0  0  0
   21.1726   70.5658   -0.1542 O   0  0  0  0  0  0  0  0  0  0  0  0
   20.0370   72.6905   -1.2110 O   0  0  0  0  0  0  0  0  0  0  0  0
   19.4534   70.2402   -2.0069 O   0  0  0  0  0  0  0  0  0  0  0  0
   19.1254   70.2655   -3.3839 C   0  0  0  0  0  0  0  0  0  0  0  0
   17.4862   71.3416   -4.7741 O   0  0  0  0  0  0  0  0  0  0  0  0
   15.4346   69.7791   -3.2439 O   0  0  0  0  0  0  0  0  0  0  0  0
   15.6659   68.3536   -5.5570 O   0  0  0  0  0  0  0  0  0  0  0  0
   16.7496   69.3939   -3.6451 C   0  0  1  0  0  0  0  0  0  0  0  0
   16.7815   69.1079   -5.1315 C   0  0  2  0  0  0  0  0  0  0  0  0
   17.6509   70.6162   -3.5364 C   0  0  1  0  0  0  0  0  0  0  0  0
   16.8004   70.5077   -5.7216 C   0  0  2  0  0  0  0  0  0  0  0  0
   14.8405   69.0143   -3.3050 H   0  0  0  0  0  0  0  0  0  0  0  0
   15.6998   67.4711   -5.1545 H   0  0  0  0  0  0  0  0  0  0  0  0
   15.5259   70.5706   -8.2411 O   0  0  0  0  0  0  0  0  0  0  0  0
   19.5529   70.7199  -10.4783 O   0  0  0  0  0  0  0  0  0  0  0  0
   17.4917   70.5631   -6.9786 N   0  0  0  0  0  0  0  0  0  0  0  0
   17.5328   70.6439   -9.3530 N   0  0  0  0  0  0  0  0  0  0  0  0
   16.7570   70.5909   -8.1875 C   0  0  0  0  0  0  0  0  0  0  0  0
   18.8807   70.5911   -7.0056 C   0  0  0  0  0  0  0  0  0  0  0  0
   19.6063   70.6417   -8.1244 C   0  0  0  0  0  0  0  0  0  0  0  0
   18.9158   70.6728   -9.4304 C   0  0  0  0  0  0  0  0  0  0  0  0
   17.0436   70.6620  -10.2072 H   0  0  0  0  0  0  0  0  0  0  0  0
   21.7357   71.1960   -2.5400 O   0  0  0  0  0  0  0  0  0  0  0  0
   23.0999   72.0479   -2.7035 P   0  0  2  0  0  0  0  0  0  0  0  0
   24.1850   70.9285   -3.1391 O   0  0  0  0  0  0  0  0  0  0  0  0
   23.4819   72.8385   -1.4858 O   0  0  0  0  0  0  0  0  0  0  0  0
   22.8726   72.9335   -4.0326 O   0  0  0  0  0  0  0  0  0  0  0  0
   20.6308   73.5963   -4.4124 O   0  0  0  0  0  0  0  0  0  0  0  0
   22.4355   74.6554   -7.9746 O   0  0  0  0  0  0  0  0  0  0  0  0
   23.0849   72.1168   -6.6829 O   0  0  0  0  0  0  0  0  0  0  0  0
   21.7562   76.6967   -6.0195 O   0  0  0  0  0  0  0  0  0  0  0  0
   22.3633   74.4303   -6.5667 C   0  0  2  0  0  0  0  0  0  0  0  0
   22.0100   72.9669   -6.2999 C   0  0  2  0  0  0  0  0  0  0  0  0
   21.2831   75.3513   -5.9953 C   0  0  1  0  0  0  0  0  0  0  0  0
   21.6988   72.7403   -4.8198 C   0  0  1  0  0  0  0  0  0  0  0  0
   20.9397   74.9809   -4.5553 C   0  0  1  0  0  0  0  0  0  0  0  0
   23.1157   74.0806   -8.3597 H   0  0  0  0  0  0  0  0  0  0  0  0
   23.2878   72.2556   -7.6210 H   0  0  0  0  0  0  0  0  0  0  0  0
   21.9784   76.9450   -6.9304 H   0  0  0  0  0  0  0  0  0  0  0  0
   19.5005   75.5197   -2.7834 O   0  0  0  0  0  0  0  0  0  0  0  0
   18.9075   76.2446   -4.8624 O   0  0  0  0  0  0  0  0  0  0  0  0
   19.6778   75.6527   -4.1213 C   0  0  0  0  0  0  0  0  0  0  0  0
  1  4  1  0
  1 24  1  0
  1  2  1  1
  1  3  2  0
 25 28  1  0
 25 24  1  0
 25 26  1  6
 25 27  2  0
  6 11  1  0
  6 12  1  0
 29 36  1  0
 29 37  1  0
  9  7  1  6
  7 13  1  0
 10  8  1  6
  8 14  1  0
  4  5  1  0
 36 28  1  1
 33 30  1  6
 30 38  1  0
 34 31  1  1
 31 39  1  0
 35 32  1  1
 32 40  1  0
 41 43  1  0
 15 19  2  0
 42 43  2  0
 16 22  2  0
 12 17  1  6
 17 19  1  0
 17 20  1  0
 18 19  1  0
 18 22  1  0
 18 23  1  0
  9 10  1  0
  9 11  1  0
 10 12  1  0
 11  5  1  6
 33 34  1  0
 33 35  1  0
 34 36  1  0
 35 37  1  0
 37 43  1  6
 20 21  2  0
 21 22  1  0
M  CHG  3   2  -1  26  -1  41  -1
M  END
>  <COMPND>  (264) 
    udp_gluA.pdb 

>  <AUTHOR>  (264) 
    GENERATED BY OPEN BABEL 3.1.1

>  <MASTER>  (264) 
        0    0    0    0    0    0    0    0   56    0   56    0

>  <minimizedAffinity>  (264) 
-7.93322

>  <CNNscore>  (264) 
0.8877055049

>  <CNNaffinity>  (264) 
4.7088294029

>  <CNN_VS>  (264) 
4.1800537109

>  <CNNaffinity_variance>  (264) 
0.7412317395

$$$$
265
     RDKit          3D

 43 45  0  0  0  0  0  0  0  0999 V2000
   22.0193   72.6163   -4.4559 P   0  0  2  0  0  0  0  0  0  0  0  0
   21.2412   74.0099   -4.7227 O   0  0  0  0  0  0  0  0  0  0  0  0
   23.3641   72.5058   -5.1126 O   0  0  0  0  0  0  0  0  0  0  0  0
   20.9404   71.4836   -4.8692 O   0  0  0  0  0  0  0  0  0  0  0  0
   20.3455   70.7102   -3.8433 C   0  0  0  0  0  0  0  0  0  0  0  0
   18.4547   71.6509   -4.9912 O   0  0  0  0  0  0  0  0  0  0  0  0
   16.7646   70.3599   -2.8773 O   0  0  0  0  0  0  0  0  0  0  0  0
   16.5000   68.6453   -4.9812 O   0  0  0  0  0  0  0  0  0  0  0  0
   17.9647   69.8863   -3.4889 C   0  0  1  0  0  0  0  0  0  0  0  0
   17.6827   69.4128   -4.8991 C   0  0  2  0  0  0  0  0  0  0  0  0
   18.8731   71.0840   -3.7307 C   0  0  1  0  0  0  0  0  0  0  0  0
   17.5823   70.7249   -5.6582 C   0  0  2  0  0  0  0  0  0  0  0  0
   16.1682   69.6122   -2.7131 H   0  0  0  0  0  0  0  0  0  0  0  0
   16.6145   67.8206   -4.4826 H   0  0  0  0  0  0  0  0  0  0  0  0
   15.8084   70.4517   -7.8388 O   0  0  0  0  0  0  0  0  0  0  0  0
   19.2754   70.2482  -10.8691 O   0  0  0  0  0  0  0  0  0  0  0  0
   17.9945   70.5987   -7.0275 N   0  0  0  0  0  0  0  0  0  0  0  0
   17.5369   70.3496   -9.3459 N   0  0  0  0  0  0  0  0  0  0  0  0
   17.0230   70.4665   -8.0477 C   0  0  0  0  0  0  0  0  0  0  0  0
   19.3464   70.6083   -7.3486 C   0  0  0  0  0  0  0  0  0  0  0  0
   19.8210   70.4960   -8.5908 C   0  0  0  0  0  0  0  0  0  0  0  0
   18.8724   70.3531   -9.7146 C   0  0  0  0  0  0  0  0  0  0  0  0
   16.8797   70.2543  -10.0728 H   0  0  0  0  0  0  0  0  0  0  0  0
   22.0478   72.5196   -2.8426 O   0  0  0  0  0  0  0  0  0  0  0  0
   23.2780   72.3203   -1.8128 P   0  0  2  0  0  0  0  0  0  0  0  0
   24.1255   73.6893   -1.9796 O   0  0  0  0  0  0  0  0  0  0  0  0
   24.0746   71.0682   -2.0401 O   0  0  0  0  0  0  0  0  0  0  0  0
   22.6087   72.4315   -0.3492 O   0  0  0  0  0  0  0  0  0  0  0  0
   21.3510   74.2423    0.5158 O   0  0  0  0  0  0  0  0  0  0  0  0
   22.9648   72.6205    3.9558 O   0  0  0  0  0  0  0  0  0  0  0  0
   24.5913   72.8979    1.5450 O   0  0  0  0  0  0  0  0  0  0  0  0
   20.1684   72.1686    3.3021 O   0  0  0  0  0  0  0  0  0  0  0  0
   22.4406   72.6023    2.6280 C   0  0  2  0  0  0  0  0  0  0  0  0
   23.3058   73.4809    1.7242 C   0  0  2  0  0  0  0  0  0  0  0  0
   21.0080   73.1381    2.6778 C   0  0  1  0  0  0  0  0  0  0  0  0
   22.6500   73.6709    0.3557 C   0  0  1  0  0  0  0  0  0  0  0  0
   20.4698   73.4204    1.2781 C   0  0  1  0  0  0  0  0  0  0  0  0
   23.8748   72.2841    3.9489 H   0  0  0  0  0  0  0  0  0  0  0  0
   25.0131   72.7741    2.4094 H   0  0  0  0  0  0  0  0  0  0  0  0
   20.5002   71.9798    4.1938 H   0  0  0  0  0  0  0  0  0  0  0  0
   18.9992   74.6704    2.6110 O   0  0  0  0  0  0  0  0  0  0  0  0
   18.4965   74.4910    0.3942 O   0  0  0  0  0  0  0  0  0  0  0  0
   19.2215   74.2387    1.3448 C   0  0  0  0  0  0  0  0  0  0  0  0
  1  4  1  0
  1 24  1  0
  1  2  1  1
  1  3  2  0
 25 28  1  0
 25 24  1  0
 25 26  1  6
 25 27  2  0
  6 11  1  0
  6 12  1  0
 29 36  1  0
 29 37  1  0
  9  7  1  6
  7 13  1  0
 10  8  1  1
  8 14  1  0
  4  5  1  0
 36 28  1  1
 33 30  1  1
 30 38  1  0
 34 31  1  6
 31 39  1  0
 35 32  1  6
 32 40  1  0
 41 43  1  0
 15 19  2  0
 42 43  2  0
 16 22  2  0
 12 17  1  6
 17 19  1  0
 17 20  1  0
 18 19  1  0
 18 22  1  0
 18 23  1  0
  9 10  1  0
  9 11  1  0
 10 12  1  0
 11  5  1  6
 33 34  1  0
 33 35  1  0
 34 36  1  0
 35 37  1  0
 37 43  1  1
 20 21  2  0
 21 22  1  0
M  CHG  3   2  -1  26  -1  41  -1
M  END
>  <COMPND>  (265) 
    udp_gluA.pdb 

>  <AUTHOR>  (265) 
    GENERATED BY OPEN BABEL 3.1.1

>  <MASTER>  (265) 
        0    0    0    0    0    0    0    0   56    0   56    0

>  <minimizedAffinity>  (265) 
-7.12647

>  <CNNscore>  (265) 
0.8622037768

>  <CNNaffinity>  (265) 
4.5485305786

>  <CNN_VS>  (265) 
3.9217603207

>  <CNNaffinity_variance>  (265) 
0.0321837962

$$$$
266
     RDKit          3D

 43 45  0  0  0  0  0  0  0  0999 V2000
   20.2336   72.1585   -1.2865 P   0  0  2  0  0  0  0  0  0  0  0  0
   20.1937   70.6056   -0.8326 O   0  0  0  0  0  0  0  0  0  0  0  0
   19.2069   73.0362   -0.6328 O   0  0  0  0  0  0  0  0  0  0  0  0
   20.1756   72.0927   -2.9021 O   0  0  0  0  0  0  0  0  0  0  0  0
   19.4867   71.0158   -3.5106 C   0  0  0  0  0  0  0  0  0  0  0  0
   17.7556   71.9289   -4.9060 O   0  0  0  0  0  0  0  0  0  0  0  0
   15.8139   70.5949   -3.0508 O   0  0  0  0  0  0  0  0  0  0  0  0
   15.8751   68.8884   -5.1768 O   0  0  0  0  0  0  0  0  0  0  0  0
   17.0957   70.1468   -3.4920 C   0  0  1  0  0  0  0  0  0  0  0  0
   17.0205   69.6766   -4.9292 C   0  0  2  0  0  0  0  0  0  0  0  0
   18.0061   71.3622   -3.6016 C   0  0  1  0  0  0  0  0  0  0  0  0
   17.0014   70.9912   -5.6904 C   0  0  2  0  0  0  0  0  0  0  0  0
   15.2146   69.8356   -2.9732 H   0  0  0  0  0  0  0  0  0  0  0  0
   15.9349   68.0629   -4.6699 H   0  0  0  0  0  0  0  0  0  0  0  0
   15.6203   70.1955   -8.0220 O   0  0  0  0  0  0  0  0  0  0  0  0
   19.4042   70.6020  -10.6223 O   0  0  0  0  0  0  0  0  0  0  0  0
   17.6013   70.8806   -6.9900 N   0  0  0  0  0  0  0  0  0  0  0  0
   17.5065   70.3978   -9.3146 N   0  0  0  0  0  0  0  0  0  0  0  0
   16.8191   70.4721   -8.0960 C   0  0  0  0  0  0  0  0  0  0  0  0
   18.9484   71.1765   -7.1595 C   0  0  0  0  0  0  0  0  0  0  0  0
   19.5896   71.1011   -8.3274 C   0  0  0  0  0  0  0  0  0  0  0  0
   18.8450   70.6813   -9.5326 C   0  0  0  0  0  0  0  0  0  0  0  0
   16.9833   70.1136  -10.0988 H   0  0  0  0  0  0  0  0  0  0  0  0
   21.7659   72.5825   -0.9948 O   0  0  0  0  0  0  0  0  0  0  0  0
   22.4035   73.9823   -0.4970 P   0  0  2  0  0  0  0  0  0  0  0  0
   23.8527   73.5453    0.0766 O   0  0  0  0  0  0  0  0  0  0  0  0
   21.5507   74.7330    0.4844 O   0  0  0  0  0  0  0  0  0  0  0  0
   22.7297   74.7894   -1.8552 O   0  0  0  0  0  0  0  0  0  0  0  0
   23.6481   73.5176   -3.6294 O   0  0  0  0  0  0  0  0  0  0  0  0
   24.2425   77.3804   -4.9686 O   0  0  0  0  0  0  0  0  0  0  0  0
   24.7355   76.6898   -2.1731 O   0  0  0  0  0  0  0  0  0  0  0  0
   22.1181   75.7531   -6.1041 O   0  0  0  0  0  0  0  0  0  0  0  0
   23.5702   76.3320   -4.2708 C   0  0  2  0  0  0  0  0  0  0  0  0
   24.5013   75.7441   -3.2101 C   0  0  2  0  0  0  0  0  0  0  0  0
   23.1804   75.2594   -5.2904 C   0  0  1  0  0  0  0  0  0  0  0  0
   23.9042   74.4747   -2.6010 C   0  0  1  0  0  0  0  0  0  0  0  0
   22.7136   73.9800   -4.6021 C   0  0  1  0  0  0  0  0  0  0  0  0
   24.4999   78.0738   -4.3407 H   0  0  0  0  0  0  0  0  0  0  0  0
   25.1141   77.4979   -2.5526 H   0  0  0  0  0  0  0  0  0  0  0  0
   22.4022   76.5675   -6.5477 H   0  0  0  0  0  0  0  0  0  0  0  0
   22.8897   73.2847   -6.8353 O   0  0  0  0  0  0  0  0  0  0  0  0
   22.4236   71.6829   -5.2808 O   0  0  0  0  0  0  0  0  0  0  0  0
   22.6525   72.8468   -5.5739 C   0  0  0  0  0  0  0  0  0  0  0  0
  1  4  1  0
  1 24  1  0
  1  2  1  1
  1  3  2  0
 25 28  1  0
 25 24  1  0
 25 26  1  1
 25 27  2  0
  6 11  1  0
  6 12  1  0
 29 36  1  0
 29 37  1  0
  9  7  1  6
  7 13  1  0
 10  8  1  1
  8 14  1  0
  4  5  1  0
 36 28  1  6
 33 30  1  6
 30 38  1  0
 34 31  1  1
 31 39  1  0
 35 32  1  6
 32 40  1  0
 41 43  1  0
 15 19  2  0
 42 43  2  0
 16 22  2  0
 12 17  1  6
 17 19  1  0
 17 20  1  0
 18 19  1  0
 18 22  1  0
 18 23  1  0
  9 10  1  0
  9 11  1  0
 10 12  1  0
 11  5  1  6
 33 34  1  0
 33 35  1  0
 34 36  1  0
 35 37  1  0
 37 43  1  6
 20 21  2  0
 21 22  1  0
M  CHG  3   2  -1  26  -1  41  -1
M  END
>  <COMPND>  (266) 
    udp_gluA.pdb 

>  <AUTHOR>  (266) 
    GENERATED BY OPEN BABEL 3.1.1

>  <MASTER>  (266) 
        0    0    0    0    0    0    0    0   56    0   56    0

>  <minimizedAffinity>  (266) 
-6.44966

>  <CNNscore>  (266) 
0.8607552648

>  <CNNaffinity>  (266) 
4.7036828995

>  <CNN_VS>  (266) 
4.0487198830

>  <CNNaffinity_variance>  (266) 
0.1402946562

$$$$
267
     RDKit          3D

 43 45  0  0  0  0  0  0  0  0999 V2000
   20.8054   73.0338   -3.4460 P   0  0  2  0  0  0  0  0  0  0  0  0
   20.2928   73.2515   -1.9266 O   0  0  0  0  0  0  0  0  0  0  0  0
   21.2845   74.2766   -4.1372 O   0  0  0  0  0  0  0  0  0  0  0  0
   19.5786   72.2597   -4.1628 O   0  0  0  0  0  0  0  0  0  0  0  0
   18.9715   71.1774   -3.4812 C   0  0  0  0  0  0  0  0  0  0  0  0
   17.2113   71.7268   -5.0231 O   0  0  0  0  0  0  0  0  0  0  0  0
   15.4108   70.1053   -3.2565 O   0  0  0  0  0  0  0  0  0  0  0  0
   15.9340   68.3890   -5.3100 O   0  0  0  0  0  0  0  0  0  0  0  0
   16.7812   69.8880   -3.5931 C   0  0  1  0  0  0  0  0  0  0  0  0
   16.8975   69.3784   -5.0141 C   0  0  2  0  0  0  0  0  0  0  0  0
   17.4635   71.2460   -3.6849 C   0  0  1  0  0  0  0  0  0  0  0  0
   16.6979   70.6492   -5.8222 C   0  0  2  0  0  0  0  0  0  0  0  0
   14.9541   69.2515   -3.1922 H   0  0  0  0  0  0  0  0  0  0  0  0
   16.1042   67.6004   -4.7705 H   0  0  0  0  0  0  0  0  0  0  0  0
   15.4488   70.6634   -8.3552 O   0  0  0  0  0  0  0  0  0  0  0  0
   19.4971   70.5320  -10.5549 O   0  0  0  0  0  0  0  0  0  0  0  0
   17.4015   70.6193   -7.0732 N   0  0  0  0  0  0  0  0  0  0  0  0
   17.4662   70.5969   -9.4484 N   0  0  0  0  0  0  0  0  0  0  0  0
   16.6791   70.6293   -8.2898 C   0  0  0  0  0  0  0  0  0  0  0  0
   18.7905   70.5822   -7.0869 C   0  0  0  0  0  0  0  0  0  0  0  0
   19.5270   70.5517   -8.1993 C   0  0  0  0  0  0  0  0  0  0  0  0
   18.8497   70.5589   -9.5126 C   0  0  0  0  0  0  0  0  0  0  0  0
   16.9856   70.6011  -10.3076 H   0  0  0  0  0  0  0  0  0  0  0  0
   21.9233   71.8768   -3.2896 O   0  0  0  0  0  0  0  0  0  0  0  0
   23.4297   71.9284   -2.7050 P   0  0  2  0  0  0  0  0  0  0  0  0
   23.9867   73.3499   -3.2430 O   0  0  0  0  0  0  0  0  0  0  0  0
   24.2778   70.7488   -3.0833 O   0  0  0  0  0  0  0  0  0  0  0  0
   23.2452   72.1384   -1.1162 O   0  0  0  0  0  0  0  0  0  0  0  0
   24.3943   71.0720    0.6590 O   0  0  0  0  0  0  0  0  0  0  0  0
   20.7140   71.8309    2.3757 O   0  0  0  0  0  0  0  0  0  0  0  0
   20.8933   70.8538   -0.3716 O   0  0  0  0  0  0  0  0  0  0  0  0
   23.0139   73.4671    3.0715 O   0  0  0  0  0  0  0  0  0  0  0  0
   21.8225   72.0726    1.5092 C   0  0  2  0  0  0  0  0  0  0  0  0
   21.9824   70.8984    0.5432 C   0  0  2  0  0  0  0  0  0  0  0  0
   23.0753   72.2239    2.3750 C   0  0  1  0  0  0  0  0  0  0  0  0
   23.2891   71.0111   -0.2434 C   0  0  1  0  0  0  0  0  0  0  0  0
   24.3441   72.2017    1.5275 C   0  0  1  0  0  0  0  0  0  0  0  0
   19.9062   71.7313    1.8476 H   0  0  0  0  0  0  0  0  0  0  0  0
   20.0609   70.7825    0.1207 H   0  0  0  0  0  0  0  0  0  0  0  0
   22.2107   73.4941    3.6146 H   0  0  0  0  0  0  0  0  0  0  0  0
   26.0463   70.7620    2.2565 O   0  0  0  0  0  0  0  0  0  0  0  0
   26.0374   72.8772    3.1080 O   0  0  0  0  0  0  0  0  0  0  0  0
   25.5526   72.0183    2.3866 C   0  0  0  0  0  0  0  0  0  0  0  0
  1  4  1  0
  1 24  1  0
  1  2  1  1
  1  3  2  0
 25 28  1  0
 25 24  1  0
 25 26  1  6
 25 27  2  0
  6 11  1  0
  6 12  1  0
 29 36  1  0
 29 37  1  0
  9  7  1  6
  7 13  1  0
 10  8  1  6
  8 14  1  0
  4  5  1  0
 36 28  1  1
 33 30  1  1
 30 38  1  0
 34 31  1  6
 31 39  1  0
 35 32  1  6
 32 40  1  0
 41 43  1  0
 15 19  2  0
 42 43  2  0
 16 22  2  0
 12 17  1  6
 17 19  1  0
 17 20  1  0
 18 19  1  0
 18 22  1  0
 18 23  1  0
  9 10  1  0
  9 11  1  0
 10 12  1  0
 11  5  1  6
 33 34  1  0
 33 35  1  0
 34 36  1  0
 35 37  1  0
 37 43  1  1
 20 21  2  0
 21 22  1  0
M  CHG  3   2  -1  26  -1  41  -1
M  END
>  <COMPND>  (267) 
    udp_gluA.pdb 

>  <AUTHOR>  (267) 
    GENERATED BY OPEN BABEL 3.1.1

>  <MASTER>  (267) 
        0    0    0    0    0    0    0    0   56    0   56    0

>  <minimizedAffinity>  (267) 
-8.34385

>  <CNNscore>  (267) 
0.8476607800

>  <CNNaffinity>  (267) 
4.6722211838

>  <CNN_VS>  (267) 
3.9604587555

>  <CNNaffinity_variance>  (267) 
0.0763790086

$$$$
268
     RDKit          3D

 43 45  0  0  0  0  0  0  0  0999 V2000
   20.4579   71.1908   -1.3938 P   0  0  2  0  0  0  0  0  0  0  0  0
   20.8424   70.5654    0.0484 O   0  0  0  0  0  0  0  0  0  0  0  0
   19.9941   72.6176   -1.3624 O   0  0  0  0  0  0  0  0  0  0  0  0
   19.4098   70.1247   -2.0126 O   0  0  0  0  0  0  0  0  0  0  0  0
   19.1024   70.2017   -3.3925 C   0  0  0  0  0  0  0  0  0  0  0  0
   17.4953   71.3132   -4.7924 O   0  0  0  0  0  0  0  0  0  0  0  0
   15.4011   69.7959   -3.2746 O   0  0  0  0  0  0  0  0  0  0  0  0
   15.6150   68.3656   -5.5864 O   0  0  0  0  0  0  0  0  0  0  0  0
   16.7098   69.3821   -3.6679 C   0  0  1  0  0  0  0  0  0  0  0  0
   16.7442   69.0954   -5.1541 C   0  0  2  0  0  0  0  0  0  0  0  0
   17.6369   70.5844   -3.5537 C   0  0  1  0  0  0  0  0  0  0  0  0
   16.7973   70.4944   -5.7440 C   0  0  2  0  0  0  0  0  0  0  0  0
   14.7908   69.0443   -3.3392 H   0  0  0  0  0  0  0  0  0  0  0  0
   15.6272   67.4826   -5.1837 H   0  0  0  0  0  0  0  0  0  0  0  0
   15.5395   70.5968   -8.2707 O   0  0  0  0  0  0  0  0  0  0  0  0
   19.5820   70.6456  -10.4842 O   0  0  0  0  0  0  0  0  0  0  0  0
   17.4970   70.5347   -6.9968 N   0  0  0  0  0  0  0  0  0  0  0  0
   17.5541   70.6200   -9.3708 N   0  0  0  0  0  0  0  0  0  0  0  0
   16.7704   70.5846   -8.2099 C   0  0  0  0  0  0  0  0  0  0  0  0
   18.8865   70.5262   -7.0157 C   0  0  0  0  0  0  0  0  0  0  0  0
   19.6196   70.5604   -8.1302 C   0  0  0  0  0  0  0  0  0  0  0  0
   18.9378   70.6127   -9.4401 C   0  0  0  0  0  0  0  0  0  0  0  0
   17.0705   70.6529  -10.2278 H   0  0  0  0  0  0  0  0  0  0  0  0
   21.7938   70.9361   -2.2676 O   0  0  0  0  0  0  0  0  0  0  0  0
   23.0394   71.9081   -2.6102 P   0  0  2  0  0  0  0  0  0  0  0  0
   24.2021   70.8751   -3.0589 O   0  0  0  0  0  0  0  0  0  0  0  0
   23.4286   72.8285   -1.4897 O   0  0  0  0  0  0  0  0  0  0  0  0
   22.6114   72.6567   -3.9735 O   0  0  0  0  0  0  0  0  0  0  0  0
   22.9120   75.0058   -3.9507 O   0  0  0  0  0  0  0  0  0  0  0  0
   20.7477   74.4691   -7.4286 O   0  0  0  0  0  0  0  0  0  0  0  0
   20.0509   72.9899   -5.0076 O   0  0  0  0  0  0  0  0  0  0  0  0
   23.6005   75.0134   -7.5546 O   0  0  0  0  0  0  0  0  0  0  0  0
   21.6808   74.1175   -6.4070 C   0  0  2  0  0  0  0  0  0  0  0  0
   20.9682   74.0767   -5.0549 C   0  0  2  0  0  0  0  0  0  0  0  0
   22.7877   75.1741   -6.3936 C   0  0  1  0  0  0  0  0  0  0  0  0
   21.9728   73.9307   -3.9112 C   0  0  1  0  0  0  0  0  0  0  0  0
   23.6716   75.0393   -5.1569 C   0  0  1  0  0  0  0  0  0  0  0  0
   20.0348   73.8116   -7.4558 H   0  0  0  0  0  0  0  0  0  0  0  0
   19.4107   73.0760   -5.7308 H   0  0  0  0  0  0  0  0  0  0  0  0
   23.0500   75.0968   -8.3488 H   0  0  0  0  0  0  0  0  0  0  0  0
   25.5962   76.2079   -5.8140 O   0  0  0  0  0  0  0  0  0  0  0  0
   24.2998   77.1631   -4.1996 O   0  0  0  0  0  0  0  0  0  0  0  0
   24.5267   76.2518   -4.9814 C   0  0  0  0  0  0  0  0  0  0  0  0
  1  4  1  0
  1 24  1  0
  1  2  1  1
  1  3  2  0
 25 28  1  0
 25 24  1  0
 25 26  1  6
 25 27  2  0
  6 11  1  0
  6 12  1  0
 29 36  1  0
 29 37  1  0
  9  7  1  6
  7 13  1  0
 10  8  1  6
  8 14  1  0
  4  5  1  0
 36 28  1  6
 33 30  1  6
 30 38  1  0
 34 31  1  6
 31 39  1  0
 35 32  1  6
 32 40  1  0
 41 43  1  0
 15 19  2  0
 42 43  2  0
 16 22  2  0
 12 17  1  6
 17 19  1  0
 17 20  1  0
 18 19  1  0
 18 22  1  0
 18 23  1  0
  9 10  1  0
  9 11  1  0
 10 12  1  0
 11  5  1  6
 33 34  1  0
 33 35  1  0
 34 36  1  0
 35 37  1  0
 37 43  1  1
 20 21  2  0
 21 22  1  0
M  CHG  3   2  -1  26  -1  41  -1
M  END
>  <COMPND>  (268) 
    udp_gluA.pdb 

>  <AUTHOR>  (268) 
    GENERATED BY OPEN BABEL 3.1.1

>  <MASTER>  (268) 
        0    0    0    0    0    0    0    0   56    0   56    0

>  <minimizedAffinity>  (268) 
-7.98595

>  <CNNscore>  (268) 
0.8472353220

>  <CNNaffinity>  (268) 
4.6894755363

>  <CNN_VS>  (268) 
3.9730892181

>  <CNNaffinity_variance>  (268) 
0.4466319680

$$$$
269
     RDKit          3D

 43 45  0  0  0  0  0  0  0  0999 V2000
   22.1263   72.0253   -2.5351 P   0  0  2  0  0  0  0  0  0  0  0  0
   23.0387   73.2360   -3.1014 O   0  0  0  0  0  0  0  0  0  0  0  0
   22.6807   70.6508   -2.7700 O   0  0  0  0  0  0  0  0  0  0  0  0
   20.6649   72.3111   -3.1681 O   0  0  0  0  0  0  0  0  0  0  0  0
   19.9426   71.2252   -3.7190 C   0  0  0  0  0  0  0  0  0  0  0  0
   18.1075   72.0629   -5.0261 O   0  0  0  0  0  0  0  0  0  0  0  0
   16.3165   70.8251   -2.9641 O   0  0  0  0  0  0  0  0  0  0  0  0
   16.2269   69.0106   -4.9978 O   0  0  0  0  0  0  0  0  0  0  0  0
   17.5639   70.3559   -3.4764 C   0  0  1  0  0  0  0  0  0  0  0  0
   17.3837   69.8118   -4.8777 C   0  0  2  0  0  0  0  0  0  0  0  0
   18.4577   71.5650   -3.7166 C   0  0  1  0  0  0  0  0  0  0  0  0
   17.3014   71.0850   -5.7023 C   0  0  2  0  0  0  0  0  0  0  0  0
   15.7284   70.0703   -2.8028 H   0  0  0  0  0  0  0  0  0  0  0  0
   16.3285   68.2126   -4.4548 H   0  0  0  0  0  0  0  0  0  0  0  0
   15.7191   70.3188   -7.9127 O   0  0  0  0  0  0  0  0  0  0  0  0
   19.3323   70.4351  -10.7719 O   0  0  0  0  0  0  0  0  0  0  0  0
   17.8029   70.9078   -7.0357 N   0  0  0  0  0  0  0  0  0  0  0  0
   17.5203   70.3765   -9.3344 N   0  0  0  0  0  0  0  0  0  0  0  0
   16.9240   70.5209   -8.0748 C   0  0  0  0  0  0  0  0  0  0  0  0
   19.1502   71.1180   -7.3036 C   0  0  0  0  0  0  0  0  0  0  0  0
   19.7040   70.9765   -8.5094 C   0  0  0  0  0  0  0  0  0  0  0  0
   18.8550   70.5737   -9.6498 C   0  0  0  0  0  0  0  0  0  0  0  0
   16.9287   70.1058  -10.0734 H   0  0  0  0  0  0  0  0  0  0  0  0
   21.9308   72.4156   -0.9787 O   0  0  0  0  0  0  0  0  0  0  0  0
   21.9997   71.5107    0.3592 P   0  0  2  0  0  0  0  0  0  0  0  0
   23.5522   71.0559    0.4185 O   0  0  0  0  0  0  0  0  0  0  0  0
   21.0206   70.3729    0.3842 O   0  0  0  0  0  0  0  0  0  0  0  0
   21.8366   72.5611    1.5726 O   0  0  0  0  0  0  0  0  0  0  0  0
   22.8584   74.6082    2.1846 O   0  0  0  0  0  0  0  0  0  0  0  0
   22.5636   72.6921    5.8328 O   0  0  0  0  0  0  0  0  0  0  0  0
   23.3903   71.2193    3.4492 O   0  0  0  0  0  0  0  0  0  0  0  0
   20.7318   74.8484    5.1648 O   0  0  0  0  0  0  0  0  0  0  0  0
   22.1692   73.0314    4.5034 C   0  0  2  0  0  0  0  0  0  0  0  0
   23.2751   72.6355    3.5248 C   0  0  2  0  0  0  0  0  0  0  0  0
   21.9288   74.5419    4.4523 C   0  0  1  0  0  0  0  0  0  0  0  0
   22.9920   73.1875    2.1269 C   0  0  1  0  0  0  0  0  0  0  0  0
   21.7809   75.0342    3.0156 C   0  0  1  0  0  0  0  0  0  0  0  0
   22.7219   71.7366    5.8894 H   0  0  0  0  0  0  0  0  0  0  0  0
   23.5697   70.8623    4.3328 H   0  0  0  0  0  0  0  0  0  0  0  0
   20.8129   74.5401    6.0809 H   0  0  0  0  0  0  0  0  0  0  0  0
   23.1291   76.9079    2.5998 O   0  0  0  0  0  0  0  0  0  0  0  0
   20.9594   77.2965    3.1834 O   0  0  0  0  0  0  0  0  0  0  0  0
   21.8774   76.5238    2.9527 C   0  0  0  0  0  0  0  0  0  0  0  0
  1  4  1  0
  1 24  1  0
  1  2  1  6
  1  3  2  0
 25 28  1  0
 25 24  1  0
 25 26  1  1
 25 27  2  0
  6 11  1  0
  6 12  1  0
 29 36  1  0
 29 37  1  0
  9  7  1  6
  7 13  1  0
 10  8  1  1
  8 14  1  0
  4  5  1  0
 36 28  1  1
 33 30  1  1
 30 38  1  0
 34 31  1  6
 31 39  1  0
 35 32  1  1
 32 40  1  0
 41 43  1  0
 15 19  2  0
 42 43  2  0
 16 22  2  0
 12 17  1  6
 17 19  1  0
 17 20  1  0
 18 19  1  0
 18 22  1  0
 18 23  1  0
  9 10  1  0
  9 11  1  0
 10 12  1  0
 11  5  1  6
 33 34  1  0
 33 35  1  0
 34 36  1  0
 35 37  1  0
 37 43  1  1
 20 21  2  0
 21 22  1  0
M  CHG  3   2  -1  26  -1  41  -1
M  END
>  <COMPND>  (269) 
    udp_gluA.pdb 

>  <AUTHOR>  (269) 
    GENERATED BY OPEN BABEL 3.1.1

>  <MASTER>  (269) 
        0    0    0    0    0    0    0    0   56    0   56    0

>  <minimizedAffinity>  (269) 
-7.06778

>  <CNNscore>  (269) 
0.8397644758

>  <CNNaffinity>  (269) 
4.6319046021

>  <CNN_VS>  (269) 
3.8897089958

>  <CNNaffinity_variance>  (269) 
0.0945155472

$$$$
270
     RDKit          3D

 43 45  0  0  0  0  0  0  0  0999 V2000
   22.8499   72.1231   -3.9254 P   0  0  2  0  0  0  0  0  0  0  0  0
   23.4002   73.0208   -5.1543 O   0  0  0  0  0  0  0  0  0  0  0  0
   23.8667   71.2136   -3.3002 O   0  0  0  0  0  0  0  0  0  0  0  0
   21.5369   71.3976   -4.5317 O   0  0  0  0  0  0  0  0  0  0  0  0
   20.8477   70.4616   -3.7233 C   0  0  0  0  0  0  0  0  0  0  0  0
   18.9697   71.6277   -4.6674 O   0  0  0  0  0  0  0  0  0  0  0  0
   17.3453   70.4211   -2.4546 O   0  0  0  0  0  0  0  0  0  0  0  0
   16.7316   68.8282   -4.5810 O   0  0  0  0  0  0  0  0  0  0  0  0
   18.4352   69.8588   -3.1855 C   0  0  1  0  0  0  0  0  0  0  0  0
   17.9879   69.4732   -4.5796 C   0  0  2  0  0  0  0  0  0  0  0  0
   19.4352   70.9716   -3.4682 C   0  0  1  0  0  0  0  0  0  0  0  0
   17.9552   70.8189   -5.2839 C   0  0  2  0  0  0  0  0  0  0  0  0
   16.6931   69.7288   -2.2623 H   0  0  0  0  0  0  0  0  0  0  0  0
   16.8049   67.9764   -4.1215 H   0  0  0  0  0  0  0  0  0  0  0  0
   16.0044   70.3157   -7.2632 O   0  0  0  0  0  0  0  0  0  0  0  0
   19.1402   70.4196  -10.6396 O   0  0  0  0  0  0  0  0  0  0  0  0
   18.2343   70.7095   -6.6878 N   0  0  0  0  0  0  0  0  0  0  0  0
   17.5682   70.3669   -8.9428 N   0  0  0  0  0  0  0  0  0  0  0  0
   17.1821   70.4548   -7.5989 C   0  0  0  0  0  0  0  0  0  0  0  0
   19.5368   70.8558   -7.1495 C   0  0  0  0  0  0  0  0  0  0  0  0
   19.8894   70.7695   -8.4336 C   0  0  0  0  0  0  0  0  0  0  0  0
   18.8502   70.5045   -9.4501 C   0  0  0  0  0  0  0  0  0  0  0  0
   16.8533   70.1881   -9.5957 H   0  0  0  0  0  0  0  0  0  0  0  0
   22.2253   73.2256   -2.9219 O   0  0  0  0  0  0  0  0  0  0  0  0
   22.9324   74.2015   -1.8442 P   0  0  2  0  0  0  0  0  0  0  0  0
   22.1230   75.5925   -2.0181 O   0  0  0  0  0  0  0  0  0  0  0  0
   24.4193   74.3264   -2.0092 O   0  0  0  0  0  0  0  0  0  0  0  0
   22.4633   73.6342   -0.4087 O   0  0  0  0  0  0  0  0  0  0  0  0
   23.1862   71.4389    0.1085 O   0  0  0  0  0  0  0  0  0  0  0  0
   20.4139   72.1357    3.0912 O   0  0  0  0  0  0  0  0  0  0  0  0
   19.8709   72.9623    0.3423 O   0  0  0  0  0  0  0  0  0  0  0  0
   23.2570   72.2408    3.6882 O   0  0  0  0  0  0  0  0  0  0  0  0
   21.4237   72.4828    2.1437 C   0  0  2  0  0  0  0  0  0  0  0  0
   20.9499   72.1222    0.7355 C   0  0  2  0  0  0  0  0  0  0  0  0
   22.6912   71.7007    2.4955 C   0  0  1  0  0  0  0  0  0  0  0  0
   22.0867   72.2646   -0.2774 C   0  0  1  0  0  0  0  0  0  0  0  0
   23.7283   71.7897    1.3797 C   0  0  1  0  0  0  0  0  0  0  0  0
   19.5987   72.6208    2.8876 H   0  0  0  0  0  0  0  0  0  0  0  0
   19.1461   72.8772    0.9809 H   0  0  0  0  0  0  0  0  0  0  0  0
   22.6069   72.1902    4.4062 H   0  0  0  0  0  0  0  0  0  0  0  0
   24.6489   70.1308    2.7590 O   0  0  0  0  0  0  0  0  0  0  0  0
   25.7094   70.5479    0.7840 O   0  0  0  0  0  0  0  0  0  0  0  0
   24.8070   70.7747    1.5760 C   0  0  0  0  0  0  0  0  0  0  0  0
  1  4  1  0
  1 24  1  0
  1  2  1  6
  1  3  2  0
 25 28  1  0
 25 24  1  0
 25 26  1  6
 25 27  2  0
  6 11  1  0
  6 12  1  0
 29 36  1  0
 29 37  1  0
  9  7  1  1
  7 13  1  0
 10  8  1  1
  8 14  1  0
  4  5  1  0
 36 28  1  1
 33 30  1  1
 30 38  1  0
 34 31  1  6
 31 39  1  0
 35 32  1  1
 32 40  1  0
 41 43  1  0
 15 19  2  0
 42 43  2  0
 16 22  2  0
 12 17  1  6
 17 19  1  0
 17 20  1  0
 18 19  1  0
 18 22  1  0
 18 23  1  0
  9 10  1  0
  9 11  1  0
 10 12  1  0
 11  5  1  6
 33 34  1  0
 33 35  1  0
 34 36  1  0
 35 37  1  0
 37 43  1  1
 20 21  2  0
 21 22  1  0
M  CHG  3   2  -1  26  -1  41  -1
M  END
>  <COMPND>  (270) 
    udp_gluA.pdb 

>  <AUTHOR>  (270) 
    GENERATED BY OPEN BABEL 3.1.1

>  <MASTER>  (270) 
        0    0    0    0    0    0    0    0   56    0   56    0

>  <minimizedAffinity>  (270) 
-8.12965

>  <CNNscore>  (270) 
0.8256330490

>  <CNNaffinity>  (270) 
4.6645002365

>  <CNN_VS>  (270) 
3.8511655331

>  <CNNaffinity_variance>  (270) 
0.0252972338

$$$$
271
     RDKit          3D

 43 45  0  0  0  0  0  0  0  0999 V2000
   22.2483   71.7452   -3.4297 P   0  0  2  0  0  0  0  0  0  0  0  0
   23.4419   72.1147   -4.4581 O   0  0  0  0  0  0  0  0  0  0  0  0
   22.6787   70.9981   -2.2015 O   0  0  0  0  0  0  0  0  0  0  0  0
   21.1527   70.9994   -4.3578 O   0  0  0  0  0  0  0  0  0  0  0  0
   20.2787   70.0639   -3.7532 C   0  0  0  0  0  0  0  0  0  0  0  0
   18.6088   71.4100   -4.8381 O   0  0  0  0  0  0  0  0  0  0  0  0
   16.6782   70.3044   -2.8276 O   0  0  0  0  0  0  0  0  0  0  0  0
   16.1422   68.8166   -5.0492 O   0  0  0  0  0  0  0  0  0  0  0  0
   17.7826   69.6641   -3.4670 C   0  0  1  0  0  0  0  0  0  0  0  0
   17.4429   69.3486   -4.9083 C   0  0  2  0  0  0  0  0  0  0  0  0
   18.8968   70.6905   -3.6196 C   0  0  1  0  0  0  0  0  0  0  0  0
   17.5943   70.7065   -5.5725 C   0  0  2  0  0  0  0  0  0  0  0  0
   15.9536   69.6681   -2.7192 H   0  0  0  0  0  0  0  0  0  0  0  0
   16.0972   67.9522   -4.6101 H   0  0  0  0  0  0  0  0  0  0  0  0
   15.8163   70.3416   -7.7363 O   0  0  0  0  0  0  0  0  0  0  0  0
   19.2599   70.3215  -10.7998 O   0  0  0  0  0  0  0  0  0  0  0  0
   17.9993   70.6027   -6.9458 N   0  0  0  0  0  0  0  0  0  0  0  0
   17.5332   70.3309   -9.2599 N   0  0  0  0  0  0  0  0  0  0  0  0
   17.0263   70.4202   -7.9568 C   0  0  0  0  0  0  0  0  0  0  0  0
   19.3457   70.6833   -7.2799 C   0  0  0  0  0  0  0  0  0  0  0  0
   19.8137   70.5966   -8.5266 C   0  0  0  0  0  0  0  0  0  0  0  0
   18.8631   70.4047   -9.6414 C   0  0  0  0  0  0  0  0  0  0  0  0
   16.8750   70.2017   -9.9806 H   0  0  0  0  0  0  0  0  0  0  0  0
   21.5624   73.1798   -3.1393 O   0  0  0  0  0  0  0  0  0  0  0  0
   22.2083   74.5964   -2.7037 P   0  0  2  0  0  0  0  0  0  0  0  0
   23.6702   74.1806   -2.1467 O   0  0  0  0  0  0  0  0  0  0  0  0
   21.3755   75.3796   -1.7306 O   0  0  0  0  0  0  0  0  0  0  0  0
   22.5040   75.3566   -4.0955 O   0  0  0  0  0  0  0  0  0  0  0  0
   23.9287   75.1180   -5.9723 O   0  0  0  0  0  0  0  0  0  0  0  0
   24.3444   79.1362   -5.1067 O   0  0  0  0  0  0  0  0  0  0  0  0
   24.2947   77.1562   -2.9593 O   0  0  0  0  0  0  0  0  0  0  0  0
   22.7231   78.2906   -7.3666 O   0  0  0  0  0  0  0  0  0  0  0  0
   23.6637   77.8839   -5.1860 C   0  0  2  0  0  0  0  0  0  0  0  0
   24.4039   76.8448   -4.3434 C   0  0  2  0  0  0  0  0  0  0  0  0
   23.6332   77.4544   -6.6545 C   0  0  1  0  0  0  0  0  0  0  0  0
   23.8412   75.4434   -4.5846 C   0  0  1  0  0  0  0  0  0  0  0  0
   23.1807   76.0045   -6.8017 C   0  0  1  0  0  0  0  0  0  0  0  0
   24.3762   79.4292   -4.1823 H   0  0  0  0  0  0  0  0  0  0  0  0
   24.6497   78.0443   -2.7991 H   0  0  0  0  0  0  0  0  0  0  0  0
   22.9997   79.2163   -7.2808 H   0  0  0  0  0  0  0  0  0  0  0  0
   23.5973   74.1474   -8.1724 O   0  0  0  0  0  0  0  0  0  0  0  0
   23.5649   76.1945   -9.1760 O   0  0  0  0  0  0  0  0  0  0  0  0
   23.4654   75.4970   -8.1777 C   0  0  0  0  0  0  0  0  0  0  0  0
  1  4  1  0
  1 24  1  0
  1  2  1  6
  1  3  2  0
 25 28  1  0
 25 24  1  0
 25 26  1  1
 25 27  2  0
  6 11  1  0
  6 12  1  0
 29 36  1  0
 29 37  1  0
  9  7  1  6
  7 13  1  0
 10  8  1  1
  8 14  1  0
  4  5  1  0
 36 28  1  6
 33 30  1  6
 30 38  1  0
 34 31  1  1
 31 39  1  0
 35 32  1  6
 32 40  1  0
 41 43  1  0
 15 19  2  0
 42 43  2  0
 16 22  2  0
 12 17  1  6
 17 19  1  0
 17 20  1  0
 18 19  1  0
 18 22  1  0
 18 23  1  0
  9 10  1  0
  9 11  1  0
 10 12  1  0
 11  5  1  6
 33 34  1  0
 33 35  1  0
 34 36  1  0
 35 37  1  0
 37 43  1  6
 20 21  2  0
 21 22  1  0
M  CHG  3   2  -1  26  -1  41  -1
M  END
>  <COMPND>  (271) 
    udp_gluA.pdb 

>  <AUTHOR>  (271) 
    GENERATED BY OPEN BABEL 3.1.1

>  <MASTER>  (271) 
        0    0    0    0    0    0    0    0   56    0   56    0

>  <minimizedAffinity>  (271) 
-6.53872

>  <CNNscore>  (271) 
0.8178387284

>  <CNNaffinity>  (271) 
4.6070814133

>  <CNN_VS>  (271) 
3.7678496838

>  <CNNaffinity_variance>  (271) 
0.1407131255

$$$$
272
     RDKit          3D

 43 45  0  0  0  0  0  0  0  0999 V2000
   22.5397   71.7249   -3.1623 P   0  0  2  0  0  0  0  0  0  0  0  0
   23.8187   72.1226   -4.0704 O   0  0  0  0  0  0  0  0  0  0  0  0
   22.8599   70.9303   -1.9303 O   0  0  0  0  0  0  0  0  0  0  0  0
   21.5245   71.0218   -4.2077 O   0  0  0  0  0  0  0  0  0  0  0  0
   20.6057   70.0629   -3.7169 C   0  0  0  0  0  0  0  0  0  0  0  0
   18.9106   71.4544   -4.7010 O   0  0  0  0  0  0  0  0  0  0  0  0
   17.0852   70.4284   -2.5546 O   0  0  0  0  0  0  0  0  0  0  0  0
   16.3533   68.9415   -4.7201 O   0  0  0  0  0  0  0  0  0  0  0  0
   18.1229   69.7472   -3.2601 C   0  0  1  0  0  0  0  0  0  0  0  0
   17.6769   69.4318   -4.6721 C   0  0  2  0  0  0  0  0  0  0  0  0
   19.2567   70.7355   -3.4973 C   0  0  1  0  0  0  0  0  0  0  0  0
   17.8269   70.7787   -5.3586 C   0  0  2  0  0  0  0  0  0  0  0  0
   16.3495   69.8171   -2.3914 H   0  0  0  0  0  0  0  0  0  0  0  0
   16.3102   68.0826   -4.2703 H   0  0  0  0  0  0  0  0  0  0  0  0
   15.8927   70.5630   -7.4052 O   0  0  0  0  0  0  0  0  0  0  0  0
   19.1237   70.2928  -10.6811 O   0  0  0  0  0  0  0  0  0  0  0  0
   18.1349   70.6509   -6.7548 N   0  0  0  0  0  0  0  0  0  0  0  0
   17.5037   70.4276   -9.0347 N   0  0  0  0  0  0  0  0  0  0  0  0
   17.0887   70.5491   -7.7020 C   0  0  0  0  0  0  0  0  0  0  0  0
   19.4597   70.6291   -7.1736 C   0  0  0  0  0  0  0  0  0  0  0  0
   19.8397   70.5129   -8.4476 C   0  0  0  0  0  0  0  0  0  0  0  0
   18.8085   70.4005   -9.4999 C   0  0  0  0  0  0  0  0  0  0  0  0
   16.7932   70.3532   -9.7122 H   0  0  0  0  0  0  0  0  0  0  0  0
   21.8377   73.1532   -2.8788 O   0  0  0  0  0  0  0  0  0  0  0  0
   22.4737   74.6225   -2.6544 P   0  0  2  0  0  0  0  0  0  0  0  0
   23.8299   74.3158   -1.8255 O   0  0  0  0  0  0  0  0  0  0  0  0
   21.5485   75.5985   -1.9871 O   0  0  0  0  0  0  0  0  0  0  0  0
   22.9836   75.0754   -4.1163 O   0  0  0  0  0  0  0  0  0  0  0  0
   22.9774   76.7496   -5.7915 O   0  0  0  0  0  0  0  0  0  0  0  0
   20.8102   73.7365   -7.6061 O   0  0  0  0  0  0  0  0  0  0  0  0
   20.3753   74.3844   -4.7908 O   0  0  0  0  0  0  0  0  0  0  0  0
   23.5640   74.2316   -8.3950 O   0  0  0  0  0  0  0  0  0  0  0  0
   21.8076   74.2883   -6.7467 C   0  0  2  0  0  0  0  0  0  0  0  0
   21.1422   75.1737   -5.6927 C   0  0  2  0  0  0  0  0  0  0  0  0
   22.7680   75.1138   -7.6058 C   0  0  1  0  0  0  0  0  0  0  0  0
   22.1870   75.9612   -4.9009 C   0  0  1  0  0  0  0  0  0  0  0  0
   23.6942   75.9666   -6.7435 C   0  0  1  0  0  0  0  0  0  0  0  0
   20.1881   73.2076   -7.0820 H   0  0  0  0  0  0  0  0  0  0  0  0
   19.7104   73.8818   -5.2866 H   0  0  0  0  0  0  0  0  0  0  0  0
   22.9865   73.6830   -8.9485 H   0  0  0  0  0  0  0  0  0  0  0  0
   24.6462   78.1082   -6.8360 O   0  0  0  0  0  0  0  0  0  0  0  0
   24.6900   76.8670   -8.7482 O   0  0  0  0  0  0  0  0  0  0  0  0
   24.3890   76.9982   -7.5713 C   0  0  0  0  0  0  0  0  0  0  0  0
  1  4  1  0
  1 24  1  0
  1  2  1  6
  1  3  2  0
 25 28  1  0
 25 24  1  0
 25 26  1  1
 25 27  2  0
  6 11  1  0
  6 12  1  0
 29 36  1  0
 29 37  1  0
  9  7  1  1
  7 13  1  0
 10  8  1  1
  8 14  1  0
  4  5  1  0
 36 28  1  6
 33 30  1  6
 30 38  1  0
 34 31  1  1
 31 39  1  0
 35 32  1  1
 32 40  1  0
 41 43  1  0
 15 19  2  0
 42 43  2  0
 16 22  2  0
 12 17  1  6
 17 19  1  0
 17 20  1  0
 18 19  1  0
 18 22  1  0
 18 23  1  0
  9 10  1  0
  9 11  1  0
 10 12  1  0
 11  5  1  6
 33 34  1  0
 33 35  1  0
 34 36  1  0
 35 37  1  0
 37 43  1  6
 20 21  2  0
 21 22  1  0
M  CHG  3   2  -1  26  -1  41  -1
M  END
>  <COMPND>  (272) 
    udp_gluA.pdb 

>  <AUTHOR>  (272) 
    GENERATED BY OPEN BABEL 3.1.1

>  <MASTER>  (272) 
        0    0    0    0    0    0    0    0   56    0   56    0

>  <minimizedAffinity>  (272) 
-6.71966

>  <CNNscore>  (272) 
0.7795463204

>  <CNNaffinity>  (272) 
4.5733475685

>  <CNN_VS>  (272) 
3.5651361942

>  <CNNaffinity_variance>  (272) 
0.2292424738

$$$$
273
     RDKit          3D

 43 45  0  0  0  0  0  0  0  0999 V2000
   22.3052   72.8285   -6.5354 P   0  0  2  0  0  0  0  0  0  0  0  0
   23.0778   73.5364   -7.7686 O   0  0  0  0  0  0  0  0  0  0  0  0
   23.1905   72.3610   -5.4176 O   0  0  0  0  0  0  0  0  0  0  0  0
   21.4063   71.6854   -7.2448 O   0  0  0  0  0  0  0  0  0  0  0  0
   20.0687   71.9948   -7.5906 C   0  0  0  0  0  0  0  0  0  0  0  0
   18.8491   69.9651   -7.1778 O   0  0  0  0  0  0  0  0  0  0  0  0
   18.1201   70.0312  -10.0857 O   0  0  0  0  0  0  0  0  0  0  0  0
   15.8666   70.9878   -8.8846 O   0  0  0  0  0  0  0  0  0  0  0  0
   18.2781   71.1142   -9.1689 C   0  0  1  0  0  0  0  0  0  0  0  0
   17.0991   71.1747   -8.2209 C   0  0  2  0  0  0  0  0  0  0  0  0
   19.4255   70.7703   -8.2289 C   0  0  1  0  0  0  0  0  0  0  0  0
   17.4170   70.0502   -7.2501 C   0  0  2  0  0  0  0  0  0  0  0  0
   17.3924   70.2279  -10.6968 H   0  0  0  0  0  0  0  0  0  0  0  0
   15.7100   71.7295   -9.4906 H   0  0  0  0  0  0  0  0  0  0  0  0
   16.4454   68.0446   -5.5152 O   0  0  0  0  0  0  0  0  0  0  0  0
   15.4455   71.1167   -2.2279 O   0  0  0  0  0  0  0  0  0  0  0  0
   16.8970   70.2981   -5.9352 N   0  0  0  0  0  0  0  0  0  0  0  0
   15.9474   69.5767   -3.8800 N   0  0  0  0  0  0  0  0  0  0  0  0
   16.4339   69.2199   -5.1445 C   0  0  0  0  0  0  0  0  0  0  0  0
   16.8510   71.5959   -5.4408 C   0  0  0  0  0  0  0  0  0  0  0  0
   16.3846   71.9204   -4.2334 C   0  0  0  0  0  0  0  0  0  0  0  0
   15.8808   70.8528   -3.3446 C   0  0  0  0  0  0  0  0  0  0  0  0
   15.6175   68.8433   -3.3120 H   0  0  0  0  0  0  0  0  0  0  0  0
   21.2104   73.9384   -6.1080 O   0  0  0  0  0  0  0  0  0  0  0  0
   21.2687   75.1157   -5.0015 P   0  0  2  0  0  0  0  0  0  0  0  0
   19.8084   75.8045   -5.1172 O   0  0  0  0  0  0  0  0  0  0  0  0
   22.4168   76.0674   -5.1748 O   0  0  0  0  0  0  0  0  0  0  0  0
   21.2449   74.3464   -3.5838 O   0  0  0  0  0  0  0  0  0  0  0  0
   19.6791   72.5776   -3.4141 O   0  0  0  0  0  0  0  0  0  0  0  0
   20.8805   73.0164    0.5142 O   0  0  0  0  0  0  0  0  0  0  0  0
   20.3670   75.3631   -1.1483 O   0  0  0  0  0  0  0  0  0  0  0  0
   21.8639   70.7877   -1.0721 O   0  0  0  0  0  0  0  0  0  0  0  0
   21.0309   73.0423   -0.9051 C   0  0  2  0  0  0  0  0  0  0  0  0
   20.0300   74.0283   -1.5080 C   0  0  2  0  0  0  0  0  0  0  0  0
   20.7712   71.6300   -1.4340 C   0  0  1  0  0  0  0  0  0  0  0  0
   20.0016   73.9155   -3.0329 C   0  0  1  0  0  0  0  0  0  0  0  0
   20.6310   71.6211   -2.9535 C   0  0  1  0  0  0  0  0  0  0  0  0
   21.0409   73.9036    0.8728 H   0  0  0  0  0  0  0  0  0  0  0  0
   20.3871   75.4418   -0.1819 H   0  0  0  0  0  0  0  0  0  0  0  0
   21.9640   70.7846   -0.1073 H   0  0  0  0  0  0  0  0  0  0  0  0
   18.9741   69.9824   -2.6877 O   0  0  0  0  0  0  0  0  0  0  0  0
   20.5001   69.6584   -4.3506 O   0  0  0  0  0  0  0  0  0  0  0  0
   20.0590   70.3243   -3.4259 C   0  0  0  0  0  0  0  0  0  0  0  0
  1  4  1  0
  1 24  1  0
  1  2  1  6
  1  3  2  0
 25 28  1  0
 25 24  1  0
 25 26  1  1
 25 27  2  0
  6 11  1  0
  6 12  1  0
 29 36  1  0
 29 37  1  0
  9  7  1  6
  7 13  1  0
 10  8  1  6
  8 14  1  0
  4  5  1  0
 36 28  1  6
 33 30  1  1
 30 38  1  0
 34 31  1  6
 31 39  1  0
 35 32  1  6
 32 40  1  0
 41 43  1  0
 15 19  2  0
 42 43  2  0
 16 22  2  0
 12 17  1  1
 17 19  1  0
 17 20  1  0
 18 19  1  0
 18 22  1  0
 18 23  1  0
  9 10  1  0
  9 11  1  0
 10 12  1  0
 11  5  1  1
 33 34  1  0
 33 35  1  0
 34 36  1  0
 35 37  1  0
 37 43  1  1
 20 21  2  0
 21 22  1  0
M  CHG  3   2  -1  26  -1  41  -1
M  END
>  <COMPND>  (273) 
    udp_gluA.pdb 

>  <AUTHOR>  (273) 
    GENERATED BY OPEN BABEL 3.1.1

>  <MASTER>  (273) 
        0    0    0    0    0    0    0    0   56    0   56    0

>  <minimizedAffinity>  (273) 
-6.98632

>  <CNNscore>  (273) 
0.7547655106

>  <CNNaffinity>  (273) 
4.5394868851

>  <CNN_VS>  (273) 
3.4262480736

>  <CNNaffinity_variance>  (273) 
0.3903162181

$$$$
274
     RDKit          3D

 43 45  0  0  0  0  0  0  0  0999 V2000
   23.0492   73.5085   -4.2707 P   0  0  2  0  0  0  0  0  0  0  0  0
   24.0242   72.2169   -4.2569 O   0  0  0  0  0  0  0  0  0  0  0  0
   23.6425   74.7436   -4.8825 O   0  0  0  0  0  0  0  0  0  0  0  0
   22.5676   73.6482   -2.7324 O   0  0  0  0  0  0  0  0  0  0  0  0
   21.6216   74.6506   -2.4085 C   0  0  0  0  0  0  0  0  0  0  0  0
   20.8764   72.7323   -1.1665 O   0  0  0  0  0  0  0  0  0  0  0  0
   18.6005   74.4498   -0.2381 O   0  0  0  0  0  0  0  0  0  0  0  0
   20.2931   74.4971    1.8994 O   0  0  0  0  0  0  0  0  0  0  0  0
   19.9595   74.8086   -0.4889 C   0  0  1  0  0  0  0  0  0  0  0  0
   20.8516   74.2896    0.6189 C   0  0  2  0  0  0  0  0  0  0  0  0
   20.4432   74.0067   -1.6894 C   0  0  1  0  0  0  0  0  0  0  0  0
   20.9706   72.8172    0.2643 C   0  0  2  0  0  0  0  0  0  0  0  0
   18.2693   74.9495    0.5250 H   0  0  0  0  0  0  0  0  0  0  0  0
   20.2387   75.4495    2.0780 H   0  0  0  0  0  0  0  0  0  0  0  0
   21.3627   70.0872    0.8725 O   0  0  0  0  0  0  0  0  0  0  0  0
   25.8130   70.7596    1.8657 O   0  0  0  0  0  0  0  0  0  0  0  0
   22.2215   72.2518    0.6843 N   0  0  0  0  0  0  0  0  0  0  0  0
   23.5786   70.4249    1.3676 N   0  0  0  0  0  0  0  0  0  0  0  0
   22.3117   70.8680    0.9655 C   0  0  0  0  0  0  0  0  0  0  0  0
   23.3417   73.0641    0.8122 C   0  0  0  0  0  0  0  0  0  0  0  0
   24.5426   72.6272    1.1964 C   0  0  0  0  0  0  0  0  0  0  0  0
   24.7218   71.1944    1.5100 C   0  0  0  0  0  0  0  0  0  0  0  0
   23.6655   69.4655    1.5709 H   0  0  0  0  0  0  0  0  0  0  0  0
   21.7260   72.9564   -5.0170 O   0  0  0  0  0  0  0  0  0  0  0  0
   20.9768   73.4582   -6.3589 P   0  0  2  0  0  0  0  0  0  0  0  0
   21.9821   72.9935   -7.5395 O   0  0  0  0  0  0  0  0  0  0  0  0
   20.6465   74.9227   -6.3687 O   0  0  0  0  0  0  0  0  0  0  0  0
   19.7001   72.4828   -6.5039 O   0  0  0  0  0  0  0  0  0  0  0  0
   19.2024   70.3097   -5.7046 O   0  0  0  0  0  0  0  0  0  0  0  0
   17.5290   70.2202   -9.4809 O   0  0  0  0  0  0  0  0  0  0  0  0
   20.1432   71.4505   -9.0483 O   0  0  0  0  0  0  0  0  0  0  0  0
   15.8295   70.4895   -7.1377 O   0  0  0  0  0  0  0  0  0  0  0  0
   17.9405   70.8183   -8.2517 C   0  0  2  0  0  0  0  0  0  0  0  0
   19.4523   70.6611   -8.0869 C   0  0  2  0  0  0  0  0  0  0  0  0
   17.2044   70.1107   -7.1117 C   0  0  1  0  0  0  0  0  0  0  0  0
   19.8966   71.0817   -6.6853 C   0  0  1  0  0  0  0  0  0  0  0  0
   17.7884   70.4871   -5.7531 C   0  0  1  0  0  0  0  0  0  0  0  0
   17.9840   70.6538  -10.2199 H   0  0  0  0  0  0  0  0  0  0  0  0
   19.8659   71.1891   -9.9401 H   0  0  0  0  0  0  0  0  0  0  0  0
   15.4459   70.2556   -7.9974 H   0  0  0  0  0  0  0  0  0  0  0  0
   16.6203   68.5200   -5.2361 O   0  0  0  0  0  0  0  0  0  0  0  0
   17.4784   69.7094   -3.4903 O   0  0  0  0  0  0  0  0  0  0  0  0
   17.2973   69.5600   -4.6894 C   0  0  0  0  0  0  0  0  0  0  0  0
  1  4  1  0
  1 24  1  0
  1  2  1  1
  1  3  2  0
 25 28  1  0
 25 24  1  0
 25 26  1  6
 25 27  2  0
  6 11  1  0
  6 12  1  0
 29 36  1  0
 29 37  1  0
  9  7  1  1
  7 13  1  0
 10  8  1  1
  8 14  1  0
  4  5  1  0
 36 28  1  1
 33 30  1  6
 30 38  1  0
 34 31  1  6
 31 39  1  0
 35 32  1  1
 32 40  1  0
 41 43  1  0
 15 19  2  0
 42 43  2  0
 16 22  2  0
 12 17  1  6
 17 19  1  0
 17 20  1  0
 18 19  1  0
 18 22  1  0
 18 23  1  0
  9 10  1  0
  9 11  1  0
 10 12  1  0
 11  5  1  1
 33 34  1  0
 33 35  1  0
 34 36  1  0
 35 37  1  0
 37 43  1  1
 20 21  2  0
 21 22  1  0
M  CHG  3   2  -1  26  -1  41  -1
M  END
>  <COMPND>  (274) 
    udp_gluA.pdb 

>  <AUTHOR>  (274) 
    GENERATED BY OPEN BABEL 3.1.1

>  <MASTER>  (274) 
        0    0    0    0    0    0    0    0   56    0   56    0

>  <minimizedAffinity>  (274) 
-7.79855

>  <CNNscore>  (274) 
0.6505160332

>  <CNNaffinity>  (274) 
4.5871725082

>  <CNN_VS>  (274) 
2.9840292931

>  <CNNaffinity_variance>  (274) 
0.0759792626

$$$$
275
     RDKit          3D

 43 45  0  0  0  0  0  0  0  0999 V2000
   23.5078   73.5589   -4.0477 P   0  0  2  0  0  0  0  0  0  0  0  0
   22.6224   74.8743   -4.3717 O   0  0  0  0  0  0  0  0  0  0  0  0
   24.9930   73.7704   -4.0829 O   0  0  0  0  0  0  0  0  0  0  0  0
   22.9327   72.4426   -5.0680 O   0  0  0  0  0  0  0  0  0  0  0  0
   21.5362   72.3893   -5.2949 C   0  0  0  0  0  0  0  0  0  0  0  0
   20.5133   70.4152   -6.2083 O   0  0  0  0  0  0  0  0  0  0  0  0
   20.6781   71.7869   -8.8697 O   0  0  0  0  0  0  0  0  0  0  0  0
   18.0684   72.1556   -8.1699 O   0  0  0  0  0  0  0  0  0  0  0  0
   20.4199   72.3437   -7.5805 C   0  0  1  0  0  0  0  0  0  0  0  0
   19.0148   72.0004   -7.1332 C   0  0  2  0  0  0  0  0  0  0  0  0
   21.2701   71.5922   -6.5653 C   0  0  1  0  0  0  0  0  0  0  0  0
   19.1684   70.5544   -6.6932 C   0  0  2  0  0  0  0  0  0  0  0  0
   20.1460   72.2511   -9.5352 H   0  0  0  0  0  0  0  0  0  0  0  0
   18.0071   73.0929   -8.4141 H   0  0  0  0  0  0  0  0  0  0  0  0
   16.4860   69.7748   -7.1096 O   0  0  0  0  0  0  0  0  0  0  0  0
   15.7545   69.2205   -2.5928 O   0  0  0  0  0  0  0  0  0  0  0  0
   18.2547   70.2010   -5.6439 N   0  0  0  0  0  0  0  0  0  0  0  0
   16.1239   69.5005   -4.8595 N   0  0  0  0  0  0  0  0  0  0  0  0
   16.9282   69.8237   -5.9603 C   0  0  0  0  0  0  0  0  0  0  0  0
   18.6752   70.2283   -4.3197 C   0  0  0  0  0  0  0  0  0  0  0  0
   17.8971   69.9174   -3.2812 C   0  0  0  0  0  0  0  0  0  0  0  0
   16.4968   69.5134   -3.5252 C   0  0  0  0  0  0  0  0  0  0  0  0
   15.1956   69.2367   -5.0546 H   0  0  0  0  0  0  0  0  0  0  0  0
   22.9301   73.0759   -2.6174 O   0  0  0  0  0  0  0  0  0  0  0  0
   22.9489   71.6276   -1.8994 P   0  0  2  0  0  0  0  0  0  0  0  0
   24.2896   70.9392   -2.4902 O   0  0  0  0  0  0  0  0  0  0  0  0
   21.6985   70.8223   -2.1044 O   0  0  0  0  0  0  0  0  0  0  0  0
   23.2982   71.9405   -0.3558 O   0  0  0  0  0  0  0  0  0  0  0  0
   24.7260   70.8856    1.2119 O   0  0  0  0  0  0  0  0  0  0  0  0
   21.5581   72.0361    3.6012 O   0  0  0  0  0  0  0  0  0  0  0  0
   21.0790   70.8949    0.9550 O   0  0  0  0  0  0  0  0  0  0  0  0
   24.0587   73.5165    3.6807 O   0  0  0  0  0  0  0  0  0  0  0  0
   22.4692   72.1379    2.5069 C   0  0  2  0  0  0  0  0  0  0  0  0
   22.3390   70.9022    1.6160 C   0  0  2  0  0  0  0  0  0  0  0  0
   23.8855   72.2353    3.0782 C   0  0  1  0  0  0  0  0  0  0  0  0
   23.4517   70.8641    0.5675 C   0  0  1  0  0  0  0  0  0  0  0  0
   24.9391   72.0626    1.9880 C   0  0  1  0  0  0  0  0  0  0  0  0
   20.6512   71.9729    3.2623 H   0  0  0  0  0  0  0  0  0  0  0  0
   20.3683   70.9193    1.6143 H   0  0  0  0  0  0  0  0  0  0  0  0
   23.3940   73.6392    4.3764 H   0  0  0  0  0  0  0  0  0  0  0  0
   26.7447   72.9557    3.1897 O   0  0  0  0  0  0  0  0  0  0  0  0
   26.9019   70.7744    2.5443 O   0  0  0  0  0  0  0  0  0  0  0  0
   26.2883   71.8302    2.5862 C   0  0  0  0  0  0  0  0  0  0  0  0
  1  4  1  0
  1 24  1  0
  1  2  1  6
  1  3  2  0
 25 28  1  0
 25 24  1  0
 25 26  1  6
 25 27  2  0
  6 11  1  0
  6 12  1  0
 29 36  1  0
 29 37  1  0
  9  7  1  6
  7 13  1  0
 10  8  1  6
  8 14  1  0
  4  5  1  0
 36 28  1  6
 33 30  1  1
 30 38  1  0
 34 31  1  6
 31 39  1  0
 35 32  1  6
 32 40  1  0
 41 43  1  0
 15 19  2  0
 42 43  2  0
 16 22  2  0
 12 17  1  1
 17 19  1  0
 17 20  1  0
 18 19  1  0
 18 22  1  0
 18 23  1  0
  9 10  1  0
  9 11  1  0
 10 12  1  0
 11  5  1  1
 33 34  1  0
 33 35  1  0
 34 36  1  0
 35 37  1  0
 37 43  1  1
 20 21  2  0
 21 22  1  0
M  CHG  3   2  -1  26  -1  41  -1
M  END
>  <COMPND>  (275) 
    udp_gluA.pdb 

>  <AUTHOR>  (275) 
    GENERATED BY OPEN BABEL 3.1.1

>  <MASTER>  (275) 
        0    0    0    0    0    0    0    0   56    0   56    0

>  <minimizedAffinity>  (275) 
-8.15216

>  <CNNscore>  (275) 
0.6457936168

>  <CNNaffinity>  (275) 
4.3605017662

>  <CNN_VS>  (275) 
2.8159842491

>  <CNNaffinity_variance>  (275) 
0.1549278647

$$$$
276
     RDKit          3D

 43 45  0  0  0  0  0  0  0  0999 V2000
   22.8892   73.6914   -4.4176 P   0  0  2  0  0  0  0  0  0  0  0  0
   23.9164   72.4414   -4.4520 O   0  0  0  0  0  0  0  0  0  0  0  0
   23.5155   75.0330   -4.6619 O   0  0  0  0  0  0  0  0  0  0  0  0
   22.1188   73.5225   -3.0049 O   0  0  0  0  0  0  0  0  0  0  0  0
   22.8849   73.2544   -1.8448 C   0  0  0  0  0  0  0  0  0  0  0  0
   23.6309   71.3748   -0.5455 O   0  0  0  0  0  0  0  0  0  0  0  0
   20.7419   70.5930   -0.3608 O   0  0  0  0  0  0  0  0  0  0  0  0
   21.2003   71.7568    2.0623 O   0  0  0  0  0  0  0  0  0  0  0  0
   21.3273   71.8952   -0.3619 C   0  0  1  0  0  0  0  0  0  0  0  0
   21.9929   72.1718    0.9695 C   0  0  2  0  0  0  0  0  0  0  0  0
   22.5154   71.8753   -1.3140 C   0  0  1  0  0  0  0  0  0  0  0  0
   23.2829   71.3786    0.8481 C   0  0  2  0  0  0  0  0  0  0  0  0
   19.9804   70.5810    0.2406 H   0  0  0  0  0  0  0  0  0  0  0  0
   20.3913   72.2918    2.0965 H   0  0  0  0  0  0  0  0  0  0  0  0
   25.0725   69.9207    2.4754 O   0  0  0  0  0  0  0  0  0  0  0  0
   27.3735   73.7304    3.6736 O   0  0  0  0  0  0  0  0  0  0  0  0
   24.3588   71.9644    1.5964 N   0  0  0  0  0  0  0  0  0  0  0  0
   26.2162   71.8197    3.0714 N   0  0  0  0  0  0  0  0  0  0  0  0
   25.2005   71.1430    2.3833 C   0  0  0  0  0  0  0  0  0  0  0  0
   24.5728   73.3364    1.5454 C   0  0  0  0  0  0  0  0  0  0  0  0
   25.5452   73.9670    2.2067 C   0  0  0  0  0  0  0  0  0  0  0  0
   26.4682   73.1819    3.0525 C   0  0  0  0  0  0  0  0  0  0  0  0
   26.8137   71.2691    3.6275 H   0  0  0  0  0  0  0  0  0  0  0  0
   21.7644   73.2667   -5.4980 O   0  0  0  0  0  0  0  0  0  0  0  0
   20.4626   74.0565   -6.0413 P   0  0  2  0  0  0  0  0  0  0  0  0
   21.0570   74.9696   -7.2385 O   0  0  0  0  0  0  0  0  0  0  0  0
   19.7239   74.8261   -4.9849 O   0  0  0  0  0  0  0  0  0  0  0  0
   19.5820   72.9296   -6.7875 O   0  0  0  0  0  0  0  0  0  0  0  0
   19.0884   70.7072   -6.1342 O   0  0  0  0  0  0  0  0  0  0  0  0
   19.1768   70.3732  -10.2511 O   0  0  0  0  0  0  0  0  0  0  0  0
   21.1816   71.9722   -8.8517 O   0  0  0  0  0  0  0  0  0  0  0  0
   16.6336   70.3921   -8.8429 O   0  0  0  0  0  0  0  0  0  0  0  0
   18.9529   71.0254   -9.0011 C   0  0  2  0  0  0  0  0  0  0  0  0
   20.2632   71.0907   -8.2160 C   0  0  2  0  0  0  0  0  0  0  0  0
   17.9083   70.2182   -8.2270 C   0  0  1  0  0  0  0  0  0  0  0  0
   20.0201   71.5721   -6.7849 C   0  0  1  0  0  0  0  0  0  0  0  0
   17.8147   70.6762   -6.7744 C   0  0  1  0  0  0  0  0  0  0  0  0
   19.8374   70.8684  -10.7606 H   0  0  0  0  0  0  0  0  0  0  0  0
   21.3403   71.6729   -9.7603 H   0  0  0  0  0  0  0  0  0  0  0  0
   16.6796   70.1044   -9.7681 H   0  0  0  0  0  0  0  0  0  0  0  0
   17.4878   69.6916   -4.6708 O   0  0  0  0  0  0  0  0  0  0  0  0
   16.1541   68.9721   -6.3745 O   0  0  0  0  0  0  0  0  0  0  0  0
   17.0512   69.6876   -5.9546 C   0  0  0  0  0  0  0  0  0  0  0  0
  1  4  1  0
  1 24  1  0
  1  2  1  1
  1  3  2  0
 25 28  1  0
 25 24  1  0
 25 26  1  6
 25 27  2  0
  6 11  1  0
  6 12  1  0
 29 36  1  0
 29 37  1  0
  9  7  1  1
  7 13  1  0
 10  8  1  1
  8 14  1  0
  4  5  1  0
 36 28  1  6
 33 30  1  6
 30 38  1  0
 34 31  1  6
 31 39  1  0
 35 32  1  6
 32 40  1  0
 41 43  1  0
 15 19  2  0
 42 43  2  0
 16 22  2  0
 12 17  1  1
 17 19  1  0
 17 20  1  0
 18 19  1  0
 18 22  1  0
 18 23  1  0
  9 10  1  0
  9 11  1  0
 10 12  1  0
 11  5  1  1
 33 34  1  0
 33 35  1  0
 34 36  1  0
 35 37  1  0
 37 43  1  1
 20 21  2  0
 21 22  1  0
M  CHG  3   2  -1  26  -1  41  -1
M  END
>  <COMPND>  (276) 
    udp_gluA.pdb 

>  <AUTHOR>  (276) 
    GENERATED BY OPEN BABEL 3.1.1

>  <MASTER>  (276) 
        0    0    0    0    0    0    0    0   56    0   56    0

>  <minimizedAffinity>  (276) 
-7.85698

>  <CNNscore>  (276) 
0.6209577322

>  <CNNaffinity>  (276) 
4.3741827011

>  <CNN_VS>  (276) 
2.7161824703

>  <CNNaffinity_variance>  (276) 
0.0438817441

$$$$
277
     RDKit          3D

 43 45  0  0  0  0  0  0  0  0999 V2000
   21.9327   72.5236   -5.8882 P   0  0  2  0  0  0  0  0  0  0  0  0
   21.3802   73.9827   -5.4584 O   0  0  0  0  0  0  0  0  0  0  0  0
   23.0795   72.5403   -6.8559 O   0  0  0  0  0  0  0  0  0  0  0  0
   20.6081   71.7365   -6.3820 O   0  0  0  0  0  0  0  0  0  0  0  0
   20.0648   72.0563   -7.6497 C   0  0  0  0  0  0  0  0  0  0  0  0
   18.9206   69.9966   -7.1741 O   0  0  0  0  0  0  0  0  0  0  0  0
   18.1051   69.9996  -10.0597 O   0  0  0  0  0  0  0  0  0  0  0  0
   15.8595   70.9044   -8.8049 O   0  0  0  0  0  0  0  0  0  0  0  0
   18.2566   71.0998   -9.1623 C   0  0  1  0  0  0  0  0  0  0  0  0
   17.1046   71.1379   -8.1807 C   0  0  2  0  0  0  0  0  0  0  0  0
   19.4410   70.8041   -8.2523 C   0  0  1  0  0  0  0  0  0  0  0  0
   17.4851   70.0373   -7.2050 C   0  0  2  0  0  0  0  0  0  0  0  0
   17.3542   70.1657  -10.6514 H   0  0  0  0  0  0  0  0  0  0  0  0
   15.6625   71.6325   -9.4158 H   0  0  0  0  0  0  0  0  0  0  0  0
   16.2597   68.0933   -5.5632 O   0  0  0  0  0  0  0  0  0  0  0  0
   15.6484   71.1109   -2.1334 O   0  0  0  0  0  0  0  0  0  0  0  0
   16.9964   70.2879   -5.8786 N   0  0  0  0  0  0  0  0  0  0  0  0
   15.9555   69.5984   -3.8569 N   0  0  0  0  0  0  0  0  0  0  0  0
   16.3969   69.2419   -5.1380 C   0  0  0  0  0  0  0  0  0  0  0  0
   17.1146   71.5565   -5.3240 C   0  0  0  0  0  0  0  0  0  0  0  0
   16.6892   71.8811   -4.1015 C   0  0  0  0  0  0  0  0  0  0  0  0
   16.0503   70.8462   -3.2623 C   0  0  0  0  0  0  0  0  0  0  0  0
   15.5328   68.8873   -3.3230 H   0  0  0  0  0  0  0  0  0  0  0  0
   22.2609   71.8268   -4.4671 O   0  0  0  0  0  0  0  0  0  0  0  0
   23.4789   72.0554   -3.4290 P   0  0  2  0  0  0  0  0  0  0  0  0
   24.4471   73.0867   -4.2161 O   0  0  0  0  0  0  0  0  0  0  0  0
   24.1542   70.7907   -2.9837 O   0  0  0  0  0  0  0  0  0  0  0  0
   22.8391   72.9294   -2.2335 O   0  0  0  0  0  0  0  0  0  0  0  0
   21.2308   71.9907   -0.7702 O   0  0  0  0  0  0  0  0  0  0  0  0
   20.6349   76.0374   -0.1897 O   0  0  0  0  0  0  0  0  0  0  0  0
   21.0671   74.9746   -2.8763 O   0  0  0  0  0  0  0  0  0  0  0  0
   22.0444   74.4683    1.8108 O   0  0  0  0  0  0  0  0  0  0  0  0
   21.3884   74.8588   -0.4744 C   0  0  2  0  0  0  0  0  0  0  0  0
   20.8236   74.1791   -1.7220 C   0  0  2  0  0  0  0  0  0  0  0  0
   21.2820   73.9260    0.7342 C   0  0  1  0  0  0  0  0  0  0  0  0
   21.4523   72.8000   -1.9258 C   0  0  1  0  0  0  0  0  0  0  0  0
   21.8156   72.5333    0.4116 C   0  0  1  0  0  0  0  0  0  0  0  0
   20.6878   76.6453   -0.9440 H   0  0  0  0  0  0  0  0  0  0  0  0
   20.6711   75.8513   -2.7538 H   0  0  0  0  0  0  0  0  0  0  0  0
   21.7150   75.3549    2.0259 H   0  0  0  0  0  0  0  0  0  0  0  0
   21.5489   70.2822    1.0142 O   0  0  0  0  0  0  0  0  0  0  0  0
   21.0168   71.8489    2.5830 O   0  0  0  0  0  0  0  0  0  0  0  0
   21.4128   71.5537    1.4654 C   0  0  0  0  0  0  0  0  0  0  0  0
  1  4  1  0
  1 24  1  0
  1  2  1  1
  1  3  2  0
 25 28  1  0
 25 24  1  0
 25 26  1  6
 25 27  2  0
  6 11  1  0
  6 12  1  0
 29 36  1  0
 29 37  1  0
  9  7  1  6
  7 13  1  0
 10  8  1  6
  8 14  1  0
  4  5  1  0
 36 28  1  1
 33 30  1  1
 30 38  1  0
 34 31  1  6
 31 39  1  0
 35 32  1  1
 32 40  1  0
 41 43  1  0
 15 19  2  0
 42 43  2  0
 16 22  2  0
 12 17  1  1
 17 19  1  0
 17 20  1  0
 18 19  1  0
 18 22  1  0
 18 23  1  0
  9 10  1  0
  9 11  1  0
 10 12  1  0
 11  5  1  1
 33 34  1  0
 33 35  1  0
 34 36  1  0
 35 37  1  0
 37 43  1  1
 20 21  2  0
 21 22  1  0
M  CHG  3   2  -1  26  -1  41  -1
M  END
>  <COMPND>  (277) 
    udp_gluA.pdb 

>  <AUTHOR>  (277) 
    GENERATED BY OPEN BABEL 3.1.1

>  <MASTER>  (277) 
        0    0    0    0    0    0    0    0   56    0   56    0

>  <minimizedAffinity>  (277) 
-8.33497

>  <CNNscore>  (277) 
0.6079854965

>  <CNNaffinity>  (277) 
4.4280805588

>  <CNN_VS>  (277) 
2.6922087669

>  <CNNaffinity_variance>  (277) 
0.3900076747

$$$$
278
     RDKit          3D

 43 45  0  0  0  0  0  0  0  0999 V2000
   22.7577   72.9127   -4.2201 P   0  0  2  0  0  0  0  0  0  0  0  0
   24.3050   72.4601   -4.0790 O   0  0  0  0  0  0  0  0  0  0  0  0
   22.4771   74.3372   -3.8407 O   0  0  0  0  0  0  0  0  0  0  0  0
   21.9467   71.7901   -3.3835 O   0  0  0  0  0  0  0  0  0  0  0  0
   21.4337   72.1353   -2.1098 C   0  0  0  0  0  0  0  0  0  0  0  0
   23.3920   71.7192   -0.7796 O   0  0  0  0  0  0  0  0  0  0  0  0
   21.6251   70.0316    0.9587 O   0  0  0  0  0  0  0  0  0  0  0  0
   21.8182   72.3513    2.3792 O   0  0  0  0  0  0  0  0  0  0  0  0
   21.3225   71.2458    0.2711 C   0  0  1  0  0  0  0  0  0  0  0  0
   21.9647   72.4216    0.9763 C   0  0  2  0  0  0  0  0  0  0  0  0
   22.0627   71.2292   -1.0593 C   0  0  1  0  0  0  0  0  0  0  0  0
   23.4128   72.3027    0.5329 C   0  0  2  0  0  0  0  0  0  0  0  0
   21.1632   70.0192    1.8121 H   0  0  0  0  0  0  0  0  0  0  0  0
   20.8792   72.4320    2.6107 H   0  0  0  0  0  0  0  0  0  0  0  0
   24.8005   73.4929    2.6856 O   0  0  0  0  0  0  0  0  0  0  0  0
   25.9045   77.1920    0.1673 O   0  0  0  0  0  0  0  0  0  0  0  0
   24.0722   73.5762    0.4672 N   0  0  0  0  0  0  0  0  0  0  0  0
   25.3481   75.3346    1.4296 N   0  0  0  0  0  0  0  0  0  0  0  0
   24.7409   74.0843    1.6060 C   0  0  0  0  0  0  0  0  0  0  0  0
   24.0538   74.3066   -0.7147 C   0  0  0  0  0  0  0  0  0  0  0  0
   24.6373   75.4970   -0.8676 C   0  0  0  0  0  0  0  0  0  0  0  0
   25.3564   76.0991    0.2741 C   0  0  0  0  0  0  0  0  0  0  0  0
   25.8181   75.7098    2.2091 H   0  0  0  0  0  0  0  0  0  0  0  0
   22.4101   72.5437   -5.7549 O   0  0  0  0  0  0  0  0  0  0  0  0
   21.2570   73.0959   -6.7444 P   0  0  2  0  0  0  0  0  0  0  0  0
   21.6919   72.5029   -8.1865 O   0  0  0  0  0  0  0  0  0  0  0  0
   21.0831   74.5868   -6.7158 O   0  0  0  0  0  0  0  0  0  0  0  0
   19.9373   72.2601   -6.3417 O   0  0  0  0  0  0  0  0  0  0  0  0
   19.6519   70.1406   -5.3240 O   0  0  0  0  0  0  0  0  0  0  0  0
   16.4793   70.2375   -7.9684 O   0  0  0  0  0  0  0  0  0  0  0  0
   19.1135   71.2053   -8.7799 O   0  0  0  0  0  0  0  0  0  0  0  0
   16.0245   70.6560   -5.1278 O   0  0  0  0  0  0  0  0  0  0  0  0
   17.4442   70.7852   -7.0702 C   0  0  2  0  0  0  0  0  0  0  0  0
   18.8519   70.4809   -7.5835 C   0  0  2  0  0  0  0  0  0  0  0  0
   17.2286   70.1453   -5.6969 C   0  0  1  0  0  0  0  0  0  0  0  0
   19.9065   70.8476   -6.5385 C   0  0  1  0  0  0  0  0  0  0  0  0
   18.3849   70.4548   -4.7504 C   0  0  1  0  0  0  0  0  0  0  0  0
   16.5970   70.6294   -8.8481 H   0  0  0  0  0  0  0  0  0  0  0  0
   18.4479   70.9777   -9.4474 H   0  0  0  0  0  0  0  0  0  0  0  0
   15.2807   70.4658   -5.7206 H   0  0  0  0  0  0  0  0  0  0  0  0
   17.6382   68.4400   -3.8099 O   0  0  0  0  0  0  0  0  0  0  0  0
   18.8488   69.8291   -2.4668 O   0  0  0  0  0  0  0  0  0  0  0  0
   18.3344   69.5732   -3.5452 C   0  0  0  0  0  0  0  0  0  0  0  0
  1  4  1  0
  1 24  1  0
  1  2  1  6
  1  3  2  0
 25 28  1  0
 25 24  1  0
 25 26  1  6
 25 27  2  0
  6 11  1  0
  6 12  1  0
 29 36  1  0
 29 37  1  0
  9  7  1  1
  7 13  1  0
 10  8  1  1
  8 14  1  0
  4  5  1  0
 36 28  1  1
 33 30  1  6
 30 38  1  0
 34 31  1  6
 31 39  1  0
 35 32  1  1
 32 40  1  0
 41 43  1  0
 15 19  2  0
 42 43  2  0
 16 22  2  0
 12 17  1  6
 17 19  1  0
 17 20  1  0
 18 19  1  0
 18 22  1  0
 18 23  1  0
  9 10  1  0
  9 11  1  0
 10 12  1  0
 11  5  1  6
 33 34  1  0
 33 35  1  0
 34 36  1  0
 35 37  1  0
 37 43  1  1
 20 21  2  0
 21 22  1  0
M  CHG  3   2  -1  26  -1  41  -1
M  END
>  <COMPND>  (278) 
    udp_gluA.pdb 

>  <AUTHOR>  (278) 
    GENERATED BY OPEN BABEL 3.1.1

>  <MASTER>  (278) 
        0    0    0    0    0    0    0    0   56    0   56    0

>  <minimizedAffinity>  (278) 
-7.26571

>  <CNNscore>  (278) 
0.5825273991

>  <CNNaffinity>  (278) 
4.3241639137

>  <CNN_VS>  (278) 
2.5189440250

>  <CNNaffinity_variance>  (278) 
0.0507672131

$$$$
279
     RDKit          3D

 43 45  0  0  0  0  0  0  0  0999 V2000
   23.6198   72.2785   -3.6115 P   0  0  2  0  0  0  0  0  0  0  0  0
   24.6502   73.5245   -3.6793 O   0  0  0  0  0  0  0  0  0  0  0  0
   24.2072   70.9980   -3.0947 O   0  0  0  0  0  0  0  0  0  0  0  0
   22.9916   72.2124   -5.1012 O   0  0  0  0  0  0  0  0  0  0  0  0
   21.5830   72.1791   -5.2400 C   0  0  0  0  0  0  0  0  0  0  0  0
   20.4184   70.3155   -6.2140 O   0  0  0  0  0  0  0  0  0  0  0  0
   20.5733   71.8131   -8.8072 O   0  0  0  0  0  0  0  0  0  0  0  0
   18.0139   72.2897   -7.9959 O   0  0  0  0  0  0  0  0  0  0  0  0
   20.3906   72.3153   -7.4832 C   0  0  1  0  0  0  0  0  0  0  0  0
   18.9837   72.0280   -7.0032 C   0  0  2  0  0  0  0  0  0  0  0  0
   21.2293   71.4655   -6.5385 C   0  0  1  0  0  0  0  0  0  0  0  0
   19.0683   70.5547   -6.6424 C   0  0  2  0  0  0  0  0  0  0  0  0
   20.0469   72.3404   -9.4289 H   0  0  0  0  0  0  0  0  0  0  0  0
   17.9985   73.2404   -8.1903 H   0  0  0  0  0  0  0  0  0  0  0  0
   16.3713   69.8046   -7.0163 O   0  0  0  0  0  0  0  0  0  0  0  0
   15.7196   69.2081   -2.4927 O   0  0  0  0  0  0  0  0  0  0  0  0
   18.1712   70.1983   -5.5798 N   0  0  0  0  0  0  0  0  0  0  0  0
   16.0490   69.5092   -4.7628 N   0  0  0  0  0  0  0  0  0  0  0  0
   16.8355   69.8370   -5.8751 C   0  0  0  0  0  0  0  0  0  0  0  0
   18.6168   70.2074   -4.2636 C   0  0  0  0  0  0  0  0  0  0  0  0
   17.8554   69.8924   -3.2139 C   0  0  0  0  0  0  0  0  0  0  0  0
   16.4470   69.5042   -3.4357 C   0  0  0  0  0  0  0  0  0  0  0  0
   15.1147   69.2563   -4.9432 H   0  0  0  0  0  0  0  0  0  0  0  0
   22.3995   72.8644   -2.7282 O   0  0  0  0  0  0  0  0  0  0  0  0
   21.6292   72.2534   -1.4448 P   0  0  2  0  0  0  0  0  0  0  0  0
   22.6264   72.5969   -0.2169 O   0  0  0  0  0  0  0  0  0  0  0  0
   21.2813   70.7984   -1.5706 O   0  0  0  0  0  0  0  0  0  0  0  0
   20.3625   73.2281   -1.2255 O   0  0  0  0  0  0  0  0  0  0  0  0
   18.2096   73.2323   -2.2125 O   0  0  0  0  0  0  0  0  0  0  0  0
   18.8995   77.2711   -1.6829 O   0  0  0  0  0  0  0  0  0  0  0  0
   21.0269   75.5202   -2.6541 O   0  0  0  0  0  0  0  0  0  0  0  0
   17.0898   75.8541    0.0970 O   0  0  0  0  0  0  0  0  0  0  0  0
   18.9977   75.8808   -1.3741 C   0  0  2  0  0  0  0  0  0  0  0  0
   19.6597   75.1434   -2.5384 C   0  0  2  0  0  0  0  0  0  0  0  0
   17.5825   75.3468   -1.1416 C   0  0  1  0  0  0  0  0  0  0  0  0
   19.5752   73.6286   -2.3455 C   0  0  1  0  0  0  0  0  0  0  0  0
   17.5645   73.8220   -1.0859 C   0  0  1  0  0  0  0  0  0  0  0  0
   19.7870   77.6322   -1.8347 H   0  0  0  0  0  0  0  0  0  0  0  0
   21.0880   76.4803   -2.7764 H   0  0  0  0  0  0  0  0  0  0  0  0
   17.0962   76.8238    0.0748 H   0  0  0  0  0  0  0  0  0  0  0  0
   15.3309   74.2701   -1.6442 O   0  0  0  0  0  0  0  0  0  0  0  0
   15.8177   72.1670   -0.9099 O   0  0  0  0  0  0  0  0  0  0  0  0
   16.1671   73.3038   -1.1903 C   0  0  0  0  0  0  0  0  0  0  0  0
  1  4  1  0
  1 24  1  0
  1  2  1  6
  1  3  2  0
 25 28  1  0
 25 24  1  0
 25 26  1  1
 25 27  2  0
  6 11  1  0
  6 12  1  0
 29 36  1  0
 29 37  1  0
  9  7  1  6
  7 13  1  0
 10  8  1  6
  8 14  1  0
  4  5  1  0
 36 28  1  1
 33 30  1  6
 30 38  1  0
 34 31  1  1
 31 39  1  0
 35 32  1  1
 32 40  1  0
 41 43  1  0
 15 19  2  0
 42 43  2  0
 16 22  2  0
 12 17  1  1
 17 19  1  0
 17 20  1  0
 18 19  1  0
 18 22  1  0
 18 23  1  0
  9 10  1  0
  9 11  1  0
 10 12  1  0
 11  5  1  1
 33 34  1  0
 33 35  1  0
 34 36  1  0
 35 37  1  0
 37 43  1  6
 20 21  2  0
 21 22  1  0
M  CHG  3   2  -1  26  -1  41  -1
M  END
>  <COMPND>  (279) 
    udp_gluA.pdb 

>  <AUTHOR>  (279) 
    GENERATED BY OPEN BABEL 3.1.1

>  <MASTER>  (279) 
        0    0    0    0    0    0    0    0   56    0   56    0

>  <minimizedAffinity>  (279) 
-6.23798

>  <CNNscore>  (279) 
0.5821833014

>  <CNNaffinity>  (279) 
3.9969649315

>  <CNN_VS>  (279) 
2.3269662857

>  <CNNaffinity_variance>  (279) 
0.4530858099

$$$$
280
     RDKit          3D

 43 45  0  0  0  0  0  0  0  0999 V2000
   22.9499   71.4926   -2.6700 P   0  0  2  0  0  0  0  0  0  0  0  0
   22.9986   73.0633   -2.2835 O   0  0  0  0  0  0  0  0  0  0  0  0
   24.2506   70.9173   -3.1486 O   0  0  0  0  0  0  0  0  0  0  0  0
   21.7110   71.3855   -3.7052 O   0  0  0  0  0  0  0  0  0  0  0  0
   21.5806   72.3761   -4.7083 C   0  0  0  0  0  0  0  0  0  0  0  0
   20.5543   70.5195   -5.8387 O   0  0  0  0  0  0  0  0  0  0  0  0
   20.9165   72.0964   -8.3633 O   0  0  0  0  0  0  0  0  0  0  0  0
   18.2824   72.4975   -7.7830 O   0  0  0  0  0  0  0  0  0  0  0  0
   20.5997   72.5553   -7.0489 C   0  0  1  0  0  0  0  0  0  0  0  0
   19.1611   72.2258   -6.7113 C   0  0  2  0  0  0  0  0  0  0  0  0
   21.3658   71.6946   -6.0536 C   0  0  1  0  0  0  0  0  0  0  0  0
   19.2450   70.7444   -6.3851 C   0  0  2  0  0  0  0  0  0  0  0  0
   20.4386   72.6314   -9.0168 H   0  0  0  0  0  0  0  0  0  0  0  0
   18.2638   73.4532   -7.9514 H   0  0  0  0  0  0  0  0  0  0  0  0
   16.6378   69.8763   -7.0372 O   0  0  0  0  0  0  0  0  0  0  0  0
   15.5539   69.2123   -2.6068 O   0  0  0  0  0  0  0  0  0  0  0  0
   18.2610   70.3388   -5.4218 N   0  0  0  0  0  0  0  0  0  0  0  0
   16.1001   69.5474   -4.8299 N   0  0  0  0  0  0  0  0  0  0  0  0
   16.9806   69.9198   -5.8542 C   0  0  0  0  0  0  0  0  0  0  0  0
   18.5684   70.3567   -4.0667 C   0  0  0  0  0  0  0  0  0  0  0  0
   17.7187   69.9987   -3.1021 C   0  0  0  0  0  0  0  0  0  0  0  0
   16.3598   69.5491   -3.4690 C   0  0  0  0  0  0  0  0  0  0  0  0
   15.2018   69.2540   -5.1064 H   0  0  0  0  0  0  0  0  0  0  0  0
   22.3632   70.8069   -1.3290 O   0  0  0  0  0  0  0  0  0  0  0  0
   21.5348   71.4350   -0.0908 P   0  0  2  0  0  0  0  0  0  0  0  0
   21.4613   70.2098    0.9645 O   0  0  0  0  0  0  0  0  0  0  0  0
   20.1989   72.0055   -0.4700 O   0  0  0  0  0  0  0  0  0  0  0  0
   22.5477   72.4936    0.5842 O   0  0  0  0  0  0  0  0  0  0  0  0
   22.7164   73.6111    2.6655 O   0  0  0  0  0  0  0  0  0  0  0  0
   23.6321   76.6395    0.0087 O   0  0  0  0  0  0  0  0  0  0  0  0
   21.4519   74.7799   -0.5596 O   0  0  0  0  0  0  0  0  0  0  0  0
   25.7411   75.3621    1.5487 O   0  0  0  0  0  0  0  0  0  0  0  0
   23.5807   75.2944    0.4843 C   0  0  2  0  0  0  0  0  0  0  0  0
   22.1236   74.8800    0.6908 C   0  0  2  0  0  0  0  0  0  0  0  0
   24.3448   75.2315    1.8087 C   0  0  1  0  0  0  0  0  0  0  0  0
   22.0345   73.5349    1.4131 C   0  0  1  0  0  0  0  0  0  0  0  0
   24.1043   73.9075    2.5282 C   0  0  1  0  0  0  0  0  0  0  0  0
   23.1528   76.7038   -0.8323 H   0  0  0  0  0  0  0  0  0  0  0  0
   21.5048   75.6298   -1.0235 H   0  0  0  0  0  0  0  0  0  0  0  0
   25.9077   76.2008    1.0907 H   0  0  0  0  0  0  0  0  0  0  0  0
   25.9274   73.9304    4.0038 O   0  0  0  0  0  0  0  0  0  0  0  0
   23.8449   74.0756    4.9211 O   0  0  0  0  0  0  0  0  0  0  0  0
   24.5735   73.9807    3.9448 C   0  0  0  0  0  0  0  0  0  0  0  0
  1  4  1  0
  1 24  1  0
  1  2  1  1
  1  3  2  0
 25 28  1  0
 25 24  1  0
 25 26  1  1
 25 27  2  0
  6 11  1  0
  6 12  1  0
 29 36  1  0
 29 37  1  0
  9  7  1  6
  7 13  1  0
 10  8  1  6
  8 14  1  0
  4  5  1  0
 36 28  1  6
 33 30  1  1
 30 38  1  0
 34 31  1  6
 31 39  1  0
 35 32  1  6
 32 40  1  0
 41 43  1  0
 15 19  2  0
 42 43  2  0
 16 22  2  0
 12 17  1  1
 17 19  1  0
 17 20  1  0
 18 19  1  0
 18 22  1  0
 18 23  1  0
  9 10  1  0
  9 11  1  0
 10 12  1  0
 11  5  1  1
 33 34  1  0
 33 35  1  0
 34 36  1  0
 35 37  1  0
 37 43  1  1
 20 21  2  0
 21 22  1  0
M  CHG  3   2  -1  26  -1  41  -1
M  END
>  <COMPND>  (280) 
    udp_gluA.pdb 

>  <AUTHOR>  (280) 
    GENERATED BY OPEN BABEL 3.1.1

>  <MASTER>  (280) 
        0    0    0    0    0    0    0    0   56    0   56    0

>  <minimizedAffinity>  (280) 
-7.14507

>  <CNNscore>  (280) 
0.5785185695

>  <CNNaffinity>  (280) 
4.1632752419

>  <CNN_VS>  (280) 
2.4085321426

>  <CNNaffinity_variance>  (280) 
0.1188111082

$$$$
281
     RDKit          3D

 43 45  0  0  0  0  0  0  0  0999 V2000
   23.1439   72.0925   -3.6827 P   0  0  2  0  0  0  0  0  0  0  0  0
   23.8244   72.8008   -4.9688 O   0  0  0  0  0  0  0  0  0  0  0  0
   23.9681   71.0137   -3.0435 O   0  0  0  0  0  0  0  0  0  0  0  0
   21.6848   71.6395   -4.2153 O   0  0  0  0  0  0  0  0  0  0  0  0
   21.0431   70.5475   -3.5826 C   0  0  0  0  0  0  0  0  0  0  0  0
   19.0419   71.5466   -4.4626 O   0  0  0  0  0  0  0  0  0  0  0  0
   17.5964   70.1834   -2.2167 O   0  0  0  0  0  0  0  0  0  0  0  0
   17.0671   68.5567   -4.3404 O   0  0  0  0  0  0  0  0  0  0  0  0
   18.7109   69.7265   -2.9833 C   0  0  1  0  0  0  0  0  0  0  0  0
   18.2601   69.3120   -4.3679 C   0  0  2  0  0  0  0  0  0  0  0  0
   19.5985   70.9267   -3.2831 C   0  0  1  0  0  0  0  0  0  0  0  0
   18.0867   70.6543   -5.0580 C   0  0  2  0  0  0  0  0  0  0  0  0
   17.0147   69.4339   -2.0129 H   0  0  0  0  0  0  0  0  0  0  0  0
   17.2296   67.7118   -3.8913 H   0  0  0  0  0  0  0  0  0  0  0  0
   16.1602   69.8897   -6.9765 O   0  0  0  0  0  0  0  0  0  0  0  0
   19.1468   70.4061  -10.4490 O   0  0  0  0  0  0  0  0  0  0  0  0
   18.3339   70.5803   -6.4702 N   0  0  0  0  0  0  0  0  0  0  0  0
   17.6498   70.1466   -8.7041 N   0  0  0  0  0  0  0  0  0  0  0  0
   17.2975   70.1848   -7.3485 C   0  0  0  0  0  0  0  0  0  0  0  0
   19.5900   70.8990   -6.9720 C   0  0  0  0  0  0  0  0  0  0  0  0
   19.9107   70.8580   -8.2667 C   0  0  0  0  0  0  0  0  0  0  0  0
   18.8853   70.4538   -9.2508 C   0  0  0  0  0  0  0  0  0  0  0  0
   16.9453   69.8721   -9.3346 H   0  0  0  0  0  0  0  0  0  0  0  0
   22.8056   73.3433   -2.7162 O   0  0  0  0  0  0  0  0  0  0  0  0
   23.7451   74.5299   -2.1479 P   0  0  2  0  0  0  0  0  0  0  0  0
   22.6797   75.6660   -1.7069 O   0  0  0  0  0  0  0  0  0  0  0  0
   24.7904   75.0046   -3.1153 O   0  0  0  0  0  0  0  0  0  0  0  0
   24.3299   73.9585   -0.7573 O   0  0  0  0  0  0  0  0  0  0  0  0
   22.5069   73.0811    0.4740 O   0  0  0  0  0  0  0  0  0  0  0  0
   25.6756   72.3378    3.0187 O   0  0  0  0  0  0  0  0  0  0  0  0
   25.4820   74.8838    1.5991 O   0  0  0  0  0  0  0  0  0  0  0  0
   24.5051   70.1709    1.4742 O   0  0  0  0  0  0  0  0  0  0  0  0
   25.0291   72.5055    1.7570 C   0  0  2  0  0  0  0  0  0  0  0  0
   24.4425   73.9145    1.6658 C   0  0  2  0  0  0  0  0  0  0  0  0
   23.9179   71.4585    1.6521 C   0  0  1  0  0  0  0  0  0  0  0  0
   23.5493   74.0564    0.4326 C   0  0  1  0  0  0  0  0  0  0  0  0
   22.9956   71.7416    0.4699 C   0  0  1  0  0  0  0  0  0  0  0  0
   26.3858   72.9927    3.1079 H   0  0  0  0  0  0  0  0  0  0  0  0
   26.0528   74.7992    2.3785 H   0  0  0  0  0  0  0  0  0  0  0  0
   25.0946   69.9786    2.2201 H   0  0  0  0  0  0  0  0  0  0  0  0
   20.7424   71.5082   -0.1386 O   0  0  0  0  0  0  0  0  0  0  0  0
   21.6352   69.8827    1.1878 O   0  0  0  0  0  0  0  0  0  0  0  0
   21.7458   70.9283    0.5654 C   0  0  0  0  0  0  0  0  0  0  0  0
  1  4  1  0
  1 24  1  0
  1  2  1  6
  1  3  2  0
 25 28  1  0
 25 24  1  0
 25 26  1  1
 25 27  2  0
  6 11  1  0
  6 12  1  0
 29 36  1  0
 29 37  1  0
  9  7  1  1
  7 13  1  0
 10  8  1  1
  8 14  1  0
  4  5  1  0
 36 28  1  6
 33 30  1  1
 30 38  1  0
 34 31  1  6
 31 39  1  0
 35 32  1  6
 32 40  1  0
 41 43  1  0
 15 19  2  0
 42 43  2  0
 16 22  2  0
 12 17  1  6
 17 19  1  0
 17 20  1  0
 18 19  1  0
 18 22  1  0
 18 23  1  0
  9 10  1  0
  9 11  1  0
 10 12  1  0
 11  5  1  6
 33 34  1  0
 33 35  1  0
 34 36  1  0
 35 37  1  0
 37 43  1  1
 20 21  2  0
 21 22  1  0
M  CHG  3   2  -1  26  -1  41  -1
M  END
>  <COMPND>  (281) 
    udp_gluA.pdb 

>  <AUTHOR>  (281) 
    GENERATED BY OPEN BABEL 3.1.1

>  <MASTER>  (281) 
        0    0    0    0    0    0    0    0   56    0   56    0

>  <minimizedAffinity>  (281) 
-7.94173

>  <CNNscore>  (281) 
0.9204320908

>  <CNNaffinity>  (281) 
4.8758554459

>  <CNN_VS>  (281) 
4.4878940582

>  <CNNaffinity_variance>  (281) 
0.0951443836

$$$$
282
     RDKit          3D

 43 45  0  0  0  0  0  0  0  0999 V2000
   20.5289   71.2558   -1.4216 P   0  0  2  0  0  0  0  0  0  0  0  0
   21.0995   70.5113   -0.1030 O   0  0  0  0  0  0  0  0  0  0  0  0
   20.0606   72.6643   -1.2013 O   0  0  0  0  0  0  0  0  0  0  0  0
   19.4196   70.2287   -1.9983 O   0  0  0  0  0  0  0  0  0  0  0  0
   19.1058   70.2772   -3.3781 C   0  0  0  0  0  0  0  0  0  0  0  0
   17.4684   71.3385   -4.7818 O   0  0  0  0  0  0  0  0  0  0  0  0
   15.4165   69.7751   -3.2531 O   0  0  0  0  0  0  0  0  0  0  0  0
   15.6652   68.3383   -5.5574 O   0  0  0  0  0  0  0  0  0  0  0  0
   16.7351   69.3936   -3.6459 C   0  0  1  0  0  0  0  0  0  0  0  0
   16.7754   69.0999   -5.1306 C   0  0  2  0  0  0  0  0  0  0  0  0
   17.6305   70.6205   -3.5394 C   0  0  1  0  0  0  0  0  0  0  0  0
   16.7910   70.4965   -5.7281 C   0  0  2  0  0  0  0  0  0  0  0  0
   14.8261   69.0074   -3.3129 H   0  0  0  0  0  0  0  0  0  0  0  0
   15.7011   67.4582   -5.1500 H   0  0  0  0  0  0  0  0  0  0  0  0
   15.5279   70.5656   -8.2532 O   0  0  0  0  0  0  0  0  0  0  0  0
   19.5653   70.6943  -10.4727 O   0  0  0  0  0  0  0  0  0  0  0  0
   17.4880   70.5483   -6.9820 N   0  0  0  0  0  0  0  0  0  0  0  0
   17.5400   70.6286   -9.3563 N   0  0  0  0  0  0  0  0  0  0  0  0
   16.7588   70.5797   -8.1942 C   0  0  0  0  0  0  0  0  0  0  0  0
   18.8773   70.5693   -7.0029 C   0  0  0  0  0  0  0  0  0  0  0  0
   19.6080   70.6161   -8.1185 C   0  0  0  0  0  0  0  0  0  0  0  0
   18.9235   70.6505   -9.4276 C   0  0  0  0  0  0  0  0  0  0  0  0
   17.0546   70.6491  -10.2126 H   0  0  0  0  0  0  0  0  0  0  0  0
   21.7446   71.1077   -2.4767 O   0  0  0  0  0  0  0  0  0  0  0  0
   23.0807   71.9930   -2.6875 P   0  0  2  0  0  0  0  0  0  0  0  0
   24.1837   70.8967   -3.1369 O   0  0  0  0  0  0  0  0  0  0  0  0
   23.4731   72.8103   -1.4909 O   0  0  0  0  0  0  0  0  0  0  0  0
   22.7951   72.8537   -4.0217 O   0  0  0  0  0  0  0  0  0  0  0  0
   20.4936   73.2677   -4.3968 O   0  0  0  0  0  0  0  0  0  0  0  0
   22.1802   74.6588   -7.9023 O   0  0  0  0  0  0  0  0  0  0  0  0
   23.1122   72.1657   -6.6979 O   0  0  0  0  0  0  0  0  0  0  0  0
   21.2611   76.5345   -5.8804 O   0  0  0  0  0  0  0  0  0  0  0  0
   22.1281   74.3748   -6.5042 C   0  0  2  0  0  0  0  0  0  0  0  0
   21.9447   72.8716   -6.2938 C   0  0  2  0  0  0  0  0  0  0  0  0
   20.9462   75.1436   -5.9092 C   0  0  1  0  0  0  0  0  0  0  0  0
   21.6551   72.5560   -4.8257 C   0  0  1  0  0  0  0  0  0  0  0  0
   20.6414   74.6830   -4.4867 C   0  0  1  0  0  0  0  0  0  0  0  0
   22.9239   74.1809   -8.3020 H   0  0  0  0  0  0  0  0  0  0  0  0
   23.3021   72.3616   -7.6285 H   0  0  0  0  0  0  0  0  0  0  0  0
   21.4573   76.8403   -6.7797 H   0  0  0  0  0  0  0  0  0  0  0  0
   19.4197   76.4356   -3.5185 O   0  0  0  0  0  0  0  0  0  0  0  0
   18.2578   74.5712   -4.1296 O   0  0  0  0  0  0  0  0  0  0  0  0
   19.3084   75.1886   -4.0396 C   0  0  0  0  0  0  0  0  0  0  0  0
  1  4  1  0
  1 24  1  0
  1  2  1  1
  1  3  2  0
 25 28  1  0
 25 24  1  0
 25 26  1  6
 25 27  2  0
  6 11  1  0
  6 12  1  0
 29 36  1  0
 29 37  1  0
  9  7  1  6
  7 13  1  0
 10  8  1  6
  8 14  1  0
  4  5  1  0
 36 28  1  1
 33 30  1  6
 30 38  1  0
 34 31  1  1
 31 39  1  0
 35 32  1  1
 32 40  1  0
 41 43  1  0
 15 19  2  0
 42 43  2  0
 16 22  2  0
 12 17  1  6
 17 19  1  0
 17 20  1  0
 18 19  1  0
 18 22  1  0
 18 23  1  0
  9 10  1  0
  9 11  1  0
 10 12  1  0
 11  5  1  6
 33 34  1  0
 33 35  1  0
 34 36  1  0
 35 37  1  0
 37 43  1  6
 20 21  2  0
 21 22  1  0
M  CHG  3   2  -1  26  -1  41  -1
M  END
>  <COMPND>  (282) 
    udp_gluA.pdb 

>  <AUTHOR>  (282) 
    GENERATED BY OPEN BABEL 3.1.1

>  <MASTER>  (282) 
        0    0    0    0    0    0    0    0   56    0   56    0

>  <minimizedAffinity>  (282) 
-8.02434

>  <CNNscore>  (282) 
0.8888090849

>  <CNNaffinity>  (282) 
4.6999874115

>  <CNN_VS>  (282) 
4.1773915291

>  <CNNaffinity_variance>  (282) 
0.8327711821

$$$$
283
     RDKit          3D

 43 45  0  0  0  0  0  0  0  0999 V2000
   21.7515   71.9716   -1.9483 P   0  0  2  0  0  0  0  0  0  0  0  0
   20.6591   72.7709   -1.0612 O   0  0  0  0  0  0  0  0  0  0  0  0
   22.3638   72.7651   -3.0650 O   0  0  0  0  0  0  0  0  0  0  0  0
   20.9801   70.6191   -2.3882 O   0  0  0  0  0  0  0  0  0  0  0  0
   20.3671   70.5747   -3.6637 C   0  0  0  0  0  0  0  0  0  0  0  0
   18.5114   71.6322   -4.7663 O   0  0  0  0  0  0  0  0  0  0  0  0
   16.7788   70.3327   -2.6925 O   0  0  0  0  0  0  0  0  0  0  0  0
   16.4374   68.7091   -4.8567 O   0  0  0  0  0  0  0  0  0  0  0  0
   17.9565   69.8343   -3.3274 C   0  0  1  0  0  0  0  0  0  0  0  0
   17.6504   69.4250   -4.7525 C   0  0  2  0  0  0  0  0  0  0  0  0
   18.9114   71.0028   -3.5297 C   0  0  1  0  0  0  0  0  0  0  0  0
   17.6000   70.7672   -5.4623 C   0  0  2  0  0  0  0  0  0  0  0  0
   16.1533   69.6040   -2.5528 H   0  0  0  0  0  0  0  0  0  0  0  0
   16.5205   67.8626   -4.3893 H   0  0  0  0  0  0  0  0  0  0  0  0
   15.8513   70.1684   -7.5977 O   0  0  0  0  0  0  0  0  0  0  0  0
   19.2508   70.4406  -10.6983 O   0  0  0  0  0  0  0  0  0  0  0  0
   18.0016   70.6753   -6.8375 N   0  0  0  0  0  0  0  0  0  0  0  0
   17.5463   70.3036   -9.1398 N   0  0  0  0  0  0  0  0  0  0  0  0
   17.0444   70.3686   -7.8333 C   0  0  0  0  0  0  0  0  0  0  0  0
   19.3291   70.8893   -7.1882 C   0  0  0  0  0  0  0  0  0  0  0  0
   19.7925   70.8240   -8.4379 C   0  0  0  0  0  0  0  0  0  0  0  0
   18.8576   70.5079   -9.5376 C   0  0  0  0  0  0  0  0  0  0  0  0
   16.8990   70.0895   -9.8501 H   0  0  0  0  0  0  0  0  0  0  0  0
   22.8041   71.4456   -0.8401 O   0  0  0  0  0  0  0  0  0  0  0  0
   22.5891   70.9907    0.6963 P   0  0  2  0  0  0  0  0  0  0  0  0
   23.9475   70.1779    1.0349 O   0  0  0  0  0  0  0  0  0  0  0  0
   21.3273   70.2139    0.9378 O   0  0  0  0  0  0  0  0  0  0  0  0
   22.7084   72.3556    1.5478 O   0  0  0  0  0  0  0  0  0  0  0  0
   24.0267   72.9533    3.4224 O   0  0  0  0  0  0  0  0  0  0  0  0
   20.5120   74.9867    4.1838 O   0  0  0  0  0  0  0  0  0  0  0  0
   20.4483   72.2493    3.1655 O   0  0  0  0  0  0  0  0  0  0  0  0
   22.8491   76.4223    3.2206 O   0  0  0  0  0  0  0  0  0  0  0  0
   21.5336   74.4094    3.3709 C   0  0  2  0  0  0  0  0  0  0  0  0
   21.6163   72.9071    3.6428 C   0  0  2  0  0  0  0  0  0  0  0  0
   22.8590   75.0879    3.7242 C   0  0  1  0  0  0  0  0  0  0  0  0
   22.8440   72.2954    2.9665 C   0  0  1  0  0  0  0  0  0  0  0  0
   24.0448   74.3455    3.1149 C   0  0  1  0  0  0  0  0  0  0  0  0
   19.6602   74.5708    3.9768 H   0  0  0  0  0  0  0  0  0  0  0  0
   19.6654   72.6326    3.5902 H   0  0  0  0  0  0  0  0  0  0  0  0
   22.0989   76.9058    3.6006 H   0  0  0  0  0  0  0  0  0  0  0  0
   26.2881   73.8568    3.5948 O   0  0  0  0  0  0  0  0  0  0  0  0
   25.5006   75.8899    4.2624 O   0  0  0  0  0  0  0  0  0  0  0  0
   25.3290   74.8068    3.7235 C   0  0  0  0  0  0  0  0  0  0  0  0
  1  4  1  0
  1 24  1  0
  1  2  1  1
  1  3  2  0
 25 28  1  0
 25 24  1  0
 25 26  1  1
 25 27  2  0
  6 11  1  0
  6 12  1  0
 29 36  1  0
 29 37  1  0
  9  7  1  6
  7 13  1  0
 10  8  1  1
  8 14  1  0
  4  5  1  0
 36 28  1  6
 33 30  1  1
 30 38  1  0
 34 31  1  6
 31 39  1  0
 35 32  1  6
 32 40  1  0
 41 43  1  0
 15 19  2  0
 42 43  2  0
 16 22  2  0
 12 17  1  6
 17 19  1  0
 17 20  1  0
 18 19  1  0
 18 22  1  0
 18 23  1  0
  9 10  1  0
  9 11  1  0
 10 12  1  0
 11  5  1  6
 33 34  1  0
 33 35  1  0
 34 36  1  0
 35 37  1  0
 37 43  1  1
 20 21  2  0
 21 22  1  0
M  CHG  3   2  -1  26  -1  41  -1
M  END
>  <COMPND>  (283) 
    udp_gluA.pdb 

>  <AUTHOR>  (283) 
    GENERATED BY OPEN BABEL 3.1.1

>  <MASTER>  (283) 
        0    0    0    0    0    0    0    0   56    0   56    0

>  <minimizedAffinity>  (283) 
-7.58331

>  <CNNscore>  (283) 
0.8800482154

>  <CNNaffinity>  (283) 
4.6622724533

>  <CNN_VS>  (283) 
4.1030244827

>  <CNNaffinity_variance>  (283) 
0.0914847776

$$$$
284
     RDKit          3D

 43 45  0  0  0  0  0  0  0  0999 V2000
   21.3475   72.9804   -5.0467 P   0  0  2  0  0  0  0  0  0  0  0  0
   21.6433   74.5219   -4.6528 O   0  0  0  0  0  0  0  0  0  0  0  0
   21.8047   72.5780   -6.4181 O   0  0  0  0  0  0  0  0  0  0  0  0
   19.7667   72.8006   -4.7522 O   0  0  0  0  0  0  0  0  0  0  0  0
   19.3623   71.8379   -3.7960 C   0  0  0  0  0  0  0  0  0  0  0  0
   17.4254   71.9523   -5.2147 O   0  0  0  0  0  0  0  0  0  0  0  0
   16.0215   70.3372   -3.1142 O   0  0  0  0  0  0  0  0  0  0  0  0
   16.6220   68.4646   -5.0033 O   0  0  0  0  0  0  0  0  0  0  0  0
   17.3780   70.2643   -3.5536 C   0  0  1  0  0  0  0  0  0  0  0  0
   17.4537   69.6025   -4.9132 C   0  0  2  0  0  0  0  0  0  0  0  0
   17.8488   71.6792   -3.8614 C   0  0  1  0  0  0  0  0  0  0  0  0
   17.0106   70.7253   -5.8356 C   0  0  2  0  0  0  0  0  0  0  0  0
   15.6986   69.4449   -2.9115 H   0  0  0  0  0  0  0  0  0  0  0  0
   16.9458   67.7788   -4.3977 H   0  0  0  0  0  0  0  0  0  0  0  0
   15.5610   70.6573   -8.2586 O   0  0  0  0  0  0  0  0  0  0  0  0
   19.4161   70.3754  -10.7691 O   0  0  0  0  0  0  0  0  0  0  0  0
   17.6103   70.6344   -7.1368 N   0  0  0  0  0  0  0  0  0  0  0  0
   17.4824   70.5159   -9.5066 N   0  0  0  0  0  0  0  0  0  0  0  0
   16.7920   70.6069   -8.2908 C   0  0  0  0  0  0  0  0  0  0  0  0
   18.9931   70.5753   -7.2606 C   0  0  0  0  0  0  0  0  0  0  0  0
   19.6368   70.4889   -8.4263 C   0  0  0  0  0  0  0  0  0  0  0  0
   18.8556   70.4540   -9.6801 C   0  0  0  0  0  0  0  0  0  0  0  0
   16.9339   70.4932  -10.3239 H   0  0  0  0  0  0  0  0  0  0  0  0
   22.0381   72.1582   -3.8385 O   0  0  0  0  0  0  0  0  0  0  0  0
   23.5496   72.1830   -3.2655 P   0  0  2  0  0  0  0  0  0  0  0  0
   24.3554   73.0309   -4.3845 O   0  0  0  0  0  0  0  0  0  0  0  0
   24.1247   70.8246   -2.9861 O   0  0  0  0  0  0  0  0  0  0  0  0
   23.4852   73.1595   -1.9830 O   0  0  0  0  0  0  0  0  0  0  0  0
   21.9507   72.3264   -0.3828 O   0  0  0  0  0  0  0  0  0  0  0  0
   23.0886   75.9098    1.3296 O   0  0  0  0  0  0  0  0  0  0  0  0
   22.5544   75.7423   -1.5376 O   0  0  0  0  0  0  0  0  0  0  0  0
   24.1358   73.4019    2.3614 O   0  0  0  0  0  0  0  0  0  0  0  0
   23.2584   74.7261    0.5499 C   0  0  2  0  0  0  0  0  0  0  0  0
   22.2476   74.7195   -0.5972 C   0  0  2  0  0  0  0  0  0  0  0  0
   23.0326   73.5206    1.4651 C   0  0  1  0  0  0  0  0  0  0  0  0
   22.2427   73.3688   -1.3143 C   0  0  1  0  0  0  0  0  0  0  0  0
   22.9139   72.2273    0.6639 C   0  0  1  0  0  0  0  0  0  0  0  0
   23.2272   76.6893    0.7688 H   0  0  0  0  0  0  0  0  0  0  0  0
   22.5595   76.6022   -1.0893 H   0  0  0  0  0  0  0  0  0  0  0  0
   24.2225   74.2187    2.8774 H   0  0  0  0  0  0  0  0  0  0  0  0
   22.8427   71.2233    2.7825 O   0  0  0  0  0  0  0  0  0  0  0  0
   21.6105   70.2509    1.1287 O   0  0  0  0  0  0  0  0  0  0  0  0
   22.3731   71.1243    1.5142 C   0  0  0  0  0  0  0  0  0  0  0  0
  1  4  1  0
  1 24  1  0
  1  2  1  1
  1  3  2  0
 25 28  1  0
 25 24  1  0
 25 26  1  6
 25 27  2  0
  6 11  1  0
  6 12  1  0
 29 36  1  0
 29 37  1  0
  9  7  1  6
  7 13  1  0
 10  8  1  1
  8 14  1  0
  4  5  1  0
 36 28  1  1
 33 30  1  1
 30 38  1  0
 34 31  1  6
 31 39  1  0
 35 32  1  1
 32 40  1  0
 41 43  1  0
 15 19  2  0
 42 43  2  0
 16 22  2  0
 12 17  1  6
 17 19  1  0
 17 20  1  0
 18 19  1  0
 18 22  1  0
 18 23  1  0
  9 10  1  0
  9 11  1  0
 10 12  1  0
 11  5  1  6
 33 34  1  0
 33 35  1  0
 34 36  1  0
 35 37  1  0
 37 43  1  1
 20 21  2  0
 21 22  1  0
M  CHG  3   2  -1  26  -1  41  -1
M  END
>  <COMPND>  (284) 
    udp_gluA.pdb 

>  <AUTHOR>  (284) 
    GENERATED BY OPEN BABEL 3.1.1

>  <MASTER>  (284) 
        0    0    0    0    0    0    0    0   56    0   56    0

>  <minimizedAffinity>  (284) 
-8.05468

>  <CNNscore>  (284) 
0.8698157668

>  <CNNaffinity>  (284) 
4.6619348526

>  <CNN_VS>  (284) 
4.0550246239

>  <CNNaffinity_variance>  (284) 
0.0682381988

$$$$
285
     RDKit          3D

 43 45  0  0  0  0  0  0  0  0999 V2000
   20.4701   71.1669   -1.3440 P   0  0  2  0  0  0  0  0  0  0  0  0
   20.7999   70.5266    0.1052 O   0  0  0  0  0  0  0  0  0  0  0  0
   19.9935   72.5895   -1.3145 O   0  0  0  0  0  0  0  0  0  0  0  0
   19.4574   70.1004   -2.0186 O   0  0  0  0  0  0  0  0  0  0  0  0
   19.1536   70.2338   -3.3949 C   0  0  0  0  0  0  0  0  0  0  0  0
   17.5373   71.3406   -4.7879 O   0  0  0  0  0  0  0  0  0  0  0  0
   15.4517   69.8486   -3.2336 O   0  0  0  0  0  0  0  0  0  0  0  0
   15.6334   68.3957   -5.5341 O   0  0  0  0  0  0  0  0  0  0  0  0
   16.7539   69.4242   -3.6370 C   0  0  1  0  0  0  0  0  0  0  0  0
   16.7709   69.1235   -5.1208 C   0  0  2  0  0  0  0  0  0  0  0  0
   17.6884   70.6227   -3.5441 C   0  0  1  0  0  0  0  0  0  0  0  0
   16.8248   70.5166   -5.7243 C   0  0  2  0  0  0  0  0  0  0  0  0
   14.8369   69.0996   -3.2847 H   0  0  0  0  0  0  0  0  0  0  0  0
   15.6454   67.5164   -5.1233 H   0  0  0  0  0  0  0  0  0  0  0  0
   15.5405   70.5927   -8.2385 O   0  0  0  0  0  0  0  0  0  0  0  0
   19.5593   70.6095  -10.4952 O   0  0  0  0  0  0  0  0  0  0  0  0
   17.5113   70.5416   -6.9848 N   0  0  0  0  0  0  0  0  0  0  0  0
   17.5433   70.6000   -9.3601 N   0  0  0  0  0  0  0  0  0  0  0  0
   16.7719   70.5791   -8.1906 C   0  0  0  0  0  0  0  0  0  0  0  0
   18.9005   70.5305   -7.0184 C   0  0  0  0  0  0  0  0  0  0  0  0
   19.6218   70.5509   -8.1409 C   0  0  0  0  0  0  0  0  0  0  0  0
   18.9262   70.5895   -9.4440 C   0  0  0  0  0  0  0  0  0  0  0  0
   17.0507   70.6241  -10.2122 H   0  0  0  0  0  0  0  0  0  0  0  0
   21.8430   70.9336   -2.1647 O   0  0  0  0  0  0  0  0  0  0  0  0
   23.0028   71.9685   -2.6092 P   0  0  2  0  0  0  0  0  0  0  0  0
   24.1939   70.9950   -3.1131 O   0  0  0  0  0  0  0  0  0  0  0  0
   23.4081   72.9372   -1.5362 O   0  0  0  0  0  0  0  0  0  0  0  0
   22.4426   72.6573   -3.9561 O   0  0  0  0  0  0  0  0  0  0  0  0
   22.8278   74.9924   -3.8671 O   0  0  0  0  0  0  0  0  0  0  0  0
   20.8092   74.6093   -7.4514 O   0  0  0  0  0  0  0  0  0  0  0  0
   19.9469   73.1079   -5.0984 O   0  0  0  0  0  0  0  0  0  0  0  0
   23.6829   75.0482   -7.4347 O   0  0  0  0  0  0  0  0  0  0  0  0
   21.6803   74.2018   -6.3963 C   0  0  2  0  0  0  0  0  0  0  0  0
   20.9046   74.1601   -5.0795 C   0  0  2  0  0  0  0  0  0  0  0  0
   22.8235   75.2155   -6.3087 C   0  0  1  0  0  0  0  0  0  0  0  0
   21.8489   73.9529   -3.8945 C   0  0  1  0  0  0  0  0  0  0  0  0
   23.6433   75.0221   -5.0363 C   0  0  1  0  0  0  0  0  0  0  0  0
   20.0748   73.9798   -7.5258 H   0  0  0  0  0  0  0  0  0  0  0  0
   19.3446   73.2329   -5.8480 H   0  0  0  0  0  0  0  0  0  0  0  0
   23.1733   75.1687   -8.2512 H   0  0  0  0  0  0  0  0  0  0  0  0
   25.6951   76.0676   -5.4818 O   0  0  0  0  0  0  0  0  0  0  0  0
   24.2587   77.1503   -4.0806 O   0  0  0  0  0  0  0  0  0  0  0  0
   24.5332   76.1977   -4.7949 C   0  0  0  0  0  0  0  0  0  0  0  0
  1  4  1  0
  1 24  1  0
  1  2  1  1
  1  3  2  0
 25 28  1  0
 25 24  1  0
 25 26  1  6
 25 27  2  0
  6 11  1  0
  6 12  1  0
 29 36  1  0
 29 37  1  0
  9  7  1  6
  7 13  1  0
 10  8  1  6
  8 14  1  0
  4  5  1  0
 36 28  1  6
 33 30  1  6
 30 38  1  0
 34 31  1  6
 31 39  1  0
 35 32  1  6
 32 40  1  0
 41 43  1  0
 15 19  2  0
 42 43  2  0
 16 22  2  0
 12 17  1  6
 17 19  1  0
 17 20  1  0
 18 19  1  0
 18 22  1  0
 18 23  1  0
  9 10  1  0
  9 11  1  0
 10 12  1  0
 11  5  1  6
 33 34  1  0
 33 35  1  0
 34 36  1  0
 35 37  1  0
 37 43  1  1
 20 21  2  0
 21 22  1  0
M  CHG  3   2  -1  26  -1  41  -1
M  END
>  <COMPND>  (285) 
    udp_gluA.pdb 

>  <AUTHOR>  (285) 
    GENERATED BY OPEN BABEL 3.1.1

>  <MASTER>  (285) 
        0    0    0    0    0    0    0    0   56    0   56    0

>  <minimizedAffinity>  (285) 
-7.98232

>  <CNNscore>  (285) 
0.8629586697

>  <CNNaffinity>  (285) 
4.6946716309

>  <CNN_VS>  (285) 
4.0513076782

>  <CNNaffinity_variance>  (285) 
0.4197699428

$$$$
286
     RDKit          3D

 43 45  0  0  0  0  0  0  0  0999 V2000
   21.1783   71.5368   -1.6662 P   0  0  2  0  0  0  0  0  0  0  0  0
   22.7885   71.4636   -1.8111 O   0  0  0  0  0  0  0  0  0  0  0  0
   20.5809   70.5346   -0.7226 O   0  0  0  0  0  0  0  0  0  0  0  0
   20.6473   71.4680   -3.1930 O   0  0  0  0  0  0  0  0  0  0  0  0
   19.8110   70.3895   -3.5700 C   0  0  0  0  0  0  0  0  0  0  0  0
   18.0940   71.5356   -4.8012 O   0  0  0  0  0  0  0  0  0  0  0  0
   16.1433   70.2265   -2.9378 O   0  0  0  0  0  0  0  0  0  0  0  0
   15.9581   68.6806   -5.1765 O   0  0  0  0  0  0  0  0  0  0  0  0
   17.3603   69.7123   -3.4791 C   0  0  1  0  0  0  0  0  0  0  0  0
   17.1754   69.3560   -4.9389 C   0  0  2  0  0  0  0  0  0  0  0  0
   18.3613   70.8571   -3.5549 C   0  0  1  0  0  0  0  0  0  0  0  0
   17.2271   70.7201   -5.6055 C   0  0  2  0  0  0  0  0  0  0  0  0
   15.4880   69.5131   -2.8797 H   0  0  0  0  0  0  0  0  0  0  0  0
   15.9748   67.8181   -4.7318 H   0  0  0  0  0  0  0  0  0  0  0  0
   15.6505   70.3667   -7.9219 O   0  0  0  0  0  0  0  0  0  0  0  0
   19.3433   70.4967  -10.6770 O   0  0  0  0  0  0  0  0  0  0  0  0
   17.7507   70.6580   -6.9408 N   0  0  0  0  0  0  0  0  0  0  0  0
   17.4913   70.4308   -9.2918 N   0  0  0  0  0  0  0  0  0  0  0  0
   16.8726   70.4776   -8.0356 C   0  0  0  0  0  0  0  0  0  0  0  0
   19.1184   70.7768   -7.1557 C   0  0  0  0  0  0  0  0  0  0  0  0
   19.6934   70.7303   -8.3590 C   0  0  0  0  0  0  0  0  0  0  0  0
   18.8468   70.5435   -9.5556 C   0  0  0  0  0  0  0  0  0  0  0  0
   16.9006   70.3038  -10.0691 H   0  0  0  0  0  0  0  0  0  0  0  0
   20.9203   73.0802   -1.2610 O   0  0  0  0  0  0  0  0  0  0  0  0
   21.8867   74.3739   -1.3390 P   0  0  2  0  0  0  0  0  0  0  0  0
   20.9215   75.5855   -0.8691 O   0  0  0  0  0  0  0  0  0  0  0  0
   22.5315   74.5810   -2.6789 O   0  0  0  0  0  0  0  0  0  0  0  0
   22.9247   74.1836   -0.1188 O   0  0  0  0  0  0  0  0  0  0  0  0
   23.0819   72.3775    1.4052 O   0  0  0  0  0  0  0  0  0  0  0  0
   24.4536   75.5311    3.6946 O   0  0  0  0  0  0  0  0  0  0  0  0
   22.1345   75.8664    1.9500 O   0  0  0  0  0  0  0  0  0  0  0  0
   26.3284   73.5944    2.6058 O   0  0  0  0  0  0  0  0  0  0  0  0
   24.2389   74.7887    2.4943 C   0  0  2  0  0  0  0  0  0  0  0  0
   22.7378   74.6158    2.2611 C   0  0  2  0  0  0  0  0  0  0  0  0
   24.9131   73.4243    2.6551 C   0  0  1  0  0  0  0  0  0  0  0  0
   22.4710   73.6359    1.1177 C   0  0  1  0  0  0  0  0  0  0  0  0
   24.4983   72.4636    1.5444 C   0  0  1  0  0  0  0  0  0  0  0  0
   24.0338   76.4022    3.6157 H   0  0  0  0  0  0  0  0  0  0  0  0
   22.3001   76.4931    2.6712 H   0  0  0  0  0  0  0  0  0  0  0  0
   26.6055   74.2039    3.3077 H   0  0  0  0  0  0  0  0  0  0  0  0
   23.9673   70.1826    1.4151 O   0  0  0  0  0  0  0  0  0  0  0  0
   25.8964   70.7418    2.4943 O   0  0  0  0  0  0  0  0  0  0  0  0
   24.8880   71.0615    1.8829 C   0  0  0  0  0  0  0  0  0  0  0  0
  1  4  1  0
  1 24  1  0
  1  2  1  6
  1  3  2  0
 25 28  1  0
 25 24  1  0
 25 26  1  1
 25 27  2  0
  6 11  1  0
  6 12  1  0
 29 36  1  0
 29 37  1  0
  9  7  1  6
  7 13  1  0
 10  8  1  1
  8 14  1  0
  4  5  1  0
 36 28  1  6
 33 30  1  1
 30 38  1  0
 34 31  1  6
 31 39  1  0
 35 32  1  6
 32 40  1  0
 41 43  1  0
 15 19  2  0
 42 43  2  0
 16 22  2  0
 12 17  1  6
 17 19  1  0
 17 20  1  0
 18 19  1  0
 18 22  1  0
 18 23  1  0
  9 10  1  0
  9 11  1  0
 10 12  1  0
 11  5  1  6
 33 34  1  0
 33 35  1  0
 34 36  1  0
 35 37  1  0
 37 43  1  1
 20 21  2  0
 21 22  1  0
M  CHG  3   2  -1  26  -1  41  -1
M  END
>  <COMPND>  (286) 
    udp_gluA.pdb 

>  <AUTHOR>  (286) 
    GENERATED BY OPEN BABEL 3.1.1

>  <MASTER>  (286) 
        0    0    0    0    0    0    0    0   56    0   56    0

>  <minimizedAffinity>  (286) 
-7.28882

>  <CNNscore>  (286) 
0.8626939058

>  <CNNaffinity>  (286) 
4.6769232750

>  <CNN_VS>  (286) 
4.0347533226

>  <CNNaffinity_variance>  (286) 
0.0951352268

$$$$
287
     RDKit          3D

 43 45  0  0  0  0  0  0  0  0999 V2000
   21.6670   72.8712   -4.8075 P   0  0  2  0  0  0  0  0  0  0  0  0
   21.6278   74.4813   -4.9649 O   0  0  0  0  0  0  0  0  0  0  0  0
   22.5884   72.1639   -5.7576 O   0  0  0  0  0  0  0  0  0  0  0  0
   20.1105   72.4354   -4.8829 O   0  0  0  0  0  0  0  0  0  0  0  0
   19.5951   71.5908   -3.8703 C   0  0  0  0  0  0  0  0  0  0  0  0
   17.6861   71.9349   -5.2898 O   0  0  0  0  0  0  0  0  0  0  0  0
   16.1034   70.4783   -3.2006 O   0  0  0  0  0  0  0  0  0  0  0  0
   16.4884   68.5608   -5.1009 O   0  0  0  0  0  0  0  0  0  0  0  0
   17.4433   70.2532   -3.6393 C   0  0  1  0  0  0  0  0  0  0  0  0
   17.4448   69.5954   -5.0030 C   0  0  2  0  0  0  0  0  0  0  0  0
   18.0734   71.6068   -3.9379 C   0  0  1  0  0  0  0  0  0  0  0  0
   17.1345   70.7672   -5.9187 C   0  0  2  0  0  0  0  0  0  0  0  0
   15.6801   69.6275   -3.0037 H   0  0  0  0  0  0  0  0  0  0  0  0
   16.7306   67.8387   -4.4993 H   0  0  0  0  0  0  0  0  0  0  0  0
   15.6681   70.6912   -8.3313 O   0  0  0  0  0  0  0  0  0  0  0  0
   19.4928   70.1842  -10.8529 O   0  0  0  0  0  0  0  0  0  0  0  0
   17.7218   70.6162   -7.2199 N   0  0  0  0  0  0  0  0  0  0  0  0
   17.5743   70.4377   -9.5848 N   0  0  0  0  0  0  0  0  0  0  0  0
   16.8958   70.5901   -8.3685 C   0  0  0  0  0  0  0  0  0  0  0  0
   19.1003   70.4978   -7.3492 C   0  0  0  0  0  0  0  0  0  0  0  0
   19.7326   70.3533   -8.5154 C   0  0  0  0  0  0  0  0  0  0  0  0
   18.9427   70.3154   -9.7637 C   0  0  0  0  0  0  0  0  0  0  0  0
   17.0202   70.4146  -10.3983 H   0  0  0  0  0  0  0  0  0  0  0  0
   22.0259   72.6680   -3.2446 O   0  0  0  0  0  0  0  0  0  0  0  0
   23.4071   72.2441   -2.5192 P   0  0  2  0  0  0  0  0  0  0  0  0
   24.3663   73.5230   -2.7739 O   0  0  0  0  0  0  0  0  0  0  0  0
   23.9772   70.9392   -2.9947 O   0  0  0  0  0  0  0  0  0  0  0  0
   23.0729   72.2936   -0.9418 O   0  0  0  0  0  0  0  0  0  0  0  0
   24.4296   71.1550    0.6306 O   0  0  0  0  0  0  0  0  0  0  0  0
   20.9498   71.7288    2.7823 O   0  0  0  0  0  0  0  0  0  0  0  0
   20.8402   70.9140   -0.0210 O   0  0  0  0  0  0  0  0  0  0  0  0
   23.2847   73.3760    3.3173 O   0  0  0  0  0  0  0  0  0  0  0  0
   21.9512   72.0452    1.8153 C   0  0  2  0  0  0  0  0  0  0  0  0
   22.0230   70.9320    0.7698 C   0  0  2  0  0  0  0  0  0  0  0  0
   23.2895   72.1762    2.5459 C   0  0  1  0  0  0  0  0  0  0  0  0
   23.2324   71.1197   -0.1472 C   0  0  1  0  0  0  0  0  0  0  0  0
   24.4568   72.2320    1.5647 C   0  0  1  0  0  0  0  0  0  0  0  0
   20.0903   71.6405    2.3410 H   0  0  0  0  0  0  0  0  0  0  0  0
   20.0687   70.7955    0.5545 H   0  0  0  0  0  0  0  0  0  0  0  0
   22.5462   73.3533    3.9458 H   0  0  0  0  0  0  0  0  0  0  0  0
   26.2023   70.7596    2.1003 O   0  0  0  0  0  0  0  0  0  0  0  0
   26.3435   72.8823    2.9207 O   0  0  0  0  0  0  0  0  0  0  0  0
   25.7560   72.0283    2.2737 C   0  0  0  0  0  0  0  0  0  0  0  0
  1  4  1  0
  1 24  1  0
  1  2  1  6
  1  3  2  0
 25 28  1  0
 25 24  1  0
 25 26  1  1
 25 27  2  0
  6 11  1  0
  6 12  1  0
 29 36  1  0
 29 37  1  0
  9  7  1  6
  7 13  1  0
 10  8  1  1
  8 14  1  0
  4  5  1  0
 36 28  1  1
 33 30  1  1
 30 38  1  0
 34 31  1  6
 31 39  1  0
 35 32  1  6
 32 40  1  0
 41 43  1  0
 15 19  2  0
 42 43  2  0
 16 22  2  0
 12 17  1  6
 17 19  1  0
 17 20  1  0
 18 19  1  0
 18 22  1  0
 18 23  1  0
  9 10  1  0
  9 11  1  0
 10 12  1  0
 11  5  1  6
 33 34  1  0
 33 35  1  0
 34 36  1  0
 35 37  1  0
 37 43  1  1
 20 21  2  0
 21 22  1  0
M  CHG  3   2  -1  26  -1  41  -1
M  END
>  <COMPND>  (287) 
    udp_gluA.pdb 

>  <AUTHOR>  (287) 
    GENERATED BY OPEN BABEL 3.1.1

>  <MASTER>  (287) 
        0    0    0    0    0    0    0    0   56    0   56    0

>  <minimizedAffinity>  (287) 
-8.24559

>  <CNNscore>  (287) 
0.8586135507

>  <CNNaffinity>  (287) 
4.6968412399

>  <CNN_VS>  (287) 
4.0327715874

>  <CNNaffinity_variance>  (287) 
0.0327362195

$$$$
288
     RDKit          3D

 43 45  0  0  0  0  0  0  0  0999 V2000
   20.4319   73.3258   -3.0338 P   0  0  2  0  0  0  0  0  0  0  0  0
   20.1128   72.7622   -1.5508 O   0  0  0  0  0  0  0  0  0  0  0  0
   19.6717   74.5607   -3.4194 O   0  0  0  0  0  0  0  0  0  0  0  0
   20.2168   72.0403   -3.9925 O   0  0  0  0  0  0  0  0  0  0  0  0
   19.4860   70.9367   -3.4900 C   0  0  0  0  0  0  0  0  0  0  0  0
   17.7339   71.8203   -4.8782 O   0  0  0  0  0  0  0  0  0  0  0  0
   15.8247   70.4147   -3.0422 O   0  0  0  0  0  0  0  0  0  0  0  0
   15.9340   68.7350   -5.1876 O   0  0  0  0  0  0  0  0  0  0  0  0
   17.1185   70.0053   -3.4860 C   0  0  1  0  0  0  0  0  0  0  0  0
   17.0580   69.5500   -4.9287 C   0  0  2  0  0  0  0  0  0  0  0  0
   17.9971   71.2454   -3.5799 C   0  0  1  0  0  0  0  0  0  0  0  0
   17.0059   70.8723   -5.6748 C   0  0  2  0  0  0  0  0  0  0  0  0
   15.2454   69.6392   -2.9745 H   0  0  0  0  0  0  0  0  0  0  0  0
   16.0146   67.9056   -4.6901 H   0  0  0  0  0  0  0  0  0  0  0  0
   15.5967   70.3142   -8.0580 O   0  0  0  0  0  0  0  0  0  0  0  0
   19.4289   70.5903  -10.6040 O   0  0  0  0  0  0  0  0  0  0  0  0
   17.6106   70.7924   -6.9743 N   0  0  0  0  0  0  0  0  0  0  0  0
   17.5069   70.4513   -9.3236 N   0  0  0  0  0  0  0  0  0  0  0  0
   16.8132   70.5060   -8.1076 C   0  0  0  0  0  0  0  0  0  0  0  0
   18.9774   70.9981   -7.1171 C   0  0  0  0  0  0  0  0  0  0  0  0
   19.6245   70.9428   -8.2829 C   0  0  0  0  0  0  0  0  0  0  0  0
   18.8648   70.6480   -9.5155 C   0  0  0  0  0  0  0  0  0  0  0  0
   16.9732   70.2514  -10.1265 H   0  0  0  0  0  0  0  0  0  0  0  0
   22.0386   73.5019   -3.0171 O   0  0  0  0  0  0  0  0  0  0  0  0
   23.0012   74.3709   -2.0518 P   0  0  2  0  0  0  0  0  0  0  0  0
   22.2712   75.8149   -2.0043 O   0  0  0  0  0  0  0  0  0  0  0  0
   24.4356   74.4173   -2.4926 O   0  0  0  0  0  0  0  0  0  0  0  0
   22.7728   73.7506   -0.5802 O   0  0  0  0  0  0  0  0  0  0  0  0
   24.1453   73.1578    1.2566 O   0  0  0  0  0  0  0  0  0  0  0  0
   21.5269   69.9661    1.0993 O   0  0  0  0  0  0  0  0  0  0  0  0
   22.6504   71.0823   -1.3556 O   0  0  0  0  0  0  0  0  0  0  0  0
   21.2201   72.0056    3.1481 O   0  0  0  0  0  0  0  0  0  0  0  0
   21.9342   71.3261    0.9496 C   0  0  2  0  0  0  0  0  0  0  0  0
   23.0942   71.4066   -0.0432 C   0  0  2  0  0  0  0  0  0  0  0  0
   22.3715   71.8427    2.3221 C   0  0  1  0  0  0  0  0  0  0  0  0
   23.7066   72.8079   -0.0566 C   0  0  1  0  0  0  0  0  0  0  0  0
   23.0854   73.1866    2.2100 C   0  0  1  0  0  0  0  0  0  0  0  0
   21.2446   69.6164    0.2394 H   0  0  0  0  0  0  0  0  0  0  0  0
   22.2604   70.1944   -1.3544 H   0  0  0  0  0  0  0  0  0  0  0  0
   20.7564   71.1573    3.2274 H   0  0  0  0  0  0  0  0  0  0  0  0
   25.1194   73.6780    3.2698 O   0  0  0  0  0  0  0  0  0  0  0  0
   23.2493   73.6411    4.5739 O   0  0  0  0  0  0  0  0  0  0  0  0
   23.7896   73.5211    3.4846 C   0  0  0  0  0  0  0  0  0  0  0  0
  1  4  1  0
  1 24  1  0
  1  2  1  1
  1  3  2  0
 25 28  1  0
 25 24  1  0
 25 26  1  1
 25 27  2  0
  6 11  1  0
  6 12  1  0
 29 36  1  0
 29 37  1  0
  9  7  1  6
  7 13  1  0
 10  8  1  1
  8 14  1  0
  4  5  1  0
 36 28  1  1
 33 30  1  1
 30 38  1  0
 34 31  1  6
 31 39  1  0
 35 32  1  1
 32 40  1  0
 41 43  1  0
 15 19  2  0
 42 43  2  0
 16 22  2  0
 12 17  1  6
 17 19  1  0
 17 20  1  0
 18 19  1  0
 18 22  1  0
 18 23  1  0
  9 10  1  0
  9 11  1  0
 10 12  1  0
 11  5  1  6
 33 34  1  0
 33 35  1  0
 34 36  1  0
 35 37  1  0
 37 43  1  1
 20 21  2  0
 21 22  1  0
M  CHG  3   2  -1  26  -1  41  -1
M  END
>  <COMPND>  (288) 
    udp_gluA.pdb 

>  <AUTHOR>  (288) 
    GENERATED BY OPEN BABEL 3.1.1

>  <MASTER>  (288) 
        0    0    0    0    0    0    0    0   56    0   56    0

>  <minimizedAffinity>  (288) 
-7.47779

>  <CNNscore>  (288) 
0.8311735988

>  <CNNaffinity>  (288) 
4.4883699417

>  <CNN_VS>  (288) 
3.7306146622

>  <CNNaffinity_variance>  (288) 
0.0774339810

$$$$
289
     RDKit          3D

 43 45  0  0  0  0  0  0  0  0999 V2000
   22.8045   72.2834   -3.9452 P   0  0  2  0  0  0  0  0  0  0  0  0
   23.1422   73.3596   -5.1057 O   0  0  0  0  0  0  0  0  0  0  0  0
   23.9884   71.5255   -3.4201 O   0  0  0  0  0  0  0  0  0  0  0  0
   21.6205   71.3835   -4.5825 O   0  0  0  0  0  0  0  0  0  0  0  0
   20.9624   70.4452   -3.7513 C   0  0  0  0  0  0  0  0  0  0  0  0
   19.0518   71.5788   -4.6690 O   0  0  0  0  0  0  0  0  0  0  0  0
   17.4819   70.3558   -2.4259 O   0  0  0  0  0  0  0  0  0  0  0  0
   16.8586   68.7457   -4.5366 O   0  0  0  0  0  0  0  0  0  0  0  0
   18.5685   69.8075   -3.1724 C   0  0  1  0  0  0  0  0  0  0  0  0
   18.1048   69.4098   -4.5578 C   0  0  2  0  0  0  0  0  0  0  0  0
   19.5465   70.9345   -3.4751 C   0  0  1  0  0  0  0  0  0  0  0  0
   18.0400   70.7522   -5.2661 C   0  0  2  0  0  0  0  0  0  0  0  0
   16.8436   69.6542   -2.2207 H   0  0  0  0  0  0  0  0  0  0  0  0
   16.9524   67.8969   -4.0754 H   0  0  0  0  0  0  0  0  0  0  0  0
   16.0919   70.0779   -7.1965 O   0  0  0  0  0  0  0  0  0  0  0  0
   19.1432   70.3581  -10.6396 O   0  0  0  0  0  0  0  0  0  0  0  0
   18.2981   70.6420   -6.6739 N   0  0  0  0  0  0  0  0  0  0  0  0
   17.6137   70.2171   -8.9094 N   0  0  0  0  0  0  0  0  0  0  0  0
   17.2493   70.2972   -7.5589 C   0  0  0  0  0  0  0  0  0  0  0  0
   19.5768   70.8756   -7.1651 C   0  0  0  0  0  0  0  0  0  0  0  0
   19.9089   70.7955   -8.4550 C   0  0  0  0  0  0  0  0  0  0  0  0
   18.8717   70.4399   -9.4455 C   0  0  0  0  0  0  0  0  0  0  0  0
   16.9008   69.9766   -9.5444 H   0  0  0  0  0  0  0  0  0  0  0  0
   22.0301   73.1728   -2.8397 O   0  0  0  0  0  0  0  0  0  0  0  0
   22.5681   74.3144   -1.8292 P   0  0  2  0  0  0  0  0  0  0  0  0
   21.3040   75.3169   -1.6971 O   0  0  0  0  0  0  0  0  0  0  0  0
   23.8402   74.9780   -2.2710 O   0  0  0  0  0  0  0  0  0  0  0  0
   22.6583   73.5817   -0.3948 O   0  0  0  0  0  0  0  0  0  0  0  0
   23.2313   71.3595    0.1902 O   0  0  0  0  0  0  0  0  0  0  0  0
   20.3847   72.2721    3.0418 O   0  0  0  0  0  0  0  0  0  0  0  0
   20.0029   73.0739    0.2587 O   0  0  0  0  0  0  0  0  0  0  0  0
   23.2025   72.2265    3.7553 O   0  0  0  0  0  0  0  0  0  0  0  0
   21.4507   72.5422    2.1315 C   0  0  2  0  0  0  0  0  0  0  0  0
   21.0146   72.1815    0.7113 C   0  0  2  0  0  0  0  0  0  0  0  0
   22.6554   71.6961    2.5495 C   0  0  1  0  0  0  0  0  0  0  0  0
   22.1981   72.2388   -0.2556 C   0  0  1  0  0  0  0  0  0  0  0  0
   23.7406   71.7037    1.4768 C   0  0  1  0  0  0  0  0  0  0  0  0
   19.6080   72.7988    2.7959 H   0  0  0  0  0  0  0  0  0  0  0  0
   19.2490   73.0429    0.8678 H   0  0  0  0  0  0  0  0  0  0  0  0
   22.5218   72.2274    4.4463 H   0  0  0  0  0  0  0  0  0  0  0  0
   25.4157   70.3174    0.5972 O   0  0  0  0  0  0  0  0  0  0  0  0
   24.9552   70.1099    2.8207 O   0  0  0  0  0  0  0  0  0  0  0  0
   24.7499   70.6329    1.7356 C   0  0  0  0  0  0  0  0  0  0  0  0
  1  4  1  0
  1 24  1  0
  1  2  1  6
  1  3  2  0
 25 28  1  0
 25 24  1  0
 25 26  1  1
 25 27  2  0
  6 11  1  0
  6 12  1  0
 29 36  1  0
 29 37  1  0
  9  7  1  1
  7 13  1  0
 10  8  1  1
  8 14  1  0
  4  5  1  0
 36 28  1  1
 33 30  1  1
 30 38  1  0
 34 31  1  6
 31 39  1  0
 35 32  1  1
 32 40  1  0
 41 43  1  0
 15 19  2  0
 42 43  2  0
 16 22  2  0
 12 17  1  6
 17 19  1  0
 17 20  1  0
 18 19  1  0
 18 22  1  0
 18 23  1  0
  9 10  1  0
  9 11  1  0
 10 12  1  0
 11  5  1  6
 33 34  1  0
 33 35  1  0
 34 36  1  0
 35 37  1  0
 37 43  1  1
 20 21  2  0
 21 22  1  0
M  CHG  3   2  -1  26  -1  41  -1
M  END
>  <COMPND>  (289) 
    udp_gluA.pdb 

>  <AUTHOR>  (289) 
    GENERATED BY OPEN BABEL 3.1.1

>  <MASTER>  (289) 
        0    0    0    0    0    0    0    0   56    0   56    0

>  <minimizedAffinity>  (289) 
-8.01568

>  <CNNscore>  (289) 
0.8118032813

>  <CNNaffinity>  (289) 
4.6536664963

>  <CNN_VS>  (289) 
3.7778618336

>  <CNNaffinity_variance>  (289) 
0.0301832594

$$$$
290
     RDKit          3D

 43 45  0  0  0  0  0  0  0  0999 V2000
   23.5281   72.0708   -3.3019 P   0  0  2  0  0  0  0  0  0  0  0  0
   24.2319   70.6392   -3.0299 O   0  0  0  0  0  0  0  0  0  0  0  0
   24.2763   72.9776   -4.2344 O   0  0  0  0  0  0  0  0  0  0  0  0
   23.2558   72.6578   -1.8189 O   0  0  0  0  0  0  0  0  0  0  0  0
   23.0968   71.7444   -0.7489 C   0  0  0  0  0  0  0  0  0  0  0  0
   22.9461   72.1192    1.6206 O   0  0  0  0  0  0  0  0  0  0  0  0
   21.1294   74.4100    0.9547 O   0  0  0  0  0  0  0  0  0  0  0  0
   23.5014   75.6575    1.4580 O   0  0  0  0  0  0  0  0  0  0  0  0
   22.2789   73.9350    0.2536 C   0  0  1  0  0  0  0  0  0  0  0  0
   23.5416   74.3248    0.9925 C   0  0  2  0  0  0  0  0  0  0  0  0
   22.3016   72.4165    0.3630 C   0  0  1  0  0  0  0  0  0  0  0  0
   23.5709   73.3109    2.1235 C   0  0  2  0  0  0  0  0  0  0  0  0
   21.0934   75.3781    0.8989 H   0  0  0  0  0  0  0  0  0  0  0  0
   23.4841   76.2642    0.7006 H   0  0  0  0  0  0  0  0  0  0  0  0
   25.1899   75.0073    3.6976 O   0  0  0  0  0  0  0  0  0  0  0  0
   28.6828   72.0002    3.6721 O   0  0  0  0  0  0  0  0  0  0  0  0
   24.9074   72.9961    2.5427 N   0  0  0  0  0  0  0  0  0  0  0  0
   26.9284   73.5084    3.6825 N   0  0  0  0  0  0  0  0  0  0  0  0
   25.6352   73.9179    3.3318 C   0  0  0  0  0  0  0  0  0  0  0  0
   25.4830   71.7862    2.1742 C   0  0  0  0  0  0  0  0  0  0  0  0
   26.7167   71.4099    2.5163 C   0  0  0  0  0  0  0  0  0  0  0  0
   27.5443   72.3158    3.3395 C   0  0  0  0  0  0  0  0  0  0  0  0
   27.4552   74.1345    4.2301 H   0  0  0  0  0  0  0  0  0  0  0  0
   22.0490   71.6580   -3.8065 O   0  0  0  0  0  0  0  0  0  0  0  0
   20.6400   72.4461   -3.7211 P   0  0  2  0  0  0  0  0  0  0  0  0
   21.0731   73.9971   -3.8857 O   0  0  0  0  0  0  0  0  0  0  0  0
   19.8453   72.1542   -2.4812 O   0  0  0  0  0  0  0  0  0  0  0  0
   19.8851   72.0855   -5.1004 O   0  0  0  0  0  0  0  0  0  0  0  0
   18.7961   70.1073   -5.8145 O   0  0  0  0  0  0  0  0  0  0  0  0
   20.4075   71.5041   -9.3530 O   0  0  0  0  0  0  0  0  0  0  0  0
   21.9630   71.5901   -6.8816 O   0  0  0  0  0  0  0  0  0  0  0  0
   17.5639   71.8012   -8.8270 O   0  0  0  0  0  0  0  0  0  0  0  0
   19.8363   71.6117   -8.0491 C   0  0  2  0  0  0  0  0  0  0  0  0
   20.7312   70.8951   -7.0376 C   0  0  2  0  0  0  0  0  0  0  0  0
   18.4499   70.9649   -8.0852 C   0  0  1  0  0  0  0  0  0  0  0  0
   20.0428   70.7900   -5.6760 C   0  0  1  0  0  0  0  0  0  0  0  0
   17.8844   70.7804   -6.6800 C   0  0  1  0  0  0  0  0  0  0  0  0
   21.2893   71.9086   -9.3543 H   0  0  0  0  0  0  0  0  0  0  0  0
   22.4051   71.6607   -7.7418 H   0  0  0  0  0  0  0  0  0  0  0  0
   17.9124   71.9268   -9.7234 H   0  0  0  0  0  0  0  0  0  0  0  0
   15.8540   70.2019   -7.7020 O   0  0  0  0  0  0  0  0  0  0  0  0
   16.5205   68.9392   -5.9243 O   0  0  0  0  0  0  0  0  0  0  0  0
   16.7030   69.8659   -6.6994 C   0  0  0  0  0  0  0  0  0  0  0  0
  1  4  1  0
  1 24  1  0
  1  2  1  1
  1  3  2  0
 25 28  1  0
 25 24  1  0
 25 26  1  6
 25 27  2  0
  6 11  1  0
  6 12  1  0
 29 36  1  0
 29 37  1  0
  9  7  1  1
  7 13  1  0
 10  8  1  1
  8 14  1  0
  4  5  1  0
 36 28  1  6
 33 30  1  6
 30 38  1  0
 34 31  1  1
 31 39  1  0
 35 32  1  6
 32 40  1  0
 41 43  1  0
 15 19  2  0
 42 43  2  0
 16 22  2  0
 12 17  1  6
 17 19  1  0
 17 20  1  0
 18 19  1  0
 18 22  1  0
 18 23  1  0
  9 10  1  0
  9 11  1  0
 10 12  1  0
 11  5  1  6
 33 34  1  0
 33 35  1  0
 34 36  1  0
 35 37  1  0
 37 43  1  6
 20 21  2  0
 21 22  1  0
M  CHG  3   2  -1  26  -1  41  -1
M  END
>  <COMPND>  (290) 
    udp_gluA.pdb 

>  <AUTHOR>  (290) 
    GENERATED BY OPEN BABEL 3.1.1

>  <MASTER>  (290) 
        0    0    0    0    0    0    0    0   56    0   56    0

>  <minimizedAffinity>  (290) 
-7.30821

>  <CNNscore>  (290) 
0.7827407718

>  <CNNaffinity>  (290) 
4.4394540787

>  <CNN_VS>  (290) 
3.4749417305

>  <CNNaffinity_variance>  (290) 
0.0981278569

$$$$
291
     RDKit          3D

 43 45  0  0  0  0  0  0  0  0999 V2000
   21.7886   72.3955   -5.5772 P   0  0  2  0  0  0  0  0  0  0  0  0
   21.1550   73.8412   -5.2200 O   0  0  0  0  0  0  0  0  0  0  0  0
   23.0354   72.4388   -6.4111 O   0  0  0  0  0  0  0  0  0  0  0  0
   20.5475   71.5733   -6.2110 O   0  0  0  0  0  0  0  0  0  0  0  0
   20.0670   71.9524   -7.4877 C   0  0  0  0  0  0  0  0  0  0  0  0
   18.7892   69.9527   -7.1050 O   0  0  0  0  0  0  0  0  0  0  0  0
   18.0946   70.0615  -10.0200 O   0  0  0  0  0  0  0  0  0  0  0  0
   15.8541   71.0683   -8.8356 O   0  0  0  0  0  0  0  0  0  0  0  0
   18.2712   71.1326   -9.0925 C   0  0  1  0  0  0  0  0  0  0  0  0
   17.0838   71.2169   -8.1570 C   0  0  2  0  0  0  0  0  0  0  0  0
   19.3984   70.7507   -8.1430 C   0  0  1  0  0  0  0  0  0  0  0  0
   17.3608   70.0766   -7.1922 C   0  0  2  0  0  0  0  0  0  0  0  0
   17.3792   70.2825  -10.6373 H   0  0  0  0  0  0  0  0  0  0  0  0
   15.7240   71.8188   -9.4371 H   0  0  0  0  0  0  0  0  0  0  0  0
   16.4830   68.0655   -5.4142 O   0  0  0  0  0  0  0  0  0  0  0  0
   15.3542   71.1561   -2.1866 O   0  0  0  0  0  0  0  0  0  0  0  0
   16.8330   70.3278   -5.8810 N   0  0  0  0  0  0  0  0  0  0  0  0
   15.9207   69.6068   -3.8088 N   0  0  0  0  0  0  0  0  0  0  0  0
   16.4200   69.2464   -5.0673 C   0  0  0  0  0  0  0  0  0  0  0  0
   16.7304   71.6321   -5.4127 C   0  0  0  0  0  0  0  0  0  0  0  0
   16.2525   71.9599   -4.2107 C   0  0  0  0  0  0  0  0  0  0  0  0
   15.7985   70.8893   -3.2991 C   0  0  0  0  0  0  0  0  0  0  0  0
   15.6249   68.8711   -3.2252 H   0  0  0  0  0  0  0  0  0  0  0  0
   21.9736   71.7114   -4.1244 O   0  0  0  0  0  0  0  0  0  0  0  0
   23.1384   71.8741   -3.0151 P   0  0  2  0  0  0  0  0  0  0  0  0
   23.6661   73.3859   -3.2519 O   0  0  0  0  0  0  0  0  0  0  0  0
   24.2107   70.8259   -3.0900 O   0  0  0  0  0  0  0  0  0  0  0  0
   22.3560   71.9320   -1.6055 O   0  0  0  0  0  0  0  0  0  0  0  0
   23.9894   72.4172    0.0394 O   0  0  0  0  0  0  0  0  0  0  0  0
   20.5300   72.3113    2.2954 O   0  0  0  0  0  0  0  0  0  0  0  0
   20.9998   70.3197    0.2103 O   0  0  0  0  0  0  0  0  0  0  0  0
   21.7561   74.8599    1.6230 O   0  0  0  0  0  0  0  0  0  0  0  0
   21.3176   72.5432    1.1275 C   0  0  2  0  0  0  0  0  0  0  0  0
   21.9779   71.2363    0.6877 C   0  0  2  0  0  0  0  0  0  0  0  0
   22.3818   73.5868    1.4743 C   0  0  1  0  0  0  0  0  0  0  0  0
   23.0061   71.4872   -0.4163 C   0  0  1  0  0  0  0  0  0  0  0  0
   23.4401   73.6883    0.3797 C   0  0  1  0  0  0  0  0  0  0  0  0
   19.8468   71.6511    2.0990 H   0  0  0  0  0  0  0  0  0  0  0  0
   20.3440   70.1561    0.9057 H   0  0  0  0  0  0  0  0  0  0  0  0
   21.0801   74.8090    2.3167 H   0  0  0  0  0  0  0  0  0  0  0  0
   25.1330   73.8894    1.9906 O   0  0  0  0  0  0  0  0  0  0  0  0
   25.0971   75.4411    0.3203 O   0  0  0  0  0  0  0  0  0  0  0  0
   24.6313   74.4501    0.8625 C   0  0  0  0  0  0  0  0  0  0  0  0
  1  4  1  0
  1 24  1  0
  1  2  1  1
  1  3  2  0
 25 28  1  0
 25 24  1  0
 25 26  1  6
 25 27  2  0
  6 11  1  0
  6 12  1  0
 29 36  1  0
 29 37  1  0
  9  7  1  6
  7 13  1  0
 10  8  1  6
  8 14  1  0
  4  5  1  0
 36 28  1  6
 33 30  1  1
 30 38  1  0
 34 31  1  6
 31 39  1  0
 35 32  1  6
 32 40  1  0
 41 43  1  0
 15 19  2  0
 42 43  2  0
 16 22  2  0
 12 17  1  1
 17 19  1  0
 17 20  1  0
 18 19  1  0
 18 22  1  0
 18 23  1  0
  9 10  1  0
  9 11  1  0
 10 12  1  0
 11  5  1  1
 33 34  1  0
 33 35  1  0
 34 36  1  0
 35 37  1  0
 37 43  1  1
 20 21  2  0
 21 22  1  0
M  CHG  3   2  -1  26  -1  41  -1
M  END
>  <COMPND>  (291) 
    udp_gluA.pdb 

>  <AUTHOR>  (291) 
    GENERATED BY OPEN BABEL 3.1.1

>  <MASTER>  (291) 
        0    0    0    0    0    0    0    0   56    0   56    0

>  <minimizedAffinity>  (291) 
-8.17636

>  <CNNscore>  (291) 
0.7250103354

>  <CNNaffinity>  (291) 
4.5279059410

>  <CNN_VS>  (291) 
3.2827785015

>  <CNNaffinity_variance>  (291) 
0.2093928754

$$$$
292
     RDKit          3D

 43 45  0  0  0  0  0  0  0  0999 V2000
   21.9558   72.5335   -5.9566 P   0  0  2  0  0  0  0  0  0  0  0  0
   21.2941   73.8622   -5.3117 O   0  0  0  0  0  0  0  0  0  0  0  0
   23.0342   72.7899   -6.9682 O   0  0  0  0  0  0  0  0  0  0  0  0
   20.6844   71.6836   -6.4850 O   0  0  0  0  0  0  0  0  0  0  0  0
   20.1363   72.0033   -7.7506 C   0  0  0  0  0  0  0  0  0  0  0  0
   18.9857   69.9542   -7.2456 O   0  0  0  0  0  0  0  0  0  0  0  0
   18.0879   69.9706  -10.1065 O   0  0  0  0  0  0  0  0  0  0  0  0
   15.8883   70.8953   -8.7864 O   0  0  0  0  0  0  0  0  0  0  0  0
   18.2760   71.0675   -9.2122 C   0  0  1  0  0  0  0  0  0  0  0  0
   17.1531   71.1153   -8.1978 C   0  0  2  0  0  0  0  0  0  0  0  0
   19.4830   70.7584   -8.3370 C   0  0  1  0  0  0  0  0  0  0  0  0
   17.5504   70.0092   -7.2352 C   0  0  2  0  0  0  0  0  0  0  0  0
   17.3219   70.1451  -10.6762 H   0  0  0  0  0  0  0  0  0  0  0  0
   15.6811   71.6264   -9.3902 H   0  0  0  0  0  0  0  0  0  0  0  0
   16.1733   68.1346   -5.6334 O   0  0  0  0  0  0  0  0  0  0  0  0
   15.8801   71.0886   -2.1075 O   0  0  0  0  0  0  0  0  0  0  0  0
   17.1025   70.2621   -5.8949 N   0  0  0  0  0  0  0  0  0  0  0  0
   16.0277   69.6080   -3.8792 N   0  0  0  0  0  0  0  0  0  0  0  0
   16.4194   69.2524   -5.1766 C   0  0  0  0  0  0  0  0  0  0  0  0
   17.3422   71.4973   -5.3050 C   0  0  0  0  0  0  0  0  0  0  0  0
   16.9628   71.8214   -4.0674 C   0  0  0  0  0  0  0  0  0  0  0  0
   16.2427   70.8233   -3.2496 C   0  0  0  0  0  0  0  0  0  0  0  0
   15.5486   68.9220   -3.3603 H   0  0  0  0  0  0  0  0  0  0  0  0
   22.4356   71.6999   -4.6575 O   0  0  0  0  0  0  0  0  0  0  0  0
   23.5225   72.0507   -3.5132 P   0  0  2  0  0  0  0  0  0  0  0  0
   24.5060   73.1056   -4.2481 O   0  0  0  0  0  0  0  0  0  0  0  0
   24.2200   70.8520   -2.9383 O   0  0  0  0  0  0  0  0  0  0  0  0
   22.7107   72.9340   -2.4347 O   0  0  0  0  0  0  0  0  0  0  0  0
   21.6618   71.5673   -0.8096 O   0  0  0  0  0  0  0  0  0  0  0  0
   20.2427   75.3136    0.2000 O   0  0  0  0  0  0  0  0  0  0  0  0
   20.4197   74.5024   -2.6009 O   0  0  0  0  0  0  0  0  0  0  0  0
   22.3211   74.0605    1.8003 O   0  0  0  0  0  0  0  0  0  0  0  0
   21.1888   74.3707   -0.3037 C   0  0  2  0  0  0  0  0  0  0  0  0
   20.5840   73.6245   -1.4932 C   0  0  2  0  0  0  0  0  0  0  0  0
   21.5263   73.3915    0.8230 C   0  0  1  0  0  0  0  0  0  0  0  0
   21.4729   72.4532   -1.9136 C   0  0  1  0  0  0  0  0  0  0  0  0
   22.3061   72.1884    0.3005 C   0  0  1  0  0  0  0  0  0  0  0  0
   20.0132   75.9463   -0.4988 H   0  0  0  0  0  0  0  0  0  0  0  0
   19.8569   75.2482   -2.3411 H   0  0  0  0  0  0  0  0  0  0  0  0
   21.8363   74.8285    2.1408 H   0  0  0  0  0  0  0  0  0  0  0  0
   21.4510   70.1236    1.0126 O   0  0  0  0  0  0  0  0  0  0  0  0
   23.0759   71.0756    2.2981 O   0  0  0  0  0  0  0  0  0  0  0  0
   22.3435   71.0971    1.3203 C   0  0  0  0  0  0  0  0  0  0  0  0
  1  4  1  0
  1 24  1  0
  1  2  1  1
  1  3  2  0
 25 28  1  0
 25 24  1  0
 25 26  1  6
 25 27  2  0
  6 11  1  0
  6 12  1  0
 29 36  1  0
 29 37  1  0
  9  7  1  6
  7 13  1  0
 10  8  1  6
  8 14  1  0
  4  5  1  0
 36 28  1  1
 33 30  1  1
 30 38  1  0
 34 31  1  6
 31 39  1  0
 35 32  1  1
 32 40  1  0
 41 43  1  0
 15 19  2  0
 42 43  2  0
 16 22  2  0
 12 17  1  1
 17 19  1  0
 17 20  1  0
 18 19  1  0
 18 22  1  0
 18 23  1  0
  9 10  1  0
  9 11  1  0
 10 12  1  0
 11  5  1  1
 33 34  1  0
 33 35  1  0
 34 36  1  0
 35 37  1  0
 37 43  1  1
 20 21  2  0
 21 22  1  0
M  CHG  3   2  -1  26  -1  41  -1
M  END
>  <COMPND>  (292) 
    udp_gluA.pdb 

>  <AUTHOR>  (292) 
    GENERATED BY OPEN BABEL 3.1.1

>  <MASTER>  (292) 
        0    0    0    0    0    0    0    0   56    0   56    0

>  <minimizedAffinity>  (292) 
-8.33965

>  <CNNscore>  (292) 
0.6884061694

>  <CNNaffinity>  (292) 
4.4885959625

>  <CNN_VS>  (292) 
3.0899772644

>  <CNNaffinity_variance>  (292) 
0.3525105417

$$$$
293
     RDKit          3D

 43 45  0  0  0  0  0  0  0  0999 V2000
   22.2799   73.1806   -7.0889 P   0  0  2  0  0  0  0  0  0  0  0  0
   21.1879   74.3220   -6.7377 O   0  0  0  0  0  0  0  0  0  0  0  0
   23.3729   73.6149   -8.0209 O   0  0  0  0  0  0  0  0  0  0  0  0
   21.3859   71.9284   -7.5895 O   0  0  0  0  0  0  0  0  0  0  0  0
   19.9773   72.0695   -7.6120 C   0  0  0  0  0  0  0  0  0  0  0  0
   18.8197   70.0173   -7.1366 O   0  0  0  0  0  0  0  0  0  0  0  0
   18.0595   69.9913  -10.0371 O   0  0  0  0  0  0  0  0  0  0  0  0
   15.7923   70.9138   -8.8352 O   0  0  0  0  0  0  0  0  0  0  0  0
   18.1963   71.1006   -9.1487 C   0  0  1  0  0  0  0  0  0  0  0  0
   17.0258   71.1514   -8.1897 C   0  0  2  0  0  0  0  0  0  0  0  0
   19.3624   70.8122   -8.2131 C   0  0  1  0  0  0  0  0  0  0  0  0
   17.3851   70.0605   -7.1954 C   0  0  2  0  0  0  0  0  0  0  0  0
   17.3204   70.1525  -10.6448 H   0  0  0  0  0  0  0  0  0  0  0  0
   15.6086   71.6358   -9.4573 H   0  0  0  0  0  0  0  0  0  0  0  0
   16.4316   68.0774   -5.4249 O   0  0  0  0  0  0  0  0  0  0  0  0
   15.4385   71.1946   -2.1782 O   0  0  0  0  0  0  0  0  0  0  0  0
   16.8718   70.3261   -5.8813 N   0  0  0  0  0  0  0  0  0  0  0  0
   15.9369   69.6319   -3.8099 N   0  0  0  0  0  0  0  0  0  0  0  0
   16.4176   69.2581   -5.0718 C   0  0  0  0  0  0  0  0  0  0  0  0
   16.8235   71.6310   -5.4062 C   0  0  0  0  0  0  0  0  0  0  0  0
   16.3627   71.9718   -4.2010 C   0  0  0  0  0  0  0  0  0  0  0  0
   15.8684   70.9157   -3.2934 C   0  0  0  0  0  0  0  0  0  0  0  0
   15.6133   68.9058   -3.2291 H   0  0  0  0  0  0  0  0  0  0  0  0
   22.7885   72.7039   -5.6305 O   0  0  0  0  0  0  0  0  0  0  0  0
   23.4207   73.5416   -4.4007 P   0  0  2  0  0  0  0  0  0  0  0  0
   23.2069   75.0811   -4.8532 O   0  0  0  0  0  0  0  0  0  0  0  0
   24.8426   73.1836   -4.0783 O   0  0  0  0  0  0  0  0  0  0  0  0
   22.3838   73.3272   -3.1836 O   0  0  0  0  0  0  0  0  0  0  0  0
   20.2681   72.3176   -3.5204 O   0  0  0  0  0  0  0  0  0  0  0  0
   19.6903   74.3086    0.0532 O   0  0  0  0  0  0  0  0  0  0  0  0
   21.1443   75.5857   -2.1353 O   0  0  0  0  0  0  0  0  0  0  0  0
   20.0611   71.4254    0.0326 O   0  0  0  0  0  0  0  0  0  0  0  0
   20.4334   73.5990   -0.9379 C   0  0  2  0  0  0  0  0  0  0  0  0
   20.4037   74.3765   -2.2540 C   0  0  2  0  0  0  0  0  0  0  0  0
   19.7880   72.2231   -1.1179 C   0  0  1  0  0  0  0  0  0  0  0  0
   20.9898   73.5435   -3.3948 C   0  0  1  0  0  0  0  0  0  0  0  0
   20.3362   71.5074   -2.3490 C   0  0  1  0  0  0  0  0  0  0  0  0
   20.0821   75.1864    0.1845 H   0  0  0  0  0  0  0  0  0  0  0  0
   20.7780   76.1191   -1.4130 H   0  0  0  0  0  0  0  0  0  0  0  0
   19.7174   71.8698    0.8233 H   0  0  0  0  0  0  0  0  0  0  0  0
   19.7294   69.9289   -3.9744 O   0  0  0  0  0  0  0  0  0  0  0  0
   18.6753   69.8019   -1.9565 O   0  0  0  0  0  0  0  0  0  0  0  0
   19.4834   70.3329   -2.7034 C   0  0  0  0  0  0  0  0  0  0  0  0
  1  4  1  0
  1 24  1  0
  1  2  1  1
  1  3  2  0
 25 28  1  0
 25 24  1  0
 25 26  1  6
 25 27  2  0
  6 11  1  0
  6 12  1  0
 29 36  1  0
 29 37  1  0
  9  7  1  6
  7 13  1  0
 10  8  1  6
  8 14  1  0
  4  5  1  0
 36 28  1  1
 33 30  1  1
 30 38  1  0
 34 31  1  1
 31 39  1  0
 35 32  1  1
 32 40  1  0
 41 43  1  0
 15 19  2  0
 42 43  2  0
 16 22  2  0
 12 17  1  1
 17 19  1  0
 17 20  1  0
 18 19  1  0
 18 22  1  0
 18 23  1  0
  9 10  1  0
  9 11  1  0
 10 12  1  0
 11  5  1  1
 33 34  1  0
 33 35  1  0
 34 36  1  0
 35 37  1  0
 37 43  1  6
 20 21  2  0
 21 22  1  0
M  CHG  3   2  -1  26  -1  41  -1
M  END
>  <COMPND>  (293) 
    udp_gluA.pdb 

>  <AUTHOR>  (293) 
    GENERATED BY OPEN BABEL 3.1.1

>  <MASTER>  (293) 
        0    0    0    0    0    0    0    0   56    0   56    0

>  <minimizedAffinity>  (293) 
-7.14242

>  <CNNscore>  (293) 
0.6682715416

>  <CNNaffinity>  (293) 
4.4875812531

>  <CNN_VS>  (293) 
2.9989228249

>  <CNNaffinity_variance>  (293) 
0.5165232420

$$$$
294
     RDKit          3D

 43 45  0  0  0  0  0  0  0  0999 V2000
   23.1538   71.4987   -2.7905 P   0  0  2  0  0  0  0  0  0  0  0  0
   23.2448   73.1056   -2.6215 O   0  0  0  0  0  0  0  0  0  0  0  0
   24.4383   70.8292   -3.1824 O   0  0  0  0  0  0  0  0  0  0  0  0
   21.9118   71.2845   -3.8052 O   0  0  0  0  0  0  0  0  0  0  0  0
   21.6394   72.2913   -4.7625 C   0  0  0  0  0  0  0  0  0  0  0  0
   20.5432   70.4734   -5.8900 O   0  0  0  0  0  0  0  0  0  0  0  0
   20.8669   72.0804   -8.4008 O   0  0  0  0  0  0  0  0  0  0  0  0
   18.2591   72.5264   -7.7398 O   0  0  0  0  0  0  0  0  0  0  0  0
   20.5969   72.5257   -7.0714 C   0  0  1  0  0  0  0  0  0  0  0  0
   19.1618   72.2206   -6.6976 C   0  0  2  0  0  0  0  0  0  0  0  0
   21.3726   71.6347   -6.1109 C   0  0  1  0  0  0  0  0  0  0  0  0
   19.2240   70.7331   -6.3955 C   0  0  2  0  0  0  0  0  0  0  0  0
   20.3820   72.6348   -9.0326 H   0  0  0  0  0  0  0  0  0  0  0  0
   18.2557   73.4847   -7.8938 H   0  0  0  0  0  0  0  0  0  0  0  0
   16.5843   69.9210   -6.9862 O   0  0  0  0  0  0  0  0  0  0  0  0
   15.6096   69.2203   -2.5361 O   0  0  0  0  0  0  0  0  0  0  0  0
   18.2594   70.3332   -5.4105 N   0  0  0  0  0  0  0  0  0  0  0  0
   16.1011   69.5738   -4.7691 N   0  0  0  0  0  0  0  0  0  0  0  0
   16.9600   69.9432   -5.8126 C   0  0  0  0  0  0  0  0  0  0  0  0
   18.6039   70.3282   -4.0643 C   0  0  0  0  0  0  0  0  0  0  0  0
   17.7743   69.9734   -3.0811 C   0  0  0  0  0  0  0  0  0  0  0  0
   16.3978   69.5533   -3.4159 C   0  0  0  0  0  0  0  0  0  0  0  0
   15.1903   69.3003   -5.0243 H   0  0  0  0  0  0  0  0  0  0  0  0
   22.5499   71.0180   -1.3703 O   0  0  0  0  0  0  0  0  0  0  0  0
   21.5124   71.7368   -0.3601 P   0  0  2  0  0  0  0  0  0  0  0  0
   20.7395   70.4903    0.3250 O   0  0  0  0  0  0  0  0  0  0  0  0
   20.6083   72.7396   -1.0167 O   0  0  0  0  0  0  0  0  0  0  0  0
   22.4373   72.3388    0.8165 O   0  0  0  0  0  0  0  0  0  0  0  0
   24.1645   71.4386    2.1640 O   0  0  0  0  0  0  0  0  0  0  0  0
   22.1584   73.8396    4.8619 O   0  0  0  0  0  0  0  0  0  0  0  0
   20.6762   72.1858    2.9638 O   0  0  0  0  0  0  0  0  0  0  0  0
   24.7052   74.7001    3.7554 O   0  0  0  0  0  0  0  0  0  0  0  0
   22.6528   73.4503    3.5805 C   0  0  2  0  0  0  0  0  0  0  0  0
   22.0755   72.0861    3.2021 C   0  0  2  0  0  0  0  0  0  0  0  0
   24.1791   73.3774    3.6647 C   0  0  1  0  0  0  0  0  0  0  0  0
   22.7558   71.5325    1.9493 C   0  0  1  0  0  0  0  0  0  0  0  0
   24.7733   72.6995    2.4334 C   0  0  1  0  0  0  0  0  0  0  0  0
   21.1901   73.8925    4.8326 H   0  0  0  0  0  0  0  0  0  0  0  0
   20.2382   72.5368    3.7547 H   0  0  0  0  0  0  0  0  0  0  0  0
   24.3348   75.1427    4.5350 H   0  0  0  0  0  0  0  0  0  0  0  0
   26.4030   71.0129    2.4594 O   0  0  0  0  0  0  0  0  0  0  0  0
   27.0816   73.1233    2.9931 O   0  0  0  0  0  0  0  0  0  0  0  0
   26.2044   72.3384    2.6654 C   0  0  0  0  0  0  0  0  0  0  0  0
  1  4  1  0
  1 24  1  0
  1  2  1  1
  1  3  2  0
 25 28  1  0
 25 24  1  0
 25 26  1  1
 25 27  2  0
  6 11  1  0
  6 12  1  0
 29 36  1  0
 29 37  1  0
  9  7  1  6
  7 13  1  0
 10  8  1  6
  8 14  1  0
  4  5  1  0
 36 28  1  6
 33 30  1  1
 30 38  1  0
 34 31  1  6
 31 39  1  0
 35 32  1  6
 32 40  1  0
 41 43  1  0
 15 19  2  0
 42 43  2  0
 16 22  2  0
 12 17  1  1
 17 19  1  0
 17 20  1  0
 18 19  1  0
 18 22  1  0
 18 23  1  0
  9 10  1  0
  9 11  1  0
 10 12  1  0
 11  5  1  1
 33 34  1  0
 33 35  1  0
 34 36  1  0
 35 37  1  0
 37 43  1  1
 20 21  2  0
 21 22  1  0
M  CHG  3   2  -1  26  -1  41  -1
M  END
>  <COMPND>  (294) 
    udp_gluA.pdb 

>  <AUTHOR>  (294) 
    GENERATED BY OPEN BABEL 3.1.1

>  <MASTER>  (294) 
        0    0    0    0    0    0    0    0   56    0   56    0

>  <minimizedAffinity>  (294) 
-7.99631

>  <CNNscore>  (294) 
0.6628896594

>  <CNNaffinity>  (294) 
4.4175786972

>  <CNN_VS>  (294) 
2.9283671379

>  <CNNaffinity_variance>  (294) 
0.1378456056

$$$$
295
     RDKit          3D

 43 45  0  0  0  0  0  0  0  0999 V2000
   17.9237   75.1109   -2.5972 P   0  0  2  0  0  0  0  0  0  0  0  0
   16.8685   76.2532   -2.1494 O   0  0  0  0  0  0  0  0  0  0  0  0
   18.8541   75.5075   -3.7058 O   0  0  0  0  0  0  0  0  0  0  0  0
   16.9961   73.8174   -2.8874 O   0  0  0  0  0  0  0  0  0  0  0  0
   17.2359   73.0630   -4.0612 C   0  0  0  0  0  0  0  0  0  0  0  0
   16.0106   71.5900   -5.5127 O   0  0  0  0  0  0  0  0  0  0  0  0
   15.6257   69.8420   -3.1069 O   0  0  0  0  0  0  0  0  0  0  0  0
   17.6480   68.5870   -4.4379 O   0  0  0  0  0  0  0  0  0  0  0  0
   16.7544   70.6341   -3.4771 C   0  0  1  0  0  0  0  0  0  0  0  0
   17.5018   69.9799   -4.6197 C   0  0  2  0  0  0  0  0  0  0  0  0
   16.2393   71.9126   -4.1238 C   0  0  1  0  0  0  0  0  0  0  0  0
   16.6232   70.3252   -5.8100 C   0  0  2  0  0  0  0  0  0  0  0  0
   15.9297   69.0195   -2.6914 H   0  0  0  0  0  0  0  0  0  0  0  0
   18.2155   68.4192   -3.6687 H   0  0  0  0  0  0  0  0  0  0  0  0
   15.4711   70.4598   -8.3851 O   0  0  0  0  0  0  0  0  0  0  0  0
   19.5973   70.7819  -10.4137 O   0  0  0  0  0  0  0  0  0  0  0  0
   17.3731   70.4445   -7.0283 N   0  0  0  0  0  0  0  0  0  0  0  0
   17.5273   70.6190   -9.3930 N   0  0  0  0  0  0  0  0  0  0  0  0
   16.6974   70.5040   -8.2701 C   0  0  0  0  0  0  0  0  0  0  0  0
   18.7608   70.5030   -6.9857 C   0  0  0  0  0  0  0  0  0  0  0  0
   19.5384   70.6127   -8.0646 C   0  0  0  0  0  0  0  0  0  0  0  0
   18.9114   70.6802   -9.4010 C   0  0  0  0  0  0  0  0  0  0  0  0
   17.0798   70.6602  -10.2690 H   0  0  0  0  0  0  0  0  0  0  0  0
   18.6561   74.7287   -1.2079 O   0  0  0  0  0  0  0  0  0  0  0  0
   19.6248   73.4927   -0.8237 P   0  0  2  0  0  0  0  0  0  0  0  0
   18.6484   72.2070   -0.9419 O   0  0  0  0  0  0  0  0  0  0  0  0
   20.3038   73.6333    0.5079 O   0  0  0  0  0  0  0  0  0  0  0  0
   20.6311   73.3564   -2.0772 O   0  0  0  0  0  0  0  0  0  0  0  0
   20.7908   72.4145   -4.2443 O   0  0  0  0  0  0  0  0  0  0  0  0
   24.1527   70.8695   -2.4064 O   0  0  0  0  0  0  0  0  0  0  0  0
   21.6093   70.9975   -0.9750 O   0  0  0  0  0  0  0  0  0  0  0  0
   24.4045   73.0452   -4.3178 O   0  0  0  0  0  0  0  0  0  0  0  0
   23.1366   71.8391   -2.6617 C   0  0  2  0  0  0  0  0  0  0  0  0
   21.7643   71.2313   -2.3699 C   0  0  2  0  0  0  0  0  0  0  0  0
   23.2345   72.2507   -4.1324 C   0  0  1  0  0  0  0  0  0  0  0  0
   20.6437   72.1559   -2.8476 C   0  0  1  0  0  0  0  0  0  0  0  0
   22.0185   73.0646   -4.5653 C   0  0  1  0  0  0  0  0  0  0  0  0
   24.1099   70.5929   -1.4774 H   0  0  0  0  0  0  0  0  0  0  0  0
   22.3172   70.4118   -0.6651 H   0  0  0  0  0  0  0  0  0  0  0  0
   25.1858   72.5388   -4.0458 H   0  0  0  0  0  0  0  0  0  0  0  0
   22.9983   72.5217   -6.6261 O   0  0  0  0  0  0  0  0  0  0  0  0
   21.0948   73.7760   -6.6777 O   0  0  0  0  0  0  0  0  0  0  0  0
   21.9588   73.1782   -6.0539 C   0  0  0  0  0  0  0  0  0  0  0  0
  1  4  1  0
  1 24  1  0
  1  2  1  1
  1  3  2  0
 25 28  1  0
 25 24  1  0
 25 26  1  1
 25 27  2  0
  6 11  1  0
  6 12  1  0
 29 36  1  0
 29 37  1  0
  9  7  1  6
  7 13  1  0
 10  8  1  1
  8 14  1  0
  4  5  1  0
 36 28  1  1
 33 30  1  6
 30 38  1  0
 34 31  1  1
 31 39  1  0
 35 32  1  1
 32 40  1  0
 41 43  1  0
 15 19  2  0
 42 43  2  0
 16 22  2  0
 12 17  1  6
 17 19  1  0
 17 20  1  0
 18 19  1  0
 18 22  1  0
 18 23  1  0
  9 10  1  0
  9 11  1  0
 10 12  1  0
 11  5  1  6
 33 34  1  0
 33 35  1  0
 34 36  1  0
 35 37  1  0
 37 43  1  6
 20 21  2  0
 21 22  1  0
M  CHG  3   2  -1  26  -1  41  -1
M  END
>  <COMPND>  (295) 
    udp_gluA.pdb 

>  <AUTHOR>  (295) 
    GENERATED BY OPEN BABEL 3.1.1

>  <MASTER>  (295) 
        0    0    0    0    0    0    0    0   56    0   56    0

>  <minimizedAffinity>  (295) 
-6.67854

>  <CNNscore>  (295) 
0.6508486271

>  <CNNaffinity>  (295) 
4.4287405014

>  <CNN_VS>  (295) 
2.8824396133

>  <CNNaffinity_variance>  (295) 
0.4001839757

$$$$
296
     RDKit          3D

 43 45  0  0  0  0  0  0  0  0999 V2000
   23.1474   73.4522   -4.2218 P   0  0  2  0  0  0  0  0  0  0  0  0
   24.1523   72.1879   -4.1191 O   0  0  0  0  0  0  0  0  0  0  0  0
   23.7683   74.7141   -4.7454 O   0  0  0  0  0  0  0  0  0  0  0  0
   22.4947   73.5508   -2.7446 O   0  0  0  0  0  0  0  0  0  0  0  0
   21.5341   74.5607   -2.4959 C   0  0  0  0  0  0  0  0  0  0  0  0
   20.8161   72.7071   -1.1445 O   0  0  0  0  0  0  0  0  0  0  0  0
   18.5850   74.4850   -0.2209 O   0  0  0  0  0  0  0  0  0  0  0  0
   20.3478   74.6133    1.8557 O   0  0  0  0  0  0  0  0  0  0  0  0
   19.9377   74.8199   -0.5320 C   0  0  1  0  0  0  0  0  0  0  0  0
   20.8620   74.3434    0.5683 C   0  0  2  0  0  0  0  0  0  0  0  0
   20.3753   73.9605   -1.7102 C   0  0  1  0  0  0  0  0  0  0  0  0
   20.9582   72.8555    0.2772 C   0  0  2  0  0  0  0  0  0  0  0  0
   18.2831   75.0215    0.5292 H   0  0  0  0  0  0  0  0  0  0  0  0
   20.3065   75.5733    1.9926 H   0  0  0  0  0  0  0  0  0  0  0  0
   21.3826   70.1233    0.8530 O   0  0  0  0  0  0  0  0  0  0  0  0
   25.8338   70.8302    1.8181 O   0  0  0  0  0  0  0  0  0  0  0  0
   22.2181   72.2984    0.6812 N   0  0  0  0  0  0  0  0  0  0  0  0
   23.5989   70.4782    1.3341 N   0  0  0  0  0  0  0  0  0  0  0  0
   22.3244   70.9127    0.9468 C   0  0  0  0  0  0  0  0  0  0  0  0
   23.3310   73.1207    0.8089 C   0  0  0  0  0  0  0  0  0  0  0  0
   24.5393   72.6919    1.1789 C   0  0  0  0  0  0  0  0  0  0  0  0
   24.7355   71.2578    1.4758 C   0  0  0  0  0  0  0  0  0  0  0  0
   23.6971   69.5176    1.5264 H   0  0  0  0  0  0  0  0  0  0  0  0
   21.9316   72.8775   -5.1187 O   0  0  0  0  0  0  0  0  0  0  0  0
   21.1220   73.5337   -6.3546 P   0  0  2  0  0  0  0  0  0  0  0  0
   22.0506   73.1827   -7.6332 O   0  0  0  0  0  0  0  0  0  0  0  0
   20.8248   74.9960   -6.1891 O   0  0  0  0  0  0  0  0  0  0  0  0
   19.8174   72.6012   -6.5305 O   0  0  0  0  0  0  0  0  0  0  0  0
   19.3095   70.4680   -5.6358 O   0  0  0  0  0  0  0  0  0  0  0  0
   17.4397   70.3029   -9.3161 O   0  0  0  0  0  0  0  0  0  0  0  0
   20.1019   71.4779   -9.0590 O   0  0  0  0  0  0  0  0  0  0  0  0
   15.8718   70.6900   -6.8989 O   0  0  0  0  0  0  0  0  0  0  0  0
   17.9291   70.9286   -8.1299 C   0  0  2  0  0  0  0  0  0  0  0  0
   19.4432   70.7375   -8.0380 C   0  0  2  0  0  0  0  0  0  0  0  0
   17.2366   70.2767   -6.9311 C   0  0  1  0  0  0  0  0  0  0  0  0
   19.9701   71.1904   -6.6756 C   0  0  1  0  0  0  0  0  0  0  0  0
   17.8996   70.6804   -5.6174 C   0  0  1  0  0  0  0  0  0  0  0  0
   17.8659   70.7010  -10.0914 H   0  0  0  0  0  0  0  0  0  0  0  0
   19.7722   71.1958   -9.9263 H   0  0  0  0  0  0  0  0  0  0  0  0
   15.4383   70.4391   -7.7295 H   0  0  0  0  0  0  0  0  0  0  0  0
   16.1970   70.1510   -4.0935 O   0  0  0  0  0  0  0  0  0  0  0  0
   18.0932   68.8871   -4.0150 O   0  0  0  0  0  0  0  0  0  0  0  0
   17.4423   69.8004   -4.4999 C   0  0  0  0  0  0  0  0  0  0  0  0
  1  4  1  0
  1 24  1  0
  1  2  1  1
  1  3  2  0
 25 28  1  0
 25 24  1  0
 25 26  1  6
 25 27  2  0
  6 11  1  0
  6 12  1  0
 29 36  1  0
 29 37  1  0
  9  7  1  1
  7 13  1  0
 10  8  1  1
  8 14  1  0
  4  5  1  0
 36 28  1  1
 33 30  1  6
 30 38  1  0
 34 31  1  6
 31 39  1  0
 35 32  1  1
 32 40  1  0
 41 43  1  0
 15 19  2  0
 42 43  2  0
 16 22  2  0
 12 17  1  6
 17 19  1  0
 17 20  1  0
 18 19  1  0
 18 22  1  0
 18 23  1  0
  9 10  1  0
  9 11  1  0
 10 12  1  0
 11  5  1  1
 33 34  1  0
 33 35  1  0
 34 36  1  0
 35 37  1  0
 37 43  1  1
 20 21  2  0
 21 22  1  0
M  CHG  3   2  -1  26  -1  41  -1
M  END
>  <COMPND>  (296) 
    udp_gluA.pdb 

>  <AUTHOR>  (296) 
    GENERATED BY OPEN BABEL 3.1.1

>  <MASTER>  (296) 
        0    0    0    0    0    0    0    0   56    0   56    0

>  <minimizedAffinity>  (296) 
-7.54437

>  <CNNscore>  (296) 
0.5869260430

>  <CNNaffinity>  (296) 
4.5111303329

>  <CNN_VS>  (296) 
2.6476998329

>  <CNNaffinity_variance>  (296) 
0.0930929482

$$$$
297
     RDKit          3D

 43 45  0  0  0  0  0  0  0  0999 V2000
   23.2184   71.6455   -2.8287 P   0  0  2  0  0  0  0  0  0  0  0  0
   23.5154   73.2327   -2.9363 O   0  0  0  0  0  0  0  0  0  0  0  0
   24.3852   70.7592   -3.1524 O   0  0  0  0  0  0  0  0  0  0  0  0
   21.9005   71.4340   -3.7432 O   0  0  0  0  0  0  0  0  0  0  0  0
   21.5875   72.4147   -4.7152 C   0  0  0  0  0  0  0  0  0  0  0  0
   20.5862   70.5518   -5.8574 O   0  0  0  0  0  0  0  0  0  0  0  0
   20.9646   72.1325   -8.3773 O   0  0  0  0  0  0  0  0  0  0  0  0
   18.3217   72.5151   -7.8250 O   0  0  0  0  0  0  0  0  0  0  0  0
   20.6306   72.5884   -7.0661 C   0  0  1  0  0  0  0  0  0  0  0  0
   19.1907   72.2488   -6.7440 C   0  0  2  0  0  0  0  0  0  0  0  0
   21.3918   71.7325   -6.0631 C   0  0  1  0  0  0  0  0  0  0  0  0
   19.2814   70.7679   -6.4178 C   0  0  2  0  0  0  0  0  0  0  0  0
   20.4900   72.6646   -9.0356 H   0  0  0  0  0  0  0  0  0  0  0  0
   18.2983   73.4707   -7.9931 H   0  0  0  0  0  0  0  0  0  0  0  0
   16.6829   69.8946   -7.0974 O   0  0  0  0  0  0  0  0  0  0  0  0
   15.5608   69.2076   -2.6800 O   0  0  0  0  0  0  0  0  0  0  0  0
   18.2899   70.3549   -5.4652 N   0  0  0  0  0  0  0  0  0  0  0  0
   16.1262   69.5542   -4.8966 N   0  0  0  0  0  0  0  0  0  0  0  0
   17.0148   69.9340   -5.9111 C   0  0  0  0  0  0  0  0  0  0  0  0
   18.5849   70.3678   -4.1073 C   0  0  0  0  0  0  0  0  0  0  0  0
   17.7276   70.0029   -3.1521 C   0  0  0  0  0  0  0  0  0  0  0  0
   16.3735   69.5507   -3.5333 C   0  0  0  0  0  0  0  0  0  0  0  0
   15.2314   69.2593   -5.1824 H   0  0  0  0  0  0  0  0  0  0  0  0
   22.6471   71.4844   -1.3252 O   0  0  0  0  0  0  0  0  0  0  0  0
   21.2274   71.9078   -0.6781 P   0  0  2  0  0  0  0  0  0  0  0  0
   20.3288   70.5727   -0.8521 O   0  0  0  0  0  0  0  0  0  0  0  0
   20.6214   73.1436   -1.2778 O   0  0  0  0  0  0  0  0  0  0  0  0
   21.5122   72.0033    0.9069 O   0  0  0  0  0  0  0  0  0  0  0  0
   22.0471   74.2313    1.5060 O   0  0  0  0  0  0  0  0  0  0  0  0
   22.5246   72.2559    5.1029 O   0  0  0  0  0  0  0  0  0  0  0  0
   23.4929   71.0629    2.6182 O   0  0  0  0  0  0  0  0  0  0  0  0
   20.1728   73.9016    4.6430 O   0  0  0  0  0  0  0  0  0  0  0  0
   21.9537   72.5041    3.8182 C   0  0  2  0  0  0  0  0  0  0  0  0
   23.0406   72.4058    2.7475 C   0  0  2  0  0  0  0  0  0  0  0  0
   21.3472   73.9090    3.8336 C   0  0  1  0  0  0  0  0  0  0  0  0
   22.5196   72.8884    1.3931 C   0  0  1  0  0  0  0  0  0  0  0  0
   20.9683   74.3677    2.4284 C   0  0  1  0  0  0  0  0  0  0  0  0
   22.9163   71.3684    5.1169 H   0  0  0  0  0  0  0  0  0  0  0  0
   23.8246   70.7500    3.4741 H   0  0  0  0  0  0  0  0  0  0  0  0
   20.4002   73.6113    5.5401 H   0  0  0  0  0  0  0  0  0  0  0  0
   21.1729   76.4306    3.5256 O   0  0  0  0  0  0  0  0  0  0  0  0
   20.1137   76.4270    1.5064 O   0  0  0  0  0  0  0  0  0  0  0  0
   20.6914   75.8357    2.4062 C   0  0  0  0  0  0  0  0  0  0  0  0
  1  4  1  0
  1 24  1  0
  1  2  1  1
  1  3  2  0
 25 28  1  0
 25 24  1  0
 25 26  1  1
 25 27  2  0
  6 11  1  0
  6 12  1  0
 29 36  1  0
 29 37  1  0
  9  7  1  6
  7 13  1  0
 10  8  1  6
  8 14  1  0
  4  5  1  0
 36 28  1  1
 33 30  1  1
 30 38  1  0
 34 31  1  6
 31 39  1  0
 35 32  1  1
 32 40  1  0
 41 43  1  0
 15 19  2  0
 42 43  2  0
 16 22  2  0
 12 17  1  1
 17 19  1  0
 17 20  1  0
 18 19  1  0
 18 22  1  0
 18 23  1  0
  9 10  1  0
  9 11  1  0
 10 12  1  0
 11  5  1  1
 33 34  1  0
 33 35  1  0
 34 36  1  0
 35 37  1  0
 37 43  1  1
 20 21  2  0
 21 22  1  0
M  CHG  3   2  -1  26  -1  41  -1
M  END
>  <COMPND>  (297) 
    udp_gluA.pdb 

>  <AUTHOR>  (297) 
    GENERATED BY OPEN BABEL 3.1.1

>  <MASTER>  (297) 
        0    0    0    0    0    0    0    0   56    0   56    0

>  <minimizedAffinity>  (297) 
-7.24414

>  <CNNscore>  (297) 
0.5601324439

>  <CNNaffinity>  (297) 
4.2489504814

>  <CNN_VS>  (297) 
2.3799750805

>  <CNNaffinity_variance>  (297) 
0.2461312264

$$$$
298
     RDKit          3D

 43 45  0  0  0  0  0  0  0  0999 V2000
   23.4605   72.2616   -3.5051 P   0  0  2  0  0  0  0  0  0  0  0  0
   24.0198   70.7825   -3.1611 O   0  0  0  0  0  0  0  0  0  0  0  0
   24.4847   73.2165   -4.0447 O   0  0  0  0  0  0  0  0  0  0  0  0
   22.7184   72.7229   -2.1434 O   0  0  0  0  0  0  0  0  0  0  0  0
   23.4794   72.8020   -0.9521 C   0  0  0  0  0  0  0  0  0  0  0  0
   24.4693   71.2896    0.6324 O   0  0  0  0  0  0  0  0  0  0  0  0
   21.6872   70.2903    1.1353 O   0  0  0  0  0  0  0  0  0  0  0  0
   22.1209   71.9409    3.2621 O   0  0  0  0  0  0  0  0  0  0  0  0
   22.1336   71.6166    0.8523 C   0  0  1  0  0  0  0  0  0  0  0  0
   22.8207   72.2083    2.0648 C   0  0  2  0  0  0  0  0  0  0  0  0
   23.2773   71.5239   -0.1485 C   0  0  1  0  0  0  0  0  0  0  0  0
   24.1800   71.5316    2.0184 C   0  0  2  0  0  0  0  0  0  0  0  0
   20.9563   70.3238    1.7728 H   0  0  0  0  0  0  0  0  0  0  0  0
   21.2627   72.3938    3.2429 H   0  0  0  0  0  0  0  0  0  0  0  0
   26.8413   70.6762    2.4214 O   0  0  0  0  0  0  0  0  0  0  0  0
   28.0821   74.7580    4.1659 O   0  0  0  0  0  0  0  0  0  0  0  0
   25.2190   72.3503    2.5762 N   0  0  0  0  0  0  0  0  0  0  0  0
   27.4565   72.7097    3.2908 N   0  0  0  0  0  0  0  0  0  0  0  0
   26.5227   71.8243    2.7366 C   0  0  0  0  0  0  0  0  0  0  0  0
   24.9429   73.6582    2.9558 C   0  0  0  0  0  0  0  0  0  0  0  0
   25.8435   74.4902    3.4826 C   0  0  0  0  0  0  0  0  0  0  0  0
   27.2292   74.0185    3.6844 C   0  0  0  0  0  0  0  0  0  0  0  0
   28.3706   72.3653    3.4141 H   0  0  0  0  0  0  0  0  0  0  0  0
   22.2279   71.9597   -4.5064 O   0  0  0  0  0  0  0  0  0  0  0  0
   21.5720   72.8545   -5.6823 P   0  0  2  0  0  0  0  0  0  0  0  0
   22.4877   72.5021   -6.9697 O   0  0  0  0  0  0  0  0  0  0  0  0
   21.4868   74.3198   -5.3664 O   0  0  0  0  0  0  0  0  0  0  0  0
   20.1523   72.1519   -5.9877 O   0  0  0  0  0  0  0  0  0  0  0  0
   19.4312   69.9637   -5.4390 O   0  0  0  0  0  0  0  0  0  0  0  0
   17.3231   70.6965   -8.9156 O   0  0  0  0  0  0  0  0  0  0  0  0
   20.1260   71.4881   -8.6886 O   0  0  0  0  0  0  0  0  0  0  0  0
   15.9771   70.8107   -6.3414 O   0  0  0  0  0  0  0  0  0  0  0  0
   17.9646   71.0322   -7.6853 C   0  0  2  0  0  0  0  0  0  0  0  0
   19.4440   70.6536   -7.7595 C   0  0  2  0  0  0  0  0  0  0  0  0
   17.2720   70.2553   -6.5634 C   0  0  1  0  0  0  0  0  0  0  0  0
   20.1115   70.7839   -6.3898 C   0  0  1  0  0  0  0  0  0  0  0  0
   18.0648   70.3308   -5.2617 C   0  0  1  0  0  0  0  0  0  0  0  0
   17.7465   71.1786   -9.6433 H   0  0  0  0  0  0  0  0  0  0  0  0
   19.7075   71.4106   -9.5600 H   0  0  0  0  0  0  0  0  0  0  0  0
   15.4623   70.7689   -7.1624 H   0  0  0  0  0  0  0  0  0  0  0  0
   18.3017   69.3620   -3.1388 O   0  0  0  0  0  0  0  0  0  0  0  0
   16.6350   68.5559   -4.4699 O   0  0  0  0  0  0  0  0  0  0  0  0
   17.5703   69.3190   -4.2799 C   0  0  0  0  0  0  0  0  0  0  0  0
  1  4  1  0
  1 24  1  0
  1  2  1  1
  1  3  2  0
 25 28  1  0
 25 24  1  0
 25 26  1  6
 25 27  2  0
  6 11  1  0
  6 12  1  0
 29 36  1  0
 29 37  1  0
  9  7  1  1
  7 13  1  0
 10  8  1  1
  8 14  1  0
  4  5  1  0
 36 28  1  1
 33 30  1  6
 30 38  1  0
 34 31  1  6
 31 39  1  0
 35 32  1  1
 32 40  1  0
 41 43  1  0
 15 19  2  0
 42 43  2  0
 16 22  2  0
 12 17  1  6
 17 19  1  0
 17 20  1  0
 18 19  1  0
 18 22  1  0
 18 23  1  0
  9 10  1  0
  9 11  1  0
 10 12  1  0
 11  5  1  1
 33 34  1  0
 33 35  1  0
 34 36  1  0
 35 37  1  0
 37 43  1  1
 20 21  2  0
 21 22  1  0
M  CHG  3   2  -1  26  -1  41  -1
M  END
>  <COMPND>  (298) 
    udp_gluA.pdb 

>  <AUTHOR>  (298) 
    GENERATED BY OPEN BABEL 3.1.1

>  <MASTER>  (298) 
        0    0    0    0    0    0    0    0   56    0   56    0

>  <minimizedAffinity>  (298) 
-8.22253

>  <CNNscore>  (298) 
0.5467950106

>  <CNNaffinity>  (298) 
4.4099164009

>  <CNN_VS>  (298) 
2.4113202095

>  <CNNaffinity_variance>  (298) 
0.1610581875

$$$$
299
     RDKit          3D

 43 45  0  0  0  0  0  0  0  0999 V2000
   21.5059   72.4970   -5.4943 P   0  0  2  0  0  0  0  0  0  0  0  0
   20.9166   73.9472   -5.9048 O   0  0  0  0  0  0  0  0  0  0  0  0
   22.9770   72.3204   -5.7324 O   0  0  0  0  0  0  0  0  0  0  0  0
   20.5393   71.4526   -6.2643 O   0  0  0  0  0  0  0  0  0  0  0  0
   20.0370   71.8098   -7.5389 C   0  0  0  0  0  0  0  0  0  0  0  0
   18.6660   69.8923   -7.0683 O   0  0  0  0  0  0  0  0  0  0  0  0
   17.9790   69.8995   -9.9872 O   0  0  0  0  0  0  0  0  0  0  0  0
   15.7880   71.0644   -8.8565 O   0  0  0  0  0  0  0  0  0  0  0  0
   18.2055   71.0026   -9.1094 C   0  0  1  0  0  0  0  0  0  0  0  0
   17.0228   71.1859   -8.1821 C   0  0  2  0  0  0  0  0  0  0  0  0
   19.3129   70.6121   -8.1402 C   0  0  1  0  0  0  0  0  0  0  0  0
   17.2451   70.0794   -7.1651 C   0  0  2  0  0  0  0  0  0  0  0  0
   17.2752   70.1254  -10.6159 H   0  0  0  0  0  0  0  0  0  0  0  0
   15.6938   71.7917   -9.4922 H   0  0  0  0  0  0  0  0  0  0  0  0
   16.5822   68.1893   -5.1740 O   0  0  0  0  0  0  0  0  0  0  0  0
   15.2728   71.4819   -2.2264 O   0  0  0  0  0  0  0  0  0  0  0  0
   16.7290   70.4153   -5.8683 N   0  0  0  0  0  0  0  0  0  0  0  0
   15.9297   69.8310   -3.7082 N   0  0  0  0  0  0  0  0  0  0  0  0
   16.4279   69.3897   -4.9411 C   0  0  0  0  0  0  0  0  0  0  0  0
   16.5276   71.7467   -5.5255 C   0  0  0  0  0  0  0  0  0  0  0  0
   16.0521   72.1519   -4.3463 C   0  0  0  0  0  0  0  0  0  0  0  0
   15.7117   71.1434   -3.3214 C   0  0  0  0  0  0  0  0  0  0  0  0
   15.7109   69.1350   -3.0470 H   0  0  0  0  0  0  0  0  0  0  0  0
   21.0504   72.3438   -3.9510 O   0  0  0  0  0  0  0  0  0  0  0  0
   20.5680   71.0500   -3.1101 P   0  0  2  0  0  0  0  0  0  0  0  0
   21.5063   69.8634   -3.6864 O   0  0  0  0  0  0  0  0  0  0  0  0
   19.0953   70.7721   -3.1987 O   0  0  0  0  0  0  0  0  0  0  0  0
   21.1117   71.3086   -1.6135 O   0  0  0  0  0  0  0  0  0  0  0  0
   21.5318   73.2296   -0.2935 O   0  0  0  0  0  0  0  0  0  0  0  0
   24.7633   70.8359    0.6532 O   0  0  0  0  0  0  0  0  0  0  0  0
   23.8361   71.0477   -2.1091 O   0  0  0  0  0  0  0  0  0  0  0  0
   22.5673   71.1339    2.5346 O   0  0  0  0  0  0  0  0  0  0  0  0
   23.4144   71.1161    0.2791 C   0  0  2  0  0  0  0  0  0  0  0  0
   23.3988   71.8830   -1.0434 C   0  0  2  0  0  0  0  0  0  0  0  0
   22.7807   71.9572    1.3896 C   0  0  1  0  0  0  0  0  0  0  0  0
   21.9946   72.3998   -1.3597 C   0  0  1  0  0  0  0  0  0  0  0  0
   21.4403   72.5399    0.9511 C   0  0  1  0  0  0  0  0  0  0  0  0
   25.1864   70.3022   -0.0378 H   0  0  0  0  0  0  0  0  0  0  0  0
   24.7264   70.7160   -1.9149 H   0  0  0  0  0  0  0  0  0  0  0  0
   23.4128   70.7567    2.8238 H   0  0  0  0  0  0  0  0  0  0  0  0
   21.1416   74.8344    1.3350 O   0  0  0  0  0  0  0  0  0  0  0  0
   20.5487   73.4127    3.0162 O   0  0  0  0  0  0  0  0  0  0  0  0
   20.9922   73.6082    1.8945 C   0  0  0  0  0  0  0  0  0  0  0  0
  1  4  1  0
  1 24  1  0
  1  2  1  6
  1  3  2  0
 25 28  1  0
 25 24  1  0
 25 26  1  6
 25 27  2  0
  6 11  1  0
  6 12  1  0
 29 36  1  0
 29 37  1  0
  9  7  1  6
  7 13  1  0
 10  8  1  6
  8 14  1  0
  4  5  1  0
 36 28  1  1
 33 30  1  1
 30 38  1  0
 34 31  1  6
 31 39  1  0
 35 32  1  1
 32 40  1  0
 41 43  1  0
 15 19  2  0
 42 43  2  0
 16 22  2  0
 12 17  1  1
 17 19  1  0
 17 20  1  0
 18 19  1  0
 18 22  1  0
 18 23  1  0
  9 10  1  0
  9 11  1  0
 10 12  1  0
 11  5  1  1
 33 34  1  0
 33 35  1  0
 34 36  1  0
 35 37  1  0
 37 43  1  1
 20 21  2  0
 21 22  1  0
M  CHG  3   2  -1  26  -1  41  -1
M  END
>  <COMPND>  (299) 
    udp_gluA.pdb 

>  <AUTHOR>  (299) 
    GENERATED BY OPEN BABEL 3.1.1

>  <MASTER>  (299) 
        0    0    0    0    0    0    0    0   56    0   56    0

>  <minimizedAffinity>  (299) 
-7.30257

>  <CNNscore>  (299) 
0.5396436453

>  <CNNaffinity>  (299) 
4.4317359924

>  <CNN_VS>  (299) 
2.3915581703

>  <CNNaffinity_variance>  (299) 
0.3396803737

$$$$
300
     RDKit          3D

 43 45  0  0  0  0  0  0  0  0999 V2000
   22.7930   73.3053   -4.0895 P   0  0  2  0  0  0  0  0  0  0  0  0
   24.0144   72.2557   -4.2481 O   0  0  0  0  0  0  0  0  0  0  0  0
   23.1650   74.7452   -4.2893 O   0  0  0  0  0  0  0  0  0  0  0  0
   22.1501   72.9388   -2.6506 O   0  0  0  0  0  0  0  0  0  0  0  0
   22.4991   73.7336   -1.5321 C   0  0  0  0  0  0  0  0  0  0  0  0
   23.2097   73.4025    0.7402 O   0  0  0  0  0  0  0  0  0  0  0  0
   24.2120   70.7235   -0.1596 O   0  0  0  0  0  0  0  0  0  0  0  0
   21.8544   70.0988    1.0600 O   0  0  0  0  0  0  0  0  0  0  0  0
   23.0503   71.4407   -0.5775 C   0  0  1  0  0  0  0  0  0  0  0  0
   21.9865   71.3879    0.4985 C   0  0  2  0  0  0  0  0  0  0  0  0
   23.3988   72.9225   -0.6086 C   0  0  1  0  0  0  0  0  0  0  0  0
   22.4978   72.4114    1.4979 C   0  0  2  0  0  0  0  0  0  0  0  0
   24.0137   69.7740   -0.1321 H   0  0  0  0  0  0  0  0  0  0  0  0
   21.5259   69.4840    0.3846 H   0  0  0  0  0  0  0  0  0  0  0  0
   22.3542   72.5723    4.3139 O   0  0  0  0  0  0  0  0  0  0  0  0
   18.3719   74.8880    4.1609 O   0  0  0  0  0  0  0  0  0  0  0  0
   21.4345   73.0507    2.2202 N   0  0  0  0  0  0  0  0  0  0  0  0
   20.3704   73.7246    4.2351 N   0  0  0  0  0  0  0  0  0  0  0  0
   21.4575   73.0759    3.6347 C   0  0  0  0  0  0  0  0  0  0  0  0
   20.3857   73.6449    1.5289 C   0  0  0  0  0  0  0  0  0  0  0  0
   19.3565   74.2597    2.1150 C   0  0  0  0  0  0  0  0  0  0  0  0
   19.3039   74.3296    3.5900 C   0  0  0  0  0  0  0  0  0  0  0  0
   20.3633   73.7532    5.2192 H   0  0  0  0  0  0  0  0  0  0  0  0
   21.6935   72.7429   -5.1325 O   0  0  0  0  0  0  0  0  0  0  0  0
   20.8164   73.4990   -6.2606 P   0  0  2  0  0  0  0  0  0  0  0  0
   21.7534   73.4118   -7.5777 O   0  0  0  0  0  0  0  0  0  0  0  0
   20.4028   74.8931   -5.8872 O   0  0  0  0  0  0  0  0  0  0  0  0
   19.5903   72.4961   -6.5660 O   0  0  0  0  0  0  0  0  0  0  0  0
   19.1548   70.2996   -5.7947 O   0  0  0  0  0  0  0  0  0  0  0  0
   17.5788   70.1781   -9.6117 O   0  0  0  0  0  0  0  0  0  0  0  0
   20.1338   71.5012   -9.1059 O   0  0  0  0  0  0  0  0  0  0  0  0
   15.8137   70.3653   -7.3095 O   0  0  0  0  0  0  0  0  0  0  0  0
   17.9374   70.7812   -8.3685 C   0  0  2  0  0  0  0  0  0  0  0  0
   19.4496   70.6791   -8.1675 C   0  0  2  0  0  0  0  0  0  0  0  0
   17.2007   70.0377   -7.2521 C   0  0  1  0  0  0  0  0  0  0  0  0
   19.8434   71.1047   -6.7523 C   0  0  1  0  0  0  0  0  0  0  0  0
   17.7368   70.4247   -5.8769 C   0  0  1  0  0  0  0  0  0  0  0  0
   18.0353   70.6342  -10.3362 H   0  0  0  0  0  0  0  0  0  0  0  0
   19.8884   71.2368  -10.0060 H   0  0  0  0  0  0  0  0  0  0  0  0
   15.4602   70.1241   -8.1799 H   0  0  0  0  0  0  0  0  0  0  0  0
   17.8866   69.6941   -3.6531 O   0  0  0  0  0  0  0  0  0  0  0  0
   16.4071   68.6091   -5.0069 O   0  0  0  0  0  0  0  0  0  0  0  0
   17.2548   69.4715   -4.8322 C   0  0  0  0  0  0  0  0  0  0  0  0
  1  4  1  0
  1 24  1  0
  1  2  1  6
  1  3  2  0
 25 28  1  0
 25 24  1  0
 25 26  1  6
 25 27  2  0
  6 11  1  0
  6 12  1  0
 29 36  1  0
 29 37  1  0
  9  7  1  1
  7 13  1  0
 10  8  1  1
  8 14  1  0
  4  5  1  0
 36 28  1  1
 33 30  1  6
 30 38  1  0
 34 31  1  6
 31 39  1  0
 35 32  1  1
 32 40  1  0
 41 43  1  0
 15 19  2  0
 42 43  2  0
 16 22  2  0
 12 17  1  6
 17 19  1  0
 17 20  1  0
 18 19  1  0
 18 22  1  0
 18 23  1  0
  9 10  1  0
  9 11  1  0
 10 12  1  0
 11  5  1  6
 33 34  1  0
 33 35  1  0
 34 36  1  0
 35 37  1  0
 37 43  1  1
 20 21  2  0
 21 22  1  0
M  CHG  3   2  -1  26  -1  41  -1
M  END
>  <COMPND>  (300) 
    udp_gluA.pdb 

>  <AUTHOR>  (300) 
    GENERATED BY OPEN BABEL 3.1.1

>  <MASTER>  (300) 
        0    0    0    0    0    0    0    0   56    0   56    0

>  <minimizedAffinity>  (300) 
-7.54646

>  <CNNscore>  (300) 
0.5359162688

>  <CNNaffinity>  (300) 
4.3239130974

>  <CNN_VS>  (300) 
2.3172552586

>  <CNNaffinity_variance>  (300) 
0.0392517783

$$$$
301
     RDKit          3D

 43 45  0  0  0  0  0  0  0  0999 V2000
   22.9253   72.3419   -4.0765 P   0  0  2  0  0  0  0  0  0  0  0  0
   23.4690   72.9854   -5.4582 O   0  0  0  0  0  0  0  0  0  0  0  0
   23.8533   71.3569   -3.4280 O   0  0  0  0  0  0  0  0  0  0  0  0
   21.4588   71.7771   -4.4616 O   0  0  0  0  0  0  0  0  0  0  0  0
   20.9047   70.7407   -3.6722 C   0  0  0  0  0  0  0  0  0  0  0  0
   18.8716   71.6400   -4.5862 O   0  0  0  0  0  0  0  0  0  0  0  0
   17.4613   70.2361   -2.3430 O   0  0  0  0  0  0  0  0  0  0  0  0
   17.0313   68.5658   -4.4552 O   0  0  0  0  0  0  0  0  0  0  0  0
   18.6044   69.8219   -3.0915 C   0  0  1  0  0  0  0  0  0  0  0  0
   18.1896   69.3736   -4.4768 C   0  0  2  0  0  0  0  0  0  0  0  0
   19.4410   71.0577   -3.3937 C   0  0  1  0  0  0  0  0  0  0  0  0
   17.9646   70.6996   -5.1832 C   0  0  2  0  0  0  0  0  0  0  0  0
   16.9113   69.4634   -2.1380 H   0  0  0  0  0  0  0  0  0  0  0  0
   17.2260   67.7337   -3.9952 H   0  0  0  0  0  0  0  0  0  0  0  0
   15.9756   70.4563   -7.1734 O   0  0  0  0  0  0  0  0  0  0  0  0
   19.1067   70.4124  -10.5554 O   0  0  0  0  0  0  0  0  0  0  0  0
   18.2322   70.6225   -6.5915 N   0  0  0  0  0  0  0  0  0  0  0  0
   17.5370   70.4336   -8.8559 N   0  0  0  0  0  0  0  0  0  0  0  0
   17.1609   70.5015   -7.5079 C   0  0  0  0  0  0  0  0  0  0  0  0
   19.5424   70.6686   -7.0522 C   0  0  0  0  0  0  0  0  0  0  0  0
   19.8853   70.6030   -8.3401 C   0  0  0  0  0  0  0  0  0  0  0  0
   18.8260   70.4748   -9.3623 C   0  0  0  0  0  0  0  0  0  0  0  0
   16.8086   70.3470   -9.5126 H   0  0  0  0  0  0  0  0  0  0  0  0
   22.5892   73.6428   -3.1779 O   0  0  0  0  0  0  0  0  0  0  0  0
   23.5611   74.6914   -2.4232 P   0  0  2  0  0  0  0  0  0  0  0  0
   22.5460   75.8579   -1.9444 O   0  0  0  0  0  0  0  0  0  0  0  0
   24.7107   75.1763   -3.2582 O   0  0  0  0  0  0  0  0  0  0  0  0
   23.9922   73.9424   -1.0609 O   0  0  0  0  0  0  0  0  0  0  0  0
   22.2100   73.3679    0.3891 O   0  0  0  0  0  0  0  0  0  0  0  0
   25.5018   72.6743    2.7872 O   0  0  0  0  0  0  0  0  0  0  0  0
   25.3858   75.0422    1.0802 O   0  0  0  0  0  0  0  0  0  0  0  0
   24.0618   70.4429    1.6046 O   0  0  0  0  0  0  0  0  0  0  0  0
   24.7744   72.7441    1.5608 C   0  0  2  0  0  0  0  0  0  0  0  0
   24.2866   74.1755    1.3359 C   0  0  2  0  0  0  0  0  0  0  0  0
   23.5852   71.7861    1.6611 C   0  0  1  0  0  0  0  0  0  0  0  0
   23.3142   74.2433    0.1575 C   0  0  1  0  0  0  0  0  0  0  0  0
   22.5980   72.0019    0.5177 C   0  0  1  0  0  0  0  0  0  0  0  0
   26.2625   73.2750    2.7468 H   0  0  0  0  0  0  0  0  0  0  0  0
   26.0070   75.0039    1.8239 H   0  0  0  0  0  0  0  0  0  0  0  0
   24.6912   70.2925    2.3271 H   0  0  0  0  0  0  0  0  0  0  0  0
   20.8065   71.6918    1.9995 O   0  0  0  0  0  0  0  0  0  0  0  0
   20.7594   70.5115    0.0491 O   0  0  0  0  0  0  0  0  0  0  0  0
   21.3035   71.3102    0.7968 C   0  0  0  0  0  0  0  0  0  0  0  0
  1  4  1  0
  1 24  1  0
  1  2  1  6
  1  3  2  0
 25 28  1  0
 25 24  1  0
 25 26  1  1
 25 27  2  0
  6 11  1  0
  6 12  1  0
 29 36  1  0
 29 37  1  0
  9  7  1  1
  7 13  1  0
 10  8  1  1
  8 14  1  0
  4  5  1  0
 36 28  1  6
 33 30  1  1
 30 38  1  0
 34 31  1  6
 31 39  1  0
 35 32  1  6
 32 40  1  0
 41 43  1  0
 15 19  2  0
 42 43  2  0
 16 22  2  0
 12 17  1  6
 17 19  1  0
 17 20  1  0
 18 19  1  0
 18 22  1  0
 18 23  1  0
  9 10  1  0
  9 11  1  0
 10 12  1  0
 11  5  1  6
 33 34  1  0
 33 35  1  0
 34 36  1  0
 35 37  1  0
 37 43  1  1
 20 21  2  0
 21 22  1  0
M  CHG  3   2  -1  26  -1  41  -1
M  END
>  <COMPND>  (301) 
    udp_gluA.pdb 

>  <AUTHOR>  (301) 
    GENERATED BY OPEN BABEL 3.1.1

>  <MASTER>  (301) 
        0    0    0    0    0    0    0    0   56    0   56    0

>  <minimizedAffinity>  (301) 
-7.68044

>  <CNNscore>  (301) 
0.8977020383

>  <CNNaffinity>  (301) 
4.8388228416

>  <CNN_VS>  (301) 
4.3438210487

>  <CNNaffinity_variance>  (301) 
0.0992984325

$$$$
302
     RDKit          3D

 43 45  0  0  0  0  0  0  0  0999 V2000
   20.5021   71.2153   -1.4393 P   0  0  2  0  0  0  0  0  0  0  0  0
   21.0730   70.5189   -0.0947 O   0  0  0  0  0  0  0  0  0  0  0  0
   19.9865   72.6129   -1.2591 O   0  0  0  0  0  0  0  0  0  0  0  0
   19.4354   70.1410   -2.0103 O   0  0  0  0  0  0  0  0  0  0  0  0
   19.1095   70.1784   -3.3876 C   0  0  0  0  0  0  0  0  0  0  0  0
   17.5025   71.3067   -4.7741 O   0  0  0  0  0  0  0  0  0  0  0  0
   15.4066   69.7914   -3.2568 O   0  0  0  0  0  0  0  0  0  0  0  0
   15.6034   68.3739   -5.5780 O   0  0  0  0  0  0  0  0  0  0  0  0
   16.7114   69.3730   -3.6580 C   0  0  1  0  0  0  0  0  0  0  0  0
   16.7383   69.0951   -5.1460 C   0  0  2  0  0  0  0  0  0  0  0  0
   17.6453   70.5698   -3.5405 C   0  0  1  0  0  0  0  0  0  0  0  0
   16.7962   70.4973   -5.7277 C   0  0  2  0  0  0  0  0  0  0  0  0
   14.7920   69.0433   -3.3235 H   0  0  0  0  0  0  0  0  0  0  0  0
   15.6126   67.4884   -5.1807 H   0  0  0  0  0  0  0  0  0  0  0  0
   15.5285   70.5671   -8.2506 O   0  0  0  0  0  0  0  0  0  0  0  0
   19.5623   70.6652  -10.4783 O   0  0  0  0  0  0  0  0  0  0  0  0
   17.4911   70.5415   -6.9832 N   0  0  0  0  0  0  0  0  0  0  0  0
   17.5388   70.6149   -9.3577 N   0  0  0  0  0  0  0  0  0  0  0  0
   16.7597   70.5739   -8.1940 C   0  0  0  0  0  0  0  0  0  0  0  0
   18.8804   70.5540   -7.0069 C   0  0  0  0  0  0  0  0  0  0  0  0
   19.6092   70.5933   -8.1240 C   0  0  0  0  0  0  0  0  0  0  0  0
   18.9223   70.6282   -9.4318 C   0  0  0  0  0  0  0  0  0  0  0  0
   17.0519   70.6359  -10.2132 H   0  0  0  0  0  0  0  0  0  0  0  0
   21.7396   71.0819   -2.4706 O   0  0  0  0  0  0  0  0  0  0  0  0
   23.0417   72.0141   -2.6924 P   0  0  2  0  0  0  0  0  0  0  0  0
   24.1638   70.9663   -3.2054 O   0  0  0  0  0  0  0  0  0  0  0  0
   23.4438   72.8081   -1.4833 O   0  0  0  0  0  0  0  0  0  0  0  0
   22.6914   72.9040   -3.9916 O   0  0  0  0  0  0  0  0  0  0  0  0
   20.3862   73.1297   -4.4857 O   0  0  0  0  0  0  0  0  0  0  0  0
   22.1321   74.6420   -7.9110 O   0  0  0  0  0  0  0  0  0  0  0  0
   23.1990   72.2359   -6.6434 O   0  0  0  0  0  0  0  0  0  0  0  0
   20.9631   76.4434   -5.9516 O   0  0  0  0  0  0  0  0  0  0  0  0
   22.0317   74.3589   -6.5154 C   0  0  2  0  0  0  0  0  0  0  0  0
   21.9594   72.8465   -6.3039 C   0  0  2  0  0  0  0  0  0  0  0  0
   20.7630   75.0316   -5.9864 C   0  0  1  0  0  0  0  0  0  0  0  0
   21.6216   72.5129   -4.8501 C   0  0  1  0  0  0  0  0  0  0  0  0
   20.4240   74.5521   -4.5780 C   0  0  1  0  0  0  0  0  0  0  0  0
   22.9312   74.2245   -8.2692 H   0  0  0  0  0  0  0  0  0  0  0  0
   23.4197   72.4437   -7.5646 H   0  0  0  0  0  0  0  0  0  0  0  0
   21.1797   76.7614   -6.8420 H   0  0  0  0  0  0  0  0  0  0  0  0
   18.2213   74.9330   -5.2882 O   0  0  0  0  0  0  0  0  0  0  0  0
   18.6697   75.2479   -3.0748 O   0  0  0  0  0  0  0  0  0  0  0  0
   19.0336   74.9497   -4.2025 C   0  0  0  0  0  0  0  0  0  0  0  0
  1  4  1  0
  1 24  1  0
  1  2  1  1
  1  3  2  0
 25 28  1  0
 25 24  1  0
 25 26  1  6
 25 27  2  0
  6 11  1  0
  6 12  1  0
 29 36  1  0
 29 37  1  0
  9  7  1  6
  7 13  1  0
 10  8  1  6
  8 14  1  0
  4  5  1  0
 36 28  1  1
 33 30  1  6
 30 38  1  0
 34 31  1  1
 31 39  1  0
 35 32  1  1
 32 40  1  0
 41 43  1  0
 15 19  2  0
 42 43  2  0
 16 22  2  0
 12 17  1  6
 17 19  1  0
 17 20  1  0
 18 19  1  0
 18 22  1  0
 18 23  1  0
  9 10  1  0
  9 11  1  0
 10 12  1  0
 11  5  1  6
 33 34  1  0
 33 35  1  0
 34 36  1  0
 35 37  1  0
 37 43  1  6
 20 21  2  0
 21 22  1  0
M  CHG  3   2  -1  26  -1  41  -1
M  END
>  <COMPND>  (302) 
    udp_gluA.pdb 

>  <AUTHOR>  (302) 
    GENERATED BY OPEN BABEL 3.1.1

>  <MASTER>  (302) 
        0    0    0    0    0    0    0    0   56    0   56    0

>  <minimizedAffinity>  (302) 
-7.98618

>  <CNNscore>  (302) 
0.8779404163

>  <CNNaffinity>  (302) 
4.6753253937

>  <CNN_VS>  (302) 
4.1046571732

>  <CNNaffinity_variance>  (302) 
0.9152914882

$$$$
303
     RDKit          3D

 43 45  0  0  0  0  0  0  0  0999 V2000
   23.3912   72.0042   -3.3805 P   0  0  2  0  0  0  0  0  0  0  0  0
   24.2263   72.9119   -4.4281 O   0  0  0  0  0  0  0  0  0  0  0  0
   24.0315   70.6939   -3.0266 O   0  0  0  0  0  0  0  0  0  0  0  0
   21.9157   71.9103   -4.0377 O   0  0  0  0  0  0  0  0  0  0  0  0
   21.1620   70.7281   -3.8413 C   0  0  0  0  0  0  0  0  0  0  0  0
   19.1314   71.7039   -4.6793 O   0  0  0  0  0  0  0  0  0  0  0  0
   17.7578   70.3716   -2.3707 O   0  0  0  0  0  0  0  0  0  0  0  0
   17.1754   68.7078   -4.4512 O   0  0  0  0  0  0  0  0  0  0  0  0
   18.8520   69.9069   -3.1615 C   0  0  1  0  0  0  0  0  0  0  0  0
   18.3635   69.4678   -4.5256 C   0  0  2  0  0  0  0  0  0  0  0  0
   19.7248   71.1059   -3.5064 C   0  0  1  0  0  0  0  0  0  0  0  0
   18.1638   70.7976   -5.2323 C   0  0  2  0  0  0  0  0  0  0  0  0
   17.1858   69.6231   -2.1379 H   0  0  0  0  0  0  0  0  0  0  0  0
   17.3549   67.8712   -3.9933 H   0  0  0  0  0  0  0  0  0  0  0  0
   16.1640   70.0730   -7.0903 O   0  0  0  0  0  0  0  0  0  0  0  0
   19.0705   70.4611  -10.6463 O   0  0  0  0  0  0  0  0  0  0  0  0
   18.3706   70.7015   -6.6496 N   0  0  0  0  0  0  0  0  0  0  0  0
   17.6138   70.2660   -8.8595 N   0  0  0  0  0  0  0  0  0  0  0  0
   17.2994   70.3290   -7.4956 C   0  0  0  0  0  0  0  0  0  0  0  0
   19.6219   70.9761   -7.1881 C   0  0  0  0  0  0  0  0  0  0  0  0
   19.9063   70.9118   -8.4903 C   0  0  0  0  0  0  0  0  0  0  0  0
   18.8429   70.5292   -9.4423 C   0  0  0  0  0  0  0  0  0  0  0  0
   16.8845   70.0067   -9.4681 H   0  0  0  0  0  0  0  0  0  0  0  0
   23.1692   73.0044   -2.1303 O   0  0  0  0  0  0  0  0  0  0  0  0
   22.1300   72.9430   -0.8933 P   0  0  2  0  0  0  0  0  0  0  0  0
   21.9904   71.3561   -0.6061 O   0  0  0  0  0  0  0  0  0  0  0  0
   20.8263   73.6422   -1.1490 O   0  0  0  0  0  0  0  0  0  0  0  0
   22.9598   73.5134    0.3671 O   0  0  0  0  0  0  0  0  0  0  0  0
   23.5203   71.8927    2.0005 O   0  0  0  0  0  0  0  0  0  0  0  0
   24.5299   75.4076    3.9226 O   0  0  0  0  0  0  0  0  0  0  0  0
   22.0637   75.2260    2.3671 O   0  0  0  0  0  0  0  0  0  0  0  0
   26.6072   73.6987    2.8202 O   0  0  0  0  0  0  0  0  0  0  0  0
   24.3494   74.5396    2.8037 C   0  0  2  0  0  0  0  0  0  0  0  0
   22.8830   74.1161    2.7158 C   0  0  2  0  0  0  0  0  0  0  0  0
   25.2458   73.3157    3.0052 C   0  0  1  0  0  0  0  0  0  0  0  0
   22.6940   73.0112    1.6754 C   0  0  1  0  0  0  0  0  0  0  0  0
   24.9105   72.2096    2.0089 C   0  0  1  0  0  0  0  0  0  0  0  0
   23.9699   76.1927    3.8166 H   0  0  0  0  0  0  0  0  0  0  0  0
   22.1789   75.9310    3.0230 H   0  0  0  0  0  0  0  0  0  0  0  0
   26.8334   74.4024    3.4483 H   0  0  0  0  0  0  0  0  0  0  0  0
   26.8977   71.0121    2.3536 O   0  0  0  0  0  0  0  0  0  0  0  0
   24.9394   69.9161    2.7578 O   0  0  0  0  0  0  0  0  0  0  0  0
   25.5461   70.9197    2.4146 C   0  0  0  0  0  0  0  0  0  0  0  0
  1  4  1  0
  1 24  1  0
  1  2  1  6
  1  3  2  0
 25 28  1  0
 25 24  1  0
 25 26  1  1
 25 27  2  0
  6 11  1  0
  6 12  1  0
 29 36  1  0
 29 37  1  0
  9  7  1  1
  7 13  1  0
 10  8  1  1
  8 14  1  0
  4  5  1  0
 36 28  1  6
 33 30  1  1
 30 38  1  0
 34 31  1  6
 31 39  1  0
 35 32  1  6
 32 40  1  0
 41 43  1  0
 15 19  2  0
 42 43  2  0
 16 22  2  0
 12 17  1  6
 17 19  1  0
 17 20  1  0
 18 19  1  0
 18 22  1  0
 18 23  1  0
  9 10  1  0
  9 11  1  0
 10 12  1  0
 11  5  1  6
 33 34  1  0
 33 35  1  0
 34 36  1  0
 35 37  1  0
 37 43  1  1
 20 21  2  0
 21 22  1  0
M  CHG  3   2  -1  26  -1  41  -1
M  END
>  <COMPND>  (303) 
    udp_gluA.pdb 

>  <AUTHOR>  (303) 
    GENERATED BY OPEN BABEL 3.1.1

>  <MASTER>  (303) 
        0    0    0    0    0    0    0    0   56    0   56    0

>  <minimizedAffinity>  (303) 
-7.88620

>  <CNNscore>  (303) 
0.8722398877

>  <CNNaffinity>  (303) 
4.6202669144

>  <CNN_VS>  (303) 
4.0299811363

>  <CNNaffinity_variance>  (303) 
0.0581061468

$$$$
304
     RDKit          3D

 43 45  0  0  0  0  0  0  0  0999 V2000
   21.4639   71.7216   -2.5667 P   0  0  2  0  0  0  0  0  0  0  0  0
   22.1465   73.0940   -3.0858 O   0  0  0  0  0  0  0  0  0  0  0  0
   22.2145   70.4696   -2.9148 O   0  0  0  0  0  0  0  0  0  0  0  0
   19.9465   71.8083   -3.1215 O   0  0  0  0  0  0  0  0  0  0  0  0
   19.2474   70.6024   -3.3697 C   0  0  0  0  0  0  0  0  0  0  0  0
   17.5360   71.5675   -4.7544 O   0  0  0  0  0  0  0  0  0  0  0  0
   15.5776   70.0281   -3.0851 O   0  0  0  0  0  0  0  0  0  0  0  0
   15.7743   68.4992   -5.3345 O   0  0  0  0  0  0  0  0  0  0  0  0
   16.8893   69.6581   -3.5108 C   0  0  1  0  0  0  0  0  0  0  0  0
   16.8818   69.3017   -4.9822 C   0  0  2  0  0  0  0  0  0  0  0  0
   17.7598   70.9071   -3.4898 C   0  0  1  0  0  0  0  0  0  0  0  0
   16.8436   70.6715   -5.6382 C   0  0  2  0  0  0  0  0  0  0  0  0
   15.0030   69.2461   -3.0903 H   0  0  0  0  0  0  0  0  0  0  0  0
   15.8451   67.6384   -4.8920 H   0  0  0  0  0  0  0  0  0  0  0  0
   15.5062   70.3710   -8.1075 O   0  0  0  0  0  0  0  0  0  0  0  0
   19.4360   70.7361  -10.4883 O   0  0  0  0  0  0  0  0  0  0  0  0
   17.4929   70.6841   -6.9185 N   0  0  0  0  0  0  0  0  0  0  0  0
   17.4649   70.5521   -9.2909 N   0  0  0  0  0  0  0  0  0  0  0  0
   16.7290   70.5247   -8.0989 C   0  0  0  0  0  0  0  0  0  0  0  0
   18.8698   70.8546   -6.9963 C   0  0  0  0  0  0  0  0  0  0  0  0
   19.5571   70.8787   -8.1399 C   0  0  0  0  0  0  0  0  0  0  0  0
   18.8344   70.7182   -9.4187 C   0  0  0  0  0  0  0  0  0  0  0  0
   16.9551   70.4410  -10.1258 H   0  0  0  0  0  0  0  0  0  0  0  0
   21.2866   71.9816   -0.9812 O   0  0  0  0  0  0  0  0  0  0  0  0
   22.0666   71.3584    0.2903 P   0  0  2  0  0  0  0  0  0  0  0  0
   23.5905   71.2258   -0.2392 O   0  0  0  0  0  0  0  0  0  0  0  0
   21.4777   70.0775    0.8067 O   0  0  0  0  0  0  0  0  0  0  0  0
   22.1133   72.5567    1.3694 O   0  0  0  0  0  0  0  0  0  0  0  0
   21.9073   72.6511    3.7269 O   0  0  0  0  0  0  0  0  0  0  0  0
   19.8837   76.0617    2.5688 O   0  0  0  0  0  0  0  0  0  0  0  0
   19.5338   73.5613    1.0992 O   0  0  0  0  0  0  0  0  0  0  0  0
   22.5545   76.2626    3.6991 O   0  0  0  0  0  0  0  0  0  0  0  0
   20.8770   75.0407    2.4751 C   0  0  2  0  0  0  0  0  0  0  0  0
   20.1984   73.6762    2.3521 C   0  0  2  0  0  0  0  0  0  0  0  0
   21.7338   75.0967    3.7418 C   0  0  1  0  0  0  0  0  0  0  0  0
   21.2187   72.5442    2.4803 C   0  0  1  0  0  0  0  0  0  0  0  0
   22.6343   73.8705    3.8601 C   0  0  1  0  0  0  0  0  0  0  0  0
   19.3269   76.0453    1.7745 H   0  0  0  0  0  0  0  0  0  0  0  0
   18.8851   74.2766    1.0109 H   0  0  0  0  0  0  0  0  0  0  0  0
   21.9935   77.0503    3.6237 H   0  0  0  0  0  0  0  0  0  0  0  0
   22.5282   72.8618    5.9750 O   0  0  0  0  0  0  0  0  0  0  0  0
   24.1720   74.4062    5.6404 O   0  0  0  0  0  0  0  0  0  0  0  0
   23.2129   73.7677    5.2337 C   0  0  0  0  0  0  0  0  0  0  0  0
  1  4  1  0
  1 24  1  0
  1  2  1  6
  1  3  2  0
 25 28  1  0
 25 24  1  0
 25 26  1  6
 25 27  2  0
  6 11  1  0
  6 12  1  0
 29 36  1  0
 29 37  1  0
  9  7  1  6
  7 13  1  0
 10  8  1  1
  8 14  1  0
  4  5  1  0
 36 28  1  6
 33 30  1  1
 30 38  1  0
 34 31  1  6
 31 39  1  0
 35 32  1  6
 32 40  1  0
 41 43  1  0
 15 19  2  0
 42 43  2  0
 16 22  2  0
 12 17  1  6
 17 19  1  0
 17 20  1  0
 18 19  1  0
 18 22  1  0
 18 23  1  0
  9 10  1  0
  9 11  1  0
 10 12  1  0
 11  5  1  6
 33 34  1  0
 33 35  1  0
 34 36  1  0
 35 37  1  0
 37 43  1  1
 20 21  2  0
 21 22  1  0
M  CHG  3   2  -1  26  -1  41  -1
M  END
>  <COMPND>  (304) 
    udp_gluA.pdb 

>  <AUTHOR>  (304) 
    GENERATED BY OPEN BABEL 3.1.1

>  <MASTER>  (304) 
        0    0    0    0    0    0    0    0   56    0   56    0

>  <minimizedAffinity>  (304) 
-7.41836

>  <CNNscore>  (304) 
0.8469095826

>  <CNNaffinity>  (304) 
4.5615134239

>  <CNN_VS>  (304) 
3.8631894588

>  <CNNaffinity_variance>  (304) 
0.0830261409

$$$$
305
     RDKit          3D

 43 45  0  0  0  0  0  0  0  0999 V2000
   21.3850   73.0557   -4.6171 P   0  0  2  0  0  0  0  0  0  0  0  0
   21.3343   74.6337   -4.2617 O   0  0  0  0  0  0  0  0  0  0  0  0
   22.2172   72.7025   -5.8148 O   0  0  0  0  0  0  0  0  0  0  0  0
   19.8275   72.6240   -4.6918 O   0  0  0  0  0  0  0  0  0  0  0  0
   19.3474   71.6626   -3.7699 C   0  0  0  0  0  0  0  0  0  0  0  0
   17.4618   71.8941   -5.2425 O   0  0  0  0  0  0  0  0  0  0  0  0
   15.9158   70.3268   -3.2067 O   0  0  0  0  0  0  0  0  0  0  0  0
   16.4761   68.4498   -5.1038 O   0  0  0  0  0  0  0  0  0  0  0  0
   17.2793   70.1900   -3.6075 C   0  0  1  0  0  0  0  0  0  0  0  0
   17.3615   69.5423   -4.9735 C   0  0  2  0  0  0  0  0  0  0  0  0
   17.8304   71.5826   -3.8815 C   0  0  1  0  0  0  0  0  0  0  0  0
   17.0038   70.6979   -5.8925 C   0  0  2  0  0  0  0  0  0  0  0  0
   15.5419   69.4497   -3.0261 H   0  0  0  0  0  0  0  0  0  0  0  0
   16.7463   67.7407   -4.4988 H   0  0  0  0  0  0  0  0  0  0  0  0
   15.6190   70.6527   -8.3536 O   0  0  0  0  0  0  0  0  0  0  0  0
   19.5343   70.2916  -10.7586 O   0  0  0  0  0  0  0  0  0  0  0  0
   17.6365   70.5928   -7.1768 N   0  0  0  0  0  0  0  0  0  0  0  0
   17.5703   70.4719   -9.5490 N   0  0  0  0  0  0  0  0  0  0  0  0
   16.8492   70.5786   -8.3525 C   0  0  0  0  0  0  0  0  0  0  0  0
   19.0207   70.5069   -7.2631 C   0  0  0  0  0  0  0  0  0  0  0  0
   19.6938   70.4058   -8.4110 C   0  0  0  0  0  0  0  0  0  0  0  0
   18.9462   70.3832   -9.6853 C   0  0  0  0  0  0  0  0  0  0  0  0
   17.0437   70.4579  -10.3808 H   0  0  0  0  0  0  0  0  0  0  0  0
   21.8814   72.3874   -3.2315 O   0  0  0  0  0  0  0  0  0  0  0  0
   23.3650   72.1870   -2.6214 P   0  0  2  0  0  0  0  0  0  0  0  0
   24.0994   73.5876   -2.9670 O   0  0  0  0  0  0  0  0  0  0  0  0
   24.0817   70.9705   -3.1320 O   0  0  0  0  0  0  0  0  0  0  0  0
   23.1577   72.2198   -1.0219 O   0  0  0  0  0  0  0  0  0  0  0  0
   24.0250   70.6918    0.5662 O   0  0  0  0  0  0  0  0  0  0  0  0
   20.5926   72.0068    2.4522 O   0  0  0  0  0  0  0  0  0  0  0  0
   20.5724   71.4001   -0.4054 O   0  0  0  0  0  0  0  0  0  0  0  0
   23.1937   72.9799    3.3113 O   0  0  0  0  0  0  0  0  0  0  0  0
   21.7343   72.1125    1.6017 C   0  0  2  0  0  0  0  0  0  0  0  0
   21.6362   71.0759    0.4822 C   0  0  2  0  0  0  0  0  0  0  0  0
   22.9819   71.8616    2.4516 C   0  0  1  0  0  0  0  0  0  0  0  0
   22.9416   71.0021   -0.3110 C   0  0  1  0  0  0  0  0  0  0  0  0
   24.2208   71.6744    1.5806 C   0  0  1  0  0  0  0  0  0  0  0  0
   19.7874   72.1624    1.9338 H   0  0  0  0  0  0  0  0  0  0  0  0
   19.7409   71.4488    0.0913 H   0  0  0  0  0  0  0  0  0  0  0  0
   22.4123   73.1101    3.8710 H   0  0  0  0  0  0  0  0  0  0  0  0
   25.0812   69.8372    2.7578 O   0  0  0  0  0  0  0  0  0  0  0  0
   26.3802   71.7084    2.6565 O   0  0  0  0  0  0  0  0  0  0  0  0
   25.3508   71.1112    2.3796 C   0  0  0  0  0  0  0  0  0  0  0  0
  1  4  1  0
  1 24  1  0
  1  2  1  1
  1  3  2  0
 25 28  1  0
 25 24  1  0
 25 26  1  6
 25 27  2  0
  6 11  1  0
  6 12  1  0
 29 36  1  0
 29 37  1  0
  9  7  1  6
  7 13  1  0
 10  8  1  1
  8 14  1  0
  4  5  1  0
 36 28  1  1
 33 30  1  1
 30 38  1  0
 34 31  1  6
 31 39  1  0
 35 32  1  1
 32 40  1  0
 41 43  1  0
 15 19  2  0
 42 43  2  0
 16 22  2  0
 12 17  1  6
 17 19  1  0
 17 20  1  0
 18 19  1  0
 18 22  1  0
 18 23  1  0
  9 10  1  0
  9 11  1  0
 10 12  1  0
 11  5  1  6
 33 34  1  0
 33 35  1  0
 34 36  1  0
 35 37  1  0
 37 43  1  1
 20 21  2  0
 21 22  1  0
M  CHG  3   2  -1  26  -1  41  -1
M  END
>  <COMPND>  (305) 
    udp_gluA.pdb 

>  <AUTHOR>  (305) 
    GENERATED BY OPEN BABEL 3.1.1

>  <MASTER>  (305) 
        0    0    0    0    0    0    0    0   56    0   56    0

>  <minimizedAffinity>  (305) 
-8.40282

>  <CNNscore>  (305) 
0.8319079876

>  <CNNaffinity>  (305) 
4.6324129105

>  <CNN_VS>  (305) 
3.8537414074

>  <CNNaffinity_variance>  (305) 
0.0294519067

$$$$
306
     RDKit          3D

 43 45  0  0  0  0  0  0  0  0999 V2000
   23.0309   72.0841   -1.9894 P   0  0  2  0  0  0  0  0  0  0  0  0
   23.7650   73.5181   -2.1426 O   0  0  0  0  0  0  0  0  0  0  0  0
   23.6511   71.1590   -0.9836 O   0  0  0  0  0  0  0  0  0  0  0  0
   22.9530   71.5236   -3.5052 O   0  0  0  0  0  0  0  0  0  0  0  0
   21.8668   71.9252   -4.3196 C   0  0  0  0  0  0  0  0  0  0  0  0
   21.6773   71.4864   -6.6753 O   0  0  0  0  0  0  0  0  0  0  0  0
   23.0907   74.0988   -7.0865 O   0  0  0  0  0  0  0  0  0  0  0  0
   20.4843   74.7518   -7.5516 O   0  0  0  0  0  0  0  0  0  0  0  0
   22.1378   73.7344   -6.0877 C   0  0  1  0  0  0  0  0  0  0  0  0
   20.7495   73.6664   -6.6878 C   0  0  2  0  0  0  0  0  0  0  0  0
   22.3907   72.2826   -5.7046 C   0  0  1  0  0  0  0  0  0  0  0  0
   20.7859   72.3341   -7.4170 C   0  0  2  0  0  0  0  0  0  0  0  0
   22.9489   75.0226   -7.3474 H   0  0  0  0  0  0  0  0  0  0  0  0
   20.4712   75.5764   -7.0399 H   0  0  0  0  0  0  0  0  0  0  0  0
   19.8070   70.9284   -9.6624 O   0  0  0  0  0  0  0  0  0  0  0  0
   15.8174   69.9803   -7.5582 O   0  0  0  0  0  0  0  0  0  0  0  0
   19.4948   71.7100   -7.4829 N   0  0  0  0  0  0  0  0  0  0  0  0
   17.8205   70.4584   -8.6126 N   0  0  0  0  0  0  0  0  0  0  0  0
   19.0995   71.0285   -8.6582 C   0  0  0  0  0  0  0  0  0  0  0  0
   18.6366   71.7749   -6.3920 C   0  0  0  0  0  0  0  0  0  0  0  0
   17.4204   71.2264   -6.3634 C   0  0  0  0  0  0  0  0  0  0  0  0
   16.9306   70.4969   -7.5514 C   0  0  0  0  0  0  0  0  0  0  0  0
   17.5223   69.9804   -9.4201 H   0  0  0  0  0  0  0  0  0  0  0  0
   21.4990   72.4924   -1.6738 O   0  0  0  0  0  0  0  0  0  0  0  0
   20.5197   72.0789   -0.4558 P   0  0  2  0  0  0  0  0  0  0  0  0
   20.7173   73.2864    0.6040 O   0  0  0  0  0  0  0  0  0  0  0  0
   20.7813   70.7123    0.1079 O   0  0  0  0  0  0  0  0  0  0  0  0
   19.0302   72.2887   -1.0390 O   0  0  0  0  0  0  0  0  0  0  0  0
   18.4084   70.9301   -2.8765 O   0  0  0  0  0  0  0  0  0  0  0  0
   15.3844   73.7448   -2.8507 O   0  0  0  0  0  0  0  0  0  0  0  0
   18.1582   74.5474   -2.4080 O   0  0  0  0  0  0  0  0  0  0  0  0
   14.8861   71.0586   -1.8571 O   0  0  0  0  0  0  0  0  0  0  0  0
   16.3825   72.8992   -2.2792 C   0  0  2  0  0  0  0  0  0  0  0  0
   17.7511   73.2601   -2.8573 C   0  0  2  0  0  0  0  0  0  0  0  0
   16.0263   71.4503   -2.6195 C   0  0  1  0  0  0  0  0  0  0  0  0
   18.8067   72.2325   -2.4467 C   0  0  1  0  0  0  0  0  0  0  0  0
   17.1780   70.5029   -2.2964 C   0  0  1  0  0  0  0  0  0  0  0  0
   15.5899   74.6710   -2.6475 H   0  0  0  0  0  0  0  0  0  0  0  0
   17.4928   75.2044   -2.6649 H   0  0  0  0  0  0  0  0  0  0  0  0
   14.1459   71.6539   -2.0534 H   0  0  0  0  0  0  0  0  0  0  0  0
   16.0062   69.2411   -3.8890 O   0  0  0  0  0  0  0  0  0  0  0  0
   17.5490   68.1410   -2.6206 O   0  0  0  0  0  0  0  0  0  0  0  0
   16.9571   69.1656   -2.9251 C   0  0  0  0  0  0  0  0  0  0  0  0
  1  4  1  0
  1 24  1  0
  1  2  1  6
  1  3  2  0
 25 28  1  0
 25 24  1  0
 25 26  1  1
 25 27  2  0
  6 11  1  0
  6 12  1  0
 29 36  1  0
 29 37  1  0
  9  7  1  6
  7 13  1  0
 10  8  1  6
  8 14  1  0
  4  5  1  0
 36 28  1  1
 33 30  1  6
 30 38  1  0
 34 31  1  1
 31 39  1  0
 35 32  1  1
 32 40  1  0
 41 43  1  0
 15 19  2  0
 42 43  2  0
 16 22  2  0
 12 17  1  1
 17 19  1  0
 17 20  1  0
 18 19  1  0
 18 22  1  0
 18 23  1  0
  9 10  1  0
  9 11  1  0
 10 12  1  0
 11  5  1  1
 33 34  1  0
 33 35  1  0
 34 36  1  0
 35 37  1  0
 37 43  1  6
 20 21  2  0
 21 22  1  0
M  CHG  3   2  -1  26  -1  41  -1
M  END
>  <COMPND>  (306) 
    udp_gluA.pdb 

>  <AUTHOR>  (306) 
    GENERATED BY OPEN BABEL 3.1.1

>  <MASTER>  (306) 
        0    0    0    0    0    0    0    0   56    0   56    0

>  <minimizedAffinity>  (306) 
-6.50004

>  <CNNscore>  (306) 
0.8297393918

>  <CNNaffinity>  (306) 
4.5680761337

>  <CNN_VS>  (306) 
3.7903127670

>  <CNNaffinity_variance>  (306) 
0.3563217521

$$$$
307
     RDKit          3D

 43 45  0  0  0  0  0  0  0  0999 V2000
   23.1564   73.0493   -3.8698 P   0  0  2  0  0  0  0  0  0  0  0  0
   22.9350   73.4961   -5.4093 O   0  0  0  0  0  0  0  0  0  0  0  0
   24.1842   71.9756   -3.6632 O   0  0  0  0  0  0  0  0  0  0  0  0
   21.6646   72.7038   -3.3472 O   0  0  0  0  0  0  0  0  0  0  0  0
   20.8953   71.7620   -4.0724 C   0  0  0  0  0  0  0  0  0  0  0  0
   18.8430   72.4181   -5.1378 O   0  0  0  0  0  0  0  0  0  0  0  0
   17.4547   71.3443   -2.7065 O   0  0  0  0  0  0  0  0  0  0  0  0
   17.1193   69.3357   -4.5201 O   0  0  0  0  0  0  0  0  0  0  0  0
   18.6235   70.8594   -3.3678 C   0  0  1  0  0  0  0  0  0  0  0  0
   18.2462   70.1747   -4.6643 C   0  0  2  0  0  0  0  0  0  0  0  0
   19.4168   72.0616   -3.8615 C   0  0  1  0  0  0  0  0  0  0  0  0
   17.9813   71.3575   -5.5801 C   0  0  2  0  0  0  0  0  0  0  0  0
   16.9315   70.5941   -2.3822 H   0  0  0  0  0  0  0  0  0  0  0  0
   17.3388   68.5983   -3.9285 H   0  0  0  0  0  0  0  0  0  0  0  0
   16.1031   70.3304   -7.4224 O   0  0  0  0  0  0  0  0  0  0  0  0
   19.2078   70.2622  -10.8283 O   0  0  0  0  0  0  0  0  0  0  0  0
   18.2720   71.0622   -6.9546 N   0  0  0  0  0  0  0  0  0  0  0  0
   17.6515   70.2964   -9.1167 N   0  0  0  0  0  0  0  0  0  0  0  0
   17.2570   70.5490   -7.7963 C   0  0  0  0  0  0  0  0  0  0  0  0
   19.5491   71.2823   -7.4562 C   0  0  0  0  0  0  0  0  0  0  0  0
   19.9101   71.0368   -8.7172 C   0  0  0  0  0  0  0  0  0  0  0  0
   18.9092   70.4986   -9.6616 C   0  0  0  0  0  0  0  0  0  0  0  0
   16.9625   69.9368   -9.7211 H   0  0  0  0  0  0  0  0  0  0  0  0
   23.4858   74.4481   -3.1297 O   0  0  0  0  0  0  0  0  0  0  0  0
   23.1350   74.9691   -1.6400 P   0  0  2  0  0  0  0  0  0  0  0  0
   21.7750   75.8200   -1.8564 O   0  0  0  0  0  0  0  0  0  0  0  0
   24.2443   75.7340   -0.9780 O   0  0  0  0  0  0  0  0  0  0  0  0
   22.6656   73.6468   -0.8439 O   0  0  0  0  0  0  0  0  0  0  0  0
   23.7592   73.4826    1.2505 O   0  0  0  0  0  0  0  0  0  0  0  0
   21.6531   69.9307    1.1209 O   0  0  0  0  0  0  0  0  0  0  0  0
   23.0343   70.9208   -1.2553 O   0  0  0  0  0  0  0  0  0  0  0  0
   20.7243   72.1176    2.7960 O   0  0  0  0  0  0  0  0  0  0  0  0
   21.8976   71.3113    0.8522 C   0  0  2  0  0  0  0  0  0  0  0  0
   23.1934   71.4556    0.0537 C   0  0  2  0  0  0  0  0  0  0  0  0
   22.0144   72.0405    2.1926 C   0  0  1  0  0  0  0  0  0  0  0  0
   23.6085   72.9234   -0.0550 C   0  0  1  0  0  0  0  0  0  0  0  0
   22.5535   73.4565    2.0113 C   0  0  1  0  0  0  0  0  0  0  0  0
   21.5752   69.4470    0.2835 H   0  0  0  0  0  0  0  0  0  0  0  0
   22.7706   69.9897   -1.1939 H   0  0  0  0  0  0  0  0  0  0  0  0
   20.3698   71.2228    2.9167 H   0  0  0  0  0  0  0  0  0  0  0  0
   24.0825   73.4137    3.7896 O   0  0  0  0  0  0  0  0  0  0  0  0
   22.3998   74.9484    3.9012 O   0  0  0  0  0  0  0  0  0  0  0  0
   22.9720   74.0367    3.3230 C   0  0  0  0  0  0  0  0  0  0  0  0
  1  4  1  0
  1 24  1  0
  1  2  1  6
  1  3  2  0
 25 28  1  0
 25 24  1  0
 25 26  1  6
 25 27  2  0
  6 11  1  0
  6 12  1  0
 29 36  1  0
 29 37  1  0
  9  7  1  6
  7 13  1  0
 10  8  1  1
  8 14  1  0
  4  5  1  0
 36 28  1  6
 33 30  1  1
 30 38  1  0
 34 31  1  6
 31 39  1  0
 35 32  1  6
 32 40  1  0
 41 43  1  0
 15 19  2  0
 42 43  2  0
 16 22  2  0
 12 17  1  6
 17 19  1  0
 17 20  1  0
 18 19  1  0
 18 22  1  0
 18 23  1  0
  9 10  1  0
  9 11  1  0
 10 12  1  0
 11  5  1  6
 33 34  1  0
 33 35  1  0
 34 36  1  0
 35 37  1  0
 37 43  1  1
 20 21  2  0
 21 22  1  0
M  CHG  3   2  -1  26  -1  41  -1
M  END
>  <COMPND>  (307) 
    udp_gluA.pdb 

>  <AUTHOR>  (307) 
    GENERATED BY OPEN BABEL 3.1.1

>  <MASTER>  (307) 
        0    0    0    0    0    0    0    0   56    0   56    0

>  <minimizedAffinity>  (307) 
-7.44568

>  <CNNscore>  (307) 
0.8001270890

>  <CNNaffinity>  (307) 
4.5709910393

>  <CNN_VS>  (307) 
3.6573736668

>  <CNNaffinity_variance>  (307) 
0.0281487107

$$$$
308
     RDKit          3D

 43 45  0  0  0  0  0  0  0  0999 V2000
   20.4541   71.2054   -1.5119 P   0  0  2  0  0  0  0  0  0  0  0  0
   21.0290   70.6217   -0.1163 O   0  0  0  0  0  0  0  0  0  0  0  0
   19.8839   72.5912   -1.4321 O   0  0  0  0  0  0  0  0  0  0  0  0
   19.4375   70.0558   -2.0245 O   0  0  0  0  0  0  0  0  0  0  0  0
   19.0860   70.0263   -3.3956 C   0  0  0  0  0  0  0  0  0  0  0  0
   17.4970   71.2143   -4.7527 O   0  0  0  0  0  0  0  0  0  0  0  0
   15.3789   69.6724   -3.2941 O   0  0  0  0  0  0  0  0  0  0  0  0
   15.5731   68.3278   -5.6586 O   0  0  0  0  0  0  0  0  0  0  0  0
   16.6815   69.2540   -3.7026 C   0  0  1  0  0  0  0  0  0  0  0  0
   16.7128   69.0235   -5.1986 C   0  0  2  0  0  0  0  0  0  0  0  0
   17.6265   70.4370   -3.5426 C   0  0  1  0  0  0  0  0  0  0  0  0
   16.7875   70.4429   -5.7349 C   0  0  2  0  0  0  0  0  0  0  0  0
   14.7574   68.9330   -3.3875 H   0  0  0  0  0  0  0  0  0  0  0  0
   15.5716   67.4301   -5.2897 H   0  0  0  0  0  0  0  0  0  0  0  0
   15.5329   70.5791   -8.2616 O   0  0  0  0  0  0  0  0  0  0  0  0
   19.5782   70.7362  -10.4650 O   0  0  0  0  0  0  0  0  0  0  0  0
   17.4888   70.5202   -6.9851 N   0  0  0  0  0  0  0  0  0  0  0  0
   17.5489   70.6562   -9.3566 N   0  0  0  0  0  0  0  0  0  0  0  0
   16.7637   70.5845   -8.1984 C   0  0  0  0  0  0  0  0  0  0  0  0
   18.8783   70.5334   -7.0012 C   0  0  0  0  0  0  0  0  0  0  0  0
   19.6128   70.6022   -8.1132 C   0  0  0  0  0  0  0  0  0  0  0  0
   18.9327   70.6715   -9.4231 C   0  0  0  0  0  0  0  0  0  0  0  0
   17.0664   70.6998  -10.2137 H   0  0  0  0  0  0  0  0  0  0  0  0
   21.7121   71.0518   -2.5152 O   0  0  0  0  0  0  0  0  0  0  0  0
   23.0096   71.9891   -2.7420 P   0  0  2  0  0  0  0  0  0  0  0  0
   24.1635   70.9306   -3.1522 O   0  0  0  0  0  0  0  0  0  0  0  0
   23.3557   72.8565   -1.5665 O   0  0  0  0  0  0  0  0  0  0  0  0
   22.6973   72.7983   -4.1022 O   0  0  0  0  0  0  0  0  0  0  0  0
   22.8298   75.1382   -4.4439 O   0  0  0  0  0  0  0  0  0  0  0  0
   19.9382   74.0504   -7.1868 O   0  0  0  0  0  0  0  0  0  0  0  0
   19.9468   72.8906   -4.5056 O   0  0  0  0  0  0  0  0  0  0  0  0
   22.6326   74.6793   -8.0788 O   0  0  0  0  0  0  0  0  0  0  0  0
   21.1111   73.8770   -6.3917 C   0  0  2  0  0  0  0  0  0  0  0  0
   20.7478   73.9945   -4.9113 C   0  0  2  0  0  0  0  0  0  0  0  0
   22.1125   74.9664   -6.7821 C   0  0  1  0  0  0  0  0  0  0  0  0
   22.0049   74.0440   -4.0417 C   0  0  1  0  0  0  0  0  0  0  0  0
   23.2740   75.0351   -5.7949 C   0  0  1  0  0  0  0  0  0  0  0  0
   19.2873   73.3690   -6.9561 H   0  0  0  0  0  0  0  0  0  0  0  0
   19.1476   72.8530   -5.0534 H   0  0  0  0  0  0  0  0  0  0  0  0
   21.9034   74.6327   -8.7167 H   0  0  0  0  0  0  0  0  0  0  0  0
   24.9936   76.1289   -6.9560 O   0  0  0  0  0  0  0  0  0  0  0  0
   23.8886   77.3278   -5.3620 O   0  0  0  0  0  0  0  0  0  0  0  0
   24.0594   76.2916   -5.9865 C   0  0  0  0  0  0  0  0  0  0  0  0
  1  4  1  0
  1 24  1  0
  1  2  1  1
  1  3  2  0
 25 28  1  0
 25 24  1  0
 25 26  1  6
 25 27  2  0
  6 11  1  0
  6 12  1  0
 29 36  1  0
 29 37  1  0
  9  7  1  6
  7 13  1  0
 10  8  1  6
  8 14  1  0
  4  5  1  0
 36 28  1  6
 33 30  1  6
 30 38  1  0
 34 31  1  1
 31 39  1  0
 35 32  1  6
 32 40  1  0
 41 43  1  0
 15 19  2  0
 42 43  2  0
 16 22  2  0
 12 17  1  6
 17 19  1  0
 17 20  1  0
 18 19  1  0
 18 22  1  0
 18 23  1  0
  9 10  1  0
  9 11  1  0
 10 12  1  0
 11  5  1  6
 33 34  1  0
 33 35  1  0
 34 36  1  0
 35 37  1  0
 37 43  1  6
 20 21  2  0
 21 22  1  0
M  CHG  3   2  -1  26  -1  41  -1
M  END
>  <COMPND>  (308) 
    udp_gluA.pdb 

>  <AUTHOR>  (308) 
    GENERATED BY OPEN BABEL 3.1.1

>  <MASTER>  (308) 
        0    0    0    0    0    0    0    0   56    0   56    0

>  <minimizedAffinity>  (308) 
-7.85723

>  <CNNscore>  (308) 
0.7989519835

>  <CNNaffinity>  (308) 
4.6683483124

>  <CNN_VS>  (308) 
3.7297861576

>  <CNNaffinity_variance>  (308) 
0.4794346690

$$$$
309
     RDKit          3D

 43 45  0  0  0  0  0  0  0  0999 V2000
   20.5662   71.2298   -1.0720 P   0  0  2  0  0  0  0  0  0  0  0  0
   21.0099   70.3929    0.2401 O   0  0  0  0  0  0  0  0  0  0  0  0
   20.1438   72.6453   -0.8078 O   0  0  0  0  0  0  0  0  0  0  0  0
   19.4579   70.2860   -1.7784 O   0  0  0  0  0  0  0  0  0  0  0  0
   19.1648   70.4958   -3.1476 C   0  0  0  0  0  0  0  0  0  0  0  0
   17.4824   71.4885   -4.5481 O   0  0  0  0  0  0  0  0  0  0  0  0
   15.4928   69.8936   -2.9703 O   0  0  0  0  0  0  0  0  0  0  0  0
   15.7548   68.4273   -5.2545 O   0  0  0  0  0  0  0  0  0  0  0  0
   16.8169   69.5425   -3.3729 C   0  0  1  0  0  0  0  0  0  0  0  0
   16.8481   69.2261   -4.8531 C   0  0  2  0  0  0  0  0  0  0  0  0
   17.6788   70.7954   -3.2966 C   0  0  1  0  0  0  0  0  0  0  0  0
   16.8178   70.6128   -5.4728 C   0  0  2  0  0  0  0  0  0  0  0  0
   14.9233   69.1089   -3.0109 H   0  0  0  0  0  0  0  0  0  0  0  0
   15.8199   67.5552   -4.8336 H   0  0  0  0  0  0  0  0  0  0  0  0
   15.5701   70.2108   -7.9744 O   0  0  0  0  0  0  0  0  0  0  0  0
   19.5281   70.8312  -10.2534 O   0  0  0  0  0  0  0  0  0  0  0  0
   17.4986   70.6637   -6.7356 N   0  0  0  0  0  0  0  0  0  0  0  0
   17.5428   70.5192   -9.1070 N   0  0  0  0  0  0  0  0  0  0  0  0
   16.7790   70.4473   -7.9346 C   0  0  0  0  0  0  0  0  0  0  0  0
   18.8623   70.9271   -6.7783 C   0  0  0  0  0  0  0  0  0  0  0  0
   19.5767   70.9926   -7.9036 C   0  0  0  0  0  0  0  0  0  0  0  0
   18.9008   70.7775   -9.1998 C   0  0  0  0  0  0  0  0  0  0  0  0
   17.0641   70.3699   -9.9543 H   0  0  0  0  0  0  0  0  0  0  0  0
   21.8461   71.0801   -2.0479 O   0  0  0  0  0  0  0  0  0  0  0  0
   23.3419   71.6833   -1.9367 P   0  0  2  0  0  0  0  0  0  0  0  0
   24.1809   70.7889   -2.9934 O   0  0  0  0  0  0  0  0  0  0  0  0
   23.9036   71.6845   -0.5444 O   0  0  0  0  0  0  0  0  0  0  0  0
   23.2474   73.1408   -2.6217 O   0  0  0  0  0  0  0  0  0  0  0  0
   23.6813   73.2944   -4.9449 O   0  0  0  0  0  0  0  0  0  0  0  0
   23.8584   77.2579   -3.7928 O   0  0  0  0  0  0  0  0  0  0  0  0
   25.0771   75.1796   -2.1405 O   0  0  0  0  0  0  0  0  0  0  0  0
   21.5289   76.2537   -5.2126 O   0  0  0  0  0  0  0  0  0  0  0  0
   23.4053   75.9051   -3.7421 C   0  0  2  0  0  0  0  0  0  0  0  0
   24.5892   74.9790   -3.4621 C   0  0  2  0  0  0  0  0  0  0  0  0
   22.7734   75.5670   -5.0943 C   0  0  1  0  0  0  0  0  0  0  0  0
   24.1879   73.5126   -3.6276 C   0  0  1  0  0  0  0  0  0  0  0  0
   22.5187   74.0687   -5.2312 C   0  0  1  0  0  0  0  0  0  0  0  0
   24.2639   77.4953   -2.9440 H   0  0  0  0  0  0  0  0  0  0  0  0
   25.3333   76.1081   -2.0284 H   0  0  0  0  0  0  0  0  0  0  0  0
   21.6770   77.2085   -5.1271 H   0  0  0  0  0  0  0  0  0  0  0  0
   20.9733   74.1247   -6.9947 O   0  0  0  0  0  0  0  0  0  0  0  0
   22.9811   73.1241   -7.4026 O   0  0  0  0  0  0  0  0  0  0  0  0
   22.2172   73.7093   -6.6497 C   0  0  0  0  0  0  0  0  0  0  0  0
  1  4  1  0
  1 24  1  0
  1  2  1  1
  1  3  2  0
 25 28  1  0
 25 24  1  0
 25 26  1  6
 25 27  2  0
  6 11  1  0
  6 12  1  0
 29 36  1  0
 29 37  1  0
  9  7  1  6
  7 13  1  0
 10  8  1  6
  8 14  1  0
  4  5  1  0
 36 28  1  1
 33 30  1  6
 30 38  1  0
 34 31  1  1
 31 39  1  0
 35 32  1  1
 32 40  1  0
 41 43  1  0
 15 19  2  0
 42 43  2  0
 16 22  2  0
 12 17  1  6
 17 19  1  0
 17 20  1  0
 18 19  1  0
 18 22  1  0
 18 23  1  0
  9 10  1  0
  9 11  1  0
 10 12  1  0
 11  5  1  6
 33 34  1  0
 33 35  1  0
 34 36  1  0
 35 37  1  0
 37 43  1  6
 20 21  2  0
 21 22  1  0
M  CHG  3   2  -1  26  -1  41  -1
M  END
>  <COMPND>  (309) 
    udp_gluA.pdb 

>  <AUTHOR>  (309) 
    GENERATED BY OPEN BABEL 3.1.1

>  <MASTER>  (309) 
        0    0    0    0    0    0    0    0   56    0   56    0

>  <minimizedAffinity>  (309) 
-7.95904

>  <CNNscore>  (309) 
0.7928858995

>  <CNNaffinity>  (309) 
4.6008348465

>  <CNN_VS>  (309) 
3.6479370594

>  <CNNaffinity_variance>  (309) 
0.2518316507

$$$$
310
     RDKit          3D

 43 45  0  0  0  0  0  0  0  0999 V2000
   19.6954   73.9072   -1.8327 P   0  0  2  0  0  0  0  0  0  0  0  0
   19.6140   72.5632   -0.9348 O   0  0  0  0  0  0  0  0  0  0  0  0
   19.5475   75.1898   -1.0680 O   0  0  0  0  0  0  0  0  0  0  0  0
   18.6075   73.6581   -3.0042 O   0  0  0  0  0  0  0  0  0  0  0  0
   18.6496   72.4357   -3.7172 C   0  0  0  0  0  0  0  0  0  0  0  0
   16.8404   71.9611   -5.2269 O   0  0  0  0  0  0  0  0  0  0  0  0
   15.7723   70.1556   -3.0841 O   0  0  0  0  0  0  0  0  0  0  0  0
   16.9509   68.4020   -4.8081 O   0  0  0  0  0  0  0  0  0  0  0  0
   17.1264   70.4149   -3.4554 C   0  0  1  0  0  0  0  0  0  0  0  0
   17.4542   69.7207   -4.7603 C   0  0  2  0  0  0  0  0  0  0  0  0
   17.2350   71.8841   -3.8399 C   0  0  1  0  0  0  0  0  0  0  0  0
   16.7950   70.6355   -5.7784 C   0  0  2  0  0  0  0  0  0  0  0  0
   15.6782   69.2227   -2.8342 H   0  0  0  0  0  0  0  0  0  0  0  0
   17.4021   67.8594   -4.1418 H   0  0  0  0  0  0  0  0  0  0  0  0
   15.5023   70.6212   -8.2895 O   0  0  0  0  0  0  0  0  0  0  0  0
   19.5139   70.6213  -10.5591 O   0  0  0  0  0  0  0  0  0  0  0  0
   17.4773   70.6317   -7.0414 N   0  0  0  0  0  0  0  0  0  0  0  0
   17.5015   70.6202   -9.4174 N   0  0  0  0  0  0  0  0  0  0  0  0
   16.7340   70.6243   -8.2453 C   0  0  0  0  0  0  0  0  0  0  0  0
   18.8664   70.6369   -7.0793 C   0  0  0  0  0  0  0  0  0  0  0  0
   19.5841   70.6330   -8.2043 C   0  0  0  0  0  0  0  0  0  0  0  0
   18.8842   70.6245   -9.5056 C   0  0  0  0  0  0  0  0  0  0  0  0
   17.0061   70.6131  -10.2683 H   0  0  0  0  0  0  0  0  0  0  0  0
   21.1056   73.7425   -2.6053 O   0  0  0  0  0  0  0  0  0  0  0  0
   22.6060   74.1666   -2.1777 P   0  0  2  0  0  0  0  0  0  0  0  0
   22.5546   75.7843   -2.2036 O   0  0  0  0  0  0  0  0  0  0  0  0
   23.6831   73.5683   -3.0355 O   0  0  0  0  0  0  0  0  0  0  0  0
   22.7083   73.7874   -0.6131 O   0  0  0  0  0  0  0  0  0  0  0  0
   24.1918   73.0960    1.0988 O   0  0  0  0  0  0  0  0  0  0  0  0
   21.4429   70.0120    1.0722 O   0  0  0  0  0  0  0  0  0  0  0  0
   22.4201   71.1464   -1.4363 O   0  0  0  0  0  0  0  0  0  0  0  0
   21.3751   72.0090    3.1838 O   0  0  0  0  0  0  0  0  0  0  0  0
   21.8919   71.3588    0.9221 C   0  0  2  0  0  0  0  0  0  0  0  0
   22.9752   71.4200   -0.1550 C   0  0  2  0  0  0  0  0  0  0  0  0
   22.4528   71.8231    2.2681 C   0  0  1  0  0  0  0  0  0  0  0  0
   23.6406   72.7967   -0.1842 C   0  0  1  0  0  0  0  0  0  0  0  0
   23.2096   73.1412    2.1314 C   0  0  1  0  0  0  0  0  0  0  0  0
   21.0821   69.6954    0.2291 H   0  0  0  0  0  0  0  0  0  0  0  0
   21.9960   70.2744   -1.4249 H   0  0  0  0  0  0  0  0  0  0  0  0
   20.8852   71.1773    3.2796 H   0  0  0  0  0  0  0  0  0  0  0  0
   25.3460   73.4021    3.0637 O   0  0  0  0  0  0  0  0  0  0  0  0
   23.5638   73.6274    4.4680 O   0  0  0  0  0  0  0  0  0  0  0  0
   24.0217   73.4159    3.3551 C   0  0  0  0  0  0  0  0  0  0  0  0
  1  4  1  0
  1 24  1  0
  1  2  1  1
  1  3  2  0
 25 28  1  0
 25 24  1  0
 25 26  1  1
 25 27  2  0
  6 11  1  0
  6 12  1  0
 29 36  1  0
 29 37  1  0
  9  7  1  6
  7 13  1  0
 10  8  1  1
  8 14  1  0
  4  5  1  0
 36 28  1  1
 33 30  1  1
 30 38  1  0
 34 31  1  6
 31 39  1  0
 35 32  1  1
 32 40  1  0
 41 43  1  0
 15 19  2  0
 42 43  2  0
 16 22  2  0
 12 17  1  6
 17 19  1  0
 17 20  1  0
 18 19  1  0
 18 22  1  0
 18 23  1  0
  9 10  1  0
  9 11  1  0
 10 12  1  0
 11  5  1  6
 33 34  1  0
 33 35  1  0
 34 36  1  0
 35 37  1  0
 37 43  1  1
 20 21  2  0
 21 22  1  0
M  CHG  3   2  -1  26  -1  41  -1
M  END
>  <COMPND>  (310) 
    udp_gluA.pdb 

>  <AUTHOR>  (310) 
    GENERATED BY OPEN BABEL 3.1.1

>  <MASTER>  (310) 
        0    0    0    0    0    0    0    0   56    0   56    0

>  <minimizedAffinity>  (310) 
-7.15206

>  <CNNscore>  (310) 
0.7854067087

>  <CNNaffinity>  (310) 
4.5611290932

>  <CNN_VS>  (310) 
3.5823414326

>  <CNNaffinity_variance>  (310) 
0.0748121217

$$$$
311
     RDKit          3D

 43 45  0  0  0  0  0  0  0  0999 V2000
   21.9393   72.4600   -6.0431 P   0  0  2  0  0  0  0  0  0  0  0  0
   20.9783   73.5812   -5.3810 O   0  0  0  0  0  0  0  0  0  0  0  0
   23.0252   72.9987   -6.9277 O   0  0  0  0  0  0  0  0  0  0  0  0
   20.9080   71.4295   -6.7448 O   0  0  0  0  0  0  0  0  0  0  0  0
   20.3631   71.7719   -8.0058 C   0  0  0  0  0  0  0  0  0  0  0  0
   19.0966   69.8157   -7.4169 O   0  0  0  0  0  0  0  0  0  0  0  0
   17.9857   69.9248  -10.1999 O   0  0  0  0  0  0  0  0  0  0  0  0
   15.9739   71.0092   -8.7124 O   0  0  0  0  0  0  0  0  0  0  0  0
   18.3280   70.9966   -9.3209 C   0  0  1  0  0  0  0  0  0  0  0  0
   17.2936   71.1245   -8.2228 C   0  0  2  0  0  0  0  0  0  0  0  0
   19.5705   70.5868   -8.5421 C   0  0  1  0  0  0  0  0  0  0  0  0
   17.6752   69.9833   -7.2956 C   0  0  2  0  0  0  0  0  0  0  0  0
   17.1944   70.1633  -10.7085 H   0  0  0  0  0  0  0  0  0  0  0  0
   15.7793   71.7590   -9.2972 H   0  0  0  0  0  0  0  0  0  0  0  0
   16.2313   68.2347   -5.6121 O   0  0  0  0  0  0  0  0  0  0  0  0
   16.4968   71.1496   -2.0517 O   0  0  0  0  0  0  0  0  0  0  0  0
   17.3530   70.2602   -5.9243 N   0  0  0  0  0  0  0  0  0  0  0  0
   16.3640   69.6886   -3.8407 N   0  0  0  0  0  0  0  0  0  0  0  0
   16.6231   69.3147   -5.1659 C   0  0  0  0  0  0  0  0  0  0  0  0
   17.7599   71.4555   -5.3440 C   0  0  0  0  0  0  0  0  0  0  0  0
   17.5056   71.7978   -4.0795 C   0  0  0  0  0  0  0  0  0  0  0  0
   16.7473   70.8660   -3.2192 C   0  0  0  0  0  0  0  0  0  0  0  0
   15.8555   69.0473   -3.2935 H   0  0  0  0  0  0  0  0  0  0  0  0
   22.4659   71.6299   -4.7599 O   0  0  0  0  0  0  0  0  0  0  0  0
   23.4826   72.0430   -3.5728 P   0  0  2  0  0  0  0  0  0  0  0  0
   24.4292   73.1572   -4.2675 O   0  0  0  0  0  0  0  0  0  0  0  0
   24.2277   70.8873   -2.9702 O   0  0  0  0  0  0  0  0  0  0  0  0
   22.5761   72.8730   -2.5279 O   0  0  0  0  0  0  0  0  0  0  0  0
   21.6097   71.4651   -0.8869 O   0  0  0  0  0  0  0  0  0  0  0  0
   19.8352   75.0962   -0.0299 O   0  0  0  0  0  0  0  0  0  0  0  0
   20.1596   74.2234   -2.7989 O   0  0  0  0  0  0  0  0  0  0  0  0
   21.9729   74.0822    1.6590 O   0  0  0  0  0  0  0  0  0  0  0  0
   20.8749   74.2280   -0.4806 C   0  0  2  0  0  0  0  0  0  0  0  0
   20.3715   73.3963   -1.6606 C   0  0  2  0  0  0  0  0  0  0  0  0
   21.2677   73.3163    0.6840 C   0  0  1  0  0  0  0  0  0  0  0  0
   21.3725   72.2981   -2.0224 C   0  0  1  0  0  0  0  0  0  0  0  0
   22.1656   72.1736    0.2186 C   0  0  1  0  0  0  0  0  0  0  0  0
   19.5691   75.6852   -0.7536 H   0  0  0  0  0  0  0  0  0  0  0  0
   19.5257   74.9227   -2.5764 H   0  0  0  0  0  0  0  0  0  0  0  0
   21.4125   74.8130    1.9634 H   0  0  0  0  0  0  0  0  0  0  0  0
   21.4914   70.0550    0.9659 O   0  0  0  0  0  0  0  0  0  0  0  0
   22.9678   71.1983    2.2745 O   0  0  0  0  0  0  0  0  0  0  0  0
   22.2727   71.1201    1.2726 C   0  0  0  0  0  0  0  0  0  0  0  0
  1  4  1  0
  1 24  1  0
  1  2  1  1
  1  3  2  0
 25 28  1  0
 25 24  1  0
 25 26  1  6
 25 27  2  0
  6 11  1  0
  6 12  1  0
 29 36  1  0
 29 37  1  0
  9  7  1  6
  7 13  1  0
 10  8  1  6
  8 14  1  0
  4  5  1  0
 36 28  1  1
 33 30  1  1
 30 38  1  0
 34 31  1  6
 31 39  1  0
 35 32  1  1
 32 40  1  0
 41 43  1  0
 15 19  2  0
 42 43  2  0
 16 22  2  0
 12 17  1  1
 17 19  1  0
 17 20  1  0
 18 19  1  0
 18 22  1  0
 18 23  1  0
  9 10  1  0
  9 11  1  0
 10 12  1  0
 11  5  1  1
 33 34  1  0
 33 35  1  0
 34 36  1  0
 35 37  1  0
 37 43  1  1
 20 21  2  0
 21 22  1  0
M  CHG  3   2  -1  26  -1  41  -1
M  END
>  <COMPND>  (311) 
    udp_gluA.pdb 

>  <AUTHOR>  (311) 
    GENERATED BY OPEN BABEL 3.1.1

>  <MASTER>  (311) 
        0    0    0    0    0    0    0    0   56    0   56    0

>  <minimizedAffinity>  (311) 
-8.23967

>  <CNNscore>  (311) 
0.7530099154

>  <CNNaffinity>  (311) 
4.5936522484

>  <CNN_VS>  (311) 
3.4590656757

>  <CNNaffinity_variance>  (311) 
0.2463674247

$$$$
312
     RDKit          3D

 43 45  0  0  0  0  0  0  0  0999 V2000
   20.1659   74.0095   -5.8151 P   0  0  2  0  0  0  0  0  0  0  0  0
   20.2298   75.6203   -5.6733 O   0  0  0  0  0  0  0  0  0  0  0  0
   20.5094   73.4792   -7.1763 O   0  0  0  0  0  0  0  0  0  0  0  0
   18.6931   73.6290   -5.2640 O   0  0  0  0  0  0  0  0  0  0  0  0
   18.5924   72.8412   -4.0919 C   0  0  0  0  0  0  0  0  0  0  0  0
   16.7759   72.0215   -5.4358 O   0  0  0  0  0  0  0  0  0  0  0  0
   15.9795   70.4029   -3.0406 O   0  0  0  0  0  0  0  0  0  0  0  0
   17.2492   68.5659   -4.6057 O   0  0  0  0  0  0  0  0  0  0  0  0
   17.2851   70.7372   -3.5118 C   0  0  1  0  0  0  0  0  0  0  0  0
   17.6236   69.9209   -4.7412 C   0  0  2  0  0  0  0  0  0  0  0  0
   17.2342   72.1518   -4.0726 C   0  0  1  0  0  0  0  0  0  0  0  0
   16.8363   70.6397   -5.8236 C   0  0  2  0  0  0  0  0  0  0  0  0
   15.9870   69.5030   -2.6775 H   0  0  0  0  0  0  0  0  0  0  0  0
   17.7786   68.1527   -3.9051 H   0  0  0  0  0  0  0  0  0  0  0  0
   15.4397   70.6339   -8.2784 O   0  0  0  0  0  0  0  0  0  0  0  0
   19.3404   70.2648  -10.7058 O   0  0  0  0  0  0  0  0  0  0  0  0
   17.4621   70.5432   -7.1120 N   0  0  0  0  0  0  0  0  0  0  0  0
   17.3838   70.4491   -9.4850 N   0  0  0  0  0  0  0  0  0  0  0  0
   16.6693   70.5489   -8.2839 C   0  0  0  0  0  0  0  0  0  0  0  0
   18.8451   70.4461   -7.2058 C   0  0  0  0  0  0  0  0  0  0  0  0
   19.5119   70.3517   -8.3578 C   0  0  0  0  0  0  0  0  0  0  0  0
   18.7582   70.3497   -9.6288 C   0  0  0  0  0  0  0  0  0  0  0  0
   16.8532   70.4489  -10.3144 H   0  0  0  0  0  0  0  0  0  0  0  0
   21.1400   73.5018   -4.6293 O   0  0  0  0  0  0  0  0  0  0  0  0
   22.7520   73.4120   -4.5450 P   0  0  2  0  0  0  0  0  0  0  0  0
   23.2191   74.9489   -4.7450 O   0  0  0  0  0  0  0  0  0  0  0  0
   23.3666   72.4474   -5.5175 O   0  0  0  0  0  0  0  0  0  0  0  0
   23.0636   73.0901   -2.9953 O   0  0  0  0  0  0  0  0  0  0  0  0
   21.5242   72.6252   -1.2564 O   0  0  0  0  0  0  0  0  0  0  0  0
   24.6330   74.3831    0.8205 O   0  0  0  0  0  0  0  0  0  0  0  0
   23.7621   75.4747   -1.7455 O   0  0  0  0  0  0  0  0  0  0  0  0
   24.2454   71.5042    0.9347 O   0  0  0  0  0  0  0  0  0  0  0  0
   24.0326   73.6092   -0.2181 C   0  0  2  0  0  0  0  0  0  0  0  0
   23.0576   74.4822   -1.0084 C   0  0  2  0  0  0  0  0  0  0  0  0
   23.2919   72.4386    0.4323 C   0  0  1  0  0  0  0  0  0  0  0  0
   22.2283   73.6376   -1.9767 C   0  0  1  0  0  0  0  0  0  0  0  0
   22.3902   71.7240   -0.5701 C   0  0  1  0  0  0  0  0  0  0  0  0
   25.1095   75.1330    0.4310 H   0  0  0  0  0  0  0  0  0  0  0  0
   24.2907   76.0142   -1.1373 H   0  0  0  0  0  0  0  0  0  0  0  0
   24.8258   71.9465    1.5737 H   0  0  0  0  0  0  0  0  0  0  0  0
   20.2898   70.6801   -0.5803 O   0  0  0  0  0  0  0  0  0  0  0  0
   21.6547   70.2534    1.1957 O   0  0  0  0  0  0  0  0  0  0  0  0
   21.4372   70.8111    0.1305 C   0  0  0  0  0  0  0  0  0  0  0  0
  1  4  1  0
  1 24  1  0
  1  2  1  6
  1  3  2  0
 25 28  1  0
 25 24  1  0
 25 26  1  6
 25 27  2  0
  6 11  1  0
  6 12  1  0
 29 36  1  0
 29 37  1  0
  9  7  1  6
  7 13  1  0
 10  8  1  1
  8 14  1  0
  4  5  1  0
 36 28  1  6
 33 30  1  1
 30 38  1  0
 34 31  1  6
 31 39  1  0
 35 32  1  6
 32 40  1  0
 41 43  1  0
 15 19  2  0
 42 43  2  0
 16 22  2  0
 12 17  1  6
 17 19  1  0
 17 20  1  0
 18 19  1  0
 18 22  1  0
 18 23  1  0
  9 10  1  0
  9 11  1  0
 10 12  1  0
 11  5  1  6
 33 34  1  0
 33 35  1  0
 34 36  1  0
 35 37  1  0
 37 43  1  1
 20 21  2  0
 21 22  1  0
M  CHG  3   2  -1  26  -1  41  -1
M  END
>  <COMPND>  (312) 
    udp_gluA.pdb 

>  <AUTHOR>  (312) 
    GENERATED BY OPEN BABEL 3.1.1

>  <MASTER>  (312) 
        0    0    0    0    0    0    0    0   56    0   56    0

>  <minimizedAffinity>  (312) 
-7.35271

>  <CNNscore>  (312) 
0.7423638701

>  <CNNaffinity>  (312) 
4.5652537346

>  <CNN_VS>  (312) 
3.3890793324

>  <CNNaffinity_variance>  (312) 
0.0435871668

$$$$
313
     RDKit          3D

 43 45  0  0  0  0  0  0  0  0999 V2000
   23.3819   71.8287   -3.3111 P   0  0  2  0  0  0  0  0  0  0  0  0
   24.1090   72.9597   -4.2117 O   0  0  0  0  0  0  0  0  0  0  0  0
   24.2627   70.6874   -2.8947 O   0  0  0  0  0  0  0  0  0  0  0  0
   22.0729   71.4276   -4.1734 O   0  0  0  0  0  0  0  0  0  0  0  0
   21.5898   72.3466   -5.1360 C   0  0  0  0  0  0  0  0  0  0  0  0
   20.5217   70.4280   -6.1137 O   0  0  0  0  0  0  0  0  0  0  0  0
   20.7029   71.8902   -8.7254 O   0  0  0  0  0  0  0  0  0  0  0  0
   18.1047   72.2875   -7.9990 O   0  0  0  0  0  0  0  0  0  0  0  0
   20.4622   72.4058   -7.4159 C   0  0  1  0  0  0  0  0  0  0  0  0
   19.0524   72.0758   -6.9735 C   0  0  2  0  0  0  0  0  0  0  0  0
   21.3012   71.6010   -6.4326 C   0  0  1  0  0  0  0  0  0  0  0  0
   19.1777   70.6122   -6.5862 C   0  0  2  0  0  0  0  0  0  0  0  0
   20.1775   72.3888   -9.3711 H   0  0  0  0  0  0  0  0  0  0  0  0
   18.0618   73.2340   -8.2093 H   0  0  0  0  0  0  0  0  0  0  0  0
   16.5044   69.8137   -7.0245 O   0  0  0  0  0  0  0  0  0  0  0  0
   15.7543   69.2081   -2.5173 O   0  0  0  0  0  0  0  0  0  0  0  0
   18.2617   70.2404   -5.5452 N   0  0  0  0  0  0  0  0  0  0  0  0
   16.1330   69.5139   -4.7792 N   0  0  0  0  0  0  0  0  0  0  0  0
   16.9402   69.8550   -5.8724 C   0  0  0  0  0  0  0  0  0  0  0  0
   18.6751   70.2582   -4.2187 C   0  0  0  0  0  0  0  0  0  0  0  0
   17.8943   69.9302   -3.1874 C   0  0  0  0  0  0  0  0  0  0  0  0
   16.4989   69.5167   -3.4428 C   0  0  0  0  0  0  0  0  0  0  0  0
   15.2081   69.2441   -4.9818 H   0  0  0  0  0  0  0  0  0  0  0  0
   22.7625   72.6829   -2.0865 O   0  0  0  0  0  0  0  0  0  0  0  0
   21.5198   72.3750   -1.0992 P   0  0  2  0  0  0  0  0  0  0  0  0
   21.4016   70.7613   -1.1455 O   0  0  0  0  0  0  0  0  0  0  0  0
   20.2542   73.0984   -1.4584 O   0  0  0  0  0  0  0  0  0  0  0  0
   22.0804   72.7000    0.3781 O   0  0  0  0  0  0  0  0  0  0  0  0
   23.1960   71.0905    1.7101 O   0  0  0  0  0  0  0  0  0  0  0  0
   21.9142   73.7956    4.5575 O   0  0  0  0  0  0  0  0  0  0  0  0
   20.1548   73.0128    2.3606 O   0  0  0  0  0  0  0  0  0  0  0  0
   24.7067   73.7386    3.7515 O   0  0  0  0  0  0  0  0  0  0  0  0
   22.3735   73.3752    3.2729 C   0  0  2  0  0  0  0  0  0  0  0  0
   21.3846   72.3717    2.6790 C   0  0  2  0  0  0  0  0  0  0  0  0
   23.7479   72.7262    3.4511 C   0  0  1  0  0  0  0  0  0  0  0  0
   21.9526   71.7274    1.4136 C   0  0  1  0  0  0  0  0  0  0  0  0
   24.1884   71.9976    2.1848 C   0  0  1  0  0  0  0  0  0  0  0  0
   21.0420   74.2112    4.4691 H   0  0  0  0  0  0  0  0  0  0  0  0
   19.7890   73.4241    3.1589 H   0  0  0  0  0  0  0  0  0  0  0  0
   24.4380   74.2101    4.5555 H   0  0  0  0  0  0  0  0  0  0  0  0
   24.9560   69.8099    2.5398 O   0  0  0  0  0  0  0  0  0  0  0  0
   26.5072   71.4799    2.6051 O   0  0  0  0  0  0  0  0  0  0  0  0
   25.3529   71.1044    2.4646 C   0  0  0  0  0  0  0  0  0  0  0  0
  1  4  1  0
  1 24  1  0
  1  2  1  6
  1  3  2  0
 25 28  1  0
 25 24  1  0
 25 26  1  1
 25 27  2  0
  6 11  1  0
  6 12  1  0
 29 36  1  0
 29 37  1  0
  9  7  1  6
  7 13  1  0
 10  8  1  6
  8 14  1  0
  4  5  1  0
 36 28  1  6
 33 30  1  1
 30 38  1  0
 34 31  1  6
 31 39  1  0
 35 32  1  6
 32 40  1  0
 41 43  1  0
 15 19  2  0
 42 43  2  0
 16 22  2  0
 12 17  1  1
 17 19  1  0
 17 20  1  0
 18 19  1  0
 18 22  1  0
 18 23  1  0
  9 10  1  0
  9 11  1  0
 10 12  1  0
 11  5  1  1
 33 34  1  0
 33 35  1  0
 34 36  1  0
 35 37  1  0
 37 43  1  1
 20 21  2  0
 21 22  1  0
M  CHG  3   2  -1  26  -1  41  -1
M  END
>  <COMPND>  (313) 
    udp_gluA.pdb 

>  <AUTHOR>  (313) 
    GENERATED BY OPEN BABEL 3.1.1

>  <MASTER>  (313) 
        0    0    0    0    0    0    0    0   56    0   56    0

>  <minimizedAffinity>  (313) 
-8.02770

>  <CNNscore>  (313) 
0.6910290718

>  <CNNaffinity>  (313) 
4.4064407349

>  <CNN_VS>  (313) 
3.0449786186

>  <CNNaffinity_variance>  (313) 
0.1226323470

$$$$
314
     RDKit          3D

 43 45  0  0  0  0  0  0  0  0999 V2000
   17.8730   75.2540   -2.5522 P   0  0  2  0  0  0  0  0  0  0  0  0
   17.6428   74.1454   -1.3960 O   0  0  0  0  0  0  0  0  0  0  0  0
   17.0055   76.4735   -2.4423 O   0  0  0  0  0  0  0  0  0  0  0  0
   17.7340   74.4146   -3.9285 O   0  0  0  0  0  0  0  0  0  0  0  0
   18.1042   73.0481   -3.9272 C   0  0  0  0  0  0  0  0  0  0  0  0
   16.4700   71.9936   -5.3398 O   0  0  0  0  0  0  0  0  0  0  0  0
   15.7726   70.3085   -2.9595 O   0  0  0  0  0  0  0  0  0  0  0  0
   17.3350   68.6330   -4.4386 O   0  0  0  0  0  0  0  0  0  0  0  0
   17.0464   70.8009   -3.3761 C   0  0  1  0  0  0  0  0  0  0  0  0
   17.5419   70.0232   -4.5769 C   0  0  2  0  0  0  0  0  0  0  0  0
   16.8442   72.1927   -3.9593 C   0  0  1  0  0  0  0  0  0  0  0  0
   16.7218   70.6272   -5.7041 C   0  0  2  0  0  0  0  0  0  0  0  0
   15.8763   69.4200   -2.5833 H   0  0  0  0  0  0  0  0  0  0  0  0
   17.8790   68.2962   -3.7088 H   0  0  0  0  0  0  0  0  0  0  0  0
   15.4506   70.4827   -8.2219 O   0  0  0  0  0  0  0  0  0  0  0  0
   19.4785   70.5256  -10.4620 O   0  0  0  0  0  0  0  0  0  0  0  0
   17.4142   70.5992   -6.9613 N   0  0  0  0  0  0  0  0  0  0  0  0
   17.4580   70.5032   -9.3352 N   0  0  0  0  0  0  0  0  0  0  0  0
   16.6812   70.5256   -8.1694 C   0  0  0  0  0  0  0  0  0  0  0  0
   18.8027   70.6461   -6.9897 C   0  0  0  0  0  0  0  0  0  0  0  0
   19.5293   70.6241   -8.1088 C   0  0  0  0  0  0  0  0  0  0  0  0
   18.8405   70.5471   -9.4138 C   0  0  0  0  0  0  0  0  0  0  0  0
   16.9699   70.4501  -10.1886 H   0  0  0  0  0  0  0  0  0  0  0  0
   19.4603   75.5465   -2.4637 O   0  0  0  0  0  0  0  0  0  0  0  0
   20.4210   75.8136   -1.1912 P   0  0  2  0  0  0  0  0  0  0  0  0
   19.3864   75.8443    0.0534 O   0  0  0  0  0  0  0  0  0  0  0  0
   21.2780   77.0403   -1.3133 O   0  0  0  0  0  0  0  0  0  0  0  0
   21.2432   74.4385   -1.0033 O   0  0  0  0  0  0  0  0  0  0  0  0
   21.8542   72.8472   -2.6476 O   0  0  0  0  0  0  0  0  0  0  0  0
   21.4682   70.4767    0.7139 O   0  0  0  0  0  0  0  0  0  0  0  0
   19.5244   72.5855    0.1578 O   0  0  0  0  0  0  0  0  0  0  0  0
   24.1078   71.1782   -0.2817 O   0  0  0  0  0  0  0  0  0  0  0  0
   21.7644   71.6693   -0.0127 C   0  0  2  0  0  0  0  0  0  0  0  0
   20.5152   72.1370   -0.7598 C   0  0  2  0  0  0  0  0  0  0  0  0
   22.8890   71.3536   -1.0015 C   0  0  1  0  0  0  0  0  0  0  0  0
   20.8495   73.2738   -1.7267 C   0  0  1  0  0  0  0  0  0  0  0  0
   23.0767   72.4827   -2.0106 C   0  0  1  0  0  0  0  0  0  0  0  0
   20.7559   70.6531    1.3486 H   0  0  0  0  0  0  0  0  0  0  0  0
   19.3077   71.8692    0.7745 H   0  0  0  0  0  0  0  0  0  0  0  0
   24.0017   70.4623    0.3642 H   0  0  0  0  0  0  0  0  0  0  0  0
   24.2710   70.7315   -3.0147 O   0  0  0  0  0  0  0  0  0  0  0  0
   24.2760   72.7433   -4.0879 O   0  0  0  0  0  0  0  0  0  0  0  0
   23.9302   72.0367   -3.1529 C   0  0  0  0  0  0  0  0  0  0  0  0
  1  4  1  0
  1 24  1  0
  1  2  1  1
  1  3  2  0
 25 28  1  0
 25 24  1  0
 25 26  1  1
 25 27  2  0
  6 11  1  0
  6 12  1  0
 29 36  1  0
 29 37  1  0
  9  7  1  6
  7 13  1  0
 10  8  1  1
  8 14  1  0
  4  5  1  0
 36 28  1  1
 33 30  1  6
 30 38  1  0
 34 31  1  1
 31 39  1  0
 35 32  1  1
 32 40  1  0
 41 43  1  0
 15 19  2  0
 42 43  2  0
 16 22  2  0
 12 17  1  6
 17 19  1  0
 17 20  1  0
 18 19  1  0
 18 22  1  0
 18 23  1  0
  9 10  1  0
  9 11  1  0
 10 12  1  0
 11  5  1  6
 33 34  1  0
 33 35  1  0
 34 36  1  0
 35 37  1  0
 37 43  1  6
 20 21  2  0
 21 22  1  0
M  CHG  3   2  -1  26  -1  41  -1
M  END
>  <COMPND>  (314) 
    udp_gluA.pdb 

>  <AUTHOR>  (314) 
    GENERATED BY OPEN BABEL 3.1.1

>  <MASTER>  (314) 
        0    0    0    0    0    0    0    0   56    0   56    0

>  <minimizedAffinity>  (314) 
-6.88539

>  <CNNscore>  (314) 
0.6505710483

>  <CNNaffinity>  (314) 
4.5602316856

>  <CNN_VS>  (314) 
2.9667546749

>  <CNNaffinity_variance>  (314) 
0.0676490217

$$$$
315
     RDKit          3D

 43 45  0  0  0  0  0  0  0  0999 V2000
   23.4375   73.7751   -4.0784 P   0  0  2  0  0  0  0  0  0  0  0  0
   24.2014   72.3549   -4.2129 O   0  0  0  0  0  0  0  0  0  0  0  0
   24.1175   74.9272   -4.7582 O   0  0  0  0  0  0  0  0  0  0  0  0
   23.2003   73.9394   -2.4863 O   0  0  0  0  0  0  0  0  0  0  0  0
   21.9045   73.7020   -1.9677 C   0  0  0  0  0  0  0  0  0  0  0  0
   23.0290   71.8041   -1.0132 O   0  0  0  0  0  0  0  0  0  0  0  0
   20.3055   70.5966   -0.6722 O   0  0  0  0  0  0  0  0  0  0  0  0
   20.8720   71.5068    1.8351 O   0  0  0  0  0  0  0  0  0  0  0  0
   20.7116   71.9598   -0.5484 C   0  0  1  0  0  0  0  0  0  0  0  0
   21.4779   72.1634    0.7414 C   0  0  2  0  0  0  0  0  0  0  0  0
   21.7797   72.2292   -1.5996 C   0  0  1  0  0  0  0  0  0  0  0  0
   22.8394   71.5858    0.3938 C   0  0  2  0  0  0  0  0  0  0  0  0
   19.6232   70.4008   -0.0106 H   0  0  0  0  0  0  0  0  0  0  0  0
   20.0086   71.9111    2.0169 H   0  0  0  0  0  0  0  0  0  0  0  0
   24.7456   70.2177    1.9658 O   0  0  0  0  0  0  0  0  0  0  0  0
   26.8847   74.1369    3.1094 O   0  0  0  0  0  0  0  0  0  0  0  0
   23.9052   72.2240    1.1131 N   0  0  0  0  0  0  0  0  0  0  0  0
   25.8086   72.1711    2.5347 N   0  0  0  0  0  0  0  0  0  0  0  0
   24.8091   71.4450    1.8736 C   0  0  0  0  0  0  0  0  0  0  0  0
   24.0483   73.6052    1.0599 C   0  0  0  0  0  0  0  0  0  0  0  0
   25.0061   74.2831    1.6954 C   0  0  0  0  0  0  0  0  0  0  0  0
   25.9910   73.5443    2.5125 C   0  0  0  0  0  0  0  0  0  0  0  0
   26.4485   71.6506    3.0722 H   0  0  0  0  0  0  0  0  0  0  0  0
   21.9561   73.4444   -4.6342 O   0  0  0  0  0  0  0  0  0  0  0  0
   21.3804   73.3717   -6.1432 P   0  0  2  0  0  0  0  0  0  0  0  0
   22.4870   72.4804   -6.9187 O   0  0  0  0  0  0  0  0  0  0  0  0
   21.1175   74.7116   -6.7673 O   0  0  0  0  0  0  0  0  0  0  0  0
   20.0855   72.4149   -6.0415 O   0  0  0  0  0  0  0  0  0  0  0  0
   19.6751   70.2198   -5.2524 O   0  0  0  0  0  0  0  0  0  0  0  0
   17.3913   70.3168   -8.6937 O   0  0  0  0  0  0  0  0  0  0  0  0
   20.0706   71.4807   -8.6613 O   0  0  0  0  0  0  0  0  0  0  0  0
   16.1154   70.5196   -6.0895 O   0  0  0  0  0  0  0  0  0  0  0  0
   18.0175   70.8560   -7.5296 C   0  0  2  0  0  0  0  0  0  0  0  0
   19.5312   70.6649   -7.6277 C   0  0  2  0  0  0  0  0  0  0  0  0
   17.4654   70.1153   -6.3096 C   0  0  1  0  0  0  0  0  0  0  0  0
   20.2141   71.0191   -6.3060 C   0  0  1  0  0  0  0  0  0  0  0  0
   18.2778   70.4246   -5.0554 C   0  0  1  0  0  0  0  0  0  0  0  0
   17.7267   70.7723   -9.4819 H   0  0  0  0  0  0  0  0  0  0  0  0
   19.6415   71.2615   -9.5028 H   0  0  0  0  0  0  0  0  0  0  0  0
   15.5875   70.3284   -6.8805 H   0  0  0  0  0  0  0  0  0  0  0  0
   18.8821   69.5198   -2.9775 O   0  0  0  0  0  0  0  0  0  0  0  0
   16.9747   68.7261   -3.9425 O   0  0  0  0  0  0  0  0  0  0  0  0
   17.9490   69.4633   -3.9600 C   0  0  0  0  0  0  0  0  0  0  0  0
  1  4  1  0
  1 24  1  0
  1  2  1  1
  1  3  2  0
 25 28  1  0
 25 24  1  0
 25 26  1  6
 25 27  2  0
  6 11  1  0
  6 12  1  0
 29 36  1  0
 29 37  1  0
  9  7  1  1
  7 13  1  0
 10  8  1  1
  8 14  1  0
  4  5  1  0
 36 28  1  1
 33 30  1  6
 30 38  1  0
 34 31  1  6
 31 39  1  0
 35 32  1  1
 32 40  1  0
 41 43  1  0
 15 19  2  0
 42 43  2  0
 16 22  2  0
 12 17  1  1
 17 19  1  0
 17 20  1  0
 18 19  1  0
 18 22  1  0
 18 23  1  0
  9 10  1  0
  9 11  1  0
 10 12  1  0
 11  5  1  1
 33 34  1  0
 33 35  1  0
 34 36  1  0
 35 37  1  0
 37 43  1  1
 20 21  2  0
 21 22  1  0
M  CHG  3   2  -1  26  -1  41  -1
M  END
>  <COMPND>  (315) 
    udp_gluA.pdb 

>  <AUTHOR>  (315) 
    GENERATED BY OPEN BABEL 3.1.1

>  <MASTER>  (315) 
        0    0    0    0    0    0    0    0   56    0   56    0

>  <minimizedAffinity>  (315) 
-7.60773

>  <CNNscore>  (315) 
0.6428644061

>  <CNNaffinity>  (315) 
4.4119491577

>  <CNN_VS>  (315) 
2.8362851143

>  <CNNaffinity_variance>  (315) 
0.1362465322

$$$$
316
     RDKit          3D

 43 45  0  0  0  0  0  0  0  0999 V2000
   22.8509   75.0295   -1.3882 P   0  0  2  0  0  0  0  0  0  0  0  0
   23.9472   76.1884   -1.6602 O   0  0  0  0  0  0  0  0  0  0  0  0
   21.4281   75.4298   -1.6478 O   0  0  0  0  0  0  0  0  0  0  0  0
   23.1773   74.5313    0.1161 O   0  0  0  0  0  0  0  0  0  0  0  0
   22.1976   74.7243    1.1198 C   0  0  0  0  0  0  0  0  0  0  0  0
   22.7114   72.3950    1.4165 O   0  0  0  0  0  0  0  0  0  0  0  0
   20.2743   72.2706    3.1591 O   0  0  0  0  0  0  0  0  0  0  0  0
   22.3021   72.3904    4.9783 O   0  0  0  0  0  0  0  0  0  0  0  0
   21.2250   73.3252    3.0090 C   0  0  1  0  0  0  0  0  0  0  0  0
   22.5196   72.9671    3.7077 C   0  0  2  0  0  0  0  0  0  0  0  0
   21.6525   73.3679    1.5483 C   0  0  1  0  0  0  0  0  0  0  0  0
   23.1502   71.9955    2.7247 C   0  0  2  0  0  0  0  0  0  0  0  0
   19.9863   72.2236    4.0845 H   0  0  0  0  0  0  0  0  0  0  0  0
   21.8997   73.0484    5.5675 H   0  0  0  0  0  0  0  0  0  0  0  0
   24.8140   69.8054    2.0835 O   0  0  0  0  0  0  0  0  0  0  0  0
   28.6414   72.2340    2.9187 O   0  0  0  0  0  0  0  0  0  0  0  0
   24.5848   72.0280    2.7661 N   0  0  0  0  0  0  0  0  0  0  0  0
   26.7186   71.0167    2.5010 N   0  0  0  0  0  0  0  0  0  0  0  0
   25.3271   70.8726    2.4251 C   0  0  0  0  0  0  0  0  0  0  0  0
   25.2417   73.1942    3.1393 C   0  0  0  0  0  0  0  0  0  0  0  0
   26.5688   73.3163    3.2069 C   0  0  0  0  0  0  0  0  0  0  0  0
   27.4176   72.1555    2.8674 C   0  0  0  0  0  0  0  0  0  0  0  0
   27.2566   70.2251    2.2702 H   0  0  0  0  0  0  0  0  0  0  0  0
   23.3830   73.8054   -2.3000 O   0  0  0  0  0  0  0  0  0  0  0  0
   23.4370   73.6231   -3.9054 P   0  0  2  0  0  0  0  0  0  0  0  0
   24.3362   72.2907   -4.0963 O   0  0  0  0  0  0  0  0  0  0  0  0
   23.9484   74.8254   -4.6449 O   0  0  0  0  0  0  0  0  0  0  0  0
   21.9444   73.1693   -4.3163 O   0  0  0  0  0  0  0  0  0  0  0  0
   21.2430   71.1146   -3.3700 O   0  0  0  0  0  0  0  0  0  0  0  0
   18.2347   71.8514   -6.1040 O   0  0  0  0  0  0  0  0  0  0  0  0
   21.0276   72.3400   -6.8078 O   0  0  0  0  0  0  0  0  0  0  0  0
   17.7654   72.2797   -3.2673 O   0  0  0  0  0  0  0  0  0  0  0  0
   19.2514   72.1924   -5.1617 C   0  0  2  0  0  0  0  0  0  0  0  0
   20.5971   71.6479   -5.6415 C   0  0  2  0  0  0  0  0  0  0  0  0
   18.8755   71.5709   -3.8147 C   0  0  1  0  0  0  0  0  0  0  0  0
   21.6640   71.7913   -4.5551 C   0  0  1  0  0  0  0  0  0  0  0  0
   20.0352   71.6417   -2.8255 C   0  0  1  0  0  0  0  0  0  0  0  0
   18.4522   72.2356   -6.9679 H   0  0  0  0  0  0  0  0  0  0  0  0
   20.3552   72.2535   -7.5012 H   0  0  0  0  0  0  0  0  0  0  0  0
   17.0204   72.2425   -3.8873 H   0  0  0  0  0  0  0  0  0  0  0  0
   18.6904   69.9812   -1.8580 O   0  0  0  0  0  0  0  0  0  0  0  0
   20.4645   70.7265   -0.6347 O   0  0  0  0  0  0  0  0  0  0  0  0
   19.7833   70.7563   -1.6487 C   0  0  0  0  0  0  0  0  0  0  0  0
  1  4  1  0
  1 24  1  0
  1  2  1  6
  1  3  2  0
 25 28  1  0
 25 24  1  0
 25 26  1  1
 25 27  2  0
  6 11  1  0
  6 12  1  0
 29 36  1  0
 29 37  1  0
  9  7  1  6
  7 13  1  0
 10  8  1  1
  8 14  1  0
  4  5  1  0
 36 28  1  1
 33 30  1  6
 30 38  1  0
 34 31  1  6
 31 39  1  0
 35 32  1  1
 32 40  1  0
 41 43  1  0
 15 19  2  0
 42 43  2  0
 16 22  2  0
 12 17  1  6
 17 19  1  0
 17 20  1  0
 18 19  1  0
 18 22  1  0
 18 23  1  0
  9 10  1  0
  9 11  1  0
 10 12  1  0
 11  5  1  1
 33 34  1  0
 33 35  1  0
 34 36  1  0
 35 37  1  0
 37 43  1  1
 20 21  2  0
 21 22  1  0
M  CHG  3   2  -1  26  -1  41  -1
M  END
>  <COMPND>  (316) 
    udp_gluA.pdb 

>  <AUTHOR>  (316) 
    GENERATED BY OPEN BABEL 3.1.1

>  <MASTER>  (316) 
        0    0    0    0    0    0    0    0   56    0   56    0

>  <minimizedAffinity>  (316) 
-6.95398

>  <CNNscore>  (316) 
0.6216248870

>  <CNNaffinity>  (316) 
4.1760835648

>  <CNN_VS>  (316) 
2.5959575176

>  <CNNaffinity_variance>  (316) 
0.3257097602

$$$$
317
     RDKit          3D

 43 45  0  0  0  0  0  0  0  0999 V2000
   23.0834   73.5079   -4.2542 P   0  0  2  0  0  0  0  0  0  0  0  0
   24.0443   72.2067   -4.2034 O   0  0  0  0  0  0  0  0  0  0  0  0
   23.6925   74.7206   -4.8945 O   0  0  0  0  0  0  0  0  0  0  0  0
   22.5971   73.6918   -2.7220 O   0  0  0  0  0  0  0  0  0  0  0  0
   21.5981   74.6548   -2.4407 C   0  0  0  0  0  0  0  0  0  0  0  0
   20.8951   72.7054   -1.2229 O   0  0  0  0  0  0  0  0  0  0  0  0
   18.5506   74.3428   -0.3208 O   0  0  0  0  0  0  0  0  0  0  0  0
   20.2065   74.4299    1.8440 O   0  0  0  0  0  0  0  0  0  0  0  0
   19.9013   74.7466   -0.5473 C   0  0  1  0  0  0  0  0  0  0  0  0
   20.7917   74.2491    0.5715 C   0  0  2  0  0  0  0  0  0  0  0  0
   20.4296   73.9687   -1.7449 C   0  0  1  0  0  0  0  0  0  0  0  0
   20.9636   72.7837    0.2098 C   0  0  2  0  0  0  0  0  0  0  0  0
   18.1915   74.8265    0.4399 H   0  0  0  0  0  0  0  0  0  0  0  0
   20.1187   75.3789    2.0276 H   0  0  0  0  0  0  0  0  0  0  0  0
   21.4132   70.0780    0.8834 O   0  0  0  0  0  0  0  0  0  0  0  0
   25.8445   70.8707    1.8727 O   0  0  0  0  0  0  0  0  0  0  0  0
   22.2252   72.2558    0.6464 N   0  0  0  0  0  0  0  0  0  0  0  0
   23.6196   70.4756    1.3764 N   0  0  0  0  0  0  0  0  0  0  0  0
   22.3446   70.8813    0.9605 C   0  0  0  0  0  0  0  0  0  0  0  0
   23.3270   73.0952    0.7583 C   0  0  0  0  0  0  0  0  0  0  0  0
   24.5359   72.6939    1.1560 C   0  0  0  0  0  0  0  0  0  0  0  0
   24.7453   71.2731    1.5039 C   0  0  0  0  0  0  0  0  0  0  0  0
   23.7267   69.5234    1.6025 H   0  0  0  0  0  0  0  0  0  0  0  0
   21.7573   72.9511   -4.9920 O   0  0  0  0  0  0  0  0  0  0  0  0
   20.9554   73.4947   -6.2863 P   0  0  2  0  0  0  0  0  0  0  0  0
   21.9427   73.1259   -7.5149 O   0  0  0  0  0  0  0  0  0  0  0  0
   20.5766   74.9455   -6.2115 O   0  0  0  0  0  0  0  0  0  0  0  0
   19.7081   72.4846   -6.4490 O   0  0  0  0  0  0  0  0  0  0  0  0
   19.3088   70.2736   -5.6999 O   0  0  0  0  0  0  0  0  0  0  0  0
   17.5245   70.2341   -9.4258 O   0  0  0  0  0  0  0  0  0  0  0  0
   20.1077   71.5413   -9.0348 O   0  0  0  0  0  0  0  0  0  0  0  0
   15.8895   70.3774   -7.0265 O   0  0  0  0  0  0  0  0  0  0  0  0
   17.9530   70.8108   -8.1922 C   0  0  2  0  0  0  0  0  0  0  0  0
   19.4736   70.7013   -8.0771 C   0  0  2  0  0  0  0  0  0  0  0  0
   17.2765   70.0459   -7.0524 C   0  0  1  0  0  0  0  0  0  0  0  0
   19.9462   71.0969   -6.6774 C   0  0  1  0  0  0  0  0  0  0  0  0
   17.8888   70.4033   -5.7012 C   0  0  1  0  0  0  0  0  0  0  0  0
   17.9418   70.7041  -10.1649 H   0  0  0  0  0  0  0  0  0  0  0  0
   19.8122   71.2960   -9.9252 H   0  0  0  0  0  0  0  0  0  0  0  0
   15.4878   70.1549   -7.8809 H   0  0  0  0  0  0  0  0  0  0  0  0
   18.4671   69.2066   -3.7686 O   0  0  0  0  0  0  0  0  0  0  0  0
   16.3608   68.9044   -4.5878 O   0  0  0  0  0  0  0  0  0  0  0  0
   17.4621   69.4297   -4.6512 C   0  0  0  0  0  0  0  0  0  0  0  0
  1  4  1  0
  1 24  1  0
  1  2  1  1
  1  3  2  0
 25 28  1  0
 25 24  1  0
 25 26  1  6
 25 27  2  0
  6 11  1  0
  6 12  1  0
 29 36  1  0
 29 37  1  0
  9  7  1  1
  7 13  1  0
 10  8  1  1
  8 14  1  0
  4  5  1  0
 36 28  1  1
 33 30  1  6
 30 38  1  0
 34 31  1  6
 31 39  1  0
 35 32  1  1
 32 40  1  0
 41 43  1  0
 15 19  2  0
 42 43  2  0
 16 22  2  0
 12 17  1  6
 17 19  1  0
 17 20  1  0
 18 19  1  0
 18 22  1  0
 18 23  1  0
  9 10  1  0
  9 11  1  0
 10 12  1  0
 11  5  1  1
 33 34  1  0
 33 35  1  0
 34 36  1  0
 35 37  1  0
 37 43  1  1
 20 21  2  0
 21 22  1  0
M  CHG  3   2  -1  26  -1  41  -1
M  END
>  <COMPND>  (317) 
    udp_gluA.pdb 

>  <AUTHOR>  (317) 
    GENERATED BY OPEN BABEL 3.1.1

>  <MASTER>  (317) 
        0    0    0    0    0    0    0    0   56    0   56    0

>  <minimizedAffinity>  (317) 
-7.82174

>  <CNNscore>  (317) 
0.6056734324

>  <CNNaffinity>  (317) 
4.5501070023

>  <CNN_VS>  (317) 
2.7558789253

>  <CNNaffinity_variance>  (317) 
0.0773092657

$$$$
318
     RDKit          3D

 43 45  0  0  0  0  0  0  0  0999 V2000
   21.7083   72.6464   -5.5334 P   0  0  2  0  0  0  0  0  0  0  0  0
   21.0980   74.1373   -5.6871 O   0  0  0  0  0  0  0  0  0  0  0  0
   23.1094   72.4796   -6.0441 O   0  0  0  0  0  0  0  0  0  0  0  0
   20.5924   71.6971   -6.2201 O   0  0  0  0  0  0  0  0  0  0  0  0
   20.0901   72.0568   -7.4940 C   0  0  0  0  0  0  0  0  0  0  0  0
   18.9059   70.0027   -7.0988 O   0  0  0  0  0  0  0  0  0  0  0  0
   18.1529   70.0956   -9.9998 O   0  0  0  0  0  0  0  0  0  0  0  0
   15.8942   71.0004   -8.7687 O   0  0  0  0  0  0  0  0  0  0  0  0
   18.3011   71.1688   -9.0699 C   0  0  1  0  0  0  0  0  0  0  0  0
   17.1289   71.1981   -8.1122 C   0  0  2  0  0  0  0  0  0  0  0  0
   19.4611   70.8308   -8.1434 C   0  0  1  0  0  0  0  0  0  0  0  0
   17.4721   70.0661   -7.1589 C   0  0  2  0  0  0  0  0  0  0  0  0
   17.4174   70.2888  -10.6026 H   0  0  0  0  0  0  0  0  0  0  0  0
   15.7211   71.7475   -9.3636 H   0  0  0  0  0  0  0  0  0  0  0  0
   16.2941   68.0672   -5.5486 O   0  0  0  0  0  0  0  0  0  0  0  0
   15.5369   71.0327   -2.1024 O   0  0  0  0  0  0  0  0  0  0  0  0
   16.9587   70.2884   -5.8368 N   0  0  0  0  0  0  0  0  0  0  0  0
   15.9172   69.5463   -3.8341 N   0  0  0  0  0  0  0  0  0  0  0  0
   16.3864   69.2161   -5.1123 C   0  0  0  0  0  0  0  0  0  0  0  0
   17.0263   71.5555   -5.2705 C   0  0  0  0  0  0  0  0  0  0  0  0
   16.5749   71.8549   -4.0509 C   0  0  0  0  0  0  0  0  0  0  0  0
   15.9617   70.7915   -3.2283 C   0  0  0  0  0  0  0  0  0  0  0  0
   15.5127   68.8166   -3.3114 H   0  0  0  0  0  0  0  0  0  0  0  0
   21.5254   72.3403   -3.9568 O   0  0  0  0  0  0  0  0  0  0  0  0
   21.8673   71.0225   -3.0848 P   0  0  2  0  0  0  0  0  0  0  0  0
   23.4817   70.9349   -3.1644 O   0  0  0  0  0  0  0  0  0  0  0  0
   21.1573   69.7809   -3.5412 O   0  0  0  0  0  0  0  0  0  0  0  0
   21.5573   71.4489   -1.5602 O   0  0  0  0  0  0  0  0  0  0  0  0
   23.2759   72.8080   -0.6611 O   0  0  0  0  0  0  0  0  0  0  0  0
   20.8664   72.2058    2.6404 O   0  0  0  0  0  0  0  0  0  0  0  0
   21.4529   70.0029    0.8135 O   0  0  0  0  0  0  0  0  0  0  0  0
   20.8203   74.7562    1.2460 O   0  0  0  0  0  0  0  0  0  0  0  0
   21.1582   72.3707    1.2527 C   0  0  2  0  0  0  0  0  0  0  0  0
   22.1098   71.2649    0.7950 C   0  0  2  0  0  0  0  0  0  0  0  0
   21.8084   73.7434    1.0660 C   0  0  1  0  0  0  0  0  0  0  0  0
   22.6253   71.5374   -0.6188 C   0  0  1  0  0  0  0  0  0  0  0  0
   22.4089   73.8902   -0.3291 C   0  0  1  0  0  0  0  0  0  0  0  0
   20.4525   71.3400    2.7834 H   0  0  0  0  0  0  0  0  0  0  0  0
   21.1229   69.8237    1.7076 H   0  0  0  0  0  0  0  0  0  0  0  0
   20.4301   74.6737    2.1302 H   0  0  0  0  0  0  0  0  0  0  0  0
   22.5967   76.2177   -0.5505 O   0  0  0  0  0  0  0  0  0  0  0  0
   24.5325   75.0355   -0.3173 O   0  0  0  0  0  0  0  0  0  0  0  0
   23.3138   75.0773   -0.3948 C   0  0  0  0  0  0  0  0  0  0  0  0
  1  4  1  0
  1 24  1  0
  1  2  1  1
  1  3  2  0
 25 28  1  0
 25 24  1  0
 25 26  1  1
 25 27  2  0
  6 11  1  0
  6 12  1  0
 29 36  1  0
 29 37  1  0
  9  7  1  6
  7 13  1  0
 10  8  1  6
  8 14  1  0
  4  5  1  0
 36 28  1  6
 33 30  1  1
 30 38  1  0
 34 31  1  6
 31 39  1  0
 35 32  1  6
 32 40  1  0
 41 43  1  0
 15 19  2  0
 42 43  2  0
 16 22  2  0
 12 17  1  1
 17 19  1  0
 17 20  1  0
 18 19  1  0
 18 22  1  0
 18 23  1  0
  9 10  1  0
  9 11  1  0
 10 12  1  0
 11  5  1  1
 33 34  1  0
 33 35  1  0
 34 36  1  0
 35 37  1  0
 37 43  1  1
 20 21  2  0
 21 22  1  0
M  CHG  3   2  -1  26  -1  41  -1
M  END
>  <COMPND>  (318) 
    udp_gluA.pdb 

>  <AUTHOR>  (318) 
    GENERATED BY OPEN BABEL 3.1.1

>  <MASTER>  (318) 
        0    0    0    0    0    0    0    0   56    0   56    0

>  <minimizedAffinity>  (318) 
-7.76914

>  <CNNscore>  (318) 
0.6030171514

>  <CNNaffinity>  (318) 
4.5334081650

>  <CNN_VS>  (318) 
2.7337229252

>  <CNNaffinity_variance>  (318) 
0.1855465919

$$$$
319
     RDKit          3D

 43 45  0  0  0  0  0  0  0  0999 V2000
   21.8110   72.7967   -5.6993 P   0  0  2  0  0  0  0  0  0  0  0  0
   21.3150   74.3240   -5.9001 O   0  0  0  0  0  0  0  0  0  0  0  0
   23.1299   72.4700   -6.3361 O   0  0  0  0  0  0  0  0  0  0  0  0
   20.5518   71.9108   -6.1968 O   0  0  0  0  0  0  0  0  0  0  0  0
   19.9630   72.2154   -7.4478 C   0  0  0  0  0  0  0  0  0  0  0  0
   18.9217   70.0987   -6.9863 O   0  0  0  0  0  0  0  0  0  0  0  0
   18.1210   70.0731   -9.8759 O   0  0  0  0  0  0  0  0  0  0  0  0
   15.8266   70.8583   -8.6288 O   0  0  0  0  0  0  0  0  0  0  0  0
   18.2126   71.1756   -8.9734 C   0  0  1  0  0  0  0  0  0  0  0  0
   17.0554   71.1515   -7.9973 C   0  0  2  0  0  0  0  0  0  0  0  0
   19.4059   70.9360   -8.0586 C   0  0  1  0  0  0  0  0  0  0  0  0
   17.4861   70.0673   -7.0242 C   0  0  2  0  0  0  0  0  0  0  0  0
   17.3655   70.2036  -10.4707 H   0  0  0  0  0  0  0  0  0  0  0  0
   15.5962   71.5781   -9.2376 H   0  0  0  0  0  0  0  0  0  0  0  0
   16.1557   68.1117   -5.4808 O   0  0  0  0  0  0  0  0  0  0  0  0
   15.5835   71.0226   -1.9533 O   0  0  0  0  0  0  0  0  0  0  0  0
   16.9791   70.2872   -5.6993 N   0  0  0  0  0  0  0  0  0  0  0  0
   15.8711   69.5637   -3.7257 N   0  0  0  0  0  0  0  0  0  0  0  0
   16.3260   69.2380   -5.0103 C   0  0  0  0  0  0  0  0  0  0  0  0
   17.1321   71.5293   -5.0955 C   0  0  0  0  0  0  0  0  0  0  0  0
   16.6932   71.8247   -3.8703 C   0  0  0  0  0  0  0  0  0  0  0  0
   15.9992   70.7844   -3.0832 C   0  0  0  0  0  0  0  0  0  0  0  0
   15.4114   68.8499   -3.2272 H   0  0  0  0  0  0  0  0  0  0  0  0
   21.7741   72.6113   -4.0940 O   0  0  0  0  0  0  0  0  0  0  0  0
   22.2453   71.3814   -3.1565 P   0  0  2  0  0  0  0  0  0  0  0  0
   23.8524   71.3640   -3.3492 O   0  0  0  0  0  0  0  0  0  0  0  0
   21.5710   70.0765   -3.4674 O   0  0  0  0  0  0  0  0  0  0  0  0
   22.0218   71.9076   -1.6480 O   0  0  0  0  0  0  0  0  0  0  0  0
   20.5416   73.6925   -1.1659 O   0  0  0  0  0  0  0  0  0  0  0  0
   22.9282   73.6456    2.2060 O   0  0  0  0  0  0  0  0  0  0  0  0
   24.1050   73.3047   -0.4460 O   0  0  0  0  0  0  0  0  0  0  0  0
   20.2285   72.5728    2.3141 O   0  0  0  0  0  0  0  0  0  0  0  0
   22.2394   73.0835    1.0891 C   0  0  2  0  0  0  0  0  0  0  0  0
   22.7629   73.7104   -0.2034 C   0  0  2  0  0  0  0  0  0  0  0  0
   20.7470   73.3778    1.2569 C   0  0  1  0  0  0  0  0  0  0  0  0
   21.8969   73.3063   -1.3973 C   0  0  1  0  0  0  0  0  0  0  0  0
   19.9708   73.0660   -0.0193 C   0  0  1  0  0  0  0  0  0  0  0  0
   23.8788   73.4711    2.1211 H   0  0  0  0  0  0  0  0  0  0  0  0
   24.6601   73.5576    0.3078 H   0  0  0  0  0  0  0  0  0  0  0  0
   20.7142   72.7615    3.1322 H   0  0  0  0  0  0  0  0  0  0  0  0
   18.5061   74.5566    1.0458 O   0  0  0  0  0  0  0  0  0  0  0  0
   17.6821   73.3717   -0.7195 O   0  0  0  0  0  0  0  0  0  0  0  0
   18.5989   73.6553    0.0369 C   0  0  0  0  0  0  0  0  0  0  0  0
  1  4  1  0
  1 24  1  0
  1  2  1  1
  1  3  2  0
 25 28  1  0
 25 24  1  0
 25 26  1  1
 25 27  2  0
  6 11  1  0
  6 12  1  0
 29 36  1  0
 29 37  1  0
  9  7  1  6
  7 13  1  0
 10  8  1  6
  8 14  1  0
  4  5  1  0
 36 28  1  1
 33 30  1  1
 30 38  1  0
 34 31  1  6
 31 39  1  0
 35 32  1  1
 32 40  1  0
 41 43  1  0
 15 19  2  0
 42 43  2  0
 16 22  2  0
 12 17  1  1
 17 19  1  0
 17 20  1  0
 18 19  1  0
 18 22  1  0
 18 23  1  0
  9 10  1  0
  9 11  1  0
 10 12  1  0
 11  5  1  1
 33 34  1  0
 33 35  1  0
 34 36  1  0
 35 37  1  0
 37 43  1  1
 20 21  2  0
 21 22  1  0
M  CHG  3   2  -1  26  -1  41  -1
M  END
>  <COMPND>  (319) 
    udp_gluA.pdb 

>  <AUTHOR>  (319) 
    GENERATED BY OPEN BABEL 3.1.1

>  <MASTER>  (319) 
        0    0    0    0    0    0    0    0   56    0   56    0

>  <minimizedAffinity>  (319) 
-6.99947

>  <CNNscore>  (319) 
0.5989177227

>  <CNNaffinity>  (319) 
4.4643387794

>  <CNN_VS>  (319) 
2.6737716198

>  <CNNaffinity_variance>  (319) 
0.2044081688

$$$$
320
     RDKit          3D

 43 45  0  0  0  0  0  0  0  0999 V2000
   23.0815   72.2965   -3.9144 P   0  0  2  0  0  0  0  0  0  0  0  0
   23.4629   72.7296   -5.4263 O   0  0  0  0  0  0  0  0  0  0  0  0
   24.0494   71.3532   -3.2624 O   0  0  0  0  0  0  0  0  0  0  0  0
   21.5573   71.7672   -4.0346 O   0  0  0  0  0  0  0  0  0  0  0  0
   20.6521   72.4917   -4.8471 C   0  0  0  0  0  0  0  0  0  0  0  0
   19.3039   70.5942   -5.4467 O   0  0  0  0  0  0  0  0  0  0  0  0
   19.4627   71.6066   -8.2647 O   0  0  0  0  0  0  0  0  0  0  0  0
   16.9861   72.4299   -7.4745 O   0  0  0  0  0  0  0  0  0  0  0  0
   19.3776   72.3419   -7.0438 C   0  0  1  0  0  0  0  0  0  0  0  0
   17.9747   72.2611   -6.4801 C   0  0  2  0  0  0  0  0  0  0  0  0
   20.1875   71.5986   -5.9903 C   0  0  1  0  0  0  0  0  0  0  0  0
   17.9594   70.8697   -5.8706 C   0  0  2  0  0  0  0  0  0  0  0  0
   18.9527   72.0622   -8.9532 H   0  0  0  0  0  0  0  0  0  0  0  0
   17.0368   73.3312   -7.8311 H   0  0  0  0  0  0  0  0  0  0  0  0
   16.6074   68.5176   -5.0855 O   0  0  0  0  0  0  0  0  0  0  0  0
   14.6266   70.6338   -1.5020 O   0  0  0  0  0  0  0  0  0  0  0  0
   17.0842   70.7779   -4.7363 N   0  0  0  0  0  0  0  0  0  0  0  0
   15.6214   69.5741   -3.3021 N   0  0  0  0  0  0  0  0  0  0  0  0
   16.4539   69.5490   -4.4287 C   0  0  0  0  0  0  0  0  0  0  0  0
   16.8589   71.8956   -3.9419 C   0  0  0  0  0  0  0  0  0  0  0  0
   16.0627   71.9040   -2.8711 C   0  0  0  0  0  0  0  0  0  0  0  0
   15.3656   70.6607   -2.4815 C   0  0  0  0  0  0  0  0  0  0  0  0
   15.1700   68.7307   -3.0692 H   0  0  0  0  0  0  0  0  0  0  0  0
   22.9146   73.7169   -3.1612 O   0  0  0  0  0  0  0  0  0  0  0  0
   24.0006   74.6634   -2.4274 P   0  0  2  0  0  0  0  0  0  0  0  0
   23.1341   75.9650   -2.0089 O   0  0  0  0  0  0  0  0  0  0  0  0
   25.2129   74.9687   -3.2587 O   0  0  0  0  0  0  0  0  0  0  0  0
   24.3162   73.9183   -1.0318 O   0  0  0  0  0  0  0  0  0  0  0  0
   22.3962   72.9840   -0.0071 O   0  0  0  0  0  0  0  0  0  0  0  0
   25.2480   72.4875    2.9406 O   0  0  0  0  0  0  0  0  0  0  0  0
   25.1132   74.9749    1.4145 O   0  0  0  0  0  0  0  0  0  0  0  0
   24.3898   70.2154    1.3430 O   0  0  0  0  0  0  0  0  0  0  0  0
   24.7598   72.5821    1.6024 C   0  0  2  0  0  0  0  0  0  0  0  0
   24.1219   73.9546    1.3862 C   0  0  2  0  0  0  0  0  0  0  0  0
   23.7230   71.4751    1.3980 C   0  0  1  0  0  0  0  0  0  0  0  0
   23.3868   74.0113    0.0463 C   0  0  1  0  0  0  0  0  0  0  0  0
   22.9458   71.6727    0.0997 C   0  0  1  0  0  0  0  0  0  0  0  0
   25.9086   73.1814    3.0937 H   0  0  0  0  0  0  0  0  0  0  0  0
   25.5838   74.9446    2.2619 H   0  0  0  0  0  0  0  0  0  0  0  0
   24.8885   70.0775    2.1634 H   0  0  0  0  0  0  0  0  0  0  0  0
   21.6016   70.1226    1.2364 O   0  0  0  0  0  0  0  0  0  0  0  0
   20.9647   70.7003   -0.8755 O   0  0  0  0  0  0  0  0  0  0  0  0
   21.7350   70.7979    0.0680 C   0  0  0  0  0  0  0  0  0  0  0  0
  1  4  1  0
  1 24  1  0
  1  2  1  6
  1  3  2  0
 25 28  1  0
 25 24  1  0
 25 26  1  1
 25 27  2  0
  6 11  1  0
  6 12  1  0
 29 36  1  0
 29 37  1  0
  9  7  1  6
  7 13  1  0
 10  8  1  6
  8 14  1  0
  4  5  1  0
 36 28  1  6
 33 30  1  1
 30 38  1  0
 34 31  1  6
 31 39  1  0
 35 32  1  6
 32 40  1  0
 41 43  1  0
 15 19  2  0
 42 43  2  0
 16 22  2  0
 12 17  1  1
 17 19  1  0
 17 20  1  0
 18 19  1  0
 18 22  1  0
 18 23  1  0
  9 10  1  0
  9 11  1  0
 10 12  1  0
 11  5  1  1
 33 34  1  0
 33 35  1  0
 34 36  1  0
 35 37  1  0
 37 43  1  1
 20 21  2  0
 21 22  1  0
M  CHG  3   2  -1  26  -1  41  -1
M  END
>  <COMPND>  (320) 
    udp_gluA.pdb 

>  <AUTHOR>  (320) 
    GENERATED BY OPEN BABEL 3.1.1

>  <MASTER>  (320) 
        0    0    0    0    0    0    0    0   56    0   56    0

>  <minimizedAffinity>  (320) 
-7.07604

>  <CNNscore>  (320) 
0.5534157157

>  <CNNaffinity>  (320) 
4.2751131058

>  <CNN_VS>  (320) 
2.3659148216

>  <CNNaffinity_variance>  (320) 
0.2015934438

$$$$
321
     RDKit          3D

 43 45  0  0  0  0  0  0  0  0999 V2000
   21.0902   71.5052   -3.4482 P   0  0  2  0  0  0  0  0  0  0  0  0
   21.0762   71.1576   -5.0287 O   0  0  0  0  0  0  0  0  0  0  0  0
   21.7512   70.4760   -2.5790 O   0  0  0  0  0  0  0  0  0  0  0  0
   19.5410   71.8231   -3.1066 O   0  0  0  0  0  0  0  0  0  0  0  0
   18.7869   72.5842   -4.0322 C   0  0  0  0  0  0  0  0  0  0  0  0
   16.9464   72.0099   -5.4675 O   0  0  0  0  0  0  0  0  0  0  0  0
   15.9101   70.3777   -3.1754 O   0  0  0  0  0  0  0  0  0  0  0  0
   17.0458   68.4917   -4.7845 O   0  0  0  0  0  0  0  0  0  0  0  0
   17.2582   70.5991   -3.5905 C   0  0  1  0  0  0  0  0  0  0  0  0
   17.5570   69.8067   -4.8455 C   0  0  2  0  0  0  0  0  0  0  0  0
   17.3673   72.0345   -4.0864 C   0  0  1  0  0  0  0  0  0  0  0  0
   16.8832   70.6470   -5.9169 C   0  0  2  0  0  0  0  0  0  0  0  0
   15.8158   69.4669   -2.8543 H   0  0  0  0  0  0  0  0  0  0  0  0
   17.5068   67.9975   -4.0879 H   0  0  0  0  0  0  0  0  0  0  0  0
   15.5608   70.7554   -8.4101 O   0  0  0  0  0  0  0  0  0  0  0  0
   19.5085   70.2398  -10.7325 O   0  0  0  0  0  0  0  0  0  0  0  0
   17.5411   70.5437   -7.1887 N   0  0  0  0  0  0  0  0  0  0  0  0
   17.5281   70.4975   -9.5644 N   0  0  0  0  0  0  0  0  0  0  0  0
   16.7843   70.6101   -8.3823 C   0  0  0  0  0  0  0  0  0  0  0  0
   18.9199   70.3803   -7.2450 C   0  0  0  0  0  0  0  0  0  0  0  0
   19.6149   70.2746   -8.3793 C   0  0  0  0  0  0  0  0  0  0  0  0
   18.8997   70.3333   -9.6709 C   0  0  0  0  0  0  0  0  0  0  0  0
   17.0228   70.5388  -10.4083 H   0  0  0  0  0  0  0  0  0  0  0  0
   21.7793   72.9667   -3.4042 O   0  0  0  0  0  0  0  0  0  0  0  0
   23.3349   73.4065   -3.3825 P   0  0  2  0  0  0  0  0  0  0  0  0
   23.2809   74.9763   -3.7740 O   0  0  0  0  0  0  0  0  0  0  0  0
   24.2213   72.5786   -4.2673 O   0  0  0  0  0  0  0  0  0  0  0  0
   23.7432   73.3899   -1.8219 O   0  0  0  0  0  0  0  0  0  0  0  0
   22.0552   73.0564   -0.1946 O   0  0  0  0  0  0  0  0  0  0  0  0
   25.1502   74.5499    2.0985 O   0  0  0  0  0  0  0  0  0  0  0  0
   24.5510   75.7086   -0.5154 O   0  0  0  0  0  0  0  0  0  0  0  0
   24.5171   71.7135    2.1714 O   0  0  0  0  0  0  0  0  0  0  0  0
   24.5599   73.8281    1.0175 C   0  0  2  0  0  0  0  0  0  0  0  0
   23.7174   74.7790    0.1669 C   0  0  2  0  0  0  0  0  0  0  0  0
   23.6815   72.7239    1.6099 C   0  0  1  0  0  0  0  0  0  0  0  0
   22.8888   74.0059   -0.8600 C   0  0  1  0  0  0  0  0  0  0  0  0
   22.7939   72.0865    0.5447 C   0  0  1  0  0  0  0  0  0  0  0  0
   25.7131   75.2571    1.7462 H   0  0  0  0  0  0  0  0  0  0  0  0
   25.0798   76.2025    0.1302 H   0  0  0  0  0  0  0  0  0  0  0  0
   25.0872   72.1062    2.8508 H   0  0  0  0  0  0  0  0  0  0  0  0
   20.9718   72.0056    2.0194 O   0  0  0  0  0  0  0  0  0  0  0  0
   21.5394   70.0678    0.9602 O   0  0  0  0  0  0  0  0  0  0  0  0
   21.7225   71.2568    1.1740 C   0  0  0  0  0  0  0  0  0  0  0  0
  1  4  1  0
  1 24  1  0
  1  2  1  6
  1  3  2  0
 25 28  1  0
 25 24  1  0
 25 26  1  6
 25 27  2  0
  6 11  1  0
  6 12  1  0
 29 36  1  0
 29 37  1  0
  9  7  1  6
  7 13  1  0
 10  8  1  1
  8 14  1  0
  4  5  1  0
 36 28  1  6
 33 30  1  1
 30 38  1  0
 34 31  1  6
 31 39  1  0
 35 32  1  6
 32 40  1  0
 41 43  1  0
 15 19  2  0
 42 43  2  0
 16 22  2  0
 12 17  1  6
 17 19  1  0
 17 20  1  0
 18 19  1  0
 18 22  1  0
 18 23  1  0
  9 10  1  0
  9 11  1  0
 10 12  1  0
 11  5  1  6
 33 34  1  0
 33 35  1  0
 34 36  1  0
 35 37  1  0
 37 43  1  1
 20 21  2  0
 21 22  1  0
M  CHG  3   2  -1  26  -1  41  -1
M  END
>  <COMPND>  (321) 
    udp_gluA.pdb 

>  <AUTHOR>  (321) 
    GENERATED BY OPEN BABEL 3.1.1

>  <MASTER>  (321) 
        0    0    0    0    0    0    0    0   56    0   56    0

>  <minimizedAffinity>  (321) 
-7.69984

>  <CNNscore>  (321) 
0.9121958017

>  <CNNaffinity>  (321) 
4.8023815155

>  <CNN_VS>  (321) 
4.3807120323

>  <CNNaffinity_variance>  (321) 
0.0544102788

$$$$
322
     RDKit          3D

 43 45  0  0  0  0  0  0  0  0999 V2000
   22.4290   71.4289   -2.4527 P   0  0  2  0  0  0  0  0  0  0  0  0
   21.7268   72.7780   -3.0057 O   0  0  0  0  0  0  0  0  0  0  0  0
   23.7345   71.0808   -3.1057 O   0  0  0  0  0  0  0  0  0  0  0  0
   21.2657   70.3103   -2.5674 O   0  0  0  0  0  0  0  0  0  0  0  0
   20.5606   70.1909   -3.7893 C   0  0  0  0  0  0  0  0  0  0  0  0
   18.7585   71.4154   -4.8045 O   0  0  0  0  0  0  0  0  0  0  0  0
   16.9928   70.1833   -2.7174 O   0  0  0  0  0  0  0  0  0  0  0  0
   16.4712   68.6568   -4.9160 O   0  0  0  0  0  0  0  0  0  0  0  0
   18.1120   69.6196   -3.4017 C   0  0  1  0  0  0  0  0  0  0  0  0
   17.7365   69.2780   -4.8281 C   0  0  2  0  0  0  0  0  0  0  0  0
   19.1451   70.7205   -3.5991 C   0  0  1  0  0  0  0  0  0  0  0  0
   17.7662   70.6416   -5.4972 C   0  0  2  0  0  0  0  0  0  0  0  0
   16.3191   69.4986   -2.5798 H   0  0  0  0  0  0  0  0  0  0  0  0
   16.5042   67.7924   -4.4758 H   0  0  0  0  0  0  0  0  0  0  0  0
   15.9233   70.2021   -7.5917 O   0  0  0  0  0  0  0  0  0  0  0  0
   19.2403   70.3582  -10.7881 O   0  0  0  0  0  0  0  0  0  0  0  0
   18.1211   70.5629   -6.8860 N   0  0  0  0  0  0  0  0  0  0  0  0
   17.5772   70.2793   -9.1816 N   0  0  0  0  0  0  0  0  0  0  0  0
   17.1186   70.3388   -7.8591 C   0  0  0  0  0  0  0  0  0  0  0  0
   19.4479   70.7087   -7.2721 C   0  0  0  0  0  0  0  0  0  0  0  0
   19.8698   70.6496   -8.5367 C   0  0  0  0  0  0  0  0  0  0  0  0
   18.8861   70.4176   -9.6146 C   0  0  0  0  0  0  0  0  0  0  0  0
   16.8979   70.1220   -9.8767 H   0  0  0  0  0  0  0  0  0  0  0  0
   22.5221   71.6946   -0.8609 O   0  0  0  0  0  0  0  0  0  0  0  0
   21.3880   71.6514    0.2904 P   0  0  2  0  0  0  0  0  0  0  0  0
   21.5921   70.1901    0.9561 O   0  0  0  0  0  0  0  0  0  0  0  0
   19.9961   71.9159   -0.2060 O   0  0  0  0  0  0  0  0  0  0  0  0
   21.9060   72.6866    1.4141 O   0  0  0  0  0  0  0  0  0  0  0  0
   24.1580   73.4114    1.3031 O   0  0  0  0  0  0  0  0  0  0  0  0
   23.0879   74.5736    5.1205 O   0  0  0  0  0  0  0  0  0  0  0  0
   22.2624   71.9723    4.0784 O   0  0  0  0  0  0  0  0  0  0  0  0
   23.2949   76.5491    2.9978 O   0  0  0  0  0  0  0  0  0  0  0  0
   22.8779   74.2939    3.7364 C   0  0  2  0  0  0  0  0  0  0  0  0
   23.2116   72.8289    3.4540 C   0  0  2  0  0  0  0  0  0  0  0  0
   23.7918   75.2141    2.9240 C   0  0  1  0  0  0  0  0  0  0  0  0
   23.2207   72.5499    1.9503 C   0  0  1  0  0  0  0  0  0  0  0  0
   23.8448   74.7937    1.4581 C   0  0  1  0  0  0  0  0  0  0  0  0
   22.5175   74.0004    5.6565 H   0  0  0  0  0  0  0  0  0  0  0  0
   22.2511   72.1441    5.0327 H   0  0  0  0  0  0  0  0  0  0  0  0
   23.2561   76.8288    3.9258 H   0  0  0  0  0  0  0  0  0  0  0  0
   25.9183   75.8757    1.6357 O   0  0  0  0  0  0  0  0  0  0  0  0
   25.0402   75.6472   -0.4561 O   0  0  0  0  0  0  0  0  0  0  0  0
   24.9718   75.4743    0.7515 C   0  0  0  0  0  0  0  0  0  0  0  0
  1  4  1  0
  1 24  1  0
  1  2  1  6
  1  3  2  0
 25 28  1  0
 25 24  1  0
 25 26  1  1
 25 27  2  0
  6 11  1  0
  6 12  1  0
 29 36  1  0
 29 37  1  0
  9  7  1  1
  7 13  1  0
 10  8  1  1
  8 14  1  0
  4  5  1  0
 36 28  1  6
 33 30  1  1
 30 38  1  0
 34 31  1  1
 31 39  1  0
 35 32  1  6
 32 40  1  0
 41 43  1  0
 15 19  2  0
 42 43  2  0
 16 22  2  0
 12 17  1  6
 17 19  1  0
 17 20  1  0
 18 19  1  0
 18 22  1  0
 18 23  1  0
  9 10  1  0
  9 11  1  0
 10 12  1  0
 11  5  1  6
 33 34  1  0
 33 35  1  0
 34 36  1  0
 35 37  1  0
 37 43  1  6
 20 21  2  0
 21 22  1  0
M  CHG  3   2  -1  26  -1  41  -1
M  END
>  <COMPND>  (322) 
    udp_gluA.pdb 

>  <AUTHOR>  (322) 
    GENERATED BY OPEN BABEL 3.1.1

>  <MASTER>  (322) 
        0    0    0    0    0    0    0    0   56    0   56    0

>  <minimizedAffinity>  (322) 
-7.34729

>  <CNNscore>  (322) 
0.8977413177

>  <CNNaffinity>  (322) 
4.7450971603

>  <CNN_VS>  (322) 
4.2598695755

>  <CNNaffinity_variance>  (322) 
0.0806797892

$$$$
323
     RDKit          3D

 43 45  0  0  0  0  0  0  0  0999 V2000
   20.5135   71.2185   -1.3974 P   0  0  2  0  0  0  0  0  0  0  0  0
   21.0621   70.4933   -0.0587 O   0  0  0  0  0  0  0  0  0  0  0  0
   20.0203   72.6220   -1.2008 O   0  0  0  0  0  0  0  0  0  0  0  0
   19.4332   70.1709   -1.9918 O   0  0  0  0  0  0  0  0  0  0  0  0
   19.1166   70.2353   -3.3702 C   0  0  0  0  0  0  0  0  0  0  0  0
   17.4909   71.3308   -4.7611 O   0  0  0  0  0  0  0  0  0  0  0  0
   15.4210   69.7842   -3.2396 O   0  0  0  0  0  0  0  0  0  0  0  0
   15.6435   68.3627   -5.5560 O   0  0  0  0  0  0  0  0  0  0  0  0
   16.7330   69.3873   -3.6389 C   0  0  1  0  0  0  0  0  0  0  0  0
   16.7654   69.1050   -5.1260 C   0  0  2  0  0  0  0  0  0  0  0  0
   17.6459   70.6006   -3.5249 C   0  0  1  0  0  0  0  0  0  0  0  0
   16.7992   70.5061   -5.7123 C   0  0  2  0  0  0  0  0  0  0  0  0
   14.8196   69.0254   -3.3040 H   0  0  0  0  0  0  0  0  0  0  0  0
   15.6679   67.4789   -5.1557 H   0  0  0  0  0  0  0  0  0  0  0  0
   15.5312   70.5642   -8.2353 O   0  0  0  0  0  0  0  0  0  0  0  0
   19.5641   70.7056  -10.4624 O   0  0  0  0  0  0  0  0  0  0  0  0
   17.4937   70.5582   -6.9676 N   0  0  0  0  0  0  0  0  0  0  0  0
   17.5410   70.6335   -9.3421 N   0  0  0  0  0  0  0  0  0  0  0  0
   16.7622   70.5838   -8.1785 C   0  0  0  0  0  0  0  0  0  0  0  0
   18.8829   70.5852   -6.9911 C   0  0  0  0  0  0  0  0  0  0  0  0
   19.6114   70.6327   -8.1081 C   0  0  0  0  0  0  0  0  0  0  0  0
   18.9243   70.6613   -9.4160 C   0  0  0  0  0  0  0  0  0  0  0  0
   17.0541   70.6500  -10.1976 H   0  0  0  0  0  0  0  0  0  0  0  0
   21.7566   71.0788   -2.4212 O   0  0  0  0  0  0  0  0  0  0  0  0
   23.0657   72.0032   -2.6336 P   0  0  2  0  0  0  0  0  0  0  0  0
   24.1691   70.9589   -3.1926 O   0  0  0  0  0  0  0  0  0  0  0  0
   23.4930   72.7569   -1.4075 O   0  0  0  0  0  0  0  0  0  0  0  0
   22.7078   72.9346   -3.9012 O   0  0  0  0  0  0  0  0  0  0  0  0
   20.4191   73.3057   -4.3841 O   0  0  0  0  0  0  0  0  0  0  0  0
   22.2328   74.5988   -7.8635 O   0  0  0  0  0  0  0  0  0  0  0  0
   23.1431   72.1604   -6.5370 O   0  0  0  0  0  0  0  0  0  0  0  0
   21.2093   76.5300   -5.9467 O   0  0  0  0  0  0  0  0  0  0  0  0
   22.1263   74.3618   -6.4598 C   0  0  2  0  0  0  0  0  0  0  0  0
   21.9518   72.8644   -6.2054 C   0  0  2  0  0  0  0  0  0  0  0  0
   20.9120   75.1350   -5.9404 C   0  0  1  0  0  0  0  0  0  0  0  0
   21.6054   72.5950   -4.7404 C   0  0  1  0  0  0  0  0  0  0  0  0
   20.5541   74.7189   -4.5165 C   0  0  1  0  0  0  0  0  0  0  0  0
   22.9978   74.1173   -8.2158 H   0  0  0  0  0  0  0  0  0  0  0  0
   23.3689   72.3270   -7.4652 H   0  0  0  0  0  0  0  0  0  0  0  0
   21.4390   76.8076   -6.8472 H   0  0  0  0  0  0  0  0  0  0  0  0
   19.2741   76.4846   -3.6531 O   0  0  0  0  0  0  0  0  0  0  0  0
   18.1585   74.5906   -4.2590 O   0  0  0  0  0  0  0  0  0  0  0  0
   19.1980   75.2220   -4.1420 C   0  0  0  0  0  0  0  0  0  0  0  0
  1  4  1  0
  1 24  1  0
  1  2  1  1
  1  3  2  0
 25 28  1  0
 25 24  1  0
 25 26  1  6
 25 27  2  0
  6 11  1  0
  6 12  1  0
 29 36  1  0
 29 37  1  0
  9  7  1  6
  7 13  1  0
 10  8  1  6
  8 14  1  0
  4  5  1  0
 36 28  1  1
 33 30  1  6
 30 38  1  0
 34 31  1  1
 31 39  1  0
 35 32  1  1
 32 40  1  0
 41 43  1  0
 15 19  2  0
 42 43  2  0
 16 22  2  0
 12 17  1  6
 17 19  1  0
 17 20  1  0
 18 19  1  0
 18 22  1  0
 18 23  1  0
  9 10  1  0
  9 11  1  0
 10 12  1  0
 11  5  1  6
 33 34  1  0
 33 35  1  0
 34 36  1  0
 35 37  1  0
 37 43  1  6
 20 21  2  0
 21 22  1  0
M  CHG  3   2  -1  26  -1  41  -1
M  END
>  <COMPND>  (323) 
    udp_gluA.pdb 

>  <AUTHOR>  (323) 
    GENERATED BY OPEN BABEL 3.1.1

>  <MASTER>  (323) 
        0    0    0    0    0    0    0    0   56    0   56    0

>  <minimizedAffinity>  (323) 
-7.93802

>  <CNNscore>  (323) 
0.8957022429

>  <CNNaffinity>  (323) 
4.7033114433

>  <CNN_VS>  (323) 
4.2127666473

>  <CNNaffinity_variance>  (323) 
0.8153949976

$$$$
324
     RDKit          3D

 43 45  0  0  0  0  0  0  0  0999 V2000
   21.3932   72.6338   -4.6805 P   0  0  2  0  0  0  0  0  0  0  0  0
   21.4511   74.2479   -4.5793 O   0  0  0  0  0  0  0  0  0  0  0  0
   22.1774   72.0415   -5.8146 O   0  0  0  0  0  0  0  0  0  0  0  0
   19.8099   72.3005   -4.6717 O   0  0  0  0  0  0  0  0  0  0  0  0
   19.3129   71.4049   -3.6942 C   0  0  0  0  0  0  0  0  0  0  0  0
   17.4250   71.7275   -5.1465 O   0  0  0  0  0  0  0  0  0  0  0  0
   15.8729   70.0666   -3.1911 O   0  0  0  0  0  0  0  0  0  0  0  0
   16.4137   68.2881   -5.1861 O   0  0  0  0  0  0  0  0  0  0  0  0
   17.2342   69.9410   -3.6029 C   0  0  1  0  0  0  0  0  0  0  0  0
   17.3078   69.3656   -5.0013 C   0  0  2  0  0  0  0  0  0  0  0  0
   17.7950   71.3421   -3.8049 C   0  0  1  0  0  0  0  0  0  0  0  0
   16.9561   70.5706   -5.8571 C   0  0  2  0  0  0  0  0  0  0  0  0
   15.4929   69.1840   -3.0557 H   0  0  0  0  0  0  0  0  0  0  0  0
   16.6803   67.5461   -4.6201 H   0  0  0  0  0  0  0  0  0  0  0  0
   15.5658   70.6877   -8.3126 O   0  0  0  0  0  0  0  0  0  0  0  0
   19.4698   70.4012  -10.7459 O   0  0  0  0  0  0  0  0  0  0  0  0
   17.5844   70.5286   -7.1472 N   0  0  0  0  0  0  0  0  0  0  0  0
   17.5114   70.5439   -9.5222 N   0  0  0  0  0  0  0  0  0  0  0  0
   16.7946   70.5939   -8.3194 C   0  0  0  0  0  0  0  0  0  0  0  0
   18.9669   70.4256   -7.2423 C   0  0  0  0  0  0  0  0  0  0  0  0
   19.6359   70.3791   -8.3960 C   0  0  0  0  0  0  0  0  0  0  0  0
   18.8854   70.4410   -9.6674 C   0  0  0  0  0  0  0  0  0  0  0  0
   16.9830   70.5857  -10.3519 H   0  0  0  0  0  0  0  0  0  0  0  0
   21.8723   72.1606   -3.2111 O   0  0  0  0  0  0  0  0  0  0  0  0
   23.3478   72.0546   -2.5587 P   0  0  2  0  0  0  0  0  0  0  0  0
   24.0329   73.4645   -2.9627 O   0  0  0  0  0  0  0  0  0  0  0  0
   24.1252   70.8440   -2.9875 O   0  0  0  0  0  0  0  0  0  0  0  0
   23.1008   72.1630   -0.9682 O   0  0  0  0  0  0  0  0  0  0  0  0
   24.3556   70.9624    0.6422 O   0  0  0  0  0  0  0  0  0  0  0  0
   20.8757   71.7681    2.7180 O   0  0  0  0  0  0  0  0  0  0  0  0
   20.7715   70.9304   -0.0788 O   0  0  0  0  0  0  0  0  0  0  0  0
   23.2948   73.2778    3.2833 O   0  0  0  0  0  0  0  0  0  0  0  0
   21.9129   72.0130    1.7682 C   0  0  2  0  0  0  0  0  0  0  0  0
   21.9377   70.8860    0.7354 C   0  0  2  0  0  0  0  0  0  0  0  0
   23.2422   72.0715    2.5241 C   0  0  1  0  0  0  0  0  0  0  0  0
   23.1738   70.9905   -0.1590 C   0  0  1  0  0  0  0  0  0  0  0  0
   24.4296   72.0461    1.5659 C   0  0  1  0  0  0  0  0  0  0  0  0
   20.0212   71.7268    2.2604 H   0  0  0  0  0  0  0  0  0  0  0  0
   19.9833   70.8648    0.4823 H   0  0  0  0  0  0  0  0  0  0  0  0
   22.5443   73.3066    3.8971 H   0  0  0  0  0  0  0  0  0  0  0  0
   26.1953   72.9136    2.8431 O   0  0  0  0  0  0  0  0  0  0  0  0
   26.2261   70.6750    2.4109 O   0  0  0  0  0  0  0  0  0  0  0  0
   25.7002   71.7726    2.3028 C   0  0  0  0  0  0  0  0  0  0  0  0
  1  4  1  0
  1 24  1  0
  1  2  1  1
  1  3  2  0
 25 28  1  0
 25 24  1  0
 25 26  1  6
 25 27  2  0
  6 11  1  0
  6 12  1  0
 29 36  1  0
 29 37  1  0
  9  7  1  6
  7 13  1  0
 10  8  1  1
  8 14  1  0
  4  5  1  0
 36 28  1  1
 33 30  1  1
 30 38  1  0
 34 31  1  6
 31 39  1  0
 35 32  1  6
 32 40  1  0
 41 43  1  0
 15 19  2  0
 42 43  2  0
 16 22  2  0
 12 17  1  6
 17 19  1  0
 17 20  1  0
 18 19  1  0
 18 22  1  0
 18 23  1  0
  9 10  1  0
  9 11  1  0
 10 12  1  0
 11  5  1  6
 33 34  1  0
 33 35  1  0
 34 36  1  0
 35 37  1  0
 37 43  1  1
 20 21  2  0
 21 22  1  0
M  CHG  3   2  -1  26  -1  41  -1
M  END
>  <COMPND>  (324) 
    udp_gluA.pdb 

>  <AUTHOR>  (324) 
    GENERATED BY OPEN BABEL 3.1.1

>  <MASTER>  (324) 
        0    0    0    0    0    0    0    0   56    0   56    0

>  <minimizedAffinity>  (324) 
-8.46603

>  <CNNscore>  (324) 
0.8704088330

>  <CNNaffinity>  (324) 
4.7524671555

>  <CNN_VS>  (324) 
4.1365895271

>  <CNNaffinity_variance>  (324) 
0.0423256047

$$$$
325
     RDKit          3D

 43 45  0  0  0  0  0  0  0  0999 V2000
   21.8993   71.5022   -2.4221 P   0  0  2  0  0  0  0  0  0  0  0  0
   21.3094   72.9829   -2.7025 O   0  0  0  0  0  0  0  0  0  0  0  0
   22.9655   71.0536   -3.3780 O   0  0  0  0  0  0  0  0  0  0  0  0
   20.5815   70.5662   -2.3497 O   0  0  0  0  0  0  0  0  0  0  0  0
   19.9177   70.2386   -3.5566 C   0  0  0  0  0  0  0  0  0  0  0  0
   18.2301   71.4817   -4.7331 O   0  0  0  0  0  0  0  0  0  0  0  0
   16.2625   70.2465   -2.8372 O   0  0  0  0  0  0  0  0  0  0  0  0
   15.9488   68.7386   -5.0875 O   0  0  0  0  0  0  0  0  0  0  0  0
   17.4398   69.6803   -3.4135 C   0  0  1  0  0  0  0  0  0  0  0  0
   17.2030   69.3511   -4.8722 C   0  0  2  0  0  0  0  0  0  0  0  0
   18.4935   70.7759   -3.5011 C   0  0  1  0  0  0  0  0  0  0  0  0
   17.3055   70.7191   -5.5249 C   0  0  2  0  0  0  0  0  0  0  0  0
   15.5747   69.5651   -2.7710 H   0  0  0  0  0  0  0  0  0  0  0  0
   15.9338   67.8710   -4.6528 H   0  0  0  0  0  0  0  0  0  0  0  0
   15.6779   70.2668   -7.7883 O   0  0  0  0  0  0  0  0  0  0  0  0
   19.2861   70.4649  -10.6494 O   0  0  0  0  0  0  0  0  0  0  0  0
   17.7935   70.6477   -6.8731 N   0  0  0  0  0  0  0  0  0  0  0  0
   17.4767   70.3649   -9.2110 N   0  0  0  0  0  0  0  0  0  0  0  0
   16.8920   70.4162   -7.9388 C   0  0  0  0  0  0  0  0  0  0  0  0
   19.1499   70.8078   -7.1291 C   0  0  0  0  0  0  0  0  0  0  0  0
   19.6924   70.7564   -8.3472 C   0  0  0  0  0  0  0  0  0  0  0  0
   18.8197   70.5175   -9.5154 C   0  0  0  0  0  0  0  0  0  0  0  0
   16.8692   70.2028   -9.9687 H   0  0  0  0  0  0  0  0  0  0  0  0
   22.3709   71.5858   -0.8783 O   0  0  0  0  0  0  0  0  0  0  0  0
   21.5143   71.6739    0.4900 P   0  0  2  0  0  0  0  0  0  0  0  0
   21.4747   70.1385    1.0010 O   0  0  0  0  0  0  0  0  0  0  0  0
   20.1627   72.3077    0.3306 O   0  0  0  0  0  0  0  0  0  0  0  0
   22.4873   72.4256    1.5343 O   0  0  0  0  0  0  0  0  0  0  0  0
   22.1489   74.0767    3.1982 O   0  0  0  0  0  0  0  0  0  0  0  0
   25.7854   75.2207    1.6061 O   0  0  0  0  0  0  0  0  0  0  0  0
   23.6162   74.3381   -0.1402 O   0  0  0  0  0  0  0  0  0  0  0  0
   25.6770   73.8889    4.1878 O   0  0  0  0  0  0  0  0  0  0  0  0
   24.7648   74.3020    1.9964 C   0  0  2  0  0  0  0  0  0  0  0  0
   23.4722   74.6240    1.2462 C   0  0  2  0  0  0  0  0  0  0  0  0
   24.5536   74.4429    3.5055 C   0  0  1  0  0  0  0  0  0  0  0  0
   22.3004   73.8141    1.8027 C   0  0  1  0  0  0  0  0  0  0  0  0
   23.2954   73.7105    3.9627 C   0  0  1  0  0  0  0  0  0  0  0  0
   25.9369   75.1491    0.6505 H   0  0  0  0  0  0  0  0  0  0  0  0
   24.3582   74.8485   -0.4998 H   0  0  0  0  0  0  0  0  0  0  0  0
   26.4845   74.3462    3.9057 H   0  0  0  0  0  0  0  0  0  0  0  0
   22.6374   73.0312    6.1091 O   0  0  0  0  0  0  0  0  0  0  0  0
   22.8695   75.2713    5.7527 O   0  0  0  0  0  0  0  0  0  0  0  0
   22.9183   74.1189    5.3496 C   0  0  0  0  0  0  0  0  0  0  0  0
  1  4  1  0
  1 24  1  0
  1  2  1  6
  1  3  2  0
 25 28  1  0
 25 24  1  0
 25 26  1  1
 25 27  2  0
  6 11  1  0
  6 12  1  0
 29 36  1  0
 29 37  1  0
  9  7  1  6
  7 13  1  0
 10  8  1  1
  8 14  1  0
  4  5  1  0
 36 28  1  1
 33 30  1  6
 30 38  1  0
 34 31  1  6
 31 39  1  0
 35 32  1  1
 32 40  1  0
 41 43  1  0
 15 19  2  0
 42 43  2  0
 16 22  2  0
 12 17  1  6
 17 19  1  0
 17 20  1  0
 18 19  1  0
 18 22  1  0
 18 23  1  0
  9 10  1  0
  9 11  1  0
 10 12  1  0
 11  5  1  6
 33 34  1  0
 33 35  1  0
 34 36  1  0
 35 37  1  0
 37 43  1  1
 20 21  2  0
 21 22  1  0
M  CHG  3   2  -1  26  -1  41  -1
M  END
>  <COMPND>  (325) 
    udp_gluA.pdb 

>  <AUTHOR>  (325) 
    GENERATED BY OPEN BABEL 3.1.1

>  <MASTER>  (325) 
        0    0    0    0    0    0    0    0   56    0   56    0

>  <minimizedAffinity>  (325) 
-7.49293

>  <CNNscore>  (325) 
0.8525551558

>  <CNNaffinity>  (325) 
4.6814765930

>  <CNN_VS>  (325) 
3.9912168980

>  <CNNaffinity_variance>  (325) 
0.1302124560

$$$$
326
     RDKit          3D

 43 45  0  0  0  0  0  0  0  0999 V2000
   23.0154   71.4020   -2.4495 P   0  0  2  0  0  0  0  0  0  0  0  0
   22.8089   73.0027   -2.3317 O   0  0  0  0  0  0  0  0  0  0  0  0
   24.2808   70.9751   -3.1338 O   0  0  0  0  0  0  0  0  0  0  0  0
   21.6408   70.8817   -3.1260 O   0  0  0  0  0  0  0  0  0  0  0  0
   20.9628   71.7396   -4.0254 C   0  0  0  0  0  0  0  0  0  0  0  0
   21.1518   71.1278   -6.3422 O   0  0  0  0  0  0  0  0  0  0  0  0
   23.0448   73.4384   -6.6057 O   0  0  0  0  0  0  0  0  0  0  0  0
   20.7257   74.4489   -7.6239 O   0  0  0  0  0  0  0  0  0  0  0  0
   21.8713   73.3188   -5.8011 C   0  0  1  0  0  0  0  0  0  0  0  0
   20.6316   73.4167   -6.6647 C   0  0  2  0  0  0  0  0  0  0  0  0
   21.7938   71.8854   -5.2937 C   0  0  1  0  0  0  0  0  0  0  0  0
   20.5766   72.0356   -7.2952 C   0  0  2  0  0  0  0  0  0  0  0  0
   23.1159   74.3461   -6.9414 H   0  0  0  0  0  0  0  0  0  0  0  0
   20.7575   75.3076   -7.1728 H   0  0  0  0  0  0  0  0  0  0  0  0
   19.7609   70.8696   -9.7348 O   0  0  0  0  0  0  0  0  0  0  0  0
   15.3991   70.4755   -8.2986 O   0  0  0  0  0  0  0  0  0  0  0  0
   19.2339   71.6189   -7.5856 N   0  0  0  0  0  0  0  0  0  0  0  0
   17.5891   70.6754   -9.0176 N   0  0  0  0  0  0  0  0  0  0  0  0
   18.9293   71.0442   -8.8422 C   0  0  0  0  0  0  0  0  0  0  0  0
   18.2363   71.7790   -6.6315 C   0  0  0  0  0  0  0  0  0  0  0  0
   16.9633   71.4224   -6.8132 C   0  0  0  0  0  0  0  0  0  0  0  0
   16.5614   70.8153   -8.0989 C   0  0  0  0  0  0  0  0  0  0  0  0
   17.3524   70.2750   -9.8853 H   0  0  0  0  0  0  0  0  0  0  0  0
   22.8774   70.9046   -0.9177 O   0  0  0  0  0  0  0  0  0  0  0  0
   21.8240   71.3109    0.2395 P   0  0  2  0  0  0  0  0  0  0  0  0
   21.6660   69.9441    1.0922 O   0  0  0  0  0  0  0  0  0  0  0  0
   20.5300   71.8719   -0.2751 O   0  0  0  0  0  0  0  0  0  0  0  0
   22.6452   72.3038    1.2102 O   0  0  0  0  0  0  0  0  0  0  0  0
   24.1818   72.3189    3.0124 O   0  0  0  0  0  0  0  0  0  0  0  0
   21.0853   74.5952    4.5286 O   0  0  0  0  0  0  0  0  0  0  0  0
   20.5291   72.1625    3.0097 O   0  0  0  0  0  0  0  0  0  0  0  0
   23.5296   75.8785    3.6176 O   0  0  0  0  0  0  0  0  0  0  0  0
   21.9410   74.0700    3.5137 C   0  0  2  0  0  0  0  0  0  0  0  0
   21.8168   72.5466    3.4775 C   0  0  2  0  0  0  0  0  0  0  0  0
   23.3773   74.4791    3.8478 C   0  0  1  0  0  0  0  0  0  0  0  0
   22.8811   71.9324    2.5671 C   0  0  1  0  0  0  0  0  0  0  0  0
   24.3858   73.7298    2.9817 C   0  0  1  0  0  0  0  0  0  0  0  0
   20.1669   74.3477    4.3374 H   0  0  0  0  0  0  0  0  0  0  0  0
   19.8488   72.5490    3.5826 H   0  0  0  0  0  0  0  0  0  0  0  0
   22.8932   76.3670    4.1629 H   0  0  0  0  0  0  0  0  0  0  0  0
   25.7344   74.3756    4.7888 O   0  0  0  0  0  0  0  0  0  0  0  0
   26.7942   73.5974    2.9259 O   0  0  0  0  0  0  0  0  0  0  0  0
   25.7687   73.8807    3.5267 C   0  0  0  0  0  0  0  0  0  0  0  0
  1  4  1  0
  1 24  1  0
  1  2  1  1
  1  3  2  0
 25 28  1  0
 25 24  1  0
 25 26  1  1
 25 27  2  0
  6 11  1  0
  6 12  1  0
 29 36  1  0
 29 37  1  0
  9  7  1  6
  7 13  1  0
 10  8  1  6
  8 14  1  0
  4  5  1  0
 36 28  1  6
 33 30  1  1
 30 38  1  0
 34 31  1  6
 31 39  1  0
 35 32  1  6
 32 40  1  0
 41 43  1  0
 15 19  2  0
 42 43  2  0
 16 22  2  0
 12 17  1  1
 17 19  1  0
 17 20  1  0
 18 19  1  0
 18 22  1  0
 18 23  1  0
  9 10  1  0
  9 11  1  0
 10 12  1  0
 11  5  1  1
 33 34  1  0
 33 35  1  0
 34 36  1  0
 35 37  1  0
 37 43  1  1
 20 21  2  0
 21 22  1  0
M  CHG  3   2  -1  26  -1  41  -1
M  END
>  <COMPND>  (326) 
    udp_gluA.pdb 

>  <AUTHOR>  (326) 
    GENERATED BY OPEN BABEL 3.1.1

>  <MASTER>  (326) 
        0    0    0    0    0    0    0    0   56    0   56    0

>  <minimizedAffinity>  (326) 
-7.72093

>  <CNNscore>  (326) 
0.8482387066

>  <CNNaffinity>  (326) 
4.5565094948

>  <CNN_VS>  (326) 
3.8650076389

>  <CNNaffinity_variance>  (326) 
0.0830221027

$$$$
327
     RDKit          3D

 43 45  0  0  0  0  0  0  0  0999 V2000
   20.5891   71.3323   -1.4850 P   0  0  2  0  0  0  0  0  0  0  0  0
   21.2698   70.5535   -0.2405 O   0  0  0  0  0  0  0  0  0  0  0  0
   20.1081   72.7201   -1.1772 O   0  0  0  0  0  0  0  0  0  0  0  0
   19.4629   70.3009   -2.0197 O   0  0  0  0  0  0  0  0  0  0  0  0
   19.1039   70.3420   -3.3886 C   0  0  0  0  0  0  0  0  0  0  0  0
   17.4034   71.3923   -4.7238 O   0  0  0  0  0  0  0  0  0  0  0  0
   15.4326   69.7467   -3.1748 O   0  0  0  0  0  0  0  0  0  0  0  0
   15.6520   68.3659   -5.5160 O   0  0  0  0  0  0  0  0  0  0  0  0
   16.7487   69.4062   -3.6114 C   0  0  1  0  0  0  0  0  0  0  0  0
   16.7550   69.1452   -5.1028 C   0  0  2  0  0  0  0  0  0  0  0  0
   17.6169   70.6522   -3.5023 C   0  0  1  0  0  0  0  0  0  0  0  0
   16.7205   70.5543   -5.6696 C   0  0  2  0  0  0  0  0  0  0  0  0
   14.8594   68.9660   -3.2354 H   0  0  0  0  0  0  0  0  0  0  0  0
   15.7202   67.4784   -5.1291 H   0  0  0  0  0  0  0  0  0  0  0  0
   15.7591   72.0594   -7.8575 O   0  0  0  0  0  0  0  0  0  0  0  0
   19.3380   70.8489  -10.4976 O   0  0  0  0  0  0  0  0  0  0  0  0
   17.3812   70.6500   -6.9405 N   0  0  0  0  0  0  0  0  0  0  0  0
   17.5420   71.4542   -9.1707 N   0  0  0  0  0  0  0  0  0  0  0  0
   16.8140   71.4328   -7.9738 C   0  0  0  0  0  0  0  0  0  0  0  0
   18.5771   69.9751   -7.1531 C   0  0  0  0  0  0  0  0  0  0  0  0
   19.2596   70.0052   -8.2994 C   0  0  0  0  0  0  0  0  0  0  0  0
   18.7351   70.7993   -9.4298 C   0  0  0  0  0  0  0  0  0  0  0  0
   17.1658   71.9909   -9.9054 H   0  0  0  0  0  0  0  0  0  0  0  0
   21.7277   71.2527   -2.6295 O   0  0  0  0  0  0  0  0  0  0  0  0
   23.1673   71.9788   -2.7470 P   0  0  2  0  0  0  0  0  0  0  0  0
   24.1826   70.7464   -3.0128 O   0  0  0  0  0  0  0  0  0  0  0  0
   23.5255   72.8310   -1.5640 O   0  0  0  0  0  0  0  0  0  0  0  0
   23.1126   72.7714   -4.1510 O   0  0  0  0  0  0  0  0  0  0  0  0
   21.9455   74.7170   -4.8307 O   0  0  0  0  0  0  0  0  0  0  0  0
   21.8573   72.4373   -8.2750 O   0  0  0  0  0  0  0  0  0  0  0  0
   21.3898   71.2020   -5.6692 O   0  0  0  0  0  0  0  0  0  0  0  0
   23.6746   74.6967   -8.0668 O   0  0  0  0  0  0  0  0  0  0  0  0
   22.4007   72.9236   -7.0478 C   0  0  2  0  0  0  0  0  0  0  0  0
   21.4408   72.6050   -5.9012 C   0  0  2  0  0  0  0  0  0  0  0  0
   22.5879   74.4367   -7.1802 C   0  0  1  0  0  0  0  0  0  0  0  0
   21.8742   73.3073   -4.6137 C   0  0  1  0  0  0  0  0  0  0  0  0
   22.8945   75.0803   -5.8310 C   0  0  1  0  0  0  0  0  0  0  0  0
   21.7295   71.4774   -8.2144 H   0  0  0  0  0  0  0  0  0  0  0  0
   21.1157   70.7501   -6.4822 H   0  0  0  0  0  0  0  0  0  0  0  0
   23.4921   74.2922   -8.9293 H   0  0  0  0  0  0  0  0  0  0  0  0
   22.3359   77.0674   -4.7170 O   0  0  0  0  0  0  0  0  0  0  0  0
   22.9744   77.2424   -6.8989 O   0  0  0  0  0  0  0  0  0  0  0  0
   22.7500   76.5655   -5.9067 C   0  0  0  0  0  0  0  0  0  0  0  0
  1  4  1  0
  1 24  1  0
  1  2  1  1
  1  3  2  0
 25 28  1  0
 25 24  1  0
 25 26  1  6
 25 27  2  0
  6 11  1  0
  6 12  1  0
 29 36  1  0
 29 37  1  0
  9  7  1  6
  7 13  1  0
 10  8  1  1
  8 14  1  0
  4  5  1  0
 36 28  1  6
 33 30  1  6
 30 38  1  0
 34 31  1  1
 31 39  1  0
 35 32  1  6
 32 40  1  0
 41 43  1  0
 15 19  2  0
 42 43  2  0
 16 22  2  0
 12 17  1  6
 17 19  1  0
 17 20  1  0
 18 19  1  0
 18 22  1  0
 18 23  1  0
  9 10  1  0
  9 11  1  0
 10 12  1  0
 11  5  1  6
 33 34  1  0
 33 35  1  0
 34 36  1  0
 35 37  1  0
 37 43  1  6
 20 21  2  0
 21 22  1  0
M  CHG  3   2  -1  26  -1  41  -1
M  END
>  <COMPND>  (327) 
    udp_gluA.pdb 

>  <AUTHOR>  (327) 
    GENERATED BY OPEN BABEL 3.1.1

>  <MASTER>  (327) 
        0    0    0    0    0    0    0    0   56    0   56    0

>  <minimizedAffinity>  (327) 
-7.74950

>  <CNNscore>  (327) 
0.8328030109

>  <CNNaffinity>  (327) 
4.7175145149

>  <CNN_VS>  (327) 
3.9287602901

>  <CNNaffinity_variance>  (327) 
0.5279887915

$$$$
328
     RDKit          3D

 43 45  0  0  0  0  0  0  0  0999 V2000
   22.9795   73.0093   -4.1416 P   0  0  2  0  0  0  0  0  0  0  0  0
   23.3864   74.0985   -5.2672 O   0  0  0  0  0  0  0  0  0  0  0  0
   24.0784   72.0676   -3.7447 O   0  0  0  0  0  0  0  0  0  0  0  0
   21.6422   72.3183   -4.7350 O   0  0  0  0  0  0  0  0  0  0  0  0
   21.0176   71.2960   -3.9805 C   0  0  0  0  0  0  0  0  0  0  0  0
   19.0032   72.1462   -4.9790 O   0  0  0  0  0  0  0  0  0  0  0  0
   17.5703   71.0277   -2.5942 O   0  0  0  0  0  0  0  0  0  0  0  0
   17.0843   69.1535   -4.5144 O   0  0  0  0  0  0  0  0  0  0  0  0
   18.6977   70.5058   -3.2977 C   0  0  1  0  0  0  0  0  0  0  0  0
   18.2631   69.9233   -4.6259 C   0  0  2  0  0  0  0  0  0  0  0  0
   19.5644   71.6796   -3.7329 C   0  0  1  0  0  0  0  0  0  0  0  0
   18.0686   71.1718   -5.4693 C   0  0  2  0  0  0  0  0  0  0  0  0
   17.0015   70.2962   -2.3061 H   0  0  0  0  0  0  0  0  0  0  0  0
   17.2601   68.3703   -3.9688 H   0  0  0  0  0  0  0  0  0  0  0  0
   16.1283   70.2912   -7.3231 O   0  0  0  0  0  0  0  0  0  0  0  0
   19.1674   70.3071  -10.7884 O   0  0  0  0  0  0  0  0  0  0  0  0
   18.3256   70.9378   -6.8621 N   0  0  0  0  0  0  0  0  0  0  0  0
   17.6441   70.2990   -9.0470 N   0  0  0  0  0  0  0  0  0  0  0  0
   17.2810   70.4960   -7.7082 C   0  0  0  0  0  0  0  0  0  0  0  0
   19.5992   71.1471   -7.3771 C   0  0  0  0  0  0  0  0  0  0  0  0
   19.9299   70.9551   -8.6556 C   0  0  0  0  0  0  0  0  0  0  0  0
   18.8969   70.4930   -9.6058 C   0  0  0  0  0  0  0  0  0  0  0  0
   16.9341   69.9895   -9.6549 H   0  0  0  0  0  0  0  0  0  0  0  0
   22.4112   73.9264   -2.9379 O   0  0  0  0  0  0  0  0  0  0  0  0
   23.1761   74.7125   -1.7502 P   0  0  2  0  0  0  0  0  0  0  0  0
   22.4490   76.1586   -1.7357 O   0  0  0  0  0  0  0  0  0  0  0  0
   24.6676   74.7717   -1.9118 O   0  0  0  0  0  0  0  0  0  0  0  0
   22.6776   73.9924   -0.3954 O   0  0  0  0  0  0  0  0  0  0  0  0
   23.6686   73.6168    1.7226 O   0  0  0  0  0  0  0  0  0  0  0  0
   21.6140   70.0840    1.1172 O   0  0  0  0  0  0  0  0  0  0  0  0
   23.0986   71.3272   -1.0702 O   0  0  0  0  0  0  0  0  0  0  0  0
   20.5778   72.0768    2.9627 O   0  0  0  0  0  0  0  0  0  0  0  0
   21.8550   71.4868    1.0068 C   0  0  2  0  0  0  0  0  0  0  0  0
   23.1867   71.7227    0.2938 C   0  0  2  0  0  0  0  0  0  0  0  0
   21.8969   72.0721    2.4201 C   0  0  1  0  0  0  0  0  0  0  0  0
   23.5891   73.1966    0.3600 C   0  0  1  0  0  0  0  0  0  0  0  0
   22.4273   73.5029    2.4150 C   0  0  1  0  0  0  0  0  0  0  0  0
   21.5833   69.6903    0.2311 H   0  0  0  0  0  0  0  0  0  0  0  0
   22.8434   70.3930   -1.1197 H   0  0  0  0  0  0  0  0  0  0  0  0
   20.2285   71.1720    2.9715 H   0  0  0  0  0  0  0  0  0  0  0  0
   22.9170   72.8763    4.6216 O   0  0  0  0  0  0  0  0  0  0  0  0
   22.9131   75.1072    4.1504 O   0  0  0  0  0  0  0  0  0  0  0  0
   22.7737   73.9451    3.7995 C   0  0  0  0  0  0  0  0  0  0  0  0
  1  4  1  0
  1 24  1  0
  1  2  1  6
  1  3  2  0
 25 28  1  0
 25 24  1  0
 25 26  1  1
 25 27  2  0
  6 11  1  0
  6 12  1  0
 29 36  1  0
 29 37  1  0
  9  7  1  1
  7 13  1  0
 10  8  1  1
  8 14  1  0
  4  5  1  0
 36 28  1  6
 33 30  1  1
 30 38  1  0
 34 31  1  6
 31 39  1  0
 35 32  1  6
 32 40  1  0
 41 43  1  0
 15 19  2  0
 42 43  2  0
 16 22  2  0
 12 17  1  6
 17 19  1  0
 17 20  1  0
 18 19  1  0
 18 22  1  0
 18 23  1  0
  9 10  1  0
  9 11  1  0
 10 12  1  0
 11  5  1  6
 33 34  1  0
 33 35  1  0
 34 36  1  0
 35 37  1  0
 37 43  1  1
 20 21  2  0
 21 22  1  0
M  CHG  3   2  -1  26  -1  41  -1
M  END
>  <COMPND>  (328) 
    udp_gluA.pdb 

>  <AUTHOR>  (328) 
    GENERATED BY OPEN BABEL 3.1.1

>  <MASTER>  (328) 
        0    0    0    0    0    0    0    0   56    0   56    0

>  <minimizedAffinity>  (328) 
-7.69314

>  <CNNscore>  (328) 
0.7962974906

>  <CNNaffinity>  (328) 
4.5803155899

>  <CNN_VS>  (328) 
3.6472938061

>  <CNNaffinity_variance>  (328) 
0.0364378802

$$$$
329
     RDKit          3D

 43 45  0  0  0  0  0  0  0  0999 V2000
   21.2023   72.0280   -5.2351 P   0  0  2  0  0  0  0  0  0  0  0  0
   20.9871   70.6649   -4.3897 O   0  0  0  0  0  0  0  0  0  0  0  0
   20.2418   73.1339   -4.9092 O   0  0  0  0  0  0  0  0  0  0  0  0
   21.2075   71.5330   -6.7755 O   0  0  0  0  0  0  0  0  0  0  0  0
   20.1580   71.9576   -7.6256 C   0  0  0  0  0  0  0  0  0  0  0  0
   18.9366   69.9309   -7.2031 O   0  0  0  0  0  0  0  0  0  0  0  0
   18.1852   69.9986  -10.1053 O   0  0  0  0  0  0  0  0  0  0  0  0
   15.9434   70.9609   -8.8868 O   0  0  0  0  0  0  0  0  0  0  0  0
   18.3530   71.0813   -9.1898 C   0  0  1  0  0  0  0  0  0  0  0  0
   17.1816   71.1448   -8.2327 C   0  0  2  0  0  0  0  0  0  0  0  0
   19.5067   70.7347   -8.2587 C   0  0  1  0  0  0  0  0  0  0  0  0
   17.5042   70.0196   -7.2643 C   0  0  2  0  0  0  0  0  0  0  0  0
   17.4532   70.1971  -10.7107 H   0  0  0  0  0  0  0  0  0  0  0  0
   15.7839   71.7030   -9.4916 H   0  0  0  0  0  0  0  0  0  0  0  0
   16.3112   68.0589   -5.6185 O   0  0  0  0  0  0  0  0  0  0  0  0
   15.5862   71.0891   -2.2220 O   0  0  0  0  0  0  0  0  0  0  0  0
   16.9950   70.2689   -5.9454 N   0  0  0  0  0  0  0  0  0  0  0  0
   15.9503   69.5702   -3.9288 N   0  0  0  0  0  0  0  0  0  0  0  0
   16.4145   69.2142   -5.2020 C   0  0  0  0  0  0  0  0  0  0  0  0
   17.0748   71.5448   -5.4008 C   0  0  0  0  0  0  0  0  0  0  0  0
   16.6281   71.8688   -4.1858 C   0  0  0  0  0  0  0  0  0  0  0  0
   16.0069   70.8251   -3.3443 C   0  0  0  0  0  0  0  0  0  0  0  0
   15.5402   68.8531   -3.3932 H   0  0  0  0  0  0  0  0  0  0  0  0
   22.7555   72.3828   -4.9622 O   0  0  0  0  0  0  0  0  0  0  0  0
   23.4431   73.3977   -3.9082 P   0  0  2  0  0  0  0  0  0  0  0  0
   22.6020   74.7660   -4.1096 O   0  0  0  0  0  0  0  0  0  0  0  0
   24.9265   73.5525   -4.0804 O   0  0  0  0  0  0  0  0  0  0  0  0
   22.9908   72.8512   -2.4593 O   0  0  0  0  0  0  0  0  0  0  0  0
   20.7341   73.0041   -1.7571 O   0  0  0  0  0  0  0  0  0  0  0  0
   22.6972   72.4541    1.8362 O   0  0  0  0  0  0  0  0  0  0  0  0
   23.7956   74.2470   -0.1920 O   0  0  0  0  0  0  0  0  0  0  0  0
   21.2265   70.2580    0.6259 O   0  0  0  0  0  0  0  0  0  0  0  0
   22.4818   72.3054    0.4328 C   0  0  2  0  0  0  0  0  0  0  0  0
   22.4909   73.6807   -0.2349 C   0  0  2  0  0  0  0  0  0  0  0  0
   21.1258   71.6252    0.2320 C   0  0  1  0  0  0  0  0  0  0  0  0
   22.0374   73.5844   -1.6922 C   0  0  1  0  0  0  0  0  0  0  0  0
   20.6853   71.6810   -1.2279 C   0  0  1  0  0  0  0  0  0  0  0  0
   23.5534   72.8844    1.9883 H   0  0  0  0  0  0  0  0  0  0  0  0
   24.0897   74.3108    0.7298 H   0  0  0  0  0  0  0  0  0  0  0  0
   21.5063   70.2085    1.5533 H   0  0  0  0  0  0  0  0  0  0  0  0
   18.4608   72.4239   -1.2621 O   0  0  0  0  0  0  0  0  0  0  0  0
   18.8150   70.1882   -1.5363 O   0  0  0  0  0  0  0  0  0  0  0  0
   19.2417   71.3196   -1.3606 C   0  0  0  0  0  0  0  0  0  0  0  0
  1  4  1  0
  1 24  1  0
  1  2  1  1
  1  3  2  0
 25 28  1  0
 25 24  1  0
 25 26  1  6
 25 27  2  0
  6 11  1  0
  6 12  1  0
 29 36  1  0
 29 37  1  0
  9  7  1  6
  7 13  1  0
 10  8  1  6
  8 14  1  0
  4  5  1  0
 36 28  1  6
 33 30  1  1
 30 38  1  0
 34 31  1  6
 31 39  1  0
 35 32  1  6
 32 40  1  0
 41 43  1  0
 15 19  2  0
 42 43  2  0
 16 22  2  0
 12 17  1  1
 17 19  1  0
 17 20  1  0
 18 19  1  0
 18 22  1  0
 18 23  1  0
  9 10  1  0
  9 11  1  0
 10 12  1  0
 11  5  1  1
 33 34  1  0
 33 35  1  0
 34 36  1  0
 35 37  1  0
 37 43  1  1
 20 21  2  0
 21 22  1  0
M  CHG  3   2  -1  26  -1  41  -1
M  END
>  <COMPND>  (329) 
    udp_gluA.pdb 

>  <AUTHOR>  (329) 
    GENERATED BY OPEN BABEL 3.1.1

>  <MASTER>  (329) 
        0    0    0    0    0    0    0    0   56    0   56    0

>  <minimizedAffinity>  (329) 
-7.55060

>  <CNNscore>  (329) 
0.7950580716

>  <CNNaffinity>  (329) 
4.6307253838

>  <CNN_VS>  (329) 
3.6816956997

>  <CNNaffinity_variance>  (329) 
0.2900792360

$$$$
330
     RDKit          3D

 43 45  0  0  0  0  0  0  0  0999 V2000
   22.9906   73.2113   -4.4955 P   0  0  2  0  0  0  0  0  0  0  0  0
   23.3354   74.0953   -5.8065 O   0  0  0  0  0  0  0  0  0  0  0  0
   24.0982   72.3135   -4.0275 O   0  0  0  0  0  0  0  0  0  0  0  0
   21.6025   72.4736   -4.8784 O   0  0  0  0  0  0  0  0  0  0  0  0
   21.0920   71.4925   -3.9945 C   0  0  0  0  0  0  0  0  0  0  0  0
   19.0060   72.2228   -4.9394 O   0  0  0  0  0  0  0  0  0  0  0  0
   17.7057   71.0454   -2.5074 O   0  0  0  0  0  0  0  0  0  0  0  0
   17.2694   69.1327   -4.4014 O   0  0  0  0  0  0  0  0  0  0  0  0
   18.8398   70.5810   -3.2401 C   0  0  1  0  0  0  0  0  0  0  0  0
   18.4002   69.9654   -4.5516 C   0  0  2  0  0  0  0  0  0  0  0  0
   19.6274   71.7974   -3.7073 C   0  0  1  0  0  0  0  0  0  0  0  0
   18.1129   71.1948   -5.3965 C   0  0  2  0  0  0  0  0  0  0  0  0
   17.1868   70.2858   -2.1985 H   0  0  0  0  0  0  0  0  0  0  0  0
   17.5037   68.3645   -3.8563 H   0  0  0  0  0  0  0  0  0  0  0  0
   16.1324   70.3367   -7.2179 O   0  0  0  0  0  0  0  0  0  0  0  0
   19.1074   70.3442  -10.7383 O   0  0  0  0  0  0  0  0  0  0  0  0
   18.3426   70.9647   -6.7948 N   0  0  0  0  0  0  0  0  0  0  0  0
   17.6162   70.3403   -8.9693 N   0  0  0  0  0  0  0  0  0  0  0  0
   17.2793   70.5344   -7.6233 C   0  0  0  0  0  0  0  0  0  0  0  0
   19.6080   71.1665   -7.3322 C   0  0  0  0  0  0  0  0  0  0  0  0
   19.9138   70.9774   -8.6173 C   0  0  0  0  0  0  0  0  0  0  0  0
   18.8601   70.5271   -9.5502 C   0  0  0  0  0  0  0  0  0  0  0  0
   16.8929   70.0387   -9.5653 H   0  0  0  0  0  0  0  0  0  0  0  0
   22.5258   74.3243   -3.4193 O   0  0  0  0  0  0  0  0  0  0  0  0
   23.3582   75.1087   -2.2767 P   0  0  2  0  0  0  0  0  0  0  0  0
   22.8211   76.6302   -2.4066 O   0  0  0  0  0  0  0  0  0  0  0  0
   24.8482   74.9668   -2.3935 O   0  0  0  0  0  0  0  0  0  0  0  0
   22.7421   74.5770   -0.8838 O   0  0  0  0  0  0  0  0  0  0  0  0
   21.7363   72.5165   -0.2904 O   0  0  0  0  0  0  0  0  0  0  0  0
   19.5788   75.1951    1.9983 O   0  0  0  0  0  0  0  0  0  0  0  0
   20.2596   75.8262   -0.7716 O   0  0  0  0  0  0  0  0  0  0  0  0
   21.6107   73.5242    3.2354 O   0  0  0  0  0  0  0  0  0  0  0  0
   20.7299   74.6914    1.3205 C   0  0  2  0  0  0  0  0  0  0  0  0
   20.4235   74.5471   -0.1704 C   0  0  2  0  0  0  0  0  0  0  0  0
   21.0776   73.3300    1.9267 C   0  0  1  0  0  0  0  0  0  0  0  0
   21.5466   73.7988   -0.8897 C   0  0  1  0  0  0  0  0  0  0  0  0
   22.1131   72.5925    1.0827 C   0  0  1  0  0  0  0  0  0  0  0  0
   19.3390   76.0600    1.6298 H   0  0  0  0  0  0  0  0  0  0  0  0
   19.5486   76.3067   -0.3199 H   0  0  0  0  0  0  0  0  0  0  0  0
   20.9614   73.9928    3.7828 H   0  0  0  0  0  0  0  0  0  0  0  0
   23.2330   70.9631    2.3446 O   0  0  0  0  0  0  0  0  0  0  0  0
   21.4497   70.2728    1.1027 O   0  0  0  0  0  0  0  0  0  0  0  0
   22.2011   71.1566    1.4863 C   0  0  0  0  0  0  0  0  0  0  0  0
  1  4  1  0
  1 24  1  0
  1  2  1  6
  1  3  2  0
 25 28  1  0
 25 24  1  0
 25 26  1  6
 25 27  2  0
  6 11  1  0
  6 12  1  0
 29 36  1  0
 29 37  1  0
  9  7  1  1
  7 13  1  0
 10  8  1  1
  8 14  1  0
  4  5  1  0
 36 28  1  1
 33 30  1  1
 30 38  1  0
 34 31  1  6
 31 39  1  0
 35 32  1  1
 32 40  1  0
 41 43  1  0
 15 19  2  0
 42 43  2  0
 16 22  2  0
 12 17  1  6
 17 19  1  0
 17 20  1  0
 18 19  1  0
 18 22  1  0
 18 23  1  0
  9 10  1  0
  9 11  1  0
 10 12  1  0
 11  5  1  6
 33 34  1  0
 33 35  1  0
 34 36  1  0
 35 37  1  0
 37 43  1  1
 20 21  2  0
 21 22  1  0
M  CHG  3   2  -1  26  -1  41  -1
M  END
>  <COMPND>  (330) 
    udp_gluA.pdb 

>  <AUTHOR>  (330) 
    GENERATED BY OPEN BABEL 3.1.1

>  <MASTER>  (330) 
        0    0    0    0    0    0    0    0   56    0   56    0

>  <minimizedAffinity>  (330) 
-6.99698

>  <CNNscore>  (330) 
0.7657564878

>  <CNNaffinity>  (330) 
4.5783720016

>  <CNN_VS>  (330) 
3.5059180260

>  <CNNaffinity_variance>  (330) 
0.0724666938

$$$$
331
     RDKit          3D

 43 45  0  0  0  0  0  0  0  0999 V2000
   23.1591   71.5550   -2.4368 P   0  0  2  0  0  0  0  0  0  0  0  0
   23.4115   73.1142   -2.0849 O   0  0  0  0  0  0  0  0  0  0  0  0
   24.3072   70.8641   -3.1123 O   0  0  0  0  0  0  0  0  0  0  0  0
   21.7636   71.5624   -3.2556 O   0  0  0  0  0  0  0  0  0  0  0  0
   21.2599   72.8007   -3.7219 C   0  0  0  0  0  0  0  0  0  0  0  0
   20.9497   71.6811   -5.8262 O   0  0  0  0  0  0  0  0  0  0  0  0
   21.3726   74.3611   -7.1028 O   0  0  0  0  0  0  0  0  0  0  0  0
   18.6605   74.0874   -7.1764 O   0  0  0  0  0  0  0  0  0  0  0  0
   20.7153   74.0376   -5.8774 C   0  0  1  0  0  0  0  0  0  0  0  0
   19.3653   73.4115   -6.1562 C   0  0  2  0  0  0  0  0  0  0  0  0
   21.4721   72.8871   -5.2279 C   0  0  1  0  0  0  0  0  0  0  0  0
   19.7497   71.9956   -6.5503 C   0  0  2  0  0  0  0  0  0  0  0  0
   20.9070   75.0939   -7.5362 H   0  0  0  0  0  0  0  0  0  0  0  0
   18.4385   74.9835   -6.8769 H   0  0  0  0  0  0  0  0  0  0  0  0
   17.6646   71.2008   -8.2817 O   0  0  0  0  0  0  0  0  0  0  0  0
   15.9136   68.3139   -5.1443 O   0  0  0  0  0  0  0  0  0  0  0  0
   18.7353   71.0379   -6.2115 N   0  0  0  0  0  0  0  0  0  0  0  0
   16.7939   69.7645   -6.7170 N   0  0  0  0  0  0  0  0  0  0  0  0
   17.7323   70.7088   -7.1537 C   0  0  0  0  0  0  0  0  0  0  0  0
   18.7412   70.4348   -4.9596 C   0  0  0  0  0  0  0  0  0  0  0  0
   17.8401   69.5364   -4.5578 C   0  0  0  0  0  0  0  0  0  0  0  0
   16.7582   69.1378   -5.4819 C   0  0  0  0  0  0  0  0  0  0  0  0
   16.0847   69.5208   -7.3550 H   0  0  0  0  0  0  0  0  0  0  0  0
   22.7394   70.9240   -1.0091 O   0  0  0  0  0  0  0  0  0  0  0  0
   21.3843   71.0728   -0.1400 P   0  0  2  0  0  0  0  0  0  0  0  0
   21.6442   70.0920    1.1213 O   0  0  0  0  0  0  0  0  0  0  0  0
   20.1267   70.7769   -0.9046 O   0  0  0  0  0  0  0  0  0  0  0  0
   21.4568   72.5606    0.4795 O   0  0  0  0  0  0  0  0  0  0  0  0
   23.2732   73.8287    1.3171 O   0  0  0  0  0  0  0  0  0  0  0  0
   20.1927   75.0377    3.7903 O   0  0  0  0  0  0  0  0  0  0  0  0
   20.4933   72.2233    3.0668 O   0  0  0  0  0  0  0  0  0  0  0  0
   21.1279   76.7850    1.6636 O   0  0  0  0  0  0  0  0  0  0  0  0
   20.7848   74.5810    2.5743 C   0  0  2  0  0  0  0  0  0  0  0  0
   21.4640   73.2318    2.8109 C   0  0  2  0  0  0  0  0  0  0  0  0
   21.8127   75.6233    2.1282 C   0  0  1  0  0  0  0  0  0  0  0  0
   22.3015   72.8209    1.5991 C   0  0  1  0  0  0  0  0  0  0  0  0
   22.6918   75.0914    1.0000 C   0  0  1  0  0  0  0  0  0  0  0  0
   19.5358   74.3910    4.0931 H   0  0  0  0  0  0  0  0  0  0  0  0
   19.9580   72.4777    3.8344 H   0  0  0  0  0  0  0  0  0  0  0  0
   20.5647   77.1334    2.3723 H   0  0  0  0  0  0  0  0  0  0  0  0
   24.7981   75.3588    0.0032 O   0  0  0  0  0  0  0  0  0  0  0  0
   24.0239   77.0839    1.2774 O   0  0  0  0  0  0  0  0  0  0  0  0
   23.8843   75.9686    0.7981 C   0  0  0  0  0  0  0  0  0  0  0  0
  1  4  1  0
  1 24  1  0
  1  2  1  1
  1  3  2  0
 25 28  1  0
 25 24  1  0
 25 26  1  1
 25 27  2  0
  6 11  1  0
  6 12  1  0
 29 36  1  0
 29 37  1  0
  9  7  1  6
  7 13  1  0
 10  8  1  6
  8 14  1  0
  4  5  1  0
 36 28  1  6
 33 30  1  1
 30 38  1  0
 34 31  1  6
 31 39  1  0
 35 32  1  6
 32 40  1  0
 41 43  1  0
 15 19  2  0
 42 43  2  0
 16 22  2  0
 12 17  1  1
 17 19  1  0
 17 20  1  0
 18 19  1  0
 18 22  1  0
 18 23  1  0
  9 10  1  0
  9 11  1  0
 10 12  1  0
 11  5  1  1
 33 34  1  0
 33 35  1  0
 34 36  1  0
 35 37  1  0
 37 43  1  1
 20 21  2  0
 21 22  1  0
M  CHG  3   2  -1  26  -1  41  -1
M  END
>  <COMPND>  (331) 
    udp_gluA.pdb 

>  <AUTHOR>  (331) 
    GENERATED BY OPEN BABEL 3.1.1

>  <MASTER>  (331) 
        0    0    0    0    0    0    0    0   56    0   56    0

>  <minimizedAffinity>  (331) 
-6.90658

>  <CNNscore>  (331) 
0.7650837302

>  <CNNaffinity>  (331) 
4.3878912926

>  <CNN_VS>  (331) 
3.3571043015

>  <CNNaffinity_variance>  (331) 
0.0943085849

$$$$
332
     RDKit          3D

 43 45  0  0  0  0  0  0  0  0999 V2000
   21.8526   72.5049   -5.6759 P   0  0  2  0  0  0  0  0  0  0  0  0
   21.2520   73.9572   -5.2901 O   0  0  0  0  0  0  0  0  0  0  0  0
   23.0698   72.5353   -6.5529 O   0  0  0  0  0  0  0  0  0  0  0  0
   20.5789   71.7028   -6.2693 O   0  0  0  0  0  0  0  0  0  0  0  0
   20.1026   72.0481   -7.5571 C   0  0  0  0  0  0  0  0  0  0  0  0
   18.9317   69.9893   -7.1472 O   0  0  0  0  0  0  0  0  0  0  0  0
   18.1456   70.0769  -10.0396 O   0  0  0  0  0  0  0  0  0  0  0  0
   15.8971   70.9730   -8.7837 O   0  0  0  0  0  0  0  0  0  0  0  0
   18.2997   71.1514   -9.1121 C   0  0  1  0  0  0  0  0  0  0  0  0
   17.1383   71.1764   -8.1412 C   0  0  2  0  0  0  0  0  0  0  0  0
   19.4716   70.8190   -8.1986 C   0  0  1  0  0  0  0  0  0  0  0  0
   17.4971   70.0465   -7.1912 C   0  0  2  0  0  0  0  0  0  0  0  0
   17.4025   70.2666  -10.6341 H   0  0  0  0  0  0  0  0  0  0  0  0
   15.7142   71.7190   -9.3770 H   0  0  0  0  0  0  0  0  0  0  0  0
   16.2511   68.0687   -5.6062 O   0  0  0  0  0  0  0  0  0  0  0  0
   15.6198   71.0071   -2.1117 O   0  0  0  0  0  0  0  0  0  0  0  0
   16.9977   70.2675   -5.8635 N   0  0  0  0  0  0  0  0  0  0  0  0
   15.9369   69.5343   -3.8677 N   0  0  0  0  0  0  0  0  0  0  0  0
   16.3883   69.2065   -5.1529 C   0  0  0  0  0  0  0  0  0  0  0  0
   17.1152   71.5223   -5.2782 C   0  0  0  0  0  0  0  0  0  0  0  0
   16.6802   71.8196   -4.0522 C   0  0  0  0  0  0  0  0  0  0  0  0
   16.0307   70.7675   -3.2431 C   0  0  0  0  0  0  0  0  0  0  0  0
   15.5073   68.8124   -3.3543 H   0  0  0  0  0  0  0  0  0  0  0  0
   22.0791   71.8111   -4.2336 O   0  0  0  0  0  0  0  0  0  0  0  0
   23.2799   71.9594   -3.1612 P   0  0  2  0  0  0  0  0  0  0  0  0
   23.9696   73.3655   -3.5704 O   0  0  0  0  0  0  0  0  0  0  0  0
   24.2248   70.7932   -3.1296 O   0  0  0  0  0  0  0  0  0  0  0  0
   22.5414   72.2609   -1.7590 O   0  0  0  0  0  0  0  0  0  0  0  0
   23.1605   70.6958   -0.0928 O   0  0  0  0  0  0  0  0  0  0  0  0
   20.2368   72.8767    1.8472 O   0  0  0  0  0  0  0  0  0  0  0  0
   19.8880   72.0863   -0.9435 O   0  0  0  0  0  0  0  0  0  0  0  0
   23.0406   73.3029    2.4861 O   0  0  0  0  0  0  0  0  0  0  0  0
   21.3128   72.6632    0.9336 C   0  0  2  0  0  0  0  0  0  0  0  0
   20.9136   71.5971   -0.0870 C   0  0  2  0  0  0  0  0  0  0  0  0
   22.5307   72.2015    1.7369 C   0  0  1  0  0  0  0  0  0  0  0  0
   22.1136   71.1767   -0.9367 C   0  0  1  0  0  0  0  0  0  0  0  0
   23.6358   71.6801    0.8229 C   0  0  1  0  0  0  0  0  0  0  0  0
   19.4515   73.1708    1.3592 H   0  0  0  0  0  0  0  0  0  0  0  0
   19.1235   72.3552   -0.4109 H   0  0  0  0  0  0  0  0  0  0  0  0
   22.3469   73.6443    3.0719 H   0  0  0  0  0  0  0  0  0  0  0  0
   24.2057   70.6456    2.8494 O   0  0  0  0  0  0  0  0  0  0  0  0
   25.7755   70.6293    1.1957 O   0  0  0  0  0  0  0  0  0  0  0  0
   24.6674   70.9374    1.6081 C   0  0  0  0  0  0  0  0  0  0  0  0
  1  4  1  0
  1 24  1  0
  1  2  1  1
  1  3  2  0
 25 28  1  0
 25 24  1  0
 25 26  1  6
 25 27  2  0
  6 11  1  0
  6 12  1  0
 29 36  1  0
 29 37  1  0
  9  7  1  6
  7 13  1  0
 10  8  1  6
  8 14  1  0
  4  5  1  0
 36 28  1  1
 33 30  1  1
 30 38  1  0
 34 31  1  6
 31 39  1  0
 35 32  1  6
 32 40  1  0
 41 43  1  0
 15 19  2  0
 42 43  2  0
 16 22  2  0
 12 17  1  1
 17 19  1  0
 17 20  1  0
 18 19  1  0
 18 22  1  0
 18 23  1  0
  9 10  1  0
  9 11  1  0
 10 12  1  0
 11  5  1  1
 33 34  1  0
 33 35  1  0
 34 36  1  0
 35 37  1  0
 37 43  1  1
 20 21  2  0
 21 22  1  0
M  CHG  3   2  -1  26  -1  41  -1
M  END
>  <COMPND>  (332) 
    udp_gluA.pdb 

>  <AUTHOR>  (332) 
    GENERATED BY OPEN BABEL 3.1.1

>  <MASTER>  (332) 
        0    0    0    0    0    0    0    0   56    0   56    0

>  <minimizedAffinity>  (332) 
-8.43457

>  <CNNscore>  (332) 
0.6402790546

>  <CNNaffinity>  (332) 
4.4335751534

>  <CNN_VS>  (332) 
2.8387253284

>  <CNNaffinity_variance>  (332) 
0.2370440215

$$$$
333
     RDKit          3D

 43 45  0  0  0  0  0  0  0  0999 V2000
   23.1609   71.6452   -2.6948 P   0  0  2  0  0  0  0  0  0  0  0  0
   23.3282   73.2371   -2.4572 O   0  0  0  0  0  0  0  0  0  0  0  0
   24.3750   70.9556   -3.2445 O   0  0  0  0  0  0  0  0  0  0  0  0
   21.8188   71.5250   -3.5905 O   0  0  0  0  0  0  0  0  0  0  0  0
   21.5740   72.5103   -4.5773 C   0  0  0  0  0  0  0  0  0  0  0  0
   20.6221   70.6367   -5.7439 O   0  0  0  0  0  0  0  0  0  0  0  0
   21.0306   72.2285   -8.2520 O   0  0  0  0  0  0  0  0  0  0  0  0
   18.3719   72.5737   -7.7536 O   0  0  0  0  0  0  0  0  0  0  0  0
   20.6635   72.6767   -6.9471 C   0  0  1  0  0  0  0  0  0  0  0  0
   19.2220   72.3167   -6.6555 C   0  0  2  0  0  0  0  0  0  0  0  0
   21.4155   71.8287   -5.9304 C   0  0  1  0  0  0  0  0  0  0  0  0
   19.3262   70.8363   -6.3306 C   0  0  2  0  0  0  0  0  0  0  0  0
   20.5625   72.7556   -8.9189 H   0  0  0  0  0  0  0  0  0  0  0  0
   18.3389   73.5293   -7.9202 H   0  0  0  0  0  0  0  0  0  0  0  0
   16.7564   69.9243   -7.0658 O   0  0  0  0  0  0  0  0  0  0  0  0
   15.5510   69.2168   -2.6737 O   0  0  0  0  0  0  0  0  0  0  0  0
   18.3211   70.4076   -5.3995 N   0  0  0  0  0  0  0  0  0  0  0  0
   16.1581   69.5737   -4.8776 N   0  0  0  0  0  0  0  0  0  0  0  0
   17.0622   69.9677   -5.8727 C   0  0  0  0  0  0  0  0  0  0  0  0
   18.5869   70.4239   -4.0357 C   0  0  0  0  0  0  0  0  0  0  0  0
   17.7150   70.0452   -3.0991 C   0  0  0  0  0  0  0  0  0  0  0  0
   16.3764   69.5728   -3.5094 C   0  0  0  0  0  0  0  0  0  0  0  0
   15.2742   69.2655   -5.1826 H   0  0  0  0  0  0  0  0  0  0  0  0
   22.6805   71.1106   -1.2470 O   0  0  0  0  0  0  0  0  0  0  0  0
   21.5947   71.7004   -0.2045 P   0  0  2  0  0  0  0  0  0  0  0  0
   20.9907   70.3702    0.4926 O   0  0  0  0  0  0  0  0  0  0  0  0
   20.5628   72.5938   -0.8298 O   0  0  0  0  0  0  0  0  0  0  0  0
   22.4755   72.4015    0.9510 O   0  0  0  0  0  0  0  0  0  0  0  0
   24.2699   71.6979    2.3273 O   0  0  0  0  0  0  0  0  0  0  0  0
   22.0175   73.9426    4.9648 O   0  0  0  0  0  0  0  0  0  0  0  0
   20.7188   72.1182    3.0888 O   0  0  0  0  0  0  0  0  0  0  0  0
   24.4787   75.0252    3.8595 O   0  0  0  0  0  0  0  0  0  0  0  0
   22.5584   73.5794    3.6946 C   0  0  2  0  0  0  0  0  0  0  0  0
   22.1190   72.1589    3.3385 C   0  0  2  0  0  0  0  0  0  0  0  0
   24.0838   73.6563    3.7906 C   0  0  1  0  0  0  0  0  0  0  0  0
   22.8606   71.6508    2.1012 C   0  0  1  0  0  0  0  0  0  0  0  0
   24.7514   73.0166    2.5767 C   0  0  1  0  0  0  0  0  0  0  0  0
   21.0489   73.9009    4.9279 H   0  0  0  0  0  0  0  0  0  0  0  0
   20.2421   72.4396    3.8697 H   0  0  0  0  0  0  0  0  0  0  0  0
   24.0604   75.4441    4.6279 H   0  0  0  0  0  0  0  0  0  0  0  0
   26.8417   73.9834    3.0210 O   0  0  0  0  0  0  0  0  0  0  0  0
   26.7614   71.7108    2.8529 O   0  0  0  0  0  0  0  0  0  0  0  0
   26.2087   72.8002    2.8254 C   0  0  0  0  0  0  0  0  0  0  0  0
  1  4  1  0
  1 24  1  0
  1  2  1  1
  1  3  2  0
 25 28  1  0
 25 24  1  0
 25 26  1  1
 25 27  2  0
  6 11  1  0
  6 12  1  0
 29 36  1  0
 29 37  1  0
  9  7  1  6
  7 13  1  0
 10  8  1  6
  8 14  1  0
  4  5  1  0
 36 28  1  6
 33 30  1  1
 30 38  1  0
 34 31  1  6
 31 39  1  0
 35 32  1  6
 32 40  1  0
 41 43  1  0
 15 19  2  0
 42 43  2  0
 16 22  2  0
 12 17  1  1
 17 19  1  0
 17 20  1  0
 18 19  1  0
 18 22  1  0
 18 23  1  0
  9 10  1  0
  9 11  1  0
 10 12  1  0
 11  5  1  1
 33 34  1  0
 33 35  1  0
 34 36  1  0
 35 37  1  0
 37 43  1  1
 20 21  2  0
 21 22  1  0
M  CHG  3   2  -1  26  -1  41  -1
M  END
>  <COMPND>  (333) 
    udp_gluA.pdb 

>  <AUTHOR>  (333) 
    GENERATED BY OPEN BABEL 3.1.1

>  <MASTER>  (333) 
        0    0    0    0    0    0    0    0   56    0   56    0

>  <minimizedAffinity>  (333) 
-7.85630

>  <CNNscore>  (333) 
0.6402096152

>  <CNNaffinity>  (333) 
4.3577427864

>  <CNN_VS>  (333) 
2.7898688316

>  <CNNaffinity_variance>  (333) 
0.1362357438

$$$$
334
     RDKit          3D

 43 45  0  0  0  0  0  0  0  0999 V2000
   21.9004   72.6261   -5.7759 P   0  0  2  0  0  0  0  0  0  0  0  0
   22.0166   73.9359   -6.7192 O   0  0  0  0  0  0  0  0  0  0  0  0
   23.1848   72.1931   -5.1320 O   0  0  0  0  0  0  0  0  0  0  0  0
   21.1842   71.5273   -6.7234 O   0  0  0  0  0  0  0  0  0  0  0  0
   20.1941   71.9643   -7.6362 C   0  0  0  0  0  0  0  0  0  0  0  0
   18.9898   69.9310   -7.1966 O   0  0  0  0  0  0  0  0  0  0  0  0
   18.1434   70.0299  -10.0716 O   0  0  0  0  0  0  0  0  0  0  0  0
   15.9417   70.9748   -8.7695 O   0  0  0  0  0  0  0  0  0  0  0  0
   18.3398   71.1026   -9.1500 C   0  0  1  0  0  0  0  0  0  0  0  0
   17.2004   71.1534   -8.1544 C   0  0  2  0  0  0  0  0  0  0  0  0
   19.5239   70.7475   -8.2612 C   0  0  1  0  0  0  0  0  0  0  0  0
   17.5560   70.0180   -7.2098 C   0  0  2  0  0  0  0  0  0  0  0  0
   17.3917   70.2339  -10.6504 H   0  0  0  0  0  0  0  0  0  0  0  0
   15.7615   71.7234   -9.3604 H   0  0  0  0  0  0  0  0  0  0  0  0
   16.1920   68.1075   -5.6396 O   0  0  0  0  0  0  0  0  0  0  0  0
   15.8150   71.0245   -2.0909 O   0  0  0  0  0  0  0  0  0  0  0  0
   17.0902   70.2517   -5.8722 N   0  0  0  0  0  0  0  0  0  0  0  0
   16.0046   69.5625   -3.8740 N   0  0  0  0  0  0  0  0  0  0  0  0
   16.4156   69.2249   -5.1702 C   0  0  0  0  0  0  0  0  0  0  0  0
   17.3040   71.4850   -5.2688 C   0  0  0  0  0  0  0  0  0  0  0  0
   16.9065   71.7919   -4.0324 C   0  0  0  0  0  0  0  0  0  0  0  0
   16.1937   70.7752   -3.2313 C   0  0  0  0  0  0  0  0  0  0  0  0
   15.5310   68.8644   -3.3663 H   0  0  0  0  0  0  0  0  0  0  0  0
   20.7291   73.0294   -4.7376 O   0  0  0  0  0  0  0  0  0  0  0  0
   20.7504   73.9813   -3.4310 P   0  0  2  0  0  0  0  0  0  0  0  0
   19.1795   74.2163   -3.1190 O   0  0  0  0  0  0  0  0  0  0  0  0
   21.5426   75.2450   -3.6025 O   0  0  0  0  0  0  0  0  0  0  0  0
   21.2642   73.0259   -2.2369 O   0  0  0  0  0  0  0  0  0  0  0  0
   22.1562   74.2476   -0.4146 O   0  0  0  0  0  0  0  0  0  0  0  0
   23.0485   70.3602    0.6623 O   0  0  0  0  0  0  0  0  0  0  0  0
   23.4004   71.2501   -2.0979 O   0  0  0  0  0  0  0  0  0  0  0  0
   20.8610   71.7682    1.9597 O   0  0  0  0  0  0  0  0  0  0  0  0
   22.2855   71.4008    0.0516 C   0  0  2  0  0  0  0  0  0  0  0  0
   23.1395   72.1135   -0.9973 C   0  0  2  0  0  0  0  0  0  0  0  0
   21.8605   72.3810    1.1473 C   0  0  1  0  0  0  0  0  0  0  0  0
   22.4399   73.3739   -1.5080 C   0  0  1  0  0  0  0  0  0  0  0  0
   21.2875   73.6650    0.5545 C   0  0  1  0  0  0  0  0  0  0  0  0
   23.3297   69.7250   -0.0151 H   0  0  0  0  0  0  0  0  0  0  0  0
   23.8440   70.4481   -1.7811 H   0  0  0  0  0  0  0  0  0  0  0  0
   21.2129   70.9496    2.3430 H   0  0  0  0  0  0  0  0  0  0  0  0
   22.2647   75.5497    1.5519 O   0  0  0  0  0  0  0  0  0  0  0  0
   20.2579   74.8558    2.3830 O   0  0  0  0  0  0  0  0  0  0  0  0
   21.1847   74.7307    1.5967 C   0  0  0  0  0  0  0  0  0  0  0  0
  1  4  1  0
  1 24  1  0
  1  2  1  6
  1  3  2  0
 25 28  1  0
 25 24  1  0
 25 26  1  1
 25 27  2  0
  6 11  1  0
  6 12  1  0
 29 36  1  0
 29 37  1  0
  9  7  1  6
  7 13  1  0
 10  8  1  6
  8 14  1  0
  4  5  1  0
 36 28  1  1
 33 30  1  1
 30 38  1  0
 34 31  1  6
 31 39  1  0
 35 32  1  1
 32 40  1  0
 41 43  1  0
 15 19  2  0
 42 43  2  0
 16 22  2  0
 12 17  1  1
 17 19  1  0
 17 20  1  0
 18 19  1  0
 18 22  1  0
 18 23  1  0
  9 10  1  0
  9 11  1  0
 10 12  1  0
 11  5  1  1
 33 34  1  0
 33 35  1  0
 34 36  1  0
 35 37  1  0
 37 43  1  1
 20 21  2  0
 21 22  1  0
M  CHG  3   2  -1  26  -1  41  -1
M  END
>  <COMPND>  (334) 
    udp_gluA.pdb 

>  <AUTHOR>  (334) 
    GENERATED BY OPEN BABEL 3.1.1

>  <MASTER>  (334) 
        0    0    0    0    0    0    0    0   56    0   56    0

>  <minimizedAffinity>  (334) 
-6.96327

>  <CNNscore>  (334) 
0.6359452605

>  <CNNaffinity>  (334) 
4.5311179161

>  <CNN_VS>  (334) 
2.8815429211

>  <CNNaffinity_variance>  (334) 
0.2397228777

$$$$
335
     RDKit          3D

 43 45  0  0  0  0  0  0  0  0999 V2000
   21.9397   72.5394   -5.8941 P   0  0  2  0  0  0  0  0  0  0  0  0
   21.4468   73.9924   -5.3796 O   0  0  0  0  0  0  0  0  0  0  0  0
   23.0390   72.5683   -6.9151 O   0  0  0  0  0  0  0  0  0  0  0  0
   20.5728   71.8058   -6.3540 O   0  0  0  0  0  0  0  0  0  0  0  0
   20.0306   72.1207   -7.6234 C   0  0  0  0  0  0  0  0  0  0  0  0
   18.9348   70.0319   -7.1609 O   0  0  0  0  0  0  0  0  0  0  0  0
   18.1091   70.0401  -10.0436 O   0  0  0  0  0  0  0  0  0  0  0  0
   15.8482   70.8837   -8.7737 O   0  0  0  0  0  0  0  0  0  0  0  0
   18.2390   71.1360   -9.1377 C   0  0  1  0  0  0  0  0  0  0  0  0
   17.0899   71.1401   -8.1518 C   0  0  2  0  0  0  0  0  0  0  0  0
   19.4330   70.8597   -8.2342 C   0  0  1  0  0  0  0  0  0  0  0  0
   17.4987   70.0404   -7.1866 C   0  0  2  0  0  0  0  0  0  0  0  0
   17.3525   70.1940  -10.6314 H   0  0  0  0  0  0  0  0  0  0  0  0
   15.6326   71.6121   -9.3778 H   0  0  0  0  0  0  0  0  0  0  0  0
   16.2681   68.0707   -5.5796 O   0  0  0  0  0  0  0  0  0  0  0  0
   15.6594   71.0300   -2.0988 O   0  0  0  0  0  0  0  0  0  0  0  0
   17.0093   70.2690   -5.8565 N   0  0  0  0  0  0  0  0  0  0  0  0
   15.9652   69.5467   -3.8479 N   0  0  0  0  0  0  0  0  0  0  0  0
   16.4071   69.2115   -5.1345 C   0  0  0  0  0  0  0  0  0  0  0  0
   17.1293   71.5276   -5.2800 C   0  0  0  0  0  0  0  0  0  0  0  0
   16.7034   71.8319   -4.0525 C   0  0  0  0  0  0  0  0  0  0  0  0
   16.0618   70.7840   -3.2319 C   0  0  0  0  0  0  0  0  0  0  0  0
   15.5407   68.8274   -3.3267 H   0  0  0  0  0  0  0  0  0  0  0  0
   22.3169   71.7765   -4.5199 O   0  0  0  0  0  0  0  0  0  0  0  0
   23.4978   72.0421   -3.4481 P   0  0  2  0  0  0  0  0  0  0  0  0
   24.4646   73.0896   -4.2150 O   0  0  0  0  0  0  0  0  0  0  0  0
   24.1888   70.7971   -2.9722 O   0  0  0  0  0  0  0  0  0  0  0  0
   22.8024   72.9101   -2.2796 O   0  0  0  0  0  0  0  0  0  0  0  0
   21.6341   71.6632   -0.6397 O   0  0  0  0  0  0  0  0  0  0  0  0
   20.4283   75.5200    0.2199 O   0  0  0  0  0  0  0  0  0  0  0  0
   20.6178   74.6103   -2.5498 O   0  0  0  0  0  0  0  0  0  0  0  0
   22.3880   74.1933    1.9082 O   0  0  0  0  0  0  0  0  0  0  0  0
   21.3250   74.5050   -0.2314 C   0  0  2  0  0  0  0  0  0  0  0  0
   20.7021   73.7598   -1.4121 C   0  0  2  0  0  0  0  0  0  0  0  0
   21.5754   73.5435    0.9326 C   0  0  1  0  0  0  0  0  0  0  0  0
   21.5257   72.5232   -1.7746 C   0  0  1  0  0  0  0  0  0  0  0  0
   22.2904   72.2787    0.4663 C   0  0  1  0  0  0  0  0  0  0  0  0
   20.2544   76.1429   -0.5033 H   0  0  0  0  0  0  0  0  0  0  0  0
   20.0967   75.3971   -2.3268 H   0  0  0  0  0  0  0  0  0  0  0  0
   21.9443   75.0002    2.2131 H   0  0  0  0  0  0  0  0  0  0  0  0
   21.5285   70.1485    1.0855 O   0  0  0  0  0  0  0  0  0  0  0  0
   22.7588   71.3002    2.6215 O   0  0  0  0  0  0  0  0  0  0  0  0
   22.2369   71.2203    1.5195 C   0  0  0  0  0  0  0  0  0  0  0  0
  1  4  1  0
  1 24  1  0
  1  2  1  1
  1  3  2  0
 25 28  1  0
 25 24  1  0
 25 26  1  6
 25 27  2  0
  6 11  1  0
  6 12  1  0
 29 36  1  0
 29 37  1  0
  9  7  1  6
  7 13  1  0
 10  8  1  6
  8 14  1  0
  4  5  1  0
 36 28  1  1
 33 30  1  1
 30 38  1  0
 34 31  1  6
 31 39  1  0
 35 32  1  1
 32 40  1  0
 41 43  1  0
 15 19  2  0
 42 43  2  0
 16 22  2  0
 12 17  1  1
 17 19  1  0
 17 20  1  0
 18 19  1  0
 18 22  1  0
 18 23  1  0
  9 10  1  0
  9 11  1  0
 10 12  1  0
 11  5  1  1
 33 34  1  0
 33 35  1  0
 34 36  1  0
 35 37  1  0
 37 43  1  1
 20 21  2  0
 21 22  1  0
M  CHG  3   2  -1  26  -1  41  -1
M  END
>  <COMPND>  (335) 
    udp_gluA.pdb 

>  <AUTHOR>  (335) 
    GENERATED BY OPEN BABEL 3.1.1

>  <MASTER>  (335) 
        0    0    0    0    0    0    0    0   56    0   56    0

>  <minimizedAffinity>  (335) 
-8.37300

>  <CNNscore>  (335) 
0.6354128122

>  <CNNaffinity>  (335) 
4.4235863686

>  <CNN_VS>  (335) 
2.8108034134

>  <CNNaffinity_variance>  (335) 
0.3868680894

$$$$
336
     RDKit          3D

 43 45  0  0  0  0  0  0  0  0999 V2000
   23.0512   73.5339   -4.2912 P   0  0  2  0  0  0  0  0  0  0  0  0
   24.0174   72.2362   -4.2572 O   0  0  0  0  0  0  0  0  0  0  0  0
   23.6621   74.7630   -4.8979 O   0  0  0  0  0  0  0  0  0  0  0  0
   22.5460   73.6824   -2.7613 O   0  0  0  0  0  0  0  0  0  0  0  0
   21.5776   74.6709   -2.4620 C   0  0  0  0  0  0  0  0  0  0  0  0
   20.8476   72.7439   -1.2244 O   0  0  0  0  0  0  0  0  0  0  0  0
   18.5527   74.4382   -0.3000 O   0  0  0  0  0  0  0  0  0  0  0  0
   20.2391   74.4990    1.8421 O   0  0  0  0  0  0  0  0  0  0  0  0
   19.9089   74.8104   -0.5467 C   0  0  1  0  0  0  0  0  0  0  0  0
   20.8030   74.2987    0.5628 C   0  0  2  0  0  0  0  0  0  0  0  0
   20.4035   74.0148   -1.7469 C   0  0  1  0  0  0  0  0  0  0  0  0
   20.9372   72.8279    0.2067 C   0  0  2  0  0  0  0  0  0  0  0  0
   18.2147   74.9337    0.4628 H   0  0  0  0  0  0  0  0  0  0  0  0
   20.1750   75.4506    2.0217 H   0  0  0  0  0  0  0  0  0  0  0  0
   21.3503   70.1038    0.8272 O   0  0  0  0  0  0  0  0  0  0  0  0
   25.7952   70.8150    1.8178 O   0  0  0  0  0  0  0  0  0  0  0  0
   22.1924   72.2741    0.6294 N   0  0  0  0  0  0  0  0  0  0  0  0
   23.5635   70.4608    1.3209 N   0  0  0  0  0  0  0  0  0  0  0  0
   22.2932   70.8923    0.9167 C   0  0  0  0  0  0  0  0  0  0  0  0
   23.3062   73.0956    0.7538 C   0  0  0  0  0  0  0  0  0  0  0  0
   24.5104   72.6698    1.1400 C   0  0  0  0  0  0  0  0  0  0  0  0
   24.7007   71.2398    1.4601 C   0  0  0  0  0  0  0  0  0  0  0  0
   23.6578   69.5030    1.5285 H   0  0  0  0  0  0  0  0  0  0  0  0
   21.7365   72.9875   -5.0566 O   0  0  0  0  0  0  0  0  0  0  0  0
   20.9628   73.5404   -6.3640 P   0  0  2  0  0  0  0  0  0  0  0  0
   21.9677   73.1631   -7.5757 O   0  0  0  0  0  0  0  0  0  0  0  0
   20.5972   74.9949   -6.2940 O   0  0  0  0  0  0  0  0  0  0  0  0
   19.7085   72.5430   -6.5498 O   0  0  0  0  0  0  0  0  0  0  0  0
   19.2861   70.3606   -5.7325 O   0  0  0  0  0  0  0  0  0  0  0  0
   17.5198   70.2172   -9.4644 O   0  0  0  0  0  0  0  0  0  0  0  0
   20.1124   71.5139   -9.1020 O   0  0  0  0  0  0  0  0  0  0  0  0
   15.8744   70.4513   -7.0793 O   0  0  0  0  0  0  0  0  0  0  0  0
   17.9473   70.8294   -8.2477 C   0  0  2  0  0  0  0  0  0  0  0  0
   19.4663   70.7106   -8.1212 C   0  0  2  0  0  0  0  0  0  0  0  0
   17.2586   70.1072   -7.0875 C   0  0  1  0  0  0  0  0  0  0  0  0
   19.9355   71.1467   -6.7325 C   0  0  1  0  0  0  0  0  0  0  0  0
   17.8674   70.5024   -5.7452 C   0  0  1  0  0  0  0  0  0  0  0  0
   17.9448   70.6597  -10.2160 H   0  0  0  0  0  0  0  0  0  0  0  0
   19.8191   71.2429   -9.9857 H   0  0  0  0  0  0  0  0  0  0  0  0
   15.4750   70.2051   -7.9282 H   0  0  0  0  0  0  0  0  0  0  0  0
   17.8123   70.0238   -3.4497 O   0  0  0  0  0  0  0  0  0  0  0  0
   16.8034   68.5316   -4.8478 O   0  0  0  0  0  0  0  0  0  0  0  0
   17.4270   69.5667   -4.6669 C   0  0  0  0  0  0  0  0  0  0  0  0
  1  4  1  0
  1 24  1  0
  1  2  1  1
  1  3  2  0
 25 28  1  0
 25 24  1  0
 25 26  1  6
 25 27  2  0
  6 11  1  0
  6 12  1  0
 29 36  1  0
 29 37  1  0
  9  7  1  1
  7 13  1  0
 10  8  1  1
  8 14  1  0
  4  5  1  0
 36 28  1  1
 33 30  1  6
 30 38  1  0
 34 31  1  6
 31 39  1  0
 35 32  1  1
 32 40  1  0
 41 43  1  0
 15 19  2  0
 42 43  2  0
 16 22  2  0
 12 17  1  6
 17 19  1  0
 17 20  1  0
 18 19  1  0
 18 22  1  0
 18 23  1  0
  9 10  1  0
  9 11  1  0
 10 12  1  0
 11  5  1  1
 33 34  1  0
 33 35  1  0
 34 36  1  0
 35 37  1  0
 37 43  1  1
 20 21  2  0
 21 22  1  0
M  CHG  3   2  -1  26  -1  41  -1
M  END
>  <COMPND>  (336) 
    udp_gluA.pdb 

>  <AUTHOR>  (336) 
    GENERATED BY OPEN BABEL 3.1.1

>  <MASTER>  (336) 
        0    0    0    0    0    0    0    0   56    0   56    0

>  <minimizedAffinity>  (336) 
-7.75201

>  <CNNscore>  (336) 
0.6308694482

>  <CNNaffinity>  (336) 
4.5744576454

>  <CNN_VS>  (336) 
2.8858854771

>  <CNNaffinity_variance>  (336) 
0.0805951133

$$$$
337
     RDKit          3D

 43 45  0  0  0  0  0  0  0  0999 V2000
   21.1500   75.1587   -3.1710 P   0  0  2  0  0  0  0  0  0  0  0  0
   20.9772   74.7228   -1.6221 O   0  0  0  0  0  0  0  0  0  0  0  0
   21.6955   76.5404   -3.3833 O   0  0  0  0  0  0  0  0  0  0  0  0
   19.6965   74.8697   -3.8204 O   0  0  0  0  0  0  0  0  0  0  0  0
   19.5345   73.7201   -4.6308 C   0  0  0  0  0  0  0  0  0  0  0  0
   17.5568   72.8541   -5.6874 O   0  0  0  0  0  0  0  0  0  0  0  0
   16.8837   71.6547   -3.0228 O   0  0  0  0  0  0  0  0  0  0  0  0
   17.8914   69.5259   -4.3971 O   0  0  0  0  0  0  0  0  0  0  0  0
   18.1592   71.8217   -3.6424 C   0  0  1  0  0  0  0  0  0  0  0  0
   18.3341   70.8166   -4.7611 C   0  0  2  0  0  0  0  0  0  0  0  0
   18.1441   73.1423   -4.4000 C   0  0  1  0  0  0  0  0  0  0  0  0
   17.4972   71.4306   -5.8704 C   0  0  2  0  0  0  0  0  0  0  0  0
   16.8692   70.8174   -2.5326 H   0  0  0  0  0  0  0  0  0  0  0  0
   18.4561   69.1784   -3.6883 H   0  0  0  0  0  0  0  0  0  0  0  0
   15.9064   70.4468   -7.9865 O   0  0  0  0  0  0  0  0  0  0  0  0
   19.5190   70.2211  -10.8400 O   0  0  0  0  0  0  0  0  0  0  0  0
   17.9963   71.1065   -7.1768 N   0  0  0  0  0  0  0  0  0  0  0  0
   17.7074   70.3344   -9.4054 N   0  0  0  0  0  0  0  0  0  0  0  0
   17.1131   70.6188   -8.1689 C   0  0  0  0  0  0  0  0  0  0  0  0
   19.3453   71.2738   -7.4651 C   0  0  0  0  0  0  0  0  0  0  0  0
   19.8971   70.9985   -8.6485 C   0  0  0  0  0  0  0  0  0  0  0  0
   19.0436   70.4838   -9.7394 C   0  0  0  0  0  0  0  0  0  0  0  0
   17.1128   69.9916  -10.1113 H   0  0  0  0  0  0  0  0  0  0  0  0
   22.0632   73.9730   -3.7819 O   0  0  0  0  0  0  0  0  0  0  0  0
   23.5628   73.4925   -3.4161 P   0  0  2  0  0  0  0  0  0  0  0  0
   24.3544   74.8870   -3.1947 O   0  0  0  0  0  0  0  0  0  0  0  0
   24.1845   72.5839   -4.4368 O   0  0  0  0  0  0  0  0  0  0  0  0
   23.4396   72.8553   -1.9392 O   0  0  0  0  0  0  0  0  0  0  0  0
   24.0562   71.0724   -0.5073 O   0  0  0  0  0  0  0  0  0  0  0  0
   19.9765   70.5120   -0.8388 O   0  0  0  0  0  0  0  0  0  0  0  0
   21.5701   71.2149   -3.1842 O   0  0  0  0  0  0  0  0  0  0  0  0
   21.1003   71.6527    1.5875 O   0  0  0  0  0  0  0  0  0  0  0  0
   21.1887   71.2643   -0.7887 C   0  0  2  0  0  0  0  0  0  0  0  0
   22.1106   70.8257   -1.9268 C   0  0  2  0  0  0  0  0  0  0  0  0
   21.8524   71.0021    0.5650 C   0  0  1  0  0  0  0  0  0  0  0  0
   23.5024   71.4402   -1.7712 C   0  0  1  0  0  0  0  0  0  0  0  0
   23.2820   71.5350    0.5971 C   0  0  1  0  0  0  0  0  0  0  0  0
   19.5370   70.6629   -1.6905 H   0  0  0  0  0  0  0  0  0  0  0  0
   20.6869   70.8287   -3.2895 H   0  0  0  0  0  0  0  0  0  0  0  0
   20.1883   71.3226    1.5777 H   0  0  0  0  0  0  0  0  0  0  0  0
   25.2521   70.5544    1.4086 O   0  0  0  0  0  0  0  0  0  0  0  0
   23.5904   70.9528    2.9182 O   0  0  0  0  0  0  0  0  0  0  0  0
   24.0233   70.9943    1.7763 C   0  0  0  0  0  0  0  0  0  0  0  0
  1  4  1  0
  1 24  1  0
  1  2  1  1
  1  3  2  0
 25 28  1  0
 25 24  1  0
 25 26  1  1
 25 27  2  0
  6 11  1  0
  6 12  1  0
 29 36  1  0
 29 37  1  0
  9  7  1  6
  7 13  1  0
 10  8  1  1
  8 14  1  0
  4  5  1  0
 36 28  1  1
 33 30  1  1
 30 38  1  0
 34 31  1  6
 31 39  1  0
 35 32  1  1
 32 40  1  0
 41 43  1  0
 15 19  2  0
 42 43  2  0
 16 22  2  0
 12 17  1  6
 17 19  1  0
 17 20  1  0
 18 19  1  0
 18 22  1  0
 18 23  1  0
  9 10  1  0
  9 11  1  0
 10 12  1  0
 11  5  1  6
 33 34  1  0
 33 35  1  0
 34 36  1  0
 35 37  1  0
 37 43  1  1
 20 21  2  0
 21 22  1  0
M  CHG  3   2  -1  26  -1  41  -1
M  END
>  <COMPND>  (337) 
    udp_gluA.pdb 

>  <AUTHOR>  (337) 
    GENERATED BY OPEN BABEL 3.1.1

>  <MASTER>  (337) 
        0    0    0    0    0    0    0    0   56    0   56    0

>  <minimizedAffinity>  (337) 
-7.56855

>  <CNNscore>  (337) 
0.6133522987

>  <CNNaffinity>  (337) 
4.4135432243

>  <CNN_VS>  (337) 
2.7070569992

>  <CNNaffinity_variance>  (337) 
0.0587953106

$$$$
338
     RDKit          3D

 43 45  0  0  0  0  0  0  0  0999 V2000
   22.9992   73.2149   -4.5149 P   0  0  2  0  0  0  0  0  0  0  0  0
   24.1747   72.1740   -4.1231 O   0  0  0  0  0  0  0  0  0  0  0  0
   23.4735   74.5351   -5.0476 O   0  0  0  0  0  0  0  0  0  0  0  0
   22.0811   73.2829   -3.1843 O   0  0  0  0  0  0  0  0  0  0  0  0
   22.7070   73.1362   -1.9229 C   0  0  0  0  0  0  0  0  0  0  0  0
   23.4200   71.2987   -0.5471 O   0  0  0  0  0  0  0  0  0  0  0  0
   20.5140   70.6050   -0.2913 O   0  0  0  0  0  0  0  0  0  0  0  0
   21.0355   71.8661    2.0695 O   0  0  0  0  0  0  0  0  0  0  0  0
   21.1338   71.8894   -0.3599 C   0  0  1  0  0  0  0  0  0  0  0  0
   21.8242   72.2087    0.9492 C   0  0  2  0  0  0  0  0  0  0  0  0
   22.3081   71.7935   -1.3243 C   0  0  1  0  0  0  0  0  0  0  0  0
   23.0909   71.3760    0.8490 C   0  0  2  0  0  0  0  0  0  0  0  0
   19.7606   70.6413    0.3191 H   0  0  0  0  0  0  0  0  0  0  0  0
   20.2415   72.4239    2.0887 H   0  0  0  0  0  0  0  0  0  0  0  0
   25.0113   69.9142    2.3158 O   0  0  0  0  0  0  0  0  0  0  0  0
   27.2723   73.7448    3.5233 O   0  0  0  0  0  0  0  0  0  0  0  0
   24.1919   71.9661    1.5563 N   0  0  0  0  0  0  0  0  0  0  0  0
   26.1350   71.8235    2.9166 N   0  0  0  0  0  0  0  0  0  0  0  0
   25.1001   71.1423    2.2625 C   0  0  0  0  0  0  0  0  0  0  0  0
   24.3648   73.3449    1.5448 C   0  0  0  0  0  0  0  0  0  0  0  0
   25.3562   73.9798    2.1729 C   0  0  0  0  0  0  0  0  0  0  0  0
   26.3479   73.1925    2.9346 C   0  0  0  0  0  0  0  0  0  0  0  0
   26.7787   71.2713    3.4167 H   0  0  0  0  0  0  0  0  0  0  0  0
   22.0875   72.3626   -5.5422 O   0  0  0  0  0  0  0  0  0  0  0  0
   20.8947   72.8199   -6.5331 P   0  0  2  0  0  0  0  0  0  0  0  0
   21.2271   72.0250   -7.9035 O   0  0  0  0  0  0  0  0  0  0  0  0
   20.7658   74.3068   -6.6965 O   0  0  0  0  0  0  0  0  0  0  0  0
   19.5774   72.0937   -5.9504 O   0  0  0  0  0  0  0  0  0  0  0  0
   19.1810   69.8849   -5.1931 O   0  0  0  0  0  0  0  0  0  0  0  0
   15.5847   70.8111   -7.0033 O   0  0  0  0  0  0  0  0  0  0  0  0
   18.1121   71.5710   -8.2560 O   0  0  0  0  0  0  0  0  0  0  0  0
   15.7990   70.8007   -4.1042 O   0  0  0  0  0  0  0  0  0  0  0  0
   16.7882   71.0783   -6.2835 C   0  0  2  0  0  0  0  0  0  0  0  0
   17.9938   70.6941   -7.1417 C   0  0  2  0  0  0  0  0  0  0  0  0
   16.7642   70.2489   -4.9976 C   0  0  1  0  0  0  0  0  0  0  0  0
   19.2860   70.7487   -6.3255 C   0  0  1  0  0  0  0  0  0  0  0  0
   18.1253   70.2515   -4.3076 C   0  0  1  0  0  0  0  0  0  0  0  0
   15.5776   71.3274   -7.8247 H   0  0  0  0  0  0  0  0  0  0  0  0
   17.2955   71.5416   -8.7782 H   0  0  0  0  0  0  0  0  0  0  0  0
   14.9282   70.8050   -4.5314 H   0  0  0  0  0  0  0  0  0  0  0  0
   18.2313   69.7501   -2.0187 O   0  0  0  0  0  0  0  0  0  0  0  0
   18.1972   67.9905   -3.4685 O   0  0  0  0  0  0  0  0  0  0  0  0
   18.1881   69.1935   -3.2545 C   0  0  0  0  0  0  0  0  0  0  0  0
  1  4  1  0
  1 24  1  0
  1  2  1  1
  1  3  2  0
 25 28  1  0
 25 24  1  0
 25 26  1  6
 25 27  2  0
  6 11  1  0
  6 12  1  0
 29 36  1  0
 29 37  1  0
  9  7  1  1
  7 13  1  0
 10  8  1  1
  8 14  1  0
  4  5  1  0
 36 28  1  1
 33 30  1  6
 30 38  1  0
 34 31  1  6
 31 39  1  0
 35 32  1  1
 32 40  1  0
 41 43  1  0
 15 19  2  0
 42 43  2  0
 16 22  2  0
 12 17  1  1
 17 19  1  0
 17 20  1  0
 18 19  1  0
 18 22  1  0
 18 23  1  0
  9 10  1  0
  9 11  1  0
 10 12  1  0
 11  5  1  1
 33 34  1  0
 33 35  1  0
 34 36  1  0
 35 37  1  0
 37 43  1  1
 20 21  2  0
 21 22  1  0
M  CHG  3   2  -1  26  -1  41  -1
M  END
>  <COMPND>  (338) 
    udp_gluA.pdb 

>  <AUTHOR>  (338) 
    GENERATED BY OPEN BABEL 3.1.1

>  <MASTER>  (338) 
        0    0    0    0    0    0    0    0   56    0   56    0

>  <minimizedAffinity>  (338) 
-7.85991

>  <CNNscore>  (338) 
0.5749444962

>  <CNNaffinity>  (338) 
4.4562287331

>  <CNN_VS>  (338) 
2.5620841980

>  <CNNaffinity_variance>  (338) 
0.0679980814

$$$$
339
     RDKit          3D

 43 45  0  0  0  0  0  0  0  0999 V2000
   19.6921   71.8992   -1.6969 P   0  0  2  0  0  0  0  0  0  0  0  0
   19.4750   70.3018   -1.5549 O   0  0  0  0  0  0  0  0  0  0  0  0
   20.3233   72.5610   -0.5072 O   0  0  0  0  0  0  0  0  0  0  0  0
   18.2314   72.4540   -2.1169 O   0  0  0  0  0  0  0  0  0  0  0  0
   17.1514   71.5403   -2.1725 C   0  0  0  0  0  0  0  0  0  0  0  0
   14.8240   71.3201   -2.7313 O   0  0  0  0  0  0  0  0  0  0  0  0
   14.6551   74.2959   -2.4032 O   0  0  0  0  0  0  0  0  0  0  0  0
   13.6183   73.3777   -0.0542 O   0  0  0  0  0  0  0  0  0  0  0  0
   15.4337   73.3489   -1.6715 C   0  0  1  0  0  0  0  0  0  0  0  0
   14.5493   72.5588   -0.7303 C   0  0  2  0  0  0  0  0  0  0  0  0
   15.9033   72.2755   -2.6438 C   0  0  1  0  0  0  0  0  0  0  0  0
   13.8832   71.5738   -1.6758 C   0  0  2  0  0  0  0  0  0  0  0  0
   14.3438   74.9918   -1.8028 H   0  0  0  0  0  0  0  0  0  0  0  0
   14.0915   73.9866    0.5352 H   0  0  0  0  0  0  0  0  0  0  0  0
   11.2799   70.4880   -1.5333 O   0  0  0  0  0  0  0  0  0  0  0  0
   12.7478   66.8040    0.8156 O   0  0  0  0  0  0  0  0  0  0  0  0
   13.5567   70.3324   -1.0330 N   0  0  0  0  0  0  0  0  0  0  0  0
   12.0133   68.6547   -0.3627 N   0  0  0  0  0  0  0  0  0  0  0  0
   12.2174   69.8764   -1.0176 C   0  0  0  0  0  0  0  0  0  0  0  0
   14.5568   69.5802   -0.4288 C   0  0  0  0  0  0  0  0  0  0  0  0
   14.3469   68.4174    0.1915 C   0  0  0  0  0  0  0  0  0  0  0  0
   12.9754   67.8709    0.2534 C   0  0  0  0  0  0  0  0  0  0  0  0
   11.0885   68.3178   -0.3371 H   0  0  0  0  0  0  0  0  0  0  0  0
   20.5384   72.0298   -3.0679 O   0  0  0  0  0  0  0  0  0  0  0  0
   20.3704   73.0287   -4.3279 P   0  0  2  0  0  0  0  0  0  0  0  0
   21.7618   72.8442   -5.1343 O   0  0  0  0  0  0  0  0  0  0  0  0
   20.0574   74.4479   -3.9512 O   0  0  0  0  0  0  0  0  0  0  0  0
   19.2610   72.3242   -5.2636 O   0  0  0  0  0  0  0  0  0  0  0  0
   18.7715   70.0157   -5.4641 O   0  0  0  0  0  0  0  0  0  0  0  0
   17.7613   71.4182   -9.2164 O   0  0  0  0  0  0  0  0  0  0  0  0
   20.1857   72.3606   -7.8865 O   0  0  0  0  0  0  0  0  0  0  0  0
   15.6809   70.7681   -7.2928 O   0  0  0  0  0  0  0  0  0  0  0  0
   17.9240   71.4868   -7.7998 C   0  0  2  0  0  0  0  0  0  0  0  0
   19.3938   71.2650   -7.4422 C   0  0  2  0  0  0  0  0  0  0  0  0
   17.0528   70.3974   -7.1704 C   0  0  1  0  0  0  0  0  0  0  0  0
   19.5709   71.1027   -5.9319 C   0  0  1  0  0  0  0  0  0  0  0  0
   17.3773   70.2100   -5.6912 C   0  0  1  0  0  0  0  0  0  0  0  0
   18.3058   72.1015   -9.6381 H   0  0  0  0  0  0  0  0  0  0  0  0
   20.0779   72.4695   -8.8441 H   0  0  0  0  0  0  0  0  0  0  0  0
   15.4614   70.8907   -8.2296 H   0  0  0  0  0  0  0  0  0  0  0  0
   17.3080   68.6191   -3.9690 O   0  0  0  0  0  0  0  0  0  0  0  0
   15.9143   68.2922   -5.7438 O   0  0  0  0  0  0  0  0  0  0  0  0
   16.7734   68.9460   -5.1717 C   0  0  0  0  0  0  0  0  0  0  0  0
  1  4  1  0
  1 24  1  0
  1  2  1  1
  1  3  2  0
 25 28  1  0
 25 24  1  0
 25 26  1  6
 25 27  2  0
  6 11  1  0
  6 12  1  0
 29 36  1  0
 29 37  1  0
  9  7  1  6
  7 13  1  0
 10  8  1  6
  8 14  1  0
  4  5  1  0
 36 28  1  1
 33 30  1  6
 30 38  1  0
 34 31  1  1
 31 39  1  0
 35 32  1  1
 32 40  1  0
 41 43  1  0
 15 19  2  0
 42 43  2  0
 16 22  2  0
 12 17  1  1
 17 19  1  0
 17 20  1  0
 18 19  1  0
 18 22  1  0
 18 23  1  0
  9 10  1  0
  9 11  1  0
 10 12  1  0
 11  5  1  1
 33 34  1  0
 33 35  1  0
 34 36  1  0
 35 37  1  0
 37 43  1  6
 20 21  2  0
 21 22  1  0
M  CHG  3   2  -1  26  -1  41  -1
M  END
>  <COMPND>  (339) 
    udp_gluA.pdb 

>  <AUTHOR>  (339) 
    GENERATED BY OPEN BABEL 3.1.1

>  <MASTER>  (339) 
        0    0    0    0    0    0    0    0   56    0   56    0

>  <minimizedAffinity>  (339) 
-6.54038

>  <CNNscore>  (339) 
0.5541914105

>  <CNNaffinity>  (339) 
4.1569232941

>  <CNN_VS>  (339) 
2.3037312031

>  <CNNaffinity_variance>  (339) 
0.5947387815

$$$$
340
     RDKit          3D

 43 45  0  0  0  0  0  0  0  0999 V2000
   22.3039   72.7672   -6.4200 P   0  0  2  0  0  0  0  0  0  0  0  0
   22.9521   73.3918   -7.7649 O   0  0  0  0  0  0  0  0  0  0  0  0
   23.2961   72.3297   -5.3827 O   0  0  0  0  0  0  0  0  0  0  0  0
   21.3065   71.6169   -6.9676 O   0  0  0  0  0  0  0  0  0  0  0  0
   20.1586   72.0088   -7.6978 C   0  0  0  0  0  0  0  0  0  0  0  0
   18.9907   69.9631   -7.2194 O   0  0  0  0  0  0  0  0  0  0  0  0
   18.1316   69.9995  -10.0920 O   0  0  0  0  0  0  0  0  0  0  0  0
   15.9192   70.9287   -8.7966 O   0  0  0  0  0  0  0  0  0  0  0  0
   18.3133   71.0907   -9.1893 C   0  0  1  0  0  0  0  0  0  0  0  0
   17.1771   71.1389   -8.1898 C   0  0  2  0  0  0  0  0  0  0  0  0
   19.5068   70.7705   -8.2997 C   0  0  1  0  0  0  0  0  0  0  0  0
   17.5557   70.0256   -7.2280 C   0  0  2  0  0  0  0  0  0  0  0  0
   17.3743   70.1811  -10.6710 H   0  0  0  0  0  0  0  0  0  0  0  0
   15.7240   71.6641   -9.3991 H   0  0  0  0  0  0  0  0  0  0  0  0
   16.2507   68.1118   -5.6121 O   0  0  0  0  0  0  0  0  0  0  0  0
   15.8168   71.0882   -2.1197 O   0  0  0  0  0  0  0  0  0  0  0  0
   17.0911   70.2737   -5.8925 N   0  0  0  0  0  0  0  0  0  0  0  0
   16.0349   69.5964   -3.8746 N   0  0  0  0  0  0  0  0  0  0  0  0
   16.4475   69.2439   -5.1663 C   0  0  0  0  0  0  0  0  0  0  0  0
   17.2759   71.5240   -5.3150 C   0  0  0  0  0  0  0  0  0  0  0  0
   16.8772   71.8450   -4.0826 C   0  0  0  0  0  0  0  0  0  0  0  0
   16.1957   70.8263   -3.2573 C   0  0  0  0  0  0  0  0  0  0  0  0
   15.5826   68.8964   -3.3504 H   0  0  0  0  0  0  0  0  0  0  0  0
   21.2887   73.9272   -5.9338 O   0  0  0  0  0  0  0  0  0  0  0  0
   21.5271   75.2210   -4.9942 P   0  0  2  0  0  0  0  0  0  0  0  0
   20.1705   76.0805   -5.1972 O   0  0  0  0  0  0  0  0  0  0  0  0
   22.7888   75.9768   -5.2955 O   0  0  0  0  0  0  0  0  0  0  0  0
   21.4291   74.6556   -3.4865 O   0  0  0  0  0  0  0  0  0  0  0  0
   21.4370   72.3995   -2.7660 O   0  0  0  0  0  0  0  0  0  0  0  0
   19.1740   74.2137    0.1760 O   0  0  0  0  0  0  0  0  0  0  0  0
   18.7958   74.9240   -2.6324 O   0  0  0  0  0  0  0  0  0  0  0  0
   21.9266   73.4500    0.7152 O   0  0  0  0  0  0  0  0  0  0  0  0
   20.1965   74.1316   -0.8168 C   0  0  2  0  0  0  0  0  0  0  0  0
   19.5674   73.8194   -2.1748 C   0  0  2  0  0  0  0  0  0  0  0  0
   21.1630   73.0174   -0.4092 C   0  0  1  0  0  0  0  0  0  0  0  0
   20.6417   73.4977   -3.2145 C   0  0  1  0  0  0  0  0  0  0  0  0
   22.1213   72.6682   -1.5443 C   0  0  1  0  0  0  0  0  0  0  0  0
   18.5477   74.9155   -0.0619 H   0  0  0  0  0  0  0  0  0  0  0  0
   18.1122   75.1338   -1.9773 H   0  0  0  0  0  0  0  0  0  0  0  0
   21.3285   73.6755    1.4448 H   0  0  0  0  0  0  0  0  0  0  0  0
   22.2605   70.7428   -0.2121 O   0  0  0  0  0  0  0  0  0  0  0  0
   23.7834   70.9550   -1.8958 O   0  0  0  0  0  0  0  0  0  0  0  0
   22.8276   71.3815   -1.2653 C   0  0  0  0  0  0  0  0  0  0  0  0
  1  4  1  0
  1 24  1  0
  1  2  1  6
  1  3  2  0
 25 28  1  0
 25 24  1  0
 25 26  1  1
 25 27  2  0
  6 11  1  0
  6 12  1  0
 29 36  1  0
 29 37  1  0
  9  7  1  6
  7 13  1  0
 10  8  1  6
  8 14  1  0
  4  5  1  0
 36 28  1  1
 33 30  1  1
 30 38  1  0
 34 31  1  6
 31 39  1  0
 35 32  1  1
 32 40  1  0
 41 43  1  0
 15 19  2  0
 42 43  2  0
 16 22  2  0
 12 17  1  1
 17 19  1  0
 17 20  1  0
 18 19  1  0
 18 22  1  0
 18 23  1  0
  9 10  1  0
  9 11  1  0
 10 12  1  0
 11  5  1  1
 33 34  1  0
 33 35  1  0
 34 36  1  0
 35 37  1  0
 37 43  1  1
 20 21  2  0
 21 22  1  0
M  CHG  3   2  -1  26  -1  41  -1
M  END
>  <COMPND>  (340) 
    udp_gluA.pdb 

>  <AUTHOR>  (340) 
    GENERATED BY OPEN BABEL 3.1.1

>  <MASTER>  (340) 
        0    0    0    0    0    0    0    0   56    0   56    0

>  <minimizedAffinity>  (340) 
-6.79725

>  <CNNscore>  (340) 
0.5278479457

>  <CNNaffinity>  (340) 
4.3510847092

>  <CNN_VS>  (340) 
2.2967112064

>  <CNNaffinity_variance>  (340) 
0.3526457250

$$$$
341
     RDKit          3D

 43 45  0  0  0  0  0  0  0  0999 V2000
   21.9607   71.6881   -3.5799 P   0  0  2  0  0  0  0  0  0  0  0  0
   22.9238   70.6009   -2.8662 O   0  0  0  0  0  0  0  0  0  0  0  0
   21.3621   72.7076   -2.6557 O   0  0  0  0  0  0  0  0  0  0  0  0
   20.9045   70.7861   -4.4098 O   0  0  0  0  0  0  0  0  0  0  0  0
   20.0627   69.9008   -3.6943 C   0  0  0  0  0  0  0  0  0  0  0  0
   18.4264   71.2882   -4.7784 O   0  0  0  0  0  0  0  0  0  0  0  0
   16.4313   70.0933   -2.8854 O   0  0  0  0  0  0  0  0  0  0  0  0
   15.9784   68.7006   -5.1858 O   0  0  0  0  0  0  0  0  0  0  0  0
   17.5596   69.4834   -3.5127 C   0  0  1  0  0  0  0  0  0  0  0  0
   17.2713   69.2291   -4.9771 C   0  0  2  0  0  0  0  0  0  0  0  0
   18.6745   70.5180   -3.5824 C   0  0  1  0  0  0  0  0  0  0  0  0
   17.4407   70.6145   -5.5770 C   0  0  2  0  0  0  0  0  0  0  0  0
   15.7057   69.4513   -2.8296 H   0  0  0  0  0  0  0  0  0  0  0  0
   15.9214   67.8182   -4.7858 H   0  0  0  0  0  0  0  0  0  0  0  0
   15.7430   70.3080   -7.8132 O   0  0  0  0  0  0  0  0  0  0  0  0
   19.2881   70.4588  -10.7549 O   0  0  0  0  0  0  0  0  0  0  0  0
   17.8935   70.5704   -6.9386 N   0  0  0  0  0  0  0  0  0  0  0  0
   17.5104   70.3824   -9.2761 N   0  0  0  0  0  0  0  0  0  0  0  0
   16.9584   70.4131   -7.9887 C   0  0  0  0  0  0  0  0  0  0  0  0
   19.2490   70.6840   -7.2227 C   0  0  0  0  0  0  0  0  0  0  0  0
   19.7602   70.6531   -8.4550 C   0  0  0  0  0  0  0  0  0  0  0  0
   18.8511   70.4907   -9.6085 C   0  0  0  0  0  0  0  0  0  0  0  0
   16.8791   70.2716  -10.0235 H   0  0  0  0  0  0  0  0  0  0  0  0
   22.9041   72.3025   -4.7399 O   0  0  0  0  0  0  0  0  0  0  0  0
   22.7231   73.6095   -5.6740 P   0  0  2  0  0  0  0  0  0  0  0  0
   21.1862   74.0434   -5.4092 O   0  0  0  0  0  0  0  0  0  0  0  0
   23.0621   73.3852   -7.1193 O   0  0  0  0  0  0  0  0  0  0  0  0
   23.5998   74.7542   -4.9506 O   0  0  0  0  0  0  0  0  0  0  0  0
   25.7740   74.5249   -4.0398 O   0  0  0  0  0  0  0  0  0  0  0  0
   24.2128   77.5744   -1.7310 O   0  0  0  0  0  0  0  0  0  0  0  0
   22.5824   75.2472   -2.4094 O   0  0  0  0  0  0  0  0  0  0  0  0
   26.1355   78.1700   -3.8285 O   0  0  0  0  0  0  0  0  0  0  0  0
   24.3848   76.7914   -2.9121 C   0  0  2  0  0  0  0  0  0  0  0  0
   23.9850   75.3432   -2.6288 C   0  0  2  0  0  0  0  0  0  0  0  0
   25.8581   76.8669   -3.3191 C   0  0  1  0  0  0  0  0  0  0  0  0
   24.3702   74.4312   -3.7944 C   0  0  1  0  0  0  0  0  0  0  0  0
   26.1913   75.8404   -4.3980 C   0  0  1  0  0  0  0  0  0  0  0  0
   23.2837   77.5414   -1.4534 H   0  0  0  0  0  0  0  0  0  0  0  0
   22.3308   75.8236   -1.6712 H   0  0  0  0  0  0  0  0  0  0  0  0
   25.9275   78.8328   -3.1515 H   0  0  0  0  0  0  0  0  0  0  0  0
   28.3239   76.5901   -3.7723 O   0  0  0  0  0  0  0  0  0  0  0  0
   28.2227   74.8779   -5.2747 O   0  0  0  0  0  0  0  0  0  0  0  0
   27.6702   75.6931   -4.5513 C   0  0  0  0  0  0  0  0  0  0  0  0
  1  4  1  0
  1 24  1  0
  1  2  1  1
  1  3  2  0
 25 28  1  0
 25 24  1  0
 25 26  1  6
 25 27  2  0
  6 11  1  0
  6 12  1  0
 29 36  1  0
 29 37  1  0
  9  7  1  1
  7 13  1  0
 10  8  1  1
  8 14  1  0
  4  5  1  0
 36 28  1  6
 33 30  1  1
 30 38  1  0
 34 31  1  6
 31 39  1  0
 35 32  1  6
 32 40  1  0
 41 43  1  0
 15 19  2  0
 42 43  2  0
 16 22  2  0
 12 17  1  6
 17 19  1  0
 17 20  1  0
 18 19  1  0
 18 22  1  0
 18 23  1  0
  9 10  1  0
  9 11  1  0
 10 12  1  0
 11  5  1  6
 33 34  1  0
 33 35  1  0
 34 36  1  0
 35 37  1  0
 37 43  1  1
 20 21  2  0
 21 22  1  0
M  CHG  3   2  -1  26  -1  41  -1
M  END
>  <COMPND>  (341) 
    udp_gluA.pdb 

>  <AUTHOR>  (341) 
    GENERATED BY OPEN BABEL 3.1.1

>  <MASTER>  (341) 
        0    0    0    0    0    0    0    0   56    0   56    0

>  <minimizedAffinity>  (341) 
-7.05927

>  <CNNscore>  (341) 
0.9113609791

>  <CNNaffinity>  (341) 
4.6894903183

>  <CNN_VS>  (341) 
4.2738184929

>  <CNNaffinity_variance>  (341) 
0.1336658448

$$$$
342
     RDKit          3D

 43 45  0  0  0  0  0  0  0  0999 V2000
   22.4063   71.6725   -3.1589 P   0  0  2  0  0  0  0  0  0  0  0  0
   22.1306   73.2383   -2.8570 O   0  0  0  0  0  0  0  0  0  0  0  0
   23.7928   71.3539   -3.6361 O   0  0  0  0  0  0  0  0  0  0  0  0
   21.2053   71.2522   -4.1583 O   0  0  0  0  0  0  0  0  0  0  0  0
   20.3140   70.2300   -3.7520 C   0  0  0  0  0  0  0  0  0  0  0  0
   18.5997   71.5085   -4.8494 O   0  0  0  0  0  0  0  0  0  0  0  0
   16.7108   70.3723   -2.8165 O   0  0  0  0  0  0  0  0  0  0  0  0
   16.2138   68.8375   -5.0151 O   0  0  0  0  0  0  0  0  0  0  0  0
   17.8324   69.7574   -3.4510 C   0  0  1  0  0  0  0  0  0  0  0  0
   17.4978   69.4114   -4.8865 C   0  0  2  0  0  0  0  0  0  0  0  0
   18.9138   70.8155   -3.6220 C   0  0  1  0  0  0  0  0  0  0  0  0
   17.6051   70.7638   -5.5701 C   0  0  2  0  0  0  0  0  0  0  0  0
   16.0066   69.7155   -2.6966 H   0  0  0  0  0  0  0  0  0  0  0  0
   16.1969   67.9785   -4.5638 H   0  0  0  0  0  0  0  0  0  0  0  0
   15.8272   70.3604   -7.7272 O   0  0  0  0  0  0  0  0  0  0  0  0
   19.2649   70.3546  -10.7974 O   0  0  0  0  0  0  0  0  0  0  0  0
   18.0086   70.6532   -6.9433 N   0  0  0  0  0  0  0  0  0  0  0  0
   17.5412   70.3569   -9.2542 N   0  0  0  0  0  0  0  0  0  0  0  0
   17.0358   70.4511   -7.9508 C   0  0  0  0  0  0  0  0  0  0  0  0
   19.3534   70.7466   -7.2808 C   0  0  0  0  0  0  0  0  0  0  0  0
   19.8198   70.6549   -8.5277 C   0  0  0  0  0  0  0  0  0  0  0  0
   18.8694   70.4428   -9.6390 C   0  0  0  0  0  0  0  0  0  0  0  0
   16.8831   70.2141   -9.9724 H   0  0  0  0  0  0  0  0  0  0  0  0
   21.9909   70.9566   -1.7704 O   0  0  0  0  0  0  0  0  0  0  0  0
   21.3822   71.5664   -0.4025 P   0  0  2  0  0  0  0  0  0  0  0  0
   21.3238   70.2821    0.5811 O   0  0  0  0  0  0  0  0  0  0  0  0
   20.0692   72.2738   -0.5744 O   0  0  0  0  0  0  0  0  0  0  0  0
   22.5643   72.4855    0.1976 O   0  0  0  0  0  0  0  0  0  0  0  0
   21.7805   73.8458    1.9709 O   0  0  0  0  0  0  0  0  0  0  0  0
   25.6619   75.1911    1.5316 O   0  0  0  0  0  0  0  0  0  0  0  0
   24.0138   74.6326   -0.8149 O   0  0  0  0  0  0  0  0  0  0  0  0
   24.9620   73.4559    3.7565 O   0  0  0  0  0  0  0  0  0  0  0  0
   24.6038   74.2333    1.5043 C   0  0  2  0  0  0  0  0  0  0  0  0
   23.5259   74.6893    0.5206 C   0  0  2  0  0  0  0  0  0  0  0  0
   24.0248   74.1277    2.9169 C   0  0  1  0  0  0  0  0  0  0  0  0
   22.2773   73.8134    0.6323 C   0  0  1  0  0  0  0  0  0  0  0  0
   22.7146   73.3456    2.9250 C   0  0  1  0  0  0  0  0  0  0  0  0
   26.0452   75.2751    0.6443 H   0  0  0  0  0  0  0  0  0  0  0  0
   24.8063   75.1859   -0.8929 H   0  0  0  0  0  0  0  0  0  0  0  0
   25.8005   73.9435    3.7600 H   0  0  0  0  0  0  0  0  0  0  0  0
   22.6934   72.9564    5.2380 O   0  0  0  0  0  0  0  0  0  0  0  0
   20.9312   74.1071    4.3607 O   0  0  0  0  0  0  0  0  0  0  0  0
   21.9972   73.5259    4.2231 C   0  0  0  0  0  0  0  0  0  0  0  0
  1  4  1  0
  1 24  1  0
  1  2  1  1
  1  3  2  0
 25 28  1  0
 25 24  1  0
 25 26  1  1
 25 27  2  0
  6 11  1  0
  6 12  1  0
 29 36  1  0
 29 37  1  0
  9  7  1  6
  7 13  1  0
 10  8  1  1
  8 14  1  0
  4  5  1  0
 36 28  1  1
 33 30  1  1
 30 38  1  0
 34 31  1  6
 31 39  1  0
 35 32  1  1
 32 40  1  0
 41 43  1  0
 15 19  2  0
 42 43  2  0
 16 22  2  0
 12 17  1  6
 17 19  1  0
 17 20  1  0
 18 19  1  0
 18 22  1  0
 18 23  1  0
  9 10  1  0
  9 11  1  0
 10 12  1  0
 11  5  1  6
 33 34  1  0
 33 35  1  0
 34 36  1  0
 35 37  1  0
 37 43  1  1
 20 21  2  0
 21 22  1  0
M  CHG  3   2  -1  26  -1  41  -1
M  END
>  <COMPND>  (342) 
    udp_gluA.pdb 

>  <AUTHOR>  (342) 
    GENERATED BY OPEN BABEL 3.1.1

>  <MASTER>  (342) 
        0    0    0    0    0    0    0    0   56    0   56    0

>  <minimizedAffinity>  (342) 
-7.47699

>  <CNNscore>  (342) 
0.9044134617

>  <CNNaffinity>  (342) 
4.7344360352

>  <CNN_VS>  (342) 
4.2818875313

>  <CNNaffinity_variance>  (342) 
0.0461567417

$$$$
343
     RDKit          3D

 43 45  0  0  0  0  0  0  0  0999 V2000
   21.6197   72.3998   -4.8500 P   0  0  2  0  0  0  0  0  0  0  0  0
   20.9118   73.8470   -5.0027 O   0  0  0  0  0  0  0  0  0  0  0  0
   22.7737   72.1579   -5.7782 O   0  0  0  0  0  0  0  0  0  0  0  0
   20.3920   71.3524   -4.9674 O   0  0  0  0  0  0  0  0  0  0  0  0
   19.8389   70.8227   -3.7766 C   0  0  0  0  0  0  0  0  0  0  0  0
   17.9663   71.6084   -5.0626 O   0  0  0  0  0  0  0  0  0  0  0  0
   16.2382   70.1701   -3.0786 O   0  0  0  0  0  0  0  0  0  0  0  0
   16.2742   68.4503   -5.1945 O   0  0  0  0  0  0  0  0  0  0  0  0
   17.5156   69.8013   -3.5990 C   0  0  1  0  0  0  0  0  0  0  0  0
   17.3794   69.3132   -5.0257 C   0  0  2  0  0  0  0  0  0  0  0  0
   18.3362   71.0719   -3.7739 C   0  0  1  0  0  0  0  0  0  0  0  0
   17.2262   70.6163   -5.7915 C   0  0  2  0  0  0  0  0  0  0  0  0
   15.6958   69.3745   -2.9583 H   0  0  0  0  0  0  0  0  0  0  0  0
   16.4200   67.6354   -4.6879 H   0  0  0  0  0  0  0  0  0  0  0  0
   15.6396   70.6391   -8.1279 O   0  0  0  0  0  0  0  0  0  0  0  0
   19.3346   70.2871  -10.8604 O   0  0  0  0  0  0  0  0  0  0  0  0
   17.7476   70.5319   -7.1264 N   0  0  0  0  0  0  0  0  0  0  0  0
   17.4813   70.4627   -9.4866 N   0  0  0  0  0  0  0  0  0  0  0  0
   16.8645   70.5516   -8.2317 C   0  0  0  0  0  0  0  0  0  0  0  0
   19.1186   70.4328   -7.3305 C   0  0  0  0  0  0  0  0  0  0  0  0
   19.6918   70.3491   -8.5326 C   0  0  0  0  0  0  0  0  0  0  0  0
   18.8398   70.3620   -9.7398 C   0  0  0  0  0  0  0  0  0  0  0  0
   16.8868   70.4724  -10.2713 H   0  0  0  0  0  0  0  0  0  0  0  0
   21.9960   72.3438   -3.2789 O   0  0  0  0  0  0  0  0  0  0  0  0
   23.4139   72.1227   -2.5344 P   0  0  2  0  0  0  0  0  0  0  0  0
   24.2115   73.4974   -2.8419 O   0  0  0  0  0  0  0  0  0  0  0  0
   24.1420   70.8784   -2.9533 O   0  0  0  0  0  0  0  0  0  0  0  0
   23.0659   72.1972   -0.9609 O   0  0  0  0  0  0  0  0  0  0  0  0
   24.3473   70.9984    0.6298 O   0  0  0  0  0  0  0  0  0  0  0  0
   20.8818   71.7621    2.7453 O   0  0  0  0  0  0  0  0  0  0  0  0
   20.7565   70.9394   -0.0551 O   0  0  0  0  0  0  0  0  0  0  0  0
   23.2934   73.2895    3.2948 O   0  0  0  0  0  0  0  0  0  0  0  0
   21.9072   72.0214    1.7864 C   0  0  2  0  0  0  0  0  0  0  0  0
   21.9312   70.9005    0.7470 C   0  0  2  0  0  0  0  0  0  0  0  0
   23.2436   72.0871    2.5292 C   0  0  1  0  0  0  0  0  0  0  0  0
   23.1572   71.0209   -0.1593 C   0  0  1  0  0  0  0  0  0  0  0  0
   24.4213   72.0774    1.5590 C   0  0  1  0  0  0  0  0  0  0  0  0
   20.0231   71.7160    2.2961 H   0  0  0  0  0  0  0  0  0  0  0  0
   19.9746   70.8638    0.5135 H   0  0  0  0  0  0  0  0  0  0  0  0
   22.5490   73.3082    3.9163 H   0  0  0  0  0  0  0  0  0  0  0  0
   26.0802   72.8961    3.0010 O   0  0  0  0  0  0  0  0  0  0  0  0
   26.3265   70.7617    2.2375 O   0  0  0  0  0  0  0  0  0  0  0  0
   25.7016   71.8108    2.2814 C   0  0  0  0  0  0  0  0  0  0  0  0
  1  4  1  0
  1 24  1  0
  1  2  1  6
  1  3  2  0
 25 28  1  0
 25 24  1  0
 25 26  1  6
 25 27  2  0
  6 11  1  0
  6 12  1  0
 29 36  1  0
 29 37  1  0
  9  7  1  6
  7 13  1  0
 10  8  1  1
  8 14  1  0
  4  5  1  0
 36 28  1  1
 33 30  1  1
 30 38  1  0
 34 31  1  6
 31 39  1  0
 35 32  1  6
 32 40  1  0
 41 43  1  0
 15 19  2  0
 42 43  2  0
 16 22  2  0
 12 17  1  6
 17 19  1  0
 17 20  1  0
 18 19  1  0
 18 22  1  0
 18 23  1  0
  9 10  1  0
  9 11  1  0
 10 12  1  0
 11  5  1  6
 33 34  1  0
 33 35  1  0
 34 36  1  0
 35 37  1  0
 37 43  1  1
 20 21  2  0
 21 22  1  0
M  CHG  3   2  -1  26  -1  41  -1
M  END
>  <COMPND>  (343) 
    udp_gluA.pdb 

>  <AUTHOR>  (343) 
    GENERATED BY OPEN BABEL 3.1.1

>  <MASTER>  (343) 
        0    0    0    0    0    0    0    0   56    0   56    0

>  <minimizedAffinity>  (343) 
-8.54645

>  <CNNscore>  (343) 
0.8993383646

>  <CNNaffinity>  (343) 
4.7978086472

>  <CNN_VS>  (343) 
4.3148531914

>  <CNNaffinity_variance>  (343) 
0.0428229943

$$$$
344
     RDKit          3D

 43 45  0  0  0  0  0  0  0  0999 V2000
   23.3788   71.9321   -3.4183 P   0  0  2  0  0  0  0  0  0  0  0  0
   24.1129   72.9376   -4.4523 O   0  0  0  0  0  0  0  0  0  0  0  0
   24.1939   70.7417   -3.0056 O   0  0  0  0  0  0  0  0  0  0  0  0
   21.9659   71.6020   -4.1344 O   0  0  0  0  0  0  0  0  0  0  0  0
   21.2133   70.4973   -3.6679 C   0  0  0  0  0  0  0  0  0  0  0  0
   19.2470   71.5968   -4.5061 O   0  0  0  0  0  0  0  0  0  0  0  0
   17.7940   70.3545   -2.1959 O   0  0  0  0  0  0  0  0  0  0  0  0
   17.1085   68.7284   -4.2749 O   0  0  0  0  0  0  0  0  0  0  0  0
   18.8569   69.8220   -2.9867 C   0  0  1  0  0  0  0  0  0  0  0  0
   18.3416   69.4129   -4.3503 C   0  0  2  0  0  0  0  0  0  0  0  0
   19.8025   70.9640   -3.3329 C   0  0  1  0  0  0  0  0  0  0  0  0
   18.2247   70.7520   -5.0580 C   0  0  2  0  0  0  0  0  0  0  0  0
   17.1767   69.6431   -1.9623 H   0  0  0  0  0  0  0  0  0  0  0  0
   17.2358   67.8826   -3.8163 H   0  0  0  0  0  0  0  0  0  0  0  0
   16.2261   69.9722   -6.8948 O   0  0  0  0  0  0  0  0  0  0  0  0
   19.1046   70.3645  -10.4731 O   0  0  0  0  0  0  0  0  0  0  0  0
   18.4247   70.6421   -6.4753 N   0  0  0  0  0  0  0  0  0  0  0  0
   17.6619   70.1673   -8.6751 N   0  0  0  0  0  0  0  0  0  0  0  0
   17.3547   70.2418   -7.3102 C   0  0  0  0  0  0  0  0  0  0  0  0
   19.6680   70.9305   -7.0248 C   0  0  0  0  0  0  0  0  0  0  0  0
   19.9457   70.8551   -8.3279 C   0  0  0  0  0  0  0  0  0  0  0  0
   18.8831   70.4436   -9.2686 C   0  0  0  0  0  0  0  0  0  0  0  0
   16.9334   69.8888   -9.2760 H   0  0  0  0  0  0  0  0  0  0  0  0
   22.9511   72.9092   -2.2038 O   0  0  0  0  0  0  0  0  0  0  0  0
   22.3904   74.4255   -2.2085 P   0  0  2  0  0  0  0  0  0  0  0  0
   20.9660   74.2908   -2.9654 O   0  0  0  0  0  0  0  0  0  0  0  0
   23.3256   75.4260   -2.8238 O   0  0  0  0  0  0  0  0  0  0  0  0
   22.0074   74.7250   -0.6703 O   0  0  0  0  0  0  0  0  0  0  0  0
   21.1823   72.6950    0.2283 O   0  0  0  0  0  0  0  0  0  0  0  0
   21.0073   75.1993    3.5095 O   0  0  0  0  0  0  0  0  0  0  0  0
   20.1868   76.1533    0.8730 O   0  0  0  0  0  0  0  0  0  0  0  0
   23.1116   73.2038    3.3075 O   0  0  0  0  0  0  0  0  0  0  0  0
   21.5282   74.6996    2.2778 C   0  0  2  0  0  0  0  0  0  0  0  0
   20.4550   74.7930    1.1929 C   0  0  2  0  0  0  0  0  0  0  0  0
   21.9397   73.2418    2.4952 C   0  0  1  0  0  0  0  0  0  0  0  0
   20.8941   74.0603   -0.0756 C   0  0  1  0  0  0  0  0  0  0  0  0
   22.2409   72.5447    1.1716 C   0  0  1  0  0  0  0  0  0  0  0  0
   20.7390   76.1247    3.3955 H   0  0  0  0  0  0  0  0  0  0  0  0
   19.9079   76.6244    1.6734 H   0  0  0  0  0  0  0  0  0  0  0  0
   22.9333   73.6444    4.1530 H   0  0  0  0  0  0  0  0  0  0  0  0
   23.4886   70.7149    1.9442 O   0  0  0  0  0  0  0  0  0  0  0  0
   21.4475   70.2705    1.0303 O   0  0  0  0  0  0  0  0  0  0  0  0
   22.3171   71.0641    1.3572 C   0  0  0  0  0  0  0  0  0  0  0  0
  1  4  1  0
  1 24  1  0
  1  2  1  6
  1  3  2  0
 25 28  1  0
 25 24  1  0
 25 26  1  6
 25 27  2  0
  6 11  1  0
  6 12  1  0
 29 36  1  0
 29 37  1  0
  9  7  1  1
  7 13  1  0
 10  8  1  1
  8 14  1  0
  4  5  1  0
 36 28  1  1
 33 30  1  1
 30 38  1  0
 34 31  1  6
 31 39  1  0
 35 32  1  1
 32 40  1  0
 41 43  1  0
 15 19  2  0
 42 43  2  0
 16 22  2  0
 12 17  1  6
 17 19  1  0
 17 20  1  0
 18 19  1  0
 18 22  1  0
 18 23  1  0
  9 10  1  0
  9 11  1  0
 10 12  1  0
 11  5  1  6
 33 34  1  0
 33 35  1  0
 34 36  1  0
 35 37  1  0
 37 43  1  1
 20 21  2  0
 21 22  1  0
M  CHG  3   2  -1  26  -1  41  -1
M  END
>  <COMPND>  (344) 
    udp_gluA.pdb 

>  <AUTHOR>  (344) 
    GENERATED BY OPEN BABEL 3.1.1

>  <MASTER>  (344) 
        0    0    0    0    0    0    0    0   56    0   56    0

>  <minimizedAffinity>  (344) 
-7.61868

>  <CNNscore>  (344) 
0.8784898520

>  <CNNaffinity>  (344) 
4.7674398422

>  <CNN_VS>  (344) 
4.1881475449

>  <CNNaffinity_variance>  (344) 
0.0156399589

$$$$
345
     RDKit          3D

 43 45  0  0  0  0  0  0  0  0999 V2000
   20.2993   72.4659   -1.5143 P   0  0  2  0  0  0  0  0  0  0  0  0
   19.5945   72.7677   -0.0892 O   0  0  0  0  0  0  0  0  0  0  0  0
   20.2799   73.6096   -2.4856 O   0  0  0  0  0  0  0  0  0  0  0  0
   19.5876   71.1033   -2.0189 O   0  0  0  0  0  0  0  0  0  0  0  0
   19.2350   70.9907   -3.3855 C   0  0  0  0  0  0  0  0  0  0  0  0
   17.4637   71.7242   -4.8353 O   0  0  0  0  0  0  0  0  0  0  0  0
   15.6162   70.1696   -3.0572 O   0  0  0  0  0  0  0  0  0  0  0  0
   15.9352   68.5005   -5.1899 O   0  0  0  0  0  0  0  0  0  0  0  0
   16.9534   69.8674   -3.4559 C   0  0  1  0  0  0  0  0  0  0  0  0
   16.9789   69.4058   -4.8976 C   0  0  2  0  0  0  0  0  0  0  0  0
   17.7296   71.1754   -3.5263 C   0  0  1  0  0  0  0  0  0  0  0  0
   16.8432   70.7179   -5.6512 C   0  0  2  0  0  0  0  0  0  0  0  0
   15.1007   69.3491   -3.0052 H   0  0  0  0  0  0  0  0  0  0  0  0
   16.0670   67.6815   -4.6861 H   0  0  0  0  0  0  0  0  0  0  0  0
   15.4926   70.5895   -8.1283 O   0  0  0  0  0  0  0  0  0  0  0  0
   19.4487   70.5988  -10.4932 O   0  0  0  0  0  0  0  0  0  0  0  0
   17.4956   70.6856   -6.9296 N   0  0  0  0  0  0  0  0  0  0  0  0
   17.4643   70.5932   -9.3037 N   0  0  0  0  0  0  0  0  0  0  0  0
   16.7245   70.6208   -8.1142 C   0  0  0  0  0  0  0  0  0  0  0  0
   18.8830   70.7196   -7.0012 C   0  0  0  0  0  0  0  0  0  0  0  0
   19.5739   70.6928   -8.1426 C   0  0  0  0  0  0  0  0  0  0  0  0
   18.8440   70.6245   -9.4255 C   0  0  0  0  0  0  0  0  0  0  0  0
   16.9493   70.5461  -10.1416 H   0  0  0  0  0  0  0  0  0  0  0  0
   21.7775   71.9681   -1.0899 O   0  0  0  0  0  0  0  0  0  0  0  0
   22.3159   71.2801    0.2704 P   0  0  2  0  0  0  0  0  0  0  0  0
   23.8107   70.8002   -0.1243 O   0  0  0  0  0  0  0  0  0  0  0  0
   21.4341   70.1854    0.7977 O   0  0  0  0  0  0  0  0  0  0  0  0
   22.5391   72.5098    1.2904 O   0  0  0  0  0  0  0  0  0  0  0  0
   23.9267   72.8014    3.1875 O   0  0  0  0  0  0  0  0  0  0  0  0
   20.5123   74.8312    4.3233 O   0  0  0  0  0  0  0  0  0  0  0  0
   20.3187   72.2616    2.9470 O   0  0  0  0  0  0  0  0  0  0  0  0
   22.8769   76.3039    3.4921 O   0  0  0  0  0  0  0  0  0  0  0  0
   21.4902   74.3353    3.4091 C   0  0  2  0  0  0  0  0  0  0  0  0
   21.5226   72.8081    3.4730 C   0  0  2  0  0  0  0  0  0  0  0  0
   22.8490   74.9138    3.8103 C   0  0  1  0  0  0  0  0  0  0  0  0
   22.7085   72.2525    2.6832 C   0  0  1  0  0  0  0  0  0  0  0  0
   23.9898   74.2210    3.0705 C   0  0  1  0  0  0  0  0  0  0  0  0
   19.6404   74.4768    4.0881 H   0  0  0  0  0  0  0  0  0  0  0  0
   19.5620   72.6101    3.4433 H   0  0  0  0  0  0  0  0  0  0  0  0
   22.1556   76.7564    3.9565 H   0  0  0  0  0  0  0  0  0  0  0  0
   26.2576   73.6692    3.3026 O   0  0  0  0  0  0  0  0  0  0  0  0
   25.5058   75.4861    4.4570 O   0  0  0  0  0  0  0  0  0  0  0  0
   25.3057   74.5511    3.6963 C   0  0  0  0  0  0  0  0  0  0  0  0
  1  4  1  0
  1 24  1  0
  1  2  1  1
  1  3  2  0
 25 28  1  0
 25 24  1  0
 25 26  1  6
 25 27  2  0
  6 11  1  0
  6 12  1  0
 29 36  1  0
 29 37  1  0
  9  7  1  6
  7 13  1  0
 10  8  1  1
  8 14  1  0
  4  5  1  0
 36 28  1  6
 33 30  1  1
 30 38  1  0
 34 31  1  6
 31 39  1  0
 35 32  1  6
 32 40  1  0
 41 43  1  0
 15 19  2  0
 42 43  2  0
 16 22  2  0
 12 17  1  6
 17 19  1  0
 17 20  1  0
 18 19  1  0
 18 22  1  0
 18 23  1  0
  9 10  1  0
  9 11  1  0
 10 12  1  0
 11  5  1  6
 33 34  1  0
 33 35  1  0
 34 36  1  0
 35 37  1  0
 37 43  1  1
 20 21  2  0
 21 22  1  0
M  CHG  3   2  -1  26  -1  41  -1
M  END
>  <COMPND>  (345) 
    udp_gluA.pdb 

>  <AUTHOR>  (345) 
    GENERATED BY OPEN BABEL 3.1.1

>  <MASTER>  (345) 
        0    0    0    0    0    0    0    0   56    0   56    0

>  <minimizedAffinity>  (345) 
-7.33347

>  <CNNscore>  (345) 
0.8703271747

>  <CNNaffinity>  (345) 
4.5144200325

>  <CNN_VS>  (345) 
3.9290225506

>  <CNNaffinity_variance>  (345) 
0.0813365728

$$$$
346
     RDKit          3D

 43 45  0  0  0  0  0  0  0  0999 V2000
   20.9016   71.3557   -2.0918 P   0  0  2  0  0  0  0  0  0  0  0  0
   22.4781   71.1178   -2.3694 O   0  0  0  0  0  0  0  0  0  0  0  0
   20.3508   70.6264   -0.9016 O   0  0  0  0  0  0  0  0  0  0  0  0
   20.2016   71.0151   -3.5103 O   0  0  0  0  0  0  0  0  0  0  0  0
   19.3145   69.9139   -3.5794 C   0  0  0  0  0  0  0  0  0  0  0  0
   17.7557   71.2210   -4.8596 O   0  0  0  0  0  0  0  0  0  0  0  0
   15.6004   69.8377   -3.2999 O   0  0  0  0  0  0  0  0  0  0  0  0
   15.5801   68.4889   -5.6698 O   0  0  0  0  0  0  0  0  0  0  0  0
   16.8470   69.3243   -3.7700 C   0  0  1  0  0  0  0  0  0  0  0  0
   16.7894   69.0962   -5.2656 C   0  0  2  0  0  0  0  0  0  0  0  0
   17.8845   70.4329   -3.6565 C   0  0  1  0  0  0  0  0  0  0  0  0
   16.9442   70.5075   -5.8061 C   0  0  2  0  0  0  0  0  0  0  0  0
   14.9216   69.1471   -3.3628 H   0  0  0  0  0  0  0  0  0  0  0  0
   15.5292   67.5928   -5.3006 H   0  0  0  0  0  0  0  0  0  0  0  0
   15.5781   70.4995   -8.2780 O   0  0  0  0  0  0  0  0  0  0  0  0
   19.5196   70.6170  -10.6643 O   0  0  0  0  0  0  0  0  0  0  0  0
   17.5887   70.5356   -7.0885 N   0  0  0  0  0  0  0  0  0  0  0  0
   17.5426   70.5570   -9.4641 N   0  0  0  0  0  0  0  0  0  0  0  0
   16.8102   70.5286   -8.2700 C   0  0  0  0  0  0  0  0  0  0  0  0
   18.9756   70.5713   -7.1671 C   0  0  0  0  0  0  0  0  0  0  0  0
   19.6595   70.5982   -8.3127 C   0  0  0  0  0  0  0  0  0  0  0  0
   18.9216   70.5923   -9.5929 C   0  0  0  0  0  0  0  0  0  0  0  0
   17.0224   70.5507  -10.3000 H   0  0  0  0  0  0  0  0  0  0  0  0
   20.7869   72.9658   -2.0072 O   0  0  0  0  0  0  0  0  0  0  0  0
   21.2821   74.0071   -0.8741 P   0  0  2  0  0  0  0  0  0  0  0  0
   19.9013   74.4670   -0.1655 O   0  0  0  0  0  0  0  0  0  0  0  0
   22.1142   75.1404   -1.4007 O   0  0  0  0  0  0  0  0  0  0  0  0
   22.0205   73.0907    0.2293 O   0  0  0  0  0  0  0  0  0  0  0  0
   23.3500   74.3831    1.7028 O   0  0  0  0  0  0  0  0  0  0  0  0
   24.2908   70.5355    2.8772 O   0  0  0  0  0  0  0  0  0  0  0  0
   24.0544   71.2027    0.0429 O   0  0  0  0  0  0  0  0  0  0  0  0
   22.5126   72.1634    4.5017 O   0  0  0  0  0  0  0  0  0  0  0  0
   23.4565   71.5743    2.3646 C   0  0  2  0  0  0  0  0  0  0  0  0
   24.0842   72.1568    1.0981 C   0  0  2  0  0  0  0  0  0  0  0  0
   23.3306   72.6544    3.4414 C   0  0  1  0  0  0  0  0  0  0  0  0
   23.3435   73.4177    0.6505 C   0  0  1  0  0  0  0  0  0  0  0  0
   22.6958   73.9253    2.8842 C   0  0  1  0  0  0  0  0  0  0  0  0
   24.3854   69.8376    2.2099 H   0  0  0  0  0  0  0  0  0  0  0  0
   24.5223   70.3999    0.3201 H   0  0  0  0  0  0  0  0  0  0  0  0
   22.9054   71.3544    4.8651 H   0  0  0  0  0  0  0  0  0  0  0  0
   22.2607   76.1804    3.3602 O   0  0  0  0  0  0  0  0  0  0  0  0
   23.4878   75.0131    4.8869 O   0  0  0  0  0  0  0  0  0  0  0  0
   22.8754   75.0671    3.8310 C   0  0  0  0  0  0  0  0  0  0  0  0
  1  4  1  0
  1 24  1  0
  1  2  1  6
  1  3  2  0
 25 28  1  0
 25 24  1  0
 25 26  1  1
 25 27  2  0
  6 11  1  0
  6 12  1  0
 29 36  1  0
 29 37  1  0
  9  7  1  6
  7 13  1  0
 10  8  1  1
  8 14  1  0
  4  5  1  0
 36 28  1  1
 33 30  1  1
 30 38  1  0
 34 31  1  6
 31 39  1  0
 35 32  1  1
 32 40  1  0
 41 43  1  0
 15 19  2  0
 42 43  2  0
 16 22  2  0
 12 17  1  6
 17 19  1  0
 17 20  1  0
 18 19  1  0
 18 22  1  0
 18 23  1  0
  9 10  1  0
  9 11  1  0
 10 12  1  0
 11  5  1  6
 33 34  1  0
 33 35  1  0
 34 36  1  0
 35 37  1  0
 37 43  1  1
 20 21  2  0
 21 22  1  0
M  CHG  3   2  -1  26  -1  41  -1
M  END
>  <COMPND>  (346) 
    udp_gluA.pdb 

>  <AUTHOR>  (346) 
    GENERATED BY OPEN BABEL 3.1.1

>  <MASTER>  (346) 
        0    0    0    0    0    0    0    0   56    0   56    0

>  <minimizedAffinity>  (346) 
-7.49858

>  <CNNscore>  (346) 
0.8690221906

>  <CNNaffinity>  (346) 
4.6942300797

>  <CNN_VS>  (346) 
4.0793900490

>  <CNNaffinity_variance>  (346) 
0.0547400601

$$$$
347
     RDKit          3D

 43 45  0  0  0  0  0  0  0  0999 V2000
   20.0387   72.7959   -5.0356 P   0  0  2  0  0  0  0  0  0  0  0  0
   19.5164   72.0565   -3.6942 O   0  0  0  0  0  0  0  0  0  0  0  0
   19.1786   73.9307   -5.5093 O   0  0  0  0  0  0  0  0  0  0  0  0
   20.2487   71.5861   -6.0893 O   0  0  0  0  0  0  0  0  0  0  0  0
   20.0189   71.8387   -7.4633 C   0  0  0  0  0  0  0  0  0  0  0  0
   18.6658   69.9029   -7.0166 O   0  0  0  0  0  0  0  0  0  0  0  0
   18.0095   69.9165   -9.9424 O   0  0  0  0  0  0  0  0  0  0  0  0
   15.7930   71.0497   -8.8293 O   0  0  0  0  0  0  0  0  0  0  0  0
   18.2136   71.0178   -9.0570 C   0  0  1  0  0  0  0  0  0  0  0  0
   17.0192   71.1824   -8.1413 C   0  0  2  0  0  0  0  0  0  0  0  0
   19.3153   70.6356   -8.0780 C   0  0  1  0  0  0  0  0  0  0  0  0
   17.2439   70.0736   -7.1274 C   0  0  2  0  0  0  0  0  0  0  0  0
   17.3098   70.1372  -10.5775 H   0  0  0  0  0  0  0  0  0  0  0  0
   15.6970   71.7790   -9.4624 H   0  0  0  0  0  0  0  0  0  0  0  0
   16.6335   68.1697   -5.1327 O   0  0  0  0  0  0  0  0  0  0  0  0
   15.2007   71.4277   -2.2041 O   0  0  0  0  0  0  0  0  0  0  0  0
   16.7103   70.3968   -5.8345 N   0  0  0  0  0  0  0  0  0  0  0  0
   15.9195   69.7941   -3.6764 N   0  0  0  0  0  0  0  0  0  0  0  0
   16.4384   69.3651   -4.9051 C   0  0  0  0  0  0  0  0  0  0  0  0
   16.4633   71.7221   -5.4977 C   0  0  0  0  0  0  0  0  0  0  0  0
   15.9685   72.1156   -4.3224 C   0  0  0  0  0  0  0  0  0  0  0  0
   15.6563   71.1000   -3.2956 C   0  0  0  0  0  0  0  0  0  0  0  0
   15.7204   69.0937   -3.0137 H   0  0  0  0  0  0  0  0  0  0  0  0
   21.5532   73.2125   -4.6541 O   0  0  0  0  0  0  0  0  0  0  0  0
   22.1257   74.2045   -3.5131 P   0  0  2  0  0  0  0  0  0  0  0  0
   21.0062   75.3715   -3.4419 O   0  0  0  0  0  0  0  0  0  0  0  0
   23.5195   74.6995   -3.7704 O   0  0  0  0  0  0  0  0  0  0  0  0
   21.9496   73.3866   -2.1338 O   0  0  0  0  0  0  0  0  0  0  0  0
   23.7963   73.2068   -0.6618 O   0  0  0  0  0  0  0  0  0  0  0  0
   21.2983   70.2375    0.7565 O   0  0  0  0  0  0  0  0  0  0  0  0
   21.6609   70.6203   -2.1169 O   0  0  0  0  0  0  0  0  0  0  0  0
   21.5471   72.7482    2.2005 O   0  0  0  0  0  0  0  0  0  0  0  0
   21.6220   71.4879    0.1485 C   0  0  2  0  0  0  0  0  0  0  0  0
   22.4521   71.2443   -1.1122 C   0  0  2  0  0  0  0  0  0  0  0  0
   22.4204   72.3130    1.1602 C   0  0  1  0  0  0  0  0  0  0  0  0
   23.0102   72.5577   -1.6620 C   0  0  1  0  0  0  0  0  0  0  0  0
   23.0491   73.5400    0.5060 C   0  0  1  0  0  0  0  0  0  0  0  0
   20.7907   69.6958    0.1319 H   0  0  0  0  0  0  0  0  0  0  0  0
   21.3033   69.7864   -1.7747 H   0  0  0  0  0  0  0  0  0  0  0  0
   21.1402   71.9768    2.6250 H   0  0  0  0  0  0  0  0  0  0  0  0
   25.0439   74.7627    0.6717 O   0  0  0  0  0  0  0  0  0  0  0  0
   24.0609   74.1068    2.6218 O   0  0  0  0  0  0  0  0  0  0  0  0
   24.0791   74.1490    1.4008 C   0  0  0  0  0  0  0  0  0  0  0  0
  1  4  1  0
  1 24  1  0
  1  2  1  1
  1  3  2  0
 25 28  1  0
 25 24  1  0
 25 26  1  1
 25 27  2  0
  6 11  1  0
  6 12  1  0
 29 36  1  0
 29 37  1  0
  9  7  1  6
  7 13  1  0
 10  8  1  6
  8 14  1  0
  4  5  1  0
 36 28  1  1
 33 30  1  1
 30 38  1  0
 34 31  1  6
 31 39  1  0
 35 32  1  1
 32 40  1  0
 41 43  1  0
 15 19  2  0
 42 43  2  0
 16 22  2  0
 12 17  1  1
 17 19  1  0
 17 20  1  0
 18 19  1  0
 18 22  1  0
 18 23  1  0
  9 10  1  0
  9 11  1  0
 10 12  1  0
 11  5  1  1
 33 34  1  0
 33 35  1  0
 34 36  1  0
 35 37  1  0
 37 43  1  1
 20 21  2  0
 21 22  1  0
M  CHG  3   2  -1  26  -1  41  -1
M  END
>  <COMPND>  (347) 
    udp_gluA.pdb 

>  <AUTHOR>  (347) 
    GENERATED BY OPEN BABEL 3.1.1

>  <MASTER>  (347) 
        0    0    0    0    0    0    0    0   56    0   56    0

>  <minimizedAffinity>  (347) 
-6.80848

>  <CNNscore>  (347) 
0.6716786623

>  <CNNaffinity>  (347) 
4.3658056259

>  <CNN_VS>  (347) 
2.9324185848

>  <CNNaffinity_variance>  (347) 
0.1506457031

$$$$
348
     RDKit          3D

 43 45  0  0  0  0  0  0  0  0999 V2000
   23.1357   73.2958   -4.0688 P   0  0  2  0  0  0  0  0  0  0  0  0
   23.9526   71.9058   -3.9289 O   0  0  0  0  0  0  0  0  0  0  0  0
   23.8845   74.4052   -4.7473 O   0  0  0  0  0  0  0  0  0  0  0  0
   22.6347   73.6054   -2.5617 O   0  0  0  0  0  0  0  0  0  0  0  0
   21.6454   74.5996   -2.3690 C   0  0  0  0  0  0  0  0  0  0  0  0
   20.8924   72.7247   -1.0669 O   0  0  0  0  0  0  0  0  0  0  0  0
   18.6447   74.4921   -0.1638 O   0  0  0  0  0  0  0  0  0  0  0  0
   20.3596   74.5797    1.9545 O   0  0  0  0  0  0  0  0  0  0  0  0
   20.0049   74.8289   -0.4380 C   0  0  1  0  0  0  0  0  0  0  0  0
   20.9026   74.3309    0.6748 C   0  0  2  0  0  0  0  0  0  0  0  0
   20.4675   73.9889   -1.6207 C   0  0  1  0  0  0  0  0  0  0  0  0
   21.0022   72.8480    0.3600 C   0  0  2  0  0  0  0  0  0  0  0  0
   18.3268   75.0164    0.5884 H   0  0  0  0  0  0  0  0  0  0  0  0
   20.3173   75.5372    2.1072 H   0  0  0  0  0  0  0  0  0  0  0  0
   21.4042   70.1070    0.9090 O   0  0  0  0  0  0  0  0  0  0  0  0
   25.8368   70.7834    1.9760 O   0  0  0  0  0  0  0  0  0  0  0  0
   22.2512   72.2807    0.7829 N   0  0  0  0  0  0  0  0  0  0  0  0
   23.6112   70.4466    1.4409 N   0  0  0  0  0  0  0  0  0  0  0  0
   22.3468   70.8912    1.0327 C   0  0  0  0  0  0  0  0  0  0  0  0
   23.3643   73.0967    0.9446 C   0  0  0  0  0  0  0  0  0  0  0  0
   24.5630   72.6584    1.3342 C   0  0  0  0  0  0  0  0  0  0  0  0
   24.7475   71.2197    1.6164 C   0  0  0  0  0  0  0  0  0  0  0  0
   23.7018   69.4833    1.6227 H   0  0  0  0  0  0  0  0  0  0  0  0
   21.7765   72.8442   -4.8180 O   0  0  0  0  0  0  0  0  0  0  0  0
   21.0984   73.3633   -6.1907 P   0  0  2  0  0  0  0  0  0  0  0  0
   22.1373   72.8653   -7.3278 O   0  0  0  0  0  0  0  0  0  0  0  0
   20.8121   74.8368   -6.2173 O   0  0  0  0  0  0  0  0  0  0  0  0
   19.8005   72.4254   -6.3862 O   0  0  0  0  0  0  0  0  0  0  0  0
   19.2898   70.2244   -5.6765 O   0  0  0  0  0  0  0  0  0  0  0  0
   17.4955   70.3459   -9.3959 O   0  0  0  0  0  0  0  0  0  0  0  0
   20.1437   71.5109   -8.9904 O   0  0  0  0  0  0  0  0  0  0  0  0
   15.8767   70.5286   -6.9882 O   0  0  0  0  0  0  0  0  0  0  0  0
   17.9566   70.8767   -8.1535 C   0  0  2  0  0  0  0  0  0  0  0  0
   19.4699   70.6871   -8.0460 C   0  0  2  0  0  0  0  0  0  0  0  0
   17.2447   70.1266   -7.0254 C   0  0  1  0  0  0  0  0  0  0  0  0
   19.9660   71.0317   -6.6410 C   0  0  1  0  0  0  0  0  0  0  0  0
   17.8784   70.4269   -5.6701 C   0  0  1  0  0  0  0  0  0  0  0  0
   17.9344   70.8075  -10.1277 H   0  0  0  0  0  0  0  0  0  0  0  0
   19.8335   71.2978   -9.8842 H   0  0  0  0  0  0  0  0  0  0  0  0
   15.4617   70.3430   -7.8450 H   0  0  0  0  0  0  0  0  0  0  0  0
   18.2805   69.3940   -3.6030 O   0  0  0  0  0  0  0  0  0  0  0  0
   16.3717   68.8087   -4.7044 O   0  0  0  0  0  0  0  0  0  0  0  0
   17.4050   69.4573   -4.6367 C   0  0  0  0  0  0  0  0  0  0  0  0
  1  4  1  0
  1 24  1  0
  1  2  1  1
  1  3  2  0
 25 28  1  0
 25 24  1  0
 25 26  1  6
 25 27  2  0
  6 11  1  0
  6 12  1  0
 29 36  1  0
 29 37  1  0
  9  7  1  1
  7 13  1  0
 10  8  1  1
  8 14  1  0
  4  5  1  0
 36 28  1  1
 33 30  1  6
 30 38  1  0
 34 31  1  6
 31 39  1  0
 35 32  1  1
 32 40  1  0
 41 43  1  0
 15 19  2  0
 42 43  2  0
 16 22  2  0
 12 17  1  6
 17 19  1  0
 17 20  1  0
 18 19  1  0
 18 22  1  0
 18 23  1  0
  9 10  1  0
  9 11  1  0
 10 12  1  0
 11  5  1  1
 33 34  1  0
 33 35  1  0
 34 36  1  0
 35 37  1  0
 37 43  1  1
 20 21  2  0
 21 22  1  0
M  CHG  3   2  -1  26  -1  41  -1
M  END
>  <COMPND>  (348) 
    udp_gluA.pdb 

>  <AUTHOR>  (348) 
    GENERATED BY OPEN BABEL 3.1.1

>  <MASTER>  (348) 
        0    0    0    0    0    0    0    0   56    0   56    0

>  <minimizedAffinity>  (348) 
-7.76098

>  <CNNscore>  (348) 
0.6538137794

>  <CNNaffinity>  (348) 
4.5840468407

>  <CNN_VS>  (348) 
2.9971129894

>  <CNNaffinity_variance>  (348) 
0.0667645559

$$$$
349
     RDKit          3D

 43 45  0  0  0  0  0  0  0  0999 V2000
   23.0762   73.4081   -4.5643 P   0  0  2  0  0  0  0  0  0  0  0  0
   24.2146   72.3529   -4.1067 O   0  0  0  0  0  0  0  0  0  0  0  0
   23.5935   74.7438   -5.0116 O   0  0  0  0  0  0  0  0  0  0  0  0
   22.0474   73.4353   -3.3158 O   0  0  0  0  0  0  0  0  0  0  0  0
   22.5684   73.2929   -2.0071 C   0  0  0  0  0  0  0  0  0  0  0  0
   23.3588   71.4017   -0.7516 O   0  0  0  0  0  0  0  0  0  0  0  0
   20.4796   70.6040   -0.4955 O   0  0  0  0  0  0  0  0  0  0  0  0
   21.0006   71.7414    1.9275 O   0  0  0  0  0  0  0  0  0  0  0  0
   21.0590   71.9089   -0.4975 C   0  0  1  0  0  0  0  0  0  0  0  0
   21.7604   72.1730    0.8180 C   0  0  2  0  0  0  0  0  0  0  0  0
   22.2200   71.9059   -1.4826 C   0  0  1  0  0  0  0  0  0  0  0  0
   23.0499   71.3874    0.6511 C   0  0  2  0  0  0  0  0  0  0  0  0
   19.7353   70.5813    0.1268 H   0  0  0  0  0  0  0  0  0  0  0  0
   20.1905   72.2721    1.9907 H   0  0  0  0  0  0  0  0  0  0  0  0
   24.9535   69.9093    2.1237 O   0  0  0  0  0  0  0  0  0  0  0  0
   27.2045   73.7256    3.3934 O   0  0  0  0  0  0  0  0  0  0  0  0
   24.1439   71.9694    1.3760 N   0  0  0  0  0  0  0  0  0  0  0  0
   26.0722   71.8115    2.7555 N   0  0  0  0  0  0  0  0  0  0  0  0
   25.0437   71.1378    2.0836 C   0  0  0  0  0  0  0  0  0  0  0  0
   24.3179   73.3480    1.3800 C   0  0  0  0  0  0  0  0  0  0  0  0
   25.3032   73.9758    2.0250 C   0  0  0  0  0  0  0  0  0  0  0  0
   26.2860   73.1800    2.7893 C   0  0  0  0  0  0  0  0  0  0  0  0
   26.7100   71.2538    3.2569 H   0  0  0  0  0  0  0  0  0  0  0  0
   22.2566   72.5911   -5.6928 O   0  0  0  0  0  0  0  0  0  0  0  0
   21.1532   73.0824   -6.7674 P   0  0  2  0  0  0  0  0  0  0  0  0
   21.6754   72.4349   -8.1561 O   0  0  0  0  0  0  0  0  0  0  0  0
   20.9584   74.5703   -6.8136 O   0  0  0  0  0  0  0  0  0  0  0  0
   19.8242   72.2442   -6.4017 O   0  0  0  0  0  0  0  0  0  0  0  0
   19.5235   70.0804   -5.4871 O   0  0  0  0  0  0  0  0  0  0  0  0
   16.3277   70.3436   -8.0921 O   0  0  0  0  0  0  0  0  0  0  0  0
   18.9654   71.3207   -8.8808 O   0  0  0  0  0  0  0  0  0  0  0  0
   15.9044   70.6263   -5.2299 O   0  0  0  0  0  0  0  0  0  0  0  0
   17.3074   70.8353   -7.1775 C   0  0  2  0  0  0  0  0  0  0  0  0
   18.7065   70.5409   -7.7191 C   0  0  2  0  0  0  0  0  0  0  0  0
   17.0971   70.1308   -5.8353 C   0  0  1  0  0  0  0  0  0  0  0  0
   19.7750   70.8437   -6.6677 C   0  0  1  0  0  0  0  0  0  0  0  0
   18.2657   70.3801   -4.8862 C   0  0  1  0  0  0  0  0  0  0  0  0
   16.4418   70.7772   -8.9524 H   0  0  0  0  0  0  0  0  0  0  0  0
   18.2910   71.1338   -9.5520 H   0  0  0  0  0  0  0  0  0  0  0  0
   15.1529   70.4739   -5.8240 H   0  0  0  0  0  0  0  0  0  0  0  0
   19.0727   69.8370   -2.7519 O   0  0  0  0  0  0  0  0  0  0  0  0
   17.5032   68.4508   -3.6542 O   0  0  0  0  0  0  0  0  0  0  0  0
   18.2161   69.4406   -3.7255 C   0  0  0  0  0  0  0  0  0  0  0  0
  1  4  1  0
  1 24  1  0
  1  2  1  1
  1  3  2  0
 25 28  1  0
 25 24  1  0
 25 26  1  6
 25 27  2  0
  6 11  1  0
  6 12  1  0
 29 36  1  0
 29 37  1  0
  9  7  1  1
  7 13  1  0
 10  8  1  1
  8 14  1  0
  4  5  1  0
 36 28  1  1
 33 30  1  6
 30 38  1  0
 34 31  1  6
 31 39  1  0
 35 32  1  1
 32 40  1  0
 41 43  1  0
 15 19  2  0
 42 43  2  0
 16 22  2  0
 12 17  1  1
 17 19  1  0
 17 20  1  0
 18 19  1  0
 18 22  1  0
 18 23  1  0
  9 10  1  0
  9 11  1  0
 10 12  1  0
 11  5  1  1
 33 34  1  0
 33 35  1  0
 34 36  1  0
 35 37  1  0
 37 43  1  1
 20 21  2  0
 21 22  1  0
M  CHG  3   2  -1  26  -1  41  -1
M  END
>  <COMPND>  (349) 
    udp_gluA.pdb 

>  <AUTHOR>  (349) 
    GENERATED BY OPEN BABEL 3.1.1

>  <MASTER>  (349) 
        0    0    0    0    0    0    0    0   56    0   56    0

>  <minimizedAffinity>  (349) 
-7.90392

>  <CNNscore>  (349) 
0.6303594112

>  <CNNaffinity>  (349) 
4.4996919632

>  <CNN_VS>  (349) 
2.8364231586

>  <CNNaffinity_variance>  (349) 
0.0594631806

$$$$
350
     RDKit          3D

 43 45  0  0  0  0  0  0  0  0999 V2000
   23.7144   72.3932   -3.6716 P   0  0  2  0  0  0  0  0  0  0  0  0
   24.8426   73.5466   -3.7960 O   0  0  0  0  0  0  0  0  0  0  0  0
   24.2123   71.0721   -3.1629 O   0  0  0  0  0  0  0  0  0  0  0  0
   23.0223   72.3673   -5.1340 O   0  0  0  0  0  0  0  0  0  0  0  0
   21.6212   72.1813   -5.2157 C   0  0  0  0  0  0  0  0  0  0  0  0
   20.4730   70.3149   -6.2035 O   0  0  0  0  0  0  0  0  0  0  0  0
   20.6784   71.8012   -8.7996 O   0  0  0  0  0  0  0  0  0  0  0  0
   18.1046   72.2838   -8.0387 O   0  0  0  0  0  0  0  0  0  0  0  0
   20.4713   72.3092   -7.4815 C   0  0  1  0  0  0  0  0  0  0  0  0
   19.0553   72.0254   -7.0268 C   0  0  2  0  0  0  0  0  0  0  0  0
   21.2912   71.4626   -6.5175 C   0  0  1  0  0  0  0  0  0  0  0  0
   19.1315   70.5535   -6.6582 C   0  0  2  0  0  0  0  0  0  0  0  0
   20.1644   72.3264   -9.4334 H   0  0  0  0  0  0  0  0  0  0  0  0
   18.0940   73.2338   -8.2373 H   0  0  0  0  0  0  0  0  0  0  0  0
   16.4352   69.8254   -7.0779 O   0  0  0  0  0  0  0  0  0  0  0  0
   15.7041   69.2269   -2.5667 O   0  0  0  0  0  0  0  0  0  0  0  0
   18.2142   70.2026   -5.6112 N   0  0  0  0  0  0  0  0  0  0  0  0
   16.0734   69.5290   -4.8306 N   0  0  0  0  0  0  0  0  0  0  0  0
   16.8807   69.8523   -5.9291 C   0  0  0  0  0  0  0  0  0  0  0  0
   18.6380   70.2061   -4.2878 C   0  0  0  0  0  0  0  0  0  0  0  0
   17.8569   69.8955   -3.2514 C   0  0  0  0  0  0  0  0  0  0  0  0
   16.4494   69.5188   -3.4971 C   0  0  0  0  0  0  0  0  0  0  0  0
   15.1403   69.2837   -5.0268 H   0  0  0  0  0  0  0  0  0  0  0  0
   22.5851   73.0883   -2.7474 O   0  0  0  0  0  0  0  0  0  0  0  0
   21.8076   72.5500   -1.4362 P   0  0  2  0  0  0  0  0  0  0  0  0
   21.5318   70.9930   -1.7829 O   0  0  0  0  0  0  0  0  0  0  0  0
   20.5755   73.3331   -1.0860 O   0  0  0  0  0  0  0  0  0  0  0  0
   22.9311   72.5167   -0.2790 O   0  0  0  0  0  0  0  0  0  0  0  0
   24.3921   71.2431    1.0821 O   0  0  0  0  0  0  0  0  0  0  0  0
   21.4637   72.3346    3.7841 O   0  0  0  0  0  0  0  0  0  0  0  0
   20.7434   71.4749    1.0866 O   0  0  0  0  0  0  0  0  0  0  0  0
   24.0493   73.6628    3.8188 O   0  0  0  0  0  0  0  0  0  0  0  0
   22.3054   72.4891    2.6415 C   0  0  2  0  0  0  0  0  0  0  0  0
   22.0423   71.3515    1.6544 C   0  0  2  0  0  0  0  0  0  0  0  0
   23.7595   72.4552    3.1172 C   0  0  1  0  0  0  0  0  0  0  0  0
   23.0793   71.3516    0.5304 C   0  0  1  0  0  0  0  0  0  0  0  0
   24.7268   72.3286    1.9438 C   0  0  1  0  0  0  0  0  0  0  0  0
   20.5343   72.3530    3.5062 H   0  0  0  0  0  0  0  0  0  0  0  0
   20.0804   71.4758    1.7942 H   0  0  0  0  0  0  0  0  0  0  0  0
   23.4405   73.7555    4.5682 H   0  0  0  0  0  0  0  0  0  0  0  0
   26.3711   70.6686    2.1485 O   0  0  0  0  0  0  0  0  0  0  0  0
   26.8682   72.7329    2.9795 O   0  0  0  0  0  0  0  0  0  0  0  0
   26.0958   71.9681    2.4214 C   0  0  0  0  0  0  0  0  0  0  0  0
  1  4  1  0
  1 24  1  0
  1  2  1  6
  1  3  2  0
 25 28  1  0
 25 24  1  0
 25 26  1  6
 25 27  2  0
  6 11  1  0
  6 12  1  0
 29 36  1  0
 29 37  1  0
  9  7  1  6
  7 13  1  0
 10  8  1  6
  8 14  1  0
  4  5  1  0
 36 28  1  1
 33 30  1  1
 30 38  1  0
 34 31  1  6
 31 39  1  0
 35 32  1  6
 32 40  1  0
 41 43  1  0
 15 19  2  0
 42 43  2  0
 16 22  2  0
 12 17  1  1
 17 19  1  0
 17 20  1  0
 18 19  1  0
 18 22  1  0
 18 23  1  0
  9 10  1  0
  9 11  1  0
 10 12  1  0
 11  5  1  1
 33 34  1  0
 33 35  1  0
 34 36  1  0
 35 37  1  0
 37 43  1  1
 20 21  2  0
 21 22  1  0
M  CHG  3   2  -1  26  -1  41  -1
M  END
>  <COMPND>  (350) 
    udp_gluA.pdb 

>  <AUTHOR>  (350) 
    GENERATED BY OPEN BABEL 3.1.1

>  <MASTER>  (350) 
        0    0    0    0    0    0    0    0   56    0   56    0

>  <minimizedAffinity>  (350) 
-8.17578

>  <CNNscore>  (350) 
0.6237931848

>  <CNNaffinity>  (350) 
4.3582749367

>  <CNN_VS>  (350) 
2.7186622620

>  <CNNaffinity_variance>  (350) 
0.1574098766

$$$$
351
     RDKit          3D

 43 45  0  0  0  0  0  0  0  0999 V2000
   22.8217   71.2121   -2.5598 P   0  0  2  0  0  0  0  0  0  0  0  0
   24.3205   70.7909   -3.0014 O   0  0  0  0  0  0  0  0  0  0  0  0
   21.7246   70.4121   -3.1986 O   0  0  0  0  0  0  0  0  0  0  0  0
   22.7729   72.8077   -2.8238 O   0  0  0  0  0  0  0  0  0  0  0  0
   21.8681   73.3054   -3.7924 C   0  0  0  0  0  0  0  0  0  0  0  0
   21.9643   72.2658   -5.9575 O   0  0  0  0  0  0  0  0  0  0  0  0
   23.4024   74.7329   -6.8724 O   0  0  0  0  0  0  0  0  0  0  0  0
   20.8668   75.1478   -7.7860 O   0  0  0  0  0  0  0  0  0  0  0  0
   22.3388   74.6045   -5.9285 C   0  0  1  0  0  0  0  0  0  0  0  0
   21.0327   74.3331   -6.6444 C   0  0  2  0  0  0  0  0  0  0  0  0
   22.5521   73.3115   -5.1534 C   0  0  1  0  0  0  0  0  0  0  0  0
   21.1635   72.8598   -6.9915 C   0  0  2  0  0  0  0  0  0  0  0  0
   23.2878   75.5521   -7.3798 H   0  0  0  0  0  0  0  0  0  0  0  0
   20.7881   76.0757   -7.5123 H   0  0  0  0  0  0  0  0  0  0  0  0
   20.7518   70.2884   -8.0845 O   0  0  0  0  0  0  0  0  0  0  0  0
   16.2460   70.4004   -7.1207 O   0  0  0  0  0  0  0  0  0  0  0  0
   19.8930   72.1932   -7.0391 N   0  0  0  0  0  0  0  0  0  0  0  0
   18.5079   70.3470   -7.6043 N   0  0  0  0  0  0  0  0  0  0  0  0
   19.7943   70.9022   -7.6099 C   0  0  0  0  0  0  0  0  0  0  0  0
   18.7631   72.8161   -6.5232 C   0  0  0  0  0  0  0  0  0  0  0  0
   17.5436   72.2742   -6.5249 C   0  0  0  0  0  0  0  0  0  0  0  0
   17.3540   70.9279   -7.1036 C   0  0  0  0  0  0  0  0  0  0  0  0
   18.4138   69.4497   -7.9983 H   0  0  0  0  0  0  0  0  0  0  0  0
   22.8768   71.1121   -0.9474 O   0  0  0  0  0  0  0  0  0  0  0  0
   21.7953   71.5294    0.1795 P   0  0  2  0  0  0  0  0  0  0  0  0
   21.5197   70.1385    0.9605 O   0  0  0  0  0  0  0  0  0  0  0  0
   20.5610   72.1877   -0.3654 O   0  0  0  0  0  0  0  0  0  0  0  0
   22.6255   72.4288    1.2303 O   0  0  0  0  0  0  0  0  0  0  0  0
   24.4945   72.0888    2.6448 O   0  0  0  0  0  0  0  0  0  0  0  0
   21.9772   74.2711    5.0879 O   0  0  0  0  0  0  0  0  0  0  0  0
   20.9188   72.1297    3.4061 O   0  0  0  0  0  0  0  0  0  0  0  0
   24.2820   75.5453    3.8570 O   0  0  0  0  0  0  0  0  0  0  0  0
   22.5594   73.8608    3.8508 C   0  0  2  0  0  0  0  0  0  0  0  0
   22.3027   72.3692    3.6341 C   0  0  2  0  0  0  0  0  0  0  0  0
   24.0629   74.1374    3.9210 C   0  0  1  0  0  0  0  0  0  0  0  0
   23.1023   71.8441    2.4409 C   0  0  1  0  0  0  0  0  0  0  0  0
   24.8058   73.4752    2.7642 C   0  0  1  0  0  0  0  0  0  0  0  0
   21.0216   74.1048    5.0666 H   0  0  0  0  0  0  0  0  0  0  0  0
   20.4054   72.4607    4.1592 H   0  0  0  0  0  0  0  0  0  0  0  0
   23.8143   75.9789    4.5879 H   0  0  0  0  0  0  0  0  0  0  0  0
   26.7534   74.7341    3.1154 O   0  0  0  0  0  0  0  0  0  0  0  0
   26.9677   72.4641    3.1179 O   0  0  0  0  0  0  0  0  0  0  0  0
   26.2787   73.4678    3.0145 C   0  0  0  0  0  0  0  0  0  0  0  0
  1  4  1  0
  1 24  1  0
  1  2  1  6
  1  3  2  0
 25 28  1  0
 25 24  1  0
 25 26  1  1
 25 27  2  0
  6 11  1  0
  6 12  1  0
 29 36  1  0
 29 37  1  0
  9  7  1  6
  7 13  1  0
 10  8  1  6
  8 14  1  0
  4  5  1  0
 36 28  1  6
 33 30  1  1
 30 38  1  0
 34 31  1  6
 31 39  1  0
 35 32  1  6
 32 40  1  0
 41 43  1  0
 15 19  2  0
 42 43  2  0
 16 22  2  0
 12 17  1  1
 17 19  1  0
 17 20  1  0
 18 19  1  0
 18 22  1  0
 18 23  1  0
  9 10  1  0
  9 11  1  0
 10 12  1  0
 11  5  1  1
 33 34  1  0
 33 35  1  0
 34 36  1  0
 35 37  1  0
 37 43  1  1
 20 21  2  0
 21 22  1  0
M  CHG  3   2  -1  26  -1  41  -1
M  END
>  <COMPND>  (351) 
    udp_gluA.pdb 

>  <AUTHOR>  (351) 
    GENERATED BY OPEN BABEL 3.1.1

>  <MASTER>  (351) 
        0    0    0    0    0    0    0    0   56    0   56    0

>  <minimizedAffinity>  (351) 
-7.30130

>  <CNNscore>  (351) 
0.6140694618

>  <CNNaffinity>  (351) 
4.3093318939

>  <CNN_VS>  (351) 
2.6462290287

>  <CNNaffinity_variance>  (351) 
0.0175422430

$$$$
352
     RDKit          3D

 43 45  0  0  0  0  0  0  0  0999 V2000
   21.9315   72.5407   -5.8593 P   0  0  2  0  0  0  0  0  0  0  0  0
   21.4436   74.0091   -5.3856 O   0  0  0  0  0  0  0  0  0  0  0  0
   23.0489   72.5368   -6.8610 O   0  0  0  0  0  0  0  0  0  0  0  0
   20.5659   71.8098   -6.3273 O   0  0  0  0  0  0  0  0  0  0  0  0
   20.0286   72.1302   -7.5973 C   0  0  0  0  0  0  0  0  0  0  0  0
   18.9325   70.0384   -7.1495 O   0  0  0  0  0  0  0  0  0  0  0  0
   18.1195   70.0594  -10.0357 O   0  0  0  0  0  0  0  0  0  0  0  0
   15.8523   70.8952   -8.7719 O   0  0  0  0  0  0  0  0  0  0  0  0
   18.2445   71.1512   -9.1241 C   0  0  1  0  0  0  0  0  0  0  0  0
   17.0911   71.1497   -8.1433 C   0  0  2  0  0  0  0  0  0  0  0  0
   19.4347   70.8716   -8.2166 C   0  0  1  0  0  0  0  0  0  0  0  0
   17.4964   70.0459   -7.1814 C   0  0  2  0  0  0  0  0  0  0  0  0
   17.3653   70.2154  -10.6260 H   0  0  0  0  0  0  0  0  0  0  0  0
   15.6388   71.6262   -9.3735 H   0  0  0  0  0  0  0  0  0  0  0  0
   16.2801   68.0622   -5.5808 O   0  0  0  0  0  0  0  0  0  0  0  0
   15.6329   71.0106   -2.0977 O   0  0  0  0  0  0  0  0  0  0  0  0
   17.0010   70.2679   -5.8525 N   0  0  0  0  0  0  0  0  0  0  0  0
   15.9580   69.5328   -3.8479 N   0  0  0  0  0  0  0  0  0  0  0  0
   16.4069   69.2037   -5.1337 C   0  0  0  0  0  0  0  0  0  0  0  0
   17.1073   71.5268   -5.2739 C   0  0  0  0  0  0  0  0  0  0  0  0
   16.6750   71.8252   -4.0472 C   0  0  0  0  0  0  0  0  0  0  0  0
   16.0410   70.7700   -3.2299 C   0  0  0  0  0  0  0  0  0  0  0  0
   15.5389   68.8087   -3.3290 H   0  0  0  0  0  0  0  0  0  0  0  0
   22.2771   71.8049   -4.4622 O   0  0  0  0  0  0  0  0  0  0  0  0
   23.4895   72.0284   -3.4163 P   0  0  2  0  0  0  0  0  0  0  0  0
   24.4543   73.0753   -4.1868 O   0  0  0  0  0  0  0  0  0  0  0  0
   24.1709   70.7625   -2.9838 O   0  0  0  0  0  0  0  0  0  0  0  0
   22.8394   72.8837   -2.2129 O   0  0  0  0  0  0  0  0  0  0  0  0
   21.5444   71.7823   -0.5639 O   0  0  0  0  0  0  0  0  0  0  0  0
   20.4421   75.7243   -0.0040 O   0  0  0  0  0  0  0  0  0  0  0  0
   20.7362   74.6375   -2.6997 O   0  0  0  0  0  0  0  0  0  0  0  0
   22.2636   74.4393    1.8620 O   0  0  0  0  0  0  0  0  0  0  0  0
   21.3218   74.6530   -0.3453 C   0  0  2  0  0  0  0  0  0  0  0  0
   20.7314   73.8573   -1.5097 C   0  0  2  0  0  0  0  0  0  0  0  0
   21.4772   73.7581    0.8863 C   0  0  1  0  0  0  0  0  0  0  0  0
   21.5253   72.5730   -1.7530 C   0  0  1  0  0  0  0  0  0  0  0  0
   22.1670   72.4428    0.5357 C   0  0  1  0  0  0  0  0  0  0  0  0
   20.3281   76.3064   -0.7717 H   0  0  0  0  0  0  0  0  0  0  0  0
   20.2344   75.4541   -2.5524 H   0  0  0  0  0  0  0  0  0  0  0  0
   21.8356   75.2783    2.0938 H   0  0  0  0  0  0  0  0  0  0  0  0
   21.6385   70.2461    1.1654 O   0  0  0  0  0  0  0  0  0  0  0  0
   22.2196   71.6936    2.8286 O   0  0  0  0  0  0  0  0  0  0  0  0
   22.0211   71.4547    1.6468 C   0  0  0  0  0  0  0  0  0  0  0  0
  1  4  1  0
  1 24  1  0
  1  2  1  1
  1  3  2  0
 25 28  1  0
 25 24  1  0
 25 26  1  6
 25 27  2  0
  6 11  1  0
  6 12  1  0
 29 36  1  0
 29 37  1  0
  9  7  1  6
  7 13  1  0
 10  8  1  6
  8 14  1  0
  4  5  1  0
 36 28  1  1
 33 30  1  1
 30 38  1  0
 34 31  1  6
 31 39  1  0
 35 32  1  1
 32 40  1  0
 41 43  1  0
 15 19  2  0
 42 43  2  0
 16 22  2  0
 12 17  1  1
 17 19  1  0
 17 20  1  0
 18 19  1  0
 18 22  1  0
 18 23  1  0
  9 10  1  0
  9 11  1  0
 10 12  1  0
 11  5  1  1
 33 34  1  0
 33 35  1  0
 34 36  1  0
 35 37  1  0
 37 43  1  1
 20 21  2  0
 21 22  1  0
M  CHG  3   2  -1  26  -1  41  -1
M  END
>  <COMPND>  (352) 
    udp_gluA.pdb 

>  <AUTHOR>  (352) 
    GENERATED BY OPEN BABEL 3.1.1

>  <MASTER>  (352) 
        0    0    0    0    0    0    0    0   56    0   56    0

>  <minimizedAffinity>  (352) 
-8.27551

>  <CNNscore>  (352) 
0.5998235941

>  <CNNaffinity>  (352) 
4.3838562965

>  <CNN_VS>  (352) 
2.6295404434

>  <CNNaffinity_variance>  (352) 
0.4052053988

$$$$
353
     RDKit          3D

 43 45  0  0  0  0  0  0  0  0999 V2000
   22.2707   73.1684   -7.0997 P   0  0  2  0  0  0  0  0  0  0  0  0
   21.1666   74.1859   -6.4958 O   0  0  0  0  0  0  0  0  0  0  0  0
   23.2604   73.7923   -8.0394 O   0  0  0  0  0  0  0  0  0  0  0  0
   21.3894   71.9567   -7.7104 O   0  0  0  0  0  0  0  0  0  0  0  0
   19.9799   72.0202   -7.5938 C   0  0  0  0  0  0  0  0  0  0  0  0
   18.8118   69.9675   -7.1471 O   0  0  0  0  0  0  0  0  0  0  0  0
   18.1019   69.9544  -10.0604 O   0  0  0  0  0  0  0  0  0  0  0  0
   15.8153   70.8747   -8.8940 O   0  0  0  0  0  0  0  0  0  0  0  0
   18.2246   71.0599   -9.1651 C   0  0  1  0  0  0  0  0  0  0  0  0
   17.0377   71.1082   -8.2263 C   0  0  2  0  0  0  0  0  0  0  0  0
   19.3740   70.7662   -8.2107 C   0  0  1  0  0  0  0  0  0  0  0  0
   17.3786   70.0127   -7.2304 C   0  0  2  0  0  0  0  0  0  0  0  0
   17.3736   70.1191  -10.6801 H   0  0  0  0  0  0  0  0  0  0  0  0
   15.6433   71.5995   -9.5162 H   0  0  0  0  0  0  0  0  0  0  0  0
   16.4779   68.0154   -5.4482 O   0  0  0  0  0  0  0  0  0  0  0  0
   15.3423   71.1288   -2.2449 O   0  0  0  0  0  0  0  0  0  0  0  0
   16.8429   70.2735   -5.9243 N   0  0  0  0  0  0  0  0  0  0  0  0
   15.9122   69.5681   -3.8549 N   0  0  0  0  0  0  0  0  0  0  0  0
   16.4185   69.1985   -5.1080 C   0  0  0  0  0  0  0  0  0  0  0  0
   16.7436   71.5807   -5.4637 C   0  0  0  0  0  0  0  0  0  0  0  0
   16.2589   71.9173   -4.2668 C   0  0  0  0  0  0  0  0  0  0  0  0
   15.7931   70.8539   -3.3528 C   0  0  0  0  0  0  0  0  0  0  0  0
   15.6086   68.8370   -3.2695 H   0  0  0  0  0  0  0  0  0  0  0  0
   22.9223   72.5116   -5.7742 O   0  0  0  0  0  0  0  0  0  0  0  0
   23.4086   73.1830   -4.3862 P   0  0  2  0  0  0  0  0  0  0  0  0
   23.7176   74.7158   -4.8050 O   0  0  0  0  0  0  0  0  0  0  0  0
   24.5600   72.4769   -3.7308 O   0  0  0  0  0  0  0  0  0  0  0  0
   22.0743   73.2686   -3.4835 O   0  0  0  0  0  0  0  0  0  0  0  0
   21.6383   71.3256   -2.2014 O   0  0  0  0  0  0  0  0  0  0  0  0
   18.1456   73.4720   -1.6892 O   0  0  0  0  0  0  0  0  0  0  0  0
   19.4202   73.3220   -4.3136 O   0  0  0  0  0  0  0  0  0  0  0  0
   20.1083   73.3463    0.4516 O   0  0  0  0  0  0  0  0  0  0  0  0
   19.5475   73.2930   -1.8910 C   0  0  2  0  0  0  0  0  0  0  0  0
   19.7834   72.5253   -3.1919 C   0  0  2  0  0  0  0  0  0  0  0  0
   20.0999   72.5056   -0.7007 C   0  0  1  0  0  0  0  0  0  0  0  0
   21.2504   72.1148   -3.3266 C   0  0  1  0  0  0  0  0  0  0  0  0
   21.5238   72.0242   -0.9637 C   0  0  1  0  0  0  0  0  0  0  0  0
   17.7727   73.9702   -2.4336 H   0  0  0  0  0  0  0  0  0  0  0  0
   18.4906   73.5863   -4.2345 H   0  0  0  0  0  0  0  0  0  0  0  0
   19.2078   73.6596    0.6298 H   0  0  0  0  0  0  0  0  0  0  0  0
   23.2691   70.7862   -0.0031 O   0  0  0  0  0  0  0  0  0  0  0  0
   21.1678   70.4196    0.8026 O   0  0  0  0  0  0  0  0  0  0  0  0
   21.9301   70.9956    0.0409 C   0  0  0  0  0  0  0  0  0  0  0  0
  1  4  1  0
  1 24  1  0
  1  2  1  1
  1  3  2  0
 25 28  1  0
 25 24  1  0
 25 26  1  6
 25 27  2  0
  6 11  1  0
  6 12  1  0
 29 36  1  0
 29 37  1  0
  9  7  1  6
  7 13  1  0
 10  8  1  6
  8 14  1  0
  4  5  1  0
 36 28  1  1
 33 30  1  1
 30 38  1  0
 34 31  1  6
 31 39  1  0
 35 32  1  1
 32 40  1  0
 41 43  1  0
 15 19  2  0
 42 43  2  0
 16 22  2  0
 12 17  1  1
 17 19  1  0
 17 20  1  0
 18 19  1  0
 18 22  1  0
 18 23  1  0
  9 10  1  0
  9 11  1  0
 10 12  1  0
 11  5  1  1
 33 34  1  0
 33 35  1  0
 34 36  1  0
 35 37  1  0
 37 43  1  1
 20 21  2  0
 21 22  1  0
M  CHG  3   2  -1  26  -1  41  -1
M  END
>  <COMPND>  (353) 
    udp_gluA.pdb 

>  <AUTHOR>  (353) 
    GENERATED BY OPEN BABEL 3.1.1

>  <MASTER>  (353) 
        0    0    0    0    0    0    0    0   56    0   56    0

>  <minimizedAffinity>  (353) 
-7.91645

>  <CNNscore>  (353) 
0.5871038437

>  <CNNaffinity>  (353) 
4.4730920792

>  <CNN_VS>  (353) 
2.6261694431

>  <CNNaffinity_variance>  (353) 
0.3912367225

$$$$
354
     RDKit          3D

 43 45  0  0  0  0  0  0  0  0999 V2000
   21.7359   72.3984   -5.8003 P   0  0  2  0  0  0  0  0  0  0  0  0
   20.8888   73.7754   -5.7273 O   0  0  0  0  0  0  0  0  0  0  0  0
   23.0883   72.5197   -6.4391 O   0  0  0  0  0  0  0  0  0  0  0  0
   20.7189   71.3533   -6.5012 O   0  0  0  0  0  0  0  0  0  0  0  0
   19.9639   71.7894   -7.6167 C   0  0  0  0  0  0  0  0  0  0  0  0
   18.6012   69.8669   -7.1425 O   0  0  0  0  0  0  0  0  0  0  0  0
   17.8721   69.8981  -10.0510 O   0  0  0  0  0  0  0  0  0  0  0  0
   15.6967   71.0514   -8.8789 O   0  0  0  0  0  0  0  0  0  0  0  0
   18.1104   70.9939   -9.1673 C   0  0  1  0  0  0  0  0  0  0  0  0
   16.9412   71.1683   -8.2214 C   0  0  2  0  0  0  0  0  0  0  0  0
   19.2320   70.5962   -8.2175 C   0  0  1  0  0  0  0  0  0  0  0  0
   17.1789   70.0535   -7.2172 C   0  0  2  0  0  0  0  0  0  0  0  0
   17.1592   70.1286  -10.6676 H   0  0  0  0  0  0  0  0  0  0  0  0
   15.5929   71.7840   -9.5071 H   0  0  0  0  0  0  0  0  0  0  0  0
   16.6581   68.1548   -5.1923 O   0  0  0  0  0  0  0  0  0  0  0  0
   15.2715   71.4122   -2.2409 O   0  0  0  0  0  0  0  0  0  0  0  0
   16.6814   70.3780   -5.9102 N   0  0  0  0  0  0  0  0  0  0  0  0
   15.9670   69.7789   -3.7246 N   0  0  0  0  0  0  0  0  0  0  0  0
   16.4534   69.3489   -4.9662 C   0  0  0  0  0  0  0  0  0  0  0  0
   16.4262   71.7020   -5.5742 C   0  0  0  0  0  0  0  0  0  0  0  0
   15.9629   72.0964   -4.3865 C   0  0  0  0  0  0  0  0  0  0  0  0
   15.6973   71.0835   -3.3440 C   0  0  0  0  0  0  0  0  0  0  0  0
   15.7986   69.0802   -3.0517 H   0  0  0  0  0  0  0  0  0  0  0  0
   21.7600   71.9052   -4.2611 O   0  0  0  0  0  0  0  0  0  0  0  0
   20.6523   71.1249   -3.3791 P   0  0  2  0  0  0  0  0  0  0  0  0
   20.9104   69.5710   -3.7518 O   0  0  0  0  0  0  0  0  0  0  0  0
   19.2434   71.5901   -3.6082 O   0  0  0  0  0  0  0  0  0  0  0  0
   21.1657   71.2691   -1.8566 O   0  0  0  0  0  0  0  0  0  0  0  0
   21.4368   73.1576   -0.4532 O   0  0  0  0  0  0  0  0  0  0  0  0
   24.5995   70.7744    0.7241 O   0  0  0  0  0  0  0  0  0  0  0  0
   23.9274   71.0519   -2.1053 O   0  0  0  0  0  0  0  0  0  0  0  0
   22.2360   70.9964    2.4021 O   0  0  0  0  0  0  0  0  0  0  0  0
   23.2870   71.0500    0.2347 C   0  0  2  0  0  0  0  0  0  0  0  0
   23.3828   71.8528   -1.0629 C   0  0  2  0  0  0  0  0  0  0  0  0
   22.5427   71.8531    1.3038 C   0  0  1  0  0  0  0  0  0  0  0  0
   22.0068   72.3626   -1.4937 C   0  0  1  0  0  0  0  0  0  0  0  0
   21.2405   72.4329    0.7590 C   0  0  1  0  0  0  0  0  0  0  0  0
   25.0915   70.2646    0.0613 H   0  0  0  0  0  0  0  0  0  0  0  0
   24.8005   70.7248   -1.8386 H   0  0  0  0  0  0  0  0  0  0  0  0
   23.0563   70.6206    2.7580 H   0  0  0  0  0  0  0  0  0  0  0  0
   19.4282   73.8073    1.3317 O   0  0  0  0  0  0  0  0  0  0  0  0
   21.2947   73.9512    2.6334 O   0  0  0  0  0  0  0  0  0  0  0  0
   20.6932   73.4699    1.6849 C   0  0  0  0  0  0  0  0  0  0  0  0
  1  4  1  0
  1 24  1  0
  1  2  1  1
  1  3  2  0
 25 28  1  0
 25 24  1  0
 25 26  1  6
 25 27  2  0
  6 11  1  0
  6 12  1  0
 29 36  1  0
 29 37  1  0
  9  7  1  6
  7 13  1  0
 10  8  1  6
  8 14  1  0
  4  5  1  0
 36 28  1  1
 33 30  1  1
 30 38  1  0
 34 31  1  6
 31 39  1  0
 35 32  1  1
 32 40  1  0
 41 43  1  0
 15 19  2  0
 42 43  2  0
 16 22  2  0
 12 17  1  1
 17 19  1  0
 17 20  1  0
 18 19  1  0
 18 22  1  0
 18 23  1  0
  9 10  1  0
  9 11  1  0
 10 12  1  0
 11  5  1  1
 33 34  1  0
 33 35  1  0
 34 36  1  0
 35 37  1  0
 37 43  1  1
 20 21  2  0
 21 22  1  0
M  CHG  3   2  -1  26  -1  41  -1
M  END
>  <COMPND>  (354) 
    udp_gluA.pdb 

>  <AUTHOR>  (354) 
    GENERATED BY OPEN BABEL 3.1.1

>  <MASTER>  (354) 
        0    0    0    0    0    0    0    0   56    0   56    0

>  <minimizedAffinity>  (354) 
-7.56550

>  <CNNscore>  (354) 
0.5450780988

>  <CNNaffinity>  (354) 
4.4093589783

>  <CNN_VS>  (354) 
2.4034450054

>  <CNNaffinity_variance>  (354) 
0.3341356814

$$$$
355
     RDKit          3D

 43 45  0  0  0  0  0  0  0  0999 V2000
   22.8749   73.5665   -4.6788 P   0  0  2  0  0  0  0  0  0  0  0  0
   24.0265   74.6999   -4.5884 O   0  0  0  0  0  0  0  0  0  0  0  0
   23.0745   72.5452   -5.7599 O   0  0  0  0  0  0  0  0  0  0  0  0
   21.4998   74.4154   -4.7593 O   0  0  0  0  0  0  0  0  0  0  0  0
   20.2910   73.7222   -5.0098 C   0  0  0  0  0  0  0  0  0  0  0  0
   19.3500   72.8867   -7.0578 O   0  0  0  0  0  0  0  0  0  0  0  0
   18.5155   75.7134   -7.6100 O   0  0  0  0  0  0  0  0  0  0  0  0
   16.2043   74.5730   -6.7190 O   0  0  0  0  0  0  0  0  0  0  0  0
   18.5694   75.0136   -6.3667 C   0  0  1  0  0  0  0  0  0  0  0  0
   17.4266   74.0251   -6.2716 C   0  0  2  0  0  0  0  0  0  0  0  0
   19.7835   74.0952   -6.3968 C   0  0  1  0  0  0  0  0  0  0  0  0
   17.9169   72.8904   -7.1548 C   0  0  2  0  0  0  0  0  0  0  0  0
   17.7476   76.3067   -7.6145 H   0  0  0  0  0  0  0  0  0  0  0  0
   15.9347   75.2908   -6.1240 H   0  0  0  0  0  0  0  0  0  0  0  0
   15.5780   71.6776   -8.1723 O   0  0  0  0  0  0  0  0  0  0  0  0
   16.0942   67.9851   -5.4625 O   0  0  0  0  0  0  0  0  0  0  0  0
   17.4171   71.6124   -6.7329 N   0  0  0  0  0  0  0  0  0  0  0  0
   15.8367   69.8402   -6.8210 N   0  0  0  0  0  0  0  0  0  0  0  0
   16.2328   71.0931   -7.3072 C   0  0  0  0  0  0  0  0  0  0  0  0
   18.0981   70.8873   -5.7626 C   0  0  0  0  0  0  0  0  0  0  0  0
   17.7083   69.6943   -5.3093 C   0  0  0  0  0  0  0  0  0  0  0  0
   16.4804   69.0813   -5.8569 C   0  0  0  0  0  0  0  0  0  0  0  0
   15.0139   69.4590   -7.2044 H   0  0  0  0  0  0  0  0  0  0  0  0
   22.8418   72.9625   -3.1798 O   0  0  0  0  0  0  0  0  0  0  0  0
   22.6138   71.4527   -2.6485 P   0  0  2  0  0  0  0  0  0  0  0  0
   24.1216   70.8876   -2.4821 O   0  0  0  0  0  0  0  0  0  0  0  0
   21.7336   70.6158   -3.5309 O   0  0  0  0  0  0  0  0  0  0  0  0
   22.0754   71.6273   -1.1379 O   0  0  0  0  0  0  0  0  0  0  0  0
   23.6491   72.8928    0.0995 O   0  0  0  0  0  0  0  0  0  0  0  0
   20.8013   72.0523    2.9720 O   0  0  0  0  0  0  0  0  0  0  0  0
   21.6410   69.9970    1.0733 O   0  0  0  0  0  0  0  0  0  0  0  0
   20.9478   74.7065    1.7952 O   0  0  0  0  0  0  0  0  0  0  0  0
   21.2846   72.3248    1.6567 C   0  0  2  0  0  0  0  0  0  0  0  0
   22.2923   71.2498    1.2488 C   0  0  2  0  0  0  0  0  0  0  0  0
   21.9527   73.7015    1.6741 C   0  0  1  0  0  0  0  0  0  0  0  0
   23.0007   71.6294   -0.0523 C   0  0  1  0  0  0  0  0  0  0  0  0
   22.7428   73.9536    0.3932 C   0  0  1  0  0  0  0  0  0  0  0  0
   20.3726   71.1821    2.9853 H   0  0  0  0  0  0  0  0  0  0  0  0
   21.1891   69.7500    1.8950 H   0  0  0  0  0  0  0  0  0  0  0  0
   20.4376   74.5574    2.6066 H   0  0  0  0  0  0  0  0  0  0  0  0
   24.9463   74.7499    0.5018 O   0  0  0  0  0  0  0  0  0  0  0  0
   23.2739   76.2869    0.7007 O   0  0  0  0  0  0  0  0  0  0  0  0
   23.6464   75.1329    0.5507 C   0  0  0  0  0  0  0  0  0  0  0  0
  1  4  1  0
  1 24  1  0
  1  2  1  1
  1  3  2  0
 25 28  1  0
 25 24  1  0
 25 26  1  1
 25 27  2  0
  6 11  1  0
  6 12  1  0
 29 36  1  0
 29 37  1  0
  9  7  1  6
  7 13  1  0
 10  8  1  6
  8 14  1  0
  4  5  1  0
 36 28  1  6
 33 30  1  1
 30 38  1  0
 34 31  1  6
 31 39  1  0
 35 32  1  6
 32 40  1  0
 41 43  1  0
 15 19  2  0
 42 43  2  0
 16 22  2  0
 12 17  1  1
 17 19  1  0
 17 20  1  0
 18 19  1  0
 18 22  1  0
 18 23  1  0
  9 10  1  0
  9 11  1  0
 10 12  1  0
 11  5  1  1
 33 34  1  0
 33 35  1  0
 34 36  1  0
 35 37  1  0
 37 43  1  1
 20 21  2  0
 21 22  1  0
M  CHG  3   2  -1  26  -1  41  -1
M  END
>  <COMPND>  (355) 
    udp_gluA.pdb 

>  <AUTHOR>  (355) 
    GENERATED BY OPEN BABEL 3.1.1

>  <MASTER>  (355) 
        0    0    0    0    0    0    0    0   56    0   56    0

>  <minimizedAffinity>  (355) 
-7.06898

>  <CNNscore>  (355) 
0.5332412720

>  <CNNaffinity>  (355) 
4.1674957275

>  <CNN_VS>  (355) 
2.2222807407

>  <CNNaffinity_variance>  (355) 
0.2130711377

$$$$
356
     RDKit          3D

 43 45  0  0  0  0  0  0  0  0999 V2000
   16.7416   71.1396   -6.5782 P   0  0  2  0  0  0  0  0  0  0  0  0
   15.5539   72.2351   -6.6668 O   0  0  0  0  0  0  0  0  0  0  0  0
   17.0259   70.4084   -7.8574 O   0  0  0  0  0  0  0  0  0  0  0  0
   16.3238   70.2146   -5.3181 O   0  0  0  0  0  0  0  0  0  0  0  0
   17.3449   69.5389   -4.6073 C   0  0  0  0  0  0  0  0  0  0  0  0
   18.2754   69.3487   -2.3992 O   0  0  0  0  0  0  0  0  0  0  0  0
   15.8730   70.8758   -1.4570 O   0  0  0  0  0  0  0  0  0  0  0  0
   17.8112   72.7930   -1.5187 O   0  0  0  0  0  0  0  0  0  0  0  0
   16.6147   71.0161   -2.6689 C   0  0  1  0  0  0  0  0  0  0  0  0
   17.9407   71.6942   -2.3964 C   0  0  2  0  0  0  0  0  0  0  0  0
   17.0526   69.6277   -3.1149 C   0  0  1  0  0  0  0  0  0  0  0  0
   18.7574   70.5613   -1.7986 C   0  0  2  0  0  0  0  0  0  0  0  0
   15.5824   71.7502   -1.1524 H   0  0  0  0  0  0  0  0  0  0  0  0
   17.2837   73.4871   -1.9452 H   0  0  0  0  0  0  0  0  0  0  0  0
   20.7500   70.8500    0.1819 O   0  0  0  0  0  0  0  0  0  0  0  0
   24.1084   71.0580   -2.9680 O   0  0  0  0  0  0  0  0  0  0  0  0
   20.1602   70.6928   -2.0733 N   0  0  0  0  0  0  0  0  0  0  0  0
   22.4206   70.9543   -1.3888 N   0  0  0  0  0  0  0  0  0  0  0  0
   21.0784   70.8327   -1.0058 C   0  0  0  0  0  0  0  0  0  0  0  0
   20.6140   70.6809   -3.3867 C   0  0  0  0  0  0  0  0  0  0  0  0
   21.8965   70.7977   -3.7361 C   0  0  0  0  0  0  0  0  0  0  0  0
   22.9201   70.9487   -2.6812 C   0  0  0  0  0  0  0  0  0  0  0  0
   23.0783   71.0549   -0.6631 H   0  0  0  0  0  0  0  0  0  0  0  0
   17.9847   71.9977   -6.0026 O   0  0  0  0  0  0  0  0  0  0  0  0
   18.1921   73.5937   -5.8493 P   0  0  2  0  0  0  0  0  0  0  0  0
   17.4074   73.9385   -4.4761 O   0  0  0  0  0  0  0  0  0  0  0  0
   17.7382   74.3906   -7.0378 O   0  0  0  0  0  0  0  0  0  0  0  0
   19.7529   73.7700   -5.4815 O   0  0  0  0  0  0  0  0  0  0  0  0
   20.8653   75.2057   -3.9615 O   0  0  0  0  0  0  0  0  0  0  0  0
   23.5880   74.9914   -7.0613 O   0  0  0  0  0  0  0  0  0  0  0  0
   20.7323   75.2623   -7.6146 O   0  0  0  0  0  0  0  0  0  0  0  0
   24.0562   73.5120   -4.6031 O   0  0  0  0  0  0  0  0  0  0  0  0
   22.5551   74.5148   -6.1988 C   0  0  2  0  0  0  0  0  0  0  0  0
   21.3244   75.4124   -6.3295 C   0  0  2  0  0  0  0  0  0  0  0  0
   23.0859   74.5450   -4.7638 C   0  0  1  0  0  0  0  0  0  0  0  0
   20.2849   75.0749   -5.2597 C   0  0  1  0  0  0  0  0  0  0  0  0
   21.9662   74.3244   -3.7508 C   0  0  1  0  0  0  0  0  0  0  0  0
   23.2734   74.9813   -7.9791 H   0  0  0  0  0  0  0  0  0  0  0  0
   21.3864   75.4746   -8.2983 H   0  0  0  0  0  0  0  0  0  0  0  0
   24.7744   73.6407   -5.2422 H   0  0  0  0  0  0  0  0  0  0  0  0
   23.3787   75.6373   -2.4156 O   0  0  0  0  0  0  0  0  0  0  0  0
   21.9916   74.1800   -1.3425 O   0  0  0  0  0  0  0  0  0  0  0  0
   22.4206   74.6786   -2.3723 C   0  0  0  0  0  0  0  0  0  0  0  0
  1  4  1  0
  1 24  1  0
  1  2  1  6
  1  3  2  0
 25 28  1  0
 25 24  1  0
 25 26  1  1
 25 27  2  0
  6 11  1  0
  6 12  1  0
 29 36  1  0
 29 37  1  0
  9  7  1  1
  7 13  1  0
 10  8  1  1
  8 14  1  0
  4  5  1  0
 36 28  1  6
 33 30  1  6
 30 38  1  0
 34 31  1  6
 31 39  1  0
 35 32  1  6
 32 40  1  0
 41 43  1  0
 15 19  2  0
 42 43  2  0
 16 22  2  0
 12 17  1  6
 17 19  1  0
 17 20  1  0
 18 19  1  0
 18 22  1  0
 18 23  1  0
  9 10  1  0
  9 11  1  0
 10 12  1  0
 11  5  1  6
 33 34  1  0
 33 35  1  0
 34 36  1  0
 35 37  1  0
 37 43  1  1
 20 21  2  0
 21 22  1  0
M  CHG  3   2  -1  26  -1  41  -1
M  END
>  <COMPND>  (356) 
    udp_gluA.pdb 

>  <AUTHOR>  (356) 
    GENERATED BY OPEN BABEL 3.1.1

>  <MASTER>  (356) 
        0    0    0    0    0    0    0    0   56    0   56    0

>  <minimizedAffinity>  (356) 
-5.75023

>  <CNNscore>  (356) 
0.5071671009

>  <CNNaffinity>  (356) 
3.7643494606

>  <CNN_VS>  (356) 
1.9091541767

>  <CNNaffinity_variance>  (356) 
0.8749307394

$$$$
357
     RDKit          3D

 43 45  0  0  0  0  0  0  0  0999 V2000
   22.1740   72.8065   -1.8575 P   0  0  2  0  0  0  0  0  0  0  0  0
   20.6848   72.9984   -1.2539 O   0  0  0  0  0  0  0  0  0  0  0  0
   23.0305   74.0384   -1.8346 O   0  0  0  0  0  0  0  0  0  0  0  0
   21.9208   72.1537   -3.3162 O   0  0  0  0  0  0  0  0  0  0  0  0
   21.3434   72.9600   -4.3267 C   0  0  0  0  0  0  0  0  0  0  0  0
   20.6502   70.9354   -5.4212 O   0  0  0  0  0  0  0  0  0  0  0  0
   21.0770   72.4037   -8.0006 O   0  0  0  0  0  0  0  0  0  0  0  0
   18.3703   72.5192   -7.6901 O   0  0  0  0  0  0  0  0  0  0  0  0
   20.5829   72.8927   -6.7535 C   0  0  1  0  0  0  0  0  0  0  0  0
   19.1648   72.4131   -6.5273 C   0  0  2  0  0  0  0  0  0  0  0  0
   21.3403   72.1852   -5.6382 C   0  0  1  0  0  0  0  0  0  0  0  0
   19.3838   70.9723   -6.0981 C   0  0  2  0  0  0  0  0  0  0  0  0
   20.6079   72.8413   -8.7286 H   0  0  0  0  0  0  0  0  0  0  0  0
   18.2600   73.4551   -7.9220 H   0  0  0  0  0  0  0  0  0  0  0  0
   16.9157   69.8782   -6.9276 O   0  0  0  0  0  0  0  0  0  0  0  0
   15.5403   69.2146   -2.5788 O   0  0  0  0  0  0  0  0  0  0  0  0
   18.3624   70.5057   -5.2037 N   0  0  0  0  0  0  0  0  0  0  0  0
   16.2326   69.5497   -4.7608 N   0  0  0  0  0  0  0  0  0  0  0  0
   17.1586   69.9735   -5.7231 C   0  0  0  0  0  0  0  0  0  0  0  0
   18.5586   70.5759   -3.8298 C   0  0  0  0  0  0  0  0  0  0  0  0
   17.6667   70.1678   -2.9250 C   0  0  0  0  0  0  0  0  0  0  0  0
   16.3822   69.5998   -3.3844 C   0  0  0  0  0  0  0  0  0  0  0  0
   15.3860   69.1774   -5.0984 H   0  0  0  0  0  0  0  0  0  0  0  0
   22.7559   71.5657   -1.0002 O   0  0  0  0  0  0  0  0  0  0  0  0
   22.4447   71.0806    0.5102 P   0  0  2  0  0  0  0  0  0  0  0  0
   23.7309   70.1692    0.8783 O   0  0  0  0  0  0  0  0  0  0  0  0
   21.1254   70.3829    0.6735 O   0  0  0  0  0  0  0  0  0  0  0  0
   22.6157   72.4085    1.4101 O   0  0  0  0  0  0  0  0  0  0  0  0
   24.0213   72.9046    3.2506 O   0  0  0  0  0  0  0  0  0  0  0  0
   20.5854   74.9772    4.2341 O   0  0  0  0  0  0  0  0  0  0  0  0
   20.4208   72.2841    3.1139 O   0  0  0  0  0  0  0  0  0  0  0  0
   22.9127   76.4021    3.2319 O   0  0  0  0  0  0  0  0  0  0  0  0
   21.5606   74.4119    3.3580 C   0  0  2  0  0  0  0  0  0  0  0  0
   21.6212   72.8987    3.5680 C   0  0  2  0  0  0  0  0  0  0  0  0
   22.9137   75.0489    3.6826 C   0  0  1  0  0  0  0  0  0  0  0  0
   22.8070   72.2895    2.8186 C   0  0  1  0  0  0  0  0  0  0  0  0
   24.0574   74.3072    2.9968 C   0  0  1  0  0  0  0  0  0  0  0  0
   19.7171   74.5873    4.0463 H   0  0  0  0  0  0  0  0  0  0  0  0
   19.6642   72.6662    3.5851 H   0  0  0  0  0  0  0  0  0  0  0  0
   22.1892   76.8853    3.6608 H   0  0  0  0  0  0  0  0  0  0  0  0
   26.3643   73.9032    3.1263 O   0  0  0  0  0  0  0  0  0  0  0  0
   25.5464   75.6582    4.3306 O   0  0  0  0  0  0  0  0  0  0  0  0
   25.3749   74.7179    3.5694 C   0  0  0  0  0  0  0  0  0  0  0  0
  1  4  1  0
  1 24  1  0
  1  2  1  1
  1  3  2  0
 25 28  1  0
 25 24  1  0
 25 26  1  1
 25 27  2  0
  6 11  1  0
  6 12  1  0
 29 36  1  0
 29 37  1  0
  9  7  1  6
  7 13  1  0
 10  8  1  6
  8 14  1  0
  4  5  1  0
 36 28  1  6
 33 30  1  1
 30 38  1  0
 34 31  1  6
 31 39  1  0
 35 32  1  6
 32 40  1  0
 41 43  1  0
 15 19  2  0
 42 43  2  0
 16 22  2  0
 12 17  1  1
 17 19  1  0
 17 20  1  0
 18 19  1  0
 18 22  1  0
 18 23  1  0
  9 10  1  0
  9 11  1  0
 10 12  1  0
 11  5  1  1
 33 34  1  0
 33 35  1  0
 34 36  1  0
 35 37  1  0
 37 43  1  1
 20 21  2  0
 21 22  1  0
M  CHG  3   2  -1  26  -1  41  -1
M  END
>  <COMPND>  (357) 
    udp_gluA.pdb 

>  <AUTHOR>  (357) 
    GENERATED BY OPEN BABEL 3.1.1

>  <MASTER>  (357) 
        0    0    0    0    0    0    0    0   56    0   56    0

>  <minimizedAffinity>  (357) 
-6.74636

>  <CNNscore>  (357) 
0.4952845871

>  <CNNaffinity>  (357) 
4.1029024124

>  <CNN_VS>  (357) 
2.0321042538

>  <CNNaffinity_variance>  (357) 
0.1453235596

$$$$
358
     RDKit          3D

 43 45  0  0  0  0  0  0  0  0999 V2000
   19.1552   76.1274   -5.7347 P   0  0  2  0  0  0  0  0  0  0  0  0
   18.2388   75.8265   -7.0341 O   0  0  0  0  0  0  0  0  0  0  0  0
   18.9557   77.4810   -5.1183 O   0  0  0  0  0  0  0  0  0  0  0  0
   20.6583   75.7976   -6.2345 O   0  0  0  0  0  0  0  0  0  0  0  0
   21.6505   75.5275   -5.2613 C   0  0  0  0  0  0  0  0  0  0  0  0
   23.1992   73.7596   -4.7578 O   0  0  0  0  0  0  0  0  0  0  0  0
   23.0797   73.0761   -7.6750 O   0  0  0  0  0  0  0  0  0  0  0  0
   21.4311   71.2130   -6.5584 O   0  0  0  0  0  0  0  0  0  0  0  0
   22.0439   73.5519   -6.8152 C   0  0  1  0  0  0  0  0  0  0  0  0
   21.5831   72.4469   -5.8884 C   0  0  2  0  0  0  0  0  0  0  0  0
   22.6612   74.5471   -5.8421 C   0  0  1  0  0  0  0  0  0  0  0  0
   22.6959   72.4177   -4.8546 C   0  0  2  0  0  0  0  0  0  0  0  0
   22.7094   72.4385   -8.3058 H   0  0  0  0  0  0  0  0  0  0  0  0
   20.7109   71.2829   -7.2053 H   0  0  0  0  0  0  0  0  0  0  0  0
   24.1946   70.8347   -3.0591 O   0  0  0  0  0  0  0  0  0  0  0  0
   20.8170   70.8694    0.0769 O   0  0  0  0  0  0  0  0  0  0  0  0
   22.2323   71.9985   -3.5622 N   0  0  0  0  0  0  0  0  0  0  0  0
   22.5105   70.8526   -1.4993 N   0  0  0  0  0  0  0  0  0  0  0  0
   23.0638   71.2044   -2.7375 C   0  0  0  0  0  0  0  0  0  0  0  0
   20.9688   72.3748   -3.1230 C   0  0  0  0  0  0  0  0  0  0  0  0
   20.4552   72.0318   -1.9400 C   0  0  0  0  0  0  0  0  0  0  0  0
   21.2590   71.2020   -1.0186 C   0  0  0  0  0  0  0  0  0  0  0  0
   23.0699   70.2981   -0.9086 H   0  0  0  0  0  0  0  0  0  0  0  0
   18.8168   74.8857   -4.7566 O   0  0  0  0  0  0  0  0  0  0  0  0
   17.4024   74.2833   -4.2565 P   0  0  2  0  0  0  0  0  0  0  0  0
   16.3656   75.4953   -4.5331 O   0  0  0  0  0  0  0  0  0  0  0  0
   17.4106   73.7878   -2.8393 O   0  0  0  0  0  0  0  0  0  0  0  0
   17.0229   73.1643   -5.3548 O   0  0  0  0  0  0  0  0  0  0  0  0
   18.4269   71.2594   -5.2587 O   0  0  0  0  0  0  0  0  0  0  0  0
   16.2341   70.5158   -8.6802 O   0  0  0  0  0  0  0  0  0  0  0  0
   17.2507   73.1980   -8.1266 O   0  0  0  0  0  0  0  0  0  0  0  0
   15.6374   69.0800   -6.2239 O   0  0  0  0  0  0  0  0  0  0  0  0
   16.4695   71.0295   -7.3693 C   0  0  2  0  0  0  0  0  0  0  0  0
   17.6273   72.0272   -7.4109 C   0  0  2  0  0  0  0  0  0  0  0  0
   16.8144   69.8520   -6.4547 C   0  0  1  0  0  0  0  0  0  0  0  0
   18.0586   72.4241   -5.9984 C   0  0  1  0  0  0  0  0  0  0  0  0
   17.3553   70.3304   -5.1105 C   0  0  1  0  0  0  0  0  0  0  0  0
   16.0131   71.2464   -9.2791 H   0  0  0  0  0  0  0  0  0  0  0  0
   16.9756   72.9536   -9.0238 H   0  0  0  0  0  0  0  0  0  0  0  0
   15.2829   68.7695   -7.0717 H   0  0  0  0  0  0  0  0  0  0  0  0
   19.2805   69.4928   -4.0647 O   0  0  0  0  0  0  0  0  0  0  0  0
   17.4290   68.1620   -4.0551 O   0  0  0  0  0  0  0  0  0  0  0  0
   17.9896   69.2033   -4.3624 C   0  0  0  0  0  0  0  0  0  0  0  0
  1  4  1  0
  1 24  1  0
  1  2  1  6
  1  3  2  0
 25 28  1  0
 25 24  1  0
 25 26  1  1
 25 27  2  0
  6 11  1  0
  6 12  1  0
 29 36  1  0
 29 37  1  0
  9  7  1  6
  7 13  1  0
 10  8  1  6
  8 14  1  0
  4  5  1  0
 36 28  1  1
 33 30  1  6
 30 38  1  0
 34 31  1  6
 31 39  1  0
 35 32  1  1
 32 40  1  0
 41 43  1  0
 15 19  2  0
 42 43  2  0
 16 22  2  0
 12 17  1  1
 17 19  1  0
 17 20  1  0
 18 19  1  0
 18 22  1  0
 18 23  1  0
  9 10  1  0
  9 11  1  0
 10 12  1  0
 11  5  1  1
 33 34  1  0
 33 35  1  0
 34 36  1  0
 35 37  1  0
 37 43  1  1
 20 21  2  0
 21 22  1  0
M  CHG  3   2  -1  26  -1  41  -1
M  END
>  <COMPND>  (358) 
    udp_gluA.pdb 

>  <AUTHOR>  (358) 
    GENERATED BY OPEN BABEL 3.1.1

>  <MASTER>  (358) 
        0    0    0    0    0    0    0    0   56    0   56    0

>  <minimizedAffinity>  (358) 
-6.65868

>  <CNNscore>  (358) 
0.4688150585

>  <CNNaffinity>  (358) 
3.8095951080

>  <CNN_VS>  (358) 
1.7859956026

>  <CNNaffinity_variance>  (358) 
1.0581424236

$$$$
359
     RDKit          3D

 43 45  0  0  0  0  0  0  0  0999 V2000
   17.0580   69.9380   -6.2971 P   0  0  2  0  0  0  0  0  0  0  0  0
   15.9383   68.7836   -6.1173 O   0  0  0  0  0  0  0  0  0  0  0  0
   17.8690   69.8434   -7.5561 O   0  0  0  0  0  0  0  0  0  0  0  0
   17.8974   69.8838   -4.9149 O   0  0  0  0  0  0  0  0  0  0  0  0
   17.5951   68.8646   -3.9798 C   0  0  0  0  0  0  0  0  0  0  0  0
   18.4660   69.5408   -1.8439 O   0  0  0  0  0  0  0  0  0  0  0  0
   16.0238   71.2639   -1.6023 O   0  0  0  0  0  0  0  0  0  0  0  0
   17.9444   73.0528   -2.3419 O   0  0  0  0  0  0  0  0  0  0  0  0
   16.7974   70.9502   -2.7607 C   0  0  1  0  0  0  0  0  0  0  0  0
   18.1087   71.7066   -2.7358 C   0  0  2  0  0  0  0  0  0  0  0  0
   17.2608   69.5050   -2.6388 C   0  0  1  0  0  0  0  0  0  0  0  0
   18.9194   70.8995   -1.7361 C   0  0  2  0  0  0  0  0  0  0  0  0
   15.7165   72.1827   -1.6575 H   0  0  0  0  0  0  0  0  0  0  0  0
   17.4223   73.5240   -3.0107 H   0  0  0  0  0  0  0  0  0  0  0  0
   20.9316   70.8026    0.2433 O   0  0  0  0  0  0  0  0  0  0  0  0
   24.2917   71.0803   -2.8993 O   0  0  0  0  0  0  0  0  0  0  0  0
   20.3280   70.9447   -2.0092 N   0  0  0  0  0  0  0  0  0  0  0  0
   22.6032   70.9420   -1.3237 N   0  0  0  0  0  0  0  0  0  0  0  0
   21.2560   70.8897   -0.9424 C   0  0  0  0  0  0  0  0  0  0  0  0
   20.7775   71.0408   -3.3206 C   0  0  0  0  0  0  0  0  0  0  0  0
   22.0649   71.0895   -3.6684 C   0  0  0  0  0  0  0  0  0  0  0  0
   23.0988   71.0382   -2.6139 C   0  0  0  0  0  0  0  0  0  0  0  0
   23.2678   70.9073   -0.5982 H   0  0  0  0  0  0  0  0  0  0  0  0
   16.2014   71.3007   -6.1488 O   0  0  0  0  0  0  0  0  0  0  0  0
   16.0230   72.5567   -7.1510 P   0  0  2  0  0  0  0  0  0  0  0  0
   15.0372   73.5459   -6.3324 O   0  0  0  0  0  0  0  0  0  0  0  0
   15.5305   72.1869   -8.5201 O   0  0  0  0  0  0  0  0  0  0  0  0
   17.4540   73.3013   -7.1327 O   0  0  0  0  0  0  0  0  0  0  0  0
   19.4807   72.6482   -6.0959 O   0  0  0  0  0  0  0  0  0  0  0  0
   19.7291   76.7678   -5.9070 O   0  0  0  0  0  0  0  0  0  0  0  0
   17.2075   75.4085   -5.3341 O   0  0  0  0  0  0  0  0  0  0  0  0
   21.3063   75.2988   -7.8577 O   0  0  0  0  0  0  0  0  0  0  0  0
   19.3515   75.5093   -6.4651 C   0  0  2  0  0  0  0  0  0  0  0  0
   18.4640   74.7556   -5.4742 C   0  0  2  0  0  0  0  0  0  0  0  0
   20.6286   74.7146   -6.7469 C   0  0  1  0  0  0  0  0  0  0  0  0
   18.2289   73.3165   -5.9352 C   0  0  1  0  0  0  0  0  0  0  0  0
   20.3169   73.2577   -7.0769 C   0  0  1  0  0  0  0  0  0  0  0  0
   18.9335   77.2904   -5.7196 H   0  0  0  0  0  0  0  0  0  0  0  0
   17.3492   76.3223   -5.0420 H   0  0  0  0  0  0  0  0  0  0  0  0
   21.5104   76.2263   -7.6606 H   0  0  0  0  0  0  0  0  0  0  0  0
   21.2633   71.1171   -7.2303 O   0  0  0  0  0  0  0  0  0  0  0  0
   22.6829   72.8556   -6.8286 O   0  0  0  0  0  0  0  0  0  0  0  0
   21.5564   72.4252   -7.0253 C   0  0  0  0  0  0  0  0  0  0  0  0
  1  4  1  0
  1 24  1  0
  1  2  1  1
  1  3  2  0
 25 28  1  0
 25 24  1  0
 25 26  1  1
 25 27  2  0
  6 11  1  0
  6 12  1  0
 29 36  1  0
 29 37  1  0
  9  7  1  1
  7 13  1  0
 10  8  1  1
  8 14  1  0
  4  5  1  0
 36 28  1  6
 33 30  1  1
 30 38  1  0
 34 31  1  6
 31 39  1  0
 35 32  1  6
 32 40  1  0
 41 43  1  0
 15 19  2  0
 42 43  2  0
 16 22  2  0
 12 17  1  6
 17 19  1  0
 17 20  1  0
 18 19  1  0
 18 22  1  0
 18 23  1  0
  9 10  1  0
  9 11  1  0
 10 12  1  0
 11  5  1  6
 33 34  1  0
 33 35  1  0
 34 36  1  0
 35 37  1  0
 37 43  1  1
 20 21  2  0
 21 22  1  0
M  CHG  3   2  -1  26  -1  41  -1
M  END
>  <COMPND>  (359) 
    udp_gluA.pdb 

>  <AUTHOR>  (359) 
    GENERATED BY OPEN BABEL 3.1.1

>  <MASTER>  (359) 
        0    0    0    0    0    0    0    0   56    0   56    0

>  <minimizedAffinity>  (359) 
-6.39074

>  <CNNscore>  (359) 
0.4505838454

>  <CNNaffinity>  (359) 
3.8763763905

>  <CNN_VS>  (359) 
1.7466325760

>  <CNNaffinity_variance>  (359) 
0.5743204355

$$$$
360
     RDKit          3D

 43 45  0  0  0  0  0  0  0  0999 V2000
   19.7162   73.8974   -3.1407 P   0  0  2  0  0  0  0  0  0  0  0  0
   18.7721   74.9986   -3.8583 O   0  0  0  0  0  0  0  0  0  0  0  0
   18.9992   72.9468   -2.2274 O   0  0  0  0  0  0  0  0  0  0  0  0
   20.8897   74.7775   -2.4578 O   0  0  0  0  0  0  0  0  0  0  0  0
   21.3846   75.9040   -3.1582 C   0  0  0  0  0  0  0  0  0  0  0  0
   23.2767   75.2797   -1.8136 O   0  0  0  0  0  0  0  0  0  0  0  0
   24.9259   75.6605   -4.2887 O   0  0  0  0  0  0  0  0  0  0  0  0
   24.6394   72.9511   -4.1747 O   0  0  0  0  0  0  0  0  0  0  0  0
   23.5995   75.1490   -4.1565 C   0  0  1  0  0  0  0  0  0  0  0  0
   23.6329   73.7473   -3.5852 C   0  0  2  0  0  0  0  0  0  0  0  0
   22.9038   75.9281   -3.0488 C   0  0  1  0  0  0  0  0  0  0  0  0
   23.8864   74.0135   -2.1111 C   0  0  2  0  0  0  0  0  0  0  0  0
   25.3905   75.1780   -4.9909 H   0  0  0  0  0  0  0  0  0  0  0  0
   24.4322   72.8100   -5.1124 H   0  0  0  0  0  0  0  0  0  0  0  0
   24.2876   73.8542    0.6799 O   0  0  0  0  0  0  0  0  0  0  0  0
   21.6231   70.1099    1.0332 O   0  0  0  0  0  0  0  0  0  0  0  0
   23.3094   73.0072   -1.2654 N   0  0  0  0  0  0  0  0  0  0  0  0
   22.9610   71.9889    0.8531 N   0  0  0  0  0  0  0  0  0  0  0  0
   23.5742   73.0166    0.1246 C   0  0  0  0  0  0  0  0  0  0  0  0
   22.4908   72.0269   -1.8130 C   0  0  0  0  0  0  0  0  0  0  0  0
   21.9132   71.0538   -1.1057 C   0  0  0  0  0  0  0  0  0  0  0  0
   22.1395   70.9914    0.3531 C   0  0  0  0  0  0  0  0  0  0  0  0
   23.1322   71.9735    1.8225 H   0  0  0  0  0  0  0  0  0  0  0  0
   20.4674   73.1954   -4.3879 O   0  0  0  0  0  0  0  0  0  0  0  0
   20.3829   73.4833   -5.9765 P   0  0  2  0  0  0  0  0  0  0  0  0
   21.7741   72.8747   -6.5373 O   0  0  0  0  0  0  0  0  0  0  0  0
   20.1512   74.9240   -6.3298 O   0  0  0  0  0  0  0  0  0  0  0  0
   19.2487   72.4709   -6.5162 O   0  0  0  0  0  0  0  0  0  0  0  0
   18.7746   70.2385   -5.8832 O   0  0  0  0  0  0  0  0  0  0  0  0
   17.7365   70.2171   -9.8820 O   0  0  0  0  0  0  0  0  0  0  0  0
   20.1605   71.5810   -8.9886 O   0  0  0  0  0  0  0  0  0  0  0  0
   15.6700   70.2798   -7.8383 O   0  0  0  0  0  0  0  0  0  0  0  0
   17.9055   70.7835   -8.5825 C   0  0  2  0  0  0  0  0  0  0  0  0
   19.3786   70.7098   -8.1798 C   0  0  2  0  0  0  0  0  0  0  0  0
   17.0451   69.9831   -7.6022 C   0  0  1  0  0  0  0  0  0  0  0  0
   19.5640   71.0935   -6.7110 C   0  0  1  0  0  0  0  0  0  0  0  0
   17.3780   70.3330   -6.1547 C   0  0  1  0  0  0  0  0  0  0  0  0
   18.2742   70.7096  -10.5220 H   0  0  0  0  0  0  0  0  0  0  0  0
   20.0474   71.3435   -9.9219 H   0  0  0  0  0  0  0  0  0  0  0  0
   15.4452   70.0618   -8.7563 H   0  0  0  0  0  0  0  0  0  0  0  0
   17.1423   69.6044   -3.9377 O   0  0  0  0  0  0  0  0  0  0  0  0
   16.0746   68.3951   -5.5490 O   0  0  0  0  0  0  0  0  0  0  0  0
   16.7855   69.3318   -5.2172 C   0  0  0  0  0  0  0  0  0  0  0  0
  1  4  1  0
  1 24  1  0
  1  2  1  6
  1  3  2  0
 25 28  1  0
 25 24  1  0
 25 26  1  6
 25 27  2  0
  6 11  1  0
  6 12  1  0
 29 36  1  0
 29 37  1  0
  9  7  1  1
  7 13  1  0
 10  8  1  6
  8 14  1  0
  4  5  1  0
 36 28  1  6
 33 30  1  6
 30 38  1  0
 34 31  1  6
 31 39  1  0
 35 32  1  6
 32 40  1  0
 41 43  1  0
 15 19  2  0
 42 43  2  0
 16 22  2  0
 12 17  1  1
 17 19  1  0
 17 20  1  0
 18 19  1  0
 18 22  1  0
 18 23  1  0
  9 10  1  0
  9 11  1  0
 10 12  1  0
 11  5  1  6
 33 34  1  0
 33 35  1  0
 34 36  1  0
 35 37  1  0
 37 43  1  1
 20 21  2  0
 21 22  1  0
M  CHG  3   2  -1  26  -1  41  -1
M  END
>  <COMPND>  (360) 
    udp_gluA.pdb 

>  <AUTHOR>  (360) 
    GENERATED BY OPEN BABEL 3.1.1

>  <MASTER>  (360) 
        0    0    0    0    0    0    0    0   56    0   56    0

>  <minimizedAffinity>  (360) 
-7.26789

>  <CNNscore>  (360) 
0.4503470957

>  <CNNaffinity>  (360) 
4.0929880142

>  <CNN_VS>  (360) 
1.8432652950

>  <CNNaffinity_variance>  (360) 
0.3563116193

$$$$
361
     RDKit          3D

 43 45  0  0  0  0  0  0  0  0999 V2000
   20.8543   72.0054   -2.0303 P   0  0  2  0  0  0  0  0  0  0  0  0
   21.9397   71.7711   -0.8531 O   0  0  0  0  0  0  0  0  0  0  0  0
   19.9122   73.1513   -1.8044 O   0  0  0  0  0  0  0  0  0  0  0  0
   20.1636   70.5541   -2.2165 O   0  0  0  0  0  0  0  0  0  0  0  0
   19.5960   70.2316   -3.4728 C   0  0  0  0  0  0  0  0  0  0  0  0
   17.9278   71.4264   -4.7247 O   0  0  0  0  0  0  0  0  0  0  0  0
   15.9063   70.0441   -2.9941 O   0  0  0  0  0  0  0  0  0  0  0  0
   15.8125   68.5890   -5.2984 O   0  0  0  0  0  0  0  0  0  0  0  0
   17.1447   69.5518   -3.5066 C   0  0  1  0  0  0  0  0  0  0  0  0
   17.0185   69.2542   -4.9857 C   0  0  2  0  0  0  0  0  0  0  0  0
   18.1463   70.6985   -3.4967 C   0  0  1  0  0  0  0  0  0  0  0  0
   17.0948   70.6438   -5.5947 C   0  0  2  0  0  0  0  0  0  0  0  0
   15.2503   69.3291   -2.9907 H   0  0  0  0  0  0  0  0  0  0  0  0
   15.8127   67.7094   -4.8882 H   0  0  0  0  0  0  0  0  0  0  0  0
   15.6217   70.2982   -7.9795 O   0  0  0  0  0  0  0  0  0  0  0  0
   19.4107   70.6274  -10.5831 O   0  0  0  0  0  0  0  0  0  0  0  0
   17.6711   70.6351   -6.9095 N   0  0  0  0  0  0  0  0  0  0  0  0
   17.5104   70.4615   -9.2739 N   0  0  0  0  0  0  0  0  0  0  0  0
   16.8427   70.4538   -8.0422 C   0  0  0  0  0  0  0  0  0  0  0  0
   19.0410   70.8062   -7.0674 C   0  0  0  0  0  0  0  0  0  0  0  0
   19.6631   70.8113   -8.2480 C   0  0  0  0  0  0  0  0  0  0  0  0
   18.8702   70.6274   -9.4812 C   0  0  0  0  0  0  0  0  0  0  0  0
   16.9548   70.3351  -10.0768 H   0  0  0  0  0  0  0  0  0  0  0  0
   21.7756   72.1416   -3.3515 O   0  0  0  0  0  0  0  0  0  0  0  0
   23.3819   72.2047   -3.5235 P   0  0  2  0  0  0  0  0  0  0  0  0
   23.5719   72.5819   -5.0862 O   0  0  0  0  0  0  0  0  0  0  0  0
   24.0964   70.9549   -3.0977 O   0  0  0  0  0  0  0  0  0  0  0  0
   23.8269   73.5349   -2.7266 O   0  0  0  0  0  0  0  0  0  0  0  0
   22.4617   75.3446   -2.0408 O   0  0  0  0  0  0  0  0  0  0  0  0
   26.1148   77.2003   -2.5690 O   0  0  0  0  0  0  0  0  0  0  0  0
   25.1721   75.2123   -4.4909 O   0  0  0  0  0  0  0  0  0  0  0  0
   25.1418   76.6298    0.1103 O   0  0  0  0  0  0  0  0  0  0  0  0
   25.2346   76.1246   -2.2436 C   0  0  2  0  0  0  0  0  0  0  0  0
   24.3738   75.7819   -3.4598 C   0  0  2  0  0  0  0  0  0  0  0  0
   24.3522   76.5721   -1.0761 C   0  0  1  0  0  0  0  0  0  0  0  0
   23.2659   74.7963   -3.0858 C   0  0  1  0  0  0  0  0  0  0  0  0
   23.1974   75.6014   -0.8467 C   0  0  1  0  0  0  0  0  0  0  0  0
   26.6855   76.9389   -3.3088 H   0  0  0  0  0  0  0  0  0  0  0  0
   25.8773   75.8323   -4.7330 H   0  0  0  0  0  0  0  0  0  0  0  0
   25.8806   77.2442   -0.0225 H   0  0  0  0  0  0  0  0  0  0  0  0
   22.3428   77.5445    0.1513 O   0  0  0  0  0  0  0  0  0  0  0  0
   21.2923   75.5791    0.6337 O   0  0  0  0  0  0  0  0  0  0  0  0
   22.1707   76.2027    0.0571 C   0  0  0  0  0  0  0  0  0  0  0  0
  1  4  1  0
  1 24  1  0
  1  2  1  1
  1  3  2  0
 25 28  1  0
 25 24  1  0
 25 26  1  6
 25 27  2  0
  6 11  1  0
  6 12  1  0
 29 36  1  0
 29 37  1  0
  9  7  1  6
  7 13  1  0
 10  8  1  1
  8 14  1  0
  4  5  1  0
 36 28  1  1
 33 30  1  6
 30 38  1  0
 34 31  1  6
 31 39  1  0
 35 32  1  1
 32 40  1  0
 41 43  1  0
 15 19  2  0
 42 43  2  0
 16 22  2  0
 12 17  1  6
 17 19  1  0
 17 20  1  0
 18 19  1  0
 18 22  1  0
 18 23  1  0
  9 10  1  0
  9 11  1  0
 10 12  1  0
 11  5  1  6
 33 34  1  0
 33 35  1  0
 34 36  1  0
 35 37  1  0
 37 43  1  1
 20 21  2  0
 21 22  1  0
M  CHG  3   2  -1  26  -1  41  -1
M  END
>  <COMPND>  (361) 
    udp_gluA.pdb 

>  <AUTHOR>  (361) 
    GENERATED BY OPEN BABEL 3.1.1

>  <MASTER>  (361) 
        0    0    0    0    0    0    0    0   56    0   56    0

>  <minimizedAffinity>  (361) 
-6.99434

>  <CNNscore>  (361) 
0.9379625916

>  <CNNaffinity>  (361) 
4.9193954468

>  <CNN_VS>  (361) 
4.6142086983

>  <CNNaffinity_variance>  (361) 
0.0979313999

$$$$
362
     RDKit          3D

 43 45  0  0  0  0  0  0  0  0999 V2000
   22.7888   71.6068   -2.7175 P   0  0  2  0  0  0  0  0  0  0  0  0
   22.8613   73.2143   -2.5457 O   0  0  0  0  0  0  0  0  0  0  0  0
   24.1120   70.9324   -2.9326 O   0  0  0  0  0  0  0  0  0  0  0  0
   21.6914   71.3900   -3.8864 O   0  0  0  0  0  0  0  0  0  0  0  0
   20.7912   70.3028   -3.7755 C   0  0  0  0  0  0  0  0  0  0  0  0
   18.9429   71.5222   -4.7107 O   0  0  0  0  0  0  0  0  0  0  0  0
   17.2862   70.3306   -2.5137 O   0  0  0  0  0  0  0  0  0  0  0  0
   16.6399   68.7749   -4.6580 O   0  0  0  0  0  0  0  0  0  0  0  0
   18.3643   69.7508   -3.2485 C   0  0  1  0  0  0  0  0  0  0  0  0
   17.9110   69.3904   -4.6474 C   0  0  2  0  0  0  0  0  0  0  0  0
   19.3904   70.8429   -3.5175 C   0  0  1  0  0  0  0  0  0  0  0  0
   17.9111   70.7438   -5.3374 C   0  0  2  0  0  0  0  0  0  0  0  0
   16.6176   69.6517   -2.3299 H   0  0  0  0  0  0  0  0  0  0  0  0
   16.6925   67.9169   -4.2074 H   0  0  0  0  0  0  0  0  0  0  0  0
   15.9767   70.1582   -7.3102 O   0  0  0  0  0  0  0  0  0  0  0  0
   19.0964   70.3812  -10.6957 O   0  0  0  0  0  0  0  0  0  0  0  0
   18.1905   70.6428   -6.7419 N   0  0  0  0  0  0  0  0  0  0  0  0
   17.5326   70.2688   -8.9944 N   0  0  0  0  0  0  0  0  0  0  0  0
   17.1469   70.3439   -7.6495 C   0  0  0  0  0  0  0  0  0  0  0  0
   19.4847   70.8404   -7.2076 C   0  0  0  0  0  0  0  0  0  0  0  0
   19.8370   70.7657   -8.4926 C   0  0  0  0  0  0  0  0  0  0  0  0
   18.8065   70.4568   -9.5056 C   0  0  0  0  0  0  0  0  0  0  0  0
   16.8236   70.0599   -9.6448 H   0  0  0  0  0  0  0  0  0  0  0  0
   22.0010   71.1349   -1.3873 O   0  0  0  0  0  0  0  0  0  0  0  0
   22.4703   71.0730    0.1586 P   0  0  2  0  0  0  0  0  0  0  0  0
   24.0793   70.9318    0.0512 O   0  0  0  0  0  0  0  0  0  0  0  0
   21.8067   69.9912    0.9607 O   0  0  0  0  0  0  0  0  0  0  0  0
   22.2291   72.5661    0.7196 O   0  0  0  0  0  0  0  0  0  0  0  0
   23.5034   74.0146    2.0934 O   0  0  0  0  0  0  0  0  0  0  0  0
   19.6588   74.7914    3.3911 O   0  0  0  0  0  0  0  0  0  0  0  0
   20.5127   72.0511    2.8468 O   0  0  0  0  0  0  0  0  0  0  0  0
   21.0296   76.6910    1.6697 O   0  0  0  0  0  0  0  0  0  0  0  0
   20.6689   74.4388    2.4459 C   0  0  2  0  0  0  0  0  0  0  0  0
   21.3867   73.1721    2.9126 C   0  0  2  0  0  0  0  0  0  0  0  0
   21.6552   75.6050    2.3507 C   0  0  1  0  0  0  0  0  0  0  0  0
   22.6197   72.8934    2.0519 C   0  0  1  0  0  0  0  0  0  0  0  0
   22.9139   75.2089    1.5843 C   0  0  1  0  0  0  0  0  0  0  0  0
   19.0204   74.0650    3.4685 H   0  0  0  0  0  0  0  0  0  0  0  0
   19.7279   72.2212    3.3905 H   0  0  0  0  0  0  0  0  0  0  0  0
   20.2269   76.9527    2.1472 H   0  0  0  0  0  0  0  0  0  0  0  0
   25.1791   75.6188    2.0342 O   0  0  0  0  0  0  0  0  0  0  0  0
   23.8382   77.4341    1.7093 O   0  0  0  0  0  0  0  0  0  0  0  0
   23.9933   76.2240    1.7763 C   0  0  0  0  0  0  0  0  0  0  0  0
  1  4  1  0
  1 24  1  0
  1  2  1  1
  1  3  2  0
 25 28  1  0
 25 24  1  0
 25 26  1  6
 25 27  2  0
  6 11  1  0
  6 12  1  0
 29 36  1  0
 29 37  1  0
  9  7  1  1
  7 13  1  0
 10  8  1  1
  8 14  1  0
  4  5  1  0
 36 28  1  6
 33 30  1  1
 30 38  1  0
 34 31  1  6
 31 39  1  0
 35 32  1  6
 32 40  1  0
 41 43  1  0
 15 19  2  0
 42 43  2  0
 16 22  2  0
 12 17  1  6
 17 19  1  0
 17 20  1  0
 18 19  1  0
 18 22  1  0
 18 23  1  0
  9 10  1  0
  9 11  1  0
 10 12  1  0
 11  5  1  6
 33 34  1  0
 33 35  1  0
 34 36  1  0
 35 37  1  0
 37 43  1  1
 20 21  2  0
 21 22  1  0
M  CHG  3   2  -1  26  -1  41  -1
M  END
>  <COMPND>  (362) 
    udp_gluA.pdb 

>  <AUTHOR>  (362) 
    GENERATED BY OPEN BABEL 3.1.1

>  <MASTER>  (362) 
        0    0    0    0    0    0    0    0   56    0   56    0

>  <minimizedAffinity>  (362) 
-7.57758

>  <CNNscore>  (362) 
0.9113976955

>  <CNNaffinity>  (362) 
4.8191480637

>  <CNN_VS>  (362) 
4.3921604156

>  <CNNaffinity_variance>  (362) 
0.0374812409

$$$$
363
     RDKit          3D

 43 45  0  0  0  0  0  0  0  0999 V2000
   20.5105   73.4033   -3.0510 P   0  0  2  0  0  0  0  0  0  0  0  0
   20.0400   72.9012   -1.5862 O   0  0  0  0  0  0  0  0  0  0  0  0
   20.3790   74.8793   -3.2872 O   0  0  0  0  0  0  0  0  0  0  0  0
   19.6885   72.4527   -4.0701 O   0  0  0  0  0  0  0  0  0  0  0  0
   19.0455   71.3025   -3.5521 C   0  0  0  0  0  0  0  0  0  0  0  0
   17.3239   71.8708   -5.1304 O   0  0  0  0  0  0  0  0  0  0  0  0
   15.4376   70.4047   -3.3182 O   0  0  0  0  0  0  0  0  0  0  0  0
   15.8958   68.5865   -5.2982 O   0  0  0  0  0  0  0  0  0  0  0  0
   16.7989   70.1116   -3.6336 C   0  0  1  0  0  0  0  0  0  0  0  0
   16.9018   69.5415   -5.0324 C   0  0  2  0  0  0  0  0  0  0  0  0
   17.5438   71.4322   -3.7722 C   0  0  1  0  0  0  0  0  0  0  0  0
   16.7671   70.7872   -5.8914 C   0  0  2  0  0  0  0  0  0  0  0  0
   14.9413   69.5760   -3.2247 H   0  0  0  0  0  0  0  0  0  0  0  0
   16.0254   67.8128   -4.7267 H   0  0  0  0  0  0  0  0  0  0  0  0
   15.5418   70.7984   -8.4360 O   0  0  0  0  0  0  0  0  0  0  0  0
   19.5922   70.3529  -10.5901 O   0  0  0  0  0  0  0  0  0  0  0  0
   17.4777   70.6757   -7.1338 N   0  0  0  0  0  0  0  0  0  0  0  0
   17.5602   70.5755   -9.5064 N   0  0  0  0  0  0  0  0  0  0  0  0
   16.7671   70.6917   -8.3572 C   0  0  0  0  0  0  0  0  0  0  0  0
   18.8619   70.5539   -7.1325 C   0  0  0  0  0  0  0  0  0  0  0  0
   19.6042   70.4441   -8.2360 C   0  0  0  0  0  0  0  0  0  0  0  0
   18.9393   70.4515   -9.5556 C   0  0  0  0  0  0  0  0  0  0  0  0
   17.0877   70.5821  -10.3701 H   0  0  0  0  0  0  0  0  0  0  0  0
   22.0198   72.8354   -3.1617 O   0  0  0  0  0  0  0  0  0  0  0  0
   22.7052   71.5131   -2.5330 P   0  0  2  0  0  0  0  0  0  0  0  0
   24.1692   71.4914   -3.2233 O   0  0  0  0  0  0  0  0  0  0  0  0
   21.9102   70.2548   -2.7294 O   0  0  0  0  0  0  0  0  0  0  0  0
   22.9878   71.8925   -0.9907 O   0  0  0  0  0  0  0  0  0  0  0  0
   24.2822   70.9963    0.7786 O   0  0  0  0  0  0  0  0  0  0  0  0
   20.7616   71.9567    2.7154 O   0  0  0  0  0  0  0  0  0  0  0  0
   20.7062   70.7105    0.0737 O   0  0  0  0  0  0  0  0  0  0  0  0
   23.1141   73.6317    3.0485 O   0  0  0  0  0  0  0  0  0  0  0  0
   21.7929   72.1007    1.7388 C   0  0  2  0  0  0  0  0  0  0  0  0
   21.8689   70.8351    0.8844 C   0  0  2  0  0  0  0  0  0  0  0  0
   23.1148   72.3251    2.4765 C   0  0  1  0  0  0  0  0  0  0  0  0
   23.1043   70.8568   -0.0168 C   0  0  1  0  0  0  0  0  0  0  0  0
   24.3071   72.2069    1.5315 C   0  0  1  0  0  0  0  0  0  0  0  0
   19.9119   71.8130    2.2698 H   0  0  0  0  0  0  0  0  0  0  0  0
   19.9184   70.6964    0.6390 H   0  0  0  0  0  0  0  0  0  0  0  0
   22.3599   73.7201    3.6520 H   0  0  0  0  0  0  0  0  0  0  0  0
   26.0957   70.8460    2.2026 O   0  0  0  0  0  0  0  0  0  0  0  0
   26.1036   73.0073    2.9292 O   0  0  0  0  0  0  0  0  0  0  0  0
   25.5840   72.0980    2.2997 C   0  0  0  0  0  0  0  0  0  0  0  0
  1  4  1  0
  1 24  1  0
  1  2  1  1
  1  3  2  0
 25 28  1  0
 25 24  1  0
 25 26  1  6
 25 27  2  0
  6 11  1  0
  6 12  1  0
 29 36  1  0
 29 37  1  0
  9  7  1  6
  7 13  1  0
 10  8  1  6
  8 14  1  0
  4  5  1  0
 36 28  1  6
 33 30  1  1
 30 38  1  0
 34 31  1  6
 31 39  1  0
 35 32  1  6
 32 40  1  0
 41 43  1  0
 15 19  2  0
 42 43  2  0
 16 22  2  0
 12 17  1  6
 17 19  1  0
 17 20  1  0
 18 19  1  0
 18 22  1  0
 18 23  1  0
  9 10  1  0
  9 11  1  0
 10 12  1  0
 11  5  1  6
 33 34  1  0
 33 35  1  0
 34 36  1  0
 35 37  1  0
 37 43  1  1
 20 21  2  0
 21 22  1  0
M  CHG  3   2  -1  26  -1  41  -1
M  END
>  <COMPND>  (363) 
    udp_gluA.pdb 

>  <AUTHOR>  (363) 
    GENERATED BY OPEN BABEL 3.1.1

>  <MASTER>  (363) 
        0    0    0    0    0    0    0    0   56    0   56    0

>  <minimizedAffinity>  (363) 
-8.22139

>  <CNNscore>  (363) 
0.8822689056

>  <CNNaffinity>  (363) 
4.7157487869

>  <CNN_VS>  (363) 
4.1605587006

>  <CNNaffinity_variance>  (363) 
0.0713101700

$$$$
364
     RDKit          3D

 43 45  0  0  0  0  0  0  0  0999 V2000
   20.3604   72.8973   -2.2623 P   0  0  2  0  0  0  0  0  0  0  0  0
   19.2114   72.6670   -1.1462 O   0  0  0  0  0  0  0  0  0  0  0  0
   20.7983   74.3220   -2.4361 O   0  0  0  0  0  0  0  0  0  0  0  0
   19.7671   72.1783   -3.5848 O   0  0  0  0  0  0  0  0  0  0  0  0
   19.1153   70.9297   -3.4407 C   0  0  0  0  0  0  0  0  0  0  0  0
   17.3940   71.6929   -4.9349 O   0  0  0  0  0  0  0  0  0  0  0  0
   15.4817   70.1359   -3.2290 O   0  0  0  0  0  0  0  0  0  0  0  0
   15.8507   68.4860   -5.3686 O   0  0  0  0  0  0  0  0  0  0  0  0
   16.8278   69.8265   -3.5908 C   0  0  1  0  0  0  0  0  0  0  0  0
   16.8926   69.3795   -5.0359 C   0  0  2  0  0  0  0  0  0  0  0  0
   17.6163   71.1285   -3.6243 C   0  0  1  0  0  0  0  0  0  0  0  0
   16.7901   70.7003   -5.7794 C   0  0  2  0  0  0  0  0  0  0  0  0
   14.9582   69.3192   -3.2010 H   0  0  0  0  0  0  0  0  0  0  0  0
   15.9608   67.6608   -4.8697 H   0  0  0  0  0  0  0  0  0  0  0  0
   15.5134   70.5887   -8.2962 O   0  0  0  0  0  0  0  0  0  0  0  0
   19.5380   70.6099  -10.5426 O   0  0  0  0  0  0  0  0  0  0  0  0
   17.4801   70.6756   -7.0380 N   0  0  0  0  0  0  0  0  0  0  0  0
   17.5191   70.5983   -9.4126 N   0  0  0  0  0  0  0  0  0  0  0  0
   16.7445   70.6190   -8.2453 C   0  0  0  0  0  0  0  0  0  0  0  0
   18.8690   70.7090   -7.0683 C   0  0  0  0  0  0  0  0  0  0  0  0
   19.5935   70.6889   -8.1888 C   0  0  0  0  0  0  0  0  0  0  0  0
   18.9019   70.6293   -9.4932 C   0  0  0  0  0  0  0  0  0  0  0  0
   17.0292   70.5570  -10.2656 H   0  0  0  0  0  0  0  0  0  0  0  0
   21.5304   71.8858   -1.7926 O   0  0  0  0  0  0  0  0  0  0  0  0
   21.9817   71.3955   -0.3196 P   0  0  2  0  0  0  0  0  0  0  0  0
   23.4697   70.8075   -0.5653 O   0  0  0  0  0  0  0  0  0  0  0  0
   21.0326   70.4270    0.3246 O   0  0  0  0  0  0  0  0  0  0  0  0
   22.2145   72.7582    0.5118 O   0  0  0  0  0  0  0  0  0  0  0  0
   23.5226   72.0719    2.3630 O   0  0  0  0  0  0  0  0  0  0  0  0
   23.4757   76.1752    2.8418 O   0  0  0  0  0  0  0  0  0  0  0  0
   21.0478   74.7468    2.0676 O   0  0  0  0  0  0  0  0  0  0  0  0
   25.8551   74.8521    1.8225 O   0  0  0  0  0  0  0  0  0  0  0  0
   23.4652   74.9481    2.1124 C   0  0  2  0  0  0  0  0  0  0  0  0
   22.2443   74.1220    2.5181 C   0  0  2  0  0  0  0  0  0  0  0  0
   24.7535   74.1909    2.4420 C   0  0  1  0  0  0  0  0  0  0  0  0
   22.3197   72.7108    1.9336 C   0  0  1  0  0  0  0  0  0  0  0  0
   24.6998   72.7528    1.9345 C   0  0  1  0  0  0  0  0  0  0  0  0
   22.6662   76.6736    2.6482 H   0  0  0  0  0  0  0  0  0  0  0  0
   20.9935   75.6428    2.4345 H   0  0  0  0  0  0  0  0  0  0  0  0
   25.9004   75.7686    2.1369 H   0  0  0  0  0  0  0  0  0  0  0  0
   25.4815   70.6180    2.5120 O   0  0  0  0  0  0  0  0  0  0  0  0
   26.8394   72.3868    2.9879 O   0  0  0  0  0  0  0  0  0  0  0  0
   25.7972   71.9366    2.5362 C   0  0  0  0  0  0  0  0  0  0  0  0
  1  4  1  0
  1 24  1  0
  1  2  1  1
  1  3  2  0
 25 28  1  0
 25 24  1  0
 25 26  1  6
 25 27  2  0
  6 11  1  0
  6 12  1  0
 29 36  1  0
 29 37  1  0
  9  7  1  6
  7 13  1  0
 10  8  1  6
  8 14  1  0
  4  5  1  0
 36 28  1  6
 33 30  1  1
 30 38  1  0
 34 31  1  6
 31 39  1  0
 35 32  1  6
 32 40  1  0
 41 43  1  0
 15 19  2  0
 42 43  2  0
 16 22  2  0
 12 17  1  6
 17 19  1  0
 17 20  1  0
 18 19  1  0
 18 22  1  0
 18 23  1  0
  9 10  1  0
  9 11  1  0
 10 12  1  0
 11  5  1  6
 33 34  1  0
 33 35  1  0
 34 36  1  0
 35 37  1  0
 37 43  1  1
 20 21  2  0
 21 22  1  0
M  CHG  3   2  -1  26  -1  41  -1
M  END
>  <COMPND>  (364) 
    udp_gluA.pdb 

>  <AUTHOR>  (364) 
    GENERATED BY OPEN BABEL 3.1.1

>  <MASTER>  (364) 
        0    0    0    0    0    0    0    0   56    0   56    0

>  <minimizedAffinity>  (364) 
-7.30518

>  <CNNscore>  (364) 
0.8556033969

>  <CNNaffinity>  (364) 
4.5509371758

>  <CNN_VS>  (364) 
3.8937973976

>  <CNNaffinity_variance>  (364) 
0.0565427765

$$$$
365
     RDKit          3D

 43 45  0  0  0  0  0  0  0  0999 V2000
   20.2263   70.7179   -2.4759 P   0  0  2  0  0  0  0  0  0  0  0  0
   20.6012   70.0198   -3.8869 O   0  0  0  0  0  0  0  0  0  0  0  0
   19.1234   70.0474   -1.7105 O   0  0  0  0  0  0  0  0  0  0  0  0
   19.9702   72.2674   -2.8650 O   0  0  0  0  0  0  0  0  0  0  0  0
   19.7549   72.5963   -4.2252 C   0  0  0  0  0  0  0  0  0  0  0  0
   18.0484   73.1291   -5.8319 O   0  0  0  0  0  0  0  0  0  0  0  0
   16.0751   72.5652   -3.6457 O   0  0  0  0  0  0  0  0  0  0  0  0
   15.9926   70.2776   -5.1275 O   0  0  0  0  0  0  0  0  0  0  0  0
   17.3194   71.9242   -3.9273 C   0  0  1  0  0  0  0  0  0  0  0  0
   17.1861   71.0324   -5.1436 C   0  0  2  0  0  0  0  0  0  0  0  0
   18.2948   72.9861   -4.4162 C   0  0  1  0  0  0  0  0  0  0  0  0
   17.2252   72.0404   -6.2795 C   0  0  2  0  0  0  0  0  0  0  0  0
   15.4354   71.9066   -3.3316 H   0  0  0  0  0  0  0  0  0  0  0  0
   16.0165   69.6507   -4.3869 H   0  0  0  0  0  0  0  0  0  0  0  0
   15.7315   70.7431   -8.2950 O   0  0  0  0  0  0  0  0  0  0  0  0
   19.4944   69.9731  -10.8428 O   0  0  0  0  0  0  0  0  0  0  0  0
   17.7892   71.4915   -7.4801 N   0  0  0  0  0  0  0  0  0  0  0  0
   17.6072   70.3599   -9.5616 N   0  0  0  0  0  0  0  0  0  0  0  0
   16.9511   70.8597   -8.4290 C   0  0  0  0  0  0  0  0  0  0  0  0
   19.1568   71.5831   -7.7088 C   0  0  0  0  0  0  0  0  0  0  0  0
   19.7678   71.1020   -8.7932 C   0  0  0  0  0  0  0  0  0  0  0  0
   18.9642   70.4264   -9.8331 C   0  0  0  0  0  0  0  0  0  0  0  0
   17.0447   69.9140  -10.2354 H   0  0  0  0  0  0  0  0  0  0  0  0
   21.6469   70.7666   -1.7063 O   0  0  0  0  0  0  0  0  0  0  0  0
   22.0239   71.2217   -0.2015 P   0  0  2  0  0  0  0  0  0  0  0  0
   23.6009   70.8728   -0.0936 O   0  0  0  0  0  0  0  0  0  0  0  0
   21.1762   70.5890    0.8638 O   0  0  0  0  0  0  0  0  0  0  0  0
   21.9649   72.8335   -0.2345 O   0  0  0  0  0  0  0  0  0  0  0  0
   23.7817   73.4598   -1.6188 O   0  0  0  0  0  0  0  0  0  0  0  0
   21.9738   77.1052   -0.9039 O   0  0  0  0  0  0  0  0  0  0  0  0
   22.2903   75.1608    1.2534 O   0  0  0  0  0  0  0  0  0  0  0  0
   21.6416   75.7911   -3.4756 O   0  0  0  0  0  0  0  0  0  0  0  0
   22.0249   75.6919   -1.0990 C   0  0  2  0  0  0  0  0  0  0  0  0
   22.9087   75.0586   -0.0241 C   0  0  2  0  0  0  0  0  0  0  0  0
   22.6061   75.4273   -2.4898 C   0  0  1  0  0  0  0  0  0  0  0  0
   23.1738   73.5843   -0.3325 C   0  0  1  0  0  0  0  0  0  0  0  0
   22.9606   73.9546   -2.6744 C   0  0  1  0  0  0  0  0  0  0  0  0
   21.6077   77.2976   -0.0263 H   0  0  0  0  0  0  0  0  0  0  0  0
   22.1190   76.0937    1.4554 H   0  0  0  0  0  0  0  0  0  0  0  0
   21.4072   76.7262   -3.3690 H   0  0  0  0  0  0  0  0  0  0  0  0
   24.1636   72.4591   -4.0226 O   0  0  0  0  0  0  0  0  0  0  0  0
   24.1602   74.6517   -4.6483 O   0  0  0  0  0  0  0  0  0  0  0  0
   23.8170   73.7627   -3.8835 C   0  0  0  0  0  0  0  0  0  0  0  0
  1  4  1  0
  1 24  1  0
  1  2  1  6
  1  3  2  0
 25 28  1  0
 25 24  1  0
 25 26  1  1
 25 27  2  0
  6 11  1  0
  6 12  1  0
 29 36  1  0
 29 37  1  0
  9  7  1  6
  7 13  1  0
 10  8  1  1
  8 14  1  0
  4  5  1  0
 36 28  1  6
 33 30  1  1
 30 38  1  0
 34 31  1  1
 31 39  1  0
 35 32  1  6
 32 40  1  0
 41 43  1  0
 15 19  2  0
 42 43  2  0
 16 22  2  0
 12 17  1  6
 17 19  1  0
 17 20  1  0
 18 19  1  0
 18 22  1  0
 18 23  1  0
  9 10  1  0
  9 11  1  0
 10 12  1  0
 11  5  1  6
 33 34  1  0
 33 35  1  0
 34 36  1  0
 35 37  1  0
 37 43  1  6
 20 21  2  0
 21 22  1  0
M  CHG  3   2  -1  26  -1  41  -1
M  END
>  <COMPND>  (365) 
    udp_gluA.pdb 

>  <AUTHOR>  (365) 
    GENERATED BY OPEN BABEL 3.1.1

>  <MASTER>  (365) 
        0    0    0    0    0    0    0    0   56    0   56    0

>  <minimizedAffinity>  (365) 
-7.15762

>  <CNNscore>  (365) 
0.8543344140

>  <CNNaffinity>  (365) 
4.7117342949

>  <CNN_VS>  (365) 
4.0253968239

>  <CNNaffinity_variance>  (365) 
0.0105808526

$$$$
366
     RDKit          3D

 43 45  0  0  0  0  0  0  0  0999 V2000
   22.5617   72.2787   -4.2535 P   0  0  2  0  0  0  0  0  0  0  0  0
   23.0553   72.5036   -5.7782 O   0  0  0  0  0  0  0  0  0  0  0  0
   23.2541   71.1672   -3.5208 O   0  0  0  0  0  0  0  0  0  0  0  0
   20.9546   72.1416   -4.3817 O   0  0  0  0  0  0  0  0  0  0  0  0
   20.3127   71.0672   -3.7199 C   0  0  0  0  0  0  0  0  0  0  0  0
   18.3798   71.8941   -4.8850 O   0  0  0  0  0  0  0  0  0  0  0  0
   16.7517   70.5503   -2.7554 O   0  0  0  0  0  0  0  0  0  0  0  0
   16.5795   68.7939   -4.8343 O   0  0  0  0  0  0  0  0  0  0  0  0
   17.9758   70.1291   -3.3578 C   0  0  1  0  0  0  0  0  0  0  0  0
   17.7217   69.6213   -4.7613 C   0  0  2  0  0  0  0  0  0  0  0  0
   18.8230   71.3676   -3.6155 C   0  0  1  0  0  0  0  0  0  0  0  0
   17.5571   70.9154   -5.5399 C   0  0  2  0  0  0  0  0  0  0  0  0
   16.1934   69.7759   -2.5813 H   0  0  0  0  0  0  0  0  0  0  0  0
   16.7343   67.9834   -4.3233 H   0  0  0  0  0  0  0  0  0  0  0  0
   15.8596   70.1701   -7.6704 O   0  0  0  0  0  0  0  0  0  0  0  0
   19.2827   70.4667  -10.7426 O   0  0  0  0  0  0  0  0  0  0  0  0
   17.9786   70.7902   -6.9064 N   0  0  0  0  0  0  0  0  0  0  0  0
   17.5664   70.3175   -9.1984 N   0  0  0  0  0  0  0  0  0  0  0  0
   17.0465   70.4095   -7.9005 C   0  0  0  0  0  0  0  0  0  0  0  0
   19.3006   71.0446   -7.2506 C   0  0  0  0  0  0  0  0  0  0  0  0
   19.7814   70.9529   -8.4920 C   0  0  0  0  0  0  0  0  0  0  0  0
   18.8732   70.5600   -9.5894 C   0  0  0  0  0  0  0  0  0  0  0  0
   16.9368   70.0521   -9.9072 H   0  0  0  0  0  0  0  0  0  0  0  0
   22.7500   73.7414   -3.5917 O   0  0  0  0  0  0  0  0  0  0  0  0
   24.0796   74.5266   -3.1128 P   0  0  2  0  0  0  0  0  0  0  0  0
   23.6314   76.0810   -3.1686 O   0  0  0  0  0  0  0  0  0  0  0  0
   25.3064   74.2075   -3.9172 O   0  0  0  0  0  0  0  0  0  0  0  0
   24.2060   74.1955   -1.5390 O   0  0  0  0  0  0  0  0  0  0  0  0
   23.0503   72.5620   -0.2721 O   0  0  0  0  0  0  0  0  0  0  0  0
   23.7108   75.5039    2.5522 O   0  0  0  0  0  0  0  0  0  0  0  0
   22.8794   76.2122   -0.1574 O   0  0  0  0  0  0  0  0  0  0  0  0
   25.3128   73.0782    2.5698 O   0  0  0  0  0  0  0  0  0  0  0  0
   23.9998   74.7209    1.3940 C   0  0  2  0  0  0  0  0  0  0  0  0
   22.8782   74.8902    0.3689 C   0  0  2  0  0  0  0  0  0  0  0  0
   24.1080   73.2573    1.8277 C   0  0  1  0  0  0  0  0  0  0  0  0
   23.0345   73.8957   -0.7824 C   0  0  1  0  0  0  0  0  0  0  0  0
   24.1328   72.3199    0.6238 C   0  0  1  0  0  0  0  0  0  0  0  0
   23.6374   76.4382    2.3010 H   0  0  0  0  0  0  0  0  0  0  0  0
   22.7808   76.8485    0.5678 H   0  0  0  0  0  0  0  0  0  0  0  0
   25.3098   73.6693    3.3388 H   0  0  0  0  0  0  0  0  0  0  0  0
   25.0680   70.3379    1.4595 O   0  0  0  0  0  0  0  0  0  0  0  0
   22.8282   70.3318    1.0325 O   0  0  0  0  0  0  0  0  0  0  0  0
   23.9070   70.9053    1.0482 C   0  0  0  0  0  0  0  0  0  0  0  0
  1  4  1  0
  1 24  1  0
  1  2  1  6
  1  3  2  0
 25 28  1  0
 25 24  1  0
 25 26  1  1
 25 27  2  0
  6 11  1  0
  6 12  1  0
 29 36  1  0
 29 37  1  0
  9  7  1  6
  7 13  1  0
 10  8  1  1
  8 14  1  0
  4  5  1  0
 36 28  1  1
 33 30  1  1
 30 38  1  0
 34 31  1  6
 31 39  1  0
 35 32  1  6
 32 40  1  0
 41 43  1  0
 15 19  2  0
 42 43  2  0
 16 22  2  0
 12 17  1  6
 17 19  1  0
 17 20  1  0
 18 19  1  0
 18 22  1  0
 18 23  1  0
  9 10  1  0
  9 11  1  0
 10 12  1  0
 11  5  1  6
 33 34  1  0
 33 35  1  0
 34 36  1  0
 35 37  1  0
 37 43  1  1
 20 21  2  0
 21 22  1  0
M  CHG  3   2  -1  26  -1  41  -1
M  END
>  <COMPND>  (366) 
    udp_gluA.pdb 

>  <AUTHOR>  (366) 
    GENERATED BY OPEN BABEL 3.1.1

>  <MASTER>  (366) 
        0    0    0    0    0    0    0    0   56    0   56    0

>  <minimizedAffinity>  (366) 
-7.61075

>  <CNNscore>  (366) 
0.8499776721

>  <CNNaffinity>  (366) 
4.6788434982

>  <CNN_VS>  (366) 
3.9769124985

>  <CNNaffinity_variance>  (366) 
0.0782385543

$$$$
367
     RDKit          3D

 43 45  0  0  0  0  0  0  0  0999 V2000
   20.3495   72.9664   -3.1489 P   0  0  2  0  0  0  0  0  0  0  0  0
   20.7281   73.8119   -1.8220 O   0  0  0  0  0  0  0  0  0  0  0  0
   19.5992   73.7347   -4.1971 O   0  0  0  0  0  0  0  0  0  0  0  0
   19.6030   71.6519   -2.5721 O   0  0  0  0  0  0  0  0  0  0  0  0
   19.1097   70.6960   -3.4926 C   0  0  0  0  0  0  0  0  0  0  0  0
   17.3826   71.4983   -4.9593 O   0  0  0  0  0  0  0  0  0  0  0  0
   15.4763   69.9000   -3.2850 O   0  0  0  0  0  0  0  0  0  0  0  0
   15.8343   68.3048   -5.4675 O   0  0  0  0  0  0  0  0  0  0  0  0
   16.8205   69.5988   -3.6605 C   0  0  1  0  0  0  0  0  0  0  0  0
   16.8785   69.1886   -5.1168 C   0  0  2  0  0  0  0  0  0  0  0  0
   17.6101   70.9006   -3.6645 C   0  0  1  0  0  0  0  0  0  0  0  0
   16.7739   70.5280   -5.8261 C   0  0  2  0  0  0  0  0  0  0  0  0
   14.9522   69.0834   -3.2754 H   0  0  0  0  0  0  0  0  0  0  0  0
   15.9458   67.4671   -4.9902 H   0  0  0  0  0  0  0  0  0  0  0  0
   15.4877   70.6519   -8.3374 O   0  0  0  0  0  0  0  0  0  0  0  0
   19.5006   70.5476  -10.6023 O   0  0  0  0  0  0  0  0  0  0  0  0
   17.4584   70.5347   -7.0879 N   0  0  0  0  0  0  0  0  0  0  0  0
   17.4876   70.5988   -9.4631 N   0  0  0  0  0  0  0  0  0  0  0  0
   16.7182   70.5991   -8.2921 C   0  0  0  0  0  0  0  0  0  0  0  0
   18.8464   70.4797   -7.1244 C   0  0  0  0  0  0  0  0  0  0  0  0
   19.5659   70.4803   -8.2483 C   0  0  0  0  0  0  0  0  0  0  0  0
   18.8693   70.5447   -9.5499 C   0  0  0  0  0  0  0  0  0  0  0  0
   16.9943   70.6410  -10.3141 H   0  0  0  0  0  0  0  0  0  0  0  0
   21.7801   72.3893   -3.6319 O   0  0  0  0  0  0  0  0  0  0  0  0
   23.2805   72.9485   -3.4084 P   0  0  2  0  0  0  0  0  0  0  0  0
   24.2015   71.6365   -3.6339 O   0  0  0  0  0  0  0  0  0  0  0  0
   23.4922   73.6335   -2.0894 O   0  0  0  0  0  0  0  0  0  0  0  0
   23.5684   73.8745   -4.6976 O   0  0  0  0  0  0  0  0  0  0  0  0
   23.6717   76.2406   -4.6805 O   0  0  0  0  0  0  0  0  0  0  0  0
   22.6532   75.4718   -8.6099 O   0  0  0  0  0  0  0  0  0  0  0  0
   21.3993   73.9772   -6.4355 O   0  0  0  0  0  0  0  0  0  0  0  0
   25.3710   76.2500   -7.9324 O   0  0  0  0  0  0  0  0  0  0  0  0
   23.2745   75.2150   -7.3505 C   0  0  2  0  0  0  0  0  0  0  0  0
   22.2063   75.1358   -6.2596 C   0  0  2  0  0  0  0  0  0  0  0  0
   24.2473   76.3603   -7.0608 C   0  0  1  0  0  0  0  0  0  0  0  0
   22.8450   75.0917   -4.8707 C   0  0  1  0  0  0  0  0  0  0  0  0
   24.7430   76.3187   -5.6182 C   0  0  1  0  0  0  0  0  0  0  0  0
   22.0304   74.7569   -8.8152 H   0  0  0  0  0  0  0  0  0  0  0  0
   20.9911   73.9985   -7.3149 H   0  0  0  0  0  0  0  0  0  0  0  0
   25.0692   76.2750   -8.8539 H   0  0  0  0  0  0  0  0  0  0  0  0
   25.0656   78.5890   -6.1114 O   0  0  0  0  0  0  0  0  0  0  0  0
   26.1787   77.7480   -4.3078 O   0  0  0  0  0  0  0  0  0  0  0  0
   25.4169   77.6008   -5.2517 C   0  0  0  0  0  0  0  0  0  0  0  0
  1  4  1  0
  1 24  1  0
  1  2  1  1
  1  3  2  0
 25 28  1  0
 25 24  1  0
 25 26  1  1
 25 27  2  0
  6 11  1  0
  6 12  1  0
 29 36  1  0
 29 37  1  0
  9  7  1  6
  7 13  1  0
 10  8  1  6
  8 14  1  0
  4  5  1  0
 36 28  1  6
 33 30  1  6
 30 38  1  0
 34 31  1  6
 31 39  1  0
 35 32  1  6
 32 40  1  0
 41 43  1  0
 15 19  2  0
 42 43  2  0
 16 22  2  0
 12 17  1  6
 17 19  1  0
 17 20  1  0
 18 19  1  0
 18 22  1  0
 18 23  1  0
  9 10  1  0
  9 11  1  0
 10 12  1  0
 11  5  1  6
 33 34  1  0
 33 35  1  0
 34 36  1  0
 35 37  1  0
 37 43  1  1
 20 21  2  0
 21 22  1  0
M  CHG  3   2  -1  26  -1  41  -1
M  END
>  <COMPND>  (367) 
    udp_gluA.pdb 

>  <AUTHOR>  (367) 
    GENERATED BY OPEN BABEL 3.1.1

>  <MASTER>  (367) 
        0    0    0    0    0    0    0    0   56    0   56    0

>  <minimizedAffinity>  (367) 
-6.83227

>  <CNNscore>  (367) 
0.8320151567

>  <CNNaffinity>  (367) 
4.6658334732

>  <CNN_VS>  (367) 
3.8820440769

>  <CNNaffinity_variance>  (367) 
0.2240769416

$$$$
368
     RDKit          3D

 43 45  0  0  0  0  0  0  0  0999 V2000
   22.8088   72.5712   -4.0610 P   0  0  2  0  0  0  0  0  0  0  0  0
   23.1665   73.6546   -5.2087 O   0  0  0  0  0  0  0  0  0  0  0  0
   23.9321   71.6486   -3.6886 O   0  0  0  0  0  0  0  0  0  0  0  0
   21.4640   71.8563   -4.6072 O   0  0  0  0  0  0  0  0  0  0  0  0
   20.8733   70.8372   -3.8217 C   0  0  0  0  0  0  0  0  0  0  0  0
   18.8694   71.7573   -4.7784 O   0  0  0  0  0  0  0  0  0  0  0  0
   17.4060   70.4338   -2.5204 O   0  0  0  0  0  0  0  0  0  0  0  0
   16.9641   68.7255   -4.5995 O   0  0  0  0  0  0  0  0  0  0  0  0
   18.5483   69.9793   -3.2466 C   0  0  1  0  0  0  0  0  0  0  0  0
   18.1391   69.5085   -4.6261 C   0  0  2  0  0  0  0  0  0  0  0  0
   19.4136   71.1904   -3.5669 C   0  0  1  0  0  0  0  0  0  0  0  0
   17.9495   70.8226   -5.3645 C   0  0  2  0  0  0  0  0  0  0  0  0
   16.8378   69.6773   -2.3044 H   0  0  0  0  0  0  0  0  0  0  0  0
   17.1365   67.9001   -4.1189 H   0  0  0  0  0  0  0  0  0  0  0  0
   16.0356   70.1322   -7.3232 O   0  0  0  0  0  0  0  0  0  0  0  0
   19.1403   70.4136  -10.7182 O   0  0  0  0  0  0  0  0  0  0  0  0
   18.2306   70.7083   -6.7676 N   0  0  0  0  0  0  0  0  0  0  0  0
   17.5840   70.2720   -9.0121 N   0  0  0  0  0  0  0  0  0  0  0  0
   17.1976   70.3555   -7.6679 C   0  0  0  0  0  0  0  0  0  0  0  0
   19.5160   70.9459   -7.2391 C   0  0  0  0  0  0  0  0  0  0  0  0
   19.8690   70.8626   -8.5233 C   0  0  0  0  0  0  0  0  0  0  0  0
   18.8494   70.4986   -9.5289 C   0  0  0  0  0  0  0  0  0  0  0  0
   16.8824   70.0259   -9.6575 H   0  0  0  0  0  0  0  0  0  0  0  0
   22.2642   73.4924   -2.8495 O   0  0  0  0  0  0  0  0  0  0  0  0
   23.0444   74.4744   -1.8293 P   0  0  2  0  0  0  0  0  0  0  0  0
   22.2716   75.8852   -2.0103 O   0  0  0  0  0  0  0  0  0  0  0  0
   24.5265   74.5474   -2.0572 O   0  0  0  0  0  0  0  0  0  0  0  0
   22.6173   73.9617   -0.3606 O   0  0  0  0  0  0  0  0  0  0  0  0
   23.5925   73.6957    1.7812 O   0  0  0  0  0  0  0  0  0  0  0  0
   21.6922   70.0637    1.2659 O   0  0  0  0  0  0  0  0  0  0  0  0
   23.1559   71.2956   -0.9419 O   0  0  0  0  0  0  0  0  0  0  0  0
   20.5496   72.0708    3.0314 O   0  0  0  0  0  0  0  0  0  0  0  0
   21.8774   71.4709    1.1125 C   0  0  2  0  0  0  0  0  0  0  0  0
   23.2084   71.7383    0.4093 C   0  0  2  0  0  0  0  0  0  0  0  0
   21.8754   72.1028    2.5063 C   0  0  1  0  0  0  0  0  0  0  0  0
   23.5495   73.2289    0.4322 C   0  0  1  0  0  0  0  0  0  0  0  0
   22.3472   73.5533    2.4610 C   0  0  1  0  0  0  0  0  0  0  0  0
   21.6901   69.6407    0.3928 H   0  0  0  0  0  0  0  0  0  0  0  0
   22.9397   70.3506   -0.9640 H   0  0  0  0  0  0  0  0  0  0  0  0
   20.2373   71.1531    3.0653 H   0  0  0  0  0  0  0  0  0  0  0  0
   22.7022   73.0271    4.7190 O   0  0  0  0  0  0  0  0  0  0  0  0
   22.8437   75.2249    4.1285 O   0  0  0  0  0  0  0  0  0  0  0  0
   22.6556   74.0539    3.8345 C   0  0  0  0  0  0  0  0  0  0  0  0
  1  4  1  0
  1 24  1  0
  1  2  1  6
  1  3  2  0
 25 28  1  0
 25 24  1  0
 25 26  1  6
 25 27  2  0
  6 11  1  0
  6 12  1  0
 29 36  1  0
 29 37  1  0
  9  7  1  1
  7 13  1  0
 10  8  1  1
  8 14  1  0
  4  5  1  0
 36 28  1  6
 33 30  1  1
 30 38  1  0
 34 31  1  6
 31 39  1  0
 35 32  1  6
 32 40  1  0
 41 43  1  0
 15 19  2  0
 42 43  2  0
 16 22  2  0
 12 17  1  6
 17 19  1  0
 17 20  1  0
 18 19  1  0
 18 22  1  0
 18 23  1  0
  9 10  1  0
  9 11  1  0
 10 12  1  0
 11  5  1  6
 33 34  1  0
 33 35  1  0
 34 36  1  0
 35 37  1  0
 37 43  1  1
 20 21  2  0
 21 22  1  0
M  CHG  3   2  -1  26  -1  41  -1
M  END
>  <COMPND>  (368) 
    udp_gluA.pdb 

>  <AUTHOR>  (368) 
    GENERATED BY OPEN BABEL 3.1.1

>  <MASTER>  (368) 
        0    0    0    0    0    0    0    0   56    0   56    0

>  <minimizedAffinity>  (368) 
-7.90369

>  <CNNscore>  (368) 
0.8303045630

>  <CNNaffinity>  (368) 
4.6730990410

>  <CNN_VS>  (368) 
3.8800954819

>  <CNNaffinity_variance>  (368) 
0.0400619283

$$$$
369
     RDKit          3D

 43 45  0  0  0  0  0  0  0  0999 V2000
   20.4837   71.3271   -1.6800 P   0  0  2  0  0  0  0  0  0  0  0  0
   21.8241   70.7860   -2.4076 O   0  0  0  0  0  0  0  0  0  0  0  0
   19.4349   70.2841   -1.4272 O   0  0  0  0  0  0  0  0  0  0  0  0
   20.0231   72.5792   -2.5955 O   0  0  0  0  0  0  0  0  0  0  0  0
   19.6493   72.3332   -3.9387 C   0  0  0  0  0  0  0  0  0  0  0  0
   17.9125   72.8795   -5.5080 O   0  0  0  0  0  0  0  0  0  0  0  0
   15.9788   72.0273   -3.3804 O   0  0  0  0  0  0  0  0  0  0  0  0
   16.0400   69.8591   -5.0330 O   0  0  0  0  0  0  0  0  0  0  0  0
   17.2609   71.4890   -3.7044 C   0  0  1  0  0  0  0  0  0  0  0  0
   17.1837   70.6863   -4.9858 C   0  0  2  0  0  0  0  0  0  0  0  0
   18.1676   72.6442   -4.1062 C   0  0  1  0  0  0  0  0  0  0  0  0
   17.1592   71.7787   -6.0413 C   0  0  2  0  0  0  0  0  0  0  0  0
   15.3819   71.3078   -3.1205 H   0  0  0  0  0  0  0  0  0  0  0  0
   16.1034   69.1801   -4.3424 H   0  0  0  0  0  0  0  0  0  0  0  0
   15.7527   70.5345   -8.1508 O   0  0  0  0  0  0  0  0  0  0  0  0
   19.5530   70.2137  -10.7389 O   0  0  0  0  0  0  0  0  0  0  0  0
   17.7565   71.3597   -7.2776 N   0  0  0  0  0  0  0  0  0  0  0  0
   17.6470   70.3750   -9.4374 N   0  0  0  0  0  0  0  0  0  0  0  0
   16.9611   70.7438   -8.2727 C   0  0  0  0  0  0  0  0  0  0  0  0
   19.1140   71.5612   -7.4955 C   0  0  0  0  0  0  0  0  0  0  0  0
   19.7537   71.2043   -8.6109 C   0  0  0  0  0  0  0  0  0  0  0  0
   18.9956   70.5539   -9.6998 C   0  0  0  0  0  0  0  0  0  0  0  0
   17.1147   69.9425  -10.1437 H   0  0  0  0  0  0  0  0  0  0  0  0
   21.0570   72.0421   -0.3484 O   0  0  0  0  0  0  0  0  0  0  0  0
   21.8513   71.4369    0.9230 P   0  0  2  0  0  0  0  0  0  0  0  0
   23.3693   71.9478    0.6881 O   0  0  0  0  0  0  0  0  0  0  0  0
   21.7169   69.9502    1.0824 O   0  0  0  0  0  0  0  0  0  0  0  0
   21.3230   72.2957    2.1823 O   0  0  0  0  0  0  0  0  0  0  0  0
   20.0674   74.3001    2.3042 O   0  0  0  0  0  0  0  0  0  0  0  0
   22.5786   74.6818    5.5624 O   0  0  0  0  0  0  0  0  0  0  0  0
   23.5955   73.6630    3.0203 O   0  0  0  0  0  0  0  0  0  0  0  0
   19.7857   73.9731    5.9478 O   0  0  0  0  0  0  0  0  0  0  0  0
   21.7851   73.9826    4.6035 C   0  0  2  0  0  0  0  0  0  0  0  0
   22.3171   74.2621    3.1976 C   0  0  2  0  0  0  0  0  0  0  0  0
   20.3422   74.4752    4.7342 C   0  0  1  0  0  0  0  0  0  0  0  0
   21.3615   73.7208    2.1334 C   0  0  1  0  0  0  0  0  0  0  0  0
   19.4821   73.9961    3.5683 C   0  0  1  0  0  0  0  0  0  0  0  0
   23.5001   74.3852    5.4979 H   0  0  0  0  0  0  0  0  0  0  0  0
   24.2069   74.0018    3.6925 H   0  0  0  0  0  0  0  0  0  0  0  0
   20.3240   74.2708    6.6978 H   0  0  0  0  0  0  0  0  0  0  0  0
   17.9145   75.1543    2.2634 O   0  0  0  0  0  0  0  0  0  0  0  0
   17.4631   74.9438    4.4885 O   0  0  0  0  0  0  0  0  0  0  0  0
   18.1861   74.7381    3.5252 C   0  0  0  0  0  0  0  0  0  0  0  0
  1  4  1  0
  1 24  1  0
  1  2  1  6
  1  3  2  0
 25 28  1  0
 25 24  1  0
 25 26  1  6
 25 27  2  0
  6 11  1  0
  6 12  1  0
 29 36  1  0
 29 37  1  0
  9  7  1  6
  7 13  1  0
 10  8  1  1
  8 14  1  0
  4  5  1  0
 36 28  1  1
 33 30  1  1
 30 38  1  0
 34 31  1  1
 31 39  1  0
 35 32  1  1
 32 40  1  0
 41 43  1  0
 15 19  2  0
 42 43  2  0
 16 22  2  0
 12 17  1  6
 17 19  1  0
 17 20  1  0
 18 19  1  0
 18 22  1  0
 18 23  1  0
  9 10  1  0
  9 11  1  0
 10 12  1  0
 11  5  1  6
 33 34  1  0
 33 35  1  0
 34 36  1  0
 35 37  1  0
 37 43  1  6
 20 21  2  0
 21 22  1  0
M  CHG  3   2  -1  26  -1  41  -1
M  END
>  <COMPND>  (369) 
    udp_gluA.pdb 

>  <AUTHOR>  (369) 
    GENERATED BY OPEN BABEL 3.1.1

>  <MASTER>  (369) 
        0    0    0    0    0    0    0    0   56    0   56    0

>  <minimizedAffinity>  (369) 
-6.97852

>  <CNNscore>  (369) 
0.8071156740

>  <CNNaffinity>  (369) 
4.3576450348

>  <CNN_VS>  (369) 
3.5171236992

>  <CNNaffinity_variance>  (369) 
0.0588767305

$$$$
370
     RDKit          3D

 43 45  0  0  0  0  0  0  0  0999 V2000
   21.8474   72.2169   -2.0028 P   0  0  2  0  0  0  0  0  0  0  0  0
   23.2256   72.9739   -2.3855 O   0  0  0  0  0  0  0  0  0  0  0  0
   22.0209   70.8843   -1.3350 O   0  0  0  0  0  0  0  0  0  0  0  0
   21.0129   72.2050   -3.3889 O   0  0  0  0  0  0  0  0  0  0  0  0
   20.2644   71.0490   -3.7175 C   0  0  0  0  0  0  0  0  0  0  0  0
   18.3570   71.9060   -4.9028 O   0  0  0  0  0  0  0  0  0  0  0  0
   16.6864   70.6015   -2.7816 O   0  0  0  0  0  0  0  0  0  0  0  0
   16.4999   68.8395   -4.8545 O   0  0  0  0  0  0  0  0  0  0  0  0
   17.9076   70.1554   -3.3716 C   0  0  1  0  0  0  0  0  0  0  0  0
   17.6564   69.6462   -4.7751 C   0  0  2  0  0  0  0  0  0  0  0  0
   18.7796   71.3771   -3.6272 C   0  0  1  0  0  0  0  0  0  0  0  0
   17.5221   70.9397   -5.5606 C   0  0  2  0  0  0  0  0  0  0  0  0
   16.1126   69.8382   -2.6091 H   0  0  0  0  0  0  0  0  0  0  0  0
   16.6354   68.0285   -4.3388 H   0  0  0  0  0  0  0  0  0  0  0  0
   15.8525   70.1189   -7.6854 O   0  0  0  0  0  0  0  0  0  0  0  0
   19.2826   70.4417  -10.7471 O   0  0  0  0  0  0  0  0  0  0  0  0
   17.9530   70.8008   -6.9229 N   0  0  0  0  0  0  0  0  0  0  0  0
   17.5627   70.2795   -9.2081 N   0  0  0  0  0  0  0  0  0  0  0  0
   17.0346   70.3816   -7.9144 C   0  0  0  0  0  0  0  0  0  0  0  0
   19.2704   71.0798   -7.2656 C   0  0  0  0  0  0  0  0  0  0  0  0
   19.7591   70.9779   -8.5031 C   0  0  0  0  0  0  0  0  0  0  0  0
   18.8655   70.5453   -9.5975 C   0  0  0  0  0  0  0  0  0  0  0  0
   16.9428   69.9875   -9.9150 H   0  0  0  0  0  0  0  0  0  0  0  0
   21.0632   73.3175   -1.1159 O   0  0  0  0  0  0  0  0  0  0  0  0
   21.5777   74.6842   -0.4224 P   0  0  2  0  0  0  0  0  0  0  0  0
   20.3461   75.0946    0.5446 O   0  0  0  0  0  0  0  0  0  0  0  0
   21.9832   75.7535   -1.3950 O   0  0  0  0  0  0  0  0  0  0  0  0
   22.7479   74.2167    0.5849 O   0  0  0  0  0  0  0  0  0  0  0  0
   23.1365   72.1566    1.6869 O   0  0  0  0  0  0  0  0  0  0  0  0
   24.4961   74.8760    4.4842 O   0  0  0  0  0  0  0  0  0  0  0  0
   22.0275   75.3811    3.0059 O   0  0  0  0  0  0  0  0  0  0  0  0
   26.3901   73.3473    2.8946 O   0  0  0  0  0  0  0  0  0  0  0  0
   24.2302   74.3778    3.1730 C   0  0  2  0  0  0  0  0  0  0  0  0
   22.7283   74.1427    3.0098 C   0  0  2  0  0  0  0  0  0  0  0  0
   24.9963   73.0642    3.0018 C   0  0  1  0  0  0  0  0  0  0  0  0
   22.4295   73.3973    1.7083 C   0  0  1  0  0  0  0  0  0  0  0  0
   24.5518   72.3196    1.7462 C   0  0  1  0  0  0  0  0  0  0  0  0
   24.0195   75.7107    4.6159 H   0  0  0  0  0  0  0  0  0  0  0  0
   22.2128   75.8595    3.8288 H   0  0  0  0  0  0  0  0  0  0  0  0
   26.6857   73.8213    3.6875 H   0  0  0  0  0  0  0  0  0  0  0  0
   26.4052   70.8848    1.8332 O   0  0  0  0  0  0  0  0  0  0  0  0
   24.3445   69.9160    1.7133 O   0  0  0  0  0  0  0  0  0  0  0  0
   25.0514   70.9116    1.7595 C   0  0  0  0  0  0  0  0  0  0  0  0
  1  4  1  0
  1 24  1  0
  1  2  1  6
  1  3  2  0
 25 28  1  0
 25 24  1  0
 25 26  1  1
 25 27  2  0
  6 11  1  0
  6 12  1  0
 29 36  1  0
 29 37  1  0
  9  7  1  6
  7 13  1  0
 10  8  1  1
  8 14  1  0
  4  5  1  0
 36 28  1  6
 33 30  1  1
 30 38  1  0
 34 31  1  6
 31 39  1  0
 35 32  1  6
 32 40  1  0
 41 43  1  0
 15 19  2  0
 42 43  2  0
 16 22  2  0
 12 17  1  6
 17 19  1  0
 17 20  1  0
 18 19  1  0
 18 22  1  0
 18 23  1  0
  9 10  1  0
  9 11  1  0
 10 12  1  0
 11  5  1  6
 33 34  1  0
 33 35  1  0
 34 36  1  0
 35 37  1  0
 37 43  1  1
 20 21  2  0
 21 22  1  0
M  CHG  3   2  -1  26  -1  41  -1
M  END
>  <COMPND>  (370) 
    udp_gluA.pdb 

>  <AUTHOR>  (370) 
    GENERATED BY OPEN BABEL 3.1.1

>  <MASTER>  (370) 
        0    0    0    0    0    0    0    0   56    0   56    0

>  <minimizedAffinity>  (370) 
-6.90398

>  <CNNscore>  (370) 
0.7927631736

>  <CNNaffinity>  (370) 
4.6137142181

>  <CNN_VS>  (370) 
3.6575827599

>  <CNNaffinity_variance>  (370) 
0.1295186132

$$$$
371
     RDKit          3D

 43 45  0  0  0  0  0  0  0  0999 V2000
   20.6124   72.8406   -2.1889 P   0  0  2  0  0  0  0  0  0  0  0  0
   21.3511   72.9438   -0.7527 O   0  0  0  0  0  0  0  0  0  0  0  0
   19.7705   74.0277   -2.5550 O   0  0  0  0  0  0  0  0  0  0  0  0
   19.8369   71.4220   -2.1259 O   0  0  0  0  0  0  0  0  0  0  0  0
   19.3534   70.8616   -3.3329 C   0  0  0  0  0  0  0  0  0  0  0  0
   17.6013   71.7417   -4.7233 O   0  0  0  0  0  0  0  0  0  0  0  0
   15.7015   70.2199   -2.9722 O   0  0  0  0  0  0  0  0  0  0  0  0
   15.8983   68.6186   -5.1706 O   0  0  0  0  0  0  0  0  0  0  0  0
   17.0145   69.8632   -3.4051 C   0  0  1  0  0  0  0  0  0  0  0  0
   16.9931   69.4561   -4.8632 C   0  0  2  0  0  0  0  0  0  0  0  0
   17.8579   71.1304   -3.4404 C   0  0  1  0  0  0  0  0  0  0  0  0
   16.9157   70.8011   -5.5651 C   0  0  2  0  0  0  0  0  0  0  0  0
   15.1440   69.4262   -2.9417 H   0  0  0  0  0  0  0  0  0  0  0  0
   15.9942   67.7752   -4.7000 H   0  0  0  0  0  0  0  0  0  0  0  0
   15.5854   70.1942   -7.9814 O   0  0  0  0  0  0  0  0  0  0  0  0
   19.4328   70.7625  -10.4549 O   0  0  0  0  0  0  0  0  0  0  0  0
   17.5456   70.7832   -6.8549 N   0  0  0  0  0  0  0  0  0  0  0  0
   17.5031   70.4769   -9.2109 N   0  0  0  0  0  0  0  0  0  0  0  0
   16.7873   70.4654   -8.0065 C   0  0  0  0  0  0  0  0  0  0  0  0
   18.8983   71.0796   -6.9703 C   0  0  0  0  0  0  0  0  0  0  0  0
   19.5667   71.0866   -8.1253 C   0  0  0  0  0  0  0  0  0  0  0  0
   18.8483   70.7646   -9.3757 C   0  0  0  0  0  0  0  0  0  0  0  0
   16.9969   70.2567  -10.0261 H   0  0  0  0  0  0  0  0  0  0  0  0
   21.8338   72.5424   -3.2047 O   0  0  0  0  0  0  0  0  0  0  0  0
   23.2224   73.3314   -3.4557 P   0  0  2  0  0  0  0  0  0  0  0  0
   24.1987   72.1833   -4.0464 O   0  0  0  0  0  0  0  0  0  0  0  0
   23.7587   74.0353   -2.2429 O   0  0  0  0  0  0  0  0  0  0  0  0
   22.9228   74.2974   -4.7125 O   0  0  0  0  0  0  0  0  0  0  0  0
   20.9752   75.1323   -5.7703 O   0  0  0  0  0  0  0  0  0  0  0  0
   23.3723   74.2317   -9.0124 O   0  0  0  0  0  0  0  0  0  0  0  0
   23.2170   72.4098   -6.7340 O   0  0  0  0  0  0  0  0  0  0  0  0
   23.0131   76.9957   -8.1863 O   0  0  0  0  0  0  0  0  0  0  0  0
   23.0899   74.6425   -7.6747 C   0  0  2  0  0  0  0  0  0  0  0  0
   22.3537   73.5220   -6.9398 C   0  0  2  0  0  0  0  0  0  0  0  0
   22.2183   75.8987   -7.7398 C   0  0  1  0  0  0  0  0  0  0  0  0
   21.8331   74.0057   -5.5856 C   0  0  1  0  0  0  0  0  0  0  0  0
   21.6351   76.2436   -6.3725 C   0  0  1  0  0  0  0  0  0  0  0  0
   23.9252   73.4347   -8.9961 H   0  0  0  0  0  0  0  0  0  0  0  0
   23.5513   72.0979   -7.5892 H   0  0  0  0  0  0  0  0  0  0  0  0
   23.3904   76.7889   -9.0556 H   0  0  0  0  0  0  0  0  0  0  0  0
   20.0646   77.2829   -7.7706 O   0  0  0  0  0  0  0  0  0  0  0  0
   20.1266   77.9580   -5.5936 O   0  0  0  0  0  0  0  0  0  0  0  0
   20.5416   77.2535   -6.5016 C   0  0  0  0  0  0  0  0  0  0  0  0
  1  4  1  0
  1 24  1  0
  1  2  1  1
  1  3  2  0
 25 28  1  0
 25 24  1  0
 25 26  1  6
 25 27  2  0
  6 11  1  0
  6 12  1  0
 29 36  1  0
 29 37  1  0
  9  7  1  6
  7 13  1  0
 10  8  1  1
  8 14  1  0
  4  5  1  0
 36 28  1  1
 33 30  1  6
 30 38  1  0
 34 31  1  1
 31 39  1  0
 35 32  1  1
 32 40  1  0
 41 43  1  0
 15 19  2  0
 42 43  2  0
 16 22  2  0
 12 17  1  6
 17 19  1  0
 17 20  1  0
 18 19  1  0
 18 22  1  0
 18 23  1  0
  9 10  1  0
  9 11  1  0
 10 12  1  0
 11  5  1  6
 33 34  1  0
 33 35  1  0
 34 36  1  0
 35 37  1  0
 37 43  1  6
 20 21  2  0
 21 22  1  0
M  CHG  3   2  -1  26  -1  41  -1
M  END
>  <COMPND>  (371) 
    udp_gluA.pdb 

>  <AUTHOR>  (371) 
    GENERATED BY OPEN BABEL 3.1.1

>  <MASTER>  (371) 
        0    0    0    0    0    0    0    0   56    0   56    0

>  <minimizedAffinity>  (371) 
-7.02866

>  <CNNscore>  (371) 
0.7758719921

>  <CNNaffinity>  (371) 
4.5715694427

>  <CNN_VS>  (371) 
3.5469527245

>  <CNNaffinity_variance>  (371) 
0.2881146073

$$$$
372
     RDKit          3D

 43 45  0  0  0  0  0  0  0  0999 V2000
   23.1082   71.3969   -2.0591 P   0  0  2  0  0  0  0  0  0  0  0  0
   22.7915   72.9799   -1.9473 O   0  0  0  0  0  0  0  0  0  0  0  0
   24.0889   71.0211   -3.1310 O   0  0  0  0  0  0  0  0  0  0  0  0
   21.6454   70.7152   -2.1747 O   0  0  0  0  0  0  0  0  0  0  0  0
   20.9575   70.7960   -3.4096 C   0  0  0  0  0  0  0  0  0  0  0  0
   18.9075   71.6453   -4.3336 O   0  0  0  0  0  0  0  0  0  0  0  0
   17.5201   70.1966   -2.1047 O   0  0  0  0  0  0  0  0  0  0  0  0
   17.1475   68.5235   -4.2255 O   0  0  0  0  0  0  0  0  0  0  0  0
   18.6784   69.8152   -2.8471 C   0  0  1  0  0  0  0  0  0  0  0  0
   18.2843   69.3614   -4.2368 C   0  0  2  0  0  0  0  0  0  0  0  0
   19.4843   71.0736   -3.1395 C   0  0  1  0  0  0  0  0  0  0  0  0
   18.0293   70.6837   -4.9399 C   0  0  2  0  0  0  0  0  0  0  0  0
   16.9892   69.4090   -1.9060 H   0  0  0  0  0  0  0  0  0  0  0  0
   17.3610   67.6951   -3.7673 H   0  0  0  0  0  0  0  0  0  0  0  0
   16.2076   69.7482   -6.8848 O   0  0  0  0  0  0  0  0  0  0  0  0
   19.2054   70.4799  -10.3086 O   0  0  0  0  0  0  0  0  0  0  0  0
   18.3078   70.6189   -6.3467 N   0  0  0  0  0  0  0  0  0  0  0  0
   17.7028   70.1125   -8.5881 N   0  0  0  0  0  0  0  0  0  0  0  0
   17.3236   70.1326   -7.2394 C   0  0  0  0  0  0  0  0  0  0  0  0
   19.5426   71.0355   -6.8292 C   0  0  0  0  0  0  0  0  0  0  0  0
   19.8894   71.0105   -8.1175 C   0  0  0  0  0  0  0  0  0  0  0  0
   18.9188   70.5156   -9.1157 C   0  0  0  0  0  0  0  0  0  0  0  0
   17.0349   69.7760   -9.2284 H   0  0  0  0  0  0  0  0  0  0  0  0
   23.5706   71.0125   -0.5587 O   0  0  0  0  0  0  0  0  0  0  0  0
   22.7500   70.9987    0.8342 P   0  0  2  0  0  0  0  0  0  0  0  0
   23.8625   70.5340    1.9143 O   0  0  0  0  0  0  0  0  0  0  0  0
   21.5148   70.1457    0.8128 O   0  0  0  0  0  0  0  0  0  0  0  0
   22.4837   72.5544    1.1677 O   0  0  0  0  0  0  0  0  0  0  0  0
   21.2507   72.9150    3.1574 O   0  0  0  0  0  0  0  0  0  0  0  0
   21.3470   76.7105    1.5286 O   0  0  0  0  0  0  0  0  0  0  0  0
   20.8687   74.3819   -0.1696 O   0  0  0  0  0  0  0  0  0  0  0  0
   23.0590   76.0459    3.7820 O   0  0  0  0  0  0  0  0  0  0  0  0
   21.8381   75.3995    1.8081 C   0  0  2  0  0  0  0  0  0  0  0  0
   20.8647   74.3593    1.2532 C   0  0  2  0  0  0  0  0  0  0  0  0
   21.9629   75.2550    3.3264 C   0  0  1  0  0  0  0  0  0  0  0  0
   21.2351   72.9542    1.7300 C   0  0  1  0  0  0  0  0  0  0  0  0
   22.2076   73.8038    3.7297 C   0  0  1  0  0  0  0  0  0  0  0  0
   21.2594   76.8254    0.5692 H   0  0  0  0  0  0  0  0  0  0  0  0
   20.6348   75.2707   -0.4790 H   0  0  0  0  0  0  0  0  0  0  0  0
   22.9157   76.9719    3.5316 H   0  0  0  0  0  0  0  0  0  0  0  0
   21.0899   74.5066    5.6684 O   0  0  0  0  0  0  0  0  0  0  0  0
   22.5685   72.7846    5.8866 O   0  0  0  0  0  0  0  0  0  0  0  0
   22.0010   73.6192    5.1979 C   0  0  0  0  0  0  0  0  0  0  0  0
  1  4  1  0
  1 24  1  0
  1  2  1  1
  1  3  2  0
 25 28  1  0
 25 24  1  0
 25 26  1  1
 25 27  2  0
  6 11  1  0
  6 12  1  0
 29 36  1  0
 29 37  1  0
  9  7  1  1
  7 13  1  0
 10  8  1  1
  8 14  1  0
  4  5  1  0
 36 28  1  6
 33 30  1  1
 30 38  1  0
 34 31  1  6
 31 39  1  0
 35 32  1  6
 32 40  1  0
 41 43  1  0
 15 19  2  0
 42 43  2  0
 16 22  2  0
 12 17  1  6
 17 19  1  0
 17 20  1  0
 18 19  1  0
 18 22  1  0
 18 23  1  0
  9 10  1  0
  9 11  1  0
 10 12  1  0
 11  5  1  6
 33 34  1  0
 33 35  1  0
 34 36  1  0
 35 37  1  0
 37 43  1  1
 20 21  2  0
 21 22  1  0
M  CHG  3   2  -1  26  -1  41  -1
M  END
>  <COMPND>  (372) 
    udp_gluA.pdb 

>  <AUTHOR>  (372) 
    GENERATED BY OPEN BABEL 3.1.1

>  <MASTER>  (372) 
        0    0    0    0    0    0    0    0   56    0   56    0

>  <minimizedAffinity>  (372) 
-7.67027

>  <CNNscore>  (372) 
0.7745259404

>  <CNNaffinity>  (372) 
4.6100630760

>  <CNN_VS>  (372) 
3.5706133842

>  <CNNaffinity_variance>  (372) 
0.0533853583

$$$$
373
     RDKit          3D

 43 45  0  0  0  0  0  0  0  0999 V2000
   20.6708   71.9112   -5.1308 P   0  0  2  0  0  0  0  0  0  0  0  0
   20.1139   70.7353   -4.1686 O   0  0  0  0  0  0  0  0  0  0  0  0
   19.8523   73.1690   -5.1329 O   0  0  0  0  0  0  0  0  0  0  0  0
   20.8493   71.1867   -6.5664 O   0  0  0  0  0  0  0  0  0  0  0  0
   20.1058   71.6756   -7.6676 C   0  0  0  0  0  0  0  0  0  0  0  0
   18.7295   69.7496   -7.2504 O   0  0  0  0  0  0  0  0  0  0  0  0
   17.9365   69.9223  -10.1371 O   0  0  0  0  0  0  0  0  0  0  0  0
   15.8026   71.0463   -8.8647 O   0  0  0  0  0  0  0  0  0  0  0  0
   18.2084   70.9737   -9.2102 C   0  0  1  0  0  0  0  0  0  0  0  0
   17.0627   71.1184   -8.2310 C   0  0  2  0  0  0  0  0  0  0  0  0
   19.3456   70.5198   -8.3052 C   0  0  1  0  0  0  0  0  0  0  0  0
   17.3084   69.9561   -7.2841 C   0  0  2  0  0  0  0  0  0  0  0  0
   17.2131   70.1891  -10.7262 H   0  0  0  0  0  0  0  0  0  0  0  0
   15.6942   71.8080   -9.4563 H   0  0  0  0  0  0  0  0  0  0  0  0
   16.3489   67.9885   -5.4997 O   0  0  0  0  0  0  0  0  0  0  0  0
   15.5530   71.1074   -2.2008 O   0  0  0  0  0  0  0  0  0  0  0  0
   16.8442   70.2263   -5.9528 N   0  0  0  0  0  0  0  0  0  0  0  0
   15.9524   69.5439   -3.8587 N   0  0  0  0  0  0  0  0  0  0  0  0
   16.3823   69.1660   -5.1376 C   0  0  0  0  0  0  0  0  0  0  0  0
   16.8509   71.5281   -5.4668 C   0  0  0  0  0  0  0  0  0  0  0  0
   16.4382   71.8727   -4.2454 C   0  0  0  0  0  0  0  0  0  0  0  0
   15.9395   70.8248   -3.3308 C   0  0  0  0  0  0  0  0  0  0  0  0
   15.6245   68.8232   -3.2735 H   0  0  0  0  0  0  0  0  0  0  0  0
   22.1951   72.1006   -4.6273 O   0  0  0  0  0  0  0  0  0  0  0  0
   22.9679   73.3966   -4.0469 P   0  0  2  0  0  0  0  0  0  0  0  0
   24.5240   72.9539   -4.1000 O   0  0  0  0  0  0  0  0  0  0  0  0
   22.4967   73.8389   -2.6918 O   0  0  0  0  0  0  0  0  0  0  0  0
   22.8222   74.5120   -5.2033 O   0  0  0  0  0  0  0  0  0  0  0  0
   24.5068   75.6698   -6.3994 O   0  0  0  0  0  0  0  0  0  0  0  0
   21.4783   78.4774   -6.2822 O   0  0  0  0  0  0  0  0  0  0  0  0
   22.1027   76.8733   -3.9218 O   0  0  0  0  0  0  0  0  0  0  0  0
   22.0131   77.0094   -8.7337 O   0  0  0  0  0  0  0  0  0  0  0  0
   22.0372   77.1646   -6.3295 C   0  0  2  0  0  0  0  0  0  0  0  0
   22.9074   76.9341   -5.0938 C   0  0  2  0  0  0  0  0  0  0  0  0
   22.8801   77.0550   -7.6020 C   0  0  1  0  0  0  0  0  0  0  0  0
   23.7029   75.6340   -5.2196 C   0  0  1  0  0  0  0  0  0  0  0  0
   23.7390   75.7938   -7.5945 C   0  0  1  0  0  0  0  0  0  0  0  0
   20.9383   78.5705   -5.4816 H   0  0  0  0  0  0  0  0  0  0  0  0
   21.5949   77.6950   -3.8358 H   0  0  0  0  0  0  0  0  0  0  0  0
   21.4607   77.8066   -8.7502 H   0  0  0  0  0  0  0  0  0  0  0  0
   24.2131   75.9434   -9.8867 O   0  0  0  0  0  0  0  0  0  0  0  0
   25.9900   75.8381   -8.4617 O   0  0  0  0  0  0  0  0  0  0  0  0
   24.7845   75.8575   -8.6599 C   0  0  0  0  0  0  0  0  0  0  0  0
  1  4  1  0
  1 24  1  0
  1  2  1  1
  1  3  2  0
 25 28  1  0
 25 24  1  0
 25 26  1  1
 25 27  2  0
  6 11  1  0
  6 12  1  0
 29 36  1  0
 29 37  1  0
  9  7  1  6
  7 13  1  0
 10  8  1  6
  8 14  1  0
  4  5  1  0
 36 28  1  6
 33 30  1  1
 30 38  1  0
 34 31  1  1
 31 39  1  0
 35 32  1  6
 32 40  1  0
 41 43  1  0
 15 19  2  0
 42 43  2  0
 16 22  2  0
 12 17  1  1
 17 19  1  0
 17 20  1  0
 18 19  1  0
 18 22  1  0
 18 23  1  0
  9 10  1  0
  9 11  1  0
 10 12  1  0
 11  5  1  1
 33 34  1  0
 33 35  1  0
 34 36  1  0
 35 37  1  0
 37 43  1  6
 20 21  2  0
 21 22  1  0
M  CHG  3   2  -1  26  -1  41  -1
M  END
>  <COMPND>  (373) 
    udp_gluA.pdb 

>  <AUTHOR>  (373) 
    GENERATED BY OPEN BABEL 3.1.1

>  <MASTER>  (373) 
        0    0    0    0    0    0    0    0   56    0   56    0

>  <minimizedAffinity>  (373) 
-6.72923

>  <CNNscore>  (373) 
0.7205104828

>  <CNNaffinity>  (373) 
4.3800082207

>  <CNN_VS>  (373) 
3.1558418274

>  <CNNaffinity_variance>  (373) 
0.2558023334

$$$$
374
     RDKit          3D

 43 45  0  0  0  0  0  0  0  0999 V2000
   22.7726   72.7507   -3.6237 P   0  0  2  0  0  0  0  0  0  0  0  0
   22.9114   74.2078   -2.9334 O   0  0  0  0  0  0  0  0  0  0  0  0
   24.0376   72.2108   -4.2238 O   0  0  0  0  0  0  0  0  0  0  0  0
   21.5280   72.9209   -4.6434 O   0  0  0  0  0  0  0  0  0  0  0  0
   21.5660   72.2290   -5.8781 C   0  0  0  0  0  0  0  0  0  0  0  0
   19.8152   72.1618   -7.5236 O   0  0  0  0  0  0  0  0  0  0  0  0
   19.8034   75.1560   -7.3628 O   0  0  0  0  0  0  0  0  0  0  0  0
   17.6509   74.4688   -5.8361 O   0  0  0  0  0  0  0  0  0  0  0  0
   20.0166   74.1963   -6.3274 C   0  0  1  0  0  0  0  0  0  0  0  0
   18.7078   73.5383   -5.9449 C   0  0  2  0  0  0  0  0  0  0  0  0
   20.7975   73.0314   -6.9202 C   0  0  1  0  0  0  0  0  0  0  0  0
   18.5051   72.5537   -7.0839 C   0  0  2  0  0  0  0  0  0  0  0  0
   19.3061   75.9099   -7.0078 H   0  0  0  0  0  0  0  0  0  0  0  0
   17.8268   75.0728   -5.0970 H   0  0  0  0  0  0  0  0  0  0  0  0
   16.1263   71.6431   -8.3041 O   0  0  0  0  0  0  0  0  0  0  0  0
   15.8105   68.0534   -5.4304 O   0  0  0  0  0  0  0  0  0  0  0  0
   17.7805   71.3840   -6.6747 N   0  0  0  0  0  0  0  0  0  0  0  0
   15.9707   69.8567   -6.8710 N   0  0  0  0  0  0  0  0  0  0  0  0
   16.5961   71.0135   -7.3545 C   0  0  0  0  0  0  0  0  0  0  0  0
   18.2444   70.6169   -5.6129 C   0  0  0  0  0  0  0  0  0  0  0  0
   17.6375   69.5167   -5.1636 C   0  0  0  0  0  0  0  0  0  0  0  0
   16.3935   69.0613   -5.8183 C   0  0  0  0  0  0  0  0  0  0  0  0
   15.1432   69.5800   -7.3271 H   0  0  0  0  0  0  0  0  0  0  0  0
   22.1499   71.8453   -2.4382 O   0  0  0  0  0  0  0  0  0  0  0  0
   20.9961   72.1660   -1.3521 P   0  0  2  0  0  0  0  0  0  0  0  0
   20.5043   70.6948   -0.8896 O   0  0  0  0  0  0  0  0  0  0  0  0
   19.8979   73.0526   -1.8639 O   0  0  0  0  0  0  0  0  0  0  0  0
   21.7881   72.7510   -0.0742 O   0  0  0  0  0  0  0  0  0  0  0  0
   24.0828   73.1823    0.3223 O   0  0  0  0  0  0  0  0  0  0  0  0
   22.8181   71.8821    4.0342 O   0  0  0  0  0  0  0  0  0  0  0  0
   21.9092   70.5373    1.6052 O   0  0  0  0  0  0  0  0  0  0  0  0
   23.2974   74.7105    3.5642 O   0  0  0  0  0  0  0  0  0  0  0  0
   22.6901   72.5207    2.7638 C   0  0  2  0  0  0  0  0  0  0  0  0
   22.9516   71.5047    1.6516 C   0  0  2  0  0  0  0  0  0  0  0  0
   23.7147   73.6556    2.6997 C   0  0  1  0  0  0  0  0  0  0  0  0
   23.0503   72.1962    0.2911 C   0  0  1  0  0  0  0  0  0  0  0  0
   23.8456   74.2085    1.2834 C   0  0  1  0  0  0  0  0  0  0  0  0
   22.1766   71.1570    4.0979 H   0  0  0  0  0  0  0  0  0  0  0  0
   21.8408   70.0948    2.4654 H   0  0  0  0  0  0  0  0  0  0  0  0
   23.2101   74.3718    4.4689 H   0  0  0  0  0  0  0  0  0  0  0  0
   25.9068   74.8547    2.1975 O   0  0  0  0  0  0  0  0  0  0  0  0
   25.2700   75.8611    0.2531 O   0  0  0  0  0  0  0  0  0  0  0  0
   25.0599   75.0703    1.1606 C   0  0  0  0  0  0  0  0  0  0  0  0
  1  4  1  0
  1 24  1  0
  1  2  1  1
  1  3  2  0
 25 28  1  0
 25 24  1  0
 25 26  1  1
 25 27  2  0
  6 11  1  0
  6 12  1  0
 29 36  1  0
 29 37  1  0
  9  7  1  6
  7 13  1  0
 10  8  1  6
  8 14  1  0
  4  5  1  0
 36 28  1  1
 33 30  1  1
 30 38  1  0
 34 31  1  6
 31 39  1  0
 35 32  1  1
 32 40  1  0
 41 43  1  0
 15 19  2  0
 42 43  2  0
 16 22  2  0
 12 17  1  1
 17 19  1  0
 17 20  1  0
 18 19  1  0
 18 22  1  0
 18 23  1  0
  9 10  1  0
  9 11  1  0
 10 12  1  0
 11  5  1  1
 33 34  1  0
 33 35  1  0
 34 36  1  0
 35 37  1  0
 37 43  1  1
 20 21  2  0
 21 22  1  0
M  CHG  3   2  -1  26  -1  41  -1
M  END
>  <COMPND>  (374) 
    udp_gluA.pdb 

>  <AUTHOR>  (374) 
    GENERATED BY OPEN BABEL 3.1.1

>  <MASTER>  (374) 
        0    0    0    0    0    0    0    0   56    0   56    0

>  <minimizedAffinity>  (374) 
-6.69852

>  <CNNscore>  (374) 
0.6841375232

>  <CNNaffinity>  (374) 
4.2723608017

>  <CNN_VS>  (374) 
2.9228823185

>  <CNNaffinity_variance>  (374) 
0.0797807425

$$$$
375
     RDKit          3D

 43 45  0  0  0  0  0  0  0  0999 V2000
   21.7340   72.7095   -5.8204 P   0  0  2  0  0  0  0  0  0  0  0  0
   21.7047   74.0226   -6.7658 O   0  0  0  0  0  0  0  0  0  0  0  0
   23.0819   72.3627   -5.2592 O   0  0  0  0  0  0  0  0  0  0  0  0
   21.0334   71.5646   -6.7238 O   0  0  0  0  0  0  0  0  0  0  0  0
   20.1730   71.9648   -7.7746 C   0  0  0  0  0  0  0  0  0  0  0  0
   18.9988   69.9252   -7.2857 O   0  0  0  0  0  0  0  0  0  0  0  0
   18.1160   69.9650  -10.1511 O   0  0  0  0  0  0  0  0  0  0  0  0
   15.9192   70.9058   -8.8376 O   0  0  0  0  0  0  0  0  0  0  0  0
   18.3108   71.0555   -9.2503 C   0  0  1  0  0  0  0  0  0  0  0  0
   17.1831   71.1098   -8.2414 C   0  0  2  0  0  0  0  0  0  0  0  0
   19.5100   70.7296   -8.3705 C   0  0  1  0  0  0  0  0  0  0  0  0
   17.5641   69.9949   -7.2823 C   0  0  2  0  0  0  0  0  0  0  0  0
   17.3548   70.1502  -10.7238 H   0  0  0  0  0  0  0  0  0  0  0  0
   15.7227   71.6419   -9.4388 H   0  0  0  0  0  0  0  0  0  0  0  0
   16.2298   68.1000   -5.6682 O   0  0  0  0  0  0  0  0  0  0  0  0
   15.8749   71.0676   -2.1595 O   0  0  0  0  0  0  0  0  0  0  0  0
   17.1120   70.2458   -5.9431 N   0  0  0  0  0  0  0  0  0  0  0  0
   16.0534   69.5801   -3.9226 N   0  0  0  0  0  0  0  0  0  0  0  0
   16.4517   69.2257   -5.2182 C   0  0  0  0  0  0  0  0  0  0  0  0
   17.3250   71.4894   -5.3607 C   0  0  0  0  0  0  0  0  0  0  0  0
   16.9396   71.8124   -4.1246 C   0  0  0  0  0  0  0  0  0  0  0  0
   16.2423   70.8035   -3.3003 C   0  0  0  0  0  0  0  0  0  0  0  0
   15.5899   68.8869   -3.3992 H   0  0  0  0  0  0  0  0  0  0  0  0
   20.6062   73.0368   -4.7097 O   0  0  0  0  0  0  0  0  0  0  0  0
   20.6165   74.0559   -3.4547 P   0  0  2  0  0  0  0  0  0  0  0  0
   19.0435   74.3243   -3.1832 O   0  0  0  0  0  0  0  0  0  0  0  0
   21.4265   75.3000   -3.6785 O   0  0  0  0  0  0  0  0  0  0  0  0
   21.0985   73.1592   -2.2033 O   0  0  0  0  0  0  0  0  0  0  0  0
   21.4338   73.8211    0.0459 O   0  0  0  0  0  0  0  0  0  0  0  0
   24.1855   70.7651   -0.3502 O   0  0  0  0  0  0  0  0  0  0  0  0
   23.8310   72.7248   -2.4875 O   0  0  0  0  0  0  0  0  0  0  0  0
   21.7060   70.3172    1.0997 O   0  0  0  0  0  0  0  0  0  0  0  0
   22.9658   71.4617   -0.6055 C   0  0  2  0  0  0  0  0  0  0  0  0
   23.2766   72.8430   -1.1824 C   0  0  2  0  0  0  0  0  0  0  0  0
   22.2114   71.5955    0.7192 C   0  0  1  0  0  0  0  0  0  0  0  0
   22.0138   73.7028   -1.2538 C   0  0  1  0  0  0  0  0  0  0  0  0
   21.0406   72.5666    0.5979 C   0  0  1  0  0  0  0  0  0  0  0  0
   24.6821   70.6682   -1.1780 H   0  0  0  0  0  0  0  0  0  0  0  0
   24.6325   72.1803   -2.4497 H   0  0  0  0  0  0  0  0  0  0  0  0
   22.4412   69.6897    1.1803 H   0  0  0  0  0  0  0  0  0  0  0  0
   20.2331   74.2663    1.9981 O   0  0  0  0  0  0  0  0  0  0  0  0
   20.3702   72.1686    2.8812 O   0  0  0  0  0  0  0  0  0  0  0  0
   20.5208   72.9420    1.9474 C   0  0  0  0  0  0  0  0  0  0  0  0
  1  4  1  0
  1 24  1  0
  1  2  1  6
  1  3  2  0
 25 28  1  0
 25 24  1  0
 25 26  1  1
 25 27  2  0
  6 11  1  0
  6 12  1  0
 29 36  1  0
 29 37  1  0
  9  7  1  6
  7 13  1  0
 10  8  1  6
  8 14  1  0
  4  5  1  0
 36 28  1  6
 33 30  1  1
 30 38  1  0
 34 31  1  6
 31 39  1  0
 35 32  1  6
 32 40  1  0
 41 43  1  0
 15 19  2  0
 42 43  2  0
 16 22  2  0
 12 17  1  1
 17 19  1  0
 17 20  1  0
 18 19  1  0
 18 22  1  0
 18 23  1  0
  9 10  1  0
  9 11  1  0
 10 12  1  0
 11  5  1  1
 33 34  1  0
 33 35  1  0
 34 36  1  0
 35 37  1  0
 37 43  1  1
 20 21  2  0
 21 22  1  0
M  CHG  3   2  -1  26  -1  41  -1
M  END
>  <COMPND>  (375) 
    udp_gluA.pdb 

>  <AUTHOR>  (375) 
    GENERATED BY OPEN BABEL 3.1.1

>  <MASTER>  (375) 
        0    0    0    0    0    0    0    0   56    0   56    0

>  <minimizedAffinity>  (375) 
-7.45010

>  <CNNscore>  (375) 
0.6649083495

>  <CNNaffinity>  (375) 
4.5486025810

>  <CNN_VS>  (375) 
3.0244038105

>  <CNNaffinity_variance>  (375) 
0.2092061490

$$$$
376
     RDKit          3D

 43 45  0  0  0  0  0  0  0  0999 V2000
   21.9310   72.5157   -5.8900 P   0  0  2  0  0  0  0  0  0  0  0  0
   21.3202   73.9044   -5.3267 O   0  0  0  0  0  0  0  0  0  0  0  0
   23.0359   72.6704   -6.8935 O   0  0  0  0  0  0  0  0  0  0  0  0
   20.6309   71.6968   -6.3970 O   0  0  0  0  0  0  0  0  0  0  0  0
   20.0658   72.0342   -7.6506 C   0  0  0  0  0  0  0  0  0  0  0  0
   18.9015   69.9827   -7.1884 O   0  0  0  0  0  0  0  0  0  0  0  0
   18.1001   70.0038  -10.0779 O   0  0  0  0  0  0  0  0  0  0  0  0
   15.8563   70.9233   -8.8304 O   0  0  0  0  0  0  0  0  0  0  0  0
   18.2568   71.0992   -9.1756 C   0  0  1  0  0  0  0  0  0  0  0  0
   17.1004   71.1436   -8.1993 C   0  0  2  0  0  0  0  0  0  0  0  0
   19.4341   70.7897   -8.2610 C   0  0  1  0  0  0  0  0  0  0  0  0
   17.4666   70.0360   -7.2261 C   0  0  2  0  0  0  0  0  0  0  0  0
   17.3535   70.1786  -10.6726 H   0  0  0  0  0  0  0  0  0  0  0  0
   15.6686   71.6554   -9.4394 H   0  0  0  0  0  0  0  0  0  0  0  0
   16.3251   68.0685   -5.5520 O   0  0  0  0  0  0  0  0  0  0  0  0
   15.6092   71.1077   -2.1615 O   0  0  0  0  0  0  0  0  0  0  0  0
   16.9737   70.2857   -5.9011 N   0  0  0  0  0  0  0  0  0  0  0  0
   15.9687   69.5843   -3.8653 N   0  0  0  0  0  0  0  0  0  0  0  0
   16.4187   69.2275   -5.1433 C   0  0  0  0  0  0  0  0  0  0  0  0
   17.0441   71.5657   -5.3646 C   0  0  0  0  0  0  0  0  0  0  0  0
   16.6111   71.8904   -4.1449 C   0  0  0  0  0  0  0  0  0  0  0  0
   16.0168   70.8431   -3.2885 C   0  0  0  0  0  0  0  0  0  0  0  0
   15.5765   68.8647   -3.3197 H   0  0  0  0  0  0  0  0  0  0  0  0
   22.3516   71.7307   -4.5411 O   0  0  0  0  0  0  0  0  0  0  0  0
   23.5109   72.0320   -3.4553 P   0  0  2  0  0  0  0  0  0  0  0  0
   24.4783   73.0754   -4.2271 O   0  0  0  0  0  0  0  0  0  0  0  0
   24.2084   70.8053   -2.9427 O   0  0  0  0  0  0  0  0  0  0  0  0
   22.7857   72.9149   -2.3165 O   0  0  0  0  0  0  0  0  0  0  0  0
   21.6613   71.6294   -0.6757 O   0  0  0  0  0  0  0  0  0  0  0  0
   20.4095   75.4560    0.2509 O   0  0  0  0  0  0  0  0  0  0  0  0
   20.5714   74.5842   -2.5326 O   0  0  0  0  0  0  0  0  0  0  0  0
   22.4144   74.1388    1.8930 O   0  0  0  0  0  0  0  0  0  0  0  0
   21.3148   74.4608   -0.2265 C   0  0  2  0  0  0  0  0  0  0  0  0
   20.6858   73.7209   -1.4073 C   0  0  2  0  0  0  0  0  0  0  0  0
   21.5973   73.4888    0.9212 C   0  0  1  0  0  0  0  0  0  0  0  0
   21.5228   72.5019   -1.7977 C   0  0  1  0  0  0  0  0  0  0  0  0
   22.3247   72.2411    0.4284 C   0  0  1  0  0  0  0  0  0  0  0  0
   20.2152   76.0852   -0.4616 H   0  0  0  0  0  0  0  0  0  0  0  0
   20.0417   75.3600   -2.2919 H   0  0  0  0  0  0  0  0  0  0  0  0
   21.9629   74.9348    2.2147 H   0  0  0  0  0  0  0  0  0  0  0  0
   21.4921   70.1504    1.0895 O   0  0  0  0  0  0  0  0  0  0  0  0
   22.9289   71.1967    2.5178 O   0  0  0  0  0  0  0  0  0  0  0  0
   22.3032   71.1689    1.4686 C   0  0  0  0  0  0  0  0  0  0  0  0
  1  4  1  0
  1 24  1  0
  1  2  1  1
  1  3  2  0
 25 28  1  0
 25 24  1  0
 25 26  1  6
 25 27  2  0
  6 11  1  0
  6 12  1  0
 29 36  1  0
 29 37  1  0
  9  7  1  6
  7 13  1  0
 10  8  1  6
  8 14  1  0
  4  5  1  0
 36 28  1  1
 33 30  1  1
 30 38  1  0
 34 31  1  6
 31 39  1  0
 35 32  1  1
 32 40  1  0
 41 43  1  0
 15 19  2  0
 42 43  2  0
 16 22  2  0
 12 17  1  1
 17 19  1  0
 17 20  1  0
 18 19  1  0
 18 22  1  0
 18 23  1  0
  9 10  1  0
  9 11  1  0
 10 12  1  0
 11  5  1  1
 33 34  1  0
 33 35  1  0
 34 36  1  0
 35 37  1  0
 37 43  1  1
 20 21  2  0
 21 22  1  0
M  CHG  3   2  -1  26  -1  41  -1
M  END
>  <COMPND>  (376) 
    udp_gluA.pdb 

>  <AUTHOR>  (376) 
    GENERATED BY OPEN BABEL 3.1.1

>  <MASTER>  (376) 
        0    0    0    0    0    0    0    0   56    0   56    0

>  <minimizedAffinity>  (376) 
-8.41185

>  <CNNscore>  (376) 
0.6592832804

>  <CNNaffinity>  (376) 
4.4586391449

>  <CNN_VS>  (376) 
2.9395062923

>  <CNNaffinity_variance>  (376) 
0.3758829832

$$$$
377
     RDKit          3D

 43 45  0  0  0  0  0  0  0  0999 V2000
   21.8430   72.4453   -5.6844 P   0  0  2  0  0  0  0  0  0  0  0  0
   21.1324   73.8569   -5.3363 O   0  0  0  0  0  0  0  0  0  0  0  0
   23.0883   72.5508   -6.5151 O   0  0  0  0  0  0  0  0  0  0  0  0
   20.6494   71.5551   -6.3174 O   0  0  0  0  0  0  0  0  0  0  0  0
   20.1242   71.9271   -7.5784 C   0  0  0  0  0  0  0  0  0  0  0  0
   18.8784   69.9151   -7.1574 O   0  0  0  0  0  0  0  0  0  0  0  0
   18.1092   70.0066  -10.0542 O   0  0  0  0  0  0  0  0  0  0  0  0
   15.8886   70.9932   -8.8166 O   0  0  0  0  0  0  0  0  0  0  0  0
   18.2975   71.0826   -9.1348 C   0  0  1  0  0  0  0  0  0  0  0  0
   17.1333   71.1573   -8.1698 C   0  0  2  0  0  0  0  0  0  0  0  0
   19.4525   70.7161   -8.2129 C   0  0  1  0  0  0  0  0  0  0  0  0
   17.4469   70.0233   -7.2088 C   0  0  2  0  0  0  0  0  0  0  0  0
   17.3760   70.2178  -10.6538 H   0  0  0  0  0  0  0  0  0  0  0  0
   15.7352   71.7402   -9.4169 H   0  0  0  0  0  0  0  0  0  0  0  0
   16.3170   68.0523   -5.5311 O   0  0  0  0  0  0  0  0  0  0  0  0
   15.5722   71.0958   -2.1508 O   0  0  0  0  0  0  0  0  0  0  0  0
   16.9498   70.2732   -5.8854 N   0  0  0  0  0  0  0  0  0  0  0  0
   15.9462   69.5702   -3.8495 N   0  0  0  0  0  0  0  0  0  0  0  0
   16.4012   69.2131   -5.1256 C   0  0  0  0  0  0  0  0  0  0  0  0
   17.0096   71.5552   -5.3526 C   0  0  0  0  0  0  0  0  0  0  0  0
   16.5720   71.8802   -4.1346 C   0  0  0  0  0  0  0  0  0  0  0  0
   15.9838   70.8310   -3.2763 C   0  0  0  0  0  0  0  0  0  0  0  0
   15.5583   68.8493   -3.3025 H   0  0  0  0  0  0  0  0  0  0  0  0
   22.0598   71.7793   -4.2276 O   0  0  0  0  0  0  0  0  0  0  0  0
   23.2452   71.9606   -3.1433 P   0  0  2  0  0  0  0  0  0  0  0  0
   23.9149   73.3741   -3.5604 O   0  0  0  0  0  0  0  0  0  0  0  0
   24.2100   70.8117   -3.0877 O   0  0  0  0  0  0  0  0  0  0  0  0
   22.4853   72.2646   -1.7531 O   0  0  0  0  0  0  0  0  0  0  0  0
   23.0961   70.6859   -0.0968 O   0  0  0  0  0  0  0  0  0  0  0  0
   20.2080   72.8913    1.8685 O   0  0  0  0  0  0  0  0  0  0  0  0
   19.8347   72.1164   -0.9233 O   0  0  0  0  0  0  0  0  0  0  0  0
   23.0199   73.2835    2.4933 O   0  0  0  0  0  0  0  0  0  0  0  0
   21.2763   72.6696    0.9479 C   0  0  2  0  0  0  0  0  0  0  0  0
   20.8595   71.6122   -0.0747 C   0  0  2  0  0  0  0  0  0  0  0  0
   22.4935   72.1910    1.7425 C   0  0  1  0  0  0  0  0  0  0  0  0
   22.0500   71.1819   -0.9328 C   0  0  1  0  0  0  0  0  0  0  0  0
   23.5876   71.6610    0.8201 C   0  0  1  0  0  0  0  0  0  0  0  0
   19.4233   73.1962    1.3862 H   0  0  0  0  0  0  0  0  0  0  0  0
   19.0763   72.3916   -0.3854 H   0  0  0  0  0  0  0  0  0  0  0  0
   22.3334   73.6302    3.0843 H   0  0  0  0  0  0  0  0  0  0  0  0
   24.1804   70.6631    2.8583 O   0  0  0  0  0  0  0  0  0  0  0  0
   25.6990   70.5445    1.1616 O   0  0  0  0  0  0  0  0  0  0  0  0
   24.6151   70.9036    1.5965 C   0  0  0  0  0  0  0  0  0  0  0  0
  1  4  1  0
  1 24  1  0
  1  2  1  1
  1  3  2  0
 25 28  1  0
 25 24  1  0
 25 26  1  6
 25 27  2  0
  6 11  1  0
  6 12  1  0
 29 36  1  0
 29 37  1  0
  9  7  1  6
  7 13  1  0
 10  8  1  6
  8 14  1  0
  4  5  1  0
 36 28  1  1
 33 30  1  1
 30 38  1  0
 34 31  1  6
 31 39  1  0
 35 32  1  6
 32 40  1  0
 41 43  1  0
 15 19  2  0
 42 43  2  0
 16 22  2  0
 12 17  1  1
 17 19  1  0
 17 20  1  0
 18 19  1  0
 18 22  1  0
 18 23  1  0
  9 10  1  0
  9 11  1  0
 10 12  1  0
 11  5  1  1
 33 34  1  0
 33 35  1  0
 34 36  1  0
 35 37  1  0
 37 43  1  1
 20 21  2  0
 21 22  1  0
M  CHG  3   2  -1  26  -1  41  -1
M  END
>  <COMPND>  (377) 
    udp_gluA.pdb 

>  <AUTHOR>  (377) 
    GENERATED BY OPEN BABEL 3.1.1

>  <MASTER>  (377) 
        0    0    0    0    0    0    0    0   56    0   56    0

>  <minimizedAffinity>  (377) 
-8.49905

>  <CNNscore>  (377) 
0.6265618801

>  <CNNaffinity>  (377) 
4.4170398712

>  <CNN_VS>  (377) 
2.7675487995

>  <CNNaffinity_variance>  (377) 
0.2841600478

$$$$
378
     RDKit          3D

 43 45  0  0  0  0  0  0  0  0999 V2000
   23.4557   71.9084   -3.2536 P   0  0  2  0  0  0  0  0  0  0  0  0
   24.1538   72.9769   -4.2485 O   0  0  0  0  0  0  0  0  0  0  0  0
   24.2453   70.6548   -3.0153 O   0  0  0  0  0  0  0  0  0  0  0  0
   21.9791   71.7000   -3.8815 O   0  0  0  0  0  0  0  0  0  0  0  0
   21.5597   72.5619   -4.9234 C   0  0  0  0  0  0  0  0  0  0  0  0
   20.6746   70.5644   -5.9255 O   0  0  0  0  0  0  0  0  0  0  0  0
   21.0600   71.9394   -8.5622 O   0  0  0  0  0  0  0  0  0  0  0  0
   18.3877   72.2468   -8.1149 O   0  0  0  0  0  0  0  0  0  0  0  0
   20.6673   72.4900   -7.3048 C   0  0  1  0  0  0  0  0  0  0  0  0
   19.2344   72.1139   -6.9924 C   0  0  2  0  0  0  0  0  0  0  0  0
   21.4343   71.7587   -6.2116 C   0  0  1  0  0  0  0  0  0  0  0  0
   19.3791   70.6720   -6.5365 C   0  0  2  0  0  0  0  0  0  0  0  0
   20.5829   72.3909   -9.2765 H   0  0  0  0  0  0  0  0  0  0  0  0
   18.3281   73.1825   -8.3659 H   0  0  0  0  0  0  0  0  0  0  0  0
   16.7699   69.8223   -7.2048 O   0  0  0  0  0  0  0  0  0  0  0  0
   15.6223   69.2591   -2.7765 O   0  0  0  0  0  0  0  0  0  0  0  0
   18.3782   70.2973   -5.5781 N   0  0  0  0  0  0  0  0  0  0  0  0
   16.2005   69.5436   -4.9986 N   0  0  0  0  0  0  0  0  0  0  0  0
   17.0983   69.8852   -6.0186 C   0  0  0  0  0  0  0  0  0  0  0  0
   18.6687   70.3384   -4.2198 C   0  0  0  0  0  0  0  0  0  0  0  0
   17.8026   70.0096   -3.2593 C   0  0  0  0  0  0  0  0  0  0  0  0
   16.4430   69.5691   -3.6347 C   0  0  0  0  0  0  0  0  0  0  0  0
   15.3023   69.2555   -5.2807 H   0  0  0  0  0  0  0  0  0  0  0  0
   23.1658   72.7841   -1.9262 O   0  0  0  0  0  0  0  0  0  0  0  0
   22.0238   72.6439   -0.7906 P   0  0  2  0  0  0  0  0  0  0  0  0
   21.8020   71.0439   -0.6846 O   0  0  0  0  0  0  0  0  0  0  0  0
   20.7730   73.4240   -1.0754 O   0  0  0  0  0  0  0  0  0  0  0  0
   22.7638   73.0444    0.5858 O   0  0  0  0  0  0  0  0  0  0  0  0
   24.5967   72.2431    1.8537 O   0  0  0  0  0  0  0  0  0  0  0  0
   21.7867   72.9572    4.7968 O   0  0  0  0  0  0  0  0  0  0  0  0
   21.0048   71.7070    2.2749 O   0  0  0  0  0  0  0  0  0  0  0  0
   24.0099   74.7931    4.4257 O   0  0  0  0  0  0  0  0  0  0  0  0
   22.4554   73.1718    3.5539 C   0  0  2  0  0  0  0  0  0  0  0  0
   22.3495   71.9136    2.6918 C   0  0  2  0  0  0  0  0  0  0  0  0
   23.9220   73.4891    3.8546 C   0  0  1  0  0  0  0  0  0  0  0  0
   23.2434   72.0206    1.4556 C   0  0  1  0  0  0  0  0  0  0  0  0
   24.7709   73.4534    2.5871 C   0  0  1  0  0  0  0  0  0  0  0  0
   20.8527   72.7539    4.6307 H   0  0  0  0  0  0  0  0  0  0  0  0
   20.4320   71.6384    3.0543 H   0  0  0  0  0  0  0  0  0  0  0  0
   23.4737   74.8293    5.2333 H   0  0  0  0  0  0  0  0  0  0  0  0
   26.6611   74.6810    3.2365 O   0  0  0  0  0  0  0  0  0  0  0  0
   26.9343   72.4391    2.9226 O   0  0  0  0  0  0  0  0  0  0  0  0
   26.2264   73.4351    2.9238 C   0  0  0  0  0  0  0  0  0  0  0  0
  1  4  1  0
  1 24  1  0
  1  2  1  6
  1  3  2  0
 25 28  1  0
 25 24  1  0
 25 26  1  1
 25 27  2  0
  6 11  1  0
  6 12  1  0
 29 36  1  0
 29 37  1  0
  9  7  1  6
  7 13  1  0
 10  8  1  6
  8 14  1  0
  4  5  1  0
 36 28  1  6
 33 30  1  1
 30 38  1  0
 34 31  1  6
 31 39  1  0
 35 32  1  6
 32 40  1  0
 41 43  1  0
 15 19  2  0
 42 43  2  0
 16 22  2  0
 12 17  1  1
 17 19  1  0
 17 20  1  0
 18 19  1  0
 18 22  1  0
 18 23  1  0
  9 10  1  0
  9 11  1  0
 10 12  1  0
 11  5  1  1
 33 34  1  0
 33 35  1  0
 34 36  1  0
 35 37  1  0
 37 43  1  1
 20 21  2  0
 21 22  1  0
M  CHG  3   2  -1  26  -1  41  -1
M  END
>  <COMPND>  (378) 
    udp_gluA.pdb 

>  <AUTHOR>  (378) 
    GENERATED BY OPEN BABEL 3.1.1

>  <MASTER>  (378) 
        0    0    0    0    0    0    0    0   56    0   56    0

>  <minimizedAffinity>  (378) 
-7.84872

>  <CNNscore>  (378) 
0.6184782982

>  <CNNaffinity>  (378) 
4.3506064415

>  <CNN_VS>  (378) 
2.6907556057

>  <CNNaffinity_variance>  (378) 
0.1009152308

$$$$
379
     RDKit          3D

 43 45  0  0  0  0  0  0  0  0999 V2000
   21.0195   73.3461   -4.1091 P   0  0  2  0  0  0  0  0  0  0  0  0
   21.1654   71.9596   -3.2874 O   0  0  0  0  0  0  0  0  0  0  0  0
   19.7381   74.0906   -3.8731 O   0  0  0  0  0  0  0  0  0  0  0  0
   21.3132   72.9216   -5.6426 O   0  0  0  0  0  0  0  0  0  0  0  0
   20.2168   72.7821   -6.5274 C   0  0  0  0  0  0  0  0  0  0  0  0
   19.7193   70.4949   -5.9804 O   0  0  0  0  0  0  0  0  0  0  0  0
   19.6097   70.0065   -8.9369 O   0  0  0  0  0  0  0  0  0  0  0  0
   16.9728   70.1718   -8.2621 O   0  0  0  0  0  0  0  0  0  0  0  0
   19.1961   71.1539   -8.1946 C   0  0  1  0  0  0  0  0  0  0  0  0
   17.9050   70.8646   -7.4586 C   0  0  2  0  0  0  0  0  0  0  0  0
   20.1788   71.3512   -7.0485 C   0  0  1  0  0  0  0  0  0  0  0  0
   18.3917   70.0366   -6.2815 C   0  0  2  0  0  0  0  0  0  0  0  0
   18.9967   69.8602   -9.6748 H   0  0  0  0  0  0  0  0  0  0  0  0
   16.6935   70.7409   -8.9970 H   0  0  0  0  0  0  0  0  0  0  0  0
   16.2382   68.3397   -5.6035 O   0  0  0  0  0  0  0  0  0  0  0  0
   15.2939   70.7575   -1.7947 O   0  0  0  0  0  0  0  0  0  0  0  0
   17.5664   70.1996   -5.1183 N   0  0  0  0  0  0  0  0  0  0  0  0
   15.7693   69.5461   -3.7077 N   0  0  0  0  0  0  0  0  0  0  0  0
   16.5099   69.2919   -4.8696 C   0  0  0  0  0  0  0  0  0  0  0  0
   17.8076   71.2474   -4.2381 C   0  0  0  0  0  0  0  0  0  0  0  0
   17.0932   71.4769   -3.1345 C   0  0  0  0  0  0  0  0  0  0  0  0
   15.9707   70.5752   -2.8022 C   0  0  0  0  0  0  0  0  0  0  0  0
   15.0272   68.9287   -3.5145 H   0  0  0  0  0  0  0  0  0  0  0  0
   22.3552   74.1562   -3.6941 O   0  0  0  0  0  0  0  0  0  0  0  0
   23.8635   73.6448   -3.4160 P   0  0  2  0  0  0  0  0  0  0  0  0
   24.7429   74.9975   -3.5477 O   0  0  0  0  0  0  0  0  0  0  0  0
   24.3100   72.5271   -4.3133 O   0  0  0  0  0  0  0  0  0  0  0  0
   23.8923   73.2920   -1.8421 O   0  0  0  0  0  0  0  0  0  0  0  0
   22.1146   73.0485   -0.2963 O   0  0  0  0  0  0  0  0  0  0  0  0
   25.1112   74.5763    2.1026 O   0  0  0  0  0  0  0  0  0  0  0  0
   24.6728   75.6449   -0.5808 O   0  0  0  0  0  0  0  0  0  0  0  0
   24.4224   71.7557    2.2463 O   0  0  0  0  0  0  0  0  0  0  0  0
   24.5656   73.8240    1.0189 C   0  0  2  0  0  0  0  0  0  0  0  0
   23.7871   74.7558    0.0898 C   0  0  2  0  0  0  0  0  0  0  0  0
   23.6366   72.7578    1.6038 C   0  0  1  0  0  0  0  0  0  0  0  0
   22.9998   73.9582   -0.9508 C   0  0  1  0  0  0  0  0  0  0  0  0
   22.7951   72.0952    0.5169 C   0  0  1  0  0  0  0  0  0  0  0  0
   25.7050   75.2603    1.7550 H   0  0  0  0  0  0  0  0  0  0  0  0
   25.1758   76.1541    0.0735 H   0  0  0  0  0  0  0  0  0  0  0  0
   24.9630   72.1643    2.9403 H   0  0  0  0  0  0  0  0  0  0  0  0
   21.4104   71.7384    2.3762 O   0  0  0  0  0  0  0  0  0  0  0  0
   21.0773   70.4014    0.5594 O   0  0  0  0  0  0  0  0  0  0  0  0
   21.6766   71.3079    1.1181 C   0  0  0  0  0  0  0  0  0  0  0  0
  1  4  1  0
  1 24  1  0
  1  2  1  1
  1  3  2  0
 25 28  1  0
 25 24  1  0
 25 26  1  1
 25 27  2  0
  6 11  1  0
  6 12  1  0
 29 36  1  0
 29 37  1  0
  9  7  1  6
  7 13  1  0
 10  8  1  6
  8 14  1  0
  4  5  1  0
 36 28  1  6
 33 30  1  1
 30 38  1  0
 34 31  1  6
 31 39  1  0
 35 32  1  6
 32 40  1  0
 41 43  1  0
 15 19  2  0
 42 43  2  0
 16 22  2  0
 12 17  1  1
 17 19  1  0
 17 20  1  0
 18 19  1  0
 18 22  1  0
 18 23  1  0
  9 10  1  0
  9 11  1  0
 10 12  1  0
 11  5  1  1
 33 34  1  0
 33 35  1  0
 34 36  1  0
 35 37  1  0
 37 43  1  1
 20 21  2  0
 21 22  1  0
M  CHG  3   2  -1  26  -1  41  -1
M  END
>  <COMPND>  (379) 
    udp_gluA.pdb 

>  <AUTHOR>  (379) 
    GENERATED BY OPEN BABEL 3.1.1

>  <MASTER>  (379) 
        0    0    0    0    0    0    0    0   56    0   56    0

>  <minimizedAffinity>  (379) 
-6.70313

>  <CNNscore>  (379) 
0.5935000777

>  <CNNaffinity>  (379) 
4.2652664185

>  <CNN_VS>  (379) 
2.5314359665

>  <CNNaffinity_variance>  (379) 
0.2110835612

$$$$
380
     RDKit          3D

 43 45  0  0  0  0  0  0  0  0999 V2000
   21.6803   72.6806   -5.5461 P   0  0  2  0  0  0  0  0  0  0  0  0
   21.1745   74.2139   -5.6563 O   0  0  0  0  0  0  0  0  0  0  0  0
   23.0380   72.4180   -6.1287 O   0  0  0  0  0  0  0  0  0  0  0  0
   20.4646   71.8238   -6.1832 O   0  0  0  0  0  0  0  0  0  0  0  0
   20.0226   72.1452   -7.4892 C   0  0  0  0  0  0  0  0  0  0  0  0
   18.9083   70.0534   -7.0888 O   0  0  0  0  0  0  0  0  0  0  0  0
   18.1533   70.1132   -9.9902 O   0  0  0  0  0  0  0  0  0  0  0  0
   15.8651   70.9444   -8.7617 O   0  0  0  0  0  0  0  0  0  0  0  0
   18.2649   71.1932   -9.0631 C   0  0  1  0  0  0  0  0  0  0  0  0
   17.0922   71.1854   -8.1055 C   0  0  2  0  0  0  0  0  0  0  0  0
   19.4355   70.8970   -8.1356 C   0  0  1  0  0  0  0  0  0  0  0  0
   17.4733   70.0681   -7.1493 C   0  0  2  0  0  0  0  0  0  0  0  0
   17.4118   70.2799  -10.5935 H   0  0  0  0  0  0  0  0  0  0  0  0
   15.6669   71.6837   -9.3585 H   0  0  0  0  0  0  0  0  0  0  0  0
   16.2884   68.0517   -5.5661 O   0  0  0  0  0  0  0  0  0  0  0  0
   15.5092   70.9810   -2.0939 O   0  0  0  0  0  0  0  0  0  0  0  0
   16.9524   70.2763   -5.8278 N   0  0  0  0  0  0  0  0  0  0  0  0
   15.9005   69.5128   -3.8387 N   0  0  0  0  0  0  0  0  0  0  0  0
   16.3772   69.1962   -5.1176 C   0  0  0  0  0  0  0  0  0  0  0  0
   17.0156   71.5377   -5.2482 C   0  0  0  0  0  0  0  0  0  0  0  0
   16.5571   71.8241   -4.0281 C   0  0  0  0  0  0  0  0  0  0  0  0
   15.9404   70.7518   -3.2199 C   0  0  0  0  0  0  0  0  0  0  0  0
   15.4938   68.7774   -3.3257 H   0  0  0  0  0  0  0  0  0  0  0  0
   21.5545   72.3697   -3.9649 O   0  0  0  0  0  0  0  0  0  0  0  0
   21.8918   71.0363   -3.1152 P   0  0  2  0  0  0  0  0  0  0  0  0
   23.5089   70.9736   -3.1519 O   0  0  0  0  0  0  0  0  0  0  0  0
   21.2132   69.7961   -3.6204 O   0  0  0  0  0  0  0  0  0  0  0  0
   21.5338   71.4214   -1.5901 O   0  0  0  0  0  0  0  0  0  0  0  0
   23.1387   72.9263   -0.7132 O   0  0  0  0  0  0  0  0  0  0  0  0
   20.7489   72.2305    2.5842 O   0  0  0  0  0  0  0  0  0  0  0  0
   21.5138   70.0318    0.8192 O   0  0  0  0  0  0  0  0  0  0  0  0
   20.5278   74.7346    1.1241 O   0  0  0  0  0  0  0  0  0  0  0  0
   21.0409   72.3816    1.1950 C   0  0  2  0  0  0  0  0  0  0  0  0
   22.0759   71.3382    0.7732 C   0  0  2  0  0  0  0  0  0  0  0  0
   21.5897   73.7936    0.9779 C   0  0  1  0  0  0  0  0  0  0  0  0
   22.5834   71.6125   -0.6431 C   0  0  1  0  0  0  0  0  0  0  0  0
   22.1910   73.9494   -0.4159 C   0  0  1  0  0  0  0  0  0  0  0  0
   20.3987   71.3404    2.7462 H   0  0  0  0  0  0  0  0  0  0  0  0
   21.1895   69.8512    1.7151 H   0  0  0  0  0  0  0  0  0  0  0  0
   20.1363   74.6457    2.0071 H   0  0  0  0  0  0  0  0  0  0  0  0
   24.2879   74.9100   -0.8419 O   0  0  0  0  0  0  0  0  0  0  0  0
   22.5839   76.3274   -0.3067 O   0  0  0  0  0  0  0  0  0  0  0  0
   23.0063   75.1982   -0.5053 C   0  0  0  0  0  0  0  0  0  0  0  0
  1  4  1  0
  1 24  1  0
  1  2  1  1
  1  3  2  0
 25 28  1  0
 25 24  1  0
 25 26  1  1
 25 27  2  0
  6 11  1  0
  6 12  1  0
 29 36  1  0
 29 37  1  0
  9  7  1  6
  7 13  1  0
 10  8  1  6
  8 14  1  0
  4  5  1  0
 36 28  1  6
 33 30  1  1
 30 38  1  0
 34 31  1  6
 31 39  1  0
 35 32  1  6
 32 40  1  0
 41 43  1  0
 15 19  2  0
 42 43  2  0
 16 22  2  0
 12 17  1  1
 17 19  1  0
 17 20  1  0
 18 19  1  0
 18 22  1  0
 18 23  1  0
  9 10  1  0
  9 11  1  0
 10 12  1  0
 11  5  1  1
 33 34  1  0
 33 35  1  0
 34 36  1  0
 35 37  1  0
 37 43  1  1
 20 21  2  0
 21 22  1  0
M  CHG  3   2  -1  26  -1  41  -1
M  END
>  <COMPND>  (380) 
    udp_gluA.pdb 

>  <AUTHOR>  (380) 
    GENERATED BY OPEN BABEL 3.1.1

>  <MASTER>  (380) 
        0    0    0    0    0    0    0    0   56    0   56    0

>  <minimizedAffinity>  (380) 
-7.72933

>  <CNNscore>  (380) 
0.5836409926

>  <CNNaffinity>  (380) 
4.5296735764

>  <CNN_VS>  (380) 
2.6437032223

>  <CNNaffinity_variance>  (380) 
0.1729898751

$$$$
381
     RDKit          3D

 43 45  0  0  0  0  0  0  0  0999 V2000
   21.6687   71.6656   -3.2215 P   0  0  2  0  0  0  0  0  0  0  0  0
   21.2292   73.2103   -3.4208 O   0  0  0  0  0  0  0  0  0  0  0  0
   23.1325   71.3942   -3.4093 O   0  0  0  0  0  0  0  0  0  0  0  0
   20.6715   70.8487   -4.1994 O   0  0  0  0  0  0  0  0  0  0  0  0
   19.7982   69.8918   -3.6282 C   0  0  0  0  0  0  0  0  0  0  0  0
   18.1799   71.2434   -4.7822 O   0  0  0  0  0  0  0  0  0  0  0  0
   16.1281   69.9828   -2.9954 O   0  0  0  0  0  0  0  0  0  0  0  0
   15.8243   68.5953   -5.3232 O   0  0  0  0  0  0  0  0  0  0  0  0
   17.3013   69.4073   -3.5707 C   0  0  1  0  0  0  0  0  0  0  0  0
   17.0911   69.1561   -5.0489 C   0  0  2  0  0  0  0  0  0  0  0  0
   18.3903   70.4714   -3.5801 C   0  0  1  0  0  0  0  0  0  0  0  0
   17.2522   70.5498   -5.6317 C   0  0  2  0  0  0  0  0  0  0  0  0
   15.4181   69.3215   -2.9786 H   0  0  0  0  0  0  0  0  0  0  0  0
   15.7716   67.7088   -4.9317 H   0  0  0  0  0  0  0  0  0  0  0  0
   15.6612   70.3480   -7.9564 O   0  0  0  0  0  0  0  0  0  0  0  0
   19.3520   70.4732  -10.7143 O   0  0  0  0  0  0  0  0  0  0  0  0
   17.7714   70.5274   -6.9699 N   0  0  0  0  0  0  0  0  0  0  0  0
   17.5010   70.4095   -9.3277 N   0  0  0  0  0  0  0  0  0  0  0  0
   16.8862   70.4232   -8.0688 C   0  0  0  0  0  0  0  0  0  0  0  0
   19.1420   70.6099   -7.1836 C   0  0  0  0  0  0  0  0  0  0  0  0
   19.7133   70.5958   -8.3895 C   0  0  0  0  0  0  0  0  0  0  0  0
   18.8591   70.4884   -9.5904 C   0  0  0  0  0  0  0  0  0  0  0  0
   16.9052   70.3356  -10.1080 H   0  0  0  0  0  0  0  0  0  0  0  0
   21.1021   71.3143   -1.7490 O   0  0  0  0  0  0  0  0  0  0  0  0
   21.6595   71.6922   -0.2792 P   0  0  2  0  0  0  0  0  0  0  0  0
   23.0274   70.8335   -0.1703 O   0  0  0  0  0  0  0  0  0  0  0  0
   20.6823   71.4425    0.8329 O   0  0  0  0  0  0  0  0  0  0  0  0
   22.1494   73.2238   -0.4086 O   0  0  0  0  0  0  0  0  0  0  0  0
   24.3132   73.7674   -1.2033 O   0  0  0  0  0  0  0  0  0  0  0  0
   23.2488   77.2344    0.7753 O   0  0  0  0  0  0  0  0  0  0  0  0
   22.6562   74.6222    1.9416 O   0  0  0  0  0  0  0  0  0  0  0  0
   23.1926   77.1361   -2.1295 O   0  0  0  0  0  0  0  0  0  0  0  0
   23.0258   76.0478    0.0135 C   0  0  2  0  0  0  0  0  0  0  0  0
   23.4955   74.8314    0.8118 C   0  0  2  0  0  0  0  0  0  0  0  0
   23.8180   76.1671   -1.2903 C   0  0  1  0  0  0  0  0  0  0  0  0
   23.4868   73.5715   -0.0551 C   0  0  1  0  0  0  0  0  0  0  0  0
   23.8682   74.8363   -2.0354 C   0  0  1  0  0  0  0  0  0  0  0  0
   22.7550   77.1812    1.6088 H   0  0  0  0  0  0  0  0  0  0  0  0
   22.6568   75.4179    2.4960 H   0  0  0  0  0  0  0  0  0  0  0  0
   23.1542   77.9878   -1.6669 H   0  0  0  0  0  0  0  0  0  0  0  0
   25.6161   76.0216   -3.0559 O   0  0  0  0  0  0  0  0  0  0  0  0
   25.0805   73.9902   -3.9422 O   0  0  0  0  0  0  0  0  0  0  0  0
   24.8995   74.8719   -3.1159 C   0  0  0  0  0  0  0  0  0  0  0  0
  1  4  1  0
  1 24  1  0
  1  2  1  6
  1  3  2  0
 25 28  1  0
 25 24  1  0
 25 26  1  1
 25 27  2  0
  6 11  1  0
  6 12  1  0
 29 36  1  0
 29 37  1  0
  9  7  1  6
  7 13  1  0
 10  8  1  1
  8 14  1  0
  4  5  1  0
 36 28  1  6
 33 30  1  1
 30 38  1  0
 34 31  1  1
 31 39  1  0
 35 32  1  6
 32 40  1  0
 41 43  1  0
 15 19  2  0
 42 43  2  0
 16 22  2  0
 12 17  1  6
 17 19  1  0
 17 20  1  0
 18 19  1  0
 18 22  1  0
 18 23  1  0
  9 10  1  0
  9 11  1  0
 10 12  1  0
 11  5  1  6
 33 34  1  0
 33 35  1  0
 34 36  1  0
 35 37  1  0
 37 43  1  6
 20 21  2  0
 21 22  1  0
M  CHG  3   2  -1  26  -1  41  -1
M  END
>  <COMPND>  (381) 
    udp_gluA.pdb 

>  <AUTHOR>  (381) 
    GENERATED BY OPEN BABEL 3.1.1

>  <MASTER>  (381) 
        0    0    0    0    0    0    0    0   56    0   56    0

>  <minimizedAffinity>  (381) 
-6.91939

>  <CNNscore>  (381) 
0.9473824501

>  <CNNaffinity>  (381) 
4.8736505508

>  <CNN_VS>  (381) 
4.6172108650

>  <CNNaffinity_variance>  (381) 
0.1711554825

$$$$
382
     RDKit          3D

 43 45  0  0  0  0  0  0  0  0999 V2000
   22.7090   71.4048   -2.7579 P   0  0  2  0  0  0  0  0  0  0  0  0
   22.7279   73.0064   -2.5267 O   0  0  0  0  0  0  0  0  0  0  0  0
   24.0488   70.7891   -3.0369 O   0  0  0  0  0  0  0  0  0  0  0  0
   21.5854   71.1907   -3.9023 O   0  0  0  0  0  0  0  0  0  0  0  0
   20.6602   70.1297   -3.7513 C   0  0  0  0  0  0  0  0  0  0  0  0
   18.8792   71.4331   -4.7036 O   0  0  0  0  0  0  0  0  0  0  0  0
   17.1263   70.2488   -2.5785 O   0  0  0  0  0  0  0  0  0  0  0  0
   16.4843   68.7660   -4.7752 O   0  0  0  0  0  0  0  0  0  0  0  0
   18.2030   69.6493   -3.2994 C   0  0  1  0  0  0  0  0  0  0  0  0
   17.7747   69.3371   -4.7176 C   0  0  2  0  0  0  0  0  0  0  0  0
   19.2722   70.7115   -3.5161 C   0  0  1  0  0  0  0  0  0  0  0  0
   17.8385   70.7053   -5.3748 C   0  0  2  0  0  0  0  0  0  0  0  0
   16.4306   69.5891   -2.4280 H   0  0  0  0  0  0  0  0  0  0  0  0
   16.4960   67.8966   -4.3441 H   0  0  0  0  0  0  0  0  0  0  0  0
   15.9263   70.3174   -7.4168 O   0  0  0  0  0  0  0  0  0  0  0  0
   19.1514   70.4214  -10.7081 O   0  0  0  0  0  0  0  0  0  0  0  0
   18.1510   70.6272   -6.7738 N   0  0  0  0  0  0  0  0  0  0  0  0
   17.5345   70.3686   -9.0540 N   0  0  0  0  0  0  0  0  0  0  0  0
   17.1160   70.4302   -7.7183 C   0  0  0  0  0  0  0  0  0  0  0  0
   19.4689   70.7468   -7.1978 C   0  0  0  0  0  0  0  0  0  0  0  0
   19.8524   70.6861   -8.4745 C   0  0  0  0  0  0  0  0  0  0  0  0
   18.8328   70.4814   -9.5243 C   0  0  0  0  0  0  0  0  0  0  0  0
   16.8320   70.2299   -9.7297 H   0  0  0  0  0  0  0  0  0  0  0  0
   21.9794   70.8542   -1.4247 O   0  0  0  0  0  0  0  0  0  0  0  0
   22.2775   71.1316    0.1398 P   0  0  2  0  0  0  0  0  0  0  0  0
   23.8782   71.3704    0.1747 O   0  0  0  0  0  0  0  0  0  0  0  0
   21.7936   70.0488    1.0603 O   0  0  0  0  0  0  0  0  0  0  0  0
   21.6425   72.5867    0.4258 O   0  0  0  0  0  0  0  0  0  0  0  0
   22.4911   74.6504    1.2196 O   0  0  0  0  0  0  0  0  0  0  0  0
   18.8304   74.4580    3.1251 O   0  0  0  0  0  0  0  0  0  0  0  0
   20.5200   72.0835    2.9204 O   0  0  0  0  0  0  0  0  0  0  0  0
   19.1961   76.2197    0.8418 O   0  0  0  0  0  0  0  0  0  0  0  0
   19.7644   74.2266    2.0705 C   0  0  2  0  0  0  0  0  0  0  0  0
   20.9400   73.4045    2.5992 C   0  0  2  0  0  0  0  0  0  0  0  0
   20.2509   75.5859    1.5630 C   0  0  1  0  0  0  0  0  0  0  0  0
   22.0654   73.3320    1.5662 C   0  0  1  0  0  0  0  0  0  0  0  0
   21.4542   75.4365    0.6365 C   0  0  1  0  0  0  0  0  0  0  0  0
   18.5075   73.6080    3.4635 H   0  0  0  0  0  0  0  0  0  0  0  0
   19.8058   72.1220    3.5752 H   0  0  0  0  0  0  0  0  0  0  0  0
   18.4240   76.3206    1.4202 H   0  0  0  0  0  0  0  0  0  0  0  0
   21.3033   77.5919   -0.2761 O   0  0  0  0  0  0  0  0  0  0  0  0
   23.2407   77.0501    0.7973 O   0  0  0  0  0  0  0  0  0  0  0  0
   22.1187   76.7559    0.4132 C   0  0  0  0  0  0  0  0  0  0  0  0
  1  4  1  0
  1 24  1  0
  1  2  1  1
  1  3  2  0
 25 28  1  0
 25 24  1  0
 25 26  1  6
 25 27  2  0
  6 11  1  0
  6 12  1  0
 29 36  1  0
 29 37  1  0
  9  7  1  1
  7 13  1  0
 10  8  1  1
  8 14  1  0
  4  5  1  0
 36 28  1  6
 33 30  1  1
 30 38  1  0
 34 31  1  6
 31 39  1  0
 35 32  1  6
 32 40  1  0
 41 43  1  0
 15 19  2  0
 42 43  2  0
 16 22  2  0
 12 17  1  6
 17 19  1  0
 17 20  1  0
 18 19  1  0
 18 22  1  0
 18 23  1  0
  9 10  1  0
  9 11  1  0
 10 12  1  0
 11  5  1  6
 33 34  1  0
 33 35  1  0
 34 36  1  0
 35 37  1  0
 37 43  1  1
 20 21  2  0
 21 22  1  0
M  CHG  3   2  -1  26  -1  41  -1
M  END
>  <COMPND>  (382) 
    udp_gluA.pdb 

>  <AUTHOR>  (382) 
    GENERATED BY OPEN BABEL 3.1.1

>  <MASTER>  (382) 
        0    0    0    0    0    0    0    0   56    0   56    0

>  <minimizedAffinity>  (382) 
-7.62321

>  <CNNscore>  (382) 
0.9220571518

>  <CNNaffinity>  (382) 
4.8371934891

>  <CNN_VS>  (382) 
4.4601688385

>  <CNNaffinity_variance>  (382) 
0.0527663454

$$$$
383
     RDKit          3D

 43 45  0  0  0  0  0  0  0  0999 V2000
   21.5000   71.4775   -3.4004 P   0  0  2  0  0  0  0  0  0  0  0  0
   22.7150   71.8202   -4.4129 O   0  0  0  0  0  0  0  0  0  0  0  0
   21.9040   70.7607   -2.1455 O   0  0  0  0  0  0  0  0  0  0  0  0
   20.4226   70.7101   -4.3321 O   0  0  0  0  0  0  0  0  0  0  0  0
   19.5550   69.7686   -3.7275 C   0  0  0  0  0  0  0  0  0  0  0  0
   17.9651   71.1111   -4.9307 O   0  0  0  0  0  0  0  0  0  0  0  0
   15.8610   69.7972   -3.2461 O   0  0  0  0  0  0  0  0  0  0  0  0
   15.6746   68.4358   -5.6015 O   0  0  0  0  0  0  0  0  0  0  0  0
   17.0656   69.2466   -3.7794 C   0  0  1  0  0  0  0  0  0  0  0  0
   16.9203   69.0116   -5.2680 C   0  0  2  0  0  0  0  0  0  0  0  0
   18.1377   70.3267   -3.7306 C   0  0  1  0  0  0  0  0  0  0  0  0
   17.0840   70.4149   -5.8264 C   0  0  2  0  0  0  0  0  0  0  0  0
   15.1611   69.1254   -3.2669 H   0  0  0  0  0  0  0  0  0  0  0  0
   15.6193   67.5436   -5.2235 H   0  0  0  0  0  0  0  0  0  0  0  0
   15.5952   70.6417   -8.2156 O   0  0  0  0  0  0  0  0  0  0  0  0
   19.3923   70.4138  -10.8183 O   0  0  0  0  0  0  0  0  0  0  0  0
   17.6582   70.4177   -7.1421 N   0  0  0  0  0  0  0  0  0  0  0  0
   17.4877   70.5270   -9.5096 N   0  0  0  0  0  0  0  0  0  0  0  0
   16.8216   70.5366   -8.2771 C   0  0  0  0  0  0  0  0  0  0  0  0
   19.0343   70.3053   -7.2986 C   0  0  0  0  0  0  0  0  0  0  0  0
   19.6547   70.2978   -8.4800 C   0  0  0  0  0  0  0  0  0  0  0  0
   18.8533   70.4168   -9.7157 C   0  0  0  0  0  0  0  0  0  0  0  0
   16.9260   70.6064  -10.3144 H   0  0  0  0  0  0  0  0  0  0  0  0
   20.8104   72.9196   -3.1598 O   0  0  0  0  0  0  0  0  0  0  0  0
   21.4452   74.3391   -2.7175 P   0  0  2  0  0  0  0  0  0  0  0  0
   20.1495   75.2010   -2.2719 O   0  0  0  0  0  0  0  0  0  0  0  0
   22.2889   74.9922   -3.7737 O   0  0  0  0  0  0  0  0  0  0  0  0
   22.2216   74.0283   -1.3380 O   0  0  0  0  0  0  0  0  0  0  0  0
   21.6820   72.5095    0.3973 O   0  0  0  0  0  0  0  0  0  0  0  0
   23.5424   75.5485    2.4882 O   0  0  0  0  0  0  0  0  0  0  0  0
   21.6512   76.1651    0.3487 O   0  0  0  0  0  0  0  0  0  0  0  0
   24.9493   73.0570    1.9745 O   0  0  0  0  0  0  0  0  0  0  0  0
   23.2946   74.6997    1.3674 C   0  0  2  0  0  0  0  0  0  0  0  0
   21.8470   74.8707    0.9061 C   0  0  2  0  0  0  0  0  0  0  0  0
   23.5471   73.2547    1.8036 C   0  0  1  0  0  0  0  0  0  0  0  0
   21.4779   73.8172   -0.1392 C   0  0  1  0  0  0  0  0  0  0  0  0
   23.0377   72.2616    0.7630 C   0  0  1  0  0  0  0  0  0  0  0  0
   23.3882   76.4722    2.2348 H   0  0  0  0  0  0  0  0  0  0  0  0
   21.8838   76.8385    1.0065 H   0  0  0  0  0  0  0  0  0  0  0  0
   25.2861   73.6831    2.6343 H   0  0  0  0  0  0  0  0  0  0  0  0
   21.7364   70.3637    1.2166 O   0  0  0  0  0  0  0  0  0  0  0  0
   23.9325   70.2887    1.8251 O   0  0  0  0  0  0  0  0  0  0  0  0
   22.9852   70.8800    1.3293 C   0  0  0  0  0  0  0  0  0  0  0  0
  1  4  1  0
  1 24  1  0
  1  2  1  6
  1  3  2  0
 25 28  1  0
 25 24  1  0
 25 26  1  1
 25 27  2  0
  6 11  1  0
  6 12  1  0
 29 36  1  0
 29 37  1  0
  9  7  1  6
  7 13  1  0
 10  8  1  1
  8 14  1  0
  4  5  1  0
 36 28  1  6
 33 30  1  1
 30 38  1  0
 34 31  1  6
 31 39  1  0
 35 32  1  6
 32 40  1  0
 41 43  1  0
 15 19  2  0
 42 43  2  0
 16 22  2  0
 12 17  1  6
 17 19  1  0
 17 20  1  0
 18 19  1  0
 18 22  1  0
 18 23  1  0
  9 10  1  0
  9 11  1  0
 10 12  1  0
 11  5  1  6
 33 34  1  0
 33 35  1  0
 34 36  1  0
 35 37  1  0
 37 43  1  1
 20 21  2  0
 21 22  1  0
M  CHG  3   2  -1  26  -1  41  -1
M  END
>  <COMPND>  (383) 
    udp_gluA.pdb 

>  <AUTHOR>  (383) 
    GENERATED BY OPEN BABEL 3.1.1

>  <MASTER>  (383) 
        0    0    0    0    0    0    0    0   56    0   56    0

>  <minimizedAffinity>  (383) 
-7.40918

>  <CNNscore>  (383) 
0.9061188698

>  <CNNaffinity>  (383) 
4.7419462204

>  <CNN_VS>  (383) 
4.2967667580

>  <CNNaffinity_variance>  (383) 
0.0451244973

$$$$
384
     RDKit          3D

 43 45  0  0  0  0  0  0  0  0999 V2000
   23.1735   72.0289   -3.2676 P   0  0  2  0  0  0  0  0  0  0  0  0
   24.1778   72.5512   -4.4241 O   0  0  0  0  0  0  0  0  0  0  0  0
   23.7525   70.9975   -2.3441 O   0  0  0  0  0  0  0  0  0  0  0  0
   21.8469   71.5806   -4.0783 O   0  0  0  0  0  0  0  0  0  0  0  0
   21.1019   70.4766   -3.5982 C   0  0  0  0  0  0  0  0  0  0  0  0
   19.1476   71.5696   -4.4722 O   0  0  0  0  0  0  0  0  0  0  0  0
   17.6523   70.3037   -2.2022 O   0  0  0  0  0  0  0  0  0  0  0  0
   17.0224   68.6869   -4.3058 O   0  0  0  0  0  0  0  0  0  0  0  0
   18.7355   69.7827   -2.9729 C   0  0  1  0  0  0  0  0  0  0  0  0
   18.2525   69.3793   -4.3499 C   0  0  2  0  0  0  0  0  0  0  0  0
   19.6813   70.9327   -3.2912 C   0  0  1  0  0  0  0  0  0  0  0  0
   18.1428   70.7222   -5.0517 C   0  0  2  0  0  0  0  0  0  0  0  0
   17.0344   69.5871   -1.9866 H   0  0  0  0  0  0  0  0  0  0  0  0
   17.1449   67.8389   -3.8499 H   0  0  0  0  0  0  0  0  0  0  0  0
   16.1835   69.9639   -6.9391 O   0  0  0  0  0  0  0  0  0  0  0  0
   19.1434   70.3735  -10.4484 O   0  0  0  0  0  0  0  0  0  0  0  0
   18.3744   70.6225   -6.4649 N   0  0  0  0  0  0  0  0  0  0  0  0
   17.6598   70.1677   -8.6850 N   0  0  0  0  0  0  0  0  0  0  0  0
   17.3221   70.2326   -7.3268 C   0  0  0  0  0  0  0  0  0  0  0  0
   19.6308   70.9107   -6.9839 C   0  0  0  0  0  0  0  0  0  0  0  0
   19.9375   70.8444   -8.2810 C   0  0  0  0  0  0  0  0  0  0  0  0
   18.8950   70.4441   -9.2486 C   0  0  0  0  0  0  0  0  0  0  0  0
   16.9441   69.8965   -9.3043 H   0  0  0  0  0  0  0  0  0  0  0  0
   22.7112   73.3978   -2.5429 O   0  0  0  0  0  0  0  0  0  0  0  0
   23.5760   74.5931   -1.8816 P   0  0  2  0  0  0  0  0  0  0  0  0
   22.4423   75.5993   -1.3136 O   0  0  0  0  0  0  0  0  0  0  0  0
   24.5582   75.2339   -2.8188 O   0  0  0  0  0  0  0  0  0  0  0  0
   24.2372   73.9390   -0.5635 O   0  0  0  0  0  0  0  0  0  0  0  0
   22.5725   73.2091    0.9548 O   0  0  0  0  0  0  0  0  0  0  0  0
   26.0323   72.5147    3.1032 O   0  0  0  0  0  0  0  0  0  0  0  0
   25.7203   74.9702    1.5515 O   0  0  0  0  0  0  0  0  0  0  0  0
   24.6056   70.2977    1.8782 O   0  0  0  0  0  0  0  0  0  0  0  0
   25.2271   72.6250    1.9295 C   0  0  2  0  0  0  0  0  0  0  0  0
   24.6728   74.0457    1.8208 C   0  0  2  0  0  0  0  0  0  0  0  0
   24.0834   71.6147    2.0439 C   0  0  1  0  0  0  0  0  0  0  0  0
   23.6263   74.1411    0.7096 C   0  0  1  0  0  0  0  0  0  0  0  0
   23.0189   71.8551    0.9774 C   0  0  1  0  0  0  0  0  0  0  0  0
   26.7659   73.1476    3.0529 H   0  0  0  0  0  0  0  0  0  0  0  0
   26.3881   74.9148    2.2525 H   0  0  0  0  0  0  0  0  0  0  0  0
   25.2845   70.1320    2.5509 H   0  0  0  0  0  0  0  0  0  0  0  0
   20.8768   71.8891    1.9322 O   0  0  0  0  0  0  0  0  0  0  0  0
   21.5750   69.9224    1.0136 O   0  0  0  0  0  0  0  0  0  0  0  0
   21.7713   71.0957    1.2925 C   0  0  0  0  0  0  0  0  0  0  0  0
  1  4  1  0
  1 24  1  0
  1  2  1  6
  1  3  2  0
 25 28  1  0
 25 24  1  0
 25 26  1  1
 25 27  2  0
  6 11  1  0
  6 12  1  0
 29 36  1  0
 29 37  1  0
  9  7  1  1
  7 13  1  0
 10  8  1  1
  8 14  1  0
  4  5  1  0
 36 28  1  6
 33 30  1  1
 30 38  1  0
 34 31  1  6
 31 39  1  0
 35 32  1  6
 32 40  1  0
 41 43  1  0
 15 19  2  0
 42 43  2  0
 16 22  2  0
 12 17  1  6
 17 19  1  0
 17 20  1  0
 18 19  1  0
 18 22  1  0
 18 23  1  0
  9 10  1  0
  9 11  1  0
 10 12  1  0
 11  5  1  6
 33 34  1  0
 33 35  1  0
 34 36  1  0
 35 37  1  0
 37 43  1  1
 20 21  2  0
 21 22  1  0
M  CHG  3   2  -1  26  -1  41  -1
M  END
>  <COMPND>  (384) 
    udp_gluA.pdb 

>  <AUTHOR>  (384) 
    GENERATED BY OPEN BABEL 3.1.1

>  <MASTER>  (384) 
        0    0    0    0    0    0    0    0   56    0   56    0

>  <minimizedAffinity>  (384) 
-8.06687

>  <CNNscore>  (384) 
0.8986088634

>  <CNNaffinity>  (384) 
4.8681778908

>  <CNN_VS>  (384) 
4.3745880127

>  <CNNaffinity_variance>  (384) 
0.1368889064

$$$$
385
     RDKit          3D

 43 45  0  0  0  0  0  0  0  0999 V2000
   22.6863   71.4267   -2.7858 P   0  0  2  0  0  0  0  0  0  0  0  0
   22.6598   73.0250   -2.5336 O   0  0  0  0  0  0  0  0  0  0  0  0
   24.0403   70.8556   -3.0897 O   0  0  0  0  0  0  0  0  0  0  0  0
   21.5550   71.1933   -3.9187 O   0  0  0  0  0  0  0  0  0  0  0  0
   20.6280   70.1379   -3.7412 C   0  0  0  0  0  0  0  0  0  0  0  0
   18.8598   71.4507   -4.7045 O   0  0  0  0  0  0  0  0  0  0  0  0
   17.0884   70.2782   -2.5882 O   0  0  0  0  0  0  0  0  0  0  0  0
   16.4501   68.7973   -4.7872 O   0  0  0  0  0  0  0  0  0  0  0  0
   18.1657   69.6720   -3.3026 C   0  0  1  0  0  0  0  0  0  0  0  0
   17.7434   69.3610   -4.7229 C   0  0  2  0  0  0  0  0  0  0  0  0
   19.2421   70.7279   -3.5142 C   0  0  1  0  0  0  0  0  0  0  0  0
   17.8187   70.7282   -5.3809 C   0  0  2  0  0  0  0  0  0  0  0  0
   16.3881   69.6227   -2.4411 H   0  0  0  0  0  0  0  0  0  0  0  0
   16.4545   67.9282   -4.3553 H   0  0  0  0  0  0  0  0  0  0  0  0
   15.9173   70.3356   -7.4319 O   0  0  0  0  0  0  0  0  0  0  0  0
   19.1594   70.4331  -10.7066 O   0  0  0  0  0  0  0  0  0  0  0  0
   18.1385   70.6472   -6.7780 N   0  0  0  0  0  0  0  0  0  0  0  0
   17.5340   70.3835   -9.0608 N   0  0  0  0  0  0  0  0  0  0  0  0
   17.1085   70.4479   -7.7275 C   0  0  0  0  0  0  0  0  0  0  0  0
   19.4586   70.7661   -7.1954 C   0  0  0  0  0  0  0  0  0  0  0  0
   19.8487   70.7028   -8.4700 C   0  0  0  0  0  0  0  0  0  0  0  0
   18.8347   70.4956   -9.5247 C   0  0  0  0  0  0  0  0  0  0  0  0
   16.8350   70.2433   -9.7399 H   0  0  0  0  0  0  0  0  0  0  0  0
   21.9910   70.8371   -1.4510 O   0  0  0  0  0  0  0  0  0  0  0  0
   22.2943   71.1107    0.1132 P   0  0  2  0  0  0  0  0  0  0  0  0
   23.9065   71.2481    0.1588 O   0  0  0  0  0  0  0  0  0  0  0  0
   21.7359   70.0699    1.0400 O   0  0  0  0  0  0  0  0  0  0  0  0
   21.7505   72.6059    0.3802 O   0  0  0  0  0  0  0  0  0  0  0  0
   20.2496   73.1436    2.1315 O   0  0  0  0  0  0  0  0  0  0  0  0
   19.6528   76.2871   -0.4818 O   0  0  0  0  0  0  0  0  0  0  0  0
   19.9206   73.5569   -1.4861 O   0  0  0  0  0  0  0  0  0  0  0  0
   21.2042   76.6814    1.9448 O   0  0  0  0  0  0  0  0  0  0  0  0
   20.3978   75.2609    0.1736 C   0  0  2  0  0  0  0  0  0  0  0  0
   19.7601   73.9017   -0.1150 C   0  0  2  0  0  0  0  0  0  0  0  0
   20.3791   75.5493    1.6764 C   0  0  1  0  0  0  0  0  0  0  0  0
   20.3878   72.8080    0.7503 C   0  0  1  0  0  0  0  0  0  0  0  0
   20.9043   74.3619    2.4781 C   0  0  1  0  0  0  0  0  0  0  0  0
   19.6508   76.1248   -1.4384 H   0  0  0  0  0  0  0  0  0  0  0  0
   19.5248   74.2467   -2.0410 H   0  0  0  0  0  0  0  0  0  0  0  0
   20.8807   77.4441    1.4404 H   0  0  0  0  0  0  0  0  0  0  0  0
   19.5335   75.3614    4.0978 O   0  0  0  0  0  0  0  0  0  0  0  0
   21.1701   73.9591    4.8422 O   0  0  0  0  0  0  0  0  0  0  0  0
   20.5802   74.5160    3.9285 C   0  0  0  0  0  0  0  0  0  0  0  0
  1  4  1  0
  1 24  1  0
  1  2  1  1
  1  3  2  0
 25 28  1  0
 25 24  1  0
 25 26  1  6
 25 27  2  0
  6 11  1  0
  6 12  1  0
 29 36  1  0
 29 37  1  0
  9  7  1  1
  7 13  1  0
 10  8  1  1
  8 14  1  0
  4  5  1  0
 36 28  1  6
 33 30  1  6
 30 38  1  0
 34 31  1  6
 31 39  1  0
 35 32  1  6
 32 40  1  0
 41 43  1  0
 15 19  2  0
 42 43  2  0
 16 22  2  0
 12 17  1  6
 17 19  1  0
 17 20  1  0
 18 19  1  0
 18 22  1  0
 18 23  1  0
  9 10  1  0
  9 11  1  0
 10 12  1  0
 11  5  1  6
 33 34  1  0
 33 35  1  0
 34 36  1  0
 35 37  1  0
 37 43  1  1
 20 21  2  0
 21 22  1  0
M  CHG  3   2  -1  26  -1  41  -1
M  END
>  <COMPND>  (385) 
    udp_gluA.pdb 

>  <AUTHOR>  (385) 
    GENERATED BY OPEN BABEL 3.1.1

>  <MASTER>  (385) 
        0    0    0    0    0    0    0    0   56    0   56    0

>  <minimizedAffinity>  (385) 
-7.37589

>  <CNNscore>  (385) 
0.8982176185

>  <CNNaffinity>  (385) 
4.7245030403

>  <CNN_VS>  (385) 
4.2436318398

>  <CNNaffinity_variance>  (385) 
0.0498196855

$$$$
386
     RDKit          3D

 43 45  0  0  0  0  0  0  0  0999 V2000
   21.9341   73.0050   -5.5036 P   0  0  2  0  0  0  0  0  0  0  0  0
   21.3783   74.4525   -5.9671 O   0  0  0  0  0  0  0  0  0  0  0  0
   22.9684   72.4038   -6.4095 O   0  0  0  0  0  0  0  0  0  0  0  0
   20.5936   72.1254   -5.2865 O   0  0  0  0  0  0  0  0  0  0  0  0
   20.2510   71.7284   -3.9714 C   0  0  0  0  0  0  0  0  0  0  0  0
   18.1618   72.0745   -5.1084 O   0  0  0  0  0  0  0  0  0  0  0  0
   16.8758   70.7076   -2.7698 O   0  0  0  0  0  0  0  0  0  0  0  0
   16.9476   68.7325   -4.6486 O   0  0  0  0  0  0  0  0  0  0  0  0
   18.1335   70.4429   -3.3915 C   0  0  1  0  0  0  0  0  0  0  0  0
   17.9254   69.7491   -4.7209 C   0  0  2  0  0  0  0  0  0  0  0  0
   18.7362   71.7745   -3.8180 C   0  0  1  0  0  0  0  0  0  0  0  0
   17.5049   70.9022   -5.6161 C   0  0  2  0  0  0  0  0  0  0  0  0
   16.4714   69.8715   -2.4886 H   0  0  0  0  0  0  0  0  0  0  0  0
   17.2626   68.0218   -4.0675 H   0  0  0  0  0  0  0  0  0  0  0  0
   15.7787   71.2261   -7.8279 O   0  0  0  0  0  0  0  0  0  0  0  0
   19.1054   70.1163  -10.8188 O   0  0  0  0  0  0  0  0  0  0  0  0
   17.8938   70.7044   -6.9837 N   0  0  0  0  0  0  0  0  0  0  0  0
   17.4370   70.6721   -9.3153 N   0  0  0  0  0  0  0  0  0  0  0  0
   16.9495   70.8929   -8.0205 C   0  0  0  0  0  0  0  0  0  0  0  0
   19.1972   70.3297   -7.2868 C   0  0  0  0  0  0  0  0  0  0  0  0
   19.6471   70.1230   -8.5260 C   0  0  0  0  0  0  0  0  0  0  0  0
   18.7240   70.2979   -9.6665 C   0  0  0  0  0  0  0  0  0  0  0  0
   16.7974   70.7952  -10.0536 H   0  0  0  0  0  0  0  0  0  0  0  0
   22.4389   73.2771   -3.9924 O   0  0  0  0  0  0  0  0  0  0  0  0
   23.8009   72.8474   -3.2347 P   0  0  2  0  0  0  0  0  0  0  0  0
   24.9107   73.8322   -3.8820 O   0  0  0  0  0  0  0  0  0  0  0  0
   24.1315   71.3870   -3.3432 O   0  0  0  0  0  0  0  0  0  0  0  0
   23.6146   73.3812   -1.7238 O   0  0  0  0  0  0  0  0  0  0  0  0
   21.7475   72.7002   -0.4356 O   0  0  0  0  0  0  0  0  0  0  0  0
   23.0186   76.0451    1.6293 O   0  0  0  0  0  0  0  0  0  0  0  0
   22.9468   76.0463   -1.2912 O   0  0  0  0  0  0  0  0  0  0  0  0
   23.5665   73.3888    2.6755 O   0  0  0  0  0  0  0  0  0  0  0  0
   23.1679   74.8767    0.8229 C   0  0  2  0  0  0  0  0  0  0  0  0
   22.3665   75.0405   -0.4688 C   0  0  2  0  0  0  0  0  0  0  0  0
   22.6488   73.6801    1.6232 C   0  0  1  0  0  0  0  0  0  0  0  0
   22.3142   73.7271   -1.2505 C   0  0  1  0  0  0  0  0  0  0  0  0
   22.5059   72.4413    0.7437 C   0  0  1  0  0  0  0  0  0  0  0  0
   23.3421   76.8186    1.1412 H   0  0  0  0  0  0  0  0  0  0  0  0
   22.9834   76.8824   -0.8014 H   0  0  0  0  0  0  0  0  0  0  0  0
   23.6666   74.1693    3.2426 H   0  0  0  0  0  0  0  0  0  0  0  0
   21.1150   71.8914    2.5505 O   0  0  0  0  0  0  0  0  0  0  0  0
   21.5813   70.2346    1.0550 O   0  0  0  0  0  0  0  0  0  0  0  0
   21.7015   71.3894    1.4356 C   0  0  0  0  0  0  0  0  0  0  0  0
  1  4  1  0
  1 24  1  0
  1  2  1  6
  1  3  2  0
 25 28  1  0
 25 24  1  0
 25 26  1  6
 25 27  2  0
  6 11  1  0
  6 12  1  0
 29 36  1  0
 29 37  1  0
  9  7  1  6
  7 13  1  0
 10  8  1  1
  8 14  1  0
  4  5  1  0
 36 28  1  1
 33 30  1  1
 30 38  1  0
 34 31  1  6
 31 39  1  0
 35 32  1  1
 32 40  1  0
 41 43  1  0
 15 19  2  0
 42 43  2  0
 16 22  2  0
 12 17  1  6
 17 19  1  0
 17 20  1  0
 18 19  1  0
 18 22  1  0
 18 23  1  0
  9 10  1  0
  9 11  1  0
 10 12  1  0
 11  5  1  6
 33 34  1  0
 33 35  1  0
 34 36  1  0
 35 37  1  0
 37 43  1  1
 20 21  2  0
 21 22  1  0
M  CHG  3   2  -1  26  -1  41  -1
M  END
>  <COMPND>  (386) 
    udp_gluA.pdb 

>  <AUTHOR>  (386) 
    GENERATED BY OPEN BABEL 3.1.1

>  <MASTER>  (386) 
        0    0    0    0    0    0    0    0   56    0   56    0

>  <minimizedAffinity>  (386) 
-7.82160

>  <CNNscore>  (386) 
0.8718659878

>  <CNNaffinity>  (386) 
4.6912651062

>  <CNN_VS>  (386) 
4.0901546478

>  <CNNaffinity_variance>  (386) 
0.0493409745

$$$$
387
     RDKit          3D

 43 45  0  0  0  0  0  0  0  0999 V2000
   20.8645   71.0941   -1.7256 P   0  0  2  0  0  0  0  0  0  0  0  0
   20.2909   72.6006   -1.8677 O   0  0  0  0  0  0  0  0  0  0  0  0
   22.1385   70.8281   -2.4725 O   0  0  0  0  0  0  0  0  0  0  0  0
   19.6062   70.1598   -2.1276 O   0  0  0  0  0  0  0  0  0  0  0  0
   19.2119   70.1045   -3.4863 C   0  0  0  0  0  0  0  0  0  0  0  0
   17.6033   71.2954   -4.8174 O   0  0  0  0  0  0  0  0  0  0  0  0
   15.5042   69.8133   -3.2720 O   0  0  0  0  0  0  0  0  0  0  0  0
   15.6081   68.4261   -5.6174 O   0  0  0  0  0  0  0  0  0  0  0  0
   16.7875   69.3668   -3.7104 C   0  0  1  0  0  0  0  0  0  0  0  0
   16.7716   69.1106   -5.2025 C   0  0  2  0  0  0  0  0  0  0  0  0
   17.7555   70.5366   -3.5982 C   0  0  1  0  0  0  0  0  0  0  0  0
   16.8533   70.5194   -5.7652 C   0  0  2  0  0  0  0  0  0  0  0  0
   14.8685   69.0828   -3.3346 H   0  0  0  0  0  0  0  0  0  0  0  0
   15.6030   67.5349   -5.2332 H   0  0  0  0  0  0  0  0  0  0  0  0
   15.5328   70.4481   -8.2608 O   0  0  0  0  0  0  0  0  0  0  0  0
   19.5093   70.6966  -10.5779 O   0  0  0  0  0  0  0  0  0  0  0  0
   17.5191   70.5641   -7.0363 N   0  0  0  0  0  0  0  0  0  0  0  0
   17.5146   70.5709   -9.4124 N   0  0  0  0  0  0  0  0  0  0  0  0
   16.7626   70.5222   -8.2313 C   0  0  0  0  0  0  0  0  0  0  0  0
   18.9050   70.6500   -7.0906 C   0  0  0  0  0  0  0  0  0  0  0  0
   19.6078   70.6957   -8.2241 C   0  0  0  0  0  0  0  0  0  0  0  0
   18.8936   70.6559   -9.5170 C   0  0  0  0  0  0  0  0  0  0  0  0
   17.0101   70.5411  -10.2573 H   0  0  0  0  0  0  0  0  0  0  0  0
   20.9683   70.8948   -0.1249 O   0  0  0  0  0  0  0  0  0  0  0  0
   21.8541   71.6666    0.9856 P   0  0  2  0  0  0  0  0  0  0  0  0
   22.8213   72.6116    0.0957 O   0  0  0  0  0  0  0  0  0  0  0  0
   22.5804   70.7577    1.9345 O   0  0  0  0  0  0  0  0  0  0  0  0
   20.8249   72.6881    1.6925 O   0  0  0  0  0  0  0  0  0  0  0  0
   20.7477   75.0545    1.7503 O   0  0  0  0  0  0  0  0  0  0  0  0
   19.3395   74.0754    5.5088 O   0  0  0  0  0  0  0  0  0  0  0  0
   21.6123   72.6442    4.3598 O   0  0  0  0  0  0  0  0  0  0  0  0
   17.4952   74.9671    3.4462 O   0  0  0  0  0  0  0  0  0  0  0  0
   19.5493   73.8958    4.1082 C   0  0  2  0  0  0  0  0  0  0  0  0
   21.0493   73.8339    3.8192 C   0  0  2  0  0  0  0  0  0  0  0  0
   18.9153   75.0826    3.3791 C   0  0  1  0  0  0  0  0  0  0  0  0
   21.3186   73.8732    2.3143 C   0  0  1  0  0  0  0  0  0  0  0  0
   19.3327   75.1225    1.9118 C   0  0  1  0  0  0  0  0  0  0  0  0
   19.7341   73.3330    5.9929 H   0  0  0  0  0  0  0  0  0  0  0  0
   21.4449   72.6125    5.3144 H   0  0  0  0  0  0  0  0  0  0  0  0
   17.2165   74.9405    4.3748 H   0  0  0  0  0  0  0  0  0  0  0  0
   18.5829   77.3194    2.2475 O   0  0  0  0  0  0  0  0  0  0  0  0
   19.0602   76.6991    0.1059 O   0  0  0  0  0  0  0  0  0  0  0  0
   18.9878   76.4402    1.2979 C   0  0  0  0  0  0  0  0  0  0  0  0
  1  4  1  0
  1 24  1  0
  1  2  1  1
  1  3  2  0
 25 28  1  0
 25 24  1  0
 25 26  1  6
 25 27  2  0
  6 11  1  0
  6 12  1  0
 29 36  1  0
 29 37  1  0
  9  7  1  6
  7 13  1  0
 10  8  1  1
  8 14  1  0
  4  5  1  0
 36 28  1  6
 33 30  1  1
 30 38  1  0
 34 31  1  6
 31 39  1  0
 35 32  1  6
 32 40  1  0
 41 43  1  0
 15 19  2  0
 42 43  2  0
 16 22  2  0
 12 17  1  6
 17 19  1  0
 17 20  1  0
 18 19  1  0
 18 22  1  0
 18 23  1  0
  9 10  1  0
  9 11  1  0
 10 12  1  0
 11  5  1  6
 33 34  1  0
 33 35  1  0
 34 36  1  0
 35 37  1  0
 37 43  1  1
 20 21  2  0
 21 22  1  0
M  CHG  3   2  -1  26  -1  41  -1
M  END
>  <COMPND>  (387) 
    udp_gluA.pdb 

>  <AUTHOR>  (387) 
    GENERATED BY OPEN BABEL 3.1.1

>  <MASTER>  (387) 
        0    0    0    0    0    0    0    0   56    0   56    0

>  <minimizedAffinity>  (387) 
-7.12728

>  <CNNscore>  (387) 
0.8710867763

>  <CNNaffinity>  (387) 
4.5778546333

>  <CNN_VS>  (387) 
3.9877085686

>  <CNNaffinity_variance>  (387) 
0.0850574598

$$$$
388
     RDKit          3D

 43 45  0  0  0  0  0  0  0  0999 V2000
   20.7120   72.9990   -3.2288 P   0  0  2  0  0  0  0  0  0  0  0  0
   20.2064   73.0170   -1.6916 O   0  0  0  0  0  0  0  0  0  0  0  0
   21.1185   74.3351   -3.7778 O   0  0  0  0  0  0  0  0  0  0  0  0
   19.5184   72.2473   -4.0215 O   0  0  0  0  0  0  0  0  0  0  0  0
   18.9219   71.1102   -3.4252 C   0  0  0  0  0  0  0  0  0  0  0  0
   17.1690   71.6802   -4.9679 O   0  0  0  0  0  0  0  0  0  0  0  0
   15.3689   70.0032   -3.2535 O   0  0  0  0  0  0  0  0  0  0  0  0
   15.9228   68.3393   -5.3418 O   0  0  0  0  0  0  0  0  0  0  0  0
   16.7437   69.8053   -3.5842 C   0  0  1  0  0  0  0  0  0  0  0  0
   16.8753   69.3296   -5.0155 C   0  0  2  0  0  0  0  0  0  0  0  0
   17.4149   71.1708   -3.6393 C   0  0  1  0  0  0  0  0  0  0  0  0
   16.6711   70.6171   -5.7957 C   0  0  2  0  0  0  0  0  0  0  0  0
   14.9190   69.1444   -3.2125 H   0  0  0  0  0  0  0  0  0  0  0  0
   16.0956   67.5399   -4.8193 H   0  0  0  0  0  0  0  0  0  0  0  0
   15.4411   70.6179   -8.3381 O   0  0  0  0  0  0  0  0  0  0  0  0
   19.5077   70.6360  -10.5075 O   0  0  0  0  0  0  0  0  0  0  0  0
   17.3846   70.6220   -7.0414 N   0  0  0  0  0  0  0  0  0  0  0  0
   17.4677   70.6259   -9.4162 N   0  0  0  0  0  0  0  0  0  0  0  0
   16.6713   70.6218   -8.2634 C   0  0  0  0  0  0  0  0  0  0  0  0
   18.7741   70.6286   -7.0448 C   0  0  0  0  0  0  0  0  0  0  0  0
   19.5195   70.6326   -8.1516 C   0  0  0  0  0  0  0  0  0  0  0  0
   18.8521   70.6319   -9.4700 C   0  0  0  0  0  0  0  0  0  0  0  0
   16.9936   70.6238  -10.2790 H   0  0  0  0  0  0  0  0  0  0  0  0
   21.8896   71.8919   -3.2106 O   0  0  0  0  0  0  0  0  0  0  0  0
   23.3721   71.9297   -2.5667 P   0  0  2  0  0  0  0  0  0  0  0  0
   23.9417   73.3710   -3.0343 O   0  0  0  0  0  0  0  0  0  0  0  0
   24.2405   70.7671   -2.9516 O   0  0  0  0  0  0  0  0  0  0  0  0
   23.1254   72.0847   -0.9801 O   0  0  0  0  0  0  0  0  0  0  0  0
   24.3676   70.9370    0.6779 O   0  0  0  0  0  0  0  0  0  0  0  0
   20.8597   71.7817    2.6900 O   0  0  0  0  0  0  0  0  0  0  0  0
   20.7923   70.8649   -0.0829 O   0  0  0  0  0  0  0  0  0  0  0  0
   23.2641   73.3201    3.2402 O   0  0  0  0  0  0  0  0  0  0  0  0
   21.9066   72.0054    1.7457 C   0  0  2  0  0  0  0  0  0  0  0  0
   21.9491   70.8499    0.7455 C   0  0  2  0  0  0  0  0  0  0  0  0
   23.2267   72.0925    2.5148 C   0  0  1  0  0  0  0  0  0  0  0  0
   23.1950   70.9360   -0.1373 C   0  0  1  0  0  0  0  0  0  0  0  0
   24.4252   72.0466    1.5714 C   0  0  1  0  0  0  0  0  0  0  0  0
   20.0107   71.7228    2.2241 H   0  0  0  0  0  0  0  0  0  0  0  0
   19.9980   70.8108    0.4707 H   0  0  0  0  0  0  0  0  0  0  0  0
   22.5064   73.3619    3.8443 H   0  0  0  0  0  0  0  0  0  0  0  0
   26.0431   72.9017    3.0386 O   0  0  0  0  0  0  0  0  0  0  0  0
   26.3200   70.7550    2.3216 O   0  0  0  0  0  0  0  0  0  0  0  0
   25.6885   71.8010    2.3303 C   0  0  0  0  0  0  0  0  0  0  0  0
  1  4  1  0
  1 24  1  0
  1  2  1  1
  1  3  2  0
 25 28  1  0
 25 24  1  0
 25 26  1  6
 25 27  2  0
  6 11  1  0
  6 12  1  0
 29 36  1  0
 29 37  1  0
  9  7  1  6
  7 13  1  0
 10  8  1  6
  8 14  1  0
  4  5  1  0
 36 28  1  1
 33 30  1  1
 30 38  1  0
 34 31  1  6
 31 39  1  0
 35 32  1  6
 32 40  1  0
 41 43  1  0
 15 19  2  0
 42 43  2  0
 16 22  2  0
 12 17  1  6
 17 19  1  0
 17 20  1  0
 18 19  1  0
 18 22  1  0
 18 23  1  0
  9 10  1  0
  9 11  1  0
 10 12  1  0
 11  5  1  6
 33 34  1  0
 33 35  1  0
 34 36  1  0
 35 37  1  0
 37 43  1  1
 20 21  2  0
 21 22  1  0
M  CHG  3   2  -1  26  -1  41  -1
M  END
>  <COMPND>  (388) 
    udp_gluA.pdb 

>  <AUTHOR>  (388) 
    GENERATED BY OPEN BABEL 3.1.1

>  <MASTER>  (388) 
        0    0    0    0    0    0    0    0   56    0   56    0

>  <minimizedAffinity>  (388) 
-8.41985

>  <CNNscore>  (388) 
0.8560891747

>  <CNNaffinity>  (388) 
4.6853032112

>  <CNN_VS>  (388) 
4.0110373497

>  <CNNaffinity_variance>  (388) 
0.1150705591

$$$$
389
     RDKit          3D

 43 45  0  0  0  0  0  0  0  0999 V2000
   22.1375   72.1379   -2.2432 P   0  0  2  0  0  0  0  0  0  0  0  0
   22.6548   73.5588   -2.8196 O   0  0  0  0  0  0  0  0  0  0  0  0
   22.8502   70.9354   -2.7892 O   0  0  0  0  0  0  0  0  0  0  0  0
   20.5386   72.1782   -2.4880 O   0  0  0  0  0  0  0  0  0  0  0  0
   19.9944   71.3918   -3.5320 C   0  0  0  0  0  0  0  0  0  0  0  0
   18.0073   71.9465   -4.7654 O   0  0  0  0  0  0  0  0  0  0  0  0
   16.5082   70.3815   -2.6930 O   0  0  0  0  0  0  0  0  0  0  0  0
   16.6547   68.6262   -4.7747 O   0  0  0  0  0  0  0  0  0  0  0  0
   17.7992   70.1368   -3.2514 C   0  0  1  0  0  0  0  0  0  0  0  0
   17.6676   69.6040   -4.6624 C   0  0  2  0  0  0  0  0  0  0  0  0
   18.4747   71.4820   -3.4805 C   0  0  1  0  0  0  0  0  0  0  0  0
   17.3521   70.8656   -5.4478 C   0  0  2  0  0  0  0  0  0  0  0  0
   16.0572   69.5365   -2.5378 H   0  0  0  0  0  0  0  0  0  0  0  0
   16.9026   67.8431   -4.2577 H   0  0  0  0  0  0  0  0  0  0  0  0
   15.8086   70.0188   -7.6562 O   0  0  0  0  0  0  0  0  0  0  0  0
   19.3067   70.6747  -10.5849 O   0  0  0  0  0  0  0  0  0  0  0  0
   17.8345   70.8054   -6.7985 N   0  0  0  0  0  0  0  0  0  0  0  0
   17.5526   70.3453   -9.1126 N   0  0  0  0  0  0  0  0  0  0  0  0
   16.9778   70.3652   -7.8350 C   0  0  0  0  0  0  0  0  0  0  0  0
   19.1412   71.1809   -7.0856 C   0  0  0  0  0  0  0  0  0  0  0  0
   19.6750   71.1566   -8.3085 C   0  0  0  0  0  0  0  0  0  0  0  0
   18.8471   70.7085   -9.4474 C   0  0  0  0  0  0  0  0  0  0  0  0
   16.9761   70.0406   -9.8502 H   0  0  0  0  0  0  0  0  0  0  0  0
   22.2650   72.3272   -0.6430 O   0  0  0  0  0  0  0  0  0  0  0  0
   21.3150   73.0982    0.4137 P   0  0  2  0  0  0  0  0  0  0  0  0
   20.5444   71.8907    1.1677 O   0  0  0  0  0  0  0  0  0  0  0  0
   20.4064   74.1198   -0.2065 O   0  0  0  0  0  0  0  0  0  0  0  0
   22.3290   73.6883    1.5209 O   0  0  0  0  0  0  0  0  0  0  0  0
   23.4387   71.9071    2.6187 O   0  0  0  0  0  0  0  0  0  0  0  0
   24.9111   75.1918    4.6462 O   0  0  0  0  0  0  0  0  0  0  0  0
   22.0800   75.0321    3.9434 O   0  0  0  0  0  0  0  0  0  0  0  0
   26.5682   73.8210    2.6902 O   0  0  0  0  0  0  0  0  0  0  0  0
   24.4032   74.4750    3.5209 C   0  0  2  0  0  0  0  0  0  0  0  0
   23.0014   73.9530    3.8369 C   0  0  2  0  0  0  0  0  0  0  0  0
   25.3530   73.3097    3.2345 C   0  0  1  0  0  0  0  0  0  0  0  0
   22.5181   72.9909    2.7508 C   0  0  1  0  0  0  0  0  0  0  0  0
   24.7459   72.3287    2.2358 C   0  0  1  0  0  0  0  0  0  0  0  0
   24.3236   75.9373    4.8469 H   0  0  0  0  0  0  0  0  0  0  0  0
   22.3806   75.6467    4.6306 H   0  0  0  0  0  0  0  0  0  0  0  0
   26.9648   74.4470    3.3161 H   0  0  0  0  0  0  0  0  0  0  0  0
   24.6933   69.9973    1.9841 O   0  0  0  0  0  0  0  0  0  0  0  0
   26.7251   70.9558    2.3740 O   0  0  0  0  0  0  0  0  0  0  0  0
   25.5176   71.0495    2.2127 C   0  0  0  0  0  0  0  0  0  0  0  0
  1  4  1  0
  1 24  1  0
  1  2  1  6
  1  3  2  0
 25 28  1  0
 25 24  1  0
 25 26  1  1
 25 27  2  0
  6 11  1  0
  6 12  1  0
 29 36  1  0
 29 37  1  0
  9  7  1  6
  7 13  1  0
 10  8  1  1
  8 14  1  0
  4  5  1  0
 36 28  1  6
 33 30  1  1
 30 38  1  0
 34 31  1  6
 31 39  1  0
 35 32  1  6
 32 40  1  0
 41 43  1  0
 15 19  2  0
 42 43  2  0
 16 22  2  0
 12 17  1  6
 17 19  1  0
 17 20  1  0
 18 19  1  0
 18 22  1  0
 18 23  1  0
  9 10  1  0
  9 11  1  0
 10 12  1  0
 11  5  1  6
 33 34  1  0
 33 35  1  0
 34 36  1  0
 35 37  1  0
 37 43  1  1
 20 21  2  0
 21 22  1  0
M  CHG  3   2  -1  26  -1  41  -1
M  END
>  <COMPND>  (389) 
    udp_gluA.pdb 

>  <AUTHOR>  (389) 
    GENERATED BY OPEN BABEL 3.1.1

>  <MASTER>  (389) 
        0    0    0    0    0    0    0    0   56    0   56    0

>  <minimizedAffinity>  (389) 
-7.17460

>  <CNNscore>  (389) 
0.8209196925

>  <CNNaffinity>  (389) 
4.6464123726

>  <CNN_VS>  (389) 
3.8143315315

>  <CNNaffinity_variance>  (389) 
0.1610268950

$$$$
390
     RDKit          3D

 43 45  0  0  0  0  0  0  0  0999 V2000
   23.0430   71.6207   -2.4179 P   0  0  2  0  0  0  0  0  0  0  0  0
   24.2324   70.7823   -3.1260 O   0  0  0  0  0  0  0  0  0  0  0  0
   23.3432   72.0936   -1.0257 O   0  0  0  0  0  0  0  0  0  0  0  0
   21.7481   70.6627   -2.5706 O   0  0  0  0  0  0  0  0  0  0  0  0
   21.0197   70.6989   -3.7841 C   0  0  0  0  0  0  0  0  0  0  0  0
   19.0213   71.6945   -4.6745 O   0  0  0  0  0  0  0  0  0  0  0  0
   17.5760   70.3810   -2.3991 O   0  0  0  0  0  0  0  0  0  0  0  0
   17.0286   68.7197   -4.4910 O   0  0  0  0  0  0  0  0  0  0  0  0
   18.6847   69.9034   -3.1613 C   0  0  1  0  0  0  0  0  0  0  0  0
   18.2261   69.4669   -4.5366 C   0  0  2  0  0  0  0  0  0  0  0  0
   19.5786   71.0924   -3.4861 C   0  0  1  0  0  0  0  0  0  0  0  0
   18.0583   70.7975   -5.2502 C   0  0  2  0  0  0  0  0  0  0  0  0
   16.9905   69.6390   -2.1795 H   0  0  0  0  0  0  0  0  0  0  0  0
   17.1876   67.8820   -4.0273 H   0  0  0  0  0  0  0  0  0  0  0  0
   16.0728   70.2049   -7.1694 O   0  0  0  0  0  0  0  0  0  0  0  0
   19.0987   70.4355  -10.6385 O   0  0  0  0  0  0  0  0  0  0  0  0
   18.2997   70.6966   -6.6617 N   0  0  0  0  0  0  0  0  0  0  0  0
   17.5820   70.3193   -8.8953 N   0  0  0  0  0  0  0  0  0  0  0  0
   17.2328   70.3940   -7.5405 C   0  0  0  0  0  0  0  0  0  0  0  0
   19.5802   70.8978   -7.1625 C   0  0  0  0  0  0  0  0  0  0  0  0
   19.8976   70.8234   -8.4565 C   0  0  0  0  0  0  0  0  0  0  0  0
   18.8410   70.5109   -9.4410 C   0  0  0  0  0  0  0  0  0  0  0  0
   16.8562   70.1079   -9.5261 H   0  0  0  0  0  0  0  0  0  0  0  0
   22.7487   72.8019   -3.4814 O   0  0  0  0  0  0  0  0  0  0  0  0
   23.4727   74.2292   -3.7098 P   0  0  2  0  0  0  0  0  0  0  0  0
   24.9987   73.8181   -4.0596 O   0  0  0  0  0  0  0  0  0  0  0  0
   23.3373   75.1800   -2.5558 O   0  0  0  0  0  0  0  0  0  0  0  0
   22.8689   74.7762   -5.1022 O   0  0  0  0  0  0  0  0  0  0  0  0
   23.9654   76.6868   -5.9720 O   0  0  0  0  0  0  0  0  0  0  0  0
   20.6454   76.4364   -8.4180 O   0  0  0  0  0  0  0  0  0  0  0  0
   20.4031   75.9855   -5.5419 O   0  0  0  0  0  0  0  0  0  0  0  0
   23.2511   75.6081   -9.4054 O   0  0  0  0  0  0  0  0  0  0  0  0
   21.6973   75.9349   -7.5934 C   0  0  2  0  0  0  0  0  0  0  0  0
   21.5602   76.5095   -6.1832 C   0  0  2  0  0  0  0  0  0  0  0  0
   23.0293   76.3612   -8.2146 C   0  0  1  0  0  0  0  0  0  0  0  0
   22.7907   76.1811   -5.3366 C   0  0  1  0  0  0  0  0  0  0  0  0
   24.1934   76.1164   -7.2588 C   0  0  1  0  0  0  0  0  0  0  0  0
   19.7889   76.1778   -8.0428 H   0  0  0  0  0  0  0  0  0  0  0  0
   19.6185   76.1901   -6.0738 H   0  0  0  0  0  0  0  0  0  0  0  0
   22.5171   75.7549  -10.0223 H   0  0  0  0  0  0  0  0  0  0  0  0
   25.7845   77.7892   -6.8445 O   0  0  0  0  0  0  0  0  0  0  0  0
   26.0254   76.5760   -8.7600 O   0  0  0  0  0  0  0  0  0  0  0  0
   25.4223   76.8254   -7.7270 C   0  0  0  0  0  0  0  0  0  0  0  0
  1  4  1  0
  1 24  1  0
  1  2  1  6
  1  3  2  0
 25 28  1  0
 25 24  1  0
 25 26  1  6
 25 27  2  0
  6 11  1  0
  6 12  1  0
 29 36  1  0
 29 37  1  0
  9  7  1  1
  7 13  1  0
 10  8  1  1
  8 14  1  0
  4  5  1  0
 36 28  1  6
 33 30  1  6
 30 38  1  0
 34 31  1  1
 31 39  1  0
 35 32  1  6
 32 40  1  0
 41 43  1  0
 15 19  2  0
 42 43  2  0
 16 22  2  0
 12 17  1  6
 17 19  1  0
 17 20  1  0
 18 19  1  0
 18 22  1  0
 18 23  1  0
  9 10  1  0
  9 11  1  0
 10 12  1  0
 11  5  1  6
 33 34  1  0
 33 35  1  0
 34 36  1  0
 35 37  1  0
 37 43  1  6
 20 21  2  0
 21 22  1  0
M  CHG  3   2  -1  26  -1  41  -1
M  END
>  <COMPND>  (390) 
    udp_gluA.pdb 

>  <AUTHOR>  (390) 
    GENERATED BY OPEN BABEL 3.1.1

>  <MASTER>  (390) 
        0    0    0    0    0    0    0    0   56    0   56    0

>  <minimizedAffinity>  (390) 
-6.97218

>  <CNNscore>  (390) 
0.8186983466

>  <CNNaffinity>  (390) 
4.6345739365

>  <CNN_VS>  (390) 
3.7943179607

>  <CNNaffinity_variance>  (390) 
0.1580472440

$$$$
391
     RDKit          3D

 43 45  0  0  0  0  0  0  0  0999 V2000
   22.1310   71.6085   -2.7445 P   0  0  2  0  0  0  0  0  0  0  0  0
   23.5468   70.9787   -2.2776 O   0  0  0  0  0  0  0  0  0  0  0  0
   21.7421   72.8791   -2.0473 O   0  0  0  0  0  0  0  0  0  0  0  0
   21.0906   70.3784   -2.5955 O   0  0  0  0  0  0  0  0  0  0  0  0
   20.2968   70.0250   -3.7133 C   0  0  0  0  0  0  0  0  0  0  0  0
   18.6363   71.4066   -4.7676 O   0  0  0  0  0  0  0  0  0  0  0  0
   16.6996   70.2751   -2.7775 O   0  0  0  0  0  0  0  0  0  0  0  0
   16.1487   68.8379   -5.0285 O   0  0  0  0  0  0  0  0  0  0  0  0
   17.7979   69.6393   -3.4317 C   0  0  1  0  0  0  0  0  0  0  0  0
   17.4537   69.3565   -4.8786 C   0  0  2  0  0  0  0  0  0  0  0  0
   18.9201   70.6598   -3.5647 C   0  0  1  0  0  0  0  0  0  0  0  0
   17.6152   70.7266   -5.5148 C   0  0  2  0  0  0  0  0  0  0  0  0
   15.9701   69.6425   -2.6811 H   0  0  0  0  0  0  0  0  0  0  0  0
   16.0973   67.9650   -4.6072 H   0  0  0  0  0  0  0  0  0  0  0  0
   15.8407   70.3225   -7.6746 O   0  0  0  0  0  0  0  0  0  0  0  0
   19.2700   70.4415  -10.7520 O   0  0  0  0  0  0  0  0  0  0  0  0
   18.0174   70.6479   -6.8906 N   0  0  0  0  0  0  0  0  0  0  0  0
   17.5505   70.3812   -9.2052 N   0  0  0  0  0  0  0  0  0  0  0  0
   17.0466   70.4425   -7.8993 C   0  0  0  0  0  0  0  0  0  0  0  0
   19.3591   70.7754   -7.2293 C   0  0  0  0  0  0  0  0  0  0  0  0
   19.8242   70.7149   -8.4786 C   0  0  0  0  0  0  0  0  0  0  0  0
   18.8756   70.5016   -9.5913 C   0  0  0  0  0  0  0  0  0  0  0  0
   16.8938   70.2367   -9.9243 H   0  0  0  0  0  0  0  0  0  0  0  0
   22.3051   71.7452   -4.3457 O   0  0  0  0  0  0  0  0  0  0  0  0
   22.5723   73.0389   -5.2777 P   0  0  2  0  0  0  0  0  0  0  0  0
   22.9418   72.3901   -6.7140 O   0  0  0  0  0  0  0  0  0  0  0  0
   23.6095   73.9817   -4.7399 O   0  0  0  0  0  0  0  0  0  0  0  0
   21.1152   73.6975   -5.4912 O   0  0  0  0  0  0  0  0  0  0  0  0
   20.9554   75.9980   -6.0310 O   0  0  0  0  0  0  0  0  0  0  0  0
   17.0976   75.1483   -4.8215 O   0  0  0  0  0  0  0  0  0  0  0  0
   19.3813   74.0749   -3.3495 O   0  0  0  0  0  0  0  0  0  0  0  0
   17.7067   75.4549   -7.6474 O   0  0  0  0  0  0  0  0  0  0  0  0
   18.3706   74.8727   -5.4057 C   0  0  2  0  0  0  0  0  0  0  0  0
   19.4678   75.0730   -4.3600 C   0  0  2  0  0  0  0  0  0  0  0  0
   18.5711   75.8352   -6.5785 C   0  0  1  0  0  0  0  0  0  0  0  0
   20.8541   75.0120   -5.0029 C   0  0  1  0  0  0  0  0  0  0  0  0
   20.0112   75.8072   -7.0823 C   0  0  1  0  0  0  0  0  0  0  0  0
   16.9481   74.5486   -4.0737 H   0  0  0  0  0  0  0  0  0  0  0  0
   18.5041   74.1077   -2.9375 H   0  0  0  0  0  0  0  0  0  0  0  0
   16.7868   75.4685   -7.3399 H   0  0  0  0  0  0  0  0  0  0  0  0
   19.2565   77.8546   -7.9426 O   0  0  0  0  0  0  0  0  0  0  0  0
   21.2796   77.1006   -8.6759 O   0  0  0  0  0  0  0  0  0  0  0  0
   20.2790   76.9650   -7.9879 C   0  0  0  0  0  0  0  0  0  0  0  0
  1  4  1  0
  1 24  1  0
  1  2  1  1
  1  3  2  0
 25 28  1  0
 25 24  1  0
 25 26  1  6
 25 27  2  0
  6 11  1  0
  6 12  1  0
 29 36  1  0
 29 37  1  0
  9  7  1  1
  7 13  1  0
 10  8  1  1
  8 14  1  0
  4  5  1  0
 36 28  1  6
 33 30  1  1
 30 38  1  0
 34 31  1  1
 31 39  1  0
 35 32  1  6
 32 40  1  0
 41 43  1  0
 15 19  2  0
 42 43  2  0
 16 22  2  0
 12 17  1  6
 17 19  1  0
 17 20  1  0
 18 19  1  0
 18 22  1  0
 18 23  1  0
  9 10  1  0
  9 11  1  0
 10 12  1  0
 11  5  1  6
 33 34  1  0
 33 35  1  0
 34 36  1  0
 35 37  1  0
 37 43  1  6
 20 21  2  0
 21 22  1  0
M  CHG  3   2  -1  26  -1  41  -1
M  END
>  <COMPND>  (391) 
    udp_gluA.pdb 

>  <AUTHOR>  (391) 
    GENERATED BY OPEN BABEL 3.1.1

>  <MASTER>  (391) 
        0    0    0    0    0    0    0    0   56    0   56    0

>  <minimizedAffinity>  (391) 
-6.64964

>  <CNNscore>  (391) 
0.7939061522

>  <CNNaffinity>  (391) 
4.4585666656

>  <CNN_VS>  (391) 
3.5396835804

>  <CNNaffinity_variance>  (391) 
0.2953509092

$$$$
392
     RDKit          3D

 43 45  0  0  0  0  0  0  0  0999 V2000
   21.7942   72.4050   -5.5842 P   0  0  2  0  0  0  0  0  0  0  0  0
   21.1073   73.8251   -5.2230 O   0  0  0  0  0  0  0  0  0  0  0  0
   23.0579   72.4988   -6.3880 O   0  0  0  0  0  0  0  0  0  0  0  0
   20.5947   71.5533   -6.2577 O   0  0  0  0  0  0  0  0  0  0  0  0
   20.1453   71.9225   -7.5485 C   0  0  0  0  0  0  0  0  0  0  0  0
   18.8787   69.9184   -7.1524 O   0  0  0  0  0  0  0  0  0  0  0  0
   18.1183   70.0485  -10.0501 O   0  0  0  0  0  0  0  0  0  0  0  0
   15.9041   71.0435   -8.8077 O   0  0  0  0  0  0  0  0  0  0  0  0
   18.3146   71.1127   -9.1187 C   0  0  1  0  0  0  0  0  0  0  0  0
   17.1486   71.1884   -8.1560 C   0  0  2  0  0  0  0  0  0  0  0  0
   19.4635   70.7250   -8.1977 C   0  0  1  0  0  0  0  0  0  0  0  0
   17.4485   70.0412   -7.2064 C   0  0  2  0  0  0  0  0  0  0  0  0
   17.3889   70.2733  -10.6494 H   0  0  0  0  0  0  0  0  0  0  0  0
   15.7596   71.7983   -9.4004 H   0  0  0  0  0  0  0  0  0  0  0  0
   16.2754   68.0680   -5.5612 O   0  0  0  0  0  0  0  0  0  0  0  0
   15.5716   71.0773   -2.1417 O   0  0  0  0  0  0  0  0  0  0  0  0
   16.9502   70.2816   -5.8817 N   0  0  0  0  0  0  0  0  0  0  0  0
   15.9250   69.5689   -3.8600 N   0  0  0  0  0  0  0  0  0  0  0  0
   16.3791   69.2213   -5.1391 C   0  0  0  0  0  0  0  0  0  0  0  0
   17.0312   71.5547   -5.3308 C   0  0  0  0  0  0  0  0  0  0  0  0
   16.5942   71.8708   -4.1101 C   0  0  0  0  0  0  0  0  0  0  0  0
   15.9832   70.8207   -3.2691 C   0  0  0  0  0  0  0  0  0  0  0  0
   15.5216   68.8477   -3.3248 H   0  0  0  0  0  0  0  0  0  0  0  0
   21.9673   71.7070   -4.1366 O   0  0  0  0  0  0  0  0  0  0  0  0
   23.1179   71.8662   -3.0121 P   0  0  2  0  0  0  0  0  0  0  0  0
   23.6455   73.3803   -3.2347 O   0  0  0  0  0  0  0  0  0  0  0  0
   24.1931   70.8205   -3.0790 O   0  0  0  0  0  0  0  0  0  0  0  0
   22.3180   71.9154   -1.6121 O   0  0  0  0  0  0  0  0  0  0  0  0
   23.8595   72.7021    0.0047 O   0  0  0  0  0  0  0  0  0  0  0  0
   20.4136   72.3098    2.2496 O   0  0  0  0  0  0  0  0  0  0  0  0
   21.1503   70.2648    0.2978 O   0  0  0  0  0  0  0  0  0  0  0  0
   21.3230   74.9435    1.4205 O   0  0  0  0  0  0  0  0  0  0  0  0
   21.1801   72.5638    1.0724 C   0  0  2  0  0  0  0  0  0  0  0  0
   22.0019   71.3238    0.7194 C   0  0  2  0  0  0  0  0  0  0  0  0
   22.1030   73.7511    1.3559 C   0  0  1  0  0  0  0  0  0  0  0  0
   23.0040   71.6305   -0.3944 C   0  0  1  0  0  0  0  0  0  0  0  0
   23.1534   73.9140    0.2611 C   0  0  1  0  0  0  0  0  0  0  0  0
   19.8195   71.5590    2.0932 H   0  0  0  0  0  0  0  0  0  0  0  0
   20.5116   70.0651    0.9997 H   0  0  0  0  0  0  0  0  0  0  0  0
   20.6505   74.8528    2.1135 H   0  0  0  0  0  0  0  0  0  0  0  0
   23.9021   76.1312    0.4200 O   0  0  0  0  0  0  0  0  0  0  0  0
   25.2789   74.5074    1.2365 O   0  0  0  0  0  0  0  0  0  0  0  0
   24.2355   74.8466    0.6987 C   0  0  0  0  0  0  0  0  0  0  0  0
  1  4  1  0
  1 24  1  0
  1  2  1  1
  1  3  2  0
 25 28  1  0
 25 24  1  0
 25 26  1  6
 25 27  2  0
  6 11  1  0
  6 12  1  0
 29 36  1  0
 29 37  1  0
  9  7  1  6
  7 13  1  0
 10  8  1  6
  8 14  1  0
  4  5  1  0
 36 28  1  6
 33 30  1  1
 30 38  1  0
 34 31  1  6
 31 39  1  0
 35 32  1  6
 32 40  1  0
 41 43  1  0
 15 19  2  0
 42 43  2  0
 16 22  2  0
 12 17  1  1
 17 19  1  0
 17 20  1  0
 18 19  1  0
 18 22  1  0
 18 23  1  0
  9 10  1  0
  9 11  1  0
 10 12  1  0
 11  5  1  1
 33 34  1  0
 33 35  1  0
 34 36  1  0
 35 37  1  0
 37 43  1  1
 20 21  2  0
 21 22  1  0
M  CHG  3   2  -1  26  -1  41  -1
M  END
>  <COMPND>  (392) 
    udp_gluA.pdb 

>  <AUTHOR>  (392) 
    GENERATED BY OPEN BABEL 3.1.1

>  <MASTER>  (392) 
        0    0    0    0    0    0    0    0   56    0   56    0

>  <minimizedAffinity>  (392) 
-8.03526

>  <CNNscore>  (392) 
0.7196189165

>  <CNNaffinity>  (392) 
4.5553650856

>  <CNN_VS>  (392) 
3.2781269550

>  <CNNaffinity_variance>  (392) 
0.2173596621

$$$$
393
     RDKit          3D

 43 45  0  0  0  0  0  0  0  0999 V2000
   23.0029   72.3163   -1.4490 P   0  0  2  0  0  0  0  0  0  0  0  0
   23.8324   73.6885   -1.6676 O   0  0  0  0  0  0  0  0  0  0  0  0
   23.7890   71.0581   -1.6741 O   0  0  0  0  0  0  0  0  0  0  0  0
   21.6924   72.5020   -2.3796 O   0  0  0  0  0  0  0  0  0  0  0  0
   21.7858   73.3357   -3.5201 C   0  0  0  0  0  0  0  0  0  0  0  0
   21.7036   71.2401   -4.6946 O   0  0  0  0  0  0  0  0  0  0  0  0
   23.0625   72.6663   -6.9553 O   0  0  0  0  0  0  0  0  0  0  0  0
   20.4606   72.6028   -7.7690 O   0  0  0  0  0  0  0  0  0  0  0  0
   22.0800   73.1526   -6.0405 C   0  0  1  0  0  0  0  0  0  0  0  0
   20.7194   72.5823   -6.3808 C   0  0  2  0  0  0  0  0  0  0  0  0
   22.3557   72.5284   -4.6794 C   0  0  1  0  0  0  0  0  0  0  0  0
   20.8207   71.1718   -5.8256 C   0  0  2  0  0  0  0  0  0  0  0  0
   22.9069   73.0514   -7.8323 H   0  0  0  0  0  0  0  0  0  0  0  0
   20.4049   73.5226   -8.0740 H   0  0  0  0  0  0  0  0  0  0  0  0
   18.7462   70.3832   -7.5722 O   0  0  0  0  0  0  0  0  0  0  0  0
   15.9891   69.2203   -4.0664 O   0  0  0  0  0  0  0  0  0  0  0  0
   19.5504   70.6594   -5.3961 N   0  0  0  0  0  0  0  0  0  0  0  0
   17.3746   69.8057   -5.8245 N   0  0  0  0  0  0  0  0  0  0  0  0
   18.5767   70.2922   -6.3549 C   0  0  0  0  0  0  0  0  0  0  0  0
   19.2800   70.5233   -4.0399 C   0  0  0  0  0  0  0  0  0  0  0  0
   18.1295   70.0580   -3.5495 C   0  0  0  0  0  0  0  0  0  0  0  0
   17.0591   69.6529   -4.4841 C   0  0  0  0  0  0  0  0  0  0  0  0
   16.6806   69.5455   -6.4726 H   0  0  0  0  0  0  0  0  0  0  0  0
   22.4130   72.4832    0.0467 O   0  0  0  0  0  0  0  0  0  0  0  0
   21.9483   71.3803    1.1336 P   0  0  2  0  0  0  0  0  0  0  0  0
   23.3497   70.8582    1.7531 O   0  0  0  0  0  0  0  0  0  0  0  0
   21.0764   70.2937    0.5741 O   0  0  0  0  0  0  0  0  0  0  0  0
   21.2717   72.2364    2.3218 O   0  0  0  0  0  0  0  0  0  0  0  0
   19.9737   74.1901    2.6500 O   0  0  0  0  0  0  0  0  0  0  0  0
   23.0640   74.7740    5.3290 O   0  0  0  0  0  0  0  0  0  0  0  0
   23.5995   73.7212    2.6571 O   0  0  0  0  0  0  0  0  0  0  0  0
   20.4402   73.9627    6.2822 O   0  0  0  0  0  0  0  0  0  0  0  0
   22.1286   74.0138    4.5641 C   0  0  2  0  0  0  0  0  0  0  0  0
   22.3558   74.2721    3.0744 C   0  0  2  0  0  0  0  0  0  0  0  0
   20.7194   74.4502    4.9711 C   0  0  1  0  0  0  0  0  0  0  0  0
   21.2332   73.6597    2.2355 C   0  0  1  0  0  0  0  0  0  0  0  0
   19.6673   73.9007    4.0121 C   0  0  1  0  0  0  0  0  0  0  0  0
   23.9669   74.5138    5.0873 H   0  0  0  0  0  0  0  0  0  0  0  0
   24.3163   74.1052    3.1854 H   0  0  0  0  0  0  0  0  0  0  0  0
   21.1029   74.3050    6.9023 H   0  0  0  0  0  0  0  0  0  0  0  0
   17.7769   74.1823    5.3718 O   0  0  0  0  0  0  0  0  0  0  0  0
   17.8656   75.4030    3.4479 O   0  0  0  0  0  0  0  0  0  0  0  0
   18.3555   74.5869    4.2140 C   0  0  0  0  0  0  0  0  0  0  0  0
  1  4  1  0
  1 24  1  0
  1  2  1  6
  1  3  2  0
 25 28  1  0
 25 24  1  0
 25 26  1  1
 25 27  2  0
  6 11  1  0
  6 12  1  0
 29 36  1  0
 29 37  1  0
  9  7  1  6
  7 13  1  0
 10  8  1  6
  8 14  1  0
  4  5  1  0
 36 28  1  1
 33 30  1  1
 30 38  1  0
 34 31  1  6
 31 39  1  0
 35 32  1  1
 32 40  1  0
 41 43  1  0
 15 19  2  0
 42 43  2  0
 16 22  2  0
 12 17  1  1
 17 19  1  0
 17 20  1  0
 18 19  1  0
 18 22  1  0
 18 23  1  0
  9 10  1  0
  9 11  1  0
 10 12  1  0
 11  5  1  1
 33 34  1  0
 33 35  1  0
 34 36  1  0
 35 37  1  0
 37 43  1  1
 20 21  2  0
 21 22  1  0
M  CHG  3   2  -1  26  -1  41  -1
M  END
>  <COMPND>  (393) 
    udp_gluA.pdb 

>  <AUTHOR>  (393) 
    GENERATED BY OPEN BABEL 3.1.1

>  <MASTER>  (393) 
        0    0    0    0    0    0    0    0   56    0   56    0

>  <minimizedAffinity>  (393) 
-6.54951

>  <CNNscore>  (393) 
0.6928218603

>  <CNNaffinity>  (393) 
4.2953162193

>  <CNN_VS>  (393) 
2.9758889675

>  <CNNaffinity_variance>  (393) 
0.0228315033

$$$$
394
     RDKit          3D

 43 45  0  0  0  0  0  0  0  0999 V2000
   21.8476   72.4842   -5.6252 P   0  0  2  0  0  0  0  0  0  0  0  0
   21.1503   73.9019   -5.2750 O   0  0  0  0  0  0  0  0  0  0  0  0
   23.0943   72.5793   -6.4551 O   0  0  0  0  0  0  0  0  0  0  0  0
   20.6459   71.6066   -6.2605 O   0  0  0  0  0  0  0  0  0  0  0  0
   20.1338   71.9782   -7.5270 C   0  0  0  0  0  0  0  0  0  0  0  0
   18.9255   69.9395   -7.1252 O   0  0  0  0  0  0  0  0  0  0  0  0
   18.1388   70.0543  -10.0165 O   0  0  0  0  0  0  0  0  0  0  0  0
   15.9082   70.9861   -8.7546 O   0  0  0  0  0  0  0  0  0  0  0  0
   18.3135   71.1217   -9.0844 C   0  0  1  0  0  0  0  0  0  0  0  0
   17.1534   71.1637   -8.1124 C   0  0  2  0  0  0  0  0  0  0  0  0
   19.4797   70.7637   -8.1734 C   0  0  1  0  0  0  0  0  0  0  0  0
   17.4921   70.0233   -7.1676 C   0  0  2  0  0  0  0  0  0  0  0  0
   17.3989   70.2603  -10.6095 H   0  0  0  0  0  0  0  0  0  0  0  0
   15.7385   71.7379   -9.3445 H   0  0  0  0  0  0  0  0  0  0  0  0
   16.1717   68.0745   -5.6071 O   0  0  0  0  0  0  0  0  0  0  0  0
   15.6390   70.9951   -2.0815 O   0  0  0  0  0  0  0  0  0  0  0  0
   16.9980   70.2476   -5.8386 N   0  0  0  0  0  0  0  0  0  0  0  0
   15.9068   69.5313   -3.8530 N   0  0  0  0  0  0  0  0  0  0  0  0
   16.3490   69.2015   -5.1409 C   0  0  0  0  0  0  0  0  0  0  0  0
   17.1594   71.4908   -5.2392 C   0  0  0  0  0  0  0  0  0  0  0  0
   16.7326   71.7901   -4.0107 C   0  0  0  0  0  0  0  0  0  0  0  0
   16.0436   70.7533   -3.2146 C   0  0  0  0  0  0  0  0  0  0  0  0
   15.4501   68.8198   -3.3485 H   0  0  0  0  0  0  0  0  0  0  0  0
   22.0572   71.8135   -4.1696 O   0  0  0  0  0  0  0  0  0  0  0  0
   23.2678   71.9424   -3.1058 P   0  0  2  0  0  0  0  0  0  0  0  0
   23.9248   73.3775   -3.4653 O   0  0  0  0  0  0  0  0  0  0  0  0
   24.2358   70.7951   -3.1324 O   0  0  0  0  0  0  0  0  0  0  0  0
   22.5408   72.1721   -1.6842 O   0  0  0  0  0  0  0  0  0  0  0  0
   23.3208   70.6993   -0.0014 O   0  0  0  0  0  0  0  0  0  0  0  0
   20.1493   72.5429    1.8989 O   0  0  0  0  0  0  0  0  0  0  0  0
   19.9179   71.6994   -0.8884 O   0  0  0  0  0  0  0  0  0  0  0  0
   22.8800   73.2923    2.5568 O   0  0  0  0  0  0  0  0  0  0  0  0
   21.2506   72.4484    0.9955 C   0  0  2  0  0  0  0  0  0  0  0  0
   20.9853   71.3368   -0.0202 C   0  0  2  0  0  0  0  0  0  0  0  0
   22.5064   72.1348    1.8118 C   0  0  1  0  0  0  0  0  0  0  0  0
   22.2330   71.0513   -0.8572 C   0  0  1  0  0  0  0  0  0  0  0  0
   23.6720   71.7376    0.9106 C   0  0  1  0  0  0  0  0  0  0  0  0
   19.3398   72.7417    1.4025 H   0  0  0  0  0  0  0  0  0  0  0  0
   19.1230   71.8823   -0.3640 H   0  0  0  0  0  0  0  0  0  0  0  0
   22.1466   73.5556    3.1345 H   0  0  0  0  0  0  0  0  0  0  0  0
   25.5994   72.0807    2.2025 O   0  0  0  0  0  0  0  0  0  0  0  0
   24.9203   69.9252    1.8997 O   0  0  0  0  0  0  0  0  0  0  0  0
   24.7750   71.1234    1.7096 C   0  0  0  0  0  0  0  0  0  0  0  0
  1  4  1  0
  1 24  1  0
  1  2  1  1
  1  3  2  0
 25 28  1  0
 25 24  1  0
 25 26  1  6
 25 27  2  0
  6 11  1  0
  6 12  1  0
 29 36  1  0
 29 37  1  0
  9  7  1  6
  7 13  1  0
 10  8  1  6
  8 14  1  0
  4  5  1  0
 36 28  1  1
 33 30  1  1
 30 38  1  0
 34 31  1  6
 31 39  1  0
 35 32  1  6
 32 40  1  0
 41 43  1  0
 15 19  2  0
 42 43  2  0
 16 22  2  0
 12 17  1  1
 17 19  1  0
 17 20  1  0
 18 19  1  0
 18 22  1  0
 18 23  1  0
  9 10  1  0
  9 11  1  0
 10 12  1  0
 11  5  1  1
 33 34  1  0
 33 35  1  0
 34 36  1  0
 35 37  1  0
 37 43  1  1
 20 21  2  0
 21 22  1  0
M  CHG  3   2  -1  26  -1  41  -1
M  END
>  <COMPND>  (394) 
    udp_gluA.pdb 

>  <AUTHOR>  (394) 
    GENERATED BY OPEN BABEL 3.1.1

>  <MASTER>  (394) 
        0    0    0    0    0    0    0    0   56    0   56    0

>  <minimizedAffinity>  (394) 
-8.39851

>  <CNNscore>  (394) 
0.6598456502

>  <CNNaffinity>  (394) 
4.4567718506

>  <CNN_VS>  (394) 
2.9407815933

>  <CNNaffinity_variance>  (394) 
0.2085222900

$$$$
395
     RDKit          3D

 43 45  0  0  0  0  0  0  0  0999 V2000
   21.9253   72.5323   -5.9043 P   0  0  2  0  0  0  0  0  0  0  0  0
   21.2962   73.9225   -5.3652 O   0  0  0  0  0  0  0  0  0  0  0  0
   23.0486   72.6845   -6.8876 O   0  0  0  0  0  0  0  0  0  0  0  0
   20.6398   71.7018   -6.4292 O   0  0  0  0  0  0  0  0  0  0  0  0
   20.0925   72.0303   -7.6930 C   0  0  0  0  0  0  0  0  0  0  0  0
   18.9498   69.9689   -7.2214 O   0  0  0  0  0  0  0  0  0  0  0  0
   18.1031   69.9964  -10.0979 O   0  0  0  0  0  0  0  0  0  0  0  0
   15.8728   70.8951   -8.8117 O   0  0  0  0  0  0  0  0  0  0  0  0
   18.2663   71.0891   -9.1935 C   0  0  1  0  0  0  0  0  0  0  0  0
   17.1251   71.1214   -8.1991 C   0  0  2  0  0  0  0  0  0  0  0  0
   19.4599   70.7841   -8.2988 C   0  0  1  0  0  0  0  0  0  0  0  0
   17.5141   70.0124   -7.2364 C   0  0  2  0  0  0  0  0  0  0  0  0
   17.3461   70.1685  -10.6801 H   0  0  0  0  0  0  0  0  0  0  0  0
   15.6706   71.6283   -9.4145 H   0  0  0  0  0  0  0  0  0  0  0  0
   16.2342   68.0779   -5.6252 O   0  0  0  0  0  0  0  0  0  0  0  0
   15.7380   71.0476   -2.1353 O   0  0  0  0  0  0  0  0  0  0  0  0
   17.0403   70.2532   -5.9029 N   0  0  0  0  0  0  0  0  0  0  0  0
   15.9874   69.5591   -3.8889 N   0  0  0  0  0  0  0  0  0  0  0  0
   16.4107   69.2131   -5.1789 C   0  0  0  0  0  0  0  0  0  0  0  0
   17.2023   71.5064   -5.3249 C   0  0  0  0  0  0  0  0  0  0  0  0
   16.7936   71.8211   -4.0942 C   0  0  0  0  0  0  0  0  0  0  0  0
   16.1256   70.7916   -3.2713 C   0  0  0  0  0  0  0  0  0  0  0  0
   15.5444   68.8520   -3.3663 H   0  0  0  0  0  0  0  0  0  0  0  0
   22.3240   71.7614   -4.5407 O   0  0  0  0  0  0  0  0  0  0  0  0
   23.5027   72.0397   -3.4698 P   0  0  2  0  0  0  0  0  0  0  0  0
   24.4803   73.0644   -4.2538 O   0  0  0  0  0  0  0  0  0  0  0  0
   24.1826   70.7995   -2.9662 O   0  0  0  0  0  0  0  0  0  0  0  0
   22.8095   72.9362   -2.3217 O   0  0  0  0  0  0  0  0  0  0  0  0
   21.6615   71.6756   -0.6779 O   0  0  0  0  0  0  0  0  0  0  0  0
   20.5171   75.5308    0.2683 O   0  0  0  0  0  0  0  0  0  0  0  0
   20.6389   74.6642   -2.5189 O   0  0  0  0  0  0  0  0  0  0  0  0
   22.4964   74.1558    1.8938 O   0  0  0  0  0  0  0  0  0  0  0  0
   21.3928   74.5136   -0.2178 C   0  0  2  0  0  0  0  0  0  0  0  0
   20.7372   73.7945   -1.3970 C   0  0  2  0  0  0  0  0  0  0  0  0
   21.6565   73.5308    0.9251 C   0  0  1  0  0  0  0  0  0  0  0  0
   21.5392   72.5551   -1.7964 C   0  0  1  0  0  0  0  0  0  0  0  0
   22.3475   72.2659    0.4239 C   0  0  1  0  0  0  0  0  0  0  0  0
   20.3352   76.1673   -0.4411 H   0  0  0  0  0  0  0  0  0  0  0  0
   20.1314   75.4529   -2.2726 H   0  0  0  0  0  0  0  0  0  0  0  0
   22.0682   74.9624    2.2208 H   0  0  0  0  0  0  0  0  0  0  0  0
   21.5252   70.1602    1.0494 O   0  0  0  0  0  0  0  0  0  0  0  0
   22.8885   71.2272    2.5334 O   0  0  0  0  0  0  0  0  0  0  0  0
   22.3040   71.1912    1.4609 C   0  0  0  0  0  0  0  0  0  0  0  0
  1  4  1  0
  1 24  1  0
  1  2  1  1
  1  3  2  0
 25 28  1  0
 25 24  1  0
 25 26  1  6
 25 27  2  0
  6 11  1  0
  6 12  1  0
 29 36  1  0
 29 37  1  0
  9  7  1  6
  7 13  1  0
 10  8  1  6
  8 14  1  0
  4  5  1  0
 36 28  1  1
 33 30  1  1
 30 38  1  0
 34 31  1  6
 31 39  1  0
 35 32  1  1
 32 40  1  0
 41 43  1  0
 15 19  2  0
 42 43  2  0
 16 22  2  0
 12 17  1  1
 17 19  1  0
 17 20  1  0
 18 19  1  0
 18 22  1  0
 18 23  1  0
  9 10  1  0
  9 11  1  0
 10 12  1  0
 11  5  1  1
 33 34  1  0
 33 35  1  0
 34 36  1  0
 35 37  1  0
 37 43  1  1
 20 21  2  0
 21 22  1  0
M  CHG  3   2  -1  26  -1  41  -1
M  END
>  <COMPND>  (395) 
    udp_gluA.pdb 

>  <AUTHOR>  (395) 
    GENERATED BY OPEN BABEL 3.1.1

>  <MASTER>  (395) 
        0    0    0    0    0    0    0    0   56    0   56    0

>  <minimizedAffinity>  (395) 
-8.43169

>  <CNNscore>  (395) 
0.6528729796

>  <CNNaffinity>  (395) 
4.4552030563

>  <CNN_VS>  (395) 
2.9086816311

>  <CNNaffinity_variance>  (395) 
0.3764636219

$$$$
396
     RDKit          3D

 43 45  0  0  0  0  0  0  0  0999 V2000
   23.4834   73.5776   -4.1744 P   0  0  2  0  0  0  0  0  0  0  0  0
   22.7766   75.0190   -4.3782 O   0  0  0  0  0  0  0  0  0  0  0  0
   24.9769   73.6184   -4.0346 O   0  0  0  0  0  0  0  0  0  0  0  0
   22.9167   72.6899   -5.4028 O   0  0  0  0  0  0  0  0  0  0  0  0
   21.5565   72.2977   -5.3824 C   0  0  0  0  0  0  0  0  0  0  0  0
   20.4776   70.3474   -6.2824 O   0  0  0  0  0  0  0  0  0  0  0  0
   20.6081   71.7301   -8.9400 O   0  0  0  0  0  0  0  0  0  0  0  0
   18.0218   72.1422   -8.1803 O   0  0  0  0  0  0  0  0  0  0  0  0
   20.3889   72.2846   -7.6427 C   0  0  1  0  0  0  0  0  0  0  0  0
   18.9881   71.9644   -7.1658 C   0  0  2  0  0  0  0  0  0  0  0  0
   21.2476   71.5123   -6.6505 C   0  0  1  0  0  0  0  0  0  0  0  0
   19.1250   70.5135   -6.7365 C   0  0  2  0  0  0  0  0  0  0  0  0
   20.0698   72.2074   -9.5912 H   0  0  0  0  0  0  0  0  0  0  0  0
   17.9722   73.0818   -8.4184 H   0  0  0  0  0  0  0  0  0  0  0  0
   16.4175   69.7945   -7.0958 O   0  0  0  0  0  0  0  0  0  0  0  0
   15.7797   69.2193   -2.5674 O   0  0  0  0  0  0  0  0  0  0  0  0
   18.2287   70.1711   -5.6687 N   0  0  0  0  0  0  0  0  0  0  0  0
   16.1022   69.5097   -4.8400 N   0  0  0  0  0  0  0  0  0  0  0  0
   16.8873   69.8247   -5.9568 C   0  0  0  0  0  0  0  0  0  0  0  0
   18.6804   70.1787   -4.3546 C   0  0  0  0  0  0  0  0  0  0  0  0
   17.9201   69.8759   -3.3005 C   0  0  0  0  0  0  0  0  0  0  0  0
   16.5062   69.5039   -3.5147 C   0  0  0  0  0  0  0  0  0  0  0  0
   15.1642   69.2674   -5.0153 H   0  0  0  0  0  0  0  0  0  0  0  0
   22.7039   72.9686   -2.8960 O   0  0  0  0  0  0  0  0  0  0  0  0
   22.8290   71.5342   -2.1609 P   0  0  2  0  0  0  0  0  0  0  0  0
   24.1593   70.8934   -2.8243 O   0  0  0  0  0  0  0  0  0  0  0  0
   21.6042   70.6738   -2.2770 O   0  0  0  0  0  0  0  0  0  0  0  0
   23.2586   71.8865   -0.6464 O   0  0  0  0  0  0  0  0  0  0  0  0
   24.6425   70.9617    1.0385 O   0  0  0  0  0  0  0  0  0  0  0  0
   21.2333   71.9031    3.1737 O   0  0  0  0  0  0  0  0  0  0  0  0
   21.0330   70.6951    0.5213 O   0  0  0  0  0  0  0  0  0  0  0  0
   23.6057   73.5672    3.4046 O   0  0  0  0  0  0  0  0  0  0  0  0
   22.2115   72.0585    2.1456 C   0  0  2  0  0  0  0  0  0  0  0  0
   22.2377   70.8052    1.2705 C   0  0  2  0  0  0  0  0  0  0  0  0
   23.5716   72.2690    2.8149 C   0  0  1  0  0  0  0  0  0  0  0  0
   23.4235   70.8367    0.3051 C   0  0  1  0  0  0  0  0  0  0  0  0
   24.7114   72.1614    1.8061 C   0  0  1  0  0  0  0  0  0  0  0  0
   20.3605   71.7679    2.7720 H   0  0  0  0  0  0  0  0  0  0  0  0
   20.2765   70.6748    1.1276 H   0  0  0  0  0  0  0  0  0  0  0  0
   22.8850   73.6489    4.0487 H   0  0  0  0  0  0  0  0  0  0  0  0
   26.4974   70.7693    2.4177 O   0  0  0  0  0  0  0  0  0  0  0  0
   26.6073   72.9505    3.0727 O   0  0  0  0  0  0  0  0  0  0  0  0
   26.0271   72.0383    2.5034 C   0  0  0  0  0  0  0  0  0  0  0  0
  1  4  1  0
  1 24  1  0
  1  2  1  6
  1  3  2  0
 25 28  1  0
 25 24  1  0
 25 26  1  6
 25 27  2  0
  6 11  1  0
  6 12  1  0
 29 36  1  0
 29 37  1  0
  9  7  1  6
  7 13  1  0
 10  8  1  6
  8 14  1  0
  4  5  1  0
 36 28  1  6
 33 30  1  1
 30 38  1  0
 34 31  1  6
 31 39  1  0
 35 32  1  6
 32 40  1  0
 41 43  1  0
 15 19  2  0
 42 43  2  0
 16 22  2  0
 12 17  1  1
 17 19  1  0
 17 20  1  0
 18 19  1  0
 18 22  1  0
 18 23  1  0
  9 10  1  0
  9 11  1  0
 10 12  1  0
 11  5  1  1
 33 34  1  0
 33 35  1  0
 34 36  1  0
 35 37  1  0
 37 43  1  1
 20 21  2  0
 21 22  1  0
M  CHG  3   2  -1  26  -1  41  -1
M  END
>  <COMPND>  (396) 
    udp_gluA.pdb 

>  <AUTHOR>  (396) 
    GENERATED BY OPEN BABEL 3.1.1

>  <MASTER>  (396) 
        0    0    0    0    0    0    0    0   56    0   56    0

>  <minimizedAffinity>  (396) 
-8.58652

>  <CNNscore>  (396) 
0.6310629845

>  <CNNaffinity>  (396) 
4.3409280777

>  <CNN_VS>  (396) 
2.7393989563

>  <CNNaffinity_variance>  (396) 
0.2182630599

$$$$
397
     RDKit          3D

 43 45  0  0  0  0  0  0  0  0999 V2000
   23.1147   73.5685   -4.2564 P   0  0  2  0  0  0  0  0  0  0  0  0
   24.0691   72.2618   -4.2381 O   0  0  0  0  0  0  0  0  0  0  0  0
   23.7177   74.7845   -4.8964 O   0  0  0  0  0  0  0  0  0  0  0  0
   22.6601   73.7392   -2.7130 O   0  0  0  0  0  0  0  0  0  0  0  0
   21.6674   74.6999   -2.4029 C   0  0  0  0  0  0  0  0  0  0  0  0
   20.9491   72.7320   -1.2242 O   0  0  0  0  0  0  0  0  0  0  0  0
   18.5743   74.3445   -0.3571 O   0  0  0  0  0  0  0  0  0  0  0  0
   20.1797   74.4162    1.8460 O   0  0  0  0  0  0  0  0  0  0  0  0
   19.9272   74.7591   -0.5479 C   0  0  1  0  0  0  0  0  0  0  0  0
   20.7950   74.2539    0.5852 C   0  0  2  0  0  0  0  0  0  0  0  0
   20.4876   73.9986   -1.7420 C   0  0  1  0  0  0  0  0  0  0  0  0
   20.9844   72.7939    0.2105 C   0  0  2  0  0  0  0  0  0  0  0  0
   18.1948   74.8171    0.4007 H   0  0  0  0  0  0  0  0  0  0  0  0
   20.0817   75.3624    2.0385 H   0  0  0  0  0  0  0  0  0  0  0  0
   21.4128   70.1005    0.9447 O   0  0  0  0  0  0  0  0  0  0  0  0
   25.8392   70.8902    1.9582 O   0  0  0  0  0  0  0  0  0  0  0  0
   22.2390   72.2686    0.6698 N   0  0  0  0  0  0  0  0  0  0  0  0
   23.6167   70.4967    1.4497 N   0  0  0  0  0  0  0  0  0  0  0  0
   22.3479   70.9004    1.0136 C   0  0  0  0  0  0  0  0  0  0  0  0
   23.3443   73.1043    0.7742 C   0  0  0  0  0  0  0  0  0  0  0  0
   24.5473   72.7049    1.1914 C   0  0  0  0  0  0  0  0  0  0  0  0
   24.7456   71.2907    1.5709 C   0  0  0  0  0  0  0  0  0  0  0  0
   23.7166   69.5488    1.6967 H   0  0  0  0  0  0  0  0  0  0  0  0
   21.7711   73.0266   -4.9732 O   0  0  0  0  0  0  0  0  0  0  0  0
   21.0686   73.4465   -6.3674 P   0  0  2  0  0  0  0  0  0  0  0  0
   22.1073   72.9028   -7.4835 O   0  0  0  0  0  0  0  0  0  0  0  0
   20.7495   74.9092   -6.4801 O   0  0  0  0  0  0  0  0  0  0  0  0
   19.7898   72.4709   -6.4915 O   0  0  0  0  0  0  0  0  0  0  0  0
   19.3607   70.2686   -5.7331 O   0  0  0  0  0  0  0  0  0  0  0  0
   17.4391   70.2877   -9.3903 O   0  0  0  0  0  0  0  0  0  0  0  0
   20.0683   71.5257   -9.0925 O   0  0  0  0  0  0  0  0  0  0  0  0
   15.8985   70.4660   -6.9315 O   0  0  0  0  0  0  0  0  0  0  0  0
   17.9280   70.8490   -8.1722 C   0  0  2  0  0  0  0  0  0  0  0  0
   19.4484   70.6996   -8.1138 C   0  0  2  0  0  0  0  0  0  0  0  0
   17.2744   70.0984   -7.0097 C   0  0  1  0  0  0  0  0  0  0  0  0
   19.9828   71.0781   -6.7318 C   0  0  1  0  0  0  0  0  0  0  0  0
   17.9456   70.4353   -5.6814 C   0  0  1  0  0  0  0  0  0  0  0  0
   17.8408   70.7491  -10.1433 H   0  0  0  0  0  0  0  0  0  0  0  0
   19.7337   71.2912   -9.9720 H   0  0  0  0  0  0  0  0  0  0  0  0
   15.4597   70.2568   -7.7709 H   0  0  0  0  0  0  0  0  0  0  0  0
   18.4785   69.3911   -3.6498 O   0  0  0  0  0  0  0  0  0  0  0  0
   16.4879   68.8364   -4.6137 O   0  0  0  0  0  0  0  0  0  0  0  0
   17.5327   69.4698   -4.6185 C   0  0  0  0  0  0  0  0  0  0  0  0
  1  4  1  0
  1 24  1  0
  1  2  1  1
  1  3  2  0
 25 28  1  0
 25 24  1  0
 25 26  1  6
 25 27  2  0
  6 11  1  0
  6 12  1  0
 29 36  1  0
 29 37  1  0
  9  7  1  1
  7 13  1  0
 10  8  1  1
  8 14  1  0
  4  5  1  0
 36 28  1  1
 33 30  1  6
 30 38  1  0
 34 31  1  6
 31 39  1  0
 35 32  1  1
 32 40  1  0
 41 43  1  0
 15 19  2  0
 42 43  2  0
 16 22  2  0
 12 17  1  6
 17 19  1  0
 17 20  1  0
 18 19  1  0
 18 22  1  0
 18 23  1  0
  9 10  1  0
  9 11  1  0
 10 12  1  0
 11  5  1  1
 33 34  1  0
 33 35  1  0
 34 36  1  0
 35 37  1  0
 37 43  1  1
 20 21  2  0
 21 22  1  0
M  CHG  3   2  -1  26  -1  41  -1
M  END
>  <COMPND>  (397) 
    udp_gluA.pdb 

>  <AUTHOR>  (397) 
    GENERATED BY OPEN BABEL 3.1.1

>  <MASTER>  (397) 
        0    0    0    0    0    0    0    0   56    0   56    0

>  <minimizedAffinity>  (397) 
-7.80666

>  <CNNscore>  (397) 
0.6148211360

>  <CNNaffinity>  (397) 
4.5591287613

>  <CNN_VS>  (397) 
2.8030486107

>  <CNNaffinity_variance>  (397) 
0.0831437558

$$$$
398
     RDKit          3D

 43 45  0  0  0  0  0  0  0  0999 V2000
   23.3812   71.8416   -3.3337 P   0  0  2  0  0  0  0  0  0  0  0  0
   24.1022   72.9947   -4.2109 O   0  0  0  0  0  0  0  0  0  0  0  0
   24.2710   70.7020   -2.9316 O   0  0  0  0  0  0  0  0  0  0  0  0
   22.0811   71.4425   -4.2101 O   0  0  0  0  0  0  0  0  0  0  0  0
   21.6168   72.3570   -5.1861 C   0  0  0  0  0  0  0  0  0  0  0  0
   20.5501   70.4266   -6.1417 O   0  0  0  0  0  0  0  0  0  0  0  0
   20.7078   71.8692   -8.7658 O   0  0  0  0  0  0  0  0  0  0  0  0
   18.1129   72.2616   -8.0251 O   0  0  0  0  0  0  0  0  0  0  0  0
   20.4738   72.3940   -7.4587 C   0  0  1  0  0  0  0  0  0  0  0  0
   19.0683   72.0617   -7.0044 C   0  0  2  0  0  0  0  0  0  0  0  0
   21.3227   71.6002   -6.4750 C   0  0  1  0  0  0  0  0  0  0  0  0
   19.2023   70.6017   -6.6066 C   0  0  2  0  0  0  0  0  0  0  0  0
   20.1761   72.3607   -9.4118 H   0  0  0  0  0  0  0  0  0  0  0  0
   18.0648   73.2063   -8.2423 H   0  0  0  0  0  0  0  0  0  0  0  0
   16.5304   69.7858   -7.0209 O   0  0  0  0  0  0  0  0  0  0  0  0
   15.8119   69.2155   -2.5040 O   0  0  0  0  0  0  0  0  0  0  0  0
   18.2949   70.2343   -5.5567 N   0  0  0  0  0  0  0  0  0  0  0  0
   16.1748   69.5035   -4.7708 N   0  0  0  0  0  0  0  0  0  0  0  0
   16.9733   69.8393   -5.8720 C   0  0  0  0  0  0  0  0  0  0  0  0
   18.7165   70.2656   -4.2330 C   0  0  0  0  0  0  0  0  0  0  0  0
   17.9439   69.9426   -3.1939 C   0  0  0  0  0  0  0  0  0  0  0  0
   16.5491   69.5198   -3.4369 C   0  0  0  0  0  0  0  0  0  0  0  0
   15.2500   69.2273   -4.9652 H   0  0  0  0  0  0  0  0  0  0  0  0
   22.7468   72.6688   -2.0983 O   0  0  0  0  0  0  0  0  0  0  0  0
   21.3739   72.4554   -1.2717 P   0  0  2  0  0  0  0  0  0  0  0  0
   21.1519   70.8530   -1.3306 O   0  0  0  0  0  0  0  0  0  0  0  0
   20.2147   73.2595   -1.7850 O   0  0  0  0  0  0  0  0  0  0  0  0
   21.7694   72.7555    0.2632 O   0  0  0  0  0  0  0  0  0  0  0  0
   23.0861   74.2394    1.5569 O   0  0  0  0  0  0  0  0  0  0  0  0
   24.3439   70.5615    2.9565 O   0  0  0  0  0  0  0  0  0  0  0  0
   23.9123   70.9900    0.0991 O   0  0  0  0  0  0  0  0  0  0  0  0
   22.5498   72.1959    4.5567 O   0  0  0  0  0  0  0  0  0  0  0  0
   23.4156   71.5028    2.4178 C   0  0  2  0  0  0  0  0  0  0  0  0
   23.9345   72.0233    1.0771 C   0  0  2  0  0  0  0  0  0  0  0  0
   23.2753   72.6534    3.4170 C   0  0  1  0  0  0  0  0  0  0  0  0
   23.0882   73.1966    0.5812 C   0  0  1  0  0  0  0  0  0  0  0  0
   22.5280   73.8347    2.8050 C   0  0  1  0  0  0  0  0  0  0  0  0
   24.4492   69.8211    2.3384 H   0  0  0  0  0  0  0  0  0  0  0  0
   24.4472   70.2421    0.4074 H   0  0  0  0  0  0  0  0  0  0  0  0
   23.0148   71.4439    4.9555 H   0  0  0  0  0  0  0  0  0  0  0  0
   21.8158   75.0252    4.6964 O   0  0  0  0  0  0  0  0  0  0  0  0
   23.4749   75.9604    3.4425 O   0  0  0  0  0  0  0  0  0  0  0  0
   22.6809   75.0557    3.6525 C   0  0  0  0  0  0  0  0  0  0  0  0
  1  4  1  0
  1 24  1  0
  1  2  1  6
  1  3  2  0
 25 28  1  0
 25 24  1  0
 25 26  1  1
 25 27  2  0
  6 11  1  0
  6 12  1  0
 29 36  1  0
 29 37  1  0
  9  7  1  6
  7 13  1  0
 10  8  1  6
  8 14  1  0
  4  5  1  0
 36 28  1  1
 33 30  1  1
 30 38  1  0
 34 31  1  6
 31 39  1  0
 35 32  1  1
 32 40  1  0
 41 43  1  0
 15 19  2  0
 42 43  2  0
 16 22  2  0
 12 17  1  1
 17 19  1  0
 17 20  1  0
 18 19  1  0
 18 22  1  0
 18 23  1  0
  9 10  1  0
  9 11  1  0
 10 12  1  0
 11  5  1  1
 33 34  1  0
 33 35  1  0
 34 36  1  0
 35 37  1  0
 37 43  1  1
 20 21  2  0
 21 22  1  0
M  CHG  3   2  -1  26  -1  41  -1
M  END
>  <COMPND>  (398) 
    udp_gluA.pdb 

>  <AUTHOR>  (398) 
    GENERATED BY OPEN BABEL 3.1.1

>  <MASTER>  (398) 
        0    0    0    0    0    0    0    0   56    0   56    0

>  <minimizedAffinity>  (398) 
-7.59390

>  <CNNscore>  (398) 
0.6143063903

>  <CNNaffinity>  (398) 
4.3802556992

>  <CNN_VS>  (398) 
2.6908190250

>  <CNNaffinity_variance>  (398) 
0.1295970380

$$$$
399
     RDKit          3D

 43 45  0  0  0  0  0  0  0  0999 V2000
   22.5775   72.2100   -3.6293 P   0  0  2  0  0  0  0  0  0  0  0  0
   21.9240   70.7296   -3.6332 O   0  0  0  0  0  0  0  0  0  0  0  0
   24.0155   72.2689   -4.0543 O   0  0  0  0  0  0  0  0  0  0  0  0
   22.2600   72.7710   -2.1453 O   0  0  0  0  0  0  0  0  0  0  0  0
   23.2783   72.7017   -1.1640 C   0  0  0  0  0  0  0  0  0  0  0  0
   24.2990   71.2245    0.4340 O   0  0  0  0  0  0  0  0  0  0  0  0
   21.5501   70.1145    0.8849 O   0  0  0  0  0  0  0  0  0  0  0  0
   21.8807   71.7742    3.0232 O   0  0  0  0  0  0  0  0  0  0  0  0
   21.9487   71.4584    0.6132 C   0  0  1  0  0  0  0  0  0  0  0  0
   22.5904   72.0728    1.8392 C   0  0  2  0  0  0  0  0  0  0  0  0
   23.1127   71.4141   -0.3673 C   0  0  1  0  0  0  0  0  0  0  0  0
   23.9760   71.4504    1.8153 C   0  0  2  0  0  0  0  0  0  0  0  0
   20.8074   70.1172    1.5094 H   0  0  0  0  0  0  0  0  0  0  0  0
   21.0058   72.1929    2.9900 H   0  0  0  0  0  0  0  0  0  0  0  0
   26.6168   70.6488    2.4154 O   0  0  0  0  0  0  0  0  0  0  0  0
   27.7114   74.8240    4.0320 O   0  0  0  0  0  0  0  0  0  0  0  0
   24.9719   72.3077    2.3934 N   0  0  0  0  0  0  0  0  0  0  0  0
   27.1592   72.7287    3.2209 N   0  0  0  0  0  0  0  0  0  0  0  0
   26.2688   71.8064    2.6557 C   0  0  0  0  0  0  0  0  0  0  0  0
   24.6608   73.6285    2.6928 C   0  0  0  0  0  0  0  0  0  0  0  0
   25.5202   74.4959    3.2313 C   0  0  0  0  0  0  0  0  0  0  0  0
   26.8959   74.0518    3.5370 C   0  0  0  0  0  0  0  0  0  0  0  0
   28.0676   72.4022    3.4143 H   0  0  0  0  0  0  0  0  0  0  0  0
   21.5645   73.0564   -4.5622 O   0  0  0  0  0  0  0  0  0  0  0  0
   21.4079   73.1241   -6.1698 P   0  0  2  0  0  0  0  0  0  0  0  0
   22.5840   72.1450   -6.6976 O   0  0  0  0  0  0  0  0  0  0  0  0
   21.4598   74.5138   -6.7356 O   0  0  0  0  0  0  0  0  0  0  0  0
   20.0419   72.3248   -6.4821 O   0  0  0  0  0  0  0  0  0  0  0  0
   19.4470   70.1502   -5.7566 O   0  0  0  0  0  0  0  0  0  0  0  0
   17.3423   70.4601   -9.2981 O   0  0  0  0  0  0  0  0  0  0  0  0
   20.0894   71.4375   -9.1177 O   0  0  0  0  0  0  0  0  0  0  0  0
   15.9598   70.7064   -6.7528 O   0  0  0  0  0  0  0  0  0  0  0  0
   17.9470   70.9359   -8.0957 C   0  0  2  0  0  0  0  0  0  0  0  0
   19.4473   70.6434   -8.1268 C   0  0  2  0  0  0  0  0  0  0  0  0
   17.2884   70.2145   -6.9176 C   0  0  1  0  0  0  0  0  0  0  0  0
   20.0886   70.9280   -6.7679 C   0  0  1  0  0  0  0  0  0  0  0  0
   18.0589   70.4466   -5.6211 C   0  0  1  0  0  0  0  0  0  0  0  0
   17.7451   70.9046  -10.0607 H   0  0  0  0  0  0  0  0  0  0  0  0
   19.6873   71.2621   -9.9825 H   0  0  0  0  0  0  0  0  0  0  0  0
   15.4587   70.5648   -7.5712 H   0  0  0  0  0  0  0  0  0  0  0  0
   18.5398   69.4069   -3.5743 O   0  0  0  0  0  0  0  0  0  0  0  0
   16.5614   68.8714   -4.5734 O   0  0  0  0  0  0  0  0  0  0  0  0
   17.6139   69.4920   -4.5614 C   0  0  0  0  0  0  0  0  0  0  0  0
  1  4  1  0
  1 24  1  0
  1  2  1  1
  1  3  2  0
 25 28  1  0
 25 24  1  0
 25 26  1  6
 25 27  2  0
  6 11  1  0
  6 12  1  0
 29 36  1  0
 29 37  1  0
  9  7  1  1
  7 13  1  0
 10  8  1  1
  8 14  1  0
  4  5  1  0
 36 28  1  1
 33 30  1  6
 30 38  1  0
 34 31  1  6
 31 39  1  0
 35 32  1  1
 32 40  1  0
 41 43  1  0
 15 19  2  0
 42 43  2  0
 16 22  2  0
 12 17  1  6
 17 19  1  0
 17 20  1  0
 18 19  1  0
 18 22  1  0
 18 23  1  0
  9 10  1  0
  9 11  1  0
 10 12  1  0
 11  5  1  1
 33 34  1  0
 33 35  1  0
 34 36  1  0
 35 37  1  0
 37 43  1  1
 20 21  2  0
 21 22  1  0
M  CHG  3   2  -1  26  -1  41  -1
M  END
>  <COMPND>  (399) 
    udp_gluA.pdb 

>  <AUTHOR>  (399) 
    GENERATED BY OPEN BABEL 3.1.1

>  <MASTER>  (399) 
        0    0    0    0    0    0    0    0   56    0   56    0

>  <minimizedAffinity>  (399) 
-8.12982

>  <CNNscore>  (399) 
0.5772230029

>  <CNNaffinity>  (399) 
4.3855266571

>  <CNN_VS>  (399) 
2.5314269066

>  <CNNaffinity_variance>  (399) 
0.0775758550

$$$$
400
     RDKit          3D

 43 45  0  0  0  0  0  0  0  0999 V2000
   18.5907   71.4417   -2.2427 P   0  0  2  0  0  0  0  0  0  0  0  0
   17.4525   72.2045   -1.3816 O   0  0  0  0  0  0  0  0  0  0  0  0
   18.8314   70.0136   -1.8500 O   0  0  0  0  0  0  0  0  0  0  0  0
   19.8737   72.4228   -2.1460 O   0  0  0  0  0  0  0  0  0  0  0  0
   20.4519   72.6566   -0.8750 C   0  0  0  0  0  0  0  0  0  0  0  0
   22.5527   73.3558    0.0606 O   0  0  0  0  0  0  0  0  0  0  0  0
   23.7721   71.0652   -1.4419 O   0  0  0  0  0  0  0  0  0  0  0  0
   23.5890   70.0834    1.0955 O   0  0  0  0  0  0  0  0  0  0  0  0
   22.5000   71.1493   -0.7992 C   0  0  1  0  0  0  0  0  0  0  0  0
   22.6665   71.0784    0.7040 C   0  0  2  0  0  0  0  0  0  0  0  0
   21.9675   72.5623   -0.9945 C   0  0  1  0  0  0  0  0  0  0  0  0
   23.1446   72.4819    1.0348 C   0  0  2  0  0  0  0  0  0  0  0  0
   24.1325   70.1711   -1.3307 H   0  0  0  0  0  0  0  0  0  0  0  0
   23.2387   69.2084    0.8636 H   0  0  0  0  0  0  0  0  0  0  0  0
   20.6761   71.8160    2.2347 O   0  0  0  0  0  0  0  0  0  0  0  0
   21.7024   74.1543    6.0718 O   0  0  0  0  0  0  0  0  0  0  0  0
   22.7410   72.9033    2.3465 N   0  0  0  0  0  0  0  0  0  0  0  0
   21.1892   72.9821    4.1442 N   0  0  0  0  0  0  0  0  0  0  0  0
   21.4797   72.5140    2.8560 C   0  0  0  0  0  0  0  0  0  0  0  0
   23.5904   73.6912    3.1138 C   0  0  0  0  0  0  0  0  0  0  0  0
   23.2996   74.1296    4.3402 C   0  0  0  0  0  0  0  0  0  0  0  0
   22.0011   73.7683    4.9457 C   0  0  0  0  0  0  0  0  0  0  0  0
   20.3158   72.7257    4.5194 H   0  0  0  0  0  0  0  0  0  0  0  0
   18.0910   71.6460   -3.7663 O   0  0  0  0  0  0  0  0  0  0  0  0
   16.6822   71.2948   -4.4774 P   0  0  2  0  0  0  0  0  0  0  0  0
   15.9623   72.7390   -4.6055 O   0  0  0  0  0  0  0  0  0  0  0  0
   15.8688   70.2602   -3.7549 O   0  0  0  0  0  0  0  0  0  0  0  0
   17.0752   70.9000   -5.9914 O   0  0  0  0  0  0  0  0  0  0  0  0
   18.5988   72.4902   -6.8627 O   0  0  0  0  0  0  0  0  0  0  0  0
   18.0107   70.0173  -10.1195 O   0  0  0  0  0  0  0  0  0  0  0  0
   15.7576   70.8145   -8.4394 O   0  0  0  0  0  0  0  0  0  0  0  0
   20.4713   69.8441   -8.5813 O   0  0  0  0  0  0  0  0  0  0  0  0
   18.1194   70.3439   -8.7340 C   0  0  2  0  0  0  0  0  0  0  0  0
   17.0598   71.3838   -8.3687 C   0  0  2  0  0  0  0  0  0  0  0  0
   19.5220   70.9046   -8.4890 C   0  0  1  0  0  0  0  0  0  0  0  0
   17.2899   71.9270   -6.9578 C   0  0  1  0  0  0  0  0  0  0  0  0
   19.6341   71.5405   -7.1064 C   0  0  1  0  0  0  0  0  0  0  0  0
   17.1271   69.6590  -10.2991 H   0  0  0  0  0  0  0  0  0  0  0  0
   15.6049   70.4675   -9.3320 H   0  0  0  0  0  0  0  0  0  0  0  0
   20.4103   69.4307   -9.4566 H   0  0  0  0  0  0  0  0  0  0  0  0
   21.9267   71.5978   -6.6144 O   0  0  0  0  0  0  0  0  0  0  0  0
   20.9456   73.5619   -7.2299 O   0  0  0  0  0  0  0  0  0  0  0  0
   20.8763   72.3638   -7.0002 C   0  0  0  0  0  0  0  0  0  0  0  0
  1  4  1  0
  1 24  1  0
  1  2  1  1
  1  3  2  0
 25 28  1  0
 25 24  1  0
 25 26  1  6
 25 27  2  0
  6 11  1  0
  6 12  1  0
 29 36  1  0
 29 37  1  0
  9  7  1  6
  7 13  1  0
 10  8  1  6
  8 14  1  0
  4  5  1  0
 36 28  1  1
 33 30  1  6
 30 38  1  0
 34 31  1  1
 31 39  1  0
 35 32  1  1
 32 40  1  0
 41 43  1  0
 15 19  2  0
 42 43  2  0
 16 22  2  0
 12 17  1  1
 17 19  1  0
 17 20  1  0
 18 19  1  0
 18 22  1  0
 18 23  1  0
  9 10  1  0
  9 11  1  0
 10 12  1  0
 11  5  1  1
 33 34  1  0
 33 35  1  0
 34 36  1  0
 35 37  1  0
 37 43  1  6
 20 21  2  0
 21 22  1  0
M  CHG  3   2  -1  26  -1  41  -1
M  END
>  <COMPND>  (400) 
    udp_gluA.pdb 

>  <AUTHOR>  (400) 
    GENERATED BY OPEN BABEL 3.1.1

>  <MASTER>  (400) 
        0    0    0    0    0    0    0    0   56    0   56    0

>  <minimizedAffinity>  (400) 
-7.25404

>  <CNNscore>  (400) 
0.5488706231

>  <CNNaffinity>  (400) 
4.3018264771

>  <CNN_VS>  (400) 
2.3611462116

>  <CNNaffinity_variance>  (400) 
0.1078720689

$$$$
401
     RDKit          3D

 43 45  0  0  0  0  0  0  0  0999 V2000
   21.6539   71.5071   -2.5674 P   0  0  2  0  0  0  0  0  0  0  0  0
   21.1889   72.7871   -3.4416 O   0  0  0  0  0  0  0  0  0  0  0  0
   22.7926   70.7222   -3.1496 O   0  0  0  0  0  0  0  0  0  0  0  0
   20.2828   70.6825   -2.3263 O   0  0  0  0  0  0  0  0  0  0  0  0
   19.6258   70.1206   -3.4475 C   0  0  0  0  0  0  0  0  0  0  0  0
   17.9333   71.3333   -4.6485 O   0  0  0  0  0  0  0  0  0  0  0  0
   15.9424   69.8713   -2.9483 O   0  0  0  0  0  0  0  0  0  0  0  0
   15.8491   68.4891   -5.2971 O   0  0  0  0  0  0  0  0  0  0  0  0
   17.1828   69.4112   -3.4852 C   0  0  1  0  0  0  0  0  0  0  0  0
   17.0491   69.1592   -4.9721 C   0  0  2  0  0  0  0  0  0  0  0  0
   18.1702   70.5696   -3.4460 C   0  0  1  0  0  0  0  0  0  0  0  0
   17.1035   70.5684   -5.5370 C   0  0  2  0  0  0  0  0  0  0  0  0
   15.2954   69.1483   -2.9630 H   0  0  0  0  0  0  0  0  0  0  0  0
   15.8633   67.5970   -4.9152 H   0  0  0  0  0  0  0  0  0  0  0  0
   15.6287   70.2045   -7.9180 O   0  0  0  0  0  0  0  0  0  0  0  0
   19.3807   70.7438  -10.5401 O   0  0  0  0  0  0  0  0  0  0  0  0
   17.6698   70.6087   -6.8555 N   0  0  0  0  0  0  0  0  0  0  0  0
   17.4990   70.4725   -9.2216 N   0  0  0  0  0  0  0  0  0  0  0  0
   16.8414   70.4134   -7.9859 C   0  0  0  0  0  0  0  0  0  0  0  0
   19.0300   70.8412   -7.0193 C   0  0  0  0  0  0  0  0  0  0  0  0
   19.6425   70.8948   -8.2037 C   0  0  0  0  0  0  0  0  0  0  0  0
   18.8489   70.7002   -9.4349 C   0  0  0  0  0  0  0  0  0  0  0  0
   16.9433   70.3374  -10.0231 H   0  0  0  0  0  0  0  0  0  0  0  0
   21.9521   72.1492   -1.1142 O   0  0  0  0  0  0  0  0  0  0  0  0
   21.2381   71.9136    0.3170 P   0  0  2  0  0  0  0  0  0  0  0  0
   22.0949   72.8550    1.3171 O   0  0  0  0  0  0  0  0  0  0  0  0
   21.1607   70.4743    0.7371 O   0  0  0  0  0  0  0  0  0  0  0  0
   19.8092   72.6511    0.1879 O   0  0  0  0  0  0  0  0  0  0  0  0
   18.9646   74.1167   -1.4697 O   0  0  0  0  0  0  0  0  0  0  0  0
   17.1595   75.5811    1.9458 O   0  0  0  0  0  0  0  0  0  0  0  0
   19.9650   74.7674    1.9860 O   0  0  0  0  0  0  0  0  0  0  0  0
   15.6252   74.0038    0.0461 O   0  0  0  0  0  0  0  0  0  0  0  0
   17.7170   74.5813    1.0927 C   0  0  2  0  0  0  0  0  0  0  0  0
   19.1821   74.9116    0.8066 C   0  0  2  0  0  0  0  0  0  0  0  0
   16.9110   74.5664   -0.2080 C   0  0  1  0  0  0  0  0  0  0  0  0
   19.7469   73.9968   -0.2810 C   0  0  1  0  0  0  0  0  0  0  0  0
   17.6037   73.7341   -1.2832 C   0  0  1  0  0  0  0  0  0  0  0  0
   17.6559   75.6089    2.7789 H   0  0  0  0  0  0  0  0  0  0  0  0
   19.6121   75.3449    2.6805 H   0  0  0  0  0  0  0  0  0  0  0  0
   15.1737   74.5242    0.7289 H   0  0  0  0  0  0  0  0  0  0  0  0
   17.8805   74.6180   -3.4381 O   0  0  0  0  0  0  0  0  0  0  0  0
   15.8623   73.6749   -2.9520 O   0  0  0  0  0  0  0  0  0  0  0  0
   16.9967   73.9889   -2.6244 C   0  0  0  0  0  0  0  0  0  0  0  0
  1  4  1  0
  1 24  1  0
  1  2  1  6
  1  3  2  0
 25 28  1  0
 25 24  1  0
 25 26  1  1
 25 27  2  0
  6 11  1  0
  6 12  1  0
 29 36  1  0
 29 37  1  0
  9  7  1  6
  7 13  1  0
 10  8  1  1
  8 14  1  0
  4  5  1  0
 36 28  1  1
 33 30  1  1
 30 38  1  0
 34 31  1  1
 31 39  1  0
 35 32  1  1
 32 40  1  0
 41 43  1  0
 15 19  2  0
 42 43  2  0
 16 22  2  0
 12 17  1  6
 17 19  1  0
 17 20  1  0
 18 19  1  0
 18 22  1  0
 18 23  1  0
  9 10  1  0
  9 11  1  0
 10 12  1  0
 11  5  1  6
 33 34  1  0
 33 35  1  0
 34 36  1  0
 35 37  1  0
 37 43  1  6
 20 21  2  0
 21 22  1  0
M  CHG  3   2  -1  26  -1  41  -1
M  END
>  <COMPND>  (401) 
    udp_gluA.pdb 

>  <AUTHOR>  (401) 
    GENERATED BY OPEN BABEL 3.1.1

>  <MASTER>  (401) 
        0    0    0    0    0    0    0    0   56    0   56    0

>  <minimizedAffinity>  (401) 
-6.46710

>  <CNNscore>  (401) 
0.9248458743

>  <CNNaffinity>  (401) 
4.7641143799

>  <CNN_VS>  (401) 
4.4060716629

>  <CNNaffinity_variance>  (401) 
0.0668574721

$$$$
402
     RDKit          3D

 43 45  0  0  0  0  0  0  0  0999 V2000
   22.6122   71.4180   -2.7634 P   0  0  2  0  0  0  0  0  0  0  0  0
   24.0197   70.7297   -3.1683 O   0  0  0  0  0  0  0  0  0  0  0  0
   22.1413   71.1245   -1.3691 O   0  0  0  0  0  0  0  0  0  0  0  0
   21.6073   70.9760   -3.9520 O   0  0  0  0  0  0  0  0  0  0  0  0
   20.6445   69.9727   -3.6853 C   0  0  0  0  0  0  0  0  0  0  0  0
   18.9411   71.3779   -4.6349 O   0  0  0  0  0  0  0  0  0  0  0  0
   17.1238   70.2934   -2.5105 O   0  0  0  0  0  0  0  0  0  0  0  0
   16.3966   68.8532   -4.7089 O   0  0  0  0  0  0  0  0  0  0  0  0
   18.1640   69.6340   -3.2329 C   0  0  1  0  0  0  0  0  0  0  0  0
   17.7178   69.3489   -4.6513 C   0  0  2  0  0  0  0  0  0  0  0  0
   19.2924   70.6331   -3.4486 C   0  0  1  0  0  0  0  0  0  0  0  0
   17.8600   70.7121   -5.3066 C   0  0  2  0  0  0  0  0  0  0  0  0
   16.3914   69.6747   -2.3606 H   0  0  0  0  0  0  0  0  0  0  0  0
   16.3584   67.9839   -4.2791 H   0  0  0  0  0  0  0  0  0  0  0  0
   15.9300   70.4028   -7.3452 O   0  0  0  0  0  0  0  0  0  0  0  0
   19.1518   70.3626  -10.6410 O   0  0  0  0  0  0  0  0  0  0  0  0
   18.1668   70.6181   -6.7058 N   0  0  0  0  0  0  0  0  0  0  0  0
   17.5366   70.3821   -8.9847 N   0  0  0  0  0  0  0  0  0  0  0  0
   17.1230   70.4640   -7.6485 C   0  0  0  0  0  0  0  0  0  0  0  0
   19.4880   70.6804   -7.1319 C   0  0  0  0  0  0  0  0  0  0  0  0
   19.8667   70.6011   -8.4090 C   0  0  0  0  0  0  0  0  0  0  0  0
   18.8378   70.4384   -9.4570 C   0  0  0  0  0  0  0  0  0  0  0  0
   16.8278   70.2724   -9.6592 H   0  0  0  0  0  0  0  0  0  0  0  0
   22.8721   72.9835   -3.0707 O   0  0  0  0  0  0  0  0  0  0  0  0
   22.9847   73.7862   -4.4696 P   0  0  2  0  0  0  0  0  0  0  0  0
   21.5259   74.4713   -4.6213 O   0  0  0  0  0  0  0  0  0  0  0  0
   23.3924   72.9348   -5.6370 O   0  0  0  0  0  0  0  0  0  0  0  0
   23.9814   75.0155   -4.1570 O   0  0  0  0  0  0  0  0  0  0  0  0
   26.3490   75.0181   -4.0971 O   0  0  0  0  0  0  0  0  0  0  0  0
   25.4355   77.9683   -1.3531 O   0  0  0  0  0  0  0  0  0  0  0  0
   23.9070   75.4794   -1.4156 O   0  0  0  0  0  0  0  0  0  0  0  0
   26.4027   78.6854   -3.9991 O   0  0  0  0  0  0  0  0  0  0  0  0
   25.2454   77.1729   -2.5233 C   0  0  2  0  0  0  0  0  0  0  0  0
   25.1191   75.7017   -2.1271 C   0  0  2  0  0  0  0  0  0  0  0  0
   26.4573   77.3764   -3.4353 C   0  0  1  0  0  0  0  0  0  0  0  0
   25.1451   74.7986   -3.3610 C   0  0  1  0  0  0  0  0  0  0  0  0
   26.4776   76.3569   -4.5705 C   0  0  1  0  0  0  0  0  0  0  0  0
   24.6774   77.8551   -0.7583 H   0  0  0  0  0  0  0  0  0  0  0  0
   23.8837   76.0495   -0.6315 H   0  0  0  0  0  0  0  0  0  0  0  0
   26.3892   79.3439   -3.2869 H   0  0  0  0  0  0  0  0  0  0  0  0
   27.8833   75.3247   -6.1390 O   0  0  0  0  0  0  0  0  0  0  0  0
   28.7088   77.1449   -5.0416 O   0  0  0  0  0  0  0  0  0  0  0  0
   27.8081   76.3461   -5.2501 C   0  0  0  0  0  0  0  0  0  0  0  0
  1  4  1  0
  1 24  1  0
  1  2  1  6
  1  3  2  0
 25 28  1  0
 25 24  1  0
 25 26  1  6
 25 27  2  0
  6 11  1  0
  6 12  1  0
 29 36  1  0
 29 37  1  0
  9  7  1  1
  7 13  1  0
 10  8  1  1
  8 14  1  0
  4  5  1  0
 36 28  1  6
 33 30  1  1
 30 38  1  0
 34 31  1  6
 31 39  1  0
 35 32  1  6
 32 40  1  0
 41 43  1  0
 15 19  2  0
 42 43  2  0
 16 22  2  0
 12 17  1  6
 17 19  1  0
 17 20  1  0
 18 19  1  0
 18 22  1  0
 18 23  1  0
  9 10  1  0
  9 11  1  0
 10 12  1  0
 11  5  1  6
 33 34  1  0
 33 35  1  0
 34 36  1  0
 35 37  1  0
 37 43  1  1
 20 21  2  0
 21 22  1  0
M  CHG  3   2  -1  26  -1  41  -1
M  END
>  <COMPND>  (402) 
    udp_gluA.pdb 

>  <AUTHOR>  (402) 
    GENERATED BY OPEN BABEL 3.1.1

>  <MASTER>  (402) 
        0    0    0    0    0    0    0    0   56    0   56    0

>  <minimizedAffinity>  (402) 
-7.10343

>  <CNNscore>  (402) 
0.9083464742

>  <CNNaffinity>  (402) 
4.7379870415

>  <CNN_VS>  (402) 
4.3037338257

>  <CNNaffinity_variance>  (402) 
0.1778085828

$$$$
403
     RDKit          3D

 43 45  0  0  0  0  0  0  0  0999 V2000
   22.9698   71.3782   -2.3282 P   0  0  2  0  0  0  0  0  0  0  0  0
   22.7912   72.9862   -2.3667 O   0  0  0  0  0  0  0  0  0  0  0  0
   24.1960   70.8602   -3.0210 O   0  0  0  0  0  0  0  0  0  0  0  0
   21.5581   70.8171   -2.8853 O   0  0  0  0  0  0  0  0  0  0  0  0
   20.9458   71.4868   -3.9720 C   0  0  0  0  0  0  0  0  0  0  0  0
   18.8015   72.0451   -4.9038 O   0  0  0  0  0  0  0  0  0  0  0  0
   17.6148   70.6948   -2.5038 O   0  0  0  0  0  0  0  0  0  0  0  0
   17.3562   68.7964   -4.4443 O   0  0  0  0  0  0  0  0  0  0  0  0
   18.7868   70.3544   -3.2449 C   0  0  1  0  0  0  0  0  0  0  0  0
   18.4057   69.7328   -4.5718 C   0  0  2  0  0  0  0  0  0  0  0  0
   19.4594   71.6489   -3.6809 C   0  0  1  0  0  0  0  0  0  0  0  0
   18.0068   70.9508   -5.3876 C   0  0  2  0  0  0  0  0  0  0  0  0
   17.1678   69.8835   -2.2145 H   0  0  0  0  0  0  0  0  0  0  0  0
   17.6600   68.0401   -3.9174 H   0  0  0  0  0  0  0  0  0  0  0  0
   16.0879   70.0382   -7.2481 O   0  0  0  0  0  0  0  0  0  0  0  0
   19.0769   70.3203  -10.7453 O   0  0  0  0  0  0  0  0  0  0  0  0
   18.2567   70.7766   -6.7905 N   0  0  0  0  0  0  0  0  0  0  0  0
   17.5787   70.1786   -8.9879 N   0  0  0  0  0  0  0  0  0  0  0  0
   17.2241   70.3124   -7.6391 C   0  0  0  0  0  0  0  0  0  0  0  0
   19.5117   71.0656   -7.3125 C   0  0  0  0  0  0  0  0  0  0  0  0
   19.8347   70.9332   -8.6005 C   0  0  0  0  0  0  0  0  0  0  0  0
   18.8132   70.4529   -9.5540 C   0  0  0  0  0  0  0  0  0  0  0  0
   16.8769   69.8550   -9.5979 H   0  0  0  0  0  0  0  0  0  0  0  0
   22.8964   71.0427   -0.7487 O   0  0  0  0  0  0  0  0  0  0  0  0
   21.7671   71.3823    0.3572 P   0  0  2  0  0  0  0  0  0  0  0  0
   21.5298   69.9598    1.0924 O   0  0  0  0  0  0  0  0  0  0  0  0
   20.5213   72.0030   -0.2054 O   0  0  0  0  0  0  0  0  0  0  0  0
   22.5284   72.2862    1.4553 O   0  0  0  0  0  0  0  0  0  0  0  0
   24.3256   71.4518    2.7526 O   0  0  0  0  0  0  0  0  0  0  0  0
   23.0621   74.6583    5.0307 O   0  0  0  0  0  0  0  0  0  0  0  0
   21.1174   72.8732    3.7793 O   0  0  0  0  0  0  0  0  0  0  0  0
   25.4892   74.8621    3.4437 O   0  0  0  0  0  0  0  0  0  0  0  0
   23.3015   73.9286    3.8273 C   0  0  2  0  0  0  0  0  0  0  0  0
   22.5150   72.6178    3.8586 C   0  0  2  0  0  0  0  0  0  0  0  0
   24.8028   73.6464    3.7359 C   0  0  1  0  0  0  0  0  0  0  0  0
   22.9217   71.7080    2.6986 C   0  0  1  0  0  0  0  0  0  0  0  0
   25.1136   72.6344    2.6369 C   0  0  1  0  0  0  0  0  0  0  0  0
   22.1142   74.8490    5.1103 H   0  0  0  0  0  0  0  0  0  0  0  0
   20.8525   73.4502    4.5122 H   0  0  0  0  0  0  0  0  0  0  0  0
   25.2997   75.5148    4.1357 H   0  0  0  0  0  0  0  0  0  0  0  0
   26.6305   70.9045    2.1812 O   0  0  0  0  0  0  0  0  0  0  0  0
   27.4252   72.7103    3.3242 O   0  0  0  0  0  0  0  0  0  0  0  0
   26.5105   72.1209    2.7683 C   0  0  0  0  0  0  0  0  0  0  0  0
  1  4  1  0
  1 24  1  0
  1  2  1  1
  1  3  2  0
 25 28  1  0
 25 24  1  0
 25 26  1  1
 25 27  2  0
  6 11  1  0
  6 12  1  0
 29 36  1  0
 29 37  1  0
  9  7  1  1
  7 13  1  0
 10  8  1  1
  8 14  1  0
  4  5  1  0
 36 28  1  6
 33 30  1  1
 30 38  1  0
 34 31  1  6
 31 39  1  0
 35 32  1  6
 32 40  1  0
 41 43  1  0
 15 19  2  0
 42 43  2  0
 16 22  2  0
 12 17  1  6
 17 19  1  0
 17 20  1  0
 18 19  1  0
 18 22  1  0
 18 23  1  0
  9 10  1  0
  9 11  1  0
 10 12  1  0
 11  5  1  6
 33 34  1  0
 33 35  1  0
 34 36  1  0
 35 37  1  0
 37 43  1  1
 20 21  2  0
 21 22  1  0
M  CHG  3   2  -1  26  -1  41  -1
M  END
>  <COMPND>  (403) 
    udp_gluA.pdb 

>  <AUTHOR>  (403) 
    GENERATED BY OPEN BABEL 3.1.1

>  <MASTER>  (403) 
        0    0    0    0    0    0    0    0   56    0   56    0

>  <minimizedAffinity>  (403) 
-8.25556

>  <CNNscore>  (403) 
0.9080795050

>  <CNNaffinity>  (403) 
4.6927385330

>  <CNN_VS>  (403) 
4.2613797188

>  <CNNaffinity_variance>  (403) 
0.0986236632

$$$$
404
     RDKit          3D

 43 45  0  0  0  0  0  0  0  0999 V2000
   22.3646   72.3848   -3.6757 P   0  0  2  0  0  0  0  0  0  0  0  0
   23.8088   71.6622   -3.7812 O   0  0  0  0  0  0  0  0  0  0  0  0
   21.9448   72.7617   -2.2852 O   0  0  0  0  0  0  0  0  0  0  0  0
   21.3693   71.3804   -4.4622 O   0  0  0  0  0  0  0  0  0  0  0  0
   20.6506   70.4173   -3.7136 C   0  0  0  0  0  0  0  0  0  0  0  0
   18.7969   71.5737   -4.7157 O   0  0  0  0  0  0  0  0  0  0  0  0
   17.1063   70.3384   -2.5692 O   0  0  0  0  0  0  0  0  0  0  0  0
   16.5816   68.7548   -4.7262 O   0  0  0  0  0  0  0  0  0  0  0  0
   18.2261   69.7903   -3.2650 C   0  0  1  0  0  0  0  0  0  0  0  0
   17.8315   69.4104   -4.6764 C   0  0  2  0  0  0  0  0  0  0  0  0
   19.2256   70.9136   -3.5050 C   0  0  1  0  0  0  0  0  0  0  0  0
   17.8118   70.7605   -5.3726 C   0  0  2  0  0  0  0  0  0  0  0  0
   16.4538   69.6393   -2.4045 H   0  0  0  0  0  0  0  0  0  0  0  0
   16.6462   67.9006   -4.2700 H   0  0  0  0  0  0  0  0  0  0  0  0
   15.9397   70.2320   -7.4202 O   0  0  0  0  0  0  0  0  0  0  0  0
   19.1875   70.4088  -10.6860 O   0  0  0  0  0  0  0  0  0  0  0  0
   18.1410   70.6631   -6.7666 N   0  0  0  0  0  0  0  0  0  0  0  0
   17.5592   70.3196   -9.0447 N   0  0  0  0  0  0  0  0  0  0  0  0
   17.1255   70.3939   -7.7145 C   0  0  0  0  0  0  0  0  0  0  0  0
   19.4557   70.8349   -7.1824 C   0  0  0  0  0  0  0  0  0  0  0  0
   19.8538   70.7613   -8.4540 C   0  0  0  0  0  0  0  0  0  0  0  0
   18.8552   70.4826   -9.5068 C   0  0  0  0  0  0  0  0  0  0  0  0
   16.8705   70.1311   -9.7226 H   0  0  0  0  0  0  0  0  0  0  0  0
   22.5063   73.6296   -4.6971 O   0  0  0  0  0  0  0  0  0  0  0  0
   22.4789   73.6855   -6.3125 P   0  0  2  0  0  0  0  0  0  0  0  0
   20.9399   74.0626   -6.6435 O   0  0  0  0  0  0  0  0  0  0  0  0
   22.9659   72.4322   -6.9804 O   0  0  0  0  0  0  0  0  0  0  0  0
   23.3137   75.0132   -6.6903 O   0  0  0  0  0  0  0  0  0  0  0  0
   25.0750   76.1431   -5.5811 O   0  0  0  0  0  0  0  0  0  0  0  0
   22.9841   79.2869   -7.2582 O   0  0  0  0  0  0  0  0  0  0  0  0
   21.5622   77.0628   -6.0066 O   0  0  0  0  0  0  0  0  0  0  0  0
   25.4956   78.4131   -8.4328 O   0  0  0  0  0  0  0  0  0  0  0  0
   23.4911   77.9548   -7.1771 C   0  0  2  0  0  0  0  0  0  0  0  0
   22.9646   77.2832   -5.9085 C   0  0  2  0  0  0  0  0  0  0  0  0
   25.0191   78.0316   -7.1437 C   0  0  1  0  0  0  0  0  0  0  0  0
   23.6635   75.9444   -5.6679 C   0  0  1  0  0  0  0  0  0  0  0  0
   25.6366   76.6861   -6.7739 C   0  0  1  0  0  0  0  0  0  0  0  0
   22.0144   79.2631   -7.2806 H   0  0  0  0  0  0  0  0  0  0  0  0
   21.1124   77.9082   -6.1596 H   0  0  0  0  0  0  0  0  0  0  0  0
   25.1099   79.2681   -8.6801 H   0  0  0  0  0  0  0  0  0  0  0  0
   27.6560   75.6340   -6.2112 O   0  0  0  0  0  0  0  0  0  0  0  0
   27.6699   77.9104   -6.3402 O   0  0  0  0  0  0  0  0  0  0  0  0
   27.0805   76.8434   -6.4236 C   0  0  0  0  0  0  0  0  0  0  0  0
  1  4  1  0
  1 24  1  0
  1  2  1  1
  1  3  2  0
 25 28  1  0
 25 24  1  0
 25 26  1  1
 25 27  2  0
  6 11  1  0
  6 12  1  0
 29 36  1  0
 29 37  1  0
  9  7  1  1
  7 13  1  0
 10  8  1  1
  8 14  1  0
  4  5  1  0
 36 28  1  6
 33 30  1  1
 30 38  1  0
 34 31  1  6
 31 39  1  0
 35 32  1  6
 32 40  1  0
 41 43  1  0
 15 19  2  0
 42 43  2  0
 16 22  2  0
 12 17  1  6
 17 19  1  0
 17 20  1  0
 18 19  1  0
 18 22  1  0
 18 23  1  0
  9 10  1  0
  9 11  1  0
 10 12  1  0
 11  5  1  6
 33 34  1  0
 33 35  1  0
 34 36  1  0
 35 37  1  0
 37 43  1  1
 20 21  2  0
 21 22  1  0
M  CHG  3   2  -1  26  -1  41  -1
M  END
>  <COMPND>  (404) 
    udp_gluA.pdb 

>  <AUTHOR>  (404) 
    GENERATED BY OPEN BABEL 3.1.1

>  <MASTER>  (404) 
        0    0    0    0    0    0    0    0   56    0   56    0

>  <minimizedAffinity>  (404) 
-6.57933

>  <CNNscore>  (404) 
0.9069397449

>  <CNNaffinity>  (404) 
4.8450961113

>  <CNN_VS>  (404) 
4.3942103386

>  <CNNaffinity_variance>  (404) 
0.0797055662

$$$$
405
     RDKit          3D

 43 45  0  0  0  0  0  0  0  0999 V2000
   23.4662   71.9392   -3.0763 P   0  0  2  0  0  0  0  0  0  0  0  0
   24.2469   73.1659   -3.7868 O   0  0  0  0  0  0  0  0  0  0  0  0
   24.1935   70.6269   -3.0998 O   0  0  0  0  0  0  0  0  0  0  0  0
   22.0086   71.9474   -3.7787 O   0  0  0  0  0  0  0  0  0  0  0  0
   21.2285   70.7669   -3.7311 C   0  0  0  0  0  0  0  0  0  0  0  0
   19.1819   71.7095   -4.5680 O   0  0  0  0  0  0  0  0  0  0  0  0
   17.8397   70.4006   -2.2278 O   0  0  0  0  0  0  0  0  0  0  0  0
   17.2574   68.6986   -4.2772 O   0  0  0  0  0  0  0  0  0  0  0  0
   18.9322   69.9342   -3.0200 C   0  0  1  0  0  0  0  0  0  0  0  0
   18.4373   69.4688   -4.3731 C   0  0  2  0  0  0  0  0  0  0  0  0
   19.7904   71.1359   -3.3907 C   0  0  1  0  0  0  0  0  0  0  0  0
   18.2190   70.7853   -5.0989 C   0  0  2  0  0  0  0  0  0  0  0  0
   17.2770   69.6503   -1.9787 H   0  0  0  0  0  0  0  0  0  0  0  0
   17.4487   67.8711   -3.8077 H   0  0  0  0  0  0  0  0  0  0  0  0
   16.2239   69.9699   -6.9241 O   0  0  0  0  0  0  0  0  0  0  0  0
   19.0857   70.3744  -10.5144 O   0  0  0  0  0  0  0  0  0  0  0  0
   18.4156   70.6689   -6.5162 N   0  0  0  0  0  0  0  0  0  0  0  0
   17.6514   70.1712   -8.7104 N   0  0  0  0  0  0  0  0  0  0  0  0
   17.3477   70.2505   -7.3449 C   0  0  0  0  0  0  0  0  0  0  0  0
   19.6535   70.9688   -7.0716 C   0  0  0  0  0  0  0  0  0  0  0  0
   19.9278   70.8885   -8.3751 C   0  0  0  0  0  0  0  0  0  0  0  0
   18.8672   70.4584   -9.3097 C   0  0  0  0  0  0  0  0  0  0  0  0
   16.9244   69.8801   -9.3071 H   0  0  0  0  0  0  0  0  0  0  0  0
   23.1597   72.5127   -1.5964 O   0  0  0  0  0  0  0  0  0  0  0  0
   22.7859   71.7521   -0.2197 P   0  0  2  0  0  0  0  0  0  0  0  0
   24.2013   71.1237    0.2517 O   0  0  0  0  0  0  0  0  0  0  0  0
   21.6772   70.7486   -0.3520 O   0  0  0  0  0  0  0  0  0  0  0  0
   22.4945   72.9365    0.8362 O   0  0  0  0  0  0  0  0  0  0  0  0
   21.6769   75.1359    0.5154 O   0  0  0  0  0  0  0  0  0  0  0  0
   24.2733   75.6584    3.6861 O   0  0  0  0  0  0  0  0  0  0  0  0
   25.0134   73.9548    1.4312 O   0  0  0  0  0  0  0  0  0  0  0  0
   21.4022   75.6274    4.1410 O   0  0  0  0  0  0  0  0  0  0  0  0
   23.3361   74.9539    2.8716 C   0  0  2  0  0  0  0  0  0  0  0  0
   23.8877   74.8249    1.4515 C   0  0  2  0  0  0  0  0  0  0  0  0
   22.0268   75.7459    2.8641 C   0  0  1  0  0  0  0  0  0  0  0  0
   22.8221   74.2829    0.4978 C   0  0  1  0  0  0  0  0  0  0  0  0
   21.0655   75.2232    1.8006 C   0  0  1  0  0  0  0  0  0  0  0  0
   25.1135   75.1736    3.7058 H   0  0  0  0  0  0  0  0  0  0  0  0
   25.6935   74.2925    2.0344 H   0  0  0  0  0  0  0  0  0  0  0  0
   22.0038   75.9566    4.8270 H   0  0  0  0  0  0  0  0  0  0  0  0
   19.9713   76.6604    0.3044 O   0  0  0  0  0  0  0  0  0  0  0  0
   19.1202   76.5117    2.4145 O   0  0  0  0  0  0  0  0  0  0  0  0
   19.9476   76.1885    1.5754 C   0  0  0  0  0  0  0  0  0  0  0  0
  1  4  1  0
  1 24  1  0
  1  2  1  6
  1  3  2  0
 25 28  1  0
 25 24  1  0
 25 26  1  1
 25 27  2  0
  6 11  1  0
  6 12  1  0
 29 36  1  0
 29 37  1  0
  9  7  1  1
  7 13  1  0
 10  8  1  1
  8 14  1  0
  4  5  1  0
 36 28  1  1
 33 30  1  1
 30 38  1  0
 34 31  1  1
 31 39  1  0
 35 32  1  1
 32 40  1  0
 41 43  1  0
 15 19  2  0
 42 43  2  0
 16 22  2  0
 12 17  1  6
 17 19  1  0
 17 20  1  0
 18 19  1  0
 18 22  1  0
 18 23  1  0
  9 10  1  0
  9 11  1  0
 10 12  1  0
 11  5  1  6
 33 34  1  0
 33 35  1  0
 34 36  1  0
 35 37  1  0
 37 43  1  6
 20 21  2  0
 21 22  1  0
M  CHG  3   2  -1  26  -1  41  -1
M  END
>  <COMPND>  (405) 
    udp_gluA.pdb 

>  <AUTHOR>  (405) 
    GENERATED BY OPEN BABEL 3.1.1

>  <MASTER>  (405) 
        0    0    0    0    0    0    0    0   56    0   56    0

>  <minimizedAffinity>  (405) 
-6.61257

>  <CNNscore>  (405) 
0.8881785274

>  <CNNaffinity>  (405) 
4.8048691750

>  <CNN_VS>  (405) 
4.2675814629

>  <CNNaffinity_variance>  (405) 
0.0845474154

$$$$
406
     RDKit          3D

 43 45  0  0  0  0  0  0  0  0999 V2000
   21.1357   72.0829   -2.0249 P   0  0  2  0  0  0  0  0  0  0  0  0
   21.8260   70.6298   -1.8492 O   0  0  0  0  0  0  0  0  0  0  0  0
   20.5534   72.6636   -0.7696 O   0  0  0  0  0  0  0  0  0  0  0  0
   20.0990   71.8751   -3.2496 O   0  0  0  0  0  0  0  0  0  0  0  0
   19.3636   70.6671   -3.3154 C   0  0  0  0  0  0  0  0  0  0  0  0
   17.6482   71.6508   -4.6819 O   0  0  0  0  0  0  0  0  0  0  0  0
   15.6896   70.1530   -2.9755 O   0  0  0  0  0  0  0  0  0  0  0  0
   15.8302   68.6075   -5.2178 O   0  0  0  0  0  0  0  0  0  0  0  0
   16.9890   69.7595   -3.4173 C   0  0  1  0  0  0  0  0  0  0  0  0
   16.9551   69.3944   -4.8862 C   0  0  2  0  0  0  0  0  0  0  0  0
   17.8794   70.9946   -3.4165 C   0  0  1  0  0  0  0  0  0  0  0  0
   16.9293   70.7606   -5.5502 C   0  0  2  0  0  0  0  0  0  0  0  0
   15.1027   69.3802   -2.9677 H   0  0  0  0  0  0  0  0  0  0  0  0
   15.8936   67.7483   -4.7709 H   0  0  0  0  0  0  0  0  0  0  0  0
   15.5905   70.2266   -7.9790 O   0  0  0  0  0  0  0  0  0  0  0  0
   19.4515   70.7667  -10.4375 O   0  0  0  0  0  0  0  0  0  0  0  0
   17.5605   70.7551   -6.8396 N   0  0  0  0  0  0  0  0  0  0  0  0
   17.5150   70.4951   -9.2010 N   0  0  0  0  0  0  0  0  0  0  0  0
   16.7976   70.4745   -7.9977 C   0  0  0  0  0  0  0  0  0  0  0  0
   18.9189   71.0271   -6.9480 C   0  0  0  0  0  0  0  0  0  0  0  0
   19.5888   71.0432   -8.1020 C   0  0  0  0  0  0  0  0  0  0  0  0
   18.8658   70.7595   -9.3591 C   0  0  0  0  0  0  0  0  0  0  0  0
   17.0056   70.3007  -10.0208 H   0  0  0  0  0  0  0  0  0  0  0  0
   22.3138   72.9661   -2.6919 O   0  0  0  0  0  0  0  0  0  0  0  0
   23.0227   72.8682   -4.1415 P   0  0  2  0  0  0  0  0  0  0  0  0
   22.3938   71.5156   -4.7702 O   0  0  0  0  0  0  0  0  0  0  0  0
   24.5232   72.8895   -4.0960 O   0  0  0  0  0  0  0  0  0  0  0  0
   22.3621   74.0625   -5.0017 O   0  0  0  0  0  0  0  0  0  0  0  0
   20.4755   74.7266   -6.2701 O   0  0  0  0  0  0  0  0  0  0  0  0
   23.4869   74.8900   -9.0937 O   0  0  0  0  0  0  0  0  0  0  0  0
   23.3543   72.6722   -7.1968 O   0  0  0  0  0  0  0  0  0  0  0  0
   22.4393   77.3413   -7.9342 O   0  0  0  0  0  0  0  0  0  0  0  0
   22.9187   74.9846   -7.7875 C   0  0  2  0  0  0  0  0  0  0  0  0
   22.3234   73.6339   -7.3893 C   0  0  2  0  0  0  0  0  0  0  0  0
   21.8279   76.0574   -7.8229 C   0  0  1  0  0  0  0  0  0  0  0  0
   21.5075   73.7540   -6.1014 C   0  0  1  0  0  0  0  0  0  0  0  0
   20.9782   76.0299   -6.5557 C   0  0  1  0  0  0  0  0  0  0  0  0
   24.1829   74.2140   -9.0956 H   0  0  0  0  0  0  0  0  0  0  0  0
   23.8762   72.5911   -8.0101 H   0  0  0  0  0  0  0  0  0  0  0  0
   22.9832   77.3720   -8.7367 H   0  0  0  0  0  0  0  0  0  0  0  0
   19.5180   77.1011   -8.0463 O   0  0  0  0  0  0  0  0  0  0  0  0
   19.0048   77.2117   -5.8274 O   0  0  0  0  0  0  0  0  0  0  0  0
   19.7341   76.8378   -6.7337 C   0  0  0  0  0  0  0  0  0  0  0  0
  1  4  1  0
  1 24  1  0
  1  2  1  1
  1  3  2  0
 25 28  1  0
 25 24  1  0
 25 26  1  6
 25 27  2  0
  6 11  1  0
  6 12  1  0
 29 36  1  0
 29 37  1  0
  9  7  1  6
  7 13  1  0
 10  8  1  1
  8 14  1  0
  4  5  1  0
 36 28  1  1
 33 30  1  6
 30 38  1  0
 34 31  1  1
 31 39  1  0
 35 32  1  1
 32 40  1  0
 41 43  1  0
 15 19  2  0
 42 43  2  0
 16 22  2  0
 12 17  1  6
 17 19  1  0
 17 20  1  0
 18 19  1  0
 18 22  1  0
 18 23  1  0
  9 10  1  0
  9 11  1  0
 10 12  1  0
 11  5  1  6
 33 34  1  0
 33 35  1  0
 34 36  1  0
 35 37  1  0
 37 43  1  6
 20 21  2  0
 21 22  1  0
M  CHG  3   2  -1  26  -1  41  -1
M  END
>  <COMPND>  (406) 
    udp_gluA.pdb 

>  <AUTHOR>  (406) 
    GENERATED BY OPEN BABEL 3.1.1

>  <MASTER>  (406) 
        0    0    0    0    0    0    0    0   56    0   56    0

>  <minimizedAffinity>  (406) 
-7.13041

>  <CNNscore>  (406) 
0.8668020964

>  <CNNaffinity>  (406) 
4.6934313774

>  <CNN_VS>  (406) 
4.0682759285

>  <CNNaffinity_variance>  (406) 
0.2262953222

$$$$
407
     RDKit          3D

 43 45  0  0  0  0  0  0  0  0999 V2000
   21.5694   72.6505   -4.8125 P   0  0  2  0  0  0  0  0  0  0  0  0
   21.4623   74.2647   -4.7708 O   0  0  0  0  0  0  0  0  0  0  0  0
   22.4846   72.1034   -5.8684 O   0  0  0  0  0  0  0  0  0  0  0  0
   20.0295   72.1609   -4.8951 O   0  0  0  0  0  0  0  0  0  0  0  0
   19.4890   71.4423   -3.8014 C   0  0  0  0  0  0  0  0  0  0  0  0
   17.6072   71.8270   -5.2467 O   0  0  0  0  0  0  0  0  0  0  0  0
   15.9836   70.3202   -3.2256 O   0  0  0  0  0  0  0  0  0  0  0  0
   16.4009   68.4517   -5.1674 O   0  0  0  0  0  0  0  0  0  0  0  0
   17.3311   70.1038   -3.6451 C   0  0  1  0  0  0  0  0  0  0  0  0
   17.3569   69.4814   -5.0251 C   0  0  2  0  0  0  0  0  0  0  0  0
   17.9688   71.4633   -3.8968 C   0  0  1  0  0  0  0  0  0  0  0  0
   17.0656   70.6771   -5.9158 C   0  0  2  0  0  0  0  0  0  0  0  0
   15.5554   69.4655   -3.0587 H   0  0  0  0  0  0  0  0  0  0  0  0
   16.6307   67.7138   -4.5804 H   0  0  0  0  0  0  0  0  0  0  0  0
   15.6538   70.7617   -8.3605 O   0  0  0  0  0  0  0  0  0  0  0  0
   19.5138   70.2120  -10.8186 O   0  0  0  0  0  0  0  0  0  0  0  0
   17.6768   70.5586   -7.2094 N   0  0  0  0  0  0  0  0  0  0  0  0
   17.5775   70.4868   -9.5824 N   0  0  0  0  0  0  0  0  0  0  0  0
   16.8773   70.6139   -8.3755 C   0  0  0  0  0  0  0  0  0  0  0  0
   19.0523   70.3915   -7.3139 C   0  0  0  0  0  0  0  0  0  0  0  0
   19.7055   70.2719   -8.4713 C   0  0  0  0  0  0  0  0  0  0  0  0
   18.9440   70.3183   -9.7368 C   0  0  0  0  0  0  0  0  0  0  0  0
   17.0420   70.5202  -10.4079 H   0  0  0  0  0  0  0  0  0  0  0  0
   21.9893   72.2754   -3.2973 O   0  0  0  0  0  0  0  0  0  0  0  0
   23.4423   72.0798   -2.6160 P   0  0  2  0  0  0  0  0  0  0  0  0
   24.2123   73.4549   -2.9857 O   0  0  0  0  0  0  0  0  0  0  0  0
   24.1612   70.8338   -3.0457 O   0  0  0  0  0  0  0  0  0  0  0  0
   23.1675   72.1809   -1.0296 O   0  0  0  0  0  0  0  0  0  0  0  0
   24.4034   70.9872    0.6003 O   0  0  0  0  0  0  0  0  0  0  0  0
   20.8771   71.7519    2.6126 O   0  0  0  0  0  0  0  0  0  0  0  0
   20.8340   70.9227   -0.1883 O   0  0  0  0  0  0  0  0  0  0  0  0
   23.2702   73.2832    3.2283 O   0  0  0  0  0  0  0  0  0  0  0  0
   21.9297   72.0101    1.6833 C   0  0  2  0  0  0  0  0  0  0  0  0
   21.9849   70.8869    0.6476 C   0  0  2  0  0  0  0  0  0  0  0  0
   23.2438   72.0790    2.4644 C   0  0  1  0  0  0  0  0  0  0  0  0
   23.2366   71.0065   -0.2230 C   0  0  1  0  0  0  0  0  0  0  0  0
   24.4492   72.0683    1.5288 C   0  0  1  0  0  0  0  0  0  0  0  0
   20.0319   71.7038    2.1388 H   0  0  0  0  0  0  0  0  0  0  0  0
   20.0360   70.8475    0.3575 H   0  0  0  0  0  0  0  0  0  0  0  0
   22.5080   73.3025    3.8279 H   0  0  0  0  0  0  0  0  0  0  0  0
   26.1608   72.9411    2.8743 O   0  0  0  0  0  0  0  0  0  0  0  0
   26.2595   70.7179    2.3776 O   0  0  0  0  0  0  0  0  0  0  0  0
   25.7083   71.8047    2.2887 C   0  0  0  0  0  0  0  0  0  0  0  0
  1  4  1  0
  1 24  1  0
  1  2  1  1
  1  3  2  0
 25 28  1  0
 25 24  1  0
 25 26  1  6
 25 27  2  0
  6 11  1  0
  6 12  1  0
 29 36  1  0
 29 37  1  0
  9  7  1  6
  7 13  1  0
 10  8  1  1
  8 14  1  0
  4  5  1  0
 36 28  1  1
 33 30  1  1
 30 38  1  0
 34 31  1  6
 31 39  1  0
 35 32  1  6
 32 40  1  0
 41 43  1  0
 15 19  2  0
 42 43  2  0
 16 22  2  0
 12 17  1  6
 17 19  1  0
 17 20  1  0
 18 19  1  0
 18 22  1  0
 18 23  1  0
  9 10  1  0
  9 11  1  0
 10 12  1  0
 11  5  1  6
 33 34  1  0
 33 35  1  0
 34 36  1  0
 35 37  1  0
 37 43  1  1
 20 21  2  0
 21 22  1  0
M  CHG  3   2  -1  26  -1  41  -1
M  END
>  <COMPND>  (407) 
    udp_gluA.pdb 

>  <AUTHOR>  (407) 
    GENERATED BY OPEN BABEL 3.1.1

>  <MASTER>  (407) 
        0    0    0    0    0    0    0    0   56    0   56    0

>  <minimizedAffinity>  (407) 
-8.46809

>  <CNNscore>  (407) 
0.8662164807

>  <CNNaffinity>  (407) 
4.7419672012

>  <CNN_VS>  (407) 
4.1075701714

>  <CNNaffinity_variance>  (407) 
0.0375271402

$$$$
408
     RDKit          3D

 43 45  0  0  0  0  0  0  0  0999 V2000
   23.4947   71.9491   -3.1838 P   0  0  2  0  0  0  0  0  0  0  0  0
   24.2783   73.0475   -4.0772 O   0  0  0  0  0  0  0  0  0  0  0  0
   24.1506   70.6010   -3.1184 O   0  0  0  0  0  0  0  0  0  0  0  0
   21.9888   71.9699   -3.7753 O   0  0  0  0  0  0  0  0  0  0  0  0
   21.2194   70.7833   -3.7076 C   0  0  0  0  0  0  0  0  0  0  0  0
   19.1699   71.7132   -4.5517 O   0  0  0  0  0  0  0  0  0  0  0  0
   17.8286   70.4009   -2.2128 O   0  0  0  0  0  0  0  0  0  0  0  0
   17.2612   68.6922   -4.2609 O   0  0  0  0  0  0  0  0  0  0  0  0
   18.9257   69.9392   -3.0013 C   0  0  1  0  0  0  0  0  0  0  0  0
   18.4371   69.4687   -4.3548 C   0  0  2  0  0  0  0  0  0  0  0  0
   19.7783   71.1450   -3.3717 C   0  0  1  0  0  0  0  0  0  0  0  0
   18.2135   70.7828   -5.0836 C   0  0  2  0  0  0  0  0  0  0  0  0
   17.2693   69.6480   -1.9639 H   0  0  0  0  0  0  0  0  0  0  0  0
   17.4558   67.8666   -3.7894 H   0  0  0  0  0  0  0  0  0  0  0  0
   16.2392   69.9169   -6.9081 O   0  0  0  0  0  0  0  0  0  0  0  0
   19.0966   70.3692  -10.4962 O   0  0  0  0  0  0  0  0  0  0  0  0
   18.4146   70.6650   -6.5001 N   0  0  0  0  0  0  0  0  0  0  0  0
   17.6645   70.1421   -8.6933 N   0  0  0  0  0  0  0  0  0  0  0  0
   17.3573   70.2202   -7.3286 C   0  0  0  0  0  0  0  0  0  0  0  0
   19.6465   70.9896   -7.0551 C   0  0  0  0  0  0  0  0  0  0  0  0
   19.9243   70.9101   -8.3579 C   0  0  0  0  0  0  0  0  0  0  0  0
   18.8746   70.4532   -9.2921 C   0  0  0  0  0  0  0  0  0  0  0  0
   16.9448   69.8329   -9.2898 H   0  0  0  0  0  0  0  0  0  0  0  0
   23.3345   72.6900   -1.7561 O   0  0  0  0  0  0  0  0  0  0  0  0
   22.8824   72.1234   -0.3111 P   0  0  2  0  0  0  0  0  0  0  0  0
   24.0254   71.0296    0.0315 O   0  0  0  0  0  0  0  0  0  0  0  0
   21.4809   71.5865   -0.2712 O   0  0  0  0  0  0  0  0  0  0  0  0
   23.1628   73.3393    0.7113 O   0  0  0  0  0  0  0  0  0  0  0  0
   24.9742   74.8211    1.0755 O   0  0  0  0  0  0  0  0  0  0  0  0
   23.7647   74.0059    4.9408 O   0  0  0  0  0  0  0  0  0  0  0  0
   23.9080   71.8704    2.9525 O   0  0  0  0  0  0  0  0  0  0  0  0
   23.1033   76.5561    3.7121 O   0  0  0  0  0  0  0  0  0  0  0  0
   23.5964   74.2043    3.5372 C   0  0  2  0  0  0  0  0  0  0  0  0
   24.4342   73.1799    2.7715 C   0  0  2  0  0  0  0  0  0  0  0  0
   24.0558   75.6250    3.2019 C   0  0  1  0  0  0  0  0  0  0  0  0
   24.4620   73.5033    1.2770 C   0  0  1  0  0  0  0  0  0  0  0  0
   24.1789   75.8296    1.6948 C   0  0  1  0  0  0  0  0  0  0  0  0
   23.4791   73.1093    5.1774 H   0  0  0  0  0  0  0  0  0  0  0  0
   23.8872   71.6587    3.8986 H   0  0  0  0  0  0  0  0  0  0  0  0
   23.0154   76.4363    4.6706 H   0  0  0  0  0  0  0  0  0  0  0  0
   26.0843   76.8035    0.7343 O   0  0  0  0  0  0  0  0  0  0  0  0
   24.5628   78.2116    1.6836 O   0  0  0  0  0  0  0  0  0  0  0  0
   24.9307   77.0842    1.3894 C   0  0  0  0  0  0  0  0  0  0  0  0
  1  4  1  0
  1 24  1  0
  1  2  1  6
  1  3  2  0
 25 28  1  0
 25 24  1  0
 25 26  1  1
 25 27  2  0
  6 11  1  0
  6 12  1  0
 29 36  1  0
 29 37  1  0
  9  7  1  1
  7 13  1  0
 10  8  1  1
  8 14  1  0
  4  5  1  0
 36 28  1  1
 33 30  1  1
 30 38  1  0
 34 31  1  6
 31 39  1  0
 35 32  1  6
 32 40  1  0
 41 43  1  0
 15 19  2  0
 42 43  2  0
 16 22  2  0
 12 17  1  6
 17 19  1  0
 17 20  1  0
 18 19  1  0
 18 22  1  0
 18 23  1  0
  9 10  1  0
  9 11  1  0
 10 12  1  0
 11  5  1  6
 33 34  1  0
 33 35  1  0
 34 36  1  0
 35 37  1  0
 37 43  1  1
 20 21  2  0
 21 22  1  0
M  CHG  3   2  -1  26  -1  41  -1
M  END
>  <COMPND>  (408) 
    udp_gluA.pdb 

>  <AUTHOR>  (408) 
    GENERATED BY OPEN BABEL 3.1.1

>  <MASTER>  (408) 
        0    0    0    0    0    0    0    0   56    0   56    0

>  <minimizedAffinity>  (408) 
-6.88113

>  <CNNscore>  (408) 
0.8642560244

>  <CNNaffinity>  (408) 
4.7161440849

>  <CNN_VS>  (408) 
4.0759558678

>  <CNNaffinity_variance>  (408) 
0.0973301902

$$$$
409
     RDKit          3D

 43 45  0  0  0  0  0  0  0  0999 V2000
   20.7762   73.0612   -3.0035 P   0  0  2  0  0  0  0  0  0  0  0  0
   19.6630   74.2301   -2.8884 O   0  0  0  0  0  0  0  0  0  0  0  0
   22.1648   73.5372   -3.3153 O   0  0  0  0  0  0  0  0  0  0  0  0
   20.1366   72.0184   -4.0625 O   0  0  0  0  0  0  0  0  0  0  0  0
   19.4109   70.9092   -3.5650 C   0  0  0  0  0  0  0  0  0  0  0  0
   17.6635   71.7552   -4.9822 O   0  0  0  0  0  0  0  0  0  0  0  0
   15.7505   70.3613   -3.1412 O   0  0  0  0  0  0  0  0  0  0  0  0
   15.8939   68.6494   -5.2590 O   0  0  0  0  0  0  0  0  0  0  0  0
   17.0518   69.9567   -3.5672 C   0  0  1  0  0  0  0  0  0  0  0  0
   17.0082   69.4784   -5.0030 C   0  0  2  0  0  0  0  0  0  0  0  0
   17.9201   71.2030   -3.6728 C   0  0  1  0  0  0  0  0  0  0  0  0
   16.9510   70.7884   -5.7702 C   0  0  2  0  0  0  0  0  0  0  0  0
   15.1775   69.5817   -3.0665 H   0  0  0  0  0  0  0  0  0  0  0  0
   15.9774   67.8286   -4.7479 H   0  0  0  0  0  0  0  0  0  0  0  0
   15.5322   70.5626   -8.2018 O   0  0  0  0  0  0  0  0  0  0  0  0
   19.4221   70.4320  -10.6706 O   0  0  0  0  0  0  0  0  0  0  0  0
   17.5680   70.6938   -7.0630 N   0  0  0  0  0  0  0  0  0  0  0  0
   17.4709   70.4968   -9.4290 N   0  0  0  0  0  0  0  0  0  0  0  0
   16.7643   70.5836   -8.2223 C   0  0  0  0  0  0  0  0  0  0  0  0
   18.9530   70.7122   -7.1735 C   0  0  0  0  0  0  0  0  0  0  0  0
   19.6123   70.6287   -8.3307 C   0  0  0  0  0  0  0  0  0  0  0  0
   18.8471   70.5103   -9.5892 C   0  0  0  0  0  0  0  0  0  0  0  0
   16.9329   70.4172  -10.2497 H   0  0  0  0  0  0  0  0  0  0  0  0
   20.6319   72.2826   -1.5944 O   0  0  0  0  0  0  0  0  0  0  0  0
   21.6862   71.3758   -0.7699 P   0  0  2  0  0  0  0  0  0  0  0  0
   22.4952   70.5970   -1.9358 O   0  0  0  0  0  0  0  0  0  0  0  0
   21.0561   70.4754    0.2530 O   0  0  0  0  0  0  0  0  0  0  0  0
   22.7505   72.4291   -0.1697 O   0  0  0  0  0  0  0  0  0  0  0  0
   21.8425   73.5310    1.7199 O   0  0  0  0  0  0  0  0  0  0  0  0
   25.4768   75.4489    1.2942 O   0  0  0  0  0  0  0  0  0  0  0  0
   23.8457   74.8298   -1.0490 O   0  0  0  0  0  0  0  0  0  0  0  0
   25.1059   73.4751    3.3960 O   0  0  0  0  0  0  0  0  0  0  0  0
   24.5648   74.3532    1.2186 C   0  0  2  0  0  0  0  0  0  0  0  0
   23.4004   74.7193    0.2979 C   0  0  2  0  0  0  0  0  0  0  0  0
   24.0550   74.0639    2.6322 C   0  0  1  0  0  0  0  0  0  0  0  0
   22.2930   73.6671    0.3715 C   0  0  1  0  0  0  0  0  0  0  0  0
   22.8698   73.1028    2.6111 C   0  0  1  0  0  0  0  0  0  0  0  0
   25.8140   75.6510    0.4072 H   0  0  0  0  0  0  0  0  0  0  0  0
   24.5487   75.4957   -1.1031 H   0  0  0  0  0  0  0  0  0  0  0  0
   25.8664   74.0767    3.4171 H   0  0  0  0  0  0  0  0  0  0  0  0
   20.9999   73.7512    3.8699 O   0  0  0  0  0  0  0  0  0  0  0  0
   22.6078   72.5422    4.9431 O   0  0  0  0  0  0  0  0  0  0  0  0
   22.1786   73.0839    3.9355 C   0  0  0  0  0  0  0  0  0  0  0  0
  1  4  1  0
  1 24  1  0
  1  2  1  1
  1  3  2  0
 25 28  1  0
 25 24  1  0
 25 26  1  6
 25 27  2  0
  6 11  1  0
  6 12  1  0
 29 36  1  0
 29 37  1  0
  9  7  1  6
  7 13  1  0
 10  8  1  1
  8 14  1  0
  4  5  1  0
 36 28  1  1
 33 30  1  1
 30 38  1  0
 34 31  1  6
 31 39  1  0
 35 32  1  1
 32 40  1  0
 41 43  1  0
 15 19  2  0
 42 43  2  0
 16 22  2  0
 12 17  1  6
 17 19  1  0
 17 20  1  0
 18 19  1  0
 18 22  1  0
 18 23  1  0
  9 10  1  0
  9 11  1  0
 10 12  1  0
 11  5  1  6
 33 34  1  0
 33 35  1  0
 34 36  1  0
 35 37  1  0
 37 43  1  1
 20 21  2  0
 21 22  1  0
M  CHG  3   2  -1  26  -1  41  -1
M  END
>  <COMPND>  (409) 
    udp_gluA.pdb 

>  <AUTHOR>  (409) 
    GENERATED BY OPEN BABEL 3.1.1

>  <MASTER>  (409) 
        0    0    0    0    0    0    0    0   56    0   56    0

>  <minimizedAffinity>  (409) 
-6.96105

>  <CNNscore>  (409) 
0.8408166170

>  <CNNaffinity>  (409) 
4.5280351639

>  <CNN_VS>  (409) 
3.8072471619

>  <CNNaffinity_variance>  (409) 
0.0744061843

$$$$
410
     RDKit          3D

 43 45  0  0  0  0  0  0  0  0999 V2000
   22.8157   72.5957   -4.2278 P   0  0  2  0  0  0  0  0  0  0  0  0
   23.1681   73.5720   -5.4693 O   0  0  0  0  0  0  0  0  0  0  0  0
   23.9471   71.7249   -3.7657 O   0  0  0  0  0  0  0  0  0  0  0  0
   21.4825   71.8173   -4.7120 O   0  0  0  0  0  0  0  0  0  0  0  0
   20.8905   70.8788   -3.8325 C   0  0  0  0  0  0  0  0  0  0  0  0
   18.9138   71.8440   -4.8015 O   0  0  0  0  0  0  0  0  0  0  0  0
   17.4138   70.5964   -2.5245 O   0  0  0  0  0  0  0  0  0  0  0  0
   16.9201   68.8725   -4.5789 O   0  0  0  0  0  0  0  0  0  0  0  0
   18.5416   70.0982   -3.2445 C   0  0  1  0  0  0  0  0  0  0  0  0
   18.1177   69.6201   -4.6171 C   0  0  2  0  0  0  0  0  0  0  0  0
   19.4421   71.2786   -3.5822 C   0  0  1  0  0  0  0  0  0  0  0  0
   17.9664   70.9286   -5.3739 C   0  0  2  0  0  0  0  0  0  0  0  0
   16.8237   69.8602   -2.2975 H   0  0  0  0  0  0  0  0  0  0  0  0
   17.0685   68.0493   -4.0867 H   0  0  0  0  0  0  0  0  0  0  0  0
   16.0527   70.1714   -7.3081 O   0  0  0  0  0  0  0  0  0  0  0  0
   19.1394   70.4135  -10.7224 O   0  0  0  0  0  0  0  0  0  0  0  0
   18.2429   70.7861   -6.7754 N   0  0  0  0  0  0  0  0  0  0  0  0
   17.5921   70.2917   -9.0066 N   0  0  0  0  0  0  0  0  0  0  0  0
   17.2105   70.4008   -7.6629 C   0  0  0  0  0  0  0  0  0  0  0  0
   19.5233   71.0285   -7.2579 C   0  0  0  0  0  0  0  0  0  0  0  0
   19.8719   70.9205   -8.5415 C   0  0  0  0  0  0  0  0  0  0  0  0
   18.8525   70.5217   -9.5340 C   0  0  0  0  0  0  0  0  0  0  0  0
   16.8909   70.0228   -9.6432 H   0  0  0  0  0  0  0  0  0  0  0  0
   22.2534   73.6188   -3.1098 O   0  0  0  0  0  0  0  0  0  0  0  0
   23.0220   74.4878   -1.9839 P   0  0  2  0  0  0  0  0  0  0  0  0
   22.2558   75.9130   -2.0299 O   0  0  0  0  0  0  0  0  0  0  0  0
   24.5073   74.5776   -2.1829 O   0  0  0  0  0  0  0  0  0  0  0  0
   22.5729   73.8293   -0.5814 O   0  0  0  0  0  0  0  0  0  0  0  0
   23.6230   73.6218    1.5313 O   0  0  0  0  0  0  0  0  0  0  0  0
   21.6663   69.9978    1.2056 O   0  0  0  0  0  0  0  0  0  0  0  0
   23.0613   71.1394   -1.0933 O   0  0  0  0  0  0  0  0  0  0  0  0
   20.6107   72.0750    2.9440 O   0  0  0  0  0  0  0  0  0  0  0  0
   21.8608   71.3969    0.9992 C   0  0  2  0  0  0  0  0  0  0  0  0
   23.1680   71.6253    0.2398 C   0  0  2  0  0  0  0  0  0  0  0  0
   21.9167   72.0740    2.3704 C   0  0  1  0  0  0  0  0  0  0  0  0
   23.5257   73.1117    0.2010 C   0  0  1  0  0  0  0  0  0  0  0  0
   22.4020   73.5165    2.2601 C   0  0  1  0  0  0  0  0  0  0  0  0
   21.6277   69.5465    0.3476 H   0  0  0  0  0  0  0  0  0  0  0  0
   22.8343   70.1968   -1.0763 H   0  0  0  0  0  0  0  0  0  0  0  0
   20.2901   71.1626    3.0196 H   0  0  0  0  0  0  0  0  0  0  0  0
   22.5517   73.1290    4.5686 O   0  0  0  0  0  0  0  0  0  0  0  0
   23.1995   75.1809    3.8142 O   0  0  0  0  0  0  0  0  0  0  0  0
   22.7659   74.0580    3.6042 C   0  0  0  0  0  0  0  0  0  0  0  0
  1  4  1  0
  1 24  1  0
  1  2  1  6
  1  3  2  0
 25 28  1  0
 25 24  1  0
 25 26  1  1
 25 27  2  0
  6 11  1  0
  6 12  1  0
 29 36  1  0
 29 37  1  0
  9  7  1  1
  7 13  1  0
 10  8  1  1
  8 14  1  0
  4  5  1  0
 36 28  1  6
 33 30  1  1
 30 38  1  0
 34 31  1  6
 31 39  1  0
 35 32  1  6
 32 40  1  0
 41 43  1  0
 15 19  2  0
 42 43  2  0
 16 22  2  0
 12 17  1  6
 17 19  1  0
 17 20  1  0
 18 19  1  0
 18 22  1  0
 18 23  1  0
  9 10  1  0
  9 11  1  0
 10 12  1  0
 11  5  1  6
 33 34  1  0
 33 35  1  0
 34 36  1  0
 35 37  1  0
 37 43  1  1
 20 21  2  0
 21 22  1  0
M  CHG  3   2  -1  26  -1  41  -1
M  END
>  <COMPND>  (410) 
    udp_gluA.pdb 

>  <AUTHOR>  (410) 
    GENERATED BY OPEN BABEL 3.1.1

>  <MASTER>  (410) 
        0    0    0    0    0    0    0    0   56    0   56    0

>  <minimizedAffinity>  (410) 
-7.91332

>  <CNNscore>  (410) 
0.8297920823

>  <CNNaffinity>  (410) 
4.6665878296

>  <CNN_VS>  (410) 
3.8722975254

>  <CNNaffinity_variance>  (410) 
0.0455733240

$$$$
411
     RDKit          3D

 43 45  0  0  0  0  0  0  0  0999 V2000
   20.7389   71.7409   -1.3648 P   0  0  2  0  0  0  0  0  0  0  0  0
   22.2213   72.0192   -1.9513 O   0  0  0  0  0  0  0  0  0  0  0  0
   20.3683   70.2921   -1.2407 O   0  0  0  0  0  0  0  0  0  0  0  0
   19.7741   72.6347   -2.3073 O   0  0  0  0  0  0  0  0  0  0  0  0
   19.4181   72.1307   -3.5815 C   0  0  0  0  0  0  0  0  0  0  0  0
   17.4356   72.0480   -4.9382 O   0  0  0  0  0  0  0  0  0  0  0  0
   16.2551   70.3330   -2.7803 O   0  0  0  0  0  0  0  0  0  0  0  0
   16.9689   68.5032   -4.6720 O   0  0  0  0  0  0  0  0  0  0  0  0
   17.5981   70.3819   -3.2624 C   0  0  1  0  0  0  0  0  0  0  0  0
   17.6930   69.7146   -4.6181 C   0  0  2  0  0  0  0  0  0  0  0  0
   17.9247   71.8309   -3.5970 C   0  0  1  0  0  0  0  0  0  0  0  0
   17.1182   70.7806   -5.5352 C   0  0  2  0  0  0  0  0  0  0  0  0
   16.0235   69.4167   -2.5599 H   0  0  0  0  0  0  0  0  0  0  0  0
   17.3741   67.8574   -4.0714 H   0  0  0  0  0  0  0  0  0  0  0  0
   15.6251   70.3550   -7.8944 O   0  0  0  0  0  0  0  0  0  0  0  0
   19.3900   70.6107  -10.5410 O   0  0  0  0  0  0  0  0  0  0  0  0
   17.6829   70.7313   -6.8542 N   0  0  0  0  0  0  0  0  0  0  0  0
   17.5018   70.4818   -9.2102 N   0  0  0  0  0  0  0  0  0  0  0  0
   16.8450   70.5118   -7.9730 C   0  0  0  0  0  0  0  0  0  0  0  0
   19.0509   70.9009   -7.0297 C   0  0  0  0  0  0  0  0  0  0  0  0
   19.6625   70.8698   -8.2154 C   0  0  0  0  0  0  0  0  0  0  0  0
   18.8592   70.6445   -9.4350 C   0  0  0  0  0  0  0  0  0  0  0  0
   16.9395   70.3283  -10.0037 H   0  0  0  0  0  0  0  0  0  0  0  0
   20.7415   72.5571    0.0304 O   0  0  0  0  0  0  0  0  0  0  0  0
   21.3023   72.1572    1.4930 P   0  0  2  0  0  0  0  0  0  0  0  0
   21.8642   70.6547    1.2756 O   0  0  0  0  0  0  0  0  0  0  0  0
   20.2922   72.2861    2.5962 O   0  0  0  0  0  0  0  0  0  0  0  0
   22.6238   73.0621    1.6862 O   0  0  0  0  0  0  0  0  0  0  0  0
   24.1990   73.8626    0.1090 O   0  0  0  0  0  0  0  0  0  0  0  0
   26.5763   73.2404    3.4301 O   0  0  0  0  0  0  0  0  0  0  0  0
   24.5228   71.2973    2.6939 O   0  0  0  0  0  0  0  0  0  0  0  0
   25.8026   75.9388    2.6742 O   0  0  0  0  0  0  0  0  0  0  0  0
   25.3766   73.5680    2.7291 C   0  0  2  0  0  0  0  0  0  0  0  0
   24.9444   72.3788    1.8709 C   0  0  2  0  0  0  0  0  0  0  0  0
   25.6617   74.7855    1.8469 C   0  0  1  0  0  0  0  0  0  0  0  0
   23.7996   72.7675    0.9342 C   0  0  1  0  0  0  0  0  0  0  0  0
   24.5287   75.0322    0.8549 C   0  0  1  0  0  0  0  0  0  0  0  0
   26.4192   72.4692    3.9974 H   0  0  0  0  0  0  0  0  0  0  0  0
   25.2443   71.0457    3.2910 H   0  0  0  0  0  0  0  0  0  0  0  0
   26.5205   75.7946    3.3103 H   0  0  0  0  0  0  0  0  0  0  0  0
   25.1976   77.2186    0.3315 O   0  0  0  0  0  0  0  0  0  0  0  0
   25.0657   75.7307   -1.3913 O   0  0  0  0  0  0  0  0  0  0  0  0
   24.9518   75.9973   -0.2043 C   0  0  0  0  0  0  0  0  0  0  0  0
  1  4  1  0
  1 24  1  0
  1  2  1  6
  1  3  2  0
 25 28  1  0
 25 24  1  0
 25 26  1  6
 25 27  2  0
  6 11  1  0
  6 12  1  0
 29 36  1  0
 29 37  1  0
  9  7  1  6
  7 13  1  0
 10  8  1  1
  8 14  1  0
  4  5  1  0
 36 28  1  1
 33 30  1  6
 30 38  1  0
 34 31  1  1
 31 39  1  0
 35 32  1  1
 32 40  1  0
 41 43  1  0
 15 19  2  0
 42 43  2  0
 16 22  2  0
 12 17  1  6
 17 19  1  0
 17 20  1  0
 18 19  1  0
 18 22  1  0
 18 23  1  0
  9 10  1  0
  9 11  1  0
 10 12  1  0
 11  5  1  6
 33 34  1  0
 33 35  1  0
 34 36  1  0
 35 37  1  0
 37 43  1  6
 20 21  2  0
 21 22  1  0
M  CHG  3   2  -1  26  -1  41  -1
M  END
>  <COMPND>  (411) 
    udp_gluA.pdb 

>  <AUTHOR>  (411) 
    GENERATED BY OPEN BABEL 3.1.1

>  <MASTER>  (411) 
        0    0    0    0    0    0    0    0   56    0   56    0

>  <minimizedAffinity>  (411) 
-6.95357

>  <CNNscore>  (411) 
0.8095574379

>  <CNNaffinity>  (411) 
4.5753879547

>  <CNN_VS>  (411) 
3.7040393353

>  <CNNaffinity_variance>  (411) 
0.0848249942

$$$$
412
     RDKit          3D

 43 45  0  0  0  0  0  0  0  0999 V2000
   21.9327   72.4724   -6.0237 P   0  0  2  0  0  0  0  0  0  0  0  0
   20.9875   73.6137   -5.3734 O   0  0  0  0  0  0  0  0  0  0  0  0
   23.0284   72.9868   -6.9106 O   0  0  0  0  0  0  0  0  0  0  0  0
   20.8871   71.4517   -6.7187 O   0  0  0  0  0  0  0  0  0  0  0  0
   20.3389   71.7983   -7.9772 C   0  0  0  0  0  0  0  0  0  0  0  0
   19.0911   69.8250   -7.4060 O   0  0  0  0  0  0  0  0  0  0  0  0
   17.9905   69.9400  -10.1929 O   0  0  0  0  0  0  0  0  0  0  0  0
   15.9611   70.9933   -8.7070 O   0  0  0  0  0  0  0  0  0  0  0  0
   18.3177   71.0097   -9.3057 C   0  0  1  0  0  0  0  0  0  0  0  0
   17.2774   71.1196   -8.2112 C   0  0  2  0  0  0  0  0  0  0  0  0
   19.5612   70.6083   -8.5243 C   0  0  1  0  0  0  0  0  0  0  0  0
   17.6674   69.9765   -7.2896 C   0  0  2  0  0  0  0  0  0  0  0  0
   17.1988   70.1733  -10.7033 H   0  0  0  0  0  0  0  0  0  0  0  0
   15.7609   71.7446   -9.2878 H   0  0  0  0  0  0  0  0  0  0  0  0
   16.2663   68.1869   -5.6130 O   0  0  0  0  0  0  0  0  0  0  0  0
   16.4533   71.0973   -2.0439 O   0  0  0  0  0  0  0  0  0  0  0  0
   17.3366   70.2412   -5.9180 N   0  0  0  0  0  0  0  0  0  0  0  0
   16.3599   69.6386   -3.8373 N   0  0  0  0  0  0  0  0  0  0  0  0
   16.6300   69.2752   -5.1632 C   0  0  0  0  0  0  0  0  0  0  0  0
   17.7123   71.4447   -5.3337 C   0  0  0  0  0  0  0  0  0  0  0  0
   17.4478   71.7768   -4.0686 C   0  0  0  0  0  0  0  0  0  0  0  0
   16.7124   70.8235   -3.2119 C   0  0  0  0  0  0  0  0  0  0  0  0
   15.8672   68.9829   -3.2926 H   0  0  0  0  0  0  0  0  0  0  0  0
   22.4440   71.6454   -4.7324 O   0  0  0  0  0  0  0  0  0  0  0  0
   23.4768   72.0473   -3.5553 P   0  0  2  0  0  0  0  0  0  0  0  0
   24.4361   73.1424   -4.2630 O   0  0  0  0  0  0  0  0  0  0  0  0
   24.2075   70.8823   -2.9530 O   0  0  0  0  0  0  0  0  0  0  0  0
   22.5926   72.8973   -2.5074 O   0  0  0  0  0  0  0  0  0  0  0  0
   21.5856   71.4982   -0.8833 O   0  0  0  0  0  0  0  0  0  0  0  0
   19.9298   75.1717    0.0287 O   0  0  0  0  0  0  0  0  0  0  0  0
   20.2198   74.3275   -2.7530 O   0  0  0  0  0  0  0  0  0  0  0  0
   22.0381   74.0667    1.6975 O   0  0  0  0  0  0  0  0  0  0  0  0
   20.9402   74.2772   -0.4369 C   0  0  2  0  0  0  0  0  0  0  0  0
   20.4079   73.4784   -1.6269 C   0  0  2  0  0  0  0  0  0  0  0  0
   21.3065   73.3373    0.7140 C   0  0  1  0  0  0  0  0  0  0  0  0
   21.3724   72.3540   -2.0065 C   0  0  1  0  0  0  0  0  0  0  0  0
   22.1664   72.1732    0.2303 C   0  0  1  0  0  0  0  0  0  0  0  0
   19.6809   75.7788   -0.6860 H   0  0  0  0  0  0  0  0  0  0  0  0
   19.6090   75.0435   -2.5191 H   0  0  0  0  0  0  0  0  0  0  0  0
   21.5019   74.8107    2.0135 H   0  0  0  0  0  0  0  0  0  0  0  0
   21.4677   70.0443    0.9238 O   0  0  0  0  0  0  0  0  0  0  0  0
   22.9098   71.1623    2.2911 O   0  0  0  0  0  0  0  0  0  0  0  0
   22.2424   71.1023    1.2694 C   0  0  0  0  0  0  0  0  0  0  0  0
  1  4  1  0
  1 24  1  0
  1  2  1  1
  1  3  2  0
 25 28  1  0
 25 24  1  0
 25 26  1  6
 25 27  2  0
  6 11  1  0
  6 12  1  0
 29 36  1  0
 29 37  1  0
  9  7  1  6
  7 13  1  0
 10  8  1  6
  8 14  1  0
  4  5  1  0
 36 28  1  1
 33 30  1  1
 30 38  1  0
 34 31  1  6
 31 39  1  0
 35 32  1  1
 32 40  1  0
 41 43  1  0
 15 19  2  0
 42 43  2  0
 16 22  2  0
 12 17  1  1
 17 19  1  0
 17 20  1  0
 18 19  1  0
 18 22  1  0
 18 23  1  0
  9 10  1  0
  9 11  1  0
 10 12  1  0
 11  5  1  1
 33 34  1  0
 33 35  1  0
 34 36  1  0
 35 37  1  0
 37 43  1  1
 20 21  2  0
 21 22  1  0
M  CHG  3   2  -1  26  -1  41  -1
M  END
>  <COMPND>  (412) 
    udp_gluA.pdb 

>  <AUTHOR>  (412) 
    GENERATED BY OPEN BABEL 3.1.1

>  <MASTER>  (412) 
        0    0    0    0    0    0    0    0   56    0   56    0

>  <minimizedAffinity>  (412) 
-8.25539

>  <CNNscore>  (412) 
0.7511150837

>  <CNNaffinity>  (412) 
4.5853829384

>  <CNN_VS>  (412) 
3.4441502094

>  <CNNaffinity_variance>  (412) 
0.2549879551

$$$$
413
     RDKit          3D

 43 45  0  0  0  0  0  0  0  0999 V2000
   23.2207   71.5675   -2.7807 P   0  0  2  0  0  0  0  0  0  0  0  0
   23.3557   73.1759   -2.6638 O   0  0  0  0  0  0  0  0  0  0  0  0
   24.4603   70.8597   -3.2437 O   0  0  0  0  0  0  0  0  0  0  0  0
   21.9053   71.3537   -3.6983 O   0  0  0  0  0  0  0  0  0  0  0  0
   21.5726   72.3515   -4.6460 C   0  0  0  0  0  0  0  0  0  0  0  0
   20.5370   70.5235   -5.8136 O   0  0  0  0  0  0  0  0  0  0  0  0
   20.9276   72.1397   -8.3089 O   0  0  0  0  0  0  0  0  0  0  0  0
   18.2937   72.5539   -7.7370 O   0  0  0  0  0  0  0  0  0  0  0  0
   20.6071   72.5789   -6.9888 C   0  0  1  0  0  0  0  0  0  0  0  0
   19.1637   72.2563   -6.6650 C   0  0  2  0  0  0  0  0  0  0  0  0
   21.3598   71.6948   -6.0038 C   0  0  1  0  0  0  0  0  0  0  0  0
   19.2330   70.7689   -6.3637 C   0  0  2  0  0  0  0  0  0  0  0  0
   20.4582   72.6898   -8.9560 H   0  0  0  0  0  0  0  0  0  0  0  0
   18.2843   73.5124   -7.8893 H   0  0  0  0  0  0  0  0  0  0  0  0
   16.6466   69.8654   -7.0500 O   0  0  0  0  0  0  0  0  0  0  0  0
   15.5053   69.2088   -2.6330 O   0  0  0  0  0  0  0  0  0  0  0  0
   18.2398   70.3556   -5.4130 N   0  0  0  0  0  0  0  0  0  0  0  0
   16.0803   69.5402   -4.8494 N   0  0  0  0  0  0  0  0  0  0  0  0
   16.9712   69.9188   -5.8623 C   0  0  0  0  0  0  0  0  0  0  0  0
   18.5268   70.3838   -4.0536 C   0  0  0  0  0  0  0  0  0  0  0  0
   17.6673   70.0197   -3.1000 C   0  0  0  0  0  0  0  0  0  0  0  0
   16.3197   69.5515   -3.4848 C   0  0  0  0  0  0  0  0  0  0  0  0
   15.1899   69.2344   -5.1376 H   0  0  0  0  0  0  0  0  0  0  0  0
   22.7104   71.1382   -1.3083 O   0  0  0  0  0  0  0  0  0  0  0  0
   21.4798   71.6811   -0.4112 P   0  0  2  0  0  0  0  0  0  0  0  0
   21.0079   70.3650    0.4045 O   0  0  0  0  0  0  0  0  0  0  0  0
   20.3881   72.3441   -1.2003 O   0  0  0  0  0  0  0  0  0  0  0  0
   22.1692   72.6243    0.7013 O   0  0  0  0  0  0  0  0  0  0  0  0
   24.2128   73.7643    0.3362 O   0  0  0  0  0  0  0  0  0  0  0  0
   24.0528   73.6258    4.4621 O   0  0  0  0  0  0  0  0  0  0  0  0
   23.2926   71.2963    2.8717 O   0  0  0  0  0  0  0  0  0  0  0  0
   23.4639   76.1041    3.0614 O   0  0  0  0  0  0  0  0  0  0  0  0
   23.5214   73.6967    3.1390 C   0  0  2  0  0  0  0  0  0  0  0  0
   23.9381   72.4534    2.3529 C   0  0  2  0  0  0  0  0  0  0  0  0
   24.0765   74.9580    2.4735 C   0  0  1  0  0  0  0  0  0  0  0  0
   23.5852   72.5988    0.8720 C   0  0  1  0  0  0  0  0  0  0  0  0
   23.7920   74.9680    0.9743 C   0  0  1  0  0  0  0  0  0  0  0  0
   23.7138   72.8318    4.9048 H   0  0  0  0  0  0  0  0  0  0  0  0
   23.5119   71.1980    3.8111 H   0  0  0  0  0  0  0  0  0  0  0  0
   23.6373   76.1097    4.0157 H   0  0  0  0  0  0  0  0  0  0  0  0
   24.9729   75.5998   -0.9513 O   0  0  0  0  0  0  0  0  0  0  0  0
   24.9048   77.0987    0.7656 O   0  0  0  0  0  0  0  0  0  0  0  0
   24.6068   76.0147    0.2867 C   0  0  0  0  0  0  0  0  0  0  0  0
  1  4  1  0
  1 24  1  0
  1  2  1  1
  1  3  2  0
 25 28  1  0
 25 24  1  0
 25 26  1  1
 25 27  2  0
  6 11  1  0
  6 12  1  0
 29 36  1  0
 29 37  1  0
  9  7  1  6
  7 13  1  0
 10  8  1  6
  8 14  1  0
  4  5  1  0
 36 28  1  1
 33 30  1  1
 30 38  1  0
 34 31  1  1
 31 39  1  0
 35 32  1  1
 32 40  1  0
 41 43  1  0
 15 19  2  0
 42 43  2  0
 16 22  2  0
 12 17  1  1
 17 19  1  0
 17 20  1  0
 18 19  1  0
 18 22  1  0
 18 23  1  0
  9 10  1  0
  9 11  1  0
 10 12  1  0
 11  5  1  1
 33 34  1  0
 33 35  1  0
 34 36  1  0
 35 37  1  0
 37 43  1  6
 20 21  2  0
 21 22  1  0
M  CHG  3   2  -1  26  -1  41  -1
M  END
>  <COMPND>  (413) 
    udp_gluA.pdb 

>  <AUTHOR>  (413) 
    GENERATED BY OPEN BABEL 3.1.1

>  <MASTER>  (413) 
        0    0    0    0    0    0    0    0   56    0   56    0

>  <minimizedAffinity>  (413) 
-7.03385

>  <CNNscore>  (413) 
0.7018890381

>  <CNNaffinity>  (413) 
4.3301401138

>  <CNN_VS>  (413) 
3.0392777920

>  <CNNaffinity_variance>  (413) 
0.1411737651

$$$$
414
     RDKit          3D

 43 45  0  0  0  0  0  0  0  0999 V2000
   20.7785   72.6321   -5.2611 P   0  0  2  0  0  0  0  0  0  0  0  0
   19.9411   73.9316   -5.7398 O   0  0  0  0  0  0  0  0  0  0  0  0
   22.2672   72.8164   -5.2234 O   0  0  0  0  0  0  0  0  0  0  0  0
   20.2413   71.4476   -6.2235 O   0  0  0  0  0  0  0  0  0  0  0  0
   20.1444   71.6975   -7.6137 C   0  0  0  0  0  0  0  0  0  0  0  0
   18.7549   69.7739   -7.2305 O   0  0  0  0  0  0  0  0  0  0  0  0
   17.9802   69.9896  -10.1192 O   0  0  0  0  0  0  0  0  0  0  0  0
   15.8450   71.1086   -8.8445 O   0  0  0  0  0  0  0  0  0  0  0  0
   18.2523   71.0270   -9.1767 C   0  0  1  0  0  0  0  0  0  0  0  0
   17.1016   71.1651   -8.2025 C   0  0  2  0  0  0  0  0  0  0  0  0
   19.3815   70.5546   -8.2712 C   0  0  1  0  0  0  0  0  0  0  0  0
   17.3352   69.9889   -7.2698 C   0  0  2  0  0  0  0  0  0  0  0  0
   17.2617   70.2684  -10.7090 H   0  0  0  0  0  0  0  0  0  0  0  0
   15.7444   71.8787   -9.4265 H   0  0  0  0  0  0  0  0  0  0  0  0
   16.2860   68.0149   -5.5439 O   0  0  0  0  0  0  0  0  0  0  0  0
   15.5594   71.0815   -2.1806 O   0  0  0  0  0  0  0  0  0  0  0  0
   16.8645   70.2439   -5.9378 N   0  0  0  0  0  0  0  0  0  0  0  0
   15.9241   69.5443   -3.8708 N   0  0  0  0  0  0  0  0  0  0  0  0
   16.3560   69.1817   -5.1534 C   0  0  0  0  0  0  0  0  0  0  0  0
   16.9108   71.5329   -5.4207 C   0  0  0  0  0  0  0  0  0  0  0  0
   16.4955   71.8631   -4.1962 C   0  0  0  0  0  0  0  0  0  0  0  0
   15.9495   70.8121   -3.3126 C   0  0  0  0  0  0  0  0  0  0  0  0
   15.5642   68.8221   -3.3067 H   0  0  0  0  0  0  0  0  0  0  0  0
   20.1080   72.2736   -3.8347 O   0  0  0  0  0  0  0  0  0  0  0  0
   20.4235   71.0882   -2.7816 P   0  0  2  0  0  0  0  0  0  0  0  0
   21.2477   70.0145   -3.6693 O   0  0  0  0  0  0  0  0  0  0  0  0
   19.2072   70.5267   -2.1039 O   0  0  0  0  0  0  0  0  0  0  0  0
   21.5203   71.7139   -1.7776 O   0  0  0  0  0  0  0  0  0  0  0  0
   21.0932   72.6107    0.3724 O   0  0  0  0  0  0  0  0  0  0  0  0
   24.5150   74.6495   -0.7243 O   0  0  0  0  0  0  0  0  0  0  0  0
   22.3679   74.2129   -2.6566 O   0  0  0  0  0  0  0  0  0  0  0  0
   24.6646   72.4785    1.2032 O   0  0  0  0  0  0  0  0  0  0  0  0
   23.6132   73.5435   -0.6850 C   0  0  2  0  0  0  0  0  0  0  0  0
   22.2606   73.9655   -1.2595 C   0  0  2  0  0  0  0  0  0  0  0  0
   23.4597   73.1102    0.7747 C   0  0  1  0  0  0  0  0  0  0  0  0
   21.2052   72.8839   -1.0249 C   0  0  1  0  0  0  0  0  0  0  0  0
   22.3058   72.1264    0.9453 C   0  0  1  0  0  0  0  0  0  0  0  0
   24.6281   74.9423   -1.6424 H   0  0  0  0  0  0  0  0  0  0  0  0
   23.0362   74.8981   -2.8128 H   0  0  0  0  0  0  0  0  0  0  0  0
   25.4070   73.0941    1.0996 H   0  0  0  0  0  0  0  0  0  0  0  0
   20.6137   72.0628    2.5684 O   0  0  0  0  0  0  0  0  0  0  0  0
   22.7575   71.7719    3.2887 O   0  0  0  0  0  0  0  0  0  0  0  0
   21.9543   71.9661    2.3886 C   0  0  0  0  0  0  0  0  0  0  0  0
  1  4  1  0
  1 24  1  0
  1  2  1  6
  1  3  2  0
 25 28  1  0
 25 24  1  0
 25 26  1  6
 25 27  2  0
  6 11  1  0
  6 12  1  0
 29 36  1  0
 29 37  1  0
  9  7  1  6
  7 13  1  0
 10  8  1  6
  8 14  1  0
  4  5  1  0
 36 28  1  6
 33 30  1  1
 30 38  1  0
 34 31  1  6
 31 39  1  0
 35 32  1  6
 32 40  1  0
 41 43  1  0
 15 19  2  0
 42 43  2  0
 16 22  2  0
 12 17  1  1
 17 19  1  0
 17 20  1  0
 18 19  1  0
 18 22  1  0
 18 23  1  0
  9 10  1  0
  9 11  1  0
 10 12  1  0
 11  5  1  1
 33 34  1  0
 33 35  1  0
 34 36  1  0
 35 37  1  0
 37 43  1  1
 20 21  2  0
 21 22  1  0
M  CHG  3   2  -1  26  -1  41  -1
M  END
>  <COMPND>  (414) 
    udp_gluA.pdb 

>  <AUTHOR>  (414) 
    GENERATED BY OPEN BABEL 3.1.1

>  <MASTER>  (414) 
        0    0    0    0    0    0    0    0   56    0   56    0

>  <minimizedAffinity>  (414) 
-7.08079

>  <CNNscore>  (414) 
0.7016570568

>  <CNNaffinity>  (414) 
4.4199419022

>  <CNN_VS>  (414) 
3.1012833118

>  <CNNaffinity_variance>  (414) 
0.2914583087

$$$$
415
     RDKit          3D

 43 45  0  0  0  0  0  0  0  0999 V2000
   23.1262   71.5580   -2.7863 P   0  0  2  0  0  0  0  0  0  0  0  0
   23.1985   73.1627   -2.5900 O   0  0  0  0  0  0  0  0  0  0  0  0
   24.4180   70.9102   -3.1905 O   0  0  0  0  0  0  0  0  0  0  0  0
   21.8858   71.3465   -3.8034 O   0  0  0  0  0  0  0  0  0  0  0  0
   21.6293   72.3450   -4.7738 C   0  0  0  0  0  0  0  0  0  0  0  0
   20.5730   70.5064   -5.9057 O   0  0  0  0  0  0  0  0  0  0  0  0
   20.9118   72.1027   -8.4214 O   0  0  0  0  0  0  0  0  0  0  0  0
   18.2893   72.5186   -7.8004 O   0  0  0  0  0  0  0  0  0  0  0  0
   20.6171   72.5523   -7.0986 C   0  0  1  0  0  0  0  0  0  0  0  0
   19.1808   72.2308   -6.7436 C   0  0  2  0  0  0  0  0  0  0  0  0
   21.3904   71.6771   -6.1218 C   0  0  1  0  0  0  0  0  0  0  0  0
   19.2579   70.7460   -6.4316 C   0  0  2  0  0  0  0  0  0  0  0  0
   20.4289   72.6471   -9.0633 H   0  0  0  0  0  0  0  0  0  0  0  0
   18.2756   73.4759   -7.9602 H   0  0  0  0  0  0  0  0  0  0  0  0
   16.6355   69.9025   -7.0545 O   0  0  0  0  0  0  0  0  0  0  0  0
   15.6085   69.2086   -2.6151 O   0  0  0  0  0  0  0  0  0  0  0  0
   18.2845   70.3393   -5.4580 N   0  0  0  0  0  0  0  0  0  0  0  0
   16.1262   69.5587   -4.8428 N   0  0  0  0  0  0  0  0  0  0  0  0
   16.9950   69.9334   -5.8760 C   0  0  0  0  0  0  0  0  0  0  0  0
   18.6108   70.3434   -4.1073 C   0  0  0  0  0  0  0  0  0  0  0  0
   17.7720   69.9834   -3.1340 C   0  0  0  0  0  0  0  0  0  0  0  0
   16.4048   69.5468   -3.4856 C   0  0  0  0  0  0  0  0  0  0  0  0
   15.2220   69.2742   -5.1091 H   0  0  0  0  0  0  0  0  0  0  0  0
   22.5293   71.0461   -1.3740 O   0  0  0  0  0  0  0  0  0  0  0  0
   21.3907   71.6735   -0.4130 P   0  0  2  0  0  0  0  0  0  0  0  0
   20.9260   70.4089    0.4843 O   0  0  0  0  0  0  0  0  0  0  0  0
   20.2724   72.3552   -1.1470 O   0  0  0  0  0  0  0  0  0  0  0  0
   22.1973   72.6245    0.6105 O   0  0  0  0  0  0  0  0  0  0  0  0
   23.3818   71.4294    2.2772 O   0  0  0  0  0  0  0  0  0  0  0  0
   23.7971   75.3271    3.5823 O   0  0  0  0  0  0  0  0  0  0  0  0
   21.2367   74.3780    2.5440 O   0  0  0  0  0  0  0  0  0  0  0  0
   26.0281   73.9707    2.3042 O   0  0  0  0  0  0  0  0  0  0  0  0
   23.6599   74.2833    2.6182 C   0  0  2  0  0  0  0  0  0  0  0  0
   22.3446   73.5399    2.8524 C   0  0  2  0  0  0  0  0  0  0  0  0
   24.8461   73.3303    2.7808 C   0  0  1  0  0  0  0  0  0  0  0  0
   22.2688   72.2777    1.9923 C   0  0  1  0  0  0  0  0  0  0  0  0
   24.6375   72.0413    1.9912 C   0  0  1  0  0  0  0  0  0  0  0  0
   23.0541   75.9452    3.4979 H   0  0  0  0  0  0  0  0  0  0  0  0
   21.2786   75.1810    3.0860 H   0  0  0  0  0  0  0  0  0  0  0  0
   26.1723   74.7927    2.7986 H   0  0  0  0  0  0  0  0  0  0  0  0
   24.9888   69.8402    2.7216 O   0  0  0  0  0  0  0  0  0  0  0  0
   26.8323   71.1568    2.4624 O   0  0  0  0  0  0  0  0  0  0  0  0
   25.6220   70.9980    2.4091 C   0  0  0  0  0  0  0  0  0  0  0  0
  1  4  1  0
  1 24  1  0
  1  2  1  1
  1  3  2  0
 25 28  1  0
 25 24  1  0
 25 26  1  1
 25 27  2  0
  6 11  1  0
  6 12  1  0
 29 36  1  0
 29 37  1  0
  9  7  1  6
  7 13  1  0
 10  8  1  6
  8 14  1  0
  4  5  1  0
 36 28  1  6
 33 30  1  1
 30 38  1  0
 34 31  1  6
 31 39  1  0
 35 32  1  6
 32 40  1  0
 41 43  1  0
 15 19  2  0
 42 43  2  0
 16 22  2  0
 12 17  1  1
 17 19  1  0
 17 20  1  0
 18 19  1  0
 18 22  1  0
 18 23  1  0
  9 10  1  0
  9 11  1  0
 10 12  1  0
 11  5  1  1
 33 34  1  0
 33 35  1  0
 34 36  1  0
 35 37  1  0
 37 43  1  1
 20 21  2  0
 21 22  1  0
M  CHG  3   2  -1  26  -1  41  -1
M  END
>  <COMPND>  (415) 
    udp_gluA.pdb 

>  <AUTHOR>  (415) 
    GENERATED BY OPEN BABEL 3.1.1

>  <MASTER>  (415) 
        0    0    0    0    0    0    0    0   56    0   56    0

>  <minimizedAffinity>  (415) 
-7.97481

>  <CNNscore>  (415) 
0.6805748343

>  <CNNaffinity>  (415) 
4.4203586578

>  <CNN_VS>  (415) 
3.0083849430

>  <CNNaffinity_variance>  (415) 
0.0999676660

$$$$
416
     RDKit          3D

 43 45  0  0  0  0  0  0  0  0999 V2000
   21.8543   72.4487   -5.6745 P   0  0  2  0  0  0  0  0  0  0  0  0
   21.2221   73.9036   -5.3544 O   0  0  0  0  0  0  0  0  0  0  0  0
   23.0988   72.4692   -6.5127 O   0  0  0  0  0  0  0  0  0  0  0  0
   20.6113   71.6102   -6.2826 O   0  0  0  0  0  0  0  0  0  0  0  0
   20.1031   71.9791   -7.5515 C   0  0  0  0  0  0  0  0  0  0  0  0
   18.8953   69.9410   -7.1454 O   0  0  0  0  0  0  0  0  0  0  0  0
   18.1018   70.0540  -10.0349 O   0  0  0  0  0  0  0  0  0  0  0  0
   15.8744   70.9873   -8.7683 O   0  0  0  0  0  0  0  0  0  0  0  0
   18.2789   71.1220   -9.1040 C   0  0  1  0  0  0  0  0  0  0  0  0
   17.1212   71.1650   -8.1292 C   0  0  2  0  0  0  0  0  0  0  0  0
   19.4472   70.7644   -8.1955 C   0  0  1  0  0  0  0  0  0  0  0  0
   17.4618   70.0251   -7.1845 C   0  0  2  0  0  0  0  0  0  0  0  0
   17.3604   70.2598  -10.6263 H   0  0  0  0  0  0  0  0  0  0  0  0
   15.7035   71.7387   -9.3583 H   0  0  0  0  0  0  0  0  0  0  0  0
   16.2404   68.0484   -5.5791 O   0  0  0  0  0  0  0  0  0  0  0  0
   15.6161   71.0025   -2.0967 O   0  0  0  0  0  0  0  0  0  0  0  0
   16.9709   70.2505   -5.8544 N   0  0  0  0  0  0  0  0  0  0  0  0
   15.9297   69.5218   -3.8466 N   0  0  0  0  0  0  0  0  0  0  0  0
   16.3737   69.1896   -5.1333 C   0  0  0  0  0  0  0  0  0  0  0  0
   17.0847   71.5093   -5.2771 C   0  0  0  0  0  0  0  0  0  0  0  0
   16.6569   71.8107   -4.0495 C   0  0  0  0  0  0  0  0  0  0  0  0
   16.0202   70.7591   -3.2297 C   0  0  0  0  0  0  0  0  0  0  0  0
   15.5086   68.8001   -3.3260 H   0  0  0  0  0  0  0  0  0  0  0  0
   22.0432   71.8037   -4.2044 O   0  0  0  0  0  0  0  0  0  0  0  0
   23.2426   71.9446   -3.1296 P   0  0  2  0  0  0  0  0  0  0  0  0
   23.9344   73.3523   -3.5298 O   0  0  0  0  0  0  0  0  0  0  0  0
   24.1863   70.7773   -3.1034 O   0  0  0  0  0  0  0  0  0  0  0  0
   22.5026   72.2389   -1.7267 O   0  0  0  0  0  0  0  0  0  0  0  0
   23.2034   70.7566   -0.0176 O   0  0  0  0  0  0  0  0  0  0  0  0
   20.1429   72.8079    1.8515 O   0  0  0  0  0  0  0  0  0  0  0  0
   19.8593   71.9270   -0.9195 O   0  0  0  0  0  0  0  0  0  0  0  0
   22.9122   73.4170    2.4924 O   0  0  0  0  0  0  0  0  0  0  0  0
   21.2353   72.6358    0.9487 C   0  0  2  0  0  0  0  0  0  0  0  0
   20.9068   71.5220   -0.0458 C   0  0  2  0  0  0  0  0  0  0  0  0
   22.4736   72.2683    1.7695 C   0  0  1  0  0  0  0  0  0  0  0  0
   22.1350   71.1524   -0.8786 C   0  0  1  0  0  0  0  0  0  0  0  0
   23.6135   71.7906    0.8745 C   0  0  1  0  0  0  0  0  0  0  0  0
   19.3445   73.0419    1.3523 H   0  0  0  0  0  0  0  0  0  0  0  0
   19.0768   72.1633   -0.3977 H   0  0  0  0  0  0  0  0  0  0  0  0
   22.1957   73.7312    3.0658 H   0  0  0  0  0  0  0  0  0  0  0  0
   25.5406   72.0536    2.1855 O   0  0  0  0  0  0  0  0  0  0  0  0
   24.7767   69.9279    1.8739 O   0  0  0  0  0  0  0  0  0  0  0  0
   24.6825   71.1312    1.6836 C   0  0  0  0  0  0  0  0  0  0  0  0
  1  4  1  0
  1 24  1  0
  1  2  1  1
  1  3  2  0
 25 28  1  0
 25 24  1  0
 25 26  1  6
 25 27  2  0
  6 11  1  0
  6 12  1  0
 29 36  1  0
 29 37  1  0
  9  7  1  6
  7 13  1  0
 10  8  1  6
  8 14  1  0
  4  5  1  0
 36 28  1  1
 33 30  1  1
 30 38  1  0
 34 31  1  6
 31 39  1  0
 35 32  1  6
 32 40  1  0
 41 43  1  0
 15 19  2  0
 42 43  2  0
 16 22  2  0
 12 17  1  1
 17 19  1  0
 17 20  1  0
 18 19  1  0
 18 22  1  0
 18 23  1  0
  9 10  1  0
  9 11  1  0
 10 12  1  0
 11  5  1  1
 33 34  1  0
 33 35  1  0
 34 36  1  0
 35 37  1  0
 37 43  1  1
 20 21  2  0
 21 22  1  0
M  CHG  3   2  -1  26  -1  41  -1
M  END
>  <COMPND>  (416) 
    udp_gluA.pdb 

>  <AUTHOR>  (416) 
    GENERATED BY OPEN BABEL 3.1.1

>  <MASTER>  (416) 
        0    0    0    0    0    0    0    0   56    0   56    0

>  <minimizedAffinity>  (416) 
-8.40047

>  <CNNscore>  (416) 
0.6358788610

>  <CNNaffinity>  (416) 
4.4440345764

>  <CNN_VS>  (416) 
2.8258676529

>  <CNNaffinity_variance>  (416) 
0.2281418145

$$$$
417
     RDKit          3D

 43 45  0  0  0  0  0  0  0  0999 V2000
   21.8056   72.6038   -5.4954 P   0  0  2  0  0  0  0  0  0  0  0  0
   21.0474   74.0062   -5.7735 O   0  0  0  0  0  0  0  0  0  0  0  0
   23.2642   72.5914   -5.8479 O   0  0  0  0  0  0  0  0  0  0  0  0
   20.8895   71.5091   -6.2571 O   0  0  0  0  0  0  0  0  0  0  0  0
   20.0242   71.9506   -7.2871 C   0  0  0  0  0  0  0  0  0  0  0  0
   18.7178   69.9729   -6.8874 O   0  0  0  0  0  0  0  0  0  0  0  0
   18.0929   70.0182   -9.8198 O   0  0  0  0  0  0  0  0  0  0  0  0
   15.8355   71.0744   -8.7131 O   0  0  0  0  0  0  0  0  0  0  0  0
   18.2584   71.1096   -8.9142 C   0  0  1  0  0  0  0  0  0  0  0  0
   17.0503   71.2276   -8.0093 C   0  0  2  0  0  0  0  0  0  0  0  0
   19.3592   70.7399   -7.9293 C   0  0  1  0  0  0  0  0  0  0  0  0
   17.2931   70.1082   -7.0114 C   0  0  2  0  0  0  0  0  0  0  0  0
   17.3944   70.2311  -10.4590 H   0  0  0  0  0  0  0  0  0  0  0  0
   15.7271   71.8115   -9.3352 H   0  0  0  0  0  0  0  0  0  0  0  0
   16.5092   68.1441   -5.1394 O   0  0  0  0  0  0  0  0  0  0  0  0
   15.1725   71.3268   -2.0853 O   0  0  0  0  0  0  0  0  0  0  0  0
   16.7373   70.3958   -5.7194 N   0  0  0  0  0  0  0  0  0  0  0  0
   15.8433   69.7311   -3.6205 N   0  0  0  0  0  0  0  0  0  0  0  0
   16.3762   69.3357   -4.8545 C   0  0  0  0  0  0  0  0  0  0  0  0
   16.5564   71.7144   -5.3200 C   0  0  0  0  0  0  0  0  0  0  0  0
   16.0472   72.0757   -4.1406 C   0  0  0  0  0  0  0  0  0  0  0  0
   15.6436   71.0291   -3.1788 C   0  0  0  0  0  0  0  0  0  0  0  0
   15.5826   69.0107   -3.0022 H   0  0  0  0  0  0  0  0  0  0  0  0
   21.4873   72.3221   -3.9359 O   0  0  0  0  0  0  0  0  0  0  0  0
   21.8686   71.0726   -2.9836 P   0  0  2  0  0  0  0  0  0  0  0  0
   23.4855   71.0355   -3.0517 O   0  0  0  0  0  0  0  0  0  0  0  0
   21.2038   69.7818   -3.3657 O   0  0  0  0  0  0  0  0  0  0  0  0
   21.5356   71.5804   -1.4891 O   0  0  0  0  0  0  0  0  0  0  0  0
   23.1798   72.9571   -0.4838 O   0  0  0  0  0  0  0  0  0  0  0  0
   20.7270   72.0957    2.7271 O   0  0  0  0  0  0  0  0  0  0  0  0
   21.4384   70.0126    0.8063 O   0  0  0  0  0  0  0  0  0  0  0  0
   20.6095   74.7100    1.4612 O   0  0  0  0  0  0  0  0  0  0  0  0
   21.0413   72.3420    1.3565 C   0  0  2  0  0  0  0  0  0  0  0  0
   22.0452   71.2983    0.8661 C   0  0  2  0  0  0  0  0  0  0  0  0
   21.6404   73.7464    1.2536 C   0  0  1  0  0  0  0  0  0  0  0  0
   22.5792   71.6619   -0.5201 C   0  0  1  0  0  0  0  0  0  0  0  0
   22.2639   73.9869   -0.1182 C   0  0  1  0  0  0  0  0  0  0  0  0
   20.3448   71.2085    2.8170 H   0  0  0  0  0  0  0  0  0  0  0  0
   21.0971   69.7757    1.6825 H   0  0  0  0  0  0  0  0  0  0  0  0
   20.2043   74.5678    2.3309 H   0  0  0  0  0  0  0  0  0  0  0  0
   24.3444   74.9428   -0.6275 O   0  0  0  0  0  0  0  0  0  0  0  0
   22.7779   76.3036    0.3178 O   0  0  0  0  0  0  0  0  0  0  0  0
   23.1223   75.2097   -0.1037 C   0  0  0  0  0  0  0  0  0  0  0  0
  1  4  1  0
  1 24  1  0
  1  2  1  6
  1  3  2  0
 25 28  1  0
 25 24  1  0
 25 26  1  1
 25 27  2  0
  6 11  1  0
  6 12  1  0
 29 36  1  0
 29 37  1  0
  9  7  1  6
  7 13  1  0
 10  8  1  6
  8 14  1  0
  4  5  1  0
 36 28  1  6
 33 30  1  1
 30 38  1  0
 34 31  1  6
 31 39  1  0
 35 32  1  6
 32 40  1  0
 41 43  1  0
 15 19  2  0
 42 43  2  0
 16 22  2  0
 12 17  1  1
 17 19  1  0
 17 20  1  0
 18 19  1  0
 18 22  1  0
 18 23  1  0
  9 10  1  0
  9 11  1  0
 10 12  1  0
 11  5  1  1
 33 34  1  0
 33 35  1  0
 34 36  1  0
 35 37  1  0
 37 43  1  1
 20 21  2  0
 21 22  1  0
M  CHG  3   2  -1  26  -1  41  -1
M  END
>  <COMPND>  (417) 
    udp_gluA.pdb 

>  <AUTHOR>  (417) 
    GENERATED BY OPEN BABEL 3.1.1

>  <MASTER>  (417) 
        0    0    0    0    0    0    0    0   56    0   56    0

>  <minimizedAffinity>  (417) 
-7.66786

>  <CNNscore>  (417) 
0.5847110152

>  <CNNaffinity>  (417) 
4.4949893951

>  <CNN_VS>  (417) 
2.6282699108

>  <CNNaffinity_variance>  (417) 
0.1936992854

$$$$
418
     RDKit          3D

 43 45  0  0  0  0  0  0  0  0999 V2000
   23.0450   71.4632   -2.7874 P   0  0  2  0  0  0  0  0  0  0  0  0
   23.0337   73.0671   -2.5728 O   0  0  0  0  0  0  0  0  0  0  0  0
   24.3851   70.8785   -3.1249 O   0  0  0  0  0  0  0  0  0  0  0  0
   21.8734   71.2082   -3.8738 O   0  0  0  0  0  0  0  0  0  0  0  0
   21.6042   72.2192   -4.8276 C   0  0  0  0  0  0  0  0  0  0  0  0
   20.4906   70.4153   -5.9605 O   0  0  0  0  0  0  0  0  0  0  0  0
   20.8362   72.0234   -8.4677 O   0  0  0  0  0  0  0  0  0  0  0  0
   18.2321   72.4962   -7.8108 O   0  0  0  0  0  0  0  0  0  0  0  0
   20.5686   72.4691   -7.1379 C   0  0  1  0  0  0  0  0  0  0  0  0
   19.1296   72.1788   -6.7675 C   0  0  2  0  0  0  0  0  0  0  0  0
   21.3328   71.5680   -6.1777 C   0  0  1  0  0  0  0  0  0  0  0  0
   19.1752   70.6901   -6.4680 C   0  0  2  0  0  0  0  0  0  0  0  0
   20.3585   72.5842   -9.0993 H   0  0  0  0  0  0  0  0  0  0  0  0
   18.2393   73.4547   -7.9629 H   0  0  0  0  0  0  0  0  0  0  0  0
   16.5340   69.8886   -7.0666 O   0  0  0  0  0  0  0  0  0  0  0  0
   15.5372   69.2102   -2.6180 O   0  0  0  0  0  0  0  0  0  0  0  0
   18.2044   70.2988   -5.4855 N   0  0  0  0  0  0  0  0  0  0  0  0
   16.0398   69.5525   -4.8503 N   0  0  0  0  0  0  0  0  0  0  0  0
   16.9049   69.9136   -5.8916 C   0  0  0  0  0  0  0  0  0  0  0  0
   18.5433   70.2974   -4.1378 C   0  0  0  0  0  0  0  0  0  0  0  0
   17.7078   69.9505   -3.1568 C   0  0  0  0  0  0  0  0  0  0  0  0
   16.3307   69.5359   -3.4958 C   0  0  0  0  0  0  0  0  0  0  0  0
   15.1288   69.2825   -5.1082 H   0  0  0  0  0  0  0  0  0  0  0  0
   22.3949   70.9089   -1.4151 O   0  0  0  0  0  0  0  0  0  0  0  0
   21.5568   71.6638   -0.2570 P   0  0  2  0  0  0  0  0  0  0  0  0
   21.1664   70.4650    0.7583 O   0  0  0  0  0  0  0  0  0  0  0  0
   20.3838   72.4538   -0.7611 O   0  0  0  0  0  0  0  0  0  0  0  0
   22.6554   72.5332    0.5428 O   0  0  0  0  0  0  0  0  0  0  0  0
   21.7796   74.2221    1.9534 O   0  0  0  0  0  0  0  0  0  0  0  0
   25.8048   75.1519    1.9278 O   0  0  0  0  0  0  0  0  0  0  0  0
   24.4520   74.3609   -0.5377 O   0  0  0  0  0  0  0  0  0  0  0  0
   24.6198   73.8626    4.2482 O   0  0  0  0  0  0  0  0  0  0  0  0
   24.6654   74.2934    1.8781 C   0  0  2  0  0  0  0  0  0  0  0  0
   23.7906   74.6727    0.6830 C   0  0  2  0  0  0  0  0  0  0  0  0
   23.8862   74.4656    3.1839 C   0  0  1  0  0  0  0  0  0  0  0  0
   22.4528   73.9330    0.7275 C   0  0  1  0  0  0  0  0  0  0  0  0
   22.5122   73.8065    3.1039 C   0  0  1  0  0  0  0  0  0  0  0  0
   26.3155   75.0596    1.1081 H   0  0  0  0  0  0  0  0  0  0  0  0
   25.3018   74.8268   -0.5726 H   0  0  0  0  0  0  0  0  0  0  0  0
   25.4965   74.2730    4.3098 H   0  0  0  0  0  0  0  0  0  0  0  0
   20.3533   73.8957    4.0162 O   0  0  0  0  0  0  0  0  0  0  0  0
   22.0330   74.8548    5.2235 O   0  0  0  0  0  0  0  0  0  0  0  0
   21.6432   74.2528    4.2343 C   0  0  0  0  0  0  0  0  0  0  0  0
  1  4  1  0
  1 24  1  0
  1  2  1  1
  1  3  2  0
 25 28  1  0
 25 24  1  0
 25 26  1  1
 25 27  2  0
  6 11  1  0
  6 12  1  0
 29 36  1  0
 29 37  1  0
  9  7  1  6
  7 13  1  0
 10  8  1  6
  8 14  1  0
  4  5  1  0
 36 28  1  1
 33 30  1  1
 30 38  1  0
 34 31  1  6
 31 39  1  0
 35 32  1  1
 32 40  1  0
 41 43  1  0
 15 19  2  0
 42 43  2  0
 16 22  2  0
 12 17  1  1
 17 19  1  0
 17 20  1  0
 18 19  1  0
 18 22  1  0
 18 23  1  0
  9 10  1  0
  9 11  1  0
 10 12  1  0
 11  5  1  1
 33 34  1  0
 33 35  1  0
 34 36  1  0
 35 37  1  0
 37 43  1  1
 20 21  2  0
 21 22  1  0
M  CHG  3   2  -1  26  -1  41  -1
M  END
>  <COMPND>  (418) 
    udp_gluA.pdb 

>  <AUTHOR>  (418) 
    GENERATED BY OPEN BABEL 3.1.1

>  <MASTER>  (418) 
        0    0    0    0    0    0    0    0   56    0   56    0

>  <minimizedAffinity>  (418) 
-7.12420

>  <CNNscore>  (418) 
0.5719885826

>  <CNNaffinity>  (418) 
4.1913175583

>  <CNN_VS>  (418) 
2.3973858356

>  <CNNaffinity_variance>  (418) 
0.1669906080

$$$$
419
     RDKit          3D

 43 45  0  0  0  0  0  0  0  0999 V2000
   22.6207   72.6575   -4.0446 P   0  0  2  0  0  0  0  0  0  0  0  0
   23.7137   71.5244   -3.6699 O   0  0  0  0  0  0  0  0  0  0  0  0
   22.9962   74.0554   -3.6491 O   0  0  0  0  0  0  0  0  0  0  0  0
   21.2433   72.0937   -3.4099 O   0  0  0  0  0  0  0  0  0  0  0  0
   21.3106   71.0048   -2.5075 C   0  0  0  0  0  0  0  0  0  0  0  0
   20.8297   70.6685   -0.1766 O   0  0  0  0  0  0  0  0  0  0  0  0
   18.7197   72.7746   -0.4993 O   0  0  0  0  0  0  0  0  0  0  0  0
   20.7589   74.1496    0.6787 O   0  0  0  0  0  0  0  0  0  0  0  0
   20.0071   72.6842   -1.1101 C   0  0  1  0  0  0  0  0  0  0  0  0
   21.0886   73.0226   -0.1060 C   0  0  2  0  0  0  0  0  0  0  0  0
   20.2882   71.2158   -1.3983 C   0  0  1  0  0  0  0  0  0  0  0  0
   21.1710   71.7447    0.7115 C   0  0  2  0  0  0  0  0  0  0  0  0
   18.5179   73.7038   -0.3056 H   0  0  0  0  0  0  0  0  0  0  0  0
   20.7189   74.9370    0.1128 H   0  0  0  0  0  0  0  0  0  0  0  0
   21.9198   72.2227    3.3924 O   0  0  0  0  0  0  0  0  0  0  0  0
   26.2456   70.8294    2.6241 O   0  0  0  0  0  0  0  0  0  0  0  0
   22.4863   71.5155    1.2389 N   0  0  0  0  0  0  0  0  0  0  0  0
   24.0738   71.5292    3.0070 N   0  0  0  0  0  0  0  0  0  0  0  0
   22.7583   71.7884    2.6004 C   0  0  0  0  0  0  0  0  0  0  0  0
   23.4894   71.0246    0.4120 C   0  0  0  0  0  0  0  0  0  0  0  0
   24.7386   70.7825    0.8139 C   0  0  0  0  0  0  0  0  0  0  0  0
   25.1058   71.0417    2.2215 C   0  0  0  0  0  0  0  0  0  0  0  0
   24.2877   71.7135    3.9502 H   0  0  0  0  0  0  0  0  0  0  0  0
   22.4043   72.4420   -5.6320 O   0  0  0  0  0  0  0  0  0  0  0  0
   21.4588   73.2177   -6.6892 P   0  0  2  0  0  0  0  0  0  0  0  0
   22.1652   72.9095   -8.1127 O   0  0  0  0  0  0  0  0  0  0  0  0
   21.2739   74.6781   -6.3940 O   0  0  0  0  0  0  0  0  0  0  0  0
   20.0913   72.3624   -6.7197 O   0  0  0  0  0  0  0  0  0  0  0  0
   19.5459   70.2134   -5.8870 O   0  0  0  0  0  0  0  0  0  0  0  0
   17.3058   70.3646   -9.3550 O   0  0  0  0  0  0  0  0  0  0  0  0
   20.0479   71.3716   -9.3182 O   0  0  0  0  0  0  0  0  0  0  0  0
   16.0182   70.7001   -6.7704 O   0  0  0  0  0  0  0  0  0  0  0  0
   17.9508   70.8929   -8.1962 C   0  0  2  0  0  0  0  0  0  0  0  0
   19.4517   70.6121   -8.2731 C   0  0  2  0  0  0  0  0  0  0  0  0
   17.3445   70.2133   -6.9664 C   0  0  1  0  0  0  0  0  0  0  0  0
   20.1410   70.9559   -6.9519 C   0  0  1  0  0  0  0  0  0  0  0  0
   18.1611   70.5032   -5.7103 C   0  0  1  0  0  0  0  0  0  0  0  0
   17.6750   70.7819  -10.1493 H   0  0  0  0  0  0  0  0  0  0  0  0
   19.6152   71.1586  -10.1595 H   0  0  0  0  0  0  0  0  0  0  0  0
   15.4880   70.5219   -7.5628 H   0  0  0  0  0  0  0  0  0  0  0  0
   16.8028   68.7252   -5.0066 O   0  0  0  0  0  0  0  0  0  0  0  0
   18.2417   69.6053   -3.4723 O   0  0  0  0  0  0  0  0  0  0  0  0
   17.7660   69.5877   -4.5977 C   0  0  0  0  0  0  0  0  0  0  0  0
  1  4  1  0
  1 24  1  0
  1  2  1  1
  1  3  2  0
 25 28  1  0
 25 24  1  0
 25 26  1  6
 25 27  2  0
  6 11  1  0
  6 12  1  0
 29 36  1  0
 29 37  1  0
  9  7  1  1
  7 13  1  0
 10  8  1  1
  8 14  1  0
  4  5  1  0
 36 28  1  1
 33 30  1  6
 30 38  1  0
 34 31  1  6
 31 39  1  0
 35 32  1  1
 32 40  1  0
 41 43  1  0
 15 19  2  0
 42 43  2  0
 16 22  2  0
 12 17  1  6
 17 19  1  0
 17 20  1  0
 18 19  1  0
 18 22  1  0
 18 23  1  0
  9 10  1  0
  9 11  1  0
 10 12  1  0
 11  5  1  6
 33 34  1  0
 33 35  1  0
 34 36  1  0
 35 37  1  0
 37 43  1  1
 20 21  2  0
 21 22  1  0
M  CHG  3   2  -1  26  -1  41  -1
M  END
>  <COMPND>  (419) 
    udp_gluA.pdb 

>  <AUTHOR>  (419) 
    GENERATED BY OPEN BABEL 3.1.1

>  <MASTER>  (419) 
        0    0    0    0    0    0    0    0   56    0   56    0

>  <minimizedAffinity>  (419) 
-7.62424

>  <CNNscore>  (419) 
0.5500145555

>  <CNNaffinity>  (419) 
4.3416433334

>  <CNN_VS>  (419) 
2.3879671097

>  <CNNaffinity_variance>  (419) 
0.1050385088

$$$$
420
     RDKit          3D

 43 45  0  0  0  0  0  0  0  0999 V2000
   23.4631   72.3515   -3.5190 P   0  0  2  0  0  0  0  0  0  0  0  0
   24.1085   70.8944   -3.2375 O   0  0  0  0  0  0  0  0  0  0  0  0
   24.4362   73.3973   -3.9786 O   0  0  0  0  0  0  0  0  0  0  0  0
   22.6592   72.6902   -2.1563 O   0  0  0  0  0  0  0  0  0  0  0  0
   23.3907   72.7989   -0.9490 C   0  0  0  0  0  0  0  0  0  0  0  0
   24.4227   71.3031    0.6243 O   0  0  0  0  0  0  0  0  0  0  0  0
   21.6664   70.2405    1.1390 O   0  0  0  0  0  0  0  0  0  0  0  0
   22.0755   71.8927    3.2695 O   0  0  0  0  0  0  0  0  0  0  0  0
   22.0817   71.5775    0.8585 C   0  0  1  0  0  0  0  0  0  0  0  0
   22.7624   72.1798    2.0693 C   0  0  2  0  0  0  0  0  0  0  0  0
   23.2215   71.5137   -0.1490 C   0  0  1  0  0  0  0  0  0  0  0  0
   24.1361   71.5336    2.0128 C   0  0  2  0  0  0  0  0  0  0  0  0
   20.9386   70.2556    1.7807 H   0  0  0  0  0  0  0  0  0  0  0  0
   21.2074   72.3266    3.2569 H   0  0  0  0  0  0  0  0  0  0  0  0
   26.7999   70.7122    2.4667 O   0  0  0  0  0  0  0  0  0  0  0  0
   27.9789   74.8390    4.1470 O   0  0  0  0  0  0  0  0  0  0  0  0
   25.1599   72.3731    2.5678 N   0  0  0  0  0  0  0  0  0  0  0  0
   27.3843   72.7681    3.3041 N   0  0  0  0  0  0  0  0  0  0  0  0
   26.4663   71.8630    2.7553 C   0  0  0  0  0  0  0  0  0  0  0  0
   24.8664   73.6853    2.9183 C   0  0  0  0  0  0  0  0  0  0  0  0
   25.7520   74.5362    3.4403 C   0  0  0  0  0  0  0  0  0  0  0  0
   27.1394   74.0820    3.6691 C   0  0  0  0  0  0  0  0  0  0  0  0
   28.2999   72.4352    3.4458 H   0  0  0  0  0  0  0  0  0  0  0  0
   22.2778   72.0268   -4.5690 O   0  0  0  0  0  0  0  0  0  0  0  0
   21.6187   72.9285   -5.7377 P   0  0  2  0  0  0  0  0  0  0  0  0
   22.5471   72.6038   -7.0234 O   0  0  0  0  0  0  0  0  0  0  0  0
   21.5134   74.3884   -5.4038 O   0  0  0  0  0  0  0  0  0  0  0  0
   20.2098   72.2125   -6.0617 O   0  0  0  0  0  0  0  0  0  0  0  0
   19.4860   70.0147   -5.5569 O   0  0  0  0  0  0  0  0  0  0  0  0
   17.4731   70.7734   -9.0840 O   0  0  0  0  0  0  0  0  0  0  0  0
   20.2638   71.5778   -8.7691 O   0  0  0  0  0  0  0  0  0  0  0  0
   16.0541   70.8524   -6.5481 O   0  0  0  0  0  0  0  0  0  0  0  0
   18.0775   71.0993   -7.8325 C   0  0  2  0  0  0  0  0  0  0  0  0
   19.5606   70.7296   -7.8687 C   0  0  2  0  0  0  0  0  0  0  0  0
   17.3579   70.3065   -6.7391 C   0  0  1  0  0  0  0  0  0  0  0  0
   20.1883   70.8487   -6.4792 C   0  0  1  0  0  0  0  0  0  0  0  0
   18.1131   70.3723   -5.4147 C   0  0  1  0  0  0  0  0  0  0  0  0
   17.9142   71.2656   -9.7943 H   0  0  0  0  0  0  0  0  0  0  0  0
   19.8707   71.5074   -9.6528 H   0  0  0  0  0  0  0  0  0  0  0  0
   15.5630   70.8167   -7.3837 H   0  0  0  0  0  0  0  0  0  0  0  0
   18.4122   69.2454   -3.3795 O   0  0  0  0  0  0  0  0  0  0  0  0
   16.5797   68.6889   -4.6170 O   0  0  0  0  0  0  0  0  0  0  0  0
   17.5967   69.3473   -4.4581 C   0  0  0  0  0  0  0  0  0  0  0  0
  1  4  1  0
  1 24  1  0
  1  2  1  1
  1  3  2  0
 25 28  1  0
 25 24  1  0
 25 26  1  6
 25 27  2  0
  6 11  1  0
  6 12  1  0
 29 36  1  0
 29 37  1  0
  9  7  1  1
  7 13  1  0
 10  8  1  1
  8 14  1  0
  4  5  1  0
 36 28  1  1
 33 30  1  6
 30 38  1  0
 34 31  1  6
 31 39  1  0
 35 32  1  1
 32 40  1  0
 41 43  1  0
 15 19  2  0
 42 43  2  0
 16 22  2  0
 12 17  1  6
 17 19  1  0
 17 20  1  0
 18 19  1  0
 18 22  1  0
 18 23  1  0
  9 10  1  0
  9 11  1  0
 10 12  1  0
 11  5  1  1
 33 34  1  0
 33 35  1  0
 34 36  1  0
 35 37  1  0
 37 43  1  1
 20 21  2  0
 21 22  1  0
M  CHG  3   2  -1  26  -1  41  -1
M  END
>  <COMPND>  (420) 
    udp_gluA.pdb 

>  <AUTHOR>  (420) 
    GENERATED BY OPEN BABEL 3.1.1

>  <MASTER>  (420) 
        0    0    0    0    0    0    0    0   56    0   56    0

>  <minimizedAffinity>  (420) 
-8.18481

>  <CNNscore>  (420) 
0.5443741083

>  <CNNaffinity>  (420) 
4.3758563995

>  <CNN_VS>  (420) 
2.3821029663

>  <CNNaffinity_variance>  (420) 
0.1350433379

$$$$
421
     RDKit          3D

 43 45  0  0  0  0  0  0  0  0999 V2000
   20.6050   71.2592   -1.5392 P   0  0  2  0  0  0  0  0  0  0  0  0
   21.2954   70.5101   -0.2818 O   0  0  0  0  0  0  0  0  0  0  0  0
   20.1023   72.6440   -1.2537 O   0  0  0  0  0  0  0  0  0  0  0  0
   19.4957   70.2025   -2.0597 O   0  0  0  0  0  0  0  0  0  0  0  0
   19.1556   70.2012   -3.4340 C   0  0  0  0  0  0  0  0  0  0  0  0
   17.5449   71.3265   -4.8187 O   0  0  0  0  0  0  0  0  0  0  0  0
   15.4527   69.8188   -3.2887 O   0  0  0  0  0  0  0  0  0  0  0  0
   15.6398   68.3931   -5.6057 O   0  0  0  0  0  0  0  0  0  0  0  0
   16.7557   69.3976   -3.6931 C   0  0  1  0  0  0  0  0  0  0  0  0
   16.7769   69.1145   -5.1803 C   0  0  2  0  0  0  0  0  0  0  0  0
   17.6913   70.5937   -3.5830 C   0  0  1  0  0  0  0  0  0  0  0  0
   16.8344   70.5146   -5.7670 C   0  0  2  0  0  0  0  0  0  0  0  0
   14.8372   69.0712   -3.3506 H   0  0  0  0  0  0  0  0  0  0  0  0
   15.6494   67.5090   -5.2053 H   0  0  0  0  0  0  0  0  0  0  0  0
   15.5577   70.5799   -8.2854 O   0  0  0  0  0  0  0  0  0  0  0  0
   19.5837   70.6630  -10.5280 O   0  0  0  0  0  0  0  0  0  0  0  0
   17.5248   70.5537   -7.0251 N   0  0  0  0  0  0  0  0  0  0  0  0
   17.5641   70.6202   -9.4000 N   0  0  0  0  0  0  0  0  0  0  0  0
   16.7891   70.5842   -8.2333 C   0  0  0  0  0  0  0  0  0  0  0  0
   18.9140   70.5631   -7.0538 C   0  0  0  0  0  0  0  0  0  0  0  0
   19.6389   70.5977   -8.1737 C   0  0  0  0  0  0  0  0  0  0  0  0
   18.9473   70.6303   -9.4791 C   0  0  0  0  0  0  0  0  0  0  0  0
   17.0742   70.6398  -10.2537 H   0  0  0  0  0  0  0  0  0  0  0  0
   21.7467   71.1794   -2.6807 O   0  0  0  0  0  0  0  0  0  0  0  0
   23.1211   72.0098   -2.8671 P   0  0  2  0  0  0  0  0  0  0  0  0
   24.2314   70.8483   -3.0631 O   0  0  0  0  0  0  0  0  0  0  0  0
   23.4185   72.9673   -1.7497 O   0  0  0  0  0  0  0  0  0  0  0  0
   22.9901   72.6972   -4.3207 O   0  0  0  0  0  0  0  0  0  0  0  0
   20.7324   73.3928   -4.4884 O   0  0  0  0  0  0  0  0  0  0  0  0
   22.3173   74.8216   -8.0260 O   0  0  0  0  0  0  0  0  0  0  0  0
   23.0329   72.1627   -7.0499 O   0  0  0  0  0  0  0  0  0  0  0  0
   21.7714   76.6461   -5.8296 O   0  0  0  0  0  0  0  0  0  0  0  0
   22.3317   74.4502   -6.6476 C   0  0  2  0  0  0  0  0  0  0  0  0
   21.9883   72.9665   -6.5138 C   0  0  2  0  0  0  0  0  0  0  0  0
   21.2938   75.3049   -5.9167 C   0  0  1  0  0  0  0  0  0  0  0  0
   21.7687   72.5857   -5.0490 C   0  0  1  0  0  0  0  0  0  0  0  0
   21.0389   74.7852   -4.5048 C   0  0  1  0  0  0  0  0  0  0  0  0
   22.9693   74.2913   -8.5108 H   0  0  0  0  0  0  0  0  0  0  0  0
   23.1778   72.3992   -7.9791 H   0  0  0  0  0  0  0  0  0  0  0  0
   21.9377   76.9887   -6.7217 H   0  0  0  0  0  0  0  0  0  0  0  0
   19.9999   76.7310   -3.7073 O   0  0  0  0  0  0  0  0  0  0  0  0
   18.7717   74.8102   -3.6798 O   0  0  0  0  0  0  0  0  0  0  0  0
   19.8099   75.4061   -3.9249 C   0  0  0  0  0  0  0  0  0  0  0  0
  1  4  1  0
  1 24  1  0
  1  2  1  1
  1  3  2  0
 25 28  1  0
 25 24  1  0
 25 26  1  6
 25 27  2  0
  6 11  1  0
  6 12  1  0
 29 36  1  0
 29 37  1  0
  9  7  1  6
  7 13  1  0
 10  8  1  6
  8 14  1  0
  4  5  1  0
 36 28  1  1
 33 30  1  6
 30 38  1  0
 34 31  1  1
 31 39  1  0
 35 32  1  1
 32 40  1  0
 41 43  1  0
 15 19  2  0
 42 43  2  0
 16 22  2  0
 12 17  1  6
 17 19  1  0
 17 20  1  0
 18 19  1  0
 18 22  1  0
 18 23  1  0
  9 10  1  0
  9 11  1  0
 10 12  1  0
 11  5  1  6
 33 34  1  0
 33 35  1  0
 34 36  1  0
 35 37  1  0
 37 43  1  6
 20 21  2  0
 21 22  1  0
M  CHG  3   2  -1  26  -1  41  -1
M  END
>  <COMPND>  (421) 
    udp_gluA.pdb 

>  <AUTHOR>  (421) 
    GENERATED BY OPEN BABEL 3.1.1

>  <MASTER>  (421) 
        0    0    0    0    0    0    0    0   56    0   56    0

>  <minimizedAffinity>  (421) 
-7.97466

>  <CNNscore>  (421) 
0.9209805131

>  <CNNaffinity>  (421) 
4.7424073219

>  <CNN_VS>  (421) 
4.3676648140

>  <CNNaffinity_variance>  (421) 
0.7197647095

$$$$
422
     RDKit          3D

 43 45  0  0  0  0  0  0  0  0999 V2000
   22.4838   71.3932   -2.8428 P   0  0  2  0  0  0  0  0  0  0  0  0
   22.3892   72.9913   -2.6058 O   0  0  0  0  0  0  0  0  0  0  0  0
   23.8621   70.8765   -3.1345 O   0  0  0  0  0  0  0  0  0  0  0  0
   21.3692   71.1023   -3.9791 O   0  0  0  0  0  0  0  0  0  0  0  0
   20.4024   70.0969   -3.7361 C   0  0  0  0  0  0  0  0  0  0  0  0
   18.7414   71.4804   -4.7870 O   0  0  0  0  0  0  0  0  0  0  0  0
   16.8244   70.4070   -2.7463 O   0  0  0  0  0  0  0  0  0  0  0  0
   16.2192   68.9384   -4.9628 O   0  0  0  0  0  0  0  0  0  0  0  0
   17.9041   69.7467   -3.4071 C   0  0  1  0  0  0  0  0  0  0  0  0
   17.5327   69.4434   -4.8432 C   0  0  2  0  0  0  0  0  0  0  0  0
   19.0360   70.7509   -3.5761 C   0  0  1  0  0  0  0  0  0  0  0  0
   17.7000   70.8003   -5.5056 C   0  0  2  0  0  0  0  0  0  0  0  0
   16.0890   69.7852   -2.6271 H   0  0  0  0  0  0  0  0  0  0  0  0
   16.1644   68.0735   -4.5257 H   0  0  0  0  0  0  0  0  0  0  0  0
   15.9046   70.2408   -7.6127 O   0  0  0  0  0  0  0  0  0  0  0  0
   19.2637   70.4127  -10.7641 O   0  0  0  0  0  0  0  0  0  0  0  0
   18.0786   70.6932   -6.8862 N   0  0  0  0  0  0  0  0  0  0  0  0
   17.5795   70.3259   -9.1802 N   0  0  0  0  0  0  0  0  0  0  0  0
   17.0989   70.4086   -7.8667 C   0  0  0  0  0  0  0  0  0  0  0  0
   19.4059   70.8709   -7.2572 C   0  0  0  0  0  0  0  0  0  0  0  0
   19.8488   70.7891   -8.5133 C   0  0  0  0  0  0  0  0  0  0  0  0
   18.8897   70.4942   -9.5980 C   0  0  0  0  0  0  0  0  0  0  0  0
   16.9164   70.1267   -9.8800 H   0  0  0  0  0  0  0  0  0  0  0  0
   21.8065   70.7874   -1.5059 O   0  0  0  0  0  0  0  0  0  0  0  0
   22.0690   71.1096    0.0564 P   0  0  2  0  0  0  0  0  0  0  0  0
   23.6545   71.4318    0.1063 O   0  0  0  0  0  0  0  0  0  0  0  0
   21.6294   70.0208    0.9920 O   0  0  0  0  0  0  0  0  0  0  0  0
   21.3558   72.5349    0.3058 O   0  0  0  0  0  0  0  0  0  0  0  0
   22.1343   74.7084    0.8342 O   0  0  0  0  0  0  0  0  0  0  0  0
   18.7198   74.4534    3.1459 O   0  0  0  0  0  0  0  0  0  0  0  0
   20.5433   72.1802    2.9421 O   0  0  0  0  0  0  0  0  0  0  0  0
   18.7142   76.0306    0.7039 O   0  0  0  0  0  0  0  0  0  0  0  0
   19.5506   74.1905    2.0152 C   0  0  2  0  0  0  0  0  0  0  0  0
   20.8315   73.4921    2.4726 C   0  0  2  0  0  0  0  0  0  0  0  0
   19.8822   75.5285    1.3506 C   0  0  1  0  0  0  0  0  0  0  0  0
   21.8431   73.4009    1.3292 C   0  0  1  0  0  0  0  0  0  0  0  0
   20.9879   75.3749    0.3102 C   0  0  1  0  0  0  0  0  0  0  0  0
   18.4962   73.6173    3.5844 H   0  0  0  0  0  0  0  0  0  0  0  0
   19.9018   72.2305    3.6676 H   0  0  0  0  0  0  0  0  0  0  0  0
   18.0027   76.1328    1.3552 H   0  0  0  0  0  0  0  0  0  0  0  0
   20.7283   77.2923   -1.0157 O   0  0  0  0  0  0  0  0  0  0  0  0
   22.5499   77.2133    0.3535 O   0  0  0  0  0  0  0  0  0  0  0  0
   21.5290   76.7090   -0.0896 C   0  0  0  0  0  0  0  0  0  0  0  0
  1  4  1  0
  1 24  1  0
  1  2  1  1
  1  3  2  0
 25 28  1  0
 25 24  1  0
 25 26  1  6
 25 27  2  0
  6 11  1  0
  6 12  1  0
 29 36  1  0
 29 37  1  0
  9  7  1  1
  7 13  1  0
 10  8  1  1
  8 14  1  0
  4  5  1  0
 36 28  1  6
 33 30  1  1
 30 38  1  0
 34 31  1  6
 31 39  1  0
 35 32  1  6
 32 40  1  0
 41 43  1  0
 15 19  2  0
 42 43  2  0
 16 22  2  0
 12 17  1  6
 17 19  1  0
 17 20  1  0
 18 19  1  0
 18 22  1  0
 18 23  1  0
  9 10  1  0
  9 11  1  0
 10 12  1  0
 11  5  1  6
 33 34  1  0
 33 35  1  0
 34 36  1  0
 35 37  1  0
 37 43  1  1
 20 21  2  0
 21 22  1  0
M  CHG  3   2  -1  26  -1  41  -1
M  END
>  <COMPND>  (422) 
    udp_gluA.pdb 

>  <AUTHOR>  (422) 
    GENERATED BY OPEN BABEL 3.1.1

>  <MASTER>  (422) 
        0    0    0    0    0    0    0    0   56    0   56    0

>  <minimizedAffinity>  (422) 
-7.55521

>  <CNNscore>  (422) 
0.9180297256

>  <CNNaffinity>  (422) 
4.8389463425

>  <CNN_VS>  (422) 
4.4422965050

>  <CNNaffinity_variance>  (422) 
0.0544818416

$$$$
423
     RDKit          3D

 43 45  0  0  0  0  0  0  0  0999 V2000
   21.7668   72.3689   -4.9055 P   0  0  2  0  0  0  0  0  0  0  0  0
   20.9017   73.7112   -5.1673 O   0  0  0  0  0  0  0  0  0  0  0  0
   22.9724   72.2106   -5.7847 O   0  0  0  0  0  0  0  0  0  0  0  0
   20.6735   71.1792   -4.9913 O   0  0  0  0  0  0  0  0  0  0  0  0
   20.0812   70.7174   -3.7911 C   0  0  0  0  0  0  0  0  0  0  0  0
   18.3008   71.7607   -5.0237 O   0  0  0  0  0  0  0  0  0  0  0  0
   16.4491   70.5988   -2.9712 O   0  0  0  0  0  0  0  0  0  0  0  0
   16.1646   68.8817   -5.0704 O   0  0  0  0  0  0  0  0  0  0  0  0
   17.6414   70.0456   -3.5289 C   0  0  1  0  0  0  0  0  0  0  0  0
   17.3884   69.5755   -4.9456 C   0  0  2  0  0  0  0  0  0  0  0  0
   18.6315   71.1825   -3.7425 C   0  0  1  0  0  0  0  0  0  0  0  0
   17.4006   70.8832   -5.7188 C   0  0  2  0  0  0  0  0  0  0  0  0
   15.8013   69.8911   -2.8258 H   0  0  0  0  0  0  0  0  0  0  0  0
   16.2073   68.0567   -4.5609 H   0  0  0  0  0  0  0  0  0  0  0  0
   15.7208   70.3070   -7.9149 O   0  0  0  0  0  0  0  0  0  0  0  0
   19.2710   70.2679  -10.8540 O   0  0  0  0  0  0  0  0  0  0  0  0
   17.8596   70.7173   -7.0688 N   0  0  0  0  0  0  0  0  0  0  0  0
   17.4907   70.2871   -9.3764 N   0  0  0  0  0  0  0  0  0  0  0  0
   16.9333   70.4294   -8.0989 C   0  0  0  0  0  0  0  0  0  0  0  0
   19.2123   70.8415   -7.3617 C   0  0  0  0  0  0  0  0  0  0  0  0
   19.7287   70.7032   -8.5844 C   0  0  0  0  0  0  0  0  0  0  0  0
   18.8290   70.4008   -9.7168 C   0  0  0  0  0  0  0  0  0  0  0  0
   16.8657   70.0844  -10.1096 H   0  0  0  0  0  0  0  0  0  0  0  0
   22.0925   72.4498   -3.3243 O   0  0  0  0  0  0  0  0  0  0  0  0
   23.4568   72.1631   -2.5056 P   0  0  2  0  0  0  0  0  0  0  0  0
   24.3118   73.5200   -2.7249 O   0  0  0  0  0  0  0  0  0  0  0  0
   24.1707   70.9087   -2.9186 O   0  0  0  0  0  0  0  0  0  0  0  0
   23.0189   72.2041   -0.9534 O   0  0  0  0  0  0  0  0  0  0  0  0
   24.3170   70.9887    0.6108 O   0  0  0  0  0  0  0  0  0  0  0  0
   20.8901   71.7639    2.7841 O   0  0  0  0  0  0  0  0  0  0  0  0
   20.7156   70.9567   -0.0181 O   0  0  0  0  0  0  0  0  0  0  0  0
   23.3200   73.2727    3.3037 O   0  0  0  0  0  0  0  0  0  0  0  0
   21.9021   72.0215    1.8107 C   0  0  2  0  0  0  0  0  0  0  0  0
   21.9024   70.9060    0.7653 C   0  0  2  0  0  0  0  0  0  0  0  0
   23.2503   72.0746    2.5329 C   0  0  1  0  0  0  0  0  0  0  0  0
   23.1149   71.0230   -0.1594 C   0  0  1  0  0  0  0  0  0  0  0  0
   24.4126   72.0623    1.5443 C   0  0  1  0  0  0  0  0  0  0  0  0
   20.0242   71.7258    2.3482 H   0  0  0  0  0  0  0  0  0  0  0  0
   19.9422   70.8833    0.5623 H   0  0  0  0  0  0  0  0  0  0  0  0
   22.5855   73.2930    3.9369 H   0  0  0  0  0  0  0  0  0  0  0  0
   26.0464   72.8227    3.0457 O   0  0  0  0  0  0  0  0  0  0  0  0
   26.3611   70.7619    2.1220 O   0  0  0  0  0  0  0  0  0  0  0  0
   25.7023   71.7835    2.2453 C   0  0  0  0  0  0  0  0  0  0  0  0
  1  4  1  0
  1 24  1  0
  1  2  1  6
  1  3  2  0
 25 28  1  0
 25 24  1  0
 25 26  1  1
 25 27  2  0
  6 11  1  0
  6 12  1  0
 29 36  1  0
 29 37  1  0
  9  7  1  6
  7 13  1  0
 10  8  1  1
  8 14  1  0
  4  5  1  0
 36 28  1  1
 33 30  1  1
 30 38  1  0
 34 31  1  6
 31 39  1  0
 35 32  1  6
 32 40  1  0
 41 43  1  0
 15 19  2  0
 42 43  2  0
 16 22  2  0
 12 17  1  6
 17 19  1  0
 17 20  1  0
 18 19  1  0
 18 22  1  0
 18 23  1  0
  9 10  1  0
  9 11  1  0
 10 12  1  0
 11  5  1  6
 33 34  1  0
 33 35  1  0
 34 36  1  0
 35 37  1  0
 37 43  1  1
 20 21  2  0
 21 22  1  0
M  CHG  3   2  -1  26  -1  41  -1
M  END
>  <COMPND>  (423) 
    udp_gluA.pdb 

>  <AUTHOR>  (423) 
    GENERATED BY OPEN BABEL 3.1.1

>  <MASTER>  (423) 
        0    0    0    0    0    0    0    0   56    0   56    0

>  <minimizedAffinity>  (423) 
-8.61470

>  <CNNscore>  (423) 
0.9150155783

>  <CNNaffinity>  (423) 
4.7858028412

>  <CNN_VS>  (423) 
4.3790841103

>  <CNNaffinity_variance>  (423) 
0.0559956916

$$$$
424
     RDKit          3D

 43 45  0  0  0  0  0  0  0  0999 V2000
   22.6809   72.2510   -2.7386 P   0  0  2  0  0  0  0  0  0  0  0  0
   22.9305   73.7521   -2.1879 O   0  0  0  0  0  0  0  0  0  0  0  0
   23.8189   71.6665   -3.5230 O   0  0  0  0  0  0  0  0  0  0  0  0
   21.2682   72.3540   -3.5206 O   0  0  0  0  0  0  0  0  0  0  0  0
   20.5764   71.1574   -3.8273 C   0  0  0  0  0  0  0  0  0  0  0  0
   18.5417   71.8677   -4.8918 O   0  0  0  0  0  0  0  0  0  0  0  0
   17.1059   70.4858   -2.6511 O   0  0  0  0  0  0  0  0  0  0  0  0
   16.9033   68.6851   -4.6889 O   0  0  0  0  0  0  0  0  0  0  0  0
   18.3132   70.1136   -3.3164 C   0  0  1  0  0  0  0  0  0  0  0  0
   18.0053   69.5683   -4.6948 C   0  0  2  0  0  0  0  0  0  0  0  0
   19.0820   71.3869   -3.6419 C   0  0  1  0  0  0  0  0  0  0  0  0
   17.7327   70.8383   -5.4827 C   0  0  2  0  0  0  0  0  0  0  0  0
   16.5976   69.6885   -2.4330 H   0  0  0  0  0  0  0  0  0  0  0  0
   17.1268   67.8927   -4.1751 H   0  0  0  0  0  0  0  0  0  0  0  0
   15.8671   70.4484   -7.5669 O   0  0  0  0  0  0  0  0  0  0  0  0
   19.1846   70.3537  -10.7652 O   0  0  0  0  0  0  0  0  0  0  0  0
   18.0816   70.7085   -6.8692 N   0  0  0  0  0  0  0  0  0  0  0  0
   17.5213   70.4006   -9.1578 N   0  0  0  0  0  0  0  0  0  0  0  0
   17.0677   70.5152   -7.8371 C   0  0  0  0  0  0  0  0  0  0  0  0
   19.4140   70.7746   -7.2583 C   0  0  0  0  0  0  0  0  0  0  0  0
   19.8309   70.6637   -8.5211 C   0  0  0  0  0  0  0  0  0  0  0  0
   18.8352   70.4591   -9.5935 C   0  0  0  0  0  0  0  0  0  0  0  0
   16.8339   70.2634   -9.8491 H   0  0  0  0  0  0  0  0  0  0  0  0
   22.2959   71.4324   -1.3990 O   0  0  0  0  0  0  0  0  0  0  0  0
   21.2962   71.7979   -0.1822 P   0  0  2  0  0  0  0  0  0  0  0  0
   21.1436   70.3923    0.6061 O   0  0  0  0  0  0  0  0  0  0  0  0
   19.9948   72.4078   -0.6164 O   0  0  0  0  0  0  0  0  0  0  0  0
   22.1738   72.7248    0.8042 O   0  0  0  0  0  0  0  0  0  0  0  0
   23.4040   71.4850    2.4038 O   0  0  0  0  0  0  0  0  0  0  0  0
   24.0081   75.3614    3.6989 O   0  0  0  0  0  0  0  0  0  0  0  0
   21.3692   74.4978    2.7905 O   0  0  0  0  0  0  0  0  0  0  0  0
   26.1269   73.9423    2.3032 O   0  0  0  0  0  0  0  0  0  0  0  0
   23.7888   74.3272    2.7396 C   0  0  2  0  0  0  0  0  0  0  0  0
   22.4645   73.6241    3.0387 C   0  0  2  0  0  0  0  0  0  0  0  0
   24.9513   73.3368    2.8378 C   0  0  1  0  0  0  0  0  0  0  0  0
   22.3051   72.3691    2.1794 C   0  0  1  0  0  0  0  0  0  0  0  0
   24.6621   72.0589    2.0557 C   0  0  1  0  0  0  0  0  0  0  0  0
   23.2815   76.0028    3.6549 H   0  0  0  0  0  0  0  0  0  0  0  0
   21.4641   75.2964    3.3323 H   0  0  0  0  0  0  0  0  0  0  0  0
   26.3219   74.7570    2.7922 H   0  0  0  0  0  0  0  0  0  0  0  0
   24.9876   69.8139    2.6522 O   0  0  0  0  0  0  0  0  0  0  0  0
   26.8443   71.1281    2.4951 O   0  0  0  0  0  0  0  0  0  0  0  0
   25.6334   70.9833    2.4189 C   0  0  0  0  0  0  0  0  0  0  0  0
  1  4  1  0
  1 24  1  0
  1  2  1  1
  1  3  2  0
 25 28  1  0
 25 24  1  0
 25 26  1  1
 25 27  2  0
  6 11  1  0
  6 12  1  0
 29 36  1  0
 29 37  1  0
  9  7  1  6
  7 13  1  0
 10  8  1  1
  8 14  1  0
  4  5  1  0
 36 28  1  6
 33 30  1  1
 30 38  1  0
 34 31  1  6
 31 39  1  0
 35 32  1  6
 32 40  1  0
 41 43  1  0
 15 19  2  0
 42 43  2  0
 16 22  2  0
 12 17  1  6
 17 19  1  0
 17 20  1  0
 18 19  1  0
 18 22  1  0
 18 23  1  0
  9 10  1  0
  9 11  1  0
 10 12  1  0
 11  5  1  6
 33 34  1  0
 33 35  1  0
 34 36  1  0
 35 37  1  0
 37 43  1  1
 20 21  2  0
 21 22  1  0
M  CHG  3   2  -1  26  -1  41  -1
M  END
>  <COMPND>  (424) 
    udp_gluA.pdb 

>  <AUTHOR>  (424) 
    GENERATED BY OPEN BABEL 3.1.1

>  <MASTER>  (424) 
        0    0    0    0    0    0    0    0   56    0   56    0

>  <minimizedAffinity>  (424) 
-7.91889

>  <CNNscore>  (424) 
0.9024534822

>  <CNNaffinity>  (424) 
4.7529888153

>  <CNN_VS>  (424) 
4.2893514633

>  <CNNaffinity_variance>  (424) 
0.0500043333

$$$$
425
     RDKit          3D

 43 45  0  0  0  0  0  0  0  0999 V2000
   20.6538   71.9626   -1.4293 P   0  0  2  0  0  0  0  0  0  0  0  0
   20.4994   70.6743   -0.4622 O   0  0  0  0  0  0  0  0  0  0  0  0
   19.8953   73.1801   -0.9886 O   0  0  0  0  0  0  0  0  0  0  0  0
   20.2783   71.3940   -2.8969 O   0  0  0  0  0  0  0  0  0  0  0  0
   19.6325   72.2595   -3.8125 C   0  0  0  0  0  0  0  0  0  0  0  0
   17.6134   72.1590   -5.1127 O   0  0  0  0  0  0  0  0  0  0  0  0
   16.4565   70.5667   -2.8504 O   0  0  0  0  0  0  0  0  0  0  0  0
   17.0828   68.6402   -4.6759 O   0  0  0  0  0  0  0  0  0  0  0  0
   17.7869   70.5657   -3.3686 C   0  0  1  0  0  0  0  0  0  0  0  0
   17.8322   69.8371   -4.6950 C   0  0  2  0  0  0  0  0  0  0  0  0
   18.1335   71.9912   -3.7761 C   0  0  1  0  0  0  0  0  0  0  0  0
   17.2548   70.8735   -5.6439 C   0  0  2  0  0  0  0  0  0  0  0  0
   16.2125   69.6663   -2.5833 H   0  0  0  0  0  0  0  0  0  0  0  0
   17.4907   68.0132   -4.0575 H   0  0  0  0  0  0  0  0  0  0  0  0
   15.6867   70.4162   -7.9480 O   0  0  0  0  0  0  0  0  0  0  0  0
   19.3889   70.4316  -10.6935 O   0  0  0  0  0  0  0  0  0  0  0  0
   17.7831   70.7538   -6.9734 N   0  0  0  0  0  0  0  0  0  0  0  0
   17.5322   70.4233   -9.3131 N   0  0  0  0  0  0  0  0  0  0  0  0
   16.9091   70.5241   -8.0622 C   0  0  0  0  0  0  0  0  0  0  0  0
   19.1514   70.8653   -7.1886 C   0  0  0  0  0  0  0  0  0  0  0  0
   19.7306   70.7671   -8.3868 C   0  0  0  0  0  0  0  0  0  0  0  0
   18.8884   70.5266   -9.5769 C   0  0  0  0  0  0  0  0  0  0  0  0
   16.9444   70.2614  -10.0861 H   0  0  0  0  0  0  0  0  0  0  0  0
   22.2555   72.1617   -1.5157 O   0  0  0  0  0  0  0  0  0  0  0  0
   23.1438   73.3746   -2.1104 P   0  0  2  0  0  0  0  0  0  0  0  0
   22.0415   74.5130   -2.4406 O   0  0  0  0  0  0  0  0  0  0  0  0
   24.0060   72.9913   -3.2782 O   0  0  0  0  0  0  0  0  0  0  0  0
   23.9547   73.9493   -0.8397 O   0  0  0  0  0  0  0  0  0  0  0  0
   23.1594   72.9059    1.1321 O   0  0  0  0  0  0  0  0  0  0  0  0
   25.9579   75.5413    2.6456 O   0  0  0  0  0  0  0  0  0  0  0  0
   24.1427   76.3724    0.5129 O   0  0  0  0  0  0  0  0  0  0  0  0
   26.5688   72.7044    2.4728 O   0  0  0  0  0  0  0  0  0  0  0  0
   25.3920   74.6526    1.6823 C   0  0  2  0  0  0  0  0  0  0  0  0
   24.0162   75.1667    1.2579 C   0  0  2  0  0  0  0  0  0  0  0  0
   25.2678   73.2711    2.3289 C   0  0  1  0  0  0  0  0  0  0  0  0
   23.2834   74.1294    0.4059 C   0  0  1  0  0  0  0  0  0  0  0  0
   24.4180   72.3320    1.4778 C   0  0  1  0  0  0  0  0  0  0  0  0
   26.0464   76.4258    2.2570 H   0  0  0  0  0  0  0  0  0  0  0  0
   24.6071   77.0350    1.0474 H   0  0  0  0  0  0  0  0  0  0  0  0
   27.1198   73.2925    3.0125 H   0  0  0  0  0  0  0  0  0  0  0  0
   22.6916   71.0929    2.4705 O   0  0  0  0  0  0  0  0  0  0  0  0
   24.8055   70.2561    2.6446 O   0  0  0  0  0  0  0  0  0  0  0  0
   24.0303   71.1164    2.2551 C   0  0  0  0  0  0  0  0  0  0  0  0
  1  4  1  0
  1 24  1  0
  1  2  1  1
  1  3  2  0
 25 28  1  0
 25 24  1  0
 25 26  1  6
 25 27  2  0
  6 11  1  0
  6 12  1  0
 29 36  1  0
 29 37  1  0
  9  7  1  6
  7 13  1  0
 10  8  1  1
  8 14  1  0
  4  5  1  0
 36 28  1  6
 33 30  1  1
 30 38  1  0
 34 31  1  6
 31 39  1  0
 35 32  1  6
 32 40  1  0
 41 43  1  0
 15 19  2  0
 42 43  2  0
 16 22  2  0
 12 17  1  6
 17 19  1  0
 17 20  1  0
 18 19  1  0
 18 22  1  0
 18 23  1  0
  9 10  1  0
  9 11  1  0
 10 12  1  0
 11  5  1  6
 33 34  1  0
 33 35  1  0
 34 36  1  0
 35 37  1  0
 37 43  1  1
 20 21  2  0
 21 22  1  0
M  CHG  3   2  -1  26  -1  41  -1
M  END
>  <COMPND>  (425) 
    udp_gluA.pdb 

>  <AUTHOR>  (425) 
    GENERATED BY OPEN BABEL 3.1.1

>  <MASTER>  (425) 
        0    0    0    0    0    0    0    0   56    0   56    0

>  <minimizedAffinity>  (425) 
-7.02271

>  <CNNscore>  (425) 
0.8725411892

>  <CNNaffinity>  (425) 
4.6774106026

>  <CNN_VS>  (425) 
4.0812335014

>  <CNNaffinity_variance>  (425) 
0.1767285168

$$$$
426
     RDKit          3D

 43 45  0  0  0  0  0  0  0  0999 V2000
   21.1466   72.7801   -4.4994 P   0  0  2  0  0  0  0  0  0  0  0  0
   21.1475   74.1875   -5.2981 O   0  0  0  0  0  0  0  0  0  0  0  0
   21.5388   71.5860   -5.3192 O   0  0  0  0  0  0  0  0  0  0  0  0
   19.6773   72.7172   -3.8246 O   0  0  0  0  0  0  0  0  0  0  0  0
   19.1002   71.4481   -3.5784 C   0  0  0  0  0  0  0  0  0  0  0  0
   17.3116   71.9932   -5.0889 O   0  0  0  0  0  0  0  0  0  0  0  0
   15.5211   70.4783   -3.2206 O   0  0  0  0  0  0  0  0  0  0  0  0
   15.9420   68.6828   -5.2294 O   0  0  0  0  0  0  0  0  0  0  0  0
   16.8754   70.2140   -3.5873 C   0  0  1  0  0  0  0  0  0  0  0  0
   16.9384   69.6554   -4.9931 C   0  0  2  0  0  0  0  0  0  0  0  0
   17.5892   71.5498   -3.7429 C   0  0  1  0  0  0  0  0  0  0  0  0
   16.7485   70.9041   -5.8374 C   0  0  2  0  0  0  0  0  0  0  0  0
   15.0447   69.6395   -3.1154 H   0  0  0  0  0  0  0  0  0  0  0  0
   16.1072   67.9080   -4.6688 H   0  0  0  0  0  0  0  0  0  0  0  0
   15.4394   70.4589   -8.3000 O   0  0  0  0  0  0  0  0  0  0  0  0
   19.4084   70.5798  -10.6402 O   0  0  0  0  0  0  0  0  0  0  0  0
   17.4155   70.8148   -7.1054 N   0  0  0  0  0  0  0  0  0  0  0  0
   17.4175   70.5185   -9.4631 N   0  0  0  0  0  0  0  0  0  0  0  0
   16.6649   70.5887   -8.2834 C   0  0  0  0  0  0  0  0  0  0  0  0
   18.7966   70.9523   -7.1739 C   0  0  0  0  0  0  0  0  0  0  0  0
   19.5000   70.8831   -8.3058 C   0  0  0  0  0  0  0  0  0  0  0  0
   18.7919   70.6483   -9.5812 C   0  0  0  0  0  0  0  0  0  0  0  0
   16.9171   70.3597  -10.2959 H   0  0  0  0  0  0  0  0  0  0  0  0
   22.1131   73.0779   -3.2384 O   0  0  0  0  0  0  0  0  0  0  0  0
   23.5362   72.4369   -2.8171 P   0  0  2  0  0  0  0  0  0  0  0  0
   24.5227   72.9103   -4.0101 O   0  0  0  0  0  0  0  0  0  0  0  0
   23.5016   70.9524   -2.5957 O   0  0  0  0  0  0  0  0  0  0  0  0
   24.0077   73.2943   -1.5346 O   0  0  0  0  0  0  0  0  0  0  0  0
   22.2394   72.9680    0.0067 O   0  0  0  0  0  0  0  0  0  0  0  0
   25.0068   74.9857    2.3172 O   0  0  0  0  0  0  0  0  0  0  0  0
   24.5032   75.8036   -0.4418 O   0  0  0  0  0  0  0  0  0  0  0  0
   24.6280   72.1240    2.6609 O   0  0  0  0  0  0  0  0  0  0  0  0
   24.5666   74.1018    1.2863 C   0  0  2  0  0  0  0  0  0  0  0  0
   23.7079   74.8728    0.2833 C   0  0  2  0  0  0  0  0  0  0  0  0
   23.7492   72.9845    1.9384 C   0  0  1  0  0  0  0  0  0  0  0  0
   23.0317   73.9203   -0.7038 C   0  0  1  0  0  0  0  0  0  0  0  0
   23.0051   72.1566    0.8947 C   0  0  1  0  0  0  0  0  0  0  0  0
   25.5285   75.7043    1.9263 H   0  0  0  0  0  0  0  0  0  0  0  0
   24.9356   76.4109    0.1784 H   0  0  0  0  0  0  0  0  0  0  0  0
   25.1080   72.6387    3.3284 H   0  0  0  0  0  0  0  0  0  0  0  0
   21.5570   71.8404    2.7126 O   0  0  0  0  0  0  0  0  0  0  0  0
   21.5431   70.2464    1.0822 O   0  0  0  0  0  0  0  0  0  0  0  0
   21.9686   71.2960    1.5407 C   0  0  0  0  0  0  0  0  0  0  0  0
  1  4  1  0
  1 24  1  0
  1  2  1  6
  1  3  2  0
 25 28  1  0
 25 24  1  0
 25 26  1  6
 25 27  2  0
  6 11  1  0
  6 12  1  0
 29 36  1  0
 29 37  1  0
  9  7  1  6
  7 13  1  0
 10  8  1  1
  8 14  1  0
  4  5  1  0
 36 28  1  1
 33 30  1  1
 30 38  1  0
 34 31  1  6
 31 39  1  0
 35 32  1  6
 32 40  1  0
 41 43  1  0
 15 19  2  0
 42 43  2  0
 16 22  2  0
 12 17  1  6
 17 19  1  0
 17 20  1  0
 18 19  1  0
 18 22  1  0
 18 23  1  0
  9 10  1  0
  9 11  1  0
 10 12  1  0
 11  5  1  6
 33 34  1  0
 33 35  1  0
 34 36  1  0
 35 37  1  0
 37 43  1  1
 20 21  2  0
 21 22  1  0
M  CHG  3   2  -1  26  -1  41  -1
M  END
>  <COMPND>  (426) 
    udp_gluA.pdb 

>  <AUTHOR>  (426) 
    GENERATED BY OPEN BABEL 3.1.1

>  <MASTER>  (426) 
        0    0    0    0    0    0    0    0   56    0   56    0

>  <minimizedAffinity>  (426) 
-7.64613

>  <CNNscore>  (426) 
0.8639423251

>  <CNNaffinity>  (426) 
4.6477818489

>  <CNN_VS>  (426) 
4.0154156685

>  <CNNaffinity_variance>  (426) 
0.0912061185

$$$$
427
     RDKit          3D

 43 45  0  0  0  0  0  0  0  0999 V2000
   22.7305   72.9005   -4.2949 P   0  0  2  0  0  0  0  0  0  0  0  0
   22.8282   74.1255   -5.3479 O   0  0  0  0  0  0  0  0  0  0  0  0
   23.9948   72.1108   -4.1226 O   0  0  0  0  0  0  0  0  0  0  0  0
   21.4403   72.0612   -4.7940 O   0  0  0  0  0  0  0  0  0  0  0  0
   20.8862   71.0919   -3.9234 C   0  0  0  0  0  0  0  0  0  0  0  0
   18.8576   71.9260   -4.9066 O   0  0  0  0  0  0  0  0  0  0  0  0
   17.4371   70.6845   -2.5758 O   0  0  0  0  0  0  0  0  0  0  0  0
   17.0139   68.8699   -4.5669 O   0  0  0  0  0  0  0  0  0  0  0  0
   18.5828   70.2178   -3.2887 C   0  0  1  0  0  0  0  0  0  0  0  0
   18.1730   69.6734   -4.6407 C   0  0  2  0  0  0  0  0  0  0  0  0
   19.4217   71.4287   -3.6738 C   0  0  1  0  0  0  0  0  0  0  0  0
   17.9521   70.9465   -5.4396 C   0  0  2  0  0  0  0  0  0  0  0  0
   16.8856   69.9284   -2.3191 H   0  0  0  0  0  0  0  0  0  0  0  0
   17.2060   68.0721   -4.0487 H   0  0  0  0  0  0  0  0  0  0  0  0
   15.9691   70.5983   -7.4202 O   0  0  0  0  0  0  0  0  0  0  0  0
   19.1153   70.2794  -10.7734 O   0  0  0  0  0  0  0  0  0  0  0  0
   18.2252   70.7704   -6.8379 N   0  0  0  0  0  0  0  0  0  0  0  0
   17.5380   70.4388   -9.0883 N   0  0  0  0  0  0  0  0  0  0  0  0
   17.1565   70.6033   -7.7502 C   0  0  0  0  0  0  0  0  0  0  0  0
   19.5381   70.7659   -7.2930 C   0  0  0  0  0  0  0  0  0  0  0  0
   19.8861   70.6081   -8.5716 C   0  0  0  0  0  0  0  0  0  0  0  0
   18.8298   70.4266   -9.5889 C   0  0  0  0  0  0  0  0  0  0  0  0
   16.8115   70.3187   -9.7418 H   0  0  0  0  0  0  0  0  0  0  0  0
   22.1974   73.6203   -2.9493 O   0  0  0  0  0  0  0  0  0  0  0  0
   22.9420   74.6063   -1.9068 P   0  0  2  0  0  0  0  0  0  0  0  0
   22.0883   75.9770   -2.0199 O   0  0  0  0  0  0  0  0  0  0  0  0
   24.4128   74.7714   -2.1584 O   0  0  0  0  0  0  0  0  0  0  0  0
   22.5739   74.0163   -0.4511 O   0  0  0  0  0  0  0  0  0  0  0  0
   23.6652   73.6674    1.6216 O   0  0  0  0  0  0  0  0  0  0  0  0
   21.6735   70.0846    1.1066 O   0  0  0  0  0  0  0  0  0  0  0  0
   23.0304   71.3615   -1.1436 O   0  0  0  0  0  0  0  0  0  0  0  0
   20.6702   72.0535    2.9955 O   0  0  0  0  0  0  0  0  0  0  0  0
   21.8749   71.4928    0.9857 C   0  0  2  0  0  0  0  0  0  0  0  0
   23.1681   71.7605    0.2153 C   0  0  2  0  0  0  0  0  0  0  0  0
   21.9641   72.0805    2.3958 C   0  0  1  0  0  0  0  0  0  0  0  0
   23.5367   73.2439    0.2638 C   0  0  1  0  0  0  0  0  0  0  0  0
   22.4585   73.5238    2.3676 C   0  0  1  0  0  0  0  0  0  0  0  0
   21.6138   69.6893    0.2226 H   0  0  0  0  0  0  0  0  0  0  0  0
   22.7962   70.4212   -1.1819 H   0  0  0  0  0  0  0  0  0  0  0  0
   20.3439   71.1403    3.0194 H   0  0  0  0  0  0  0  0  0  0  0  0
   21.9132   74.8014    4.2576 O   0  0  0  0  0  0  0  0  0  0  0  0
   23.8804   73.6498    4.3128 O   0  0  0  0  0  0  0  0  0  0  0  0
   22.8540   73.9760    3.7356 C   0  0  0  0  0  0  0  0  0  0  0  0
  1  4  1  0
  1 24  1  0
  1  2  1  6
  1  3  2  0
 25 28  1  0
 25 24  1  0
 25 26  1  1
 25 27  2  0
  6 11  1  0
  6 12  1  0
 29 36  1  0
 29 37  1  0
  9  7  1  1
  7 13  1  0
 10  8  1  1
  8 14  1  0
  4  5  1  0
 36 28  1  1
 33 30  1  1
 30 38  1  0
 34 31  1  6
 31 39  1  0
 35 32  1  6
 32 40  1  0
 41 43  1  0
 15 19  2  0
 42 43  2  0
 16 22  2  0
 12 17  1  6
 17 19  1  0
 17 20  1  0
 18 19  1  0
 18 22  1  0
 18 23  1  0
  9 10  1  0
  9 11  1  0
 10 12  1  0
 11  5  1  6
 33 34  1  0
 33 35  1  0
 34 36  1  0
 35 37  1  0
 37 43  1  1
 20 21  2  0
 21 22  1  0
M  CHG  3   2  -1  26  -1  41  -1
M  END
>  <COMPND>  (427) 
    udp_gluA.pdb 

>  <AUTHOR>  (427) 
    GENERATED BY OPEN BABEL 3.1.1

>  <MASTER>  (427) 
        0    0    0    0    0    0    0    0   56    0   56    0

>  <minimizedAffinity>  (427) 
-7.70232

>  <CNNscore>  (427) 
0.8271641731

>  <CNNaffinity>  (427) 
4.6361370087

>  <CNN_VS>  (427) 
3.8348464966

>  <CNNaffinity_variance>  (427) 
0.0438467450

$$$$
428
     RDKit          3D

 43 45  0  0  0  0  0  0  0  0999 V2000
   22.3842   72.5111   -1.9954 P   0  0  2  0  0  0  0  0  0  0  0  0
   21.4829   73.5875   -1.1905 O   0  0  0  0  0  0  0  0  0  0  0  0
   23.4014   73.1053   -2.9248 O   0  0  0  0  0  0  0  0  0  0  0  0
   21.2965   71.5281   -2.6800 O   0  0  0  0  0  0  0  0  0  0  0  0
   20.6219   71.9717   -3.8430 C   0  0  0  0  0  0  0  0  0  0  0  0
   18.4476   72.2017   -4.8417 O   0  0  0  0  0  0  0  0  0  0  0  0
   17.3980   70.7299   -2.4493 O   0  0  0  0  0  0  0  0  0  0  0  0
   17.4709   68.7858   -4.3602 O   0  0  0  0  0  0  0  0  0  0  0  0
   18.6276   70.5509   -3.1525 C   0  0  1  0  0  0  0  0  0  0  0  0
   18.3783   69.8617   -4.4773 C   0  0  2  0  0  0  0  0  0  0  0  0
   19.1198   71.9223   -3.5946 C   0  0  1  0  0  0  0  0  0  0  0  0
   17.8325   70.9973   -5.3259 C   0  0  2  0  0  0  0  0  0  0  0  0
   17.0638   69.8670   -2.1569 H   0  0  0  0  0  0  0  0  0  0  0  0
   17.8647   68.0890   -3.8113 H   0  0  0  0  0  0  0  0  0  0  0  0
   15.9397   70.3651   -7.3245 O   0  0  0  0  0  0  0  0  0  0  0  0
   19.1460   70.4196  -10.6352 O   0  0  0  0  0  0  0  0  0  0  0  0
   18.1454   70.8404   -6.7182 N   0  0  0  0  0  0  0  0  0  0  0  0
   17.5386   70.3918   -8.9713 N   0  0  0  0  0  0  0  0  0  0  0  0
   17.1206   70.5221   -7.6404 C   0  0  0  0  0  0  0  0  0  0  0  0
   19.4536   71.0029   -7.1576 C   0  0  0  0  0  0  0  0  0  0  0  0
   19.8368   70.8757   -8.4295 C   0  0  0  0  0  0  0  0  0  0  0  0
   18.8276   70.5434   -9.4564 C   0  0  0  0  0  0  0  0  0  0  0  0
   16.8432   70.1685   -9.6315 H   0  0  0  0  0  0  0  0  0  0  0  0
   23.0037   71.5999   -0.8127 O   0  0  0  0  0  0  0  0  0  0  0  0
   22.3540   71.0686    0.5690 P   0  0  2  0  0  0  0  0  0  0  0  0
   23.5174   70.1280    1.1871 O   0  0  0  0  0  0  0  0  0  0  0  0
   21.0283   70.3840    0.4029 O   0  0  0  0  0  0  0  0  0  0  0  0
   22.3231   72.3632    1.5311 O   0  0  0  0  0  0  0  0  0  0  0  0
   21.9040   72.6511    3.8442 O   0  0  0  0  0  0  0  0  0  0  0  0
   20.1176   76.0138    2.2413 O   0  0  0  0  0  0  0  0  0  0  0  0
   19.8166   73.4149    0.9415 O   0  0  0  0  0  0  0  0  0  0  0  0
   22.6782   76.2293    3.6007 O   0  0  0  0  0  0  0  0  0  0  0  0
   21.0787   74.9611    2.3207 C   0  0  2  0  0  0  0  0  0  0  0  0
   20.3665   73.6107    2.2391 C   0  0  2  0  0  0  0  0  0  0  0  0
   21.8164   75.0940    3.6549 C   0  0  1  0  0  0  0  0  0  0  0  0
   21.3299   72.4644    2.5500 C   0  0  1  0  0  0  0  0  0  0  0  0
   22.6583   73.8564    3.9517 C   0  0  1  0  0  0  0  0  0  0  0  0
   19.6362   75.9496    1.4014 H   0  0  0  0  0  0  0  0  0  0  0  0
   19.2045   74.1388    0.7375 H   0  0  0  0  0  0  0  0  0  0  0  0
   22.1548   77.0239    3.4122 H   0  0  0  0  0  0  0  0  0  0  0  0
   24.2158   74.6069    5.5366 O   0  0  0  0  0  0  0  0  0  0  0  0
   22.5473   73.2436    6.2827 O   0  0  0  0  0  0  0  0  0  0  0  0
   23.1038   73.8473    5.3778 C   0  0  0  0  0  0  0  0  0  0  0  0
  1  4  1  0
  1 24  1  0
  1  2  1  1
  1  3  2  0
 25 28  1  0
 25 24  1  0
 25 26  1  1
 25 27  2  0
  6 11  1  0
  6 12  1  0
 29 36  1  0
 29 37  1  0
  9  7  1  1
  7 13  1  0
 10  8  1  1
  8 14  1  0
  4  5  1  0
 36 28  1  6
 33 30  1  1
 30 38  1  0
 34 31  1  6
 31 39  1  0
 35 32  1  6
 32 40  1  0
 41 43  1  0
 15 19  2  0
 42 43  2  0
 16 22  2  0
 12 17  1  6
 17 19  1  0
 17 20  1  0
 18 19  1  0
 18 22  1  0
 18 23  1  0
  9 10  1  0
  9 11  1  0
 10 12  1  0
 11  5  1  6
 33 34  1  0
 33 35  1  0
 34 36  1  0
 35 37  1  0
 37 43  1  1
 20 21  2  0
 21 22  1  0
M  CHG  3   2  -1  26  -1  41  -1
M  END
>  <COMPND>  (428) 
    udp_gluA.pdb 

>  <AUTHOR>  (428) 
    GENERATED BY OPEN BABEL 3.1.1

>  <MASTER>  (428) 
        0    0    0    0    0    0    0    0   56    0   56    0

>  <minimizedAffinity>  (428) 
-7.03506

>  <CNNscore>  (428) 
0.7702444792

>  <CNNaffinity>  (428) 
4.5735111237

>  <CNN_VS>  (428) 
3.5227217674

>  <CNNaffinity_variance>  (428) 
0.0546198376

$$$$
429
     RDKit          3D

 43 45  0  0  0  0  0  0  0  0999 V2000
   22.6645   72.8586   -4.2580 P   0  0  2  0  0  0  0  0  0  0  0  0
   22.2213   74.2147   -5.0219 O   0  0  0  0  0  0  0  0  0  0  0  0
   24.0974   72.4593   -4.4561 O   0  0  0  0  0  0  0  0  0  0  0  0
   21.5611   71.7713   -4.7250 O   0  0  0  0  0  0  0  0  0  0  0  0
   21.0726   70.8497   -3.7676 C   0  0  0  0  0  0  0  0  0  0  0  0
   19.0200   71.7330   -4.6530 O   0  0  0  0  0  0  0  0  0  0  0  0
   17.6615   70.3866   -2.3436 O   0  0  0  0  0  0  0  0  0  0  0  0
   17.1764   68.6681   -4.4046 O   0  0  0  0  0  0  0  0  0  0  0  0
   18.7851   69.9516   -3.1096 C   0  0  1  0  0  0  0  0  0  0  0  0
   18.3356   69.4718   -4.4735 C   0  0  2  0  0  0  0  0  0  0  0  0
   19.6169   71.1774   -3.4613 C   0  0  1  0  0  0  0  0  0  0  0  0
   18.0966   70.7814   -5.2054 C   0  0  2  0  0  0  0  0  0  0  0  0
   17.1148   69.6205   -2.1071 H   0  0  0  0  0  0  0  0  0  0  0  0
   17.3803   67.8465   -3.9299 H   0  0  0  0  0  0  0  0  0  0  0  0
   16.1758   69.8881   -7.0733 O   0  0  0  0  0  0  0  0  0  0  0  0
   19.1010   70.3952  -10.5989 O   0  0  0  0  0  0  0  0  0  0  0  0
   18.3296   70.6703   -6.6176 N   0  0  0  0  0  0  0  0  0  0  0  0
   17.6349   70.1405   -8.8274 N   0  0  0  0  0  0  0  0  0  0  0  0
   17.2975   70.2104   -7.4693 C   0  0  0  0  0  0  0  0  0  0  0  0
   19.5676   71.0161   -7.1456 C   0  0  0  0  0  0  0  0  0  0  0  0
   19.8743   70.9443   -8.4424 C   0  0  0  0  0  0  0  0  0  0  0  0
   18.8522   70.4727   -9.3996 C   0  0  0  0  0  0  0  0  0  0  0  0
   16.9331   69.8212   -9.4396 H   0  0  0  0  0  0  0  0  0  0  0  0
   22.2545   73.1562   -2.7230 O   0  0  0  0  0  0  0  0  0  0  0  0
   22.8504   74.2087   -1.6502 P   0  0  2  0  0  0  0  0  0  0  0  0
   21.9444   75.5294   -1.8853 O   0  0  0  0  0  0  0  0  0  0  0  0
   24.3283   74.4427   -1.7726 O   0  0  0  0  0  0  0  0  0  0  0  0
   22.3789   73.6416   -0.2154 O   0  0  0  0  0  0  0  0  0  0  0  0
   23.0472   71.4241    0.2799 O   0  0  0  0  0  0  0  0  0  0  0  0
   20.3137   72.1696    3.2865 O   0  0  0  0  0  0  0  0  0  0  0  0
   19.7747   73.0321    0.5479 O   0  0  0  0  0  0  0  0  0  0  0  0
   23.1625   72.1954    3.8651 O   0  0  0  0  0  0  0  0  0  0  0  0
   21.3261   72.4977    2.3350 C   0  0  2  0  0  0  0  0  0  0  0  0
   20.8338   72.1608    0.9273 C   0  0  2  0  0  0  0  0  0  0  0  0
   22.5748   71.6798    2.6721 C   0  0  1  0  0  0  0  0  0  0  0  0
   21.9674   72.2814   -0.0922 C   0  0  1  0  0  0  0  0  0  0  0  0
   23.6067   71.7504    1.5501 C   0  0  1  0  0  0  0  0  0  0  0  0
   19.5103   72.6776    3.0922 H   0  0  0  0  0  0  0  0  0  0  0  0
   19.0521   72.9609    1.1906 H   0  0  0  0  0  0  0  0  0  0  0  0
   22.5159   72.1562    4.5871 H   0  0  0  0  0  0  0  0  0  0  0  0
   25.3235   70.4890    0.5689 O   0  0  0  0  0  0  0  0  0  0  0  0
   24.8979   70.1244    2.7791 O   0  0  0  0  0  0  0  0  0  0  0  0
   24.6596   70.7060    1.7313 C   0  0  0  0  0  0  0  0  0  0  0  0
  1  4  1  0
  1 24  1  0
  1  2  1  6
  1  3  2  0
 25 28  1  0
 25 24  1  0
 25 26  1  6
 25 27  2  0
  6 11  1  0
  6 12  1  0
 29 36  1  0
 29 37  1  0
  9  7  1  1
  7 13  1  0
 10  8  1  1
  8 14  1  0
  4  5  1  0
 36 28  1  1
 33 30  1  1
 30 38  1  0
 34 31  1  6
 31 39  1  0
 35 32  1  1
 32 40  1  0
 41 43  1  0
 15 19  2  0
 42 43  2  0
 16 22  2  0
 12 17  1  6
 17 19  1  0
 17 20  1  0
 18 19  1  0
 18 22  1  0
 18 23  1  0
  9 10  1  0
  9 11  1  0
 10 12  1  0
 11  5  1  6
 33 34  1  0
 33 35  1  0
 34 36  1  0
 35 37  1  0
 37 43  1  1
 20 21  2  0
 21 22  1  0
M  CHG  3   2  -1  26  -1  41  -1
M  END
>  <COMPND>  (429) 
    udp_gluA.pdb 

>  <AUTHOR>  (429) 
    GENERATED BY OPEN BABEL 3.1.1

>  <MASTER>  (429) 
        0    0    0    0    0    0    0    0   56    0   56    0

>  <minimizedAffinity>  (429) 
-7.93332

>  <CNNscore>  (429) 
0.7603682280

>  <CNNaffinity>  (429) 
4.5474214554

>  <CNN_VS>  (429) 
3.4577147961

>  <CNNaffinity_variance>  (429) 
0.0310007297

$$$$
430
     RDKit          3D

 43 45  0  0  0  0  0  0  0  0999 V2000
   23.3599   71.8044   -3.2738 P   0  0  2  0  0  0  0  0  0  0  0  0
   24.0719   72.9817   -4.1259 O   0  0  0  0  0  0  0  0  0  0  0  0
   24.2459   70.6406   -2.9383 O   0  0  0  0  0  0  0  0  0  0  0  0
   22.0327   71.4532   -4.1300 O   0  0  0  0  0  0  0  0  0  0  0  0
   21.6004   72.3737   -5.1150 C   0  0  0  0  0  0  0  0  0  0  0  0
   20.5540   70.4481   -6.1023 O   0  0  0  0  0  0  0  0  0  0  0  0
   20.7708   71.9017   -8.7160 O   0  0  0  0  0  0  0  0  0  0  0  0
   18.1603   72.2928   -8.0315 O   0  0  0  0  0  0  0  0  0  0  0  0
   20.5082   72.4211   -7.4123 C   0  0  1  0  0  0  0  0  0  0  0  0
   19.0927   72.0879   -6.9907 C   0  0  2  0  0  0  0  0  0  0  0  0
   21.3344   71.6226   -6.4133 C   0  0  1  0  0  0  0  0  0  0  0  0
   19.2169   70.6261   -6.5962 C   0  0  2  0  0  0  0  0  0  0  0  0
   20.2538   72.3962   -9.3716 H   0  0  0  0  0  0  0  0  0  0  0  0
   18.1176   73.2384   -8.2458 H   0  0  0  0  0  0  0  0  0  0  0  0
   16.5528   69.8188   -7.0729 O   0  0  0  0  0  0  0  0  0  0  0  0
   15.7355   69.2247   -2.5759 O   0  0  0  0  0  0  0  0  0  0  0  0
   18.2861   70.2549   -5.5683 N   0  0  0  0  0  0  0  0  0  0  0  0
   16.1479   69.5247   -4.8326 N   0  0  0  0  0  0  0  0  0  0  0  0
   16.9708   69.8648   -5.9144 C   0  0  0  0  0  0  0  0  0  0  0  0
   18.6791   70.2777   -4.2356 C   0  0  0  0  0  0  0  0  0  0  0  0
   17.8835   69.9507   -3.2154 C   0  0  0  0  0  0  0  0  0  0  0  0
   16.4933   69.5325   -3.4909 C   0  0  0  0  0  0  0  0  0  0  0  0
   15.2270   69.2517   -5.0486 H   0  0  0  0  0  0  0  0  0  0  0  0
   22.7678   72.5913   -1.9920 O   0  0  0  0  0  0  0  0  0  0  0  0
   21.3205   72.5155   -1.2756 P   0  0  2  0  0  0  0  0  0  0  0  0
   20.9597   70.9387   -1.3367 O   0  0  0  0  0  0  0  0  0  0  0  0
   20.2829   73.4116   -1.8874 O   0  0  0  0  0  0  0  0  0  0  0  0
   21.6198   72.8046    0.2831 O   0  0  0  0  0  0  0  0  0  0  0  0
   22.6950   70.9318    1.2554 O   0  0  0  0  0  0  0  0  0  0  0  0
   22.2534   73.4329    4.5138 O   0  0  0  0  0  0  0  0  0  0  0  0
   20.0851   73.1222    2.5808 O   0  0  0  0  0  0  0  0  0  0  0  0
   24.8532   73.1297    3.2489 O   0  0  0  0  0  0  0  0  0  0  0  0
   22.4465   73.1079    3.1372 C   0  0  2  0  0  0  0  0  0  0  0  0
   21.2491   72.3051    2.6280 C   0  0  2  0  0  0  0  0  0  0  0  0
   23.7292   72.2813    3.0219 C   0  0  1  0  0  0  0  0  0  0  0  0
   21.5206   71.7439    1.2316 C   0  0  1  0  0  0  0  0  0  0  0  0
   23.8643   71.6525    1.6381 C   0  0  1  0  0  0  0  0  0  0  0  0
   21.4437   73.9584    4.6116 H   0  0  0  0  0  0  0  0  0  0  0  0
   19.9070   73.4819    3.4636 H   0  0  0  0  0  0  0  0  0  0  0  0
   24.7794   73.5363    4.1264 H   0  0  0  0  0  0  0  0  0  0  0  0
   24.9988   69.9924    2.8458 O   0  0  0  0  0  0  0  0  0  0  0  0
   25.6280   70.3150    0.6780 O   0  0  0  0  0  0  0  0  0  0  0  0
   24.9237   70.5990    1.6353 C   0  0  0  0  0  0  0  0  0  0  0  0
  1  4  1  0
  1 24  1  0
  1  2  1  6
  1  3  2  0
 25 28  1  0
 25 24  1  0
 25 26  1  1
 25 27  2  0
  6 11  1  0
  6 12  1  0
 29 36  1  0
 29 37  1  0
  9  7  1  6
  7 13  1  0
 10  8  1  6
  8 14  1  0
  4  5  1  0
 36 28  1  6
 33 30  1  1
 30 38  1  0
 34 31  1  6
 31 39  1  0
 35 32  1  6
 32 40  1  0
 41 43  1  0
 15 19  2  0
 42 43  2  0
 16 22  2  0
 12 17  1  1
 17 19  1  0
 17 20  1  0
 18 19  1  0
 18 22  1  0
 18 23  1  0
  9 10  1  0
  9 11  1  0
 10 12  1  0
 11  5  1  1
 33 34  1  0
 33 35  1  0
 34 36  1  0
 35 37  1  0
 37 43  1  1
 20 21  2  0
 21 22  1  0
M  CHG  3   2  -1  26  -1  41  -1
M  END
>  <COMPND>  (430) 
    udp_gluA.pdb 

>  <AUTHOR>  (430) 
    GENERATED BY OPEN BABEL 3.1.1

>  <MASTER>  (430) 
        0    0    0    0    0    0    0    0   56    0   56    0

>  <minimizedAffinity>  (430) 
-8.00266

>  <CNNscore>  (430) 
0.7170440555

>  <CNNaffinity>  (430) 
4.3787703514

>  <CNN_VS>  (430) 
3.1397712231

>  <CNNaffinity_variance>  (430) 
0.2281979322

$$$$
431
     RDKit          3D

 43 45  0  0  0  0  0  0  0  0999 V2000
   21.3046   72.2412   -5.4430 P   0  0  2  0  0  0  0  0  0  0  0  0
   20.7366   73.6375   -6.0317 O   0  0  0  0  0  0  0  0  0  0  0  0
   22.7698   72.2396   -5.1189 O   0  0  0  0  0  0  0  0  0  0  0  0
   20.8231   71.1388   -6.5250 O   0  0  0  0  0  0  0  0  0  0  0  0
   20.2480   71.5883   -7.7381 C   0  0  0  0  0  0  0  0  0  0  0  0
   18.8209   69.7082   -7.2839 O   0  0  0  0  0  0  0  0  0  0  0  0
   17.9780   69.8911  -10.1557 O   0  0  0  0  0  0  0  0  0  0  0  0
   15.9050   71.0874   -8.8489 O   0  0  0  0  0  0  0  0  0  0  0  0
   18.3002   70.9382   -9.2401 C   0  0  1  0  0  0  0  0  0  0  0  0
   17.1788   71.1234   -8.2400 C   0  0  2  0  0  0  0  0  0  0  0  0
   19.4401   70.4536   -8.3546 C   0  0  1  0  0  0  0  0  0  0  0  0
   17.4066   69.9587   -7.2915 C   0  0  2  0  0  0  0  0  0  0  0  0
   17.2519   70.1775  -10.7324 H   0  0  0  0  0  0  0  0  0  0  0  0
   15.8089   71.8492   -9.4426 H   0  0  0  0  0  0  0  0  0  0  0  0
   16.3013   68.0552   -5.5218 O   0  0  0  0  0  0  0  0  0  0  0  0
   15.7924   71.1881   -2.1797 O   0  0  0  0  0  0  0  0  0  0  0  0
   16.9767   70.2498   -5.9531 N   0  0  0  0  0  0  0  0  0  0  0  0
   16.0480   69.6176   -3.8593 N   0  0  0  0  0  0  0  0  0  0  0  0
   16.4350   69.2214   -5.1463 C   0  0  0  0  0  0  0  0  0  0  0  0
   17.0951   71.5405   -5.4519 C   0  0  0  0  0  0  0  0  0  0  0  0
   16.7220   71.9029   -4.2230 C   0  0  0  0  0  0  0  0  0  0  0  0
   16.1454   70.8886   -3.3163 C   0  0  0  0  0  0  0  0  0  0  0  0
   15.6660   68.9194   -3.2797 H   0  0  0  0  0  0  0  0  0  0  0  0
   20.3355   71.9587   -4.1805 O   0  0  0  0  0  0  0  0  0  0  0  0
   20.5990   71.1653   -2.7967 P   0  0  2  0  0  0  0  0  0  0  0  0
   21.9019   70.2642   -3.1294 O   0  0  0  0  0  0  0  0  0  0  0  0
   19.4171   70.3840   -2.3002 O   0  0  0  0  0  0  0  0  0  0  0  0
   21.1338   72.2926   -1.7741 O   0  0  0  0  0  0  0  0  0  0  0  0
   22.7196   74.0350   -2.0162 O   0  0  0  0  0  0  0  0  0  0  0  0
   23.3448   72.8669    1.8970 O   0  0  0  0  0  0  0  0  0  0  0  0
   22.9297   70.8713   -0.1958 O   0  0  0  0  0  0  0  0  0  0  0  0
   21.9023   75.3241    1.3203 O   0  0  0  0  0  0  0  0  0  0  0  0
   22.5839   73.0950    0.7108 C   0  0  2  0  0  0  0  0  0  0  0  0
   23.1550   72.2561   -0.4328 C   0  0  2  0  0  0  0  0  0  0  0  0
   22.6704   74.5850    0.3726 C   0  0  1  0  0  0  0  0  0  0  0  0
   22.5164   72.6435   -1.7673 C   0  0  1  0  0  0  0  0  0  0  0  0
   22.1280   74.8715   -1.0246 C   0  0  1  0  0  0  0  0  0  0  0  0
   23.3045   71.9263    2.1313 H   0  0  0  0  0  0  0  0  0  0  0  0
   23.3320   70.6187    0.6496 H   0  0  0  0  0  0  0  0  0  0  0  0
   22.2372   75.1504    2.2139 H   0  0  0  0  0  0  0  0  0  0  0  0
   22.6406   76.2903   -2.8206 O   0  0  0  0  0  0  0  0  0  0  0  0
   22.6857   77.2004   -0.7304 O   0  0  0  0  0  0  0  0  0  0  0  0
   22.5120   76.2445   -1.4714 C   0  0  0  0  0  0  0  0  0  0  0  0
  1  4  1  0
  1 24  1  0
  1  2  1  6
  1  3  2  0
 25 28  1  0
 25 24  1  0
 25 26  1  6
 25 27  2  0
  6 11  1  0
  6 12  1  0
 29 36  1  0
 29 37  1  0
  9  7  1  6
  7 13  1  0
 10  8  1  6
  8 14  1  0
  4  5  1  0
 36 28  1  1
 33 30  1  1
 30 38  1  0
 34 31  1  1
 31 39  1  0
 35 32  1  1
 32 40  1  0
 41 43  1  0
 15 19  2  0
 42 43  2  0
 16 22  2  0
 12 17  1  1
 17 19  1  0
 17 20  1  0
 18 19  1  0
 18 22  1  0
 18 23  1  0
  9 10  1  0
  9 11  1  0
 10 12  1  0
 11  5  1  1
 33 34  1  0
 33 35  1  0
 34 36  1  0
 35 37  1  0
 37 43  1  6
 20 21  2  0
 21 22  1  0
M  CHG  3   2  -1  26  -1  41  -1
M  END
>  <COMPND>  (431) 
    udp_gluA.pdb 

>  <AUTHOR>  (431) 
    GENERATED BY OPEN BABEL 3.1.1

>  <MASTER>  (431) 
        0    0    0    0    0    0    0    0   56    0   56    0

>  <minimizedAffinity>  (431) 
-6.53122

>  <CNNscore>  (431) 
0.6536800861

>  <CNNaffinity>  (431) 
4.5444450378

>  <CNN_VS>  (431) 
2.9706132412

>  <CNNaffinity_variance>  (431) 
0.2182060182

$$$$
432
     RDKit          3D

 43 45  0  0  0  0  0  0  0  0999 V2000
   21.3741   74.6358   -3.9701 P   0  0  2  0  0  0  0  0  0  0  0  0
   22.8517   75.2782   -4.1217 O   0  0  0  0  0  0  0  0  0  0  0  0
   20.2410   75.5865   -4.2231 O   0  0  0  0  0  0  0  0  0  0  0  0
   21.3988   73.9456   -2.5069 O   0  0  0  0  0  0  0  0  0  0  0  0
   22.5701   73.2613   -2.1018 C   0  0  0  0  0  0  0  0  0  0  0  0
   23.3005   71.3442   -0.8493 O   0  0  0  0  0  0  0  0  0  0  0  0
   20.4028   70.5967   -0.6594 O   0  0  0  0  0  0  0  0  0  0  0  0
   20.8946   71.7014    1.7848 O   0  0  0  0  0  0  0  0  0  0  0  0
   21.0056   71.8908   -0.6368 C   0  0  1  0  0  0  0  0  0  0  0  0
   21.6846   72.1296    0.6952 C   0  0  2  0  0  0  0  0  0  0  0  0
   22.1862   71.8759   -1.5981 C   0  0  1  0  0  0  0  0  0  0  0  0
   22.9629   71.3223    0.5467 C   0  0  2  0  0  0  0  0  0  0  0  0
   19.6457   70.5816   -0.0525 H   0  0  0  0  0  0  0  0  0  0  0  0
   20.0931   72.2461    1.8368 H   0  0  0  0  0  0  0  0  0  0  0  0
   24.8368   69.7929    2.0048 O   0  0  0  0  0  0  0  0  0  0  0  0
   27.1006   73.5586    3.3973 O   0  0  0  0  0  0  0  0  0  0  0  0
   24.0521   71.8774    1.2993 N   0  0  0  0  0  0  0  0  0  0  0  0
   25.9619   71.6699    2.6978 N   0  0  0  0  0  0  0  0  0  0  0  0
   24.9368   71.0213    1.9968 C   0  0  0  0  0  0  0  0  0  0  0  0
   24.2365   73.2541    1.3400 C   0  0  0  0  0  0  0  0  0  0  0  0
   25.2183   73.8577    2.0125 C   0  0  0  0  0  0  0  0  0  0  0  0
   26.1856   73.0354    2.7686 C   0  0  0  0  0  0  0  0  0  0  0  0
   26.5892   71.0948    3.1928 H   0  0  0  0  0  0  0  0  0  0  0  0
   21.4252   73.3676   -4.9710 O   0  0  0  0  0  0  0  0  0  0  0  0
   21.6137   73.2880   -6.5747 P   0  0  2  0  0  0  0  0  0  0  0  0
   22.8171   72.2202   -6.7531 O   0  0  0  0  0  0  0  0  0  0  0  0
   21.8617   74.6147   -7.2322 O   0  0  0  0  0  0  0  0  0  0  0  0
   20.3007   72.5139   -7.1032 O   0  0  0  0  0  0  0  0  0  0  0  0
   19.9056   70.4909   -5.9368 O   0  0  0  0  0  0  0  0  0  0  0  0
   17.0665   70.3027   -8.9321 O   0  0  0  0  0  0  0  0  0  0  0  0
   19.7742   71.2318   -9.5146 O   0  0  0  0  0  0  0  0  0  0  0  0
   16.2784   70.9689   -6.2144 O   0  0  0  0  0  0  0  0  0  0  0  0
   17.9167   70.9431   -7.9809 C   0  0  2  0  0  0  0  0  0  0  0  0
   19.3762   70.6144   -8.2960 C   0  0  2  0  0  0  0  0  0  0  0  0
   17.5432   70.4266   -6.5896 C   0  0  1  0  0  0  0  0  0  0  0  0
   20.2988   71.0892   -7.1725 C   0  0  1  0  0  0  0  0  0  0  0  0
   18.5786   70.8370   -5.5465 C   0  0  1  0  0  0  0  0  0  0  0  0
   17.2856   70.6154   -9.8240 H   0  0  0  0  0  0  0  0  0  0  0  0
   19.1928   70.9352  -10.2318 H   0  0  0  0  0  0  0  0  0  0  0  0
   15.6104   70.7151   -6.8703 H   0  0  0  0  0  0  0  0  0  0  0  0
   17.5201   69.0435   -4.4674 O   0  0  0  0  0  0  0  0  0  0  0  0
   18.9409   70.3166   -3.2186 O   0  0  0  0  0  0  0  0  0  0  0  0
   18.3898   70.0669   -4.2801 C   0  0  0  0  0  0  0  0  0  0  0  0
  1  4  1  0
  1 24  1  0
  1  2  1  1
  1  3  2  0
 25 28  1  0
 25 24  1  0
 25 26  1  1
 25 27  2  0
  6 11  1  0
  6 12  1  0
 29 36  1  0
 29 37  1  0
  9  7  1  1
  7 13  1  0
 10  8  1  1
  8 14  1  0
  4  5  1  0
 36 28  1  1
 33 30  1  6
 30 38  1  0
 34 31  1  6
 31 39  1  0
 35 32  1  1
 32 40  1  0
 41 43  1  0
 15 19  2  0
 42 43  2  0
 16 22  2  0
 12 17  1  1
 17 19  1  0
 17 20  1  0
 18 19  1  0
 18 22  1  0
 18 23  1  0
  9 10  1  0
  9 11  1  0
 10 12  1  0
 11  5  1  1
 33 34  1  0
 33 35  1  0
 34 36  1  0
 35 37  1  0
 37 43  1  1
 20 21  2  0
 21 22  1  0
M  CHG  3   2  -1  26  -1  41  -1
M  END
>  <COMPND>  (432) 
    udp_gluA.pdb 

>  <AUTHOR>  (432) 
    GENERATED BY OPEN BABEL 3.1.1

>  <MASTER>  (432) 
        0    0    0    0    0    0    0    0   56    0   56    0

>  <minimizedAffinity>  (432) 
-7.19168

>  <CNNscore>  (432) 
0.6481024623

>  <CNNaffinity>  (432) 
4.4297609329

>  <CNN_VS>  (432) 
2.8709390163

>  <CNNaffinity_variance>  (432) 
0.0919768587

$$$$
433
     RDKit          3D

 43 45  0  0  0  0  0  0  0  0999 V2000
   23.1134   73.1916   -4.0619 P   0  0  2  0  0  0  0  0  0  0  0  0
   23.8752   71.7792   -3.8531 O   0  0  0  0  0  0  0  0  0  0  0  0
   23.9196   74.2497   -4.7563 O   0  0  0  0  0  0  0  0  0  0  0  0
   22.5844   73.5704   -2.5805 O   0  0  0  0  0  0  0  0  0  0  0  0
   21.5355   74.5134   -2.4577 C   0  0  0  0  0  0  0  0  0  0  0  0
   20.8469   72.6315   -1.1303 O   0  0  0  0  0  0  0  0  0  0  0  0
   18.5438   74.3355   -0.2450 O   0  0  0  0  0  0  0  0  0  0  0  0
   20.2585   74.5066    1.8684 O   0  0  0  0  0  0  0  0  0  0  0  0
   19.8916   74.7133   -0.5263 C   0  0  1  0  0  0  0  0  0  0  0  0
   20.8072   74.2594    0.5908 C   0  0  2  0  0  0  0  0  0  0  0  0
   20.3797   73.8739   -1.6992 C   0  0  1  0  0  0  0  0  0  0  0  0
   20.9550   72.7767    0.2947 C   0  0  2  0  0  0  0  0  0  0  0  0
   18.2101   74.8586    0.5011 H   0  0  0  0  0  0  0  0  0  0  0  0
   20.1850   75.4641    2.0090 H   0  0  0  0  0  0  0  0  0  0  0  0
   21.4257   70.0732    0.9628 O   0  0  0  0  0  0  0  0  0  0  0  0
   25.8588   70.8923    1.9223 O   0  0  0  0  0  0  0  0  0  0  0  0
   22.2228   72.2562    0.7222 N   0  0  0  0  0  0  0  0  0  0  0  0
   23.6329   70.4840    1.4410 N   0  0  0  0  0  0  0  0  0  0  0  0
   22.3527   70.8822    1.0342 C   0  0  0  0  0  0  0  0  0  0  0  0
   23.3201   73.1023    0.8272 C   0  0  0  0  0  0  0  0  0  0  0  0
   24.5341   72.7080    1.2163 C   0  0  0  0  0  0  0  0  0  0  0  0
   24.7546   71.2883    1.5614 C   0  0  0  0  0  0  0  0  0  0  0  0
   23.7475   69.5322    1.6655 H   0  0  0  0  0  0  0  0  0  0  0  0
   21.7589   72.7628   -4.8328 O   0  0  0  0  0  0  0  0  0  0  0  0
   21.0352   73.3897   -6.1355 P   0  0  2  0  0  0  0  0  0  0  0  0
   22.0627   73.0364   -7.3353 O   0  0  0  0  0  0  0  0  0  0  0  0
   20.7048   74.8491   -6.0138 O   0  0  0  0  0  0  0  0  0  0  0  0
   19.7616   72.4343   -6.3956 O   0  0  0  0  0  0  0  0  0  0  0  0
   19.3005   70.2235   -5.6823 O   0  0  0  0  0  0  0  0  0  0  0  0
   17.5074   70.2974   -9.4035 O   0  0  0  0  0  0  0  0  0  0  0  0
   20.1279   71.5231   -8.9978 O   0  0  0  0  0  0  0  0  0  0  0  0
   15.8826   70.4476   -6.9975 O   0  0  0  0  0  0  0  0  0  0  0  0
   17.9551   70.8409   -8.1616 C   0  0  2  0  0  0  0  0  0  0  0  0
   19.4722   70.6859   -8.0525 C   0  0  2  0  0  0  0  0  0  0  0  0
   17.2594   70.0768   -7.0328 C   0  0  1  0  0  0  0  0  0  0  0  0
   19.9590   71.0443   -6.6477 C   0  0  1  0  0  0  0  0  0  0  0  0
   17.8849   70.3939   -5.6775 C   0  0  1  0  0  0  0  0  0  0  0  0
   17.9363   70.7675  -10.1358 H   0  0  0  0  0  0  0  0  0  0  0  0
   19.8235   71.3014   -9.8914 H   0  0  0  0  0  0  0  0  0  0  0  0
   15.4727   70.2510   -7.8544 H   0  0  0  0  0  0  0  0  0  0  0  0
   18.4458   69.1153   -3.7928 O   0  0  0  0  0  0  0  0  0  0  0  0
   16.3067   68.9477   -4.5643 O   0  0  0  0  0  0  0  0  0  0  0  0
   17.4327   69.4156   -4.6427 C   0  0  0  0  0  0  0  0  0  0  0  0
  1  4  1  0
  1 24  1  0
  1  2  1  1
  1  3  2  0
 25 28  1  0
 25 24  1  0
 25 26  1  6
 25 27  2  0
  6 11  1  0
  6 12  1  0
 29 36  1  0
 29 37  1  0
  9  7  1  1
  7 13  1  0
 10  8  1  1
  8 14  1  0
  4  5  1  0
 36 28  1  1
 33 30  1  6
 30 38  1  0
 34 31  1  6
 31 39  1  0
 35 32  1  1
 32 40  1  0
 41 43  1  0
 15 19  2  0
 42 43  2  0
 16 22  2  0
 12 17  1  6
 17 19  1  0
 17 20  1  0
 18 19  1  0
 18 22  1  0
 18 23  1  0
  9 10  1  0
  9 11  1  0
 10 12  1  0
 11  5  1  1
 33 34  1  0
 33 35  1  0
 34 36  1  0
 35 37  1  0
 37 43  1  1
 20 21  2  0
 21 22  1  0
M  CHG  3   2  -1  26  -1  41  -1
M  END
>  <COMPND>  (433) 
    udp_gluA.pdb 

>  <AUTHOR>  (433) 
    GENERATED BY OPEN BABEL 3.1.1

>  <MASTER>  (433) 
        0    0    0    0    0    0    0    0   56    0   56    0

>  <minimizedAffinity>  (433) 
-7.76086

>  <CNNscore>  (433) 
0.6477251053

>  <CNNaffinity>  (433) 
4.5681161880

>  <CNN_VS>  (433) 
2.9588835239

>  <CNNaffinity_variance>  (433) 
0.0648009554

$$$$
434
     RDKit          3D

 43 45  0  0  0  0  0  0  0  0999 V2000
   21.8414   72.5005   -5.6447 P   0  0  2  0  0  0  0  0  0  0  0  0
   21.1614   73.9403   -5.3561 O   0  0  0  0  0  0  0  0  0  0  0  0
   23.1058   72.5473   -6.4515 O   0  0  0  0  0  0  0  0  0  0  0  0
   20.6379   71.6217   -6.2750 O   0  0  0  0  0  0  0  0  0  0  0  0
   20.1279   71.9859   -7.5446 C   0  0  0  0  0  0  0  0  0  0  0  0
   18.9131   69.9530   -7.1333 O   0  0  0  0  0  0  0  0  0  0  0  0
   18.1428   70.0465  -10.0297 O   0  0  0  0  0  0  0  0  0  0  0  0
   15.9072   70.9929   -8.7878 O   0  0  0  0  0  0  0  0  0  0  0  0
   18.3145   71.1209   -9.1052 C   0  0  1  0  0  0  0  0  0  0  0  0
   17.1492   71.1731   -8.1401 C   0  0  2  0  0  0  0  0  0  0  0  0
   19.4749   70.7678   -8.1849 C   0  0  1  0  0  0  0  0  0  0  0  0
   17.4801   70.0395   -7.1844 C   0  0  2  0  0  0  0  0  0  0  0  0
   17.4065   70.2493  -10.6285 H   0  0  0  0  0  0  0  0  0  0  0  0
   15.7424   71.7404   -9.3846 H   0  0  0  0  0  0  0  0  0  0  0  0
   16.2861   68.0650   -5.5559 O   0  0  0  0  0  0  0  0  0  0  0  0
   15.5936   71.0577   -2.1197 O   0  0  0  0  0  0  0  0  0  0  0  0
   16.9791   70.2754   -5.8600 N   0  0  0  0  0  0  0  0  0  0  0  0
   15.9414   69.5577   -3.8464 N   0  0  0  0  0  0  0  0  0  0  0  0
   16.3972   69.2147   -5.1261 C   0  0  0  0  0  0  0  0  0  0  0  0
   17.0680   71.5443   -5.3005 C   0  0  0  0  0  0  0  0  0  0  0  0
   16.6292   71.8559   -4.0794 C   0  0  0  0  0  0  0  0  0  0  0  0
   16.0072   70.8052   -3.2472 C   0  0  0  0  0  0  0  0  0  0  0  0
   15.5305   68.8362   -3.3172 H   0  0  0  0  0  0  0  0  0  0  0  0
   22.0105   71.8756   -4.1636 O   0  0  0  0  0  0  0  0  0  0  0  0
   23.2111   72.0033   -3.0884 P   0  0  2  0  0  0  0  0  0  0  0  0
   23.8518   73.4525   -3.4198 O   0  0  0  0  0  0  0  0  0  0  0  0
   24.1943   70.8693   -3.1257 O   0  0  0  0  0  0  0  0  0  0  0  0
   22.4702   72.2006   -1.6691 O   0  0  0  0  0  0  0  0  0  0  0  0
   23.2081   70.5964   -0.0907 O   0  0  0  0  0  0  0  0  0  0  0  0
   20.2209   72.5294    2.0089 O   0  0  0  0  0  0  0  0  0  0  0  0
   19.8490   71.8491   -0.8077 O   0  0  0  0  0  0  0  0  0  0  0  0
   23.0128   73.0739    2.6087 O   0  0  0  0  0  0  0  0  0  0  0  0
   21.2850   72.4148    1.0642 C   0  0  2  0  0  0  0  0  0  0  0  0
   20.9182   71.3765    0.0036 C   0  0  2  0  0  0  0  0  0  0  0  0
   22.5435   71.9822    1.8197 C   0  0  1  0  0  0  0  0  0  0  0  0
   22.1184   71.0591   -0.8894 C   0  0  1  0  0  0  0  0  0  0  0  0
   23.6527   71.5619    0.8597 C   0  0  1  0  0  0  0  0  0  0  0  0
   19.4103   72.8034    1.5515 H   0  0  0  0  0  0  0  0  0  0  0  0
   19.0841   72.0528   -0.2475 H   0  0  0  0  0  0  0  0  0  0  0  0
   22.3160   73.3511    3.2239 H   0  0  0  0  0  0  0  0  0  0  0  0
   24.3659   70.5751    2.8645 O   0  0  0  0  0  0  0  0  0  0  0  0
   25.8175   70.5255    1.1068 O   0  0  0  0  0  0  0  0  0  0  0  0
   24.7393   70.8400    1.5880 C   0  0  0  0  0  0  0  0  0  0  0  0
  1  4  1  0
  1 24  1  0
  1  2  1  1
  1  3  2  0
 25 28  1  0
 25 24  1  0
 25 26  1  6
 25 27  2  0
  6 11  1  0
  6 12  1  0
 29 36  1  0
 29 37  1  0
  9  7  1  6
  7 13  1  0
 10  8  1  6
  8 14  1  0
  4  5  1  0
 36 28  1  1
 33 30  1  1
 30 38  1  0
 34 31  1  6
 31 39  1  0
 35 32  1  6
 32 40  1  0
 41 43  1  0
 15 19  2  0
 42 43  2  0
 16 22  2  0
 12 17  1  1
 17 19  1  0
 17 20  1  0
 18 19  1  0
 18 22  1  0
 18 23  1  0
  9 10  1  0
  9 11  1  0
 10 12  1  0
 11  5  1  1
 33 34  1  0
 33 35  1  0
 34 36  1  0
 35 37  1  0
 37 43  1  1
 20 21  2  0
 21 22  1  0
M  CHG  3   2  -1  26  -1  41  -1
M  END
>  <COMPND>  (434) 
    udp_gluA.pdb 

>  <AUTHOR>  (434) 
    GENERATED BY OPEN BABEL 3.1.1

>  <MASTER>  (434) 
        0    0    0    0    0    0    0    0   56    0   56    0

>  <minimizedAffinity>  (434) 
-8.49120

>  <CNNscore>  (434) 
0.6420757174

>  <CNNaffinity>  (434) 
4.4232454300

>  <CNN_VS>  (434) 
2.8400585651

>  <CNNaffinity_variance>  (434) 
0.2533274591

$$$$
435
     RDKit          3D

 43 45  0  0  0  0  0  0  0  0999 V2000
   20.1840   72.2223   -0.9740 P   0  0  2  0  0  0  0  0  0  0  0  0
   20.0210   70.6192   -1.1239 O   0  0  0  0  0  0  0  0  0  0  0  0
   18.9256   72.9562   -0.6141 O   0  0  0  0  0  0  0  0  0  0  0  0
   20.8882   72.6725   -2.3594 O   0  0  0  0  0  0  0  0  0  0  0  0
   20.2624   72.3235   -3.5805 C   0  0  0  0  0  0  0  0  0  0  0  0
   20.6912   70.8393   -5.4220 O   0  0  0  0  0  0  0  0  0  0  0  0
   23.1728   72.4524   -5.9023 O   0  0  0  0  0  0  0  0  0  0  0  0
   21.4585   73.4204   -7.7891 O   0  0  0  0  0  0  0  0  0  0  0  0
   21.8869   72.8838   -5.4565 C   0  0  1  0  0  0  0  0  0  0  0  0
   20.9041   72.8791   -6.6083 C   0  0  2  0  0  0  0  0  0  0  0  0
   21.3177   71.8028   -4.5477 C   0  0  1  0  0  0  0  0  0  0  0  0
   20.5788   71.4010   -6.7393 C   0  0  2  0  0  0  0  0  0  0  0  0
   23.5566   73.1270   -6.4848 H   0  0  0  0  0  0  0  0  0  0  0  0
   21.6477   74.3628   -7.6549 H   0  0  0  0  0  0  0  0  0  0  0  0
   19.9315   69.5867   -8.8047 O   0  0  0  0  0  0  0  0  0  0  0  0
   15.4452   70.6119   -8.5478 O   0  0  0  0  0  0  0  0  0  0  0  0
   19.2496   71.1740   -7.2318 N   0  0  0  0  0  0  0  0  0  0  0  0
   17.6978   70.0998   -8.6755 N   0  0  0  0  0  0  0  0  0  0  0  0
   19.0324   70.2407   -8.2729 C   0  0  0  0  0  0  0  0  0  0  0  0
   18.1787   71.8700   -6.6841 C   0  0  0  0  0  0  0  0  0  0  0  0
   16.9121   71.7249   -7.0783 C   0  0  0  0  0  0  0  0  0  0  0  0
   16.5994   70.7700   -8.1617 C   0  0  0  0  0  0  0  0  0  0  0  0
   17.5220   69.4571   -9.4003 H   0  0  0  0  0  0  0  0  0  0  0  0
   21.3793   72.3661    0.1047 O   0  0  0  0  0  0  0  0  0  0  0  0
   21.5724   71.7089    1.5691 P   0  0  2  0  0  0  0  0  0  0  0  0
   21.6772   70.1248    1.2526 O   0  0  0  0  0  0  0  0  0  0  0  0
   20.4993   72.0731    2.5538 O   0  0  0  0  0  0  0  0  0  0  0  0
   23.0631   72.1344    2.0154 O   0  0  0  0  0  0  0  0  0  0  0  0
   24.5724   73.5919    0.9169 O   0  0  0  0  0  0  0  0  0  0  0  0
   27.1534   70.9781    2.8076 O   0  0  0  0  0  0  0  0  0  0  0  0
   24.7458   69.9844    1.4844 O   0  0  0  0  0  0  0  0  0  0  0  0
   26.7527   73.6553    3.8673 O   0  0  0  0  0  0  0  0  0  0  0  0
   25.9557   71.7378    2.6453 C   0  0  2  0  0  0  0  0  0  0  0  0
   25.2483   71.3097    1.3593 C   0  0  2  0  0  0  0  0  0  0  0  0
   26.3402   73.2173    2.5740 C   0  0  1  0  0  0  0  0  0  0  0  0
   24.0897   72.2528    1.0322 C   0  0  1  0  0  0  0  0  0  0  0  0
   25.1643   74.0773    2.1199 C   0  0  1  0  0  0  0  0  0  0  0  0
   26.9338   70.0342    2.8553 H   0  0  0  0  0  0  0  0  0  0  0  0
   25.4756   69.3806    1.6923 H   0  0  0  0  0  0  0  0  0  0  0  0
   27.5006   73.1158    4.1681 H   0  0  0  0  0  0  0  0  0  0  0  0
   25.3479   75.6989    0.4353 O   0  0  0  0  0  0  0  0  0  0  0  0
   26.1732   76.2373    2.4915 O   0  0  0  0  0  0  0  0  0  0  0  0
   25.6246   75.4466    1.7386 C   0  0  0  0  0  0  0  0  0  0  0  0
  1  4  1  0
  1 24  1  0
  1  2  1  6
  1  3  2  0
 25 28  1  0
 25 24  1  0
 25 26  1  6
 25 27  2  0
  6 11  1  0
  6 12  1  0
 29 36  1  0
 29 37  1  0
  9  7  1  6
  7 13  1  0
 10  8  1  6
  8 14  1  0
  4  5  1  0
 36 28  1  1
 33 30  1  6
 30 38  1  0
 34 31  1  1
 31 39  1  0
 35 32  1  1
 32 40  1  0
 41 43  1  0
 15 19  2  0
 42 43  2  0
 16 22  2  0
 12 17  1  1
 17 19  1  0
 17 20  1  0
 18 19  1  0
 18 22  1  0
 18 23  1  0
  9 10  1  0
  9 11  1  0
 10 12  1  0
 11  5  1  1
 33 34  1  0
 33 35  1  0
 34 36  1  0
 35 37  1  0
 37 43  1  6
 20 21  2  0
 21 22  1  0
M  CHG  3   2  -1  26  -1  41  -1
M  END
>  <COMPND>  (435) 
    udp_gluA.pdb 

>  <AUTHOR>  (435) 
    GENERATED BY OPEN BABEL 3.1.1

>  <MASTER>  (435) 
        0    0    0    0    0    0    0    0   56    0   56    0

>  <minimizedAffinity>  (435) 
-7.68250

>  <CNNscore>  (435) 
0.6308481097

>  <CNNaffinity>  (435) 
4.4298715591

>  <CNN_VS>  (435) 
2.7945761681

>  <CNNaffinity_variance>  (435) 
0.1521789134

$$$$
436
     RDKit          3D

 43 45  0  0  0  0  0  0  0  0999 V2000
   20.3042   73.6784   -2.7583 P   0  0  2  0  0  0  0  0  0  0  0  0
   19.6153   75.0456   -3.2827 O   0  0  0  0  0  0  0  0  0  0  0  0
   19.3778   72.5027   -2.6515 O   0  0  0  0  0  0  0  0  0  0  0  0
   21.0437   74.1169   -1.3876 O   0  0  0  0  0  0  0  0  0  0  0  0
   22.3454   73.6215   -1.1332 C   0  0  0  0  0  0  0  0  0  0  0  0
   23.5023   71.8418   -0.0055 O   0  0  0  0  0  0  0  0  0  0  0  0
   20.7957   70.6570    0.5065 O   0  0  0  0  0  0  0  0  0  0  0  0
   21.3950   71.8282    2.8951 O   0  0  0  0  0  0  0  0  0  0  0  0
   21.1915   72.0286    0.4804 C   0  0  1  0  0  0  0  0  0  0  0  0
   21.9771   72.3713    1.7285 C   0  0  2  0  0  0  0  0  0  0  0  0
   22.2398   72.1943   -0.6114 C   0  0  1  0  0  0  0  0  0  0  0  0
   23.3377   71.7703    1.4197 C   0  0  2  0  0  0  0  0  0  0  0  0
   20.1261   70.5264    1.1966 H   0  0  0  0  0  0  0  0  0  0  0  0
   20.5311   72.2430    3.0485 H   0  0  0  0  0  0  0  0  0  0  0  0
   25.8197   70.6270    2.1332 O   0  0  0  0  0  0  0  0  0  0  0  0
   27.3764   74.6181    3.8335 O   0  0  0  0  0  0  0  0  0  0  0  0
   24.4095   72.4879    2.0500 N   0  0  0  0  0  0  0  0  0  0  0  0
   26.5923   72.6156    2.9803 N   0  0  0  0  0  0  0  0  0  0  0  0
   25.6158   71.8197    2.3671 C   0  0  0  0  0  0  0  0  0  0  0  0
   24.2609   73.8374    2.3460 C   0  0  0  0  0  0  0  0  0  0  0  0
   25.2008   74.5829    2.9306 C   0  0  0  0  0  0  0  0  0  0  0  0
   26.4906   73.9610    3.2952 C   0  0  0  0  0  0  0  0  0  0  0  0
   27.4400   72.1720    3.2123 H   0  0  0  0  0  0  0  0  0  0  0  0
   21.5350   73.4747   -3.7861 O   0  0  0  0  0  0  0  0  0  0  0  0
   21.8582   72.2857   -4.8327 P   0  0  2  0  0  0  0  0  0  0  0  0
   21.9999   70.9838   -3.8812 O   0  0  0  0  0  0  0  0  0  0  0  0
   23.0495   72.5437   -5.7092 O   0  0  0  0  0  0  0  0  0  0  0  0
   20.4758   72.0572   -5.6322 O   0  0  0  0  0  0  0  0  0  0  0  0
   19.4204   69.9388   -5.5436 O   0  0  0  0  0  0  0  0  0  0  0  0
   17.5514   71.6739   -8.7939 O   0  0  0  0  0  0  0  0  0  0  0  0
   20.4328   71.9674   -8.4118 O   0  0  0  0  0  0  0  0  0  0  0  0
   16.1600   71.4665   -6.2498 O   0  0  0  0  0  0  0  0  0  0  0  0
   18.1982   71.6514   -7.5214 C   0  0  2  0  0  0  0  0  0  0  0  0
   19.6062   71.0753   -7.6731 C   0  0  2  0  0  0  0  0  0  0  0  0
   17.3638   70.7774   -6.5823 C   0  0  1  0  0  0  0  0  0  0  0  0
   20.2438   70.8217   -6.3064 C   0  0  1  0  0  0  0  0  0  0  0  0
   18.1192   70.4657   -5.2935 C   0  0  1  0  0  0  0  0  0  0  0  0
   18.0638   72.2236   -9.4075 H   0  0  0  0  0  0  0  0  0  0  0  0
   20.0340   72.1329   -9.2801 H   0  0  0  0  0  0  0  0  0  0  0  0
   15.6698   71.6710   -7.0615 H   0  0  0  0  0  0  0  0  0  0  0  0
   18.2375   68.9303   -3.5243 O   0  0  0  0  0  0  0  0  0  0  0  0
   16.3445   68.9089   -4.7951 O   0  0  0  0  0  0  0  0  0  0  0  0
   17.4499   69.3628   -4.5399 C   0  0  0  0  0  0  0  0  0  0  0  0
  1  4  1  0
  1 24  1  0
  1  2  1  6
  1  3  2  0
 25 28  1  0
 25 24  1  0
 25 26  1  1
 25 27  2  0
  6 11  1  0
  6 12  1  0
 29 36  1  0
 29 37  1  0
  9  7  1  1
  7 13  1  0
 10  8  1  1
  8 14  1  0
  4  5  1  0
 36 28  1  1
 33 30  1  6
 30 38  1  0
 34 31  1  6
 31 39  1  0
 35 32  1  1
 32 40  1  0
 41 43  1  0
 15 19  2  0
 42 43  2  0
 16 22  2  0
 12 17  1  1
 17 19  1  0
 17 20  1  0
 18 19  1  0
 18 22  1  0
 18 23  1  0
  9 10  1  0
  9 11  1  0
 10 12  1  0
 11  5  1  1
 33 34  1  0
 33 35  1  0
 34 36  1  0
 35 37  1  0
 37 43  1  6
 20 21  2  0
 21 22  1  0
M  CHG  3   2  -1  26  -1  41  -1
M  END
>  <COMPND>  (436) 
    udp_gluA.pdb 

>  <AUTHOR>  (436) 
    GENERATED BY OPEN BABEL 3.1.1

>  <MASTER>  (436) 
        0    0    0    0    0    0    0    0   56    0   56    0

>  <minimizedAffinity>  (436) 
-6.93244

>  <CNNscore>  (436) 
0.5987878442

>  <CNNaffinity>  (436) 
4.3776631355

>  <CNN_VS>  (436) 
2.6212913990

>  <CNNaffinity_variance>  (436) 
0.2516216040

$$$$
437
     RDKit          3D

 43 45  0  0  0  0  0  0  0  0999 V2000
   22.9947   73.3252   -4.6024 P   0  0  2  0  0  0  0  0  0  0  0  0
   24.2057   72.3250   -4.2127 O   0  0  0  0  0  0  0  0  0  0  0  0
   23.4229   74.6703   -5.1114 O   0  0  0  0  0  0  0  0  0  0  0  0
   22.0613   73.3386   -3.2809 O   0  0  0  0  0  0  0  0  0  0  0  0
   22.6781   73.1848   -2.0158 C   0  0  0  0  0  0  0  0  0  0  0  0
   23.4438   71.3330   -0.6883 O   0  0  0  0  0  0  0  0  0  0  0  0
   20.5581   70.5549   -0.4450 O   0  0  0  0  0  0  0  0  0  0  0  0
   21.0515   71.7695    1.9461 O   0  0  0  0  0  0  0  0  0  0  0  0
   21.1429   71.8569   -0.4821 C   0  0  1  0  0  0  0  0  0  0  0  0
   21.8278   72.1615    0.8334 C   0  0  2  0  0  0  0  0  0  0  0  0
   22.3170   71.8171   -1.4508 C   0  0  1  0  0  0  0  0  0  0  0  0
   23.1162   71.3661    0.7098 C   0  0  2  0  0  0  0  0  0  0  0  0
   19.8055   70.5555    0.1676 H   0  0  0  0  0  0  0  0  0  0  0  0
   20.2428   72.3051    1.9809 H   0  0  0  0  0  0  0  0  0  0  0  0
   25.0005   69.9290    2.2463 O   0  0  0  0  0  0  0  0  0  0  0  0
   27.2431   73.7779    3.4300 O   0  0  0  0  0  0  0  0  0  0  0  0
   24.2027   71.9676    1.4299 N   0  0  0  0  0  0  0  0  0  0  0  0
   26.1150   71.8475    2.8352 N   0  0  0  0  0  0  0  0  0  0  0  0
   25.0932   71.1557    2.1716 C   0  0  0  0  0  0  0  0  0  0  0  0
   24.3789   73.3455    1.3957 C   0  0  0  0  0  0  0  0  0  0  0  0
   25.3578   73.9905    2.0334 C   0  0  0  0  0  0  0  0  0  0  0  0
   26.3306   73.2161    2.8317 C   0  0  0  0  0  0  0  0  0  0  0  0
   26.7462   71.3037    3.3599 H   0  0  0  0  0  0  0  0  0  0  0  0
   22.1272   72.4533   -5.6512 O   0  0  0  0  0  0  0  0  0  0  0  0
   20.9279   72.8785   -6.6485 P   0  0  2  0  0  0  0  0  0  0  0  0
   21.2128   71.9883   -7.9702 O   0  0  0  0  0  0  0  0  0  0  0  0
   20.8348   74.3547   -6.9055 O   0  0  0  0  0  0  0  0  0  0  0  0
   19.6035   72.2276   -5.9969 O   0  0  0  0  0  0  0  0  0  0  0  0
   19.0559   70.1313   -5.0402 O   0  0  0  0  0  0  0  0  0  0  0  0
   15.6664   70.9565   -7.2533 O   0  0  0  0  0  0  0  0  0  0  0  0
   18.3194   71.4931   -8.3523 O   0  0  0  0  0  0  0  0  0  0  0  0
   15.6332   71.2665   -4.3630 O   0  0  0  0  0  0  0  0  0  0  0  0
   16.8142   71.2664   -6.4631 C   0  0  2  0  0  0  0  0  0  0  0  0
   18.0719   70.7514   -7.1635 C   0  0  2  0  0  0  0  0  0  0  0  0
   16.6479   70.5884   -5.1013 C   0  0  1  0  0  0  0  0  0  0  0  0
   19.2913   70.8583   -6.2467 C   0  0  1  0  0  0  0  0  0  0  0  0
   17.9444   70.6273   -4.2975 C   0  0  1  0  0  0  0  0  0  0  0  0
   15.7497   71.3769   -8.1237 H   0  0  0  0  0  0  0  0  0  0  0  0
   17.5496   71.4299   -8.9385 H   0  0  0  0  0  0  0  0  0  0  0  0
   14.8027   71.2491   -4.8638 H   0  0  0  0  0  0  0  0  0  0  0  0
   16.8676   68.8003   -3.2955 O   0  0  0  0  0  0  0  0  0  0  0  0
   18.6209   69.7217   -2.1659 O   0  0  0  0  0  0  0  0  0  0  0  0
   17.8751   69.6934   -3.1334 C   0  0  0  0  0  0  0  0  0  0  0  0
  1  4  1  0
  1 24  1  0
  1  2  1  1
  1  3  2  0
 25 28  1  0
 25 24  1  0
 25 26  1  6
 25 27  2  0
  6 11  1  0
  6 12  1  0
 29 36  1  0
 29 37  1  0
  9  7  1  1
  7 13  1  0
 10  8  1  1
  8 14  1  0
  4  5  1  0
 36 28  1  1
 33 30  1  6
 30 38  1  0
 34 31  1  6
 31 39  1  0
 35 32  1  1
 32 40  1  0
 41 43  1  0
 15 19  2  0
 42 43  2  0
 16 22  2  0
 12 17  1  1
 17 19  1  0
 17 20  1  0
 18 19  1  0
 18 22  1  0
 18 23  1  0
  9 10  1  0
  9 11  1  0
 10 12  1  0
 11  5  1  1
 33 34  1  0
 33 35  1  0
 34 36  1  0
 35 37  1  0
 37 43  1  1
 20 21  2  0
 21 22  1  0
M  CHG  3   2  -1  26  -1  41  -1
M  END
>  <COMPND>  (437) 
    udp_gluA.pdb 

>  <AUTHOR>  (437) 
    GENERATED BY OPEN BABEL 3.1.1

>  <MASTER>  (437) 
        0    0    0    0    0    0    0    0   56    0   56    0

>  <minimizedAffinity>  (437) 
-7.86931

>  <CNNscore>  (437) 
0.5806974769

>  <CNNaffinity>  (437) 
4.4714503288

>  <CNN_VS>  (437) 
2.5965600014

>  <CNNaffinity_variance>  (437) 
0.0539625585

$$$$
438
     RDKit          3D

 43 45  0  0  0  0  0  0  0  0999 V2000
   23.3496   74.5758   -1.3344 P   0  0  2  0  0  0  0  0  0  0  0  0
   24.8439   75.0966   -1.6732 O   0  0  0  0  0  0  0  0  0  0  0  0
   22.2424   75.4339   -1.8726 O   0  0  0  0  0  0  0  0  0  0  0  0
   23.3638   74.3720    0.2706 O   0  0  0  0  0  0  0  0  0  0  0  0
   22.1661   74.5968    0.9913 C   0  0  0  0  0  0  0  0  0  0  0  0
   22.6990   72.2922    1.4188 O   0  0  0  0  0  0  0  0  0  0  0  0
   20.2584   72.2442    3.1603 O   0  0  0  0  0  0  0  0  0  0  0  0
   22.2803   72.4830    4.9745 O   0  0  0  0  0  0  0  0  0  0  0  0
   21.2005   73.2970    2.9537 C   0  0  1  0  0  0  0  0  0  0  0  0
   22.4962   72.9898    3.6740 C   0  0  2  0  0  0  0  0  0  0  0  0
   21.6315   73.2618    1.4938 C   0  0  1  0  0  0  0  0  0  0  0  0
   23.1377   71.9703    2.7482 C   0  0  2  0  0  0  0  0  0  0  0  0
   19.9684   72.2466    4.0864 H   0  0  0  0  0  0  0  0  0  0  0  0
   21.8708   73.1694    5.5250 H   0  0  0  0  0  0  0  0  0  0  0  0
   24.8247   69.8008    2.0970 O   0  0  0  0  0  0  0  0  0  0  0  0
   28.6260   72.2648    2.9475 O   0  0  0  0  0  0  0  0  0  0  0  0
   24.5719   72.0174    2.7908 N   0  0  0  0  0  0  0  0  0  0  0  0
   26.7163   71.0298    2.5222 N   0  0  0  0  0  0  0  0  0  0  0  0
   25.3263   70.8716    2.4445 C   0  0  0  0  0  0  0  0  0  0  0  0
   25.2163   73.1885    3.1705 C   0  0  0  0  0  0  0  0  0  0  0  0
   26.5421   73.3241    3.2397 C   0  0  0  0  0  0  0  0  0  0  0  0
   27.4032   72.1738    2.8949 C   0  0  0  0  0  0  0  0  0  0  0  0
   27.2626   70.2450    2.2877 H   0  0  0  0  0  0  0  0  0  0  0  0
   23.3585   73.0591   -1.8934 O   0  0  0  0  0  0  0  0  0  0  0  0
   23.5835   72.4792   -3.3856 P   0  0  2  0  0  0  0  0  0  0  0  0
   23.8921   70.9108   -3.1302 O   0  0  0  0  0  0  0  0  0  0  0  0
   24.6414   73.1974   -4.1724 O   0  0  0  0  0  0  0  0  0  0  0  0
   22.1176   72.5014   -4.0587 O   0  0  0  0  0  0  0  0  0  0  0  0
   20.4719   70.8530   -3.6304 O   0  0  0  0  0  0  0  0  0  0  0  0
   19.2070   72.3821   -7.2539 O   0  0  0  0  0  0  0  0  0  0  0  0
   22.0433   71.8780   -6.7683 O   0  0  0  0  0  0  0  0  0  0  0  0
   17.8237   73.1063   -4.8018 O   0  0  0  0  0  0  0  0  0  0  0  0
   19.8196   72.4221   -5.9651 C   0  0  2  0  0  0  0  0  0  0  0  0
   20.9875   71.4364   -5.9227 C   0  0  2  0  0  0  0  0  0  0  0  0
   18.7624   72.0396   -4.9269 C   0  0  1  0  0  0  0  0  0  0  0  0
   21.5218   71.2821   -4.4981 C   0  0  1  0  0  0  0  0  0  0  0  0
   19.3912   71.7806   -3.5608 C   0  0  1  0  0  0  0  0  0  0  0  0
   19.8601   72.6217   -7.9301 H   0  0  0  0  0  0  0  0  0  0  0  0
   21.7112   71.9783   -7.6739 H   0  0  0  0  0  0  0  0  0  0  0  0
   17.4163   73.2813   -5.6645 H   0  0  0  0  0  0  0  0  0  0  0  0
   19.0058   70.0409   -2.0356 O   0  0  0  0  0  0  0  0  0  0  0  0
   17.2617   71.4413   -2.4785 O   0  0  0  0  0  0  0  0  0  0  0  0
   18.4217   71.0985   -2.6513 C   0  0  0  0  0  0  0  0  0  0  0  0
  1  4  1  0
  1 24  1  0
  1  2  1  6
  1  3  2  0
 25 28  1  0
 25 24  1  0
 25 26  1  1
 25 27  2  0
  6 11  1  0
  6 12  1  0
 29 36  1  0
 29 37  1  0
  9  7  1  6
  7 13  1  0
 10  8  1  1
  8 14  1  0
  4  5  1  0
 36 28  1  1
 33 30  1  6
 30 38  1  0
 34 31  1  6
 31 39  1  0
 35 32  1  1
 32 40  1  0
 41 43  1  0
 15 19  2  0
 42 43  2  0
 16 22  2  0
 12 17  1  6
 17 19  1  0
 17 20  1  0
 18 19  1  0
 18 22  1  0
 18 23  1  0
  9 10  1  0
  9 11  1  0
 10 12  1  0
 11  5  1  1
 33 34  1  0
 33 35  1  0
 34 36  1  0
 35 37  1  0
 37 43  1  1
 20 21  2  0
 21 22  1  0
M  CHG  3   2  -1  26  -1  41  -1
M  END
>  <COMPND>  (438) 
    udp_gluA.pdb 

>  <AUTHOR>  (438) 
    GENERATED BY OPEN BABEL 3.1.1

>  <MASTER>  (438) 
        0    0    0    0    0    0    0    0   56    0   56    0

>  <minimizedAffinity>  (438) 
-7.19852

>  <CNNscore>  (438) 
0.5363777280

>  <CNNaffinity>  (438) 
4.1119637489

>  <CNN_VS>  (438) 
2.2055656910

>  <CNNaffinity_variance>  (438) 
0.3742329776

$$$$
439
     RDKit          3D

 43 45  0  0  0  0  0  0  0  0999 V2000
   21.6913   72.6099   -5.6695 P   0  0  2  0  0  0  0  0  0  0  0  0
   21.1425   74.1214   -5.8509 O   0  0  0  0  0  0  0  0  0  0  0  0
   23.0479   72.3535   -6.2576 O   0  0  0  0  0  0  0  0  0  0  0  0
   20.4912   71.6891   -6.2438 O   0  0  0  0  0  0  0  0  0  0  0  0
   19.9868   71.9654   -7.5375 C   0  0  0  0  0  0  0  0  0  0  0  0
   18.6889   70.0173   -6.9916 O   0  0  0  0  0  0  0  0  0  0  0  0
   18.0455   69.8552   -9.9159 O   0  0  0  0  0  0  0  0  0  0  0  0
   15.7919   70.9805   -8.8714 O   0  0  0  0  0  0  0  0  0  0  0  0
   18.2134   71.0078   -9.0901 C   0  0  1  0  0  0  0  0  0  0  0  0
   17.0106   71.1859   -8.1880 C   0  0  2  0  0  0  0  0  0  0  0  0
   19.3215   70.7110   -8.0889 C   0  0  1  0  0  0  0  0  0  0  0  0
   17.2631   70.1399   -7.1156 C   0  0  2  0  0  0  0  0  0  0  0  0
   17.3425   70.0209  -10.5639 H   0  0  0  0  0  0  0  0  0  0  0  0
   15.6774   71.6718   -9.5430 H   0  0  0  0  0  0  0  0  0  0  0  0
   16.6081   68.3175   -5.0598 O   0  0  0  0  0  0  0  0  0  0  0  0
   15.1640   71.6951   -2.2759 O   0  0  0  0  0  0  0  0  0  0  0  0
   16.7145   70.5159   -5.8434 N   0  0  0  0  0  0  0  0  0  0  0  0
   15.8885   70.0014   -3.6756 N   0  0  0  0  0  0  0  0  0  0  0  0
   16.4206   69.5222   -4.8799 C   0  0  0  0  0  0  0  0  0  0  0  0
   16.4747   71.8550   -5.5599 C   0  0  0  0  0  0  0  0  0  0  0  0
   15.9673   72.2964   -4.4074 C   0  0  0  0  0  0  0  0  0  0  0  0
   15.6318   71.3228   -3.3477 C   0  0  0  0  0  0  0  0  0  0  0  0
   15.6740   69.3280   -2.9901 H   0  0  0  0  0  0  0  0  0  0  0  0
   21.5949   72.3781   -4.0726 O   0  0  0  0  0  0  0  0  0  0  0  0
   20.7043   71.3478   -3.2015 P   0  0  2  0  0  0  0  0  0  0  0  0
   21.3209   69.9032   -3.5931 O   0  0  0  0  0  0  0  0  0  0  0  0
   19.2249   71.4703   -3.4263 O   0  0  0  0  0  0  0  0  0  0  0  0
   21.1720   71.5903   -1.6768 O   0  0  0  0  0  0  0  0  0  0  0  0
   21.7713   73.4198   -0.2972 O   0  0  0  0  0  0  0  0  0  0  0  0
   24.7477   70.6931    0.5826 O   0  0  0  0  0  0  0  0  0  0  0  0
   23.8604   71.0789   -2.1739 O   0  0  0  0  0  0  0  0  0  0  0  0
   22.5815   71.1474    2.4673 O   0  0  0  0  0  0  0  0  0  0  0  0
   23.4347   71.1155    0.2143 C   0  0  2  0  0  0  0  0  0  0  0  0
   23.5014   71.9202   -1.0840 C   0  0  2  0  0  0  0  0  0  0  0  0
   22.8806   71.9803    1.3487 C   0  0  1  0  0  0  0  0  0  0  0  0
   22.1562   72.5815   -1.3874 C   0  0  1  0  0  0  0  0  0  0  0  0
   21.6060   72.7047    0.9253 C   0  0  1  0  0  0  0  0  0  0  0  0
   25.1202   70.1418   -0.1236 H   0  0  0  0  0  0  0  0  0  0  0  0
   24.7129   70.6557   -1.9880 H   0  0  0  0  0  0  0  0  0  0  0  0
   23.3845   70.6805    2.7466 H   0  0  0  0  0  0  0  0  0  0  0  0
   21.3663   75.0042    1.3211 O   0  0  0  0  0  0  0  0  0  0  0  0
   20.9234   73.5977    3.0603 O   0  0  0  0  0  0  0  0  0  0  0  0
   21.2597   73.7826    1.9003 C   0  0  0  0  0  0  0  0  0  0  0  0
  1  4  1  0
  1 24  1  0
  1  2  1  1
  1  3  2  0
 25 28  1  0
 25 24  1  0
 25 26  1  6
 25 27  2  0
  6 11  1  0
  6 12  1  0
 29 36  1  0
 29 37  1  0
  9  7  1  6
  7 13  1  0
 10  8  1  6
  8 14  1  0
  4  5  1  0
 36 28  1  1
 33 30  1  1
 30 38  1  0
 34 31  1  6
 31 39  1  0
 35 32  1  1
 32 40  1  0
 41 43  1  0
 15 19  2  0
 42 43  2  0
 16 22  2  0
 12 17  1  1
 17 19  1  0
 17 20  1  0
 18 19  1  0
 18 22  1  0
 18 23  1  0
  9 10  1  0
  9 11  1  0
 10 12  1  0
 11  5  1  1
 33 34  1  0
 33 35  1  0
 34 36  1  0
 35 37  1  0
 37 43  1  1
 20 21  2  0
 21 22  1  0
M  CHG  3   2  -1  26  -1  41  -1
M  END
>  <COMPND>  (439) 
    udp_gluA.pdb 

>  <AUTHOR>  (439) 
    GENERATED BY OPEN BABEL 3.1.1

>  <MASTER>  (439) 
        0    0    0    0    0    0    0    0   56    0   56    0

>  <minimizedAffinity>  (439) 
-7.30175

>  <CNNscore>  (439) 
0.5305032730

>  <CNNaffinity>  (439) 
4.3940210342

>  <CNN_VS>  (439) 
2.3310425282

>  <CNNaffinity_variance>  (439) 
0.3005610704

$$$$
440
     RDKit          3D

 43 45  0  0  0  0  0  0  0  0999 V2000
   22.1273   72.6963   -6.3283 P   0  0  2  0  0  0  0  0  0  0  0  0
   20.9687   73.6196   -5.6771 O   0  0  0  0  0  0  0  0  0  0  0  0
   23.2484   73.4520   -6.9793 O   0  0  0  0  0  0  0  0  0  0  0  0
   21.3175   71.6758   -7.2878 O   0  0  0  0  0  0  0  0  0  0  0  0
   19.9748   71.9800   -7.6183 C   0  0  0  0  0  0  0  0  0  0  0  0
   18.7165   69.9965   -7.1084 O   0  0  0  0  0  0  0  0  0  0  0  0
   18.0018   69.9261  -10.0197 O   0  0  0  0  0  0  0  0  0  0  0  0
   15.7608   70.9836   -8.8815 O   0  0  0  0  0  0  0  0  0  0  0  0
   18.1755   71.0518   -9.1589 C   0  0  1  0  0  0  0  0  0  0  0  0
   16.9936   71.1822   -8.2216 C   0  0  2  0  0  0  0  0  0  0  0  0
   19.3122   70.7362   -8.1963 C   0  0  1  0  0  0  0  0  0  0  0  0
   17.2866   70.1036   -7.1927 C   0  0  2  0  0  0  0  0  0  0  0  0
   17.2806   70.1042  -10.6440 H   0  0  0  0  0  0  0  0  0  0  0  0
   15.6205   71.6959   -9.5256 H   0  0  0  0  0  0  0  0  0  0  0  0
   16.6620   68.1990   -5.2030 O   0  0  0  0  0  0  0  0  0  0  0  0
   15.2924   71.4627   -2.2507 O   0  0  0  0  0  0  0  0  0  0  0  0
   16.7653   70.4281   -5.8951 N   0  0  0  0  0  0  0  0  0  0  0  0
   15.9795   69.8262   -3.7348 N   0  0  0  0  0  0  0  0  0  0  0  0
   16.4849   69.3959   -4.9687 C   0  0  0  0  0  0  0  0  0  0  0  0
   16.5388   71.7551   -5.5506 C   0  0  0  0  0  0  0  0  0  0  0  0
   16.0567   72.1498   -4.3705 C   0  0  0  0  0  0  0  0  0  0  0  0
   15.7367   71.1338   -3.3464 C   0  0  0  0  0  0  0  0  0  0  0  0
   15.7747   69.1255   -3.0743 H   0  0  0  0  0  0  0  0  0  0  0  0
   22.5775   71.7547   -5.0940 O   0  0  0  0  0  0  0  0  0  0  0  0
   23.2791   72.1172   -3.6833 P   0  0  2  0  0  0  0  0  0  0  0  0
   23.9607   73.5575   -3.9686 O   0  0  0  0  0  0  0  0  0  0  0  0
   24.2318   71.0705   -3.1825 O   0  0  0  0  0  0  0  0  0  0  0  0
   22.0521   72.4377   -2.6863 O   0  0  0  0  0  0  0  0  0  0  0  0
   21.3756   71.0058   -0.9253 O   0  0  0  0  0  0  0  0  0  0  0  0
   17.9274   73.1733   -1.6181 O   0  0  0  0  0  0  0  0  0  0  0  0
   19.5381   72.1991   -3.8521 O   0  0  0  0  0  0  0  0  0  0  0  0
   19.5772   73.7585    0.7028 O   0  0  0  0  0  0  0  0  0  0  0  0
   19.3361   72.9509   -1.5543 C   0  0  2  0  0  0  0  0  0  0  0  0
   19.7169   71.8080   -2.4957 C   0  0  2  0  0  0  0  0  0  0  0  0
   19.6933   72.5923   -0.1101 C   0  0  1  0  0  0  0  0  0  0  0  0
   21.1725   71.3884   -2.2861 C   0  0  1  0  0  0  0  0  0  0  0  0
   21.1209   72.0640   -0.0041 C   0  0  1  0  0  0  0  0  0  0  0  0
   17.6770   73.4028   -2.5269 H   0  0  0  0  0  0  0  0  0  0  0  0
   18.6167   72.4668   -3.9922 H   0  0  0  0  0  0  0  0  0  0  0  0
   18.6730   74.1049    0.6441 H   0  0  0  0  0  0  0  0  0  0  0  0
   21.8136   70.1517    1.1643 O   0  0  0  0  0  0  0  0  0  0  0  0
   21.1509   71.9459    2.4056 O   0  0  0  0  0  0  0  0  0  0  0  0
   21.3496   71.4161    1.3227 C   0  0  0  0  0  0  0  0  0  0  0  0
  1  4  1  0
  1 24  1  0
  1  2  1  1
  1  3  2  0
 25 28  1  0
 25 24  1  0
 25 26  1  6
 25 27  2  0
  6 11  1  0
  6 12  1  0
 29 36  1  0
 29 37  1  0
  9  7  1  6
  7 13  1  0
 10  8  1  6
  8 14  1  0
  4  5  1  0
 36 28  1  1
 33 30  1  1
 30 38  1  0
 34 31  1  6
 31 39  1  0
 35 32  1  1
 32 40  1  0
 41 43  1  0
 15 19  2  0
 42 43  2  0
 16 22  2  0
 12 17  1  1
 17 19  1  0
 17 20  1  0
 18 19  1  0
 18 22  1  0
 18 23  1  0
  9 10  1  0
  9 11  1  0
 10 12  1  0
 11  5  1  1
 33 34  1  0
 33 35  1  0
 34 36  1  0
 35 37  1  0
 37 43  1  1
 20 21  2  0
 21 22  1  0
M  CHG  3   2  -1  26  -1  41  -1
M  END
>  <COMPND>  (440) 
    udp_gluA.pdb 

>  <AUTHOR>  (440) 
    GENERATED BY OPEN BABEL 3.1.1

>  <MASTER>  (440) 
        0    0    0    0    0    0    0    0   56    0   56    0

>  <minimizedAffinity>  (440) 
-7.99224

>  <CNNscore>  (440) 
0.5211532712

>  <CNNaffinity>  (440) 
4.3364739418

>  <CNN_VS>  (440) 
2.2599675655

>  <CNNaffinity_variance>  (440) 
0.5144035220

$$$$
441
     RDKit          3D

 43 45  0  0  0  0  0  0  0  0999 V2000
   22.7153   71.4306   -2.5586 P   0  0  2  0  0  0  0  0  0  0  0  0
   22.2068   72.6650   -3.4733 O   0  0  0  0  0  0  0  0  0  0  0  0
   24.0579   70.8751   -2.9337 O   0  0  0  0  0  0  0  0  0  0  0  0
   21.4840   70.3819   -2.6018 O   0  0  0  0  0  0  0  0  0  0  0  0
   20.7324   70.2705   -3.7965 C   0  0  0  0  0  0  0  0  0  0  0  0
   18.9028   71.5018   -4.7525 O   0  0  0  0  0  0  0  0  0  0  0  0
   17.2131   70.3196   -2.5756 O   0  0  0  0  0  0  0  0  0  0  0  0
   16.5823   68.7689   -4.7281 O   0  0  0  0  0  0  0  0  0  0  0  0
   18.2961   69.7334   -3.2981 C   0  0  1  0  0  0  0  0  0  0  0  0
   17.8569   69.3764   -4.7024 C   0  0  2  0  0  0  0  0  0  0  0  0
   19.3321   70.8192   -3.5546 C   0  0  1  0  0  0  0  0  0  0  0  0
   17.8735   70.7301   -5.3917 C   0  0  2  0  0  0  0  0  0  0  0  0
   16.5383   69.6448   -2.3999 H   0  0  0  0  0  0  0  0  0  0  0  0
   16.6242   67.9104   -4.2774 H   0  0  0  0  0  0  0  0  0  0  0  0
   15.9439   70.2484   -7.3969 O   0  0  0  0  0  0  0  0  0  0  0  0
   19.1197   70.3577  -10.7355 O   0  0  0  0  0  0  0  0  0  0  0  0
   18.1687   70.6280   -6.7929 N   0  0  0  0  0  0  0  0  0  0  0  0
   17.5276   70.3023   -9.0577 N   0  0  0  0  0  0  0  0  0  0  0  0
   17.1261   70.3839   -7.7178 C   0  0  0  0  0  0  0  0  0  0  0  0
   19.4772   70.7707   -7.2383 C   0  0  0  0  0  0  0  0  0  0  0  0
   19.8445   70.6906   -8.5187 C   0  0  0  0  0  0  0  0  0  0  0  0
   18.8161   70.4368   -9.5489 C   0  0  0  0  0  0  0  0  0  0  0  0
   16.8196   70.1309   -9.7200 H   0  0  0  0  0  0  0  0  0  0  0  0
   22.6295   72.0301   -1.0599 O   0  0  0  0  0  0  0  0  0  0  0  0
   22.6389   71.2945    0.3797 P   0  0  2  0  0  0  0  0  0  0  0  0
   24.0706   70.5395    0.4000 O   0  0  0  0  0  0  0  0  0  0  0  0
   21.4615   70.3942    0.6189 O   0  0  0  0  0  0  0  0  0  0  0  0
   22.7947   72.4915    1.4500 O   0  0  0  0  0  0  0  0  0  0  0  0
   24.1811   72.7148    3.3571 O   0  0  0  0  0  0  0  0  0  0  0  0
   20.7715   74.7152    4.5576 O   0  0  0  0  0  0  0  0  0  0  0  0
   20.5718   72.1941    3.0952 O   0  0  0  0  0  0  0  0  0  0  0  0
   23.1413   76.2081    3.7787 O   0  0  0  0  0  0  0  0  0  0  0  0
   21.7489   74.2476    3.6281 C   0  0  2  0  0  0  0  0  0  0  0  0
   21.7768   72.7190    3.6404 C   0  0  2  0  0  0  0  0  0  0  0  0
   23.1090   74.8081    4.0498 C   0  0  1  0  0  0  0  0  0  0  0  0
   22.9619   72.1868    2.8334 C   0  0  1  0  0  0  0  0  0  0  0  0
   24.2485   74.1374    3.2881 C   0  0  1  0  0  0  0  0  0  0  0  0
   19.8988   74.3715    4.3097 H   0  0  0  0  0  0  0  0  0  0  0  0
   19.8156   72.5279    3.6023 H   0  0  0  0  0  0  0  0  0  0  0  0
   22.4208   76.6469    4.2575 H   0  0  0  0  0  0  0  0  0  0  0  0
   26.5865   74.0275    3.1368 O   0  0  0  0  0  0  0  0  0  0  0  0
   25.7095   74.9914    5.0078 O   0  0  0  0  0  0  0  0  0  0  0  0
   25.5647   74.4422    3.9260 C   0  0  0  0  0  0  0  0  0  0  0  0
  1  4  1  0
  1 24  1  0
  1  2  1  6
  1  3  2  0
 25 28  1  0
 25 24  1  0
 25 26  1  6
 25 27  2  0
  6 11  1  0
  6 12  1  0
 29 36  1  0
 29 37  1  0
  9  7  1  1
  7 13  1  0
 10  8  1  1
  8 14  1  0
  4  5  1  0
 36 28  1  6
 33 30  1  1
 30 38  1  0
 34 31  1  6
 31 39  1  0
 35 32  1  6
 32 40  1  0
 41 43  1  0
 15 19  2  0
 42 43  2  0
 16 22  2  0
 12 17  1  6
 17 19  1  0
 17 20  1  0
 18 19  1  0
 18 22  1  0
 18 23  1  0
  9 10  1  0
  9 11  1  0
 10 12  1  0
 11  5  1  6
 33 34  1  0
 33 35  1  0
 34 36  1  0
 35 37  1  0
 37 43  1  1
 20 21  2  0
 21 22  1  0
M  CHG  3   2  -1  26  -1  41  -1
M  END
>  <COMPND>  (441) 
    udp_gluA.pdb 

>  <AUTHOR>  (441) 
    GENERATED BY OPEN BABEL 3.1.1

>  <MASTER>  (441) 
        0    0    0    0    0    0    0    0   56    0   56    0

>  <minimizedAffinity>  (441) 
-7.85748

>  <CNNscore>  (441) 
0.9059601426

>  <CNNaffinity>  (441) 
4.6869649887

>  <CNN_VS>  (441) 
4.2462034225

>  <CNNaffinity_variance>  (441) 
0.0288861599

$$$$
442
     RDKit          3D

 43 45  0  0  0  0  0  0  0  0999 V2000
   21.8257   71.3872   -2.5205 P   0  0  2  0  0  0  0  0  0  0  0  0
   23.3882   71.3440   -2.9395 O   0  0  0  0  0  0  0  0  0  0  0  0
   21.4925   70.6749   -1.2425 O   0  0  0  0  0  0  0  0  0  0  0  0
   21.0546   70.8587   -3.8411 O   0  0  0  0  0  0  0  0  0  0  0  0
   20.0843   69.8382   -3.6945 C   0  0  0  0  0  0  0  0  0  0  0  0
   18.4616   71.2588   -4.7557 O   0  0  0  0  0  0  0  0  0  0  0  0
   16.4639   70.0854   -2.8521 O   0  0  0  0  0  0  0  0  0  0  0  0
   15.9678   68.7142   -5.1564 O   0  0  0  0  0  0  0  0  0  0  0  0
   17.5764   69.4608   -3.4929 C   0  0  1  0  0  0  0  0  0  0  0  0
   17.2711   69.2201   -4.9562 C   0  0  2  0  0  0  0  0  0  0  0  0
   18.7075   70.4773   -3.5665 C   0  0  1  0  0  0  0  0  0  0  0  0
   17.4579   70.6061   -5.5495 C   0  0  2  0  0  0  0  0  0  0  0  0
   15.7284   69.4551   -2.7935 H   0  0  0  0  0  0  0  0  0  0  0  0
   15.8998   67.8304   -4.7611 H   0  0  0  0  0  0  0  0  0  0  0  0
   15.7370   70.3252   -7.7712 O   0  0  0  0  0  0  0  0  0  0  0  0
   19.2566   70.4522  -10.7445 O   0  0  0  0  0  0  0  0  0  0  0  0
   17.8979   70.5629   -6.9153 N   0  0  0  0  0  0  0  0  0  0  0  0
   17.4917   70.3877   -9.2499 N   0  0  0  0  0  0  0  0  0  0  0  0
   16.9517   70.4189   -7.9574 C   0  0  0  0  0  0  0  0  0  0  0  0
   19.2518   70.6641   -7.2113 C   0  0  0  0  0  0  0  0  0  0  0  0
   19.7514   70.6328   -8.4483 C   0  0  0  0  0  0  0  0  0  0  0  0
   18.8303   70.4840   -9.5941 C   0  0  0  0  0  0  0  0  0  0  0  0
   16.8526   70.2861   -9.9919 H   0  0  0  0  0  0  0  0  0  0  0  0
   21.4950   72.9694   -2.5155 O   0  0  0  0  0  0  0  0  0  0  0  0
   22.4715   74.2579   -2.5090 P   0  0  2  0  0  0  0  0  0  0  0  0
   21.4559   75.4903   -2.2439 O   0  0  0  0  0  0  0  0  0  0  0  0
   23.3091   74.4020   -3.7465 O   0  0  0  0  0  0  0  0  0  0  0  0
   23.3159   74.1246   -1.1408 O   0  0  0  0  0  0  0  0  0  0  0  0
   22.3689   73.5076    0.9404 O   0  0  0  0  0  0  0  0  0  0  0  0
   25.7673   75.5329    2.1306 O   0  0  0  0  0  0  0  0  0  0  0  0
   24.1239   76.5556   -0.0576 O   0  0  0  0  0  0  0  0  0  0  0  0
   25.6800   72.6299    2.2551 O   0  0  0  0  0  0  0  0  0  0  0  0
   24.9713   74.7134    1.2746 C   0  0  2  0  0  0  0  0  0  0  0  0
   23.7422   75.4973    0.8136 C   0  0  2  0  0  0  0  0  0  0  0  0
   24.5465   73.4749    2.0667 C   0  0  1  0  0  0  0  0  0  0  0  0
   22.7531   74.5856    0.0862 C   0  0  1  0  0  0  0  0  0  0  0  0
   23.4671   72.6862    1.3308 C   0  0  1  0  0  0  0  0  0  0  0  0
   26.0489   76.3264    1.6485 H   0  0  0  0  0  0  0  0  0  0  0  0
   24.7518   77.1379    0.3975 H   0  0  0  0  0  0  0  0  0  0  0  0
   26.3745   73.1200    2.7224 H   0  0  0  0  0  0  0  0  0  0  0  0
   21.5271   71.5027    1.9116 O   0  0  0  0  0  0  0  0  0  0  0  0
   23.3996   71.1023    3.1496 O   0  0  0  0  0  0  0  0  0  0  0  0
   22.8307   71.6842    2.2382 C   0  0  0  0  0  0  0  0  0  0  0  0
  1  4  1  0
  1 24  1  0
  1  2  1  6
  1  3  2  0
 25 28  1  0
 25 24  1  0
 25 26  1  1
 25 27  2  0
  6 11  1  0
  6 12  1  0
 29 36  1  0
 29 37  1  0
  9  7  1  1
  7 13  1  0
 10  8  1  1
  8 14  1  0
  4  5  1  0
 36 28  1  6
 33 30  1  1
 30 38  1  0
 34 31  1  6
 31 39  1  0
 35 32  1  6
 32 40  1  0
 41 43  1  0
 15 19  2  0
 42 43  2  0
 16 22  2  0
 12 17  1  6
 17 19  1  0
 17 20  1  0
 18 19  1  0
 18 22  1  0
 18 23  1  0
  9 10  1  0
  9 11  1  0
 10 12  1  0
 11  5  1  6
 33 34  1  0
 33 35  1  0
 34 36  1  0
 35 37  1  0
 37 43  1  1
 20 21  2  0
 21 22  1  0
M  CHG  3   2  -1  26  -1  41  -1
M  END
>  <COMPND>  (442) 
    udp_gluA.pdb 

>  <AUTHOR>  (442) 
    GENERATED BY OPEN BABEL 3.1.1

>  <MASTER>  (442) 
        0    0    0    0    0    0    0    0   56    0   56    0

>  <minimizedAffinity>  (442) 
-7.07742

>  <CNNscore>  (442) 
0.8936129808

>  <CNNaffinity>  (442) 
4.7741975784

>  <CNN_VS>  (442) 
4.2662849426

>  <CNNaffinity_variance>  (442) 
0.1203690395

$$$$
443
     RDKit          3D

 43 45  0  0  0  0  0  0  0  0999 V2000
   21.4181   72.7023   -4.7469 P   0  0  2  0  0  0  0  0  0  0  0  0
   21.5562   74.2902   -4.4667 O   0  0  0  0  0  0  0  0  0  0  0  0
   22.1311   72.2109   -5.9724 O   0  0  0  0  0  0  0  0  0  0  0  0
   19.8222   72.4386   -4.7093 O   0  0  0  0  0  0  0  0  0  0  0  0
   19.3031   71.5731   -3.7163 C   0  0  0  0  0  0  0  0  0  0  0  0
   17.4399   71.8540   -5.2087 O   0  0  0  0  0  0  0  0  0  0  0  0
   15.8417   70.2929   -3.2087 O   0  0  0  0  0  0  0  0  0  0  0  0
   16.3916   68.4266   -5.1193 O   0  0  0  0  0  0  0  0  0  0  0  0
   17.2073   70.1360   -3.5947 C   0  0  1  0  0  0  0  0  0  0  0  0
   17.2947   69.5016   -4.9666 C   0  0  2  0  0  0  0  0  0  0  0  0
   17.7863   71.5214   -3.8468 C   0  0  1  0  0  0  0  0  0  0  0  0
   16.9686   70.6731   -5.8771 C   0  0  2  0  0  0  0  0  0  0  0  0
   15.4501   69.4207   -3.0421 H   0  0  0  0  0  0  0  0  0  0  0  0
   16.6418   67.7063   -4.5189 H   0  0  0  0  0  0  0  0  0  0  0  0
   15.6202   70.7536   -8.3574 O   0  0  0  0  0  0  0  0  0  0  0  0
   19.5501   70.2698  -10.7166 O   0  0  0  0  0  0  0  0  0  0  0  0
   17.6149   70.5704   -7.1549 N   0  0  0  0  0  0  0  0  0  0  0  0
   17.5787   70.5116   -9.5301 N   0  0  0  0  0  0  0  0  0  0  0  0
   16.8455   70.6221   -8.3412 C   0  0  0  0  0  0  0  0  0  0  0  0
   18.9948   70.4222   -7.2242 C   0  0  0  0  0  0  0  0  0  0  0  0
   19.6796   70.3182   -8.3649 C   0  0  0  0  0  0  0  0  0  0  0  0
   18.9509   70.3621   -9.6495 C   0  0  0  0  0  0  0  0  0  0  0  0
   17.0646   70.5428  -10.3691 H   0  0  0  0  0  0  0  0  0  0  0  0
   21.9280   72.0437   -3.3616 O   0  0  0  0  0  0  0  0  0  0  0  0
   23.3901   72.0206   -2.6722 P   0  0  2  0  0  0  0  0  0  0  0  0
   24.0191   73.4522   -3.0910 O   0  0  0  0  0  0  0  0  0  0  0  0
   24.2331   70.8389   -3.0555 O   0  0  0  0  0  0  0  0  0  0  0  0
   23.0991   72.1507   -1.0908 O   0  0  0  0  0  0  0  0  0  0  0  0
   24.3020   70.9670    0.5709 O   0  0  0  0  0  0  0  0  0  0  0  0
   20.7660   71.8109    2.5336 O   0  0  0  0  0  0  0  0  0  0  0  0
   20.7403   70.9374   -0.2540 O   0  0  0  0  0  0  0  0  0  0  0  0
   23.1731   73.3199    3.1499 O   0  0  0  0  0  0  0  0  0  0  0  0
   21.8314   72.0401    1.6114 C   0  0  2  0  0  0  0  0  0  0  0  0
   21.8821   70.8997    0.5944 C   0  0  2  0  0  0  0  0  0  0  0  0
   23.1382   72.1040    2.4051 C   0  0  1  0  0  0  0  0  0  0  0  0
   23.1441   70.9886   -0.2648 C   0  0  1  0  0  0  0  0  0  0  0  0
   24.3529   72.0622    1.4824 C   0  0  1  0  0  0  0  0  0  0  0  0
   19.9250   71.7665    2.0518 H   0  0  0  0  0  0  0  0  0  0  0  0
   19.9359   70.8817    0.2846 H   0  0  0  0  0  0  0  0  0  0  0  0
   22.4051   73.3590    3.7411 H   0  0  0  0  0  0  0  0  0  0  0  0
   25.9804   72.8974    2.9505 O   0  0  0  0  0  0  0  0  0  0  0  0
   26.2005   70.7299    2.2778 O   0  0  0  0  0  0  0  0  0  0  0  0
   25.6005   71.7941    2.2596 C   0  0  0  0  0  0  0  0  0  0  0  0
  1  4  1  0
  1 24  1  0
  1  2  1  1
  1  3  2  0
 25 28  1  0
 25 24  1  0
 25 26  1  6
 25 27  2  0
  6 11  1  0
  6 12  1  0
 29 36  1  0
 29 37  1  0
  9  7  1  6
  7 13  1  0
 10  8  1  1
  8 14  1  0
  4  5  1  0
 36 28  1  1
 33 30  1  1
 30 38  1  0
 34 31  1  6
 31 39  1  0
 35 32  1  6
 32 40  1  0
 41 43  1  0
 15 19  2  0
 42 43  2  0
 16 22  2  0
 12 17  1  6
 17 19  1  0
 17 20  1  0
 18 19  1  0
 18 22  1  0
 18 23  1  0
  9 10  1  0
  9 11  1  0
 10 12  1  0
 11  5  1  6
 33 34  1  0
 33 35  1  0
 34 36  1  0
 35 37  1  0
 37 43  1  1
 20 21  2  0
 21 22  1  0
M  CHG  3   2  -1  26  -1  41  -1
M  END
>  <COMPND>  (443) 
    udp_gluA.pdb 

>  <AUTHOR>  (443) 
    GENERATED BY OPEN BABEL 3.1.1

>  <MASTER>  (443) 
        0    0    0    0    0    0    0    0   56    0   56    0

>  <minimizedAffinity>  (443) 
-8.44434

>  <CNNscore>  (443) 
0.8598085046

>  <CNNaffinity>  (443) 
4.7336320877

>  <CNN_VS>  (443) 
4.0700173378

>  <CNNaffinity_variance>  (443) 
0.0417441167

$$$$
444
     RDKit          3D

 43 45  0  0  0  0  0  0  0  0999 V2000
   22.6677   71.8379   -3.0064 P   0  0  2  0  0  0  0  0  0  0  0  0
   24.0097   71.8635   -3.9105 O   0  0  0  0  0  0  0  0  0  0  0  0
   22.7569   71.0016   -1.7636 O   0  0  0  0  0  0  0  0  0  0  0  0
   21.5036   71.4227   -4.0507 O   0  0  0  0  0  0  0  0  0  0  0  0
   20.6605   70.3330   -3.7251 C   0  0  0  0  0  0  0  0  0  0  0  0
   18.8212   71.5323   -4.7030 O   0  0  0  0  0  0  0  0  0  0  0  0
   17.1211   70.2983   -2.5633 O   0  0  0  0  0  0  0  0  0  0  0  0
   16.5594   68.7506   -4.7371 O   0  0  0  0  0  0  0  0  0  0  0  0
   18.2282   69.7406   -3.2716 C   0  0  1  0  0  0  0  0  0  0  0  0
   17.8203   69.3849   -4.6856 C   0  0  2  0  0  0  0  0  0  0  0  0
   19.2450   70.8500   -3.5029 C   0  0  1  0  0  0  0  0  0  0  0  0
   17.8195   70.7437   -5.3649 C   0  0  2  0  0  0  0  0  0  0  0  0
   16.4579   69.6080   -2.4038 H   0  0  0  0  0  0  0  0  0  0  0  0
   16.6121   67.8899   -4.2918 H   0  0  0  0  0  0  0  0  0  0  0  0
   15.9291   70.2693   -7.4089 O   0  0  0  0  0  0  0  0  0  0  0  0
   19.1625   70.4361  -10.6893 O   0  0  0  0  0  0  0  0  0  0  0  0
   18.1400   70.6584   -6.7616 N   0  0  0  0  0  0  0  0  0  0  0  0
   17.5415   70.3518   -9.0406 N   0  0  0  0  0  0  0  0  0  0  0  0
   17.1157   70.4165   -7.7074 C   0  0  0  0  0  0  0  0  0  0  0  0
   19.4551   70.8150   -7.1822 C   0  0  0  0  0  0  0  0  0  0  0  0
   19.8455   70.7509   -8.4567 C   0  0  0  0  0  0  0  0  0  0  0  0
   18.8374   70.5005   -9.5076 C   0  0  0  0  0  0  0  0  0  0  0  0
   16.8465   70.1823   -9.7171 H   0  0  0  0  0  0  0  0  0  0  0  0
   22.3774   73.4061   -2.7433 O   0  0  0  0  0  0  0  0  0  0  0  0
   21.5595   74.4949   -3.6146 P   0  0  2  0  0  0  0  0  0  0  0  0
   22.0722   75.9086   -3.0154 O   0  0  0  0  0  0  0  0  0  0  0  0
   20.0694   74.3143   -3.5841 O   0  0  0  0  0  0  0  0  0  0  0  0
   22.2136   74.4156   -5.0871 O   0  0  0  0  0  0  0  0  0  0  0  0
   20.7222   75.1185   -6.7874 O   0  0  0  0  0  0  0  0  0  0  0  0
   23.9015   73.6805   -8.9993 O   0  0  0  0  0  0  0  0  0  0  0  0
   22.9639   72.2340   -6.6407 O   0  0  0  0  0  0  0  0  0  0  0  0
   23.4983   76.5455   -8.7160 O   0  0  0  0  0  0  0  0  0  0  0  0
   23.2662   74.2979   -7.8799 C   0  0  2  0  0  0  0  0  0  0  0  0
   22.2744   73.3192   -7.2504 C   0  0  2  0  0  0  0  0  0  0  0  0
   22.5369   75.5470   -8.3795 C   0  0  1  0  0  0  0  0  0  0  0  0
   21.4119   74.0160   -6.1972 C   0  0  1  0  0  0  0  0  0  0  0  0
   21.6017   76.1100   -7.3132 C   0  0  1  0  0  0  0  0  0  0  0  0
   24.3715   72.8841   -8.7060 H   0  0  0  0  0  0  0  0  0  0  0  0
   23.5134   71.7875   -7.3033 H   0  0  0  0  0  0  0  0  0  0  0  0
   24.0999   76.1998   -9.3938 H   0  0  0  0  0  0  0  0  0  0  0  0
   19.7910   77.5609   -6.9699 O   0  0  0  0  0  0  0  0  0  0  0  0
   20.6752   77.4799   -9.0701 O   0  0  0  0  0  0  0  0  0  0  0  0
   20.6634   77.1107   -7.9053 C   0  0  0  0  0  0  0  0  0  0  0  0
  1  4  1  0
  1 24  1  0
  1  2  1  6
  1  3  2  0
 25 28  1  0
 25 24  1  0
 25 26  1  1
 25 27  2  0
  6 11  1  0
  6 12  1  0
 29 36  1  0
 29 37  1  0
  9  7  1  1
  7 13  1  0
 10  8  1  1
  8 14  1  0
  4  5  1  0
 36 28  1  1
 33 30  1  6
 30 38  1  0
 34 31  1  1
 31 39  1  0
 35 32  1  1
 32 40  1  0
 41 43  1  0
 15 19  2  0
 42 43  2  0
 16 22  2  0
 12 17  1  6
 17 19  1  0
 17 20  1  0
 18 19  1  0
 18 22  1  0
 18 23  1  0
  9 10  1  0
  9 11  1  0
 10 12  1  0
 11  5  1  6
 33 34  1  0
 33 35  1  0
 34 36  1  0
 35 37  1  0
 37 43  1  6
 20 21  2  0
 21 22  1  0
M  CHG  3   2  -1  26  -1  41  -1
M  END
>  <COMPND>  (444) 
    udp_gluA.pdb 

>  <AUTHOR>  (444) 
    GENERATED BY OPEN BABEL 3.1.1

>  <MASTER>  (444) 
        0    0    0    0    0    0    0    0   56    0   56    0

>  <minimizedAffinity>  (444) 
-6.99224

>  <CNNscore>  (444) 
0.8520926237

>  <CNNaffinity>  (444) 
4.7139368057

>  <CNN_VS>  (444) 
4.0167107582

>  <CNNaffinity_variance>  (444) 
0.2338545024

$$$$
445
     RDKit          3D

 43 45  0  0  0  0  0  0  0  0999 V2000
   20.9949   71.5615   -1.6435 P   0  0  2  0  0  0  0  0  0  0  0  0
   22.5812   71.5205   -1.9610 O   0  0  0  0  0  0  0  0  0  0  0  0
   20.5289   70.5733   -0.6150 O   0  0  0  0  0  0  0  0  0  0  0  0
   20.3036   71.4373   -3.1012 O   0  0  0  0  0  0  0  0  0  0  0  0
   19.5126   70.2965   -3.3793 C   0  0  0  0  0  0  0  0  0  0  0  0
   17.8239   71.4328   -4.6579 O   0  0  0  0  0  0  0  0  0  0  0  0
   15.8244   69.9695   -2.9691 O   0  0  0  0  0  0  0  0  0  0  0  0
   15.8272   68.5206   -5.2793 O   0  0  0  0  0  0  0  0  0  0  0  0
   17.0894   69.5257   -3.4603 C   0  0  1  0  0  0  0  0  0  0  0  0
   17.0015   69.2292   -4.9424 C   0  0  2  0  0  0  0  0  0  0  0  0
   18.0471   70.7090   -3.4284 C   0  0  1  0  0  0  0  0  0  0  0  0
   17.0368   70.6230   -5.5456 C   0  0  2  0  0  0  0  0  0  0  0  0
   15.1956   69.2304   -2.9800 H   0  0  0  0  0  0  0  0  0  0  0  0
   15.8528   67.6401   -4.8719 H   0  0  0  0  0  0  0  0  0  0  0  0
   15.6171   70.2587   -7.9597 O   0  0  0  0  0  0  0  0  0  0  0  0
   19.4427   70.7108  -10.4904 O   0  0  0  0  0  0  0  0  0  0  0  0
   17.6370   70.6408   -6.8495 N   0  0  0  0  0  0  0  0  0  0  0  0
   17.5240   70.4832   -9.2178 N   0  0  0  0  0  0  0  0  0  0  0  0
   16.8344   70.4473   -7.9987 C   0  0  0  0  0  0  0  0  0  0  0  0
   19.0045   70.8497   -6.9808 C   0  0  0  0  0  0  0  0  0  0  0  0
   19.6476   70.8813   -8.1497 C   0  0  0  0  0  0  0  0  0  0  0  0
   18.8824   70.6870   -9.3987 C   0  0  0  0  0  0  0  0  0  0  0  0
   16.9867   70.3489  -10.0318 H   0  0  0  0  0  0  0  0  0  0  0  0
   20.7430   73.1096   -1.2526 O   0  0  0  0  0  0  0  0  0  0  0  0
   19.5495   74.1245   -1.6518 P   0  0  2  0  0  0  0  0  0  0  0  0
   19.8649   75.4363   -0.7574 O   0  0  0  0  0  0  0  0  0  0  0  0
   18.1715   73.5609   -1.4585 O   0  0  0  0  0  0  0  0  0  0  0  0
   19.8830   74.5736   -3.1649 O   0  0  0  0  0  0  0  0  0  0  0  0
   22.0789   74.2939   -4.0072 O   0  0  0  0  0  0  0  0  0  0  0  0
   20.4709   76.9618   -6.7210 O   0  0  0  0  0  0  0  0  0  0  0  0
   19.9536   77.2653   -3.8619 O   0  0  0  0  0  0  0  0  0  0  0  0
   20.8082   74.1671   -7.4469 O   0  0  0  0  0  0  0  0  0  0  0  0
   20.4525   75.8798   -5.7900 C   0  0  2  0  0  0  0  0  0  0  0  0
   20.9142   76.3759   -4.4195 C   0  0  2  0  0  0  0  0  0  0  0  0
   21.3972   74.7934   -6.3087 C   0  0  1  0  0  0  0  0  0  0  0  0
   21.1275   75.2063   -3.4576 C   0  0  1  0  0  0  0  0  0  0  0  0
   21.6586   73.7290   -5.2470 C   0  0  1  0  0  0  0  0  0  0  0  0
   19.8776   77.6646   -6.4121 H   0  0  0  0  0  0  0  0  0  0  0  0
   19.8132   78.0098   -4.4672 H   0  0  0  0  0  0  0  0  0  0  0  0
   20.6366   74.8338   -8.1301 H   0  0  0  0  0  0  0  0  0  0  0  0
   23.7535   72.8576   -4.6524 O   0  0  0  0  0  0  0  0  0  0  0  0
   22.9139   72.2524   -6.6842 O   0  0  0  0  0  0  0  0  0  0  0  0
   22.8169   72.8679   -5.6331 C   0  0  0  0  0  0  0  0  0  0  0  0
  1  4  1  0
  1 24  1  0
  1  2  1  6
  1  3  2  0
 25 28  1  0
 25 24  1  0
 25 26  1  1
 25 27  2  0
  6 11  1  0
  6 12  1  0
 29 36  1  0
 29 37  1  0
  9  7  1  6
  7 13  1  0
 10  8  1  1
  8 14  1  0
  4  5  1  0
 36 28  1  6
 33 30  1  6
 30 38  1  0
 34 31  1  1
 31 39  1  0
 35 32  1  6
 32 40  1  0
 41 43  1  0
 15 19  2  0
 42 43  2  0
 16 22  2  0
 12 17  1  6
 17 19  1  0
 17 20  1  0
 18 19  1  0
 18 22  1  0
 18 23  1  0
  9 10  1  0
  9 11  1  0
 10 12  1  0
 11  5  1  6
 33 34  1  0
 33 35  1  0
 34 36  1  0
 35 37  1  0
 37 43  1  6
 20 21  2  0
 21 22  1  0
M  CHG  3   2  -1  26  -1  41  -1
M  END
>  <COMPND>  (445) 
    udp_gluA.pdb 

>  <AUTHOR>  (445) 
    GENERATED BY OPEN BABEL 3.1.1

>  <MASTER>  (445) 
        0    0    0    0    0    0    0    0   56    0   56    0

>  <minimizedAffinity>  (445) 
-7.01694

>  <CNNscore>  (445) 
0.8300389647

>  <CNNaffinity>  (445) 
4.5213689804

>  <CNN_VS>  (445) 
3.7529125214

>  <CNNaffinity_variance>  (445) 
0.3933160603

$$$$
446
     RDKit          3D

 43 45  0  0  0  0  0  0  0  0999 V2000
   20.9006   73.3110   -4.0656 P   0  0  2  0  0  0  0  0  0  0  0  0
   20.7512   74.5939   -3.0905 O   0  0  0  0  0  0  0  0  0  0  0  0
   21.6833   73.5578   -5.3219 O   0  0  0  0  0  0  0  0  0  0  0  0
   19.3789   72.8024   -4.2742 O   0  0  0  0  0  0  0  0  0  0  0  0
   18.9741   71.6027   -3.6406 C   0  0  0  0  0  0  0  0  0  0  0  0
   17.1392   71.7647   -5.1847 O   0  0  0  0  0  0  0  0  0  0  0  0
   15.6173   70.0303   -3.2697 O   0  0  0  0  0  0  0  0  0  0  0  0
   16.3766   68.2615   -5.2012 O   0  0  0  0  0  0  0  0  0  0  0  0
   17.0021   69.9955   -3.6156 C   0  0  1  0  0  0  0  0  0  0  0  0
   17.1825   69.4033   -4.9973 C   0  0  2  0  0  0  0  0  0  0  0  0
   17.4714   71.4295   -3.8199 C   0  0  1  0  0  0  0  0  0  0  0  0
   16.7875   70.5653   -5.8926 C   0  0  2  0  0  0  0  0  0  0  0  0
   15.2947   69.1252   -3.1341 H   0  0  0  0  0  0  0  0  0  0  0  0
   16.6678   67.5502   -4.6086 H   0  0  0  0  0  0  0  0  0  0  0  0
   15.5110   70.5833   -8.4118 O   0  0  0  0  0  0  0  0  0  0  0  0
   19.5359   70.4915  -10.6558 O   0  0  0  0  0  0  0  0  0  0  0  0
   17.4777   70.5466   -7.1512 N   0  0  0  0  0  0  0  0  0  0  0  0
   17.5168   70.5365   -9.5270 N   0  0  0  0  0  0  0  0  0  0  0  0
   16.7420   70.5576   -8.3598 C   0  0  0  0  0  0  0  0  0  0  0  0
   18.8667   70.5194   -7.1802 C   0  0  0  0  0  0  0  0  0  0  0  0
   19.5913   70.4997   -8.3006 C   0  0  0  0  0  0  0  0  0  0  0  0
   18.8997   70.5086   -9.6064 C   0  0  0  0  0  0  0  0  0  0  0  0
   17.0269   70.5416  -10.3810 H   0  0  0  0  0  0  0  0  0  0  0  0
   21.5295   72.1855   -3.0906 O   0  0  0  0  0  0  0  0  0  0  0  0
   22.9685   72.0991   -2.3588 P   0  0  2  0  0  0  0  0  0  0  0  0
   23.6616   73.5120   -2.7379 O   0  0  0  0  0  0  0  0  0  0  0  0
   23.7788   70.8923   -2.7342 O   0  0  0  0  0  0  0  0  0  0  0  0
   22.6351   72.2185   -0.7849 O   0  0  0  0  0  0  0  0  0  0  0  0
   22.8188   74.0435    0.7134 O   0  0  0  0  0  0  0  0  0  0  0  0
   23.7260   70.8464    3.1676 O   0  0  0  0  0  0  0  0  0  0  0  0
   24.7959   70.9793    0.4524 O   0  0  0  0  0  0  0  0  0  0  0  0
   21.1241   72.1307    3.3461 O   0  0  0  0  0  0  0  0  0  0  0  0
   23.0816   71.5152    2.0834 C   0  0  2  0  0  0  0  0  0  0  0  0
   24.1354   72.0518    1.1143 C   0  0  2  0  0  0  0  0  0  0  0  0
   22.2553   72.6661    2.6618 C   0  0  1  0  0  0  0  0  0  0  0  0
   23.4999   72.9674    0.0671 C   0  0  1  0  0  0  0  0  0  0  0  0
   21.7622   73.6045    1.5642 C   0  0  1  0  0  0  0  0  0  0  0  0
   24.2572   70.1108    2.8241 H   0  0  0  0  0  0  0  0  0  0  0  0
   25.2012   70.3941    1.1110 H   0  0  0  0  0  0  0  0  0  0  0  0
   21.4242   71.5315    4.0474 H   0  0  0  0  0  0  0  0  0  0  0  0
   21.6797   75.9445    1.4256 O   0  0  0  0  0  0  0  0  0  0  0  0
   20.5380   74.9631    3.1381 O   0  0  0  0  0  0  0  0  0  0  0  0
   21.2494   74.8806    2.1481 C   0  0  0  0  0  0  0  0  0  0  0  0
  1  4  1  0
  1 24  1  0
  1  2  1  1
  1  3  2  0
 25 28  1  0
 25 24  1  0
 25 26  1  6
 25 27  2  0
  6 11  1  0
  6 12  1  0
 29 36  1  0
 29 37  1  0
  9  7  1  6
  7 13  1  0
 10  8  1  1
  8 14  1  0
  4  5  1  0
 36 28  1  1
 33 30  1  1
 30 38  1  0
 34 31  1  6
 31 39  1  0
 35 32  1  6
 32 40  1  0
 41 43  1  0
 15 19  2  0
 42 43  2  0
 16 22  2  0
 12 17  1  6
 17 19  1  0
 17 20  1  0
 18 19  1  0
 18 22  1  0
 18 23  1  0
  9 10  1  0
  9 11  1  0
 10 12  1  0
 11  5  1  6
 33 34  1  0
 33 35  1  0
 34 36  1  0
 35 37  1  0
 37 43  1  1
 20 21  2  0
 21 22  1  0
M  CHG  3   2  -1  26  -1  41  -1
M  END
>  <COMPND>  (446) 
    udp_gluA.pdb 

>  <AUTHOR>  (446) 
    GENERATED BY OPEN BABEL 3.1.1

>  <MASTER>  (446) 
        0    0    0    0    0    0    0    0   56    0   56    0

>  <minimizedAffinity>  (446) 
-7.14344

>  <CNNscore>  (446) 
0.8278583288

>  <CNNaffinity>  (446) 
4.5995121002

>  <CNN_VS>  (446) 
3.8077445030

>  <CNNaffinity_variance>  (446) 
0.0701425597

$$$$
447
     RDKit          3D

 43 45  0  0  0  0  0  0  0  0999 V2000
   22.9355   72.7312   -4.1234 P   0  0  2  0  0  0  0  0  0  0  0  0
   23.2876   73.8157   -5.2717 O   0  0  0  0  0  0  0  0  0  0  0  0
   24.0718   71.8336   -3.7298 O   0  0  0  0  0  0  0  0  0  0  0  0
   21.6135   71.9861   -4.6848 O   0  0  0  0  0  0  0  0  0  0  0  0
   21.0216   70.9720   -3.8938 C   0  0  0  0  0  0  0  0  0  0  0  0
   19.0022   71.8798   -4.8296 O   0  0  0  0  0  0  0  0  0  0  0  0
   17.5831   70.6322   -2.5012 O   0  0  0  0  0  0  0  0  0  0  0  0
   17.0807   68.8688   -4.5197 O   0  0  0  0  0  0  0  0  0  0  0  0
   18.7048   70.1486   -3.2404 C   0  0  1  0  0  0  0  0  0  0  0  0
   18.2601   69.6418   -4.5961 C   0  0  2  0  0  0  0  0  0  0  0  0
   19.5708   71.3435   -3.6153 C   0  0  1  0  0  0  0  0  0  0  0  0
   18.0624   70.9358   -5.3671 C   0  0  2  0  0  0  0  0  0  0  0  0
   17.0149   69.8865   -2.2505 H   0  0  0  0  0  0  0  0  0  0  0  0
   17.2585   68.0561   -4.0198 H   0  0  0  0  0  0  0  0  0  0  0  0
   16.1170   70.1280   -7.2485 O   0  0  0  0  0  0  0  0  0  0  0  0
   19.1234   70.3694  -10.7338 O   0  0  0  0  0  0  0  0  0  0  0  0
   18.3096   70.7794   -6.7726 N   0  0  0  0  0  0  0  0  0  0  0  0
   17.6165   70.2480   -8.9824 N   0  0  0  0  0  0  0  0  0  0  0  0
   17.2633   70.3688   -7.6319 C   0  0  0  0  0  0  0  0  0  0  0  0
   19.5755   71.0333   -7.2865 C   0  0  0  0  0  0  0  0  0  0  0  0
   19.8969   70.9139   -8.5762 C   0  0  0  0  0  0  0  0  0  0  0  0
   18.8614   70.4887   -9.5407 C   0  0  0  0  0  0  0  0  0  0  0  0
   16.9051   69.9614   -9.5997 H   0  0  0  0  0  0  0  0  0  0  0  0
   22.3548   73.6473   -2.9249 O   0  0  0  0  0  0  0  0  0  0  0  0
   23.1107   74.5518   -1.8184 P   0  0  2  0  0  0  0  0  0  0  0  0
   22.3213   75.9630   -1.8923 O   0  0  0  0  0  0  0  0  0  0  0  0
   24.5941   74.6615   -2.0219 O   0  0  0  0  0  0  0  0  0  0  0  0
   22.6746   73.9149   -0.4018 O   0  0  0  0  0  0  0  0  0  0  0  0
   23.7231   73.5765    1.6946 O   0  0  0  0  0  0  0  0  0  0  0  0
   21.6686   70.0266    1.1994 O   0  0  0  0  0  0  0  0  0  0  0  0
   23.0891   71.2411   -1.0459 O   0  0  0  0  0  0  0  0  0  0  0  0
   20.6731   72.0441    3.0406 O   0  0  0  0  0  0  0  0  0  0  0  0
   21.9004   71.4284    1.0607 C   0  0  2  0  0  0  0  0  0  0  0  0
   23.2117   71.6583    0.3089 C   0  0  2  0  0  0  0  0  0  0  0  0
   21.9773   72.0360    2.4632 C   0  0  1  0  0  0  0  0  0  0  0  0
   23.6093   73.1347    0.3414 C   0  0  1  0  0  0  0  0  0  0  0  0
   22.5012   73.4686    2.4216 C   0  0  1  0  0  0  0  0  0  0  0  0
   21.6160   69.6189    0.3206 H   0  0  0  0  0  0  0  0  0  0  0  0
   22.8367   70.3052   -1.0740 H   0  0  0  0  0  0  0  0  0  0  0  0
   20.3281   71.1381    3.0727 H   0  0  0  0  0  0  0  0  0  0  0  0
   23.6669   75.0377    3.7180 O   0  0  0  0  0  0  0  0  0  0  0  0
   22.5372   73.4009    4.8331 O   0  0  0  0  0  0  0  0  0  0  0  0
   22.8824   73.9339    3.7893 C   0  0  0  0  0  0  0  0  0  0  0  0
  1  4  1  0
  1 24  1  0
  1  2  1  6
  1  3  2  0
 25 28  1  0
 25 24  1  0
 25 26  1  1
 25 27  2  0
  6 11  1  0
  6 12  1  0
 29 36  1  0
 29 37  1  0
  9  7  1  1
  7 13  1  0
 10  8  1  1
  8 14  1  0
  4  5  1  0
 36 28  1  6
 33 30  1  1
 30 38  1  0
 34 31  1  6
 31 39  1  0
 35 32  1  6
 32 40  1  0
 41 43  1  0
 15 19  2  0
 42 43  2  0
 16 22  2  0
 12 17  1  6
 17 19  1  0
 17 20  1  0
 18 19  1  0
 18 22  1  0
 18 23  1  0
  9 10  1  0
  9 11  1  0
 10 12  1  0
 11  5  1  6
 33 34  1  0
 33 35  1  0
 34 36  1  0
 35 37  1  0
 37 43  1  1
 20 21  2  0
 21 22  1  0
M  CHG  3   2  -1  26  -1  41  -1
M  END
>  <COMPND>  (447) 
    udp_gluA.pdb 

>  <AUTHOR>  (447) 
    GENERATED BY OPEN BABEL 3.1.1

>  <MASTER>  (447) 
        0    0    0    0    0    0    0    0   56    0   56    0

>  <minimizedAffinity>  (447) 
-7.86267

>  <CNNscore>  (447) 
0.8236969113

>  <CNNaffinity>  (447) 
4.6579146385

>  <CNN_VS>  (447) 
3.8367099762

>  <CNNaffinity_variance>  (447) 
0.0417679064

$$$$
448
     RDKit          3D

 43 45  0  0  0  0  0  0  0  0999 V2000
   20.9383   73.9970   -4.5577 P   0  0  2  0  0  0  0  0  0  0  0  0
   20.2936   75.4774   -4.4489 O   0  0  0  0  0  0  0  0  0  0  0  0
   20.9884   73.4282   -5.9454 O   0  0  0  0  0  0  0  0  0  0  0  0
   20.1074   73.1307   -3.4728 O   0  0  0  0  0  0  0  0  0  0  0  0
   19.7189   71.8128   -3.8144 C   0  0  0  0  0  0  0  0  0  0  0  0
   17.7584   72.0165   -5.1901 O   0  0  0  0  0  0  0  0  0  0  0  0
   16.3187   70.5032   -3.0387 O   0  0  0  0  0  0  0  0  0  0  0  0
   16.7731   68.5800   -4.9178 O   0  0  0  0  0  0  0  0  0  0  0  0
   17.6587   70.3520   -3.5078 C   0  0  1  0  0  0  0  0  0  0  0  0
   17.6669   69.6720   -4.8605 C   0  0  2  0  0  0  0  0  0  0  0  0
   18.1979   71.7357   -3.8435 C   0  0  1  0  0  0  0  0  0  0  0  0
   17.2636   70.8069   -5.7864 C   0  0  2  0  0  0  0  0  0  0  0  0
   15.9528   69.6320   -2.8178 H   0  0  0  0  0  0  0  0  0  0  0  0
   17.0733   67.8843   -4.3113 H   0  0  0  0  0  0  0  0  0  0  0  0
   15.7458   70.5738   -8.1567 O   0  0  0  0  0  0  0  0  0  0  0  0
   19.5318   70.2838  -10.7693 O   0  0  0  0  0  0  0  0  0  0  0  0
   17.8271   70.6693   -7.0996 N   0  0  0  0  0  0  0  0  0  0  0  0
   17.6328   70.4285   -9.4556 N   0  0  0  0  0  0  0  0  0  0  0  0
   16.9762   70.5592   -8.2248 C   0  0  0  0  0  0  0  0  0  0  0  0
   19.2068   70.6461   -7.2634 C   0  0  0  0  0  0  0  0  0  0  0  0
   19.8181   70.5211   -8.4430 C   0  0  0  0  0  0  0  0  0  0  0  0
   19.0016   70.3997   -9.6686 C   0  0  0  0  0  0  0  0  0  0  0  0
   17.0614   70.3482  -10.2532 H   0  0  0  0  0  0  0  0  0  0  0  0
   22.3810   74.1767   -3.8512 O   0  0  0  0  0  0  0  0  0  0  0  0
   23.4908   73.0864   -3.4117 P   0  0  2  0  0  0  0  0  0  0  0  0
   24.8834   73.7675   -3.8778 O   0  0  0  0  0  0  0  0  0  0  0  0
   23.2579   71.7118   -3.9686 O   0  0  0  0  0  0  0  0  0  0  0  0
   23.5210   73.1596   -1.8004 O   0  0  0  0  0  0  0  0  0  0  0  0
   23.3438   71.4112   -0.2128 O   0  0  0  0  0  0  0  0  0  0  0  0
   21.6177   74.5684    1.8173 O   0  0  0  0  0  0  0  0  0  0  0  0
   21.0375   74.1330   -1.0126 O   0  0  0  0  0  0  0  0  0  0  0  0
   24.3051   73.6919    2.4958 O   0  0  0  0  0  0  0  0  0  0  0  0
   22.5168   73.9438    0.9010 C   0  0  2  0  0  0  0  0  0  0  0  0
   21.7200   73.2066   -0.1756 C   0  0  2  0  0  0  0  0  0  0  0  0
   23.3857   72.9598    1.6876 C   0  0  1  0  0  0  0  0  0  0  0  0
   22.6381   72.3390   -1.0378 C   0  0  1  0  0  0  0  0  0  0  0  0
   24.1761   72.0461    0.7554 C   0  0  1  0  0  0  0  0  0  0  0  0
   21.0550   75.1982    1.3398 H   0  0  0  0  0  0  0  0  0  0  0  0
   20.4533   74.6870   -0.4720 H   0  0  0  0  0  0  0  0  0  0  0  0
   23.8149   74.2775    3.0937 H   0  0  0  0  0  0  0  0  0  0  0  0
   25.6837   70.2493    0.7584 O   0  0  0  0  0  0  0  0  0  0  0  0
   24.4421   70.5685    2.6441 O   0  0  0  0  0  0  0  0  0  0  0  0
   24.7549   70.8927    1.5083 C   0  0  0  0  0  0  0  0  0  0  0  0
  1  4  1  0
  1 24  1  0
  1  2  1  6
  1  3  2  0
 25 28  1  0
 25 24  1  0
 25 26  1  6
 25 27  2  0
  6 11  1  0
  6 12  1  0
 29 36  1  0
 29 37  1  0
  9  7  1  6
  7 13  1  0
 10  8  1  1
  8 14  1  0
  4  5  1  0
 36 28  1  1
 33 30  1  1
 30 38  1  0
 34 31  1  6
 31 39  1  0
 35 32  1  6
 32 40  1  0
 41 43  1  0
 15 19  2  0
 42 43  2  0
 16 22  2  0
 12 17  1  6
 17 19  1  0
 17 20  1  0
 18 19  1  0
 18 22  1  0
 18 23  1  0
  9 10  1  0
  9 11  1  0
 10 12  1  0
 11  5  1  6
 33 34  1  0
 33 35  1  0
 34 36  1  0
 35 37  1  0
 37 43  1  1
 20 21  2  0
 21 22  1  0
M  CHG  3   2  -1  26  -1  41  -1
M  END
>  <COMPND>  (448) 
    udp_gluA.pdb 

>  <AUTHOR>  (448) 
    GENERATED BY OPEN BABEL 3.1.1

>  <MASTER>  (448) 
        0    0    0    0    0    0    0    0   56    0   56    0

>  <minimizedAffinity>  (448) 
-7.43050

>  <CNNscore>  (448) 
0.7517865896

>  <CNNaffinity>  (448) 
4.5013132095

>  <CNN_VS>  (448) 
3.3840270042

>  <CNNaffinity_variance>  (448) 
0.0325034782

$$$$
449
     RDKit          3D

 43 45  0  0  0  0  0  0  0  0999 V2000
   23.4097   71.8113   -3.3119 P   0  0  2  0  0  0  0  0  0  0  0  0
   24.1572   72.9718   -4.1564 O   0  0  0  0  0  0  0  0  0  0  0  0
   24.2781   70.6505   -2.9243 O   0  0  0  0  0  0  0  0  0  0  0  0
   22.1139   71.4500   -4.2109 O   0  0  0  0  0  0  0  0  0  0  0  0
   21.6947   72.3765   -5.1959 C   0  0  0  0  0  0  0  0  0  0  0  0
   20.6215   70.4462   -6.1445 O   0  0  0  0  0  0  0  0  0  0  0  0
   20.7326   71.9023   -8.7635 O   0  0  0  0  0  0  0  0  0  0  0  0
   18.1478   72.2799   -7.9810 O   0  0  0  0  0  0  0  0  0  0  0  0
   20.5166   72.4197   -7.4504 C   0  0  1  0  0  0  0  0  0  0  0  0
   19.1197   72.0792   -6.9761 C   0  0  2  0  0  0  0  0  0  0  0  0
   21.3838   71.6248   -6.4838 C   0  0  1  0  0  0  0  0  0  0  0  0
   19.2660   70.6178   -6.5877 C   0  0  2  0  0  0  0  0  0  0  0  0
   20.1889   72.3946   -9.3988 H   0  0  0  0  0  0  0  0  0  0  0  0
   18.0923   73.2255   -8.1928 H   0  0  0  0  0  0  0  0  0  0  0  0
   16.5812   69.8251   -6.9619 O   0  0  0  0  0  0  0  0  0  0  0  0
   15.9457   69.1953   -2.4404 O   0  0  0  0  0  0  0  0  0  0  0  0
   18.3763   70.2414   -5.5257 N   0  0  0  0  0  0  0  0  0  0  0  0
   16.2669   69.5132   -4.7095 N   0  0  0  0  0  0  0  0  0  0  0  0
   17.0463   69.8594   -5.8211 C   0  0  0  0  0  0  0  0  0  0  0  0
   18.8235   70.2512   -4.2101 C   0  0  0  0  0  0  0  0  0  0  0  0
   18.0688   69.9184   -3.1610 C   0  0  0  0  0  0  0  0  0  0  0  0
   16.6668   69.5081   -3.3830 C   0  0  0  0  0  0  0  0  0  0  0  0
   15.3367   69.2457   -4.8899 H   0  0  0  0  0  0  0  0  0  0  0  0
   22.7733   72.6216   -2.0663 O   0  0  0  0  0  0  0  0  0  0  0  0
   21.3976   72.3988   -1.2468 P   0  0  2  0  0  0  0  0  0  0  0  0
   21.2008   70.7926   -1.2842 O   0  0  0  0  0  0  0  0  0  0  0  0
   20.2301   73.1775   -1.7802 O   0  0  0  0  0  0  0  0  0  0  0  0
   21.7769   72.7270    0.2864 O   0  0  0  0  0  0  0  0  0  0  0  0
   23.0705   74.2306    1.5807 O   0  0  0  0  0  0  0  0  0  0  0  0
   24.3636   70.5724    2.9997 O   0  0  0  0  0  0  0  0  0  0  0  0
   23.9405   70.9855    0.1388 O   0  0  0  0  0  0  0  0  0  0  0  0
   22.5436   72.1921    4.5855 O   0  0  0  0  0  0  0  0  0  0  0  0
   23.4272   71.5011    2.4532 C   0  0  2  0  0  0  0  0  0  0  0  0
   23.9463   72.0225    1.1130 C   0  0  2  0  0  0  0  0  0  0  0  0
   23.2691   72.6537    3.4475 C   0  0  1  0  0  0  0  0  0  0  0  0
   23.0890   73.1843    0.6088 C   0  0  1  0  0  0  0  0  0  0  0  0
   22.5113   73.8241    2.8277 C   0  0  1  0  0  0  0  0  0  0  0  0
   24.4803   69.8310    2.3849 H   0  0  0  0  0  0  0  0  0  0  0  0
   24.4824   70.2449    0.4523 H   0  0  0  0  0  0  0  0  0  0  0  0
   23.0152   71.4469    4.9893 H   0  0  0  0  0  0  0  0  0  0  0  0
   23.6676   74.9140    4.5530 O   0  0  0  0  0  0  0  0  0  0  0  0
   21.9399   76.0430    3.5838 O   0  0  0  0  0  0  0  0  0  0  0  0
   22.6463   75.0499    3.6713 C   0  0  0  0  0  0  0  0  0  0  0  0
  1  4  1  0
  1 24  1  0
  1  2  1  6
  1  3  2  0
 25 28  1  0
 25 24  1  0
 25 26  1  1
 25 27  2  0
  6 11  1  0
  6 12  1  0
 29 36  1  0
 29 37  1  0
  9  7  1  6
  7 13  1  0
 10  8  1  6
  8 14  1  0
  4  5  1  0
 36 28  1  1
 33 30  1  1
 30 38  1  0
 34 31  1  6
 31 39  1  0
 35 32  1  1
 32 40  1  0
 41 43  1  0
 15 19  2  0
 42 43  2  0
 16 22  2  0
 12 17  1  1
 17 19  1  0
 17 20  1  0
 18 19  1  0
 18 22  1  0
 18 23  1  0
  9 10  1  0
  9 11  1  0
 10 12  1  0
 11  5  1  1
 33 34  1  0
 33 35  1  0
 34 36  1  0
 35 37  1  0
 37 43  1  1
 20 21  2  0
 21 22  1  0
M  CHG  3   2  -1  26  -1  41  -1
M  END
>  <COMPND>  (449) 
    udp_gluA.pdb 

>  <AUTHOR>  (449) 
    GENERATED BY OPEN BABEL 3.1.1

>  <MASTER>  (449) 
        0    0    0    0    0    0    0    0   56    0   56    0

>  <minimizedAffinity>  (449) 
-7.54367

>  <CNNscore>  (449) 
0.6460198760

>  <CNNaffinity>  (449) 
4.4160852432

>  <CNN_VS>  (449) 
2.8528788090

>  <CNNaffinity_variance>  (449) 
0.1059720889

$$$$
450
     RDKit          3D

 43 45  0  0  0  0  0  0  0  0999 V2000
   23.0334   73.4296   -4.2653 P   0  0  2  0  0  0  0  0  0  0  0  0
   24.0675   72.1878   -4.1789 O   0  0  0  0  0  0  0  0  0  0  0  0
   23.6189   74.7060   -4.7945 O   0  0  0  0  0  0  0  0  0  0  0  0
   22.3988   73.5109   -2.7792 O   0  0  0  0  0  0  0  0  0  0  0  0
   21.4563   74.5302   -2.5013 C   0  0  0  0  0  0  0  0  0  0  0  0
   20.7539   72.6837   -1.1320 O   0  0  0  0  0  0  0  0  0  0  0  0
   18.5503   74.4758   -0.1710 O   0  0  0  0  0  0  0  0  0  0  0  0
   20.3525   74.5996    1.8717 O   0  0  0  0  0  0  0  0  0  0  0  0
   19.8986   74.8027   -0.5084 C   0  0  1  0  0  0  0  0  0  0  0  0
   20.8409   74.3238    0.5756 C   0  0  2  0  0  0  0  0  0  0  0  0
   20.3093   73.9381   -1.6924 C   0  0  1  0  0  0  0  0  0  0  0  0
   20.9236   72.8347    0.2863 C   0  0  2  0  0  0  0  0  0  0  0  0
   18.2654   75.0158    0.5833 H   0  0  0  0  0  0  0  0  0  0  0  0
   20.3190   75.5601    2.0070 H   0  0  0  0  0  0  0  0  0  0  0  0
   21.3274   70.1166    0.9383 O   0  0  0  0  0  0  0  0  0  0  0  0
   25.8173   70.7860    1.7362 O   0  0  0  0  0  0  0  0  0  0  0  0
   22.1879   72.2718    0.6679 N   0  0  0  0  0  0  0  0  0  0  0  0
   23.5631   70.4528    1.3361 N   0  0  0  0  0  0  0  0  0  0  0  0
   22.2830   70.8940    0.9757 C   0  0  0  0  0  0  0  0  0  0  0  0
   23.3160   73.0806    0.7326 C   0  0  0  0  0  0  0  0  0  0  0  0
   24.5295   72.6456    1.0776 C   0  0  0  0  0  0  0  0  0  0  0  0
   24.7147   71.2190    1.4153 C   0  0  0  0  0  0  0  0  0  0  0  0
   23.6537   69.4976    1.5568 H   0  0  0  0  0  0  0  0  0  0  0  0
   21.8186   72.8297   -5.1469 O   0  0  0  0  0  0  0  0  0  0  0  0
   20.9505   73.4851   -6.3429 P   0  0  2  0  0  0  0  0  0  0  0  0
   21.8798   73.2485   -7.6471 O   0  0  0  0  0  0  0  0  0  0  0  0
   20.5644   74.9172   -6.1103 O   0  0  0  0  0  0  0  0  0  0  0  0
   19.7047   72.4799   -6.5428 O   0  0  0  0  0  0  0  0  0  0  0  0
   19.3102   70.2807   -5.7572 O   0  0  0  0  0  0  0  0  0  0  0  0
   17.5147   70.1796   -9.4766 O   0  0  0  0  0  0  0  0  0  0  0  0
   20.0975   71.4957   -9.1144 O   0  0  0  0  0  0  0  0  0  0  0  0
   15.8868   70.3595   -7.0749 O   0  0  0  0  0  0  0  0  0  0  0  0
   17.9463   70.7764   -8.2537 C   0  0  2  0  0  0  0  0  0  0  0  0
   19.4673   70.6705   -8.1415 C   0  0  2  0  0  0  0  0  0  0  0  0
   17.2741   70.0291   -7.0997 C   0  0  1  0  0  0  0  0  0  0  0  0
   19.9436   71.0889   -6.7497 C   0  0  1  0  0  0  0  0  0  0  0  0
   17.8901   70.4087   -5.7563 C   0  0  1  0  0  0  0  0  0  0  0  0
   17.9292   70.6382  -10.2244 H   0  0  0  0  0  0  0  0  0  0  0  0
   19.7996   71.2359   -9.9999 H   0  0  0  0  0  0  0  0  0  0  0  0
   15.4827   70.1229   -7.9244 H   0  0  0  0  0  0  0  0  0  0  0  0
   18.4482   69.3023   -3.7648 O   0  0  0  0  0  0  0  0  0  0  0  0
   16.3886   68.8799   -4.6473 O   0  0  0  0  0  0  0  0  0  0  0  0
   17.4677   69.4516   -4.6896 C   0  0  0  0  0  0  0  0  0  0  0  0
  1  4  1  0
  1 24  1  0
  1  2  1  1
  1  3  2  0
 25 28  1  0
 25 24  1  0
 25 26  1  6
 25 27  2  0
  6 11  1  0
  6 12  1  0
 29 36  1  0
 29 37  1  0
  9  7  1  1
  7 13  1  0
 10  8  1  1
  8 14  1  0
  4  5  1  0
 36 28  1  1
 33 30  1  6
 30 38  1  0
 34 31  1  6
 31 39  1  0
 35 32  1  1
 32 40  1  0
 41 43  1  0
 15 19  2  0
 42 43  2  0
 16 22  2  0
 12 17  1  6
 17 19  1  0
 17 20  1  0
 18 19  1  0
 18 22  1  0
 18 23  1  0
  9 10  1  0
  9 11  1  0
 10 12  1  0
 11  5  1  1
 33 34  1  0
 33 35  1  0
 34 36  1  0
 35 37  1  0
 37 43  1  1
 20 21  2  0
 21 22  1  0
M  CHG  3   2  -1  26  -1  41  -1
M  END
>  <COMPND>  (450) 
    udp_gluA.pdb 

>  <AUTHOR>  (450) 
    GENERATED BY OPEN BABEL 3.1.1

>  <MASTER>  (450) 
        0    0    0    0    0    0    0    0   56    0   56    0

>  <minimizedAffinity>  (450) 
-7.78039

>  <CNNscore>  (450) 
0.6456674933

>  <CNNaffinity>  (450) 
4.5998840332

>  <CNN_VS>  (450) 
2.9699954987

>  <CNNaffinity_variance>  (450) 
0.0937952027

$$$$
451
     RDKit          3D

 43 45  0  0  0  0  0  0  0  0999 V2000
   21.8644   72.5094   -5.6789 P   0  0  2  0  0  0  0  0  0  0  0  0
   21.1867   73.9647   -5.4754 O   0  0  0  0  0  0  0  0  0  0  0  0
   23.1514   72.5121   -6.4506 O   0  0  0  0  0  0  0  0  0  0  0  0
   20.6730   71.6097   -6.3027 O   0  0  0  0  0  0  0  0  0  0  0  0
   20.1133   71.9961   -7.5444 C   0  0  0  0  0  0  0  0  0  0  0  0
   18.9005   69.9602   -7.1422 O   0  0  0  0  0  0  0  0  0  0  0  0
   18.1102   70.0788  -10.0324 O   0  0  0  0  0  0  0  0  0  0  0  0
   15.8836   71.0154   -8.7668 O   0  0  0  0  0  0  0  0  0  0  0  0
   18.2887   71.1452   -9.0998 C   0  0  1  0  0  0  0  0  0  0  0  0
   17.1301   71.1895   -8.1262 C   0  0  2  0  0  0  0  0  0  0  0  0
   19.4553   70.7837   -8.1907 C   0  0  1  0  0  0  0  0  0  0  0  0
   17.4673   70.0476   -7.1826 C   0  0  2  0  0  0  0  0  0  0  0  0
   17.3699   70.2870  -10.6242 H   0  0  0  0  0  0  0  0  0  0  0  0
   15.7150   71.7680   -9.3560 H   0  0  0  0  0  0  0  0  0  0  0  0
   16.2673   68.0638   -5.5697 O   0  0  0  0  0  0  0  0  0  0  0  0
   15.6172   71.0226   -2.0960 O   0  0  0  0  0  0  0  0  0  0  0  0
   16.9755   70.2722   -5.8528 N   0  0  0  0  0  0  0  0  0  0  0  0
   15.9437   69.5396   -3.8415 N   0  0  0  0  0  0  0  0  0  0  0  0
   16.3897   69.2077   -5.1277 C   0  0  0  0  0  0  0  0  0  0  0  0
   17.0772   71.5340   -5.2796 C   0  0  0  0  0  0  0  0  0  0  0  0
   16.6477   71.8350   -4.0525 C   0  0  0  0  0  0  0  0  0  0  0  0
   16.0224   70.7797   -3.2287 C   0  0  0  0  0  0  0  0  0  0  0  0
   15.5304   68.8154   -3.3182 H   0  0  0  0  0  0  0  0  0  0  0  0
   21.9873   71.9516   -4.1667 O   0  0  0  0  0  0  0  0  0  0  0  0
   23.2000   72.0328   -3.1007 P   0  0  2  0  0  0  0  0  0  0  0  0
   23.8722   73.4716   -3.4140 O   0  0  0  0  0  0  0  0  0  0  0  0
   24.1554   70.8766   -3.1656 O   0  0  0  0  0  0  0  0  0  0  0  0
   22.4765   72.2240   -1.6715 O   0  0  0  0  0  0  0  0  0  0  0  0
   23.2084   70.6145   -0.0956 O   0  0  0  0  0  0  0  0  0  0  0  0
   20.2064   72.5339    1.9953 O   0  0  0  0  0  0  0  0  0  0  0  0
   19.8512   71.8646   -0.8261 O   0  0  0  0  0  0  0  0  0  0  0  0
   22.9940   73.0805    2.6127 O   0  0  0  0  0  0  0  0  0  0  0  0
   21.2759   72.4250    1.0560 C   0  0  2  0  0  0  0  0  0  0  0  0
   20.9167   71.3904   -0.0108 C   0  0  2  0  0  0  0  0  0  0  0  0
   22.5310   71.9913    1.8167 C   0  0  1  0  0  0  0  0  0  0  0  0
   22.1223   71.0787   -0.8985 C   0  0  1  0  0  0  0  0  0  0  0  0
   23.6462   71.5768    0.8612 C   0  0  1  0  0  0  0  0  0  0  0  0
   19.3979   72.8084    1.5346 H   0  0  0  0  0  0  0  0  0  0  0  0
   19.0829   72.0647   -0.2693 H   0  0  0  0  0  0  0  0  0  0  0  0
   22.2934   73.3541    3.2253 H   0  0  0  0  0  0  0  0  0  0  0  0
   24.3490   70.5808    2.8650 O   0  0  0  0  0  0  0  0  0  0  0  0
   25.8120   70.5447    1.1165 O   0  0  0  0  0  0  0  0  0  0  0  0
   24.7299   70.8537    1.5925 C   0  0  0  0  0  0  0  0  0  0  0  0
  1  4  1  0
  1 24  1  0
  1  2  1  1
  1  3  2  0
 25 28  1  0
 25 24  1  0
 25 26  1  6
 25 27  2  0
  6 11  1  0
  6 12  1  0
 29 36  1  0
 29 37  1  0
  9  7  1  6
  7 13  1  0
 10  8  1  6
  8 14  1  0
  4  5  1  0
 36 28  1  1
 33 30  1  1
 30 38  1  0
 34 31  1  6
 31 39  1  0
 35 32  1  6
 32 40  1  0
 41 43  1  0
 15 19  2  0
 42 43  2  0
 16 22  2  0
 12 17  1  1
 17 19  1  0
 17 20  1  0
 18 19  1  0
 18 22  1  0
 18 23  1  0
  9 10  1  0
  9 11  1  0
 10 12  1  0
 11  5  1  1
 33 34  1  0
 33 35  1  0
 34 36  1  0
 35 37  1  0
 37 43  1  1
 20 21  2  0
 21 22  1  0
M  CHG  3   2  -1  26  -1  41  -1
M  END
>  <COMPND>  (451) 
    udp_gluA.pdb 

>  <AUTHOR>  (451) 
    GENERATED BY OPEN BABEL 3.1.1

>  <MASTER>  (451) 
        0    0    0    0    0    0    0    0   56    0   56    0

>  <minimizedAffinity>  (451) 
-8.46682

>  <CNNscore>  (451) 
0.6388036013

>  <CNNaffinity>  (451) 
4.4259099960

>  <CNN_VS>  (451) 
2.8272871971

>  <CNNaffinity_variance>  (451) 
0.2469026595

$$$$
452
     RDKit          3D

 43 45  0  0  0  0  0  0  0  0999 V2000
   21.4041   72.0080   -5.3827 P   0  0  2  0  0  0  0  0  0  0  0  0
   20.6031   73.4139   -5.3579 O   0  0  0  0  0  0  0  0  0  0  0  0
   22.8352   72.0863   -4.9382 O   0  0  0  0  0  0  0  0  0  0  0  0
   21.1637   71.4502   -6.8823 O   0  0  0  0  0  0  0  0  0  0  0  0
   20.0165   71.8845   -7.5894 C   0  0  0  0  0  0  0  0  0  0  0  0
   18.7241   69.9056   -7.1516 O   0  0  0  0  0  0  0  0  0  0  0  0
   18.0019   69.9587  -10.0615 O   0  0  0  0  0  0  0  0  0  0  0  0
   15.7827   71.0117   -8.8774 O   0  0  0  0  0  0  0  0  0  0  0  0
   18.1975   71.0476   -9.1590 C   0  0  1  0  0  0  0  0  0  0  0  0
   17.0202   71.1632   -8.2141 C   0  0  2  0  0  0  0  0  0  0  0  0
   19.3305   70.6754   -8.2123 C   0  0  1  0  0  0  0  0  0  0  0  0
   17.2962   70.0412   -7.2277 C   0  0  2  0  0  0  0  0  0  0  0  0
   17.2826   70.1732  -10.6765 H   0  0  0  0  0  0  0  0  0  0  0  0
   15.6536   71.7504   -9.4936 H   0  0  0  0  0  0  0  0  0  0  0  0
   16.5639   68.0719   -5.3403 O   0  0  0  0  0  0  0  0  0  0  0  0
   15.3414   71.2465   -2.2304 O   0  0  0  0  0  0  0  0  0  0  0  0
   16.7836   70.3252   -5.9172 N   0  0  0  0  0  0  0  0  0  0  0  0
   15.9547   69.6549   -3.7936 N   0  0  0  0  0  0  0  0  0  0  0  0
   16.4457   69.2628   -5.0458 C   0  0  0  0  0  0  0  0  0  0  0  0
   16.6219   71.6428   -5.5063 C   0  0  0  0  0  0  0  0  0  0  0  0
   16.1528   72.0009   -4.3094 C   0  0  0  0  0  0  0  0  0  0  0  0
   15.7756   70.9517   -3.3398 C   0  0  0  0  0  0  0  0  0  0  0  0
   15.7108   68.9328   -3.1704 H   0  0  0  0  0  0  0  0  0  0  0  0
   20.4711   71.0429   -4.4821 O   0  0  0  0  0  0  0  0  0  0  0  0
   19.8472   71.2470   -3.0046 P   0  0  2  0  0  0  0  0  0  0  0  0
   18.9810   69.8982   -2.7794 O   0  0  0  0  0  0  0  0  0  0  0  0
   19.0670   72.5184   -2.8359 O   0  0  0  0  0  0  0  0  0  0  0  0
   21.1043   71.0952   -2.0050 O   0  0  0  0  0  0  0  0  0  0  0  0
   21.2844   73.0255   -0.6445 O   0  0  0  0  0  0  0  0  0  0  0  0
   24.5829   70.8438    0.5507 O   0  0  0  0  0  0  0  0  0  0  0  0
   23.8714   71.0232   -2.2771 O   0  0  0  0  0  0  0  0  0  0  0  0
   22.2259   70.9730    2.2474 O   0  0  0  0  0  0  0  0  0  0  0  0
   23.2530   71.0369    0.0689 C   0  0  2  0  0  0  0  0  0  0  0  0
   23.2932   71.8156   -1.2463 C   0  0  2  0  0  0  0  0  0  0  0  0
   22.4755   71.8213    1.1282 C   0  0  1  0  0  0  0  0  0  0  0  0
   21.8876   72.2404   -1.6737 C   0  0  1  0  0  0  0  0  0  0  0  0
   21.1388   72.3175    0.5846 C   0  0  1  0  0  0  0  0  0  0  0  0
   25.0960   70.3473   -0.1062 H   0  0  0  0  0  0  0  0  0  0  0  0
   24.7634   70.7499   -2.0124 H   0  0  0  0  0  0  0  0  0  0  0  0
   23.0687   70.6502    2.6028 H   0  0  0  0  0  0  0  0  0  0  0  0
   21.4341   73.7096    2.4491 O   0  0  0  0  0  0  0  0  0  0  0  0
   19.4135   73.7960    1.3961 O   0  0  0  0  0  0  0  0  0  0  0  0
   20.5441   73.3430    1.4939 C   0  0  0  0  0  0  0  0  0  0  0  0
  1  4  1  0
  1 24  1  0
  1  2  1  6
  1  3  2  0
 25 28  1  0
 25 24  1  0
 25 26  1  1
 25 27  2  0
  6 11  1  0
  6 12  1  0
 29 36  1  0
 29 37  1  0
  9  7  1  6
  7 13  1  0
 10  8  1  6
  8 14  1  0
  4  5  1  0
 36 28  1  1
 33 30  1  1
 30 38  1  0
 34 31  1  6
 31 39  1  0
 35 32  1  1
 32 40  1  0
 41 43  1  0
 15 19  2  0
 42 43  2  0
 16 22  2  0
 12 17  1  1
 17 19  1  0
 17 20  1  0
 18 19  1  0
 18 22  1  0
 18 23  1  0
  9 10  1  0
  9 11  1  0
 10 12  1  0
 11  5  1  1
 33 34  1  0
 33 35  1  0
 34 36  1  0
 35 37  1  0
 37 43  1  1
 20 21  2  0
 21 22  1  0
M  CHG  3   2  -1  26  -1  41  -1
M  END
>  <COMPND>  (452) 
    udp_gluA.pdb 

>  <AUTHOR>  (452) 
    GENERATED BY OPEN BABEL 3.1.1

>  <MASTER>  (452) 
        0    0    0    0    0    0    0    0   56    0   56    0

>  <minimizedAffinity>  (452) 
-7.46420

>  <CNNscore>  (452) 
0.6316285133

>  <CNNaffinity>  (452) 
4.5024890900

>  <CNN_VS>  (452) 
2.8439004421

>  <CNNaffinity_variance>  (452) 
0.3511411548

$$$$
453
     RDKit          3D

 43 45  0  0  0  0  0  0  0  0999 V2000
   21.9317   72.5004   -5.9170 P   0  0  2  0  0  0  0  0  0  0  0  0
   21.3116   73.9154   -5.4354 O   0  0  0  0  0  0  0  0  0  0  0  0
   23.0655   72.6053   -6.8945 O   0  0  0  0  0  0  0  0  0  0  0  0
   20.6428   71.6635   -6.4231 O   0  0  0  0  0  0  0  0  0  0  0  0
   20.0655   72.0003   -7.6713 C   0  0  0  0  0  0  0  0  0  0  0  0
   18.8940   69.9566   -7.1930 O   0  0  0  0  0  0  0  0  0  0  0  0
   18.0722   69.9709  -10.0768 O   0  0  0  0  0  0  0  0  0  0  0  0
   15.8421   70.9066   -8.8170 O   0  0  0  0  0  0  0  0  0  0  0  0
   18.2409   71.0688   -9.1798 C   0  0  1  0  0  0  0  0  0  0  0  0
   17.0917   71.1229   -8.1956 C   0  0  2  0  0  0  0  0  0  0  0  0
   19.4231   70.7568   -8.2724 C   0  0  1  0  0  0  0  0  0  0  0  0
   17.4591   70.0172   -7.2207 C   0  0  2  0  0  0  0  0  0  0  0  0
   17.3223   70.1473  -10.6668 H   0  0  0  0  0  0  0  0  0  0  0  0
   15.6538   71.6374   -9.4275 H   0  0  0  0  0  0  0  0  0  0  0  0
   16.3115   68.0638   -5.5343 O   0  0  0  0  0  0  0  0  0  0  0  0
   15.6437   71.1176   -2.1472 O   0  0  0  0  0  0  0  0  0  0  0  0
   16.9770   70.2745   -5.8932 N   0  0  0  0  0  0  0  0  0  0  0  0
   15.9791   69.5868   -3.8493 N   0  0  0  0  0  0  0  0  0  0  0  0
   16.4178   69.2230   -5.1292 C   0  0  0  0  0  0  0  0  0  0  0  0
   17.0618   71.5551   -5.3606 C   0  0  0  0  0  0  0  0  0  0  0  0
   16.6395   71.8866   -4.1389 C   0  0  0  0  0  0  0  0  0  0  0  0
   16.0417   70.8466   -3.2761 C   0  0  0  0  0  0  0  0  0  0  0  0
   15.5841   68.8721   -3.2994 H   0  0  0  0  0  0  0  0  0  0  0  0
   22.3101   71.7765   -4.5221 O   0  0  0  0  0  0  0  0  0  0  0  0
   23.4898   72.0743   -3.4575 P   0  0  2  0  0  0  0  0  0  0  0  0
   24.4920   73.0452   -4.2781 O   0  0  0  0  0  0  0  0  0  0  0  0
   24.1414   70.8422   -2.8996 O   0  0  0  0  0  0  0  0  0  0  0  0
   22.8105   73.0318   -2.3511 O   0  0  0  0  0  0  0  0  0  0  0  0
   21.2467   71.9580   -0.9331 O   0  0  0  0  0  0  0  0  0  0  0  0
   20.6414   75.9352    0.0070 O   0  0  0  0  0  0  0  0  0  0  0  0
   21.0098   75.1096   -2.7710 O   0  0  0  0  0  0  0  0  0  0  0  0
   22.1123   74.2126    1.8291 O   0  0  0  0  0  0  0  0  0  0  0  0
   21.3945   74.7916   -0.3968 C   0  0  2  0  0  0  0  0  0  0  0  0
   20.8014   74.2164   -1.6832 C   0  0  2  0  0  0  0  0  0  0  0  0
   21.3254   73.7581    0.7298 C   0  0  1  0  0  0  0  0  0  0  0  0
   21.4330   72.8650   -2.0204 C   0  0  1  0  0  0  0  0  0  0  0  0
   21.8588   72.4025    0.2756 C   0  0  1  0  0  0  0  0  0  0  0  0
   20.6709   76.6058   -0.6936 H   0  0  0  0  0  0  0  0  0  0  0  0
   20.6118   75.9693   -2.5637 H   0  0  0  0  0  0  0  0  0  0  0  0
   21.7832   75.0748    2.1277 H   0  0  0  0  0  0  0  0  0  0  0  0
   20.8247   71.8596    2.3096 O   0  0  0  0  0  0  0  0  0  0  0  0
   21.7456   70.1455    1.1209 O   0  0  0  0  0  0  0  0  0  0  0  0
   21.4897   71.3331    1.2515 C   0  0  0  0  0  0  0  0  0  0  0  0
  1  4  1  0
  1 24  1  0
  1  2  1  1
  1  3  2  0
 25 28  1  0
 25 24  1  0
 25 26  1  6
 25 27  2  0
  6 11  1  0
  6 12  1  0
 29 36  1  0
 29 37  1  0
  9  7  1  6
  7 13  1  0
 10  8  1  6
  8 14  1  0
  4  5  1  0
 36 28  1  1
 33 30  1  1
 30 38  1  0
 34 31  1  6
 31 39  1  0
 35 32  1  1
 32 40  1  0
 41 43  1  0
 15 19  2  0
 42 43  2  0
 16 22  2  0
 12 17  1  1
 17 19  1  0
 17 20  1  0
 18 19  1  0
 18 22  1  0
 18 23  1  0
  9 10  1  0
  9 11  1  0
 10 12  1  0
 11  5  1  1
 33 34  1  0
 33 35  1  0
 34 36  1  0
 35 37  1  0
 37 43  1  1
 20 21  2  0
 21 22  1  0
M  CHG  3   2  -1  26  -1  41  -1
M  END
>  <COMPND>  (453) 
    udp_gluA.pdb 

>  <AUTHOR>  (453) 
    GENERATED BY OPEN BABEL 3.1.1

>  <MASTER>  (453) 
        0    0    0    0    0    0    0    0   56    0   56    0

>  <minimizedAffinity>  (453) 
-8.36204

>  <CNNscore>  (453) 
0.6266942024

>  <CNNaffinity>  (453) 
4.4542741776

>  <CNN_VS>  (453) 
2.7914679050

>  <CNNaffinity_variance>  (453) 
0.3847654462

$$$$
454
     RDKit          3D

 43 45  0  0  0  0  0  0  0  0999 V2000
   19.7835   76.0656   -4.1533 P   0  0  2  0  0  0  0  0  0  0  0  0
   18.4540   76.9547   -3.9073 O   0  0  0  0  0  0  0  0  0  0  0  0
   20.9630   76.8239   -4.6877 O   0  0  0  0  0  0  0  0  0  0  0  0
   19.2650   74.8364   -5.0689 O   0  0  0  0  0  0  0  0  0  0  0  0
   19.9468   74.5599   -6.2785 C   0  0  0  0  0  0  0  0  0  0  0  0
   20.7856   72.7269   -4.9692 O   0  0  0  0  0  0  0  0  0  0  0  0
   23.0110   72.5578   -6.9718 O   0  0  0  0  0  0  0  0  0  0  0  0
   21.3555   70.5349   -7.7485 O   0  0  0  0  0  0  0  0  0  0  0  0
   21.6352   72.8812   -7.1749 C   0  0  1  0  0  0  0  0  0  0  0  0
   20.7829   71.6341   -7.0714 C   0  0  2  0  0  0  0  0  0  0  0  0
   21.1612   73.6914   -5.9762 C   0  0  1  0  0  0  0  0  0  0  0  0
   20.7134   71.4235   -5.5685 C   0  0  2  0  0  0  0  0  0  0  0  0
   23.3364   72.0399   -7.7252 H   0  0  0  0  0  0  0  0  0  0  0  0
   21.3771   70.7177   -8.7014 H   0  0  0  0  0  0  0  0  0  0  0  0
   20.4299   69.8676   -3.2286 O   0  0  0  0  0  0  0  0  0  0  0  0
   15.9811   69.0360   -4.1010 O   0  0  0  0  0  0  0  0  0  0  0  0
   19.4922   70.7888   -5.1601 N   0  0  0  0  0  0  0  0  0  0  0  0
   18.2147   69.4541   -3.6659 N   0  0  0  0  0  0  0  0  0  0  0  0
   19.4564   70.0289   -3.9670 C   0  0  0  0  0  0  0  0  0  0  0  0
   18.3474   70.9232   -5.9362 C   0  0  0  0  0  0  0  0  0  0  0  0
   17.1710   70.3694   -5.6361 C   0  0  0  0  0  0  0  0  0  0  0  0
   17.0486   69.5589   -4.4067 C   0  0  0  0  0  0  0  0  0  0  0  0
   18.1657   68.9187   -2.8411 H   0  0  0  0  0  0  0  0  0  0  0  0
   20.0261   75.3698   -2.7146 O   0  0  0  0  0  0  0  0  0  0  0  0
   21.0477   75.7372   -1.5166 P   0  0  2  0  0  0  0  0  0  0  0  0
   20.1308   76.6020   -0.5008 O   0  0  0  0  0  0  0  0  0  0  0  0
   22.2989   76.4345   -1.9664 O   0  0  0  0  0  0  0  0  0  0  0  0
   21.2986   74.3402   -0.7498 O   0  0  0  0  0  0  0  0  0  0  0  0
   21.7675   72.6800   -2.3724 O   0  0  0  0  0  0  0  0  0  0  0  0
   21.9527   70.5041    1.1347 O   0  0  0  0  0  0  0  0  0  0  0  0
   19.8464   72.4881    0.7324 O   0  0  0  0  0  0  0  0  0  0  0  0
   24.3975   71.2583   -0.2454 O   0  0  0  0  0  0  0  0  0  0  0  0
   22.0883   71.6620    0.3108 C   0  0  2  0  0  0  0  0  0  0  0  0
   20.7287   72.0283   -0.2849 C   0  0  2  0  0  0  0  0  0  0  0  0
   23.0867   71.3361   -0.8023 C   0  0  1  0  0  0  0  0  0  0  0  0
   20.8730   73.1175   -1.3487 C   0  0  1  0  0  0  0  0  0  0  0  0
   23.0807   72.4088   -1.8876 C   0  0  1  0  0  0  0  0  0  0  0  0
   21.3227   70.6875    1.8493 H   0  0  0  0  0  0  0  0  0  0  0  0
   19.7504   71.8019    1.4109 H   0  0  0  0  0  0  0  0  0  0  0  0
   24.4149   70.5792    0.4470 H   0  0  0  0  0  0  0  0  0  0  0  0
   24.1475   70.6281   -2.9797 O   0  0  0  0  0  0  0  0  0  0  0  0
   24.0366   72.6147   -4.0934 O   0  0  0  0  0  0  0  0  0  0  0  0
   23.7972   71.9318   -3.1088 C   0  0  0  0  0  0  0  0  0  0  0  0
  1  4  1  0
  1 24  1  0
  1  2  1  1
  1  3  2  0
 25 28  1  0
 25 24  1  0
 25 26  1  1
 25 27  2  0
  6 11  1  0
  6 12  1  0
 29 36  1  0
 29 37  1  0
  9  7  1  1
  7 13  1  0
 10  8  1  6
  8 14  1  0
  4  5  1  0
 36 28  1  1
 33 30  1  1
 30 38  1  0
 34 31  1  1
 31 39  1  0
 35 32  1  1
 32 40  1  0
 41 43  1  0
 15 19  2  0
 42 43  2  0
 16 22  2  0
 12 17  1  6
 17 19  1  0
 17 20  1  0
 18 19  1  0
 18 22  1  0
 18 23  1  0
  9 10  1  0
  9 11  1  0
 10 12  1  0
 11  5  1  6
 33 34  1  0
 33 35  1  0
 34 36  1  0
 35 37  1  0
 37 43  1  6
 20 21  2  0
 21 22  1  0
M  CHG  3   2  -1  26  -1  41  -1
M  END
>  <COMPND>  (454) 
    udp_gluA.pdb 

>  <AUTHOR>  (454) 
    GENERATED BY OPEN BABEL 3.1.1

>  <MASTER>  (454) 
        0    0    0    0    0    0    0    0   56    0   56    0

>  <minimizedAffinity>  (454) 
-6.28832

>  <CNNscore>  (454) 
0.5721064210

>  <CNNaffinity>  (454) 
4.1675443649

>  <CNN_VS>  (454) 
2.3842787743

>  <CNNaffinity_variance>  (454) 
0.6891199350

$$$$
455
     RDKit          3D

 43 45  0  0  0  0  0  0  0  0999 V2000
   22.4322   71.7903   -3.5045 P   0  0  2  0  0  0  0  0  0  0  0  0
   21.6681   70.3779   -3.3040 O   0  0  0  0  0  0  0  0  0  0  0  0
   23.9158   71.6854   -3.7041 O   0  0  0  0  0  0  0  0  0  0  0  0
   21.9548   72.6738   -2.2359 O   0  0  0  0  0  0  0  0  0  0  0  0
   22.8138   72.7657   -1.1142 C   0  0  0  0  0  0  0  0  0  0  0  0
   24.0023   71.3039    0.3785 O   0  0  0  0  0  0  0  0  0  0  0  0
   21.3404   70.0636    0.9849 O   0  0  0  0  0  0  0  0  0  0  0  0
   21.7418   71.6934    3.1340 O   0  0  0  0  0  0  0  0  0  0  0  0
   21.6614   71.4290    0.7182 C   0  0  1  0  0  0  0  0  0  0  0  0
   22.3568   72.0468    1.9128 C   0  0  2  0  0  0  0  0  0  0  0  0
   22.7578   71.4562   -0.3379 C   0  0  1  0  0  0  0  0  0  0  0  0
   23.7633   71.4875    1.7830 C   0  0  2  0  0  0  0  0  0  0  0  0
   20.6419   70.0206    1.6570 H   0  0  0  0  0  0  0  0  0  0  0  0
   20.8493   72.0732    3.1684 H   0  0  0  0  0  0  0  0  0  0  0  0
   26.3966   70.7174    2.4535 O   0  0  0  0  0  0  0  0  0  0  0  0
   27.4937   74.9834    3.8106 O   0  0  0  0  0  0  0  0  0  0  0  0
   24.7578   72.3767    2.3134 N   0  0  0  0  0  0  0  0  0  0  0  0
   26.9402   72.8426    3.1297 N   0  0  0  0  0  0  0  0  0  0  0  0
   26.0508   71.8890    2.6172 C   0  0  0  0  0  0  0  0  0  0  0  0
   24.4492   73.7148    2.5260 C   0  0  0  0  0  0  0  0  0  0  0  0
   25.3075   74.6119    3.0151 C   0  0  0  0  0  0  0  0  0  0  0  0
   26.6793   74.1838    3.3593 C   0  0  0  0  0  0  0  0  0  0  0  0
   27.8459   72.5262    3.3507 H   0  0  0  0  0  0  0  0  0  0  0  0
   21.6328   72.4635   -4.7376 O   0  0  0  0  0  0  0  0  0  0  0  0
   20.1321   73.0574   -4.8319 P   0  0  2  0  0  0  0  0  0  0  0  0
   20.3720   74.6057   -5.2388 O   0  0  0  0  0  0  0  0  0  0  0  0
   19.3142   72.8645   -3.5878 O   0  0  0  0  0  0  0  0  0  0  0  0
   19.5066   72.3807   -6.1560 O   0  0  0  0  0  0  0  0  0  0  0  0
   19.0756   70.1265   -5.5712 O   0  0  0  0  0  0  0  0  0  0  0  0
   17.5855   70.2960   -9.4207 O   0  0  0  0  0  0  0  0  0  0  0  0
   20.1157   71.5951   -8.7537 O   0  0  0  0  0  0  0  0  0  0  0  0
   15.7682   70.2856   -7.1518 O   0  0  0  0  0  0  0  0  0  0  0  0
   17.9107   70.8013   -8.1258 C   0  0  2  0  0  0  0  0  0  0  0  0
   19.4190   70.6956   -7.8992 C   0  0  2  0  0  0  0  0  0  0  0  0
   17.1568   69.9656   -7.0890 C   0  0  1  0  0  0  0  0  0  0  0  0
   19.7773   71.0106   -6.4461 C   0  0  1  0  0  0  0  0  0  0  0  0
   17.6586   70.2464   -5.6755 C   0  0  1  0  0  0  0  0  0  0  0  0
   18.0534   70.8118  -10.0962 H   0  0  0  0  0  0  0  0  0  0  0  0
   19.8928   71.4011   -9.6773 H   0  0  0  0  0  0  0  0  0  0  0  0
   15.4364   70.1115   -8.0464 H   0  0  0  0  0  0  0  0  0  0  0  0
   18.1222   68.8951   -3.8152 O   0  0  0  0  0  0  0  0  0  0  0  0
   16.0482   68.7100   -4.7443 O   0  0  0  0  0  0  0  0  0  0  0  0
   17.1630   69.2094   -4.7209 C   0  0  0  0  0  0  0  0  0  0  0  0
  1  4  1  0
  1 24  1  0
  1  2  1  1
  1  3  2  0
 25 28  1  0
 25 24  1  0
 25 26  1  6
 25 27  2  0
  6 11  1  0
  6 12  1  0
 29 36  1  0
 29 37  1  0
  9  7  1  1
  7 13  1  0
 10  8  1  1
  8 14  1  0
  4  5  1  0
 36 28  1  1
 33 30  1  6
 30 38  1  0
 34 31  1  6
 31 39  1  0
 35 32  1  1
 32 40  1  0
 41 43  1  0
 15 19  2  0
 42 43  2  0
 16 22  2  0
 12 17  1  6
 17 19  1  0
 17 20  1  0
 18 19  1  0
 18 22  1  0
 18 23  1  0
  9 10  1  0
  9 11  1  0
 10 12  1  0
 11  5  1  1
 33 34  1  0
 33 35  1  0
 34 36  1  0
 35 37  1  0
 37 43  1  1
 20 21  2  0
 21 22  1  0
M  CHG  3   2  -1  26  -1  41  -1
M  END
>  <COMPND>  (455) 
    udp_gluA.pdb 

>  <AUTHOR>  (455) 
    GENERATED BY OPEN BABEL 3.1.1

>  <MASTER>  (455) 
        0    0    0    0    0    0    0    0   56    0   56    0

>  <minimizedAffinity>  (455) 
-8.06734

>  <CNNscore>  (455) 
0.5690004826

>  <CNNaffinity>  (455) 
4.4050302505

>  <CNN_VS>  (455) 
2.5064642429

>  <CNNaffinity_variance>  (455) 
0.1683309376

$$$$
456
     RDKit          3D

 43 45  0  0  0  0  0  0  0  0999 V2000
   20.6718   71.2085   -2.1329 P   0  0  2  0  0  0  0  0  0  0  0  0
   22.0202   70.4478   -2.6043 O   0  0  0  0  0  0  0  0  0  0  0  0
   19.5581   70.3065   -1.6882 O   0  0  0  0  0  0  0  0  0  0  0  0
   20.3276   72.1920   -3.3707 O   0  0  0  0  0  0  0  0  0  0  0  0
   21.0595   73.3970   -3.5006 C   0  0  0  0  0  0  0  0  0  0  0  0
   21.6654   72.1256   -5.4483 O   0  0  0  0  0  0  0  0  0  0  0  0
   23.3932   74.4569   -6.2040 O   0  0  0  0  0  0  0  0  0  0  0  0
   21.1978   74.8056   -7.7834 O   0  0  0  0  0  0  0  0  0  0  0  0
   22.1182   74.4478   -5.5615 C   0  0  1  0  0  0  0  0  0  0  0  0
   21.0299   74.1184   -6.5611 C   0  0  2  0  0  0  0  0  0  0  0  0
   22.0702   73.2444   -4.6300 C   0  0  1  0  0  0  0  0  0  0  0  0
   21.1832   72.6143   -6.7101 C   0  0  2  0  0  0  0  0  0  0  0  0
   23.4476   75.2172   -6.8045 H   0  0  0  0  0  0  0  0  0  0  0  0
   21.0905   75.7589   -7.6357 H   0  0  0  0  0  0  0  0  0  0  0  0
   20.9672   69.9982   -7.7522 O   0  0  0  0  0  0  0  0  0  0  0  0
   16.3647   70.2233   -7.8556 O   0  0  0  0  0  0  0  0  0  0  0  0
   19.9408   71.9647   -7.0185 N   0  0  0  0  0  0  0  0  0  0  0  0
   18.6751   70.1132   -7.8036 N   0  0  0  0  0  0  0  0  0  0  0  0
   19.9424   70.6487   -7.5383 C   0  0  0  0  0  0  0  0  0  0  0  0
   18.7391   72.6287   -6.8044 C   0  0  0  0  0  0  0  0  0  0  0  0
   17.5389   72.1052   -7.0621 C   0  0  0  0  0  0  0  0  0  0  0  0
   17.4525   70.7349   -7.6079 C   0  0  0  0  0  0  0  0  0  0  0  0
   18.6508   69.1989   -8.1681 H   0  0  0  0  0  0  0  0  0  0  0  0
   21.2076   72.2269   -0.9978 O   0  0  0  0  0  0  0  0  0  0  0  0
   21.0187   72.2213    0.6078 P   0  0  2  0  0  0  0  0  0  0  0  0
   20.9993   70.6442    0.9725 O   0  0  0  0  0  0  0  0  0  0  0  0
   19.8173   72.9821    1.0892 O   0  0  0  0  0  0  0  0  0  0  0  0
   22.4261   72.7559    1.1874 O   0  0  0  0  0  0  0  0  0  0  0  0
   24.3157   73.9140    0.3525 O   0  0  0  0  0  0  0  0  0  0  0  0
   26.0827   70.9376    2.6079 O   0  0  0  0  0  0  0  0  0  0  0  0
   23.7790   70.3413    0.9132 O   0  0  0  0  0  0  0  0  0  0  0  0
   25.9838   73.6643    3.6109 O   0  0  0  0  0  0  0  0  0  0  0  0
   25.0730   71.8864    2.2639 C   0  0  2  0  0  0  0  0  0  0  0  0
   24.5138   71.5593    0.8791 C   0  0  2  0  0  0  0  0  0  0  0  0
   25.7110   73.2774    2.2654 C   0  0  1  0  0  0  0  0  0  0  0  0
   23.5994   72.6788    0.3799 C   0  0  1  0  0  0  0  0  0  0  0  0
   24.7854   74.3154    1.6375 C   0  0  1  0  0  0  0  0  0  0  0  0
   25.7004   70.0459    2.6132 H   0  0  0  0  0  0  0  0  0  0  0  0
   24.3531   69.6266    1.2294 H   0  0  0  0  0  0  0  0  0  0  0  0
   26.5719   73.0117    4.0221 H   0  0  0  0  0  0  0  0  0  0  0  0
   25.2804   75.9953    0.0773 O   0  0  0  0  0  0  0  0  0  0  0  0
   26.2551   76.1640    2.1317 O   0  0  0  0  0  0  0  0  0  0  0  0
   25.5269   75.5789    1.3440 C   0  0  0  0  0  0  0  0  0  0  0  0
  1  4  1  0
  1 24  1  0
  1  2  1  6
  1  3  2  0
 25 28  1  0
 25 24  1  0
 25 26  1  1
 25 27  2  0
  6 11  1  0
  6 12  1  0
 29 36  1  0
 29 37  1  0
  9  7  1  6
  7 13  1  0
 10  8  1  6
  8 14  1  0
  4  5  1  0
 36 28  1  1
 33 30  1  6
 30 38  1  0
 34 31  1  1
 31 39  1  0
 35 32  1  1
 32 40  1  0
 41 43  1  0
 15 19  2  0
 42 43  2  0
 16 22  2  0
 12 17  1  1
 17 19  1  0
 17 20  1  0
 18 19  1  0
 18 22  1  0
 18 23  1  0
  9 10  1  0
  9 11  1  0
 10 12  1  0
 11  5  1  1
 33 34  1  0
 33 35  1  0
 34 36  1  0
 35 37  1  0
 37 43  1  6
 20 21  2  0
 21 22  1  0
M  CHG  3   2  -1  26  -1  41  -1
M  END
>  <COMPND>  (456) 
    udp_gluA.pdb 

>  <AUTHOR>  (456) 
    GENERATED BY OPEN BABEL 3.1.1

>  <MASTER>  (456) 
        0    0    0    0    0    0    0    0   56    0   56    0

>  <minimizedAffinity>  (456) 
-6.76235

>  <CNNscore>  (456) 
0.5676595569

>  <CNNaffinity>  (456) 
4.2137913704

>  <CNN_VS>  (456) 
2.3919990063

>  <CNNaffinity_variance>  (456) 
0.0129146306

$$$$
457
     RDKit          3D

 43 45  0  0  0  0  0  0  0  0999 V2000
   19.3828   74.7307   -0.4145 P   0  0  2  0  0  0  0  0  0  0  0  0
   20.6299   75.6971   -0.0543 O   0  0  0  0  0  0  0  0  0  0  0  0
   18.1403   75.4411   -0.8653 O   0  0  0  0  0  0  0  0  0  0  0  0
   19.2220   73.7983    0.8980 O   0  0  0  0  0  0  0  0  0  0  0  0
   19.2816   74.4101    2.1734 C   0  0  0  0  0  0  0  0  0  0  0  0
   20.4988   72.3490    2.3919 O   0  0  0  0  0  0  0  0  0  0  0  0
   21.4008   73.3805    5.0591 O   0  0  0  0  0  0  0  0  0  0  0  0
   23.5660   73.8589    3.4720 O   0  0  0  0  0  0  0  0  0  0  0  0
   21.1747   74.0945    3.8435 C   0  0  1  0  0  0  0  0  0  0  0  0
   22.2936   73.8231    2.8603 C   0  0  2  0  0  0  0  0  0  0  0  0
   19.9771   73.4652    3.1449 C   0  0  1  0  0  0  0  0  0  0  0  0
   21.9315   72.4409    2.3442 C   0  0  2  0  0  0  0  0  0  0  0  0
   22.1615   73.7645    5.5233 H   0  0  0  0  0  0  0  0  0  0  0  0
   23.7498   74.7596    3.7834 H   0  0  0  0  0  0  0  0  0  0  0  0
   21.6552   70.0045    0.9428 O   0  0  0  0  0  0  0  0  0  0  0  0
   23.6436   71.7411   -2.8353 O   0  0  0  0  0  0  0  0  0  0  0  0
   22.3683   72.2287    0.9932 N   0  0  0  0  0  0  0  0  0  0  0  0
   22.6467   70.8714   -0.9372 N   0  0  0  0  0  0  0  0  0  0  0  0
   22.1826   70.9665    0.3814 C   0  0  0  0  0  0  0  0  0  0  0  0
   22.9711   73.2636    0.2885 C   0  0  0  0  0  0  0  0  0  0  0  0
   23.4083   73.1579   -0.9678 C   0  0  0  0  0  0  0  0  0  0  0  0
   23.2530   71.8721   -1.6792 C   0  0  0  0  0  0  0  0  0  0  0  0
   22.5303   70.0016   -1.3834 H   0  0  0  0  0  0  0  0  0  0  0  0
   20.0123   73.7173   -1.5052 O   0  0  0  0  0  0  0  0  0  0  0  0
   19.3709   72.4411   -2.2627 P   0  0  2  0  0  0  0  0  0  0  0  0
   17.8003   72.8205   -2.3613 O   0  0  0  0  0  0  0  0  0  0  0  0
   19.6486   71.1253   -1.5954 O   0  0  0  0  0  0  0  0  0  0  0  0
   19.9121   72.5504   -3.7785 O   0  0  0  0  0  0  0  0  0  0  0  0
   19.2736   70.5384   -4.8524 O   0  0  0  0  0  0  0  0  0  0  0  0
   21.0794   72.6036   -7.9414 O   0  0  0  0  0  0  0  0  0  0  0  0
   22.2597   72.6063   -5.2691 O   0  0  0  0  0  0  0  0  0  0  0  0
   18.1822   72.3983   -7.8208 O   0  0  0  0  0  0  0  0  0  0  0  0
   20.3318   72.4560   -6.7343 C   0  0  2  0  0  0  0  0  0  0  0  0
   21.1932   71.7591   -5.6808 C   0  0  2  0  0  0  0  0  0  0  0  0
   19.0904   71.6174   -7.0464 C   0  0  1  0  0  0  0  0  0  0  0  0
   20.3591   71.3780   -4.4569 C   0  0  1  0  0  0  0  0  0  0  0  0
   18.3839   71.1713   -5.7695 C   0  0  1  0  0  0  0  0  0  0  0  0
   21.8734   73.1333   -7.7675 H   0  0  0  0  0  0  0  0  0  0  0  0
   22.7930   72.8523   -6.0407 H   0  0  0  0  0  0  0  0  0  0  0  0
   18.6195   72.6887   -8.6364 H   0  0  0  0  0  0  0  0  0  0  0  0
   17.0149   69.4657   -4.9221 O   0  0  0  0  0  0  0  0  0  0  0  0
   16.9552   69.8257   -7.1729 O   0  0  0  0  0  0  0  0  0  0  0  0
   17.3855   70.0991   -6.0624 C   0  0  0  0  0  0  0  0  0  0  0  0
  1  4  1  0
  1 24  1  0
  1  2  1  1
  1  3  2  0
 25 28  1  0
 25 24  1  0
 25 26  1  6
 25 27  2  0
  6 11  1  0
  6 12  1  0
 29 36  1  0
 29 37  1  0
  9  7  1  1
  7 13  1  0
 10  8  1  1
  8 14  1  0
  4  5  1  0
 36 28  1  6
 33 30  1  6
 30 38  1  0
 34 31  1  1
 31 39  1  0
 35 32  1  6
 32 40  1  0
 41 43  1  0
 15 19  2  0
 42 43  2  0
 16 22  2  0
 12 17  1  6
 17 19  1  0
 17 20  1  0
 18 19  1  0
 18 22  1  0
 18 23  1  0
  9 10  1  0
  9 11  1  0
 10 12  1  0
 11  5  1  6
 33 34  1  0
 33 35  1  0
 34 36  1  0
 35 37  1  0
 37 43  1  6
 20 21  2  0
 21 22  1  0
M  CHG  3   2  -1  26  -1  41  -1
M  END
>  <COMPND>  (457) 
    udp_gluA.pdb 

>  <AUTHOR>  (457) 
    GENERATED BY OPEN BABEL 3.1.1

>  <MASTER>  (457) 
        0    0    0    0    0    0    0    0   56    0   56    0

>  <minimizedAffinity>  (457) 
-6.25709

>  <CNNscore>  (457) 
0.4698074162

>  <CNNaffinity>  (457) 
3.8294372559

>  <CNN_VS>  (457) 
1.7990980148

>  <CNNaffinity_variance>  (457) 
0.4897541106

$$$$
458
     RDKit          3D

 43 45  0  0  0  0  0  0  0  0999 V2000
   15.5842   71.7494   -2.0355 P   0  0  2  0  0  0  0  0  0  0  0  0
   16.2566   72.8319   -1.0380 O   0  0  0  0  0  0  0  0  0  0  0  0
   14.4496   72.2728   -2.8665 O   0  0  0  0  0  0  0  0  0  0  0  0
   15.2305   70.4995   -1.0709 O   0  0  0  0  0  0  0  0  0  0  0  0
   14.0673   70.5737   -0.2672 C   0  0  0  0  0  0  0  0  0  0  0  0
   12.8329   68.5500   -0.6658 O   0  0  0  0  0  0  0  0  0  0  0  0
   10.6507   70.3107   -1.7287 O   0  0  0  0  0  0  0  0  0  0  0  0
    9.7652   69.7129    0.7802 O   0  0  0  0  0  0  0  0  0  0  0  0
   11.5517   70.5422   -0.6456 C   0  0  1  0  0  0  0  0  0  0  0  0
   11.1588   69.7028    0.5516 C   0  0  2  0  0  0  0  0  0  0  0  0
   12.9018   69.9477   -1.0223 C   0  0  1  0  0  0  0  0  0  0  0  0
   11.6769   68.3300    0.1579 C   0  0  2  0  0  0  0  0  0  0  0  0
    9.7809   70.6818   -1.5112 H   0  0  0  0  0  0  0  0  0  0  0  0
    9.4847   70.6084    1.0279 H   0  0  0  0  0  0  0  0  0  0  0  0
    9.9152   66.6596    1.6011 O   0  0  0  0  0  0  0  0  0  0  0  0
   13.2458   65.3486    4.5049 O   0  0  0  0  0  0  0  0  0  0  0  0
   12.0572   67.5410    1.2952 N   0  0  0  0  0  0  0  0  0  0  0  0
   11.5755   66.0090    3.0466 N   0  0  0  0  0  0  0  0  0  0  0  0
   11.0951   66.7355    1.9491 C   0  0  0  0  0  0  0  0  0  0  0  0
   13.3698   67.5684    1.7507 C   0  0  0  0  0  0  0  0  0  0  0  0
   13.8128   66.8703    2.7982 C   0  0  0  0  0  0  0  0  0  0  0  0
   12.8711   66.0043    3.5375 C   0  0  0  0  0  0  0  0  0  0  0  0
   10.9236   65.4425    3.5193 H   0  0  0  0  0  0  0  0  0  0  0  0
   16.8470   71.2062   -2.8859 O   0  0  0  0  0  0  0  0  0  0  0  0
   17.2476   69.7115   -3.3539 P   0  0  2  0  0  0  0  0  0  0  0  0
   15.8234   69.0561   -3.7570 O   0  0  0  0  0  0  0  0  0  0  0  0
   18.0195   68.9315   -2.3293 O   0  0  0  0  0  0  0  0  0  0  0  0
   18.0147   69.9142   -4.7585 O   0  0  0  0  0  0  0  0  0  0  0  0
   19.2145   71.7238   -5.7045 O   0  0  0  0  0  0  0  0  0  0  0  0
   17.2829   70.1752   -9.0119 O   0  0  0  0  0  0  0  0  0  0  0  0
   15.8790   70.4333   -6.4630 O   0  0  0  0  0  0  0  0  0  0  0  0
   20.1199   69.6808   -8.6146 O   0  0  0  0  0  0  0  0  0  0  0  0
   17.9219   70.1300   -7.7361 C   0  0  2  0  0  0  0  0  0  0  0  0
   17.1511   71.0042   -6.7465 C   0  0  2  0  0  0  0  0  0  0  0  0
   19.3513   70.6500   -7.9044 C   0  0  1  0  0  0  0  0  0  0  0  0
   17.9274   71.1650   -5.4387 C   0  0  1  0  0  0  0  0  0  0  0  0
   20.0144   70.9039   -6.5537 C   0  0  1  0  0  0  0  0  0  0  0  0
   16.3728   69.8493   -8.9297 H   0  0  0  0  0  0  0  0  0  0  0  0
   15.3811   70.3281   -7.2885 H   0  0  0  0  0  0  0  0  0  0  0  0
   19.7085   69.5099   -9.4762 H   0  0  0  0  0  0  0  0  0  0  0  0
   21.4184   72.0911   -8.0100 O   0  0  0  0  0  0  0  0  0  0  0  0
   22.0395   71.9900   -5.8184 O   0  0  0  0  0  0  0  0  0  0  0  0
   21.2624   71.7086   -6.7184 C   0  0  0  0  0  0  0  0  0  0  0  0
  1  4  1  0
  1 24  1  0
  1  2  1  1
  1  3  2  0
 25 28  1  0
 25 24  1  0
 25 26  1  6
 25 27  2  0
  6 11  1  0
  6 12  1  0
 29 36  1  0
 29 37  1  0
  9  7  1  6
  7 13  1  0
 10  8  1  6
  8 14  1  0
  4  5  1  0
 36 28  1  6
 33 30  1  6
 30 38  1  0
 34 31  1  1
 31 39  1  0
 35 32  1  1
 32 40  1  0
 41 43  1  0
 15 19  2  0
 42 43  2  0
 16 22  2  0
 12 17  1  1
 17 19  1  0
 17 20  1  0
 18 19  1  0
 18 22  1  0
 18 23  1  0
  9 10  1  0
  9 11  1  0
 10 12  1  0
 11  5  1  1
 33 34  1  0
 33 35  1  0
 34 36  1  0
 35 37  1  0
 37 43  1  6
 20 21  2  0
 21 22  1  0
M  CHG  3   2  -1  26  -1  41  -1
M  END
>  <COMPND>  (458) 
    udp_gluA.pdb 

>  <AUTHOR>  (458) 
    GENERATED BY OPEN BABEL 3.1.1

>  <MASTER>  (458) 
        0    0    0    0    0    0    0    0   56    0   56    0

>  <minimizedAffinity>  (458) 
-6.81460

>  <CNNscore>  (458) 
0.4689586163

>  <CNNaffinity>  (458) 
4.0330309868

>  <CNN_VS>  (458) 
1.8913246393

>  <CNNaffinity_variance>  (458) 
0.1927140653

$$$$
459
     RDKit          3D

 43 45  0  0  0  0  0  0  0  0999 V2000
   22.3122   73.1414   -6.8362 P   0  0  2  0  0  0  0  0  0  0  0  0
   21.2332   74.2581   -6.3808 O   0  0  0  0  0  0  0  0  0  0  0  0
   23.3235   73.6102   -7.8409 O   0  0  0  0  0  0  0  0  0  0  0  0
   21.4014   71.8836   -7.2905 O   0  0  0  0  0  0  0  0  0  0  0  0
   20.0355   72.1098   -7.5864 C   0  0  0  0  0  0  0  0  0  0  0  0
   18.9792   69.9967   -7.1434 O   0  0  0  0  0  0  0  0  0  0  0  0
   18.1083   70.0413  -10.0123 O   0  0  0  0  0  0  0  0  0  0  0  0
   15.8549   70.8278   -8.6933 O   0  0  0  0  0  0  0  0  0  0  0  0
   18.2356   71.1234   -9.0897 C   0  0  1  0  0  0  0  0  0  0  0  0
   17.1023   71.0928   -8.0863 C   0  0  2  0  0  0  0  0  0  0  0  0
   19.4477   70.8503   -8.2097 C   0  0  1  0  0  0  0  0  0  0  0  0
   17.5428   69.9833   -7.1467 C   0  0  2  0  0  0  0  0  0  0  0  0
   17.3402   70.1934  -10.5856 H   0  0  0  0  0  0  0  0  0  0  0  0
   15.6188   71.5630   -9.2813 H   0  0  0  0  0  0  0  0  0  0  0  0
   16.0405   68.0880   -5.6883 O   0  0  0  0  0  0  0  0  0  0  0  0
   15.7856   70.8510   -2.0079 O   0  0  0  0  0  0  0  0  0  0  0  0
   17.0710   70.1815   -5.8054 N   0  0  0  0  0  0  0  0  0  0  0  0
   15.9141   69.4663   -3.8570 N   0  0  0  0  0  0  0  0  0  0  0  0
   16.3242   69.1660   -5.1627 C   0  0  0  0  0  0  0  0  0  0  0  0
   17.3499   71.3693   -5.1405 C   0  0  0  0  0  0  0  0  0  0  0  0
   16.9523   71.6411   -3.8959 C   0  0  0  0  0  0  0  0  0  0  0  0
   16.1665   70.6333   -3.1542 C   0  0  0  0  0  0  0  0  0  0  0  0
   15.3910   68.7754   -3.3898 H   0  0  0  0  0  0  0  0  0  0  0  0
   22.9387   72.6475   -5.4304 O   0  0  0  0  0  0  0  0  0  0  0  0
   23.4626   73.4836   -4.1497 P   0  0  2  0  0  0  0  0  0  0  0  0
   22.7083   74.9075   -4.3039 O   0  0  0  0  0  0  0  0  0  0  0  0
   24.9572   73.5832   -4.0487 O   0  0  0  0  0  0  0  0  0  0  0  0
   22.7514   72.7811   -2.8835 O   0  0  0  0  0  0  0  0  0  0  0  0
   23.4692   71.0561   -1.4282 O   0  0  0  0  0  0  0  0  0  0  0  0
   19.4144   70.3070   -1.6841 O   0  0  0  0  0  0  0  0  0  0  0  0
   20.9393   71.0345   -4.0674 O   0  0  0  0  0  0  0  0  0  0  0  0
   20.5219   71.5442    0.7020 O   0  0  0  0  0  0  0  0  0  0  0  0
   20.5921   71.1137   -1.6676 C   0  0  2  0  0  0  0  0  0  0  0  0
   21.5156   70.6946   -2.8116 C   0  0  2  0  0  0  0  0  0  0  0  0
   21.2872   70.9080   -0.3198 C   0  0  1  0  0  0  0  0  0  0  0  0
   22.8804   71.3738   -2.6899 C   0  0  1  0  0  0  0  0  0  0  0  0
   22.6916   71.5050   -0.3205 C   0  0  1  0  0  0  0  0  0  0  0  0
   18.9559   70.4213   -2.5314 H   0  0  0  0  0  0  0  0  0  0  0  0
   20.0729   70.6071   -4.1513 H   0  0  0  0  0  0  0  0  0  0  0  0
   19.6257   71.1734    0.7130 H   0  0  0  0  0  0  0  0  0  0  0  0
   24.7842   70.8811    0.5358 O   0  0  0  0  0  0  0  0  0  0  0  0
   23.0067   70.7848    1.9606 O   0  0  0  0  0  0  0  0  0  0  0  0
   23.4742   71.0213    0.8567 C   0  0  0  0  0  0  0  0  0  0  0  0
  1  4  1  0
  1 24  1  0
  1  2  1  1
  1  3  2  0
 25 28  1  0
 25 24  1  0
 25 26  1  6
 25 27  2  0
  6 11  1  0
  6 12  1  0
 29 36  1  0
 29 37  1  0
  9  7  1  6
  7 13  1  0
 10  8  1  6
  8 14  1  0
  4  5  1  0
 36 28  1  1
 33 30  1  1
 30 38  1  0
 34 31  1  6
 31 39  1  0
 35 32  1  1
 32 40  1  0
 41 43  1  0
 15 19  2  0
 42 43  2  0
 16 22  2  0
 12 17  1  1
 17 19  1  0
 17 20  1  0
 18 19  1  0
 18 22  1  0
 18 23  1  0
  9 10  1  0
  9 11  1  0
 10 12  1  0
 11  5  1  1
 33 34  1  0
 33 35  1  0
 34 36  1  0
 35 37  1  0
 37 43  1  1
 20 21  2  0
 21 22  1  0
M  CHG  3   2  -1  26  -1  41  -1
M  END
>  <COMPND>  (459) 
    udp_gluA.pdb 

>  <AUTHOR>  (459) 
    GENERATED BY OPEN BABEL 3.1.1

>  <MASTER>  (459) 
        0    0    0    0    0    0    0    0   56    0   56    0

>  <minimizedAffinity>  (459) 
-8.43459

>  <CNNscore>  (459) 
0.4647442997

>  <CNNaffinity>  (459) 
4.2379527092

>  <CNN_VS>  (459) 
1.9695643187

>  <CNNaffinity_variance>  (459) 
0.5219607949

$$$$
460
     RDKit          3D

 43 45  0  0  0  0  0  0  0  0999 V2000
   21.4874   73.3325   -3.1343 P   0  0  2  0  0  0  0  0  0  0  0  0
   21.6639   73.2931   -4.7424 O   0  0  0  0  0  0  0  0  0  0  0  0
   21.3175   74.7037   -2.5490 O   0  0  0  0  0  0  0  0  0  0  0  0
   22.7512   72.4852   -2.5839 O   0  0  0  0  0  0  0  0  0  0  0  0
   23.1843   72.7041   -1.2538 C   0  0  0  0  0  0  0  0  0  0  0  0
   24.2101   71.2277    0.3417 O   0  0  0  0  0  0  0  0  0  0  0  0
   21.4664   70.1019    0.7847 O   0  0  0  0  0  0  0  0  0  0  0  0
   21.7846   71.7572    2.9283 O   0  0  0  0  0  0  0  0  0  0  0  0
   21.8583   71.4486    0.5176 C   0  0  1  0  0  0  0  0  0  0  0  0
   22.4947   72.0629    1.7464 C   0  0  2  0  0  0  0  0  0  0  0  0
   23.0241   71.4133   -0.4611 C   0  0  1  0  0  0  0  0  0  0  0  0
   23.8836   71.4479    1.7230 C   0  0  2  0  0  0  0  0  0  0  0  0
   20.7226   70.0989    1.4079 H   0  0  0  0  0  0  0  0  0  0  0  0
   20.9075   72.1714    2.8948 H   0  0  0  0  0  0  0  0  0  0  0  0
   26.4998   70.6342    2.4084 O   0  0  0  0  0  0  0  0  0  0  0  0
   27.5988   74.8360    3.9516 O   0  0  0  0  0  0  0  0  0  0  0  0
   24.8739   72.3088    2.3054 N   0  0  0  0  0  0  0  0  0  0  0  0
   27.0443   72.7274    3.1773 N   0  0  0  0  0  0  0  0  0  0  0  0
   26.1584   71.8007    2.6121 C   0  0  0  0  0  0  0  0  0  0  0  0
   24.5697   73.6395    2.5652 C   0  0  0  0  0  0  0  0  0  0  0  0
   25.4248   74.5109    3.1041 C   0  0  0  0  0  0  0  0  0  0  0  0
   26.7876   74.0603    3.4549 C   0  0  0  0  0  0  0  0  0  0  0  0
   27.9441   72.3964    3.4012 H   0  0  0  0  0  0  0  0  0  0  0  0
   20.2421   72.3334   -2.8813 O   0  0  0  0  0  0  0  0  0  0  0  0
   20.1079   70.7341   -3.0761 P   0  0  2  0  0  0  0  0  0  0  0  0
   19.3572   70.2584   -1.7231 O   0  0  0  0  0  0  0  0  0  0  0  0
   21.4099   70.0344   -3.3395 O   0  0  0  0  0  0  0  0  0  0  0  0
   19.0041   70.5545   -4.2388 O   0  0  0  0  0  0  0  0  0  0  0  0
   17.2194   71.9785   -4.8682 O   0  0  0  0  0  0  0  0  0  0  0  0
   15.6628   68.2494   -5.7276 O   0  0  0  0  0  0  0  0  0  0  0  0
   17.1812   68.6900   -3.2710 O   0  0  0  0  0  0  0  0  0  0  0  0
   16.5982   69.9705   -7.8755 O   0  0  0  0  0  0  0  0  0  0  0  0
   16.6885   69.2318   -5.5840 C   0  0  2  0  0  0  0  0  0  0  0  0
   16.7270   69.7238   -4.1369 C   0  0  2  0  0  0  0  0  0  0  0  0
   16.3697   70.3904   -6.5317 C   0  0  1  0  0  0  0  0  0  0  0  0
   17.6509   70.9341   -3.9949 C   0  0  1  0  0  0  0  0  0  0  0  0
   17.2490   71.6038   -6.2436 C   0  0  1  0  0  0  0  0  0  0  0  0
   15.8442   67.5032   -5.1346 H   0  0  0  0  0  0  0  0  0  0  0  0
   16.5996   67.9187   -3.3562 H   0  0  0  0  0  0  0  0  0  0  0  0
   16.0446   69.1985   -8.0717 H   0  0  0  0  0  0  0  0  0  0  0  0
   15.5284   72.5520   -7.5251 O   0  0  0  0  0  0  0  0  0  0  0  0
   17.2748   73.9064   -6.9638 O   0  0  0  0  0  0  0  0  0  0  0  0
   16.7193   72.8185   -6.9337 C   0  0  0  0  0  0  0  0  0  0  0  0
  1  4  1  0
  1 24  1  0
  1  2  1  6
  1  3  2  0
 25 28  1  0
 25 24  1  0
 25 26  1  1
 25 27  2  0
  6 11  1  0
  6 12  1  0
 29 36  1  0
 29 37  1  0
  9  7  1  1
  7 13  1  0
 10  8  1  1
  8 14  1  0
  4  5  1  0
 36 28  1  6
 33 30  1  1
 30 38  1  0
 34 31  1  1
 31 39  1  0
 35 32  1  6
 32 40  1  0
 41 43  1  0
 15 19  2  0
 42 43  2  0
 16 22  2  0
 12 17  1  6
 17 19  1  0
 17 20  1  0
 18 19  1  0
 18 22  1  0
 18 23  1  0
  9 10  1  0
  9 11  1  0
 10 12  1  0
 11  5  1  1
 33 34  1  0
 33 35  1  0
 34 36  1  0
 35 37  1  0
 37 43  1  6
 20 21  2  0
 21 22  1  0
M  CHG  3   2  -1  26  -1  41  -1
M  END
>  <COMPND>  (460) 
    udp_gluA.pdb 

>  <AUTHOR>  (460) 
    GENERATED BY OPEN BABEL 3.1.1

>  <MASTER>  (460) 
        0    0    0    0    0    0    0    0   56    0   56    0

>  <minimizedAffinity>  (460) 
-7.21371

>  <CNNscore>  (460) 
0.4406309426

>  <CNNaffinity>  (460) 
4.0829243660

>  <CNN_VS>  (460) 
1.7990628481

>  <CNNaffinity_variance>  (460) 
0.1776737273

$$$$
461
     RDKit          3D

 43 45  0  0  0  0  0  0  0  0999 V2000
   22.3121   71.6594   -2.9872 P   0  0  2  0  0  0  0  0  0  0  0  0
   23.6785   71.7240   -3.8518 O   0  0  0  0  0  0  0  0  0  0  0  0
   22.3752   70.7887   -1.7667 O   0  0  0  0  0  0  0  0  0  0  0  0
   21.1822   71.2631   -4.0755 O   0  0  0  0  0  0  0  0  0  0  0  0
   20.2716   70.2265   -3.7578 C   0  0  0  0  0  0  0  0  0  0  0  0
   18.5653   71.5058   -4.8665 O   0  0  0  0  0  0  0  0  0  0  0  0
   16.6647   70.3798   -2.8388 O   0  0  0  0  0  0  0  0  0  0  0  0
   16.1738   68.8400   -5.0352 O   0  0  0  0  0  0  0  0  0  0  0  0
   17.7876   69.7605   -3.4666 C   0  0  1  0  0  0  0  0  0  0  0  0
   17.4586   69.4112   -4.9025 C   0  0  2  0  0  0  0  0  0  0  0  0
   18.8722   70.8156   -3.6358 C   0  0  1  0  0  0  0  0  0  0  0  0
   17.5721   70.7614   -5.5895 C   0  0  2  0  0  0  0  0  0  0  0  0
   15.9584   69.7250   -2.7201 H   0  0  0  0  0  0  0  0  0  0  0  0
   16.1530   67.9822   -4.5816 H   0  0  0  0  0  0  0  0  0  0  0  0
   15.8054   70.3312   -7.7505 O   0  0  0  0  0  0  0  0  0  0  0  0
   19.2541   70.3347  -10.8083 O   0  0  0  0  0  0  0  0  0  0  0  0
   17.9815   70.6460   -6.9606 N   0  0  0  0  0  0  0  0  0  0  0  0
   17.5248   70.3323   -9.2713 N   0  0  0  0  0  0  0  0  0  0  0  0
   17.0140   70.4302   -7.9703 C   0  0  0  0  0  0  0  0  0  0  0  0
   19.3267   70.7481   -7.2937 C   0  0  0  0  0  0  0  0  0  0  0  0
   19.7984   70.6528   -8.5384 C   0  0  0  0  0  0  0  0  0  0  0  0
   18.8537   70.4266   -9.6518 C   0  0  0  0  0  0  0  0  0  0  0  0
   16.8705   70.1800   -9.9910 H   0  0  0  0  0  0  0  0  0  0  0  0
   21.9980   73.2165   -2.6880 O   0  0  0  0  0  0  0  0  0  0  0  0
   21.2744   74.3459   -3.5905 P   0  0  2  0  0  0  0  0  0  0  0  0
   21.8176   75.7317   -2.9545 O   0  0  0  0  0  0  0  0  0  0  0  0
   19.7782   74.2314   -3.6371 O   0  0  0  0  0  0  0  0  0  0  0  0
   21.9985   74.2465   -5.0286 O   0  0  0  0  0  0  0  0  0  0  0  0
   20.6613   75.1766   -6.7479 O   0  0  0  0  0  0  0  0  0  0  0  0
   23.8095   73.5862   -8.8990 O   0  0  0  0  0  0  0  0  0  0  0  0
   22.6322   72.0982   -6.6776 O   0  0  0  0  0  0  0  0  0  0  0  0
   23.6444   76.4550   -8.4593 O   0  0  0  0  0  0  0  0  0  0  0  0
   23.1753   74.1935   -7.7734 C   0  0  2  0  0  0  0  0  0  0  0  0
   22.0716   73.2740   -7.2501 C   0  0  2  0  0  0  0  0  0  0  0  0
   22.5838   75.5298   -8.2279 C   0  0  1  0  0  0  0  0  0  0  0  0
   21.2216   73.9846   -6.1959 C   0  0  1  0  0  0  0  0  0  0  0  0
   21.6492   76.1132   -7.1721 C   0  0  1  0  0  0  0  0  0  0  0  0
   24.1928   72.7352   -8.6341 H   0  0  0  0  0  0  0  0  0  0  0  0
   23.1731   71.6424   -7.3410 H   0  0  0  0  0  0  0  0  0  0  0  0
   24.2466   76.0956   -9.1294 H   0  0  0  0  0  0  0  0  0  0  0  0
   21.3799   78.4283   -7.4351 O   0  0  0  0  0  0  0  0  0  0  0  0
   19.8129   77.0826   -8.4008 O   0  0  0  0  0  0  0  0  0  0  0  0
   20.8327   77.2264   -7.7434 C   0  0  0  0  0  0  0  0  0  0  0  0
  1  4  1  0
  1 24  1  0
  1  2  1  6
  1  3  2  0
 25 28  1  0
 25 24  1  0
 25 26  1  1
 25 27  2  0
  6 11  1  0
  6 12  1  0
 29 36  1  0
 29 37  1  0
  9  7  1  6
  7 13  1  0
 10  8  1  1
  8 14  1  0
  4  5  1  0
 36 28  1  1
 33 30  1  6
 30 38  1  0
 34 31  1  1
 31 39  1  0
 35 32  1  1
 32 40  1  0
 41 43  1  0
 15 19  2  0
 42 43  2  0
 16 22  2  0
 12 17  1  6
 17 19  1  0
 17 20  1  0
 18 19  1  0
 18 22  1  0
 18 23  1  0
  9 10  1  0
  9 11  1  0
 10 12  1  0
 11  5  1  6
 33 34  1  0
 33 35  1  0
 34 36  1  0
 35 37  1  0
 37 43  1  6
 20 21  2  0
 21 22  1  0
M  CHG  3   2  -1  26  -1  41  -1
M  END
>  <COMPND>  (461) 
    udp_gluA.pdb 

>  <AUTHOR>  (461) 
    GENERATED BY OPEN BABEL 3.1.1

>  <MASTER>  (461) 
        0    0    0    0    0    0    0    0   56    0   56    0

>  <minimizedAffinity>  (461) 
-6.96035

>  <CNNscore>  (461) 
0.9236287475

>  <CNNaffinity>  (461) 
4.7557492256

>  <CNN_VS>  (461) 
4.3925466537

>  <CNNaffinity_variance>  (461) 
0.2031776607

$$$$
462
     RDKit          3D

 43 45  0  0  0  0  0  0  0  0999 V2000
   22.1857   71.4879   -3.0460 P   0  0  2  0  0  0  0  0  0  0  0  0
   21.6555   73.0066   -2.8696 O   0  0  0  0  0  0  0  0  0  0  0  0
   23.6495   71.3592   -3.3503 O   0  0  0  0  0  0  0  0  0  0  0  0
   21.1814   70.8507   -4.1429 O   0  0  0  0  0  0  0  0  0  0  0  0
   20.2342   69.8895   -3.7146 C   0  0  0  0  0  0  0  0  0  0  0  0
   18.6189   71.3201   -4.7737 O   0  0  0  0  0  0  0  0  0  0  0  0
   16.6401   70.2370   -2.7981 O   0  0  0  0  0  0  0  0  0  0  0  0
   16.0621   68.8227   -5.0569 O   0  0  0  0  0  0  0  0  0  0  0  0
   17.7240   69.5728   -3.4482 C   0  0  1  0  0  0  0  0  0  0  0  0
   17.3803   69.3042   -4.8980 C   0  0  2  0  0  0  0  0  0  0  0  0
   18.8749   70.5619   -3.5717 C   0  0  1  0  0  0  0  0  0  0  0  0
   17.5835   70.6712   -5.5288 C   0  0  2  0  0  0  0  0  0  0  0  0
   15.8927   69.6247   -2.7079 H   0  0  0  0  0  0  0  0  0  0  0  0
   15.9840   67.9503   -4.6388 H   0  0  0  0  0  0  0  0  0  0  0  0
   15.8102   70.3305   -7.7005 O   0  0  0  0  0  0  0  0  0  0  0  0
   19.2595   70.3559  -10.7575 O   0  0  0  0  0  0  0  0  0  0  0  0
   17.9912   70.5856   -6.9026 N   0  0  0  0  0  0  0  0  0  0  0  0
   17.5299   70.3425   -9.2209 N   0  0  0  0  0  0  0  0  0  0  0  0
   17.0205   70.4141   -7.9177 C   0  0  0  0  0  0  0  0  0  0  0  0
   19.3381   70.6730   -7.2331 C   0  0  0  0  0  0  0  0  0  0  0  0
   19.8085   70.6031   -8.4799 C   0  0  0  0  0  0  0  0  0  0  0  0
   18.8604   70.4236   -9.5989 C   0  0  0  0  0  0  0  0  0  0  0  0
   16.8733   70.2212   -9.9444 H   0  0  0  0  0  0  0  0  0  0  0  0
   21.7190   70.7785   -1.6706 O   0  0  0  0  0  0  0  0  0  0  0  0
   21.2944   71.4073   -0.2430 P   0  0  2  0  0  0  0  0  0  0  0  0
   21.5144   70.1753    0.7838 O   0  0  0  0  0  0  0  0  0  0  0  0
   19.9137   71.9961   -0.2156 O   0  0  0  0  0  0  0  0  0  0  0  0
   22.4738   72.4490    0.1124 O   0  0  0  0  0  0  0  0  0  0  0  0
   22.1808   73.5919    2.1660 O   0  0  0  0  0  0  0  0  0  0  0  0
   25.3723   75.6319    0.5165 O   0  0  0  0  0  0  0  0  0  0  0  0
   23.0967   74.8523   -1.1414 O   0  0  0  0  0  0  0  0  0  0  0  0
   25.8118   73.7340    2.6742 O   0  0  0  0  0  0  0  0  0  0  0  0
   24.5428   74.4990    0.7744 C   0  0  2  0  0  0  0  0  0  0  0  0
   23.1239   74.7804    0.2794 C   0  0  2  0  0  0  0  0  0  0  0  0
   24.5401   74.2487    2.2841 C   0  0  1  0  0  0  0  0  0  0  0  0
   22.1568   73.6894    0.7415 C   0  0  1  0  0  0  0  0  0  0  0  0
   23.4640   73.2418    2.6799 C   0  0  1  0  0  0  0  0  0  0  0  0
   25.3893   75.8100   -0.4371 H   0  0  0  0  0  0  0  0  0  0  0  0
   23.7083   75.5425   -1.4415 H   0  0  0  0  0  0  0  0  0  0  0  0
   26.5057   74.3654    2.4277 H   0  0  0  0  0  0  0  0  0  0  0  0
   23.8824   74.3042    4.7288 O   0  0  0  0  0  0  0  0  0  0  0  0
   22.5879   72.4278    4.7754 O   0  0  0  0  0  0  0  0  0  0  0  0
   23.2472   73.2508    4.1582 C   0  0  0  0  0  0  0  0  0  0  0  0
  1  4  1  0
  1 24  1  0
  1  2  1  1
  1  3  2  0
 25 28  1  0
 25 24  1  0
 25 26  1  1
 25 27  2  0
  6 11  1  0
  6 12  1  0
 29 36  1  0
 29 37  1  0
  9  7  1  1
  7 13  1  0
 10  8  1  1
  8 14  1  0
  4  5  1  0
 36 28  1  6
 33 30  1  1
 30 38  1  0
 34 31  1  6
 31 39  1  0
 35 32  1  6
 32 40  1  0
 41 43  1  0
 15 19  2  0
 42 43  2  0
 16 22  2  0
 12 17  1  6
 17 19  1  0
 17 20  1  0
 18 19  1  0
 18 22  1  0
 18 23  1  0
  9 10  1  0
  9 11  1  0
 10 12  1  0
 11  5  1  6
 33 34  1  0
 33 35  1  0
 34 36  1  0
 35 37  1  0
 37 43  1  1
 20 21  2  0
 21 22  1  0
M  CHG  3   2  -1  26  -1  41  -1
M  END
>  <COMPND>  (462) 
    udp_gluA.pdb 

>  <AUTHOR>  (462) 
    GENERATED BY OPEN BABEL 3.1.1

>  <MASTER>  (462) 
        0    0    0    0    0    0    0    0   56    0   56    0

>  <minimizedAffinity>  (462) 
-7.61447

>  <CNNscore>  (462) 
0.9197084308

>  <CNNaffinity>  (462) 
4.7706289291

>  <CNN_VS>  (462) 
4.3875875473

>  <CNNaffinity_variance>  (462) 
0.0404645726

$$$$
463
     RDKit          3D

 43 45  0  0  0  0  0  0  0  0999 V2000
   22.5818   72.3300   -4.2646 P   0  0  2  0  0  0  0  0  0  0  0  0
   23.0720   72.5259   -5.7944 O   0  0  0  0  0  0  0  0  0  0  0  0
   23.2598   71.2178   -3.5196 O   0  0  0  0  0  0  0  0  0  0  0  0
   20.9721   72.2167   -4.3840 O   0  0  0  0  0  0  0  0  0  0  0  0
   20.3265   71.1060   -3.7891 C   0  0  0  0  0  0  0  0  0  0  0  0
   18.3796   71.9003   -4.9537 O   0  0  0  0  0  0  0  0  0  0  0  0
   16.7763   70.5850   -2.7879 O   0  0  0  0  0  0  0  0  0  0  0  0
   16.5990   68.7908   -4.8337 O   0  0  0  0  0  0  0  0  0  0  0  0
   17.9982   70.1605   -3.3921 C   0  0  1  0  0  0  0  0  0  0  0  0
   17.7366   69.6262   -4.7844 C   0  0  2  0  0  0  0  0  0  0  0  0
   18.8359   71.3993   -3.6785 C   0  0  1  0  0  0  0  0  0  0  0  0
   17.5580   70.9051   -5.5846 C   0  0  2  0  0  0  0  0  0  0  0  0
   16.2241   69.8105   -2.5956 H   0  0  0  0  0  0  0  0  0  0  0  0
   16.7626   67.9905   -4.3096 H   0  0  0  0  0  0  0  0  0  0  0  0
   15.8227   70.2336   -7.7093 O   0  0  0  0  0  0  0  0  0  0  0  0
   19.2477   70.3676  -10.7907 O   0  0  0  0  0  0  0  0  0  0  0  0
   17.9698   70.7580   -6.9519 N   0  0  0  0  0  0  0  0  0  0  0  0
   17.5304   70.3000   -9.2418 N   0  0  0  0  0  0  0  0  0  0  0  0
   17.0187   70.4182   -7.9429 C   0  0  0  0  0  0  0  0  0  0  0  0
   19.3011   70.9513   -7.3000 C   0  0  0  0  0  0  0  0  0  0  0  0
   19.7739   70.8352   -8.5424 C   0  0  0  0  0  0  0  0  0  0  0  0
   18.8459   70.4818   -9.6367 C   0  0  0  0  0  0  0  0  0  0  0  0
   16.8875   70.0621   -9.9485 H   0  0  0  0  0  0  0  0  0  0  0  0
   22.7962   73.7984   -3.6239 O   0  0  0  0  0  0  0  0  0  0  0  0
   24.0808   74.4648   -2.9032 P   0  0  2  0  0  0  0  0  0  0  0  0
   23.5918   75.9780   -2.6008 O   0  0  0  0  0  0  0  0  0  0  0  0
   25.3503   74.3726   -3.6994 O   0  0  0  0  0  0  0  0  0  0  0  0
   24.1475   73.7610   -1.4531 O   0  0  0  0  0  0  0  0  0  0  0  0
   22.1899   73.3464   -0.1862 O   0  0  0  0  0  0  0  0  0  0  0  0
   25.1226   73.1790    2.7189 O   0  0  0  0  0  0  0  0  0  0  0  0
   25.2017   75.2420    0.6519 O   0  0  0  0  0  0  0  0  0  0  0  0
   23.9096   70.7303    1.7272 O   0  0  0  0  0  0  0  0  0  0  0  0
   24.5748   73.0241    1.4097 C   0  0  2  0  0  0  0  0  0  0  0  0
   24.0951   74.3803    0.8920 C   0  0  2  0  0  0  0  0  0  0  0  0
   23.4029   72.0442    1.5003 C   0  0  1  0  0  0  0  0  0  0  0  0
   23.2980   74.2206   -0.4034 C   0  0  1  0  0  0  0  0  0  0  0  0
   22.5833   72.0353    0.2132 C   0  0  1  0  0  0  0  0  0  0  0  0
   25.8691   73.7977    2.6861 H   0  0  0  0  0  0  0  0  0  0  0  0
   25.7121   75.3475    1.4697 H   0  0  0  0  0  0  0  0  0  0  0  0
   24.4333   70.7222    2.5435 H   0  0  0  0  0  0  0  0  0  0  0  0
   20.7865   71.6046    1.6581 O   0  0  0  0  0  0  0  0  0  0  0  0
   20.7179   70.6354   -0.4047 O   0  0  0  0  0  0  0  0  0  0  0  0
   21.2764   71.3417    0.4212 C   0  0  0  0  0  0  0  0  0  0  0  0
  1  4  1  0
  1 24  1  0
  1  2  1  6
  1  3  2  0
 25 28  1  0
 25 24  1  0
 25 26  1  1
 25 27  2  0
  6 11  1  0
  6 12  1  0
 29 36  1  0
 29 37  1  0
  9  7  1  6
  7 13  1  0
 10  8  1  1
  8 14  1  0
  4  5  1  0
 36 28  1  6
 33 30  1  1
 30 38  1  0
 34 31  1  6
 31 39  1  0
 35 32  1  6
 32 40  1  0
 41 43  1  0
 15 19  2  0
 42 43  2  0
 16 22  2  0
 12 17  1  6
 17 19  1  0
 17 20  1  0
 18 19  1  0
 18 22  1  0
 18 23  1  0
  9 10  1  0
  9 11  1  0
 10 12  1  0
 11  5  1  6
 33 34  1  0
 33 35  1  0
 34 36  1  0
 35 37  1  0
 37 43  1  1
 20 21  2  0
 21 22  1  0
M  CHG  3   2  -1  26  -1  41  -1
M  END
>  <COMPND>  (463) 
    udp_gluA.pdb 

>  <AUTHOR>  (463) 
    GENERATED BY OPEN BABEL 3.1.1

>  <MASTER>  (463) 
        0    0    0    0    0    0    0    0   56    0   56    0

>  <minimizedAffinity>  (463) 
-7.79331

>  <CNNscore>  (463) 
0.9052616358

>  <CNNaffinity>  (463) 
4.8163104057

>  <CNN_VS>  (463) 
4.3600211143

>  <CNNaffinity_variance>  (463) 
0.1011640877

$$$$
464
     RDKit          3D

 43 45  0  0  0  0  0  0  0  0999 V2000
   22.9827   71.3272   -2.2531 P   0  0  2  0  0  0  0  0  0  0  0  0
   22.6622   72.9042   -2.4241 O   0  0  0  0  0  0  0  0  0  0  0  0
   24.2290   70.8554   -2.9429 O   0  0  0  0  0  0  0  0  0  0  0  0
   21.6103   70.6004   -2.7072 O   0  0  0  0  0  0  0  0  0  0  0  0
   20.9877   71.0207   -3.9073 C   0  0  0  0  0  0  0  0  0  0  0  0
   18.9331   71.8560   -4.8339 O   0  0  0  0  0  0  0  0  0  0  0  0
   17.5695   70.5573   -2.5003 O   0  0  0  0  0  0  0  0  0  0  0  0
   17.1219   68.7781   -4.5177 O   0  0  0  0  0  0  0  0  0  0  0  0
   18.7047   70.1146   -3.2446 C   0  0  1  0  0  0  0  0  0  0  0  0
   18.2726   69.5929   -4.5986 C   0  0  2  0  0  0  0  0  0  0  0  0
   19.5258   71.3398   -3.6224 C   0  0  1  0  0  0  0  0  0  0  0  0
   18.0254   70.8793   -5.3680 C   0  0  2  0  0  0  0  0  0  0  0  0
   17.0295   69.7917   -2.2476 H   0  0  0  0  0  0  0  0  0  0  0  0
   17.3309   67.9721   -4.0191 H   0  0  0  0  0  0  0  0  0  0  0  0
   16.0911   70.0411   -7.2475 O   0  0  0  0  0  0  0  0  0  0  0  0
   19.0836   70.3518  -10.7392 O   0  0  0  0  0  0  0  0  0  0  0  0
   18.2721   70.7325   -6.7746 N   0  0  0  0  0  0  0  0  0  0  0  0
   17.5836   70.1957   -8.9846 N   0  0  0  0  0  0  0  0  0  0  0  0
   17.2316   70.3050   -7.6329 C   0  0  0  0  0  0  0  0  0  0  0  0
   19.5316   71.0122   -7.2908 C   0  0  0  0  0  0  0  0  0  0  0  0
   19.8520   70.9035   -8.5816 C   0  0  0  0  0  0  0  0  0  0  0  0
   18.8224   70.4619   -9.5451 C   0  0  0  0  0  0  0  0  0  0  0  0
   16.8763   69.8977   -9.6012 H   0  0  0  0  0  0  0  0  0  0  0  0
   22.9850   71.1293   -0.6488 O   0  0  0  0  0  0  0  0  0  0  0  0
   21.8265   71.3724    0.4524 P   0  0  2  0  0  0  0  0  0  0  0  0
   21.6849   69.9262    1.1656 O   0  0  0  0  0  0  0  0  0  0  0  0
   20.5441   71.9119   -0.1118 O   0  0  0  0  0  0  0  0  0  0  0  0
   22.5141   72.3116    1.5693 O   0  0  0  0  0  0  0  0  0  0  0  0
   24.3316   71.4584    2.8254 O   0  0  0  0  0  0  0  0  0  0  0  0
   23.2114   74.7311    5.0842 O   0  0  0  0  0  0  0  0  0  0  0  0
   21.1895   72.9700    3.9247 O   0  0  0  0  0  0  0  0  0  0  0  0
   25.5921   74.8524    3.4203 O   0  0  0  0  0  0  0  0  0  0  0  0
   23.3970   73.9758    3.8871 C   0  0  2  0  0  0  0  0  0  0  0  0
   22.5828   72.6841    3.9656 C   0  0  2  0  0  0  0  0  0  0  0  0
   24.8880   73.6579    3.7548 C   0  0  1  0  0  0  0  0  0  0  0  0
   22.9328   71.7457    2.8099 C   0  0  1  0  0  0  0  0  0  0  0  0
   25.1419   72.6206    2.6648 C   0  0  1  0  0  0  0  0  0  0  0  0
   22.2709   74.9448    5.1895 H   0  0  0  0  0  0  0  0  0  0  0  0
   20.9604   73.5653    4.6551 H   0  0  0  0  0  0  0  0  0  0  0  0
   25.4388   75.5209    4.1062 H   0  0  0  0  0  0  0  0  0  0  0  0
   26.6122   70.8625    2.1657 O   0  0  0  0  0  0  0  0  0  0  0  0
   27.4691   72.6444    3.3013 O   0  0  0  0  0  0  0  0  0  0  0  0
   26.5304   72.0775    2.7624 C   0  0  0  0  0  0  0  0  0  0  0  0
  1  4  1  0
  1 24  1  0
  1  2  1  1
  1  3  2  0
 25 28  1  0
 25 24  1  0
 25 26  1  1
 25 27  2  0
  6 11  1  0
  6 12  1  0
 29 36  1  0
 29 37  1  0
  9  7  1  1
  7 13  1  0
 10  8  1  1
  8 14  1  0
  4  5  1  0
 36 28  1  6
 33 30  1  1
 30 38  1  0
 34 31  1  6
 31 39  1  0
 35 32  1  6
 32 40  1  0
 41 43  1  0
 15 19  2  0
 42 43  2  0
 16 22  2  0
 12 17  1  6
 17 19  1  0
 17 20  1  0
 18 19  1  0
 18 22  1  0
 18 23  1  0
  9 10  1  0
  9 11  1  0
 10 12  1  0
 11  5  1  6
 33 34  1  0
 33 35  1  0
 34 36  1  0
 35 37  1  0
 37 43  1  1
 20 21  2  0
 21 22  1  0
M  CHG  3   2  -1  26  -1  41  -1
M  END
>  <COMPND>  (464) 
    udp_gluA.pdb 

>  <AUTHOR>  (464) 
    GENERATED BY OPEN BABEL 3.1.1

>  <MASTER>  (464) 
        0    0    0    0    0    0    0    0   56    0   56    0

>  <minimizedAffinity>  (464) 
-8.29073

>  <CNNscore>  (464) 
0.9003133178

>  <CNNaffinity>  (464) 
4.6751723289

>  <CNN_VS>  (464) 
4.2091197968

>  <CNNaffinity_variance>  (464) 
0.0873385891

$$$$
465
     RDKit          3D

 43 45  0  0  0  0  0  0  0  0999 V2000
   20.5011   71.2487   -1.4072 P   0  0  2  0  0  0  0  0  0  0  0  0
   21.0529   70.5120   -0.0761 O   0  0  0  0  0  0  0  0  0  0  0  0
   20.0133   72.6523   -1.1985 O   0  0  0  0  0  0  0  0  0  0  0  0
   19.4149   70.2089   -2.0047 O   0  0  0  0  0  0  0  0  0  0  0  0
   19.1046   70.2739   -3.3846 C   0  0  0  0  0  0  0  0  0  0  0  0
   17.4757   71.3472   -4.7889 O   0  0  0  0  0  0  0  0  0  0  0  0
   15.4113   69.8032   -3.2573 O   0  0  0  0  0  0  0  0  0  0  0  0
   15.6468   68.3614   -5.5599 O   0  0  0  0  0  0  0  0  0  0  0  0
   16.7264   69.4100   -3.6502 C   0  0  1  0  0  0  0  0  0  0  0  0
   16.7635   69.1141   -5.1345 C   0  0  2  0  0  0  0  0  0  0  0  0
   17.6322   70.6294   -3.5457 C   0  0  1  0  0  0  0  0  0  0  0  0
   16.7907   70.5098   -5.7338 C   0  0  2  0  0  0  0  0  0  0  0  0
   14.8144   69.0404   -3.3159 H   0  0  0  0  0  0  0  0  0  0  0  0
   15.6753   67.4815   -5.1514 H   0  0  0  0  0  0  0  0  0  0  0  0
   15.5274   70.5539   -8.2594 O   0  0  0  0  0  0  0  0  0  0  0  0
   19.5644   70.6798  -10.4799 O   0  0  0  0  0  0  0  0  0  0  0  0
   17.4875   70.5541   -6.9881 N   0  0  0  0  0  0  0  0  0  0  0  0
   17.5392   70.6155   -9.3629 N   0  0  0  0  0  0  0  0  0  0  0  0
   16.7582   70.5730   -8.2005 C   0  0  0  0  0  0  0  0  0  0  0  0
   18.8767   70.5801   -7.0092 C   0  0  0  0  0  0  0  0  0  0  0  0
   19.6073   70.6207   -8.1252 C   0  0  0  0  0  0  0  0  0  0  0  0
   18.9226   70.6420   -9.4344 C   0  0  0  0  0  0  0  0  0  0  0  0
   17.0539   70.6273  -10.2194 H   0  0  0  0  0  0  0  0  0  0  0  0
   21.7394   71.1124   -2.4371 O   0  0  0  0  0  0  0  0  0  0  0  0
   23.0515   72.0332   -2.6473 P   0  0  2  0  0  0  0  0  0  0  0  0
   24.1489   70.9888   -3.2176 O   0  0  0  0  0  0  0  0  0  0  0  0
   23.4857   72.7764   -1.4172 O   0  0  0  0  0  0  0  0  0  0  0  0
   22.6928   72.9752   -3.9069 O   0  0  0  0  0  0  0  0  0  0  0  0
   20.4098   73.3603   -4.4055 O   0  0  0  0  0  0  0  0  0  0  0  0
   22.2539   74.6256   -7.8792 O   0  0  0  0  0  0  0  0  0  0  0  0
   23.1388   72.1865   -6.5366 O   0  0  0  0  0  0  0  0  0  0  0  0
   21.2324   76.5722   -5.9770 O   0  0  0  0  0  0  0  0  0  0  0  0
   22.1371   74.3954   -6.4751 C   0  0  2  0  0  0  0  0  0  0  0  0
   21.9505   72.9003   -6.2154 C   0  0  2  0  0  0  0  0  0  0  0  0
   20.9252   75.1793   -5.9665 C   0  0  1  0  0  0  0  0  0  0  0  0
   21.5933   72.6398   -4.7514 C   0  0  1  0  0  0  0  0  0  0  0  0
   20.5556   74.7720   -4.5432 C   0  0  1  0  0  0  0  0  0  0  0  0
   23.0176   74.1371   -8.2247 H   0  0  0  0  0  0  0  0  0  0  0  0
   23.3714   72.3476   -7.4641 H   0  0  0  0  0  0  0  0  0  0  0  0
   21.4695   76.8442   -6.8773 H   0  0  0  0  0  0  0  0  0  0  0  0
   18.4438   74.2997   -3.6382 O   0  0  0  0  0  0  0  0  0  0  0  0
   18.8203   76.4360   -4.3407 O   0  0  0  0  0  0  0  0  0  0  0  0
   19.2009   75.2863   -4.1791 C   0  0  0  0  0  0  0  0  0  0  0  0
  1  4  1  0
  1 24  1  0
  1  2  1  1
  1  3  2  0
 25 28  1  0
 25 24  1  0
 25 26  1  6
 25 27  2  0
  6 11  1  0
  6 12  1  0
 29 36  1  0
 29 37  1  0
  9  7  1  6
  7 13  1  0
 10  8  1  6
  8 14  1  0
  4  5  1  0
 36 28  1  1
 33 30  1  6
 30 38  1  0
 34 31  1  1
 31 39  1  0
 35 32  1  1
 32 40  1  0
 41 43  1  0
 15 19  2  0
 42 43  2  0
 16 22  2  0
 12 17  1  6
 17 19  1  0
 17 20  1  0
 18 19  1  0
 18 22  1  0
 18 23  1  0
  9 10  1  0
  9 11  1  0
 10 12  1  0
 11  5  1  6
 33 34  1  0
 33 35  1  0
 34 36  1  0
 35 37  1  0
 37 43  1  6
 20 21  2  0
 21 22  1  0
M  CHG  3   2  -1  26  -1  41  -1
M  END
>  <COMPND>  (465) 
    udp_gluA.pdb 

>  <AUTHOR>  (465) 
    GENERATED BY OPEN BABEL 3.1.1

>  <MASTER>  (465) 
        0    0    0    0    0    0    0    0   56    0   56    0

>  <minimizedAffinity>  (465) 
-7.93547

>  <CNNscore>  (465) 
0.8939743042

>  <CNNaffinity>  (465) 
4.6973485947

>  <CNN_VS>  (465) 
4.1993088722

>  <CNNaffinity_variance>  (465) 
0.8111832738

$$$$
466
     RDKit          3D

 43 45  0  0  0  0  0  0  0  0999 V2000
   22.9525   71.3975   -2.3097 P   0  0  2  0  0  0  0  0  0  0  0  0
   22.5705   72.9152   -2.7214 O   0  0  0  0  0  0  0  0  0  0  0  0
   24.1904   70.8564   -2.9629 O   0  0  0  0  0  0  0  0  0  0  0  0
   21.5921   70.5661   -2.5850 O   0  0  0  0  0  0  0  0  0  0  0  0
   20.9229   70.7538   -3.8185 C   0  0  0  0  0  0  0  0  0  0  0  0
   18.9208   71.7098   -4.7435 O   0  0  0  0  0  0  0  0  0  0  0  0
   17.4651   70.3820   -2.4831 O   0  0  0  0  0  0  0  0  0  0  0  0
   16.9781   68.7012   -4.5745 O   0  0  0  0  0  0  0  0  0  0  0  0
   18.5933   69.9203   -3.2264 C   0  0  1  0  0  0  0  0  0  0  0  0
   18.1629   69.4692   -4.6061 C   0  0  2  0  0  0  0  0  0  0  0  0
   19.4708   71.1234   -3.5439 C   0  0  1  0  0  0  0  0  0  0  0  0
   17.9824   70.7932   -5.3289 C   0  0  2  0  0  0  0  0  0  0  0  0
   16.8894   69.6308   -2.2685 H   0  0  0  0  0  0  0  0  0  0  0  0
   17.1449   67.8687   -4.1043 H   0  0  0  0  0  0  0  0  0  0  0  0
   16.0402   70.1396   -7.2723 O   0  0  0  0  0  0  0  0  0  0  0  0
   19.1090   70.4246  -10.6994 O   0  0  0  0  0  0  0  0  0  0  0  0
   18.2466   70.6898   -6.7361 N   0  0  0  0  0  0  0  0  0  0  0  0
   17.5707   70.2812   -8.9772 N   0  0  0  0  0  0  0  0  0  0  0  0
   17.2003   70.3553   -7.6280 C   0  0  0  0  0  0  0  0  0  0  0  0
   19.5288   70.9199   -7.2199 C   0  0  0  0  0  0  0  0  0  0  0  0
   19.8665   70.8456   -8.5087 C   0  0  0  0  0  0  0  0  0  0  0  0
   18.8323   70.5008   -9.5061 C   0  0  0  0  0  0  0  0  0  0  0  0
   16.8596   70.0479   -9.6169 H   0  0  0  0  0  0  0  0  0  0  0  0
   23.0172   71.4646   -0.6960 O   0  0  0  0  0  0  0  0  0  0  0  0
   21.8450   71.6078    0.4082 P   0  0  2  0  0  0  0  0  0  0  0  0
   21.5630   70.0760    0.8491 O   0  0  0  0  0  0  0  0  0  0  0  0
   20.6303   72.3457   -0.0754 O   0  0  0  0  0  0  0  0  0  0  0  0
   22.5673   72.2734    1.6879 O   0  0  0  0  0  0  0  0  0  0  0  0
   21.2761   74.0976    2.4720 O   0  0  0  0  0  0  0  0  0  0  0  0
   24.5432   74.2332    4.9970 O   0  0  0  0  0  0  0  0  0  0  0  0
   24.8979   73.7217    2.1427 O   0  0  0  0  0  0  0  0  0  0  0  0
   22.0023   73.1934    5.9530 O   0  0  0  0  0  0  0  0  0  0  0  0
   23.5635   73.6108    4.1659 C   0  0  2  0  0  0  0  0  0  0  0  0
   23.6814   74.1535    2.7415 C   0  0  2  0  0  0  0  0  0  0  0  0
   22.1825   73.9282    4.7438 C   0  0  1  0  0  0  0  0  0  0  0  0
   22.5083   73.6858    1.8789 C   0  0  1  0  0  0  0  0  0  0  0  0
   21.0704   73.5468    3.7710 C   0  0  1  0  0  0  0  0  0  0  0  0
   25.4292   74.0452    4.6492 H   0  0  0  0  0  0  0  0  0  0  0  0
   25.6465   74.0148    2.6850 H   0  0  0  0  0  0  0  0  0  0  0  0
   22.7039   73.4268    6.5808 H   0  0  0  0  0  0  0  0  0  0  0  0
   19.8320   74.5796    5.4742 O   0  0  0  0  0  0  0  0  0  0  0  0
   18.7814   74.2507    3.4774 O   0  0  0  0  0  0  0  0  0  0  0  0
   19.7695   74.1508    4.1893 C   0  0  0  0  0  0  0  0  0  0  0  0
  1  4  1  0
  1 24  1  0
  1  2  1  6
  1  3  2  0
 25 28  1  0
 25 24  1  0
 25 26  1  1
 25 27  2  0
  6 11  1  0
  6 12  1  0
 29 36  1  0
 29 37  1  0
  9  7  1  1
  7 13  1  0
 10  8  1  1
  8 14  1  0
  4  5  1  0
 36 28  1  1
 33 30  1  1
 30 38  1  0
 34 31  1  6
 31 39  1  0
 35 32  1  1
 32 40  1  0
 41 43  1  0
 15 19  2  0
 42 43  2  0
 16 22  2  0
 12 17  1  6
 17 19  1  0
 17 20  1  0
 18 19  1  0
 18 22  1  0
 18 23  1  0
  9 10  1  0
  9 11  1  0
 10 12  1  0
 11  5  1  6
 33 34  1  0
 33 35  1  0
 34 36  1  0
 35 37  1  0
 37 43  1  1
 20 21  2  0
 21 22  1  0
M  CHG  3   2  -1  26  -1  41  -1
M  END
>  <COMPND>  (466) 
    udp_gluA.pdb 

>  <AUTHOR>  (466) 
    GENERATED BY OPEN BABEL 3.1.1

>  <MASTER>  (466) 
        0    0    0    0    0    0    0    0   56    0   56    0

>  <minimizedAffinity>  (466) 
-7.77213

>  <CNNscore>  (466) 
0.8809905648

>  <CNNaffinity>  (466) 
4.6686859131

>  <CNN_VS>  (466) 
4.1130681038

>  <CNNaffinity_variance>  (466) 
0.0508202091

$$$$
467
     RDKit          3D

 43 45  0  0  0  0  0  0  0  0999 V2000
   20.7344   72.6850   -3.3961 P   0  0  2  0  0  0  0  0  0  0  0  0
   20.1483   72.8243   -1.8941 O   0  0  0  0  0  0  0  0  0  0  0  0
   21.1004   73.9820   -4.0562 O   0  0  0  0  0  0  0  0  0  0  0  0
   19.6244   71.7938   -4.1652 O   0  0  0  0  0  0  0  0  0  0  0  0
   18.9547   70.7770   -3.4428 C   0  0  0  0  0  0  0  0  0  0  0  0
   17.2343   71.4980   -4.9587 O   0  0  0  0  0  0  0  0  0  0  0  0
   15.3465   69.8609   -3.3011 O   0  0  0  0  0  0  0  0  0  0  0  0
   15.8062   68.2464   -5.4501 O   0  0  0  0  0  0  0  0  0  0  0  0
   16.7081   69.6001   -3.6428 C   0  0  1  0  0  0  0  0  0  0  0  0
   16.8120   69.1704   -5.0909 C   0  0  2  0  0  0  0  0  0  0  0  0
   17.4532   70.9278   -3.6501 C   0  0  1  0  0  0  0  0  0  0  0  0
   16.6781   70.4947   -5.8231 C   0  0  2  0  0  0  0  0  0  0  0  0
   14.8502   69.0271   -3.2901 H   0  0  0  0  0  0  0  0  0  0  0  0
   15.9354   67.4202   -4.9575 H   0  0  0  0  0  0  0  0  0  0  0  0
   15.4523   70.7267   -8.3569 O   0  0  0  0  0  0  0  0  0  0  0  0
   19.5069   70.5262  -10.5395 O   0  0  0  0  0  0  0  0  0  0  0  0
   17.3896   70.5059   -7.0699 N   0  0  0  0  0  0  0  0  0  0  0  0
   17.4728   70.6256   -9.4416 N   0  0  0  0  0  0  0  0  0  0  0  0
   16.6787   70.6267   -8.2873 C   0  0  0  0  0  0  0  0  0  0  0  0
   18.7751   70.3998   -7.0787 C   0  0  0  0  0  0  0  0  0  0  0  0
   19.5184   70.4003   -8.1870 C   0  0  0  0  0  0  0  0  0  0  0  0
   18.8531   70.5219   -9.5008 C   0  0  0  0  0  0  0  0  0  0  0  0
   17.0001   70.7065  -10.3014 H   0  0  0  0  0  0  0  0  0  0  0  0
   21.9647   71.6529   -3.2113 O   0  0  0  0  0  0  0  0  0  0  0  0
   23.4277   71.8523   -2.5528 P   0  0  2  0  0  0  0  0  0  0  0  0
   23.8644   73.3258   -3.0611 O   0  0  0  0  0  0  0  0  0  0  0  0
   24.4079   70.7662   -2.8898 O   0  0  0  0  0  0  0  0  0  0  0  0
   23.1451   72.0331   -0.9749 O   0  0  0  0  0  0  0  0  0  0  0  0
   24.3840   70.9144    0.7052 O   0  0  0  0  0  0  0  0  0  0  0  0
   20.8793   71.8100    2.7009 O   0  0  0  0  0  0  0  0  0  0  0  0
   20.8083   70.8388   -0.0533 O   0  0  0  0  0  0  0  0  0  0  0  0
   23.2888   73.3512    3.2201 O   0  0  0  0  0  0  0  0  0  0  0  0
   21.9267   72.0117    1.7521 C   0  0  2  0  0  0  0  0  0  0  0  0
   21.9653   70.8364    0.7750 C   0  0  2  0  0  0  0  0  0  0  0  0
   23.2473   72.1097    2.5192 C   0  0  1  0  0  0  0  0  0  0  0  0
   23.2112   70.9011   -0.1095 C   0  0  1  0  0  0  0  0  0  0  0  0
   24.4454   72.0413    1.5767 C   0  0  1  0  0  0  0  0  0  0  0  0
   20.0301   71.7446    2.2364 H   0  0  0  0  0  0  0  0  0  0  0  0
   20.0140   70.7982    0.5014 H   0  0  0  0  0  0  0  0  0  0  0  0
   22.5314   73.4075    3.8234 H   0  0  0  0  0  0  0  0  0  0  0  0
   26.0339   72.8996    3.0738 O   0  0  0  0  0  0  0  0  0  0  0  0
   26.3619   70.7748    2.3143 O   0  0  0  0  0  0  0  0  0  0  0  0
   25.7081   71.8067    2.3400 C   0  0  0  0  0  0  0  0  0  0  0  0
  1  4  1  0
  1 24  1  0
  1  2  1  1
  1  3  2  0
 25 28  1  0
 25 24  1  0
 25 26  1  6
 25 27  2  0
  6 11  1  0
  6 12  1  0
 29 36  1  0
 29 37  1  0
  9  7  1  6
  7 13  1  0
 10  8  1  6
  8 14  1  0
  4  5  1  0
 36 28  1  1
 33 30  1  1
 30 38  1  0
 34 31  1  6
 31 39  1  0
 35 32  1  6
 32 40  1  0
 41 43  1  0
 15 19  2  0
 42 43  2  0
 16 22  2  0
 12 17  1  6
 17 19  1  0
 17 20  1  0
 18 19  1  0
 18 22  1  0
 18 23  1  0
  9 10  1  0
  9 11  1  0
 10 12  1  0
 11  5  1  6
 33 34  1  0
 33 35  1  0
 34 36  1  0
 35 37  1  0
 37 43  1  1
 20 21  2  0
 21 22  1  0
M  CHG  3   2  -1  26  -1  41  -1
M  END
>  <COMPND>  (467) 
    udp_gluA.pdb 

>  <AUTHOR>  (467) 
    GENERATED BY OPEN BABEL 3.1.1

>  <MASTER>  (467) 
        0    0    0    0    0    0    0    0   56    0   56    0

>  <minimizedAffinity>  (467) 
-8.50760

>  <CNNscore>  (467) 
0.8707092404

>  <CNNaffinity>  (467) 
4.7219533920

>  <CNN_VS>  (467) 
4.1114482880

>  <CNNaffinity_variance>  (467) 
0.1035826653

$$$$
468
     RDKit          3D

 43 45  0  0  0  0  0  0  0  0999 V2000
   22.6889   71.5044   -2.5198 P   0  0  2  0  0  0  0  0  0  0  0  0
   24.0401   70.8562   -3.1306 O   0  0  0  0  0  0  0  0  0  0  0  0
   22.2596   70.9438   -1.1958 O   0  0  0  0  0  0  0  0  0  0  0  0
   21.6147   71.3680   -3.7221 O   0  0  0  0  0  0  0  0  0  0  0  0
   20.6937   70.2933   -3.6873 C   0  0  0  0  0  0  0  0  0  0  0  0
   18.8855   71.5388   -4.6652 O   0  0  0  0  0  0  0  0  0  0  0  0
   17.1560   70.3533   -2.5217 O   0  0  0  0  0  0  0  0  0  0  0  0
   16.5515   68.8174   -4.6923 O   0  0  0  0  0  0  0  0  0  0  0  0
   18.2473   69.7656   -3.2303 C   0  0  1  0  0  0  0  0  0  0  0  0
   17.8286   69.4184   -4.6432 C   0  0  2  0  0  0  0  0  0  0  0  0
   19.2925   70.8476   -3.4645 C   0  0  1  0  0  0  0  0  0  0  0  0
   17.8627   70.7757   -5.3247 C   0  0  2  0  0  0  0  0  0  0  0  0
   16.4751   69.6809   -2.3604 H   0  0  0  0  0  0  0  0  0  0  0  0
   16.5821   67.9563   -4.2457 H   0  0  0  0  0  0  0  0  0  0  0  0
   15.9830   70.1894   -7.3494 O   0  0  0  0  0  0  0  0  0  0  0  0
   19.1901   70.4324  -10.6509 O   0  0  0  0  0  0  0  0  0  0  0  0
   18.1793   70.6797   -6.7217 N   0  0  0  0  0  0  0  0  0  0  0  0
   17.5823   70.3100   -8.9917 N   0  0  0  0  0  0  0  0  0  0  0  0
   17.1610   70.3800   -7.6573 C   0  0  0  0  0  0  0  0  0  0  0  0
   19.4847   70.8829   -7.1525 C   0  0  0  0  0  0  0  0  0  0  0  0
   19.8710   70.8130   -8.4279 C   0  0  0  0  0  0  0  0  0  0  0  0
   18.8686   70.5037   -9.4686 C   0  0  0  0  0  0  0  0  0  0  0  0
   16.8914   70.1006   -9.6612 H   0  0  0  0  0  0  0  0  0  0  0  0
   23.0196   73.0866   -2.5058 O   0  0  0  0  0  0  0  0  0  0  0  0
   22.1307   74.3526   -2.0361 P   0  0  2  0  0  0  0  0  0  0  0  0
   23.2381   75.4011   -1.4933 O   0  0  0  0  0  0  0  0  0  0  0  0
   21.0576   74.0165   -1.0414 O   0  0  0  0  0  0  0  0  0  0  0  0
   21.5904   75.0053   -3.4089 O   0  0  0  0  0  0  0  0  0  0  0  0
   19.3522   75.7673   -3.5460 O   0  0  0  0  0  0  0  0  0  0  0  0
   20.3977   75.5076   -7.5344 O   0  0  0  0  0  0  0  0  0  0  0  0
   21.1917   73.4157   -5.6562 O   0  0  0  0  0  0  0  0  0  0  0  0
   20.2479   78.1018   -6.2311 O   0  0  0  0  0  0  0  0  0  0  0  0
   20.6189   75.7229   -6.1406 C   0  0  2  0  0  0  0  0  0  0  0  0
   20.2641   74.4545   -5.3643 C   0  0  2  0  0  0  0  0  0  0  0  0
   19.7297   76.8859   -5.6948 C   0  0  1  0  0  0  0  0  0  0  0  0
   20.2675   74.7163   -3.8575 C   0  0  1  0  0  0  0  0  0  0  0  0
   19.6865   77.0030   -4.1740 C   0  0  1  0  0  0  0  0  0  0  0  0
   20.9524   74.7727   -7.8403 H   0  0  0  0  0  0  0  0  0  0  0  0
   21.1950   73.2445   -6.6107 H   0  0  0  0  0  0  0  0  0  0  0  0
   20.2808   78.0404   -7.1986 H   0  0  0  0  0  0  0  0  0  0  0  0
   17.7056   78.1142   -4.7596 O   0  0  0  0  0  0  0  0  0  0  0  0
   18.4673   78.3990   -2.6293 O   0  0  0  0  0  0  0  0  0  0  0  0
   18.5792   77.9087   -3.7429 C   0  0  0  0  0  0  0  0  0  0  0  0
  1  4  1  0
  1 24  1  0
  1  2  1  6
  1  3  2  0
 25 28  1  0
 25 24  1  0
 25 26  1  1
 25 27  2  0
  6 11  1  0
  6 12  1  0
 29 36  1  0
 29 37  1  0
  9  7  1  1
  7 13  1  0
 10  8  1  1
  8 14  1  0
  4  5  1  0
 36 28  1  6
 33 30  1  6
 30 38  1  0
 34 31  1  1
 31 39  1  0
 35 32  1  6
 32 40  1  0
 41 43  1  0
 15 19  2  0
 42 43  2  0
 16 22  2  0
 12 17  1  6
 17 19  1  0
 17 20  1  0
 18 19  1  0
 18 22  1  0
 18 23  1  0
  9 10  1  0
  9 11  1  0
 10 12  1  0
 11  5  1  6
 33 34  1  0
 33 35  1  0
 34 36  1  0
 35 37  1  0
 37 43  1  6
 20 21  2  0
 21 22  1  0
M  CHG  3   2  -1  26  -1  41  -1
M  END
>  <COMPND>  (468) 
    udp_gluA.pdb 

>  <AUTHOR>  (468) 
    GENERATED BY OPEN BABEL 3.1.1

>  <MASTER>  (468) 
        0    0    0    0    0    0    0    0   56    0   56    0

>  <minimizedAffinity>  (468) 
-6.03123

>  <CNNscore>  (468) 
0.8623228073

>  <CNNaffinity>  (468) 
4.6501049995

>  <CNN_VS>  (468) 
4.0098915100

>  <CNNaffinity_variance>  (468) 
0.1196855158

$$$$
469
     RDKit          3D

 43 45  0  0  0  0  0  0  0  0999 V2000
   22.7769   72.3766   -3.8128 P   0  0  2  0  0  0  0  0  0  0  0  0
   22.2917   72.4689   -5.3538 O   0  0  0  0  0  0  0  0  0  0  0  0
   24.1006   71.7011   -3.6047 O   0  0  0  0  0  0  0  0  0  0  0  0
   21.5182   71.7061   -3.0486 O   0  0  0  0  0  0  0  0  0  0  0  0
   20.6851   70.8168   -3.7695 C   0  0  0  0  0  0  0  0  0  0  0  0
   18.7591   71.8073   -4.8119 O   0  0  0  0  0  0  0  0  0  0  0  0
   17.1561   70.5653   -2.6031 O   0  0  0  0  0  0  0  0  0  0  0  0
   16.7272   68.8562   -4.6842 O   0  0  0  0  0  0  0  0  0  0  0  0
   18.3066   70.0584   -3.2798 C   0  0  1  0  0  0  0  0  0  0  0  0
   17.9331   69.5912   -4.6706 C   0  0  2  0  0  0  0  0  0  0  0  0
   19.2321   71.2308   -3.5754 C   0  0  1  0  0  0  0  0  0  0  0  0
   17.8258   70.9047   -5.4264 C   0  0  2  0  0  0  0  0  0  0  0  0
   16.5497   69.8344   -2.4036 H   0  0  0  0  0  0  0  0  0  0  0  0
   16.8471   68.0292   -4.1905 H   0  0  0  0  0  0  0  0  0  0  0  0
   15.9723   70.2285   -7.4472 O   0  0  0  0  0  0  0  0  0  0  0  0
   19.2075   70.3990  -10.7258 O   0  0  0  0  0  0  0  0  0  0  0  0
   18.1568   70.7657   -6.8164 N   0  0  0  0  0  0  0  0  0  0  0  0
   17.5856   70.3131   -9.0780 N   0  0  0  0  0  0  0  0  0  0  0  0
   17.1510   70.4226   -7.7506 C   0  0  0  0  0  0  0  0  0  0  0  0
   19.4637   70.9699   -7.2419 C   0  0  0  0  0  0  0  0  0  0  0  0
   19.8628   70.8619   -8.5107 C   0  0  0  0  0  0  0  0  0  0  0  0
   18.8740   70.5060   -9.5495 C   0  0  0  0  0  0  0  0  0  0  0  0
   16.9036   70.0732   -9.7464 H   0  0  0  0  0  0  0  0  0  0  0  0
   22.7220   73.9158   -3.3222 O   0  0  0  0  0  0  0  0  0  0  0  0
   23.2418   74.6150   -1.9604 P   0  0  2  0  0  0  0  0  0  0  0  0
   22.3537   75.9658   -1.8759 O   0  0  0  0  0  0  0  0  0  0  0  0
   24.7245   74.8458   -1.9138 O   0  0  0  0  0  0  0  0  0  0  0  0
   22.6724   73.6787   -0.7765 O   0  0  0  0  0  0  0  0  0  0  0  0
   23.5479   73.7184    1.4238 O   0  0  0  0  0  0  0  0  0  0  0  0
   21.7339   70.0085    1.3077 O   0  0  0  0  0  0  0  0  0  0  0  0
   23.2817   70.9721   -0.9749 O   0  0  0  0  0  0  0  0  0  0  0  0
   20.4753   72.2040    2.7384 O   0  0  0  0  0  0  0  0  0  0  0  0
   21.9033   71.3871    0.9781 C   0  0  2  0  0  0  0  0  0  0  0  0
   23.2620   71.5896    0.3070 C   0  0  2  0  0  0  0  0  0  0  0  0
   21.8241   72.1965    2.2744 C   0  0  1  0  0  0  0  0  0  0  0  0
   23.5773   73.0775    0.1479 C   0  0  1  0  0  0  0  0  0  0  0  0
   22.2739   73.6386    2.0591 C   0  0  1  0  0  0  0  0  0  0  0  0
   21.7806   69.4744    0.4991 H   0  0  0  0  0  0  0  0  0  0  0  0
   23.0821   70.0278   -0.8815 H   0  0  0  0  0  0  0  0  0  0  0  0
   20.1768   71.2919    2.8792 H   0  0  0  0  0  0  0  0  0  0  0  0
   22.6010   73.4155    4.3710 O   0  0  0  0  0  0  0  0  0  0  0  0
   22.6054   75.5306    3.5192 O   0  0  0  0  0  0  0  0  0  0  0  0
   22.5078   74.3222    3.3669 C   0  0  0  0  0  0  0  0  0  0  0  0
  1  4  1  0
  1 24  1  0
  1  2  1  6
  1  3  2  0
 25 28  1  0
 25 24  1  0
 25 26  1  1
 25 27  2  0
  6 11  1  0
  6 12  1  0
 29 36  1  0
 29 37  1  0
  9  7  1  1
  7 13  1  0
 10  8  1  1
  8 14  1  0
  4  5  1  0
 36 28  1  6
 33 30  1  1
 30 38  1  0
 34 31  1  6
 31 39  1  0
 35 32  1  6
 32 40  1  0
 41 43  1  0
 15 19  2  0
 42 43  2  0
 16 22  2  0
 12 17  1  6
 17 19  1  0
 17 20  1  0
 18 19  1  0
 18 22  1  0
 18 23  1  0
  9 10  1  0
  9 11  1  0
 10 12  1  0
 11  5  1  6
 33 34  1  0
 33 35  1  0
 34 36  1  0
 35 37  1  0
 37 43  1  1
 20 21  2  0
 21 22  1  0
M  CHG  3   2  -1  26  -1  41  -1
M  END
>  <COMPND>  (469) 
    udp_gluA.pdb 

>  <AUTHOR>  (469) 
    GENERATED BY OPEN BABEL 3.1.1

>  <MASTER>  (469) 
        0    0    0    0    0    0    0    0   56    0   56    0

>  <minimizedAffinity>  (469) 
-7.70333

>  <CNNscore>  (469) 
0.8586227298

>  <CNNaffinity>  (469) 
4.7282762527

>  <CNN_VS>  (469) 
4.0598053932

>  <CNNaffinity_variance>  (469) 
0.0498043373

$$$$
470
     RDKit          3D

 43 45  0  0  0  0  0  0  0  0999 V2000
   20.6813   71.2042   -1.8671 P   0  0  2  0  0  0  0  0  0  0  0  0
   21.7395   70.5150   -2.8790 O   0  0  0  0  0  0  0  0  0  0  0  0
   19.6472   70.2750   -1.3024 O   0  0  0  0  0  0  0  0  0  0  0  0
   20.1102   72.4665   -2.7028 O   0  0  0  0  0  0  0  0  0  0  0  0
   19.6885   72.2583   -4.0382 C   0  0  0  0  0  0  0  0  0  0  0  0
   17.7474   72.4226   -5.4465 O   0  0  0  0  0  0  0  0  0  0  0  0
   16.2417   71.1146   -3.2074 O   0  0  0  0  0  0  0  0  0  0  0  0
   16.6511   69.0472   -4.9378 O   0  0  0  0  0  0  0  0  0  0  0  0
   17.5803   70.8882   -3.6497 C   0  0  1  0  0  0  0  0  0  0  0  0
   17.5786   70.1122   -4.9496 C   0  0  2  0  0  0  0  0  0  0  0  0
   18.1660   72.2266   -4.0784 C   0  0  1  0  0  0  0  0  0  0  0  0
   17.2197   71.1890   -5.9593 C   0  0  2  0  0  0  0  0  0  0  0  0
   15.8465   70.2734   -2.9283 H   0  0  0  0  0  0  0  0  0  0  0  0
   16.9238   68.3883   -4.2795 H   0  0  0  0  0  0  0  0  0  0  0  0
   15.7246   70.5088   -8.2568 O   0  0  0  0  0  0  0  0  0  0  0  0
   19.5128   70.2528  -10.8698 O   0  0  0  0  0  0  0  0  0  0  0  0
   17.7899   70.9392   -7.2529 N   0  0  0  0  0  0  0  0  0  0  0  0
   17.6129   70.3810   -9.5558 N   0  0  0  0  0  0  0  0  0  0  0  0
   16.9504   70.6043   -8.3416 C   0  0  0  0  0  0  0  0  0  0  0  0
   19.1647   71.0283   -7.4338 C   0  0  0  0  0  0  0  0  0  0  0  0
   19.7817   70.8127   -8.5973 C   0  0  0  0  0  0  0  0  0  0  0  0
   18.9772   70.4571   -9.7846 C   0  0  0  0  0  0  0  0  0  0  0  0
   17.0495   70.1444  -10.3278 H   0  0  0  0  0  0  0  0  0  0  0  0
   21.6352   71.9006   -0.7635 O   0  0  0  0  0  0  0  0  0  0  0  0
   22.4279   71.2766    0.4998 P   0  0  2  0  0  0  0  0  0  0  0  0
   23.9119   71.0105   -0.0895 O   0  0  0  0  0  0  0  0  0  0  0  0
   21.7743   70.0654    1.0996 O   0  0  0  0  0  0  0  0  0  0  0  0
   22.6105   72.5130    1.5197 O   0  0  0  0  0  0  0  0  0  0  0  0
   24.1077   72.7725    3.3364 O   0  0  0  0  0  0  0  0  0  0  0  0
   20.8275   74.9210    4.6370 O   0  0  0  0  0  0  0  0  0  0  0  0
   20.4765   72.3494    3.2960 O   0  0  0  0  0  0  0  0  0  0  0  0
   23.1898   76.3095    3.6662 O   0  0  0  0  0  0  0  0  0  0  0  0
   21.7377   74.3869    3.6757 C   0  0  2  0  0  0  0  0  0  0  0  0
   21.7242   72.8599    3.7513 C   0  0  2  0  0  0  0  0  0  0  0  0
   23.1343   74.9234    3.9977 C   0  0  1  0  0  0  0  0  0  0  0  0
   22.8469   72.2602    2.9035 C   0  0  1  0  0  0  0  0  0  0  0  0
   24.2102   74.1884    3.2035 C   0  0  1  0  0  0  0  0  0  0  0  0
   19.9330   74.5937    4.4524 H   0  0  0  0  0  0  0  0  0  0  0  0
   19.7595   72.7261    3.8294 H   0  0  0  0  0  0  0  0  0  0  0  0
   22.5097   76.7888    4.1649 H   0  0  0  0  0  0  0  0  0  0  0  0
   26.4206   74.8371    2.7622 O   0  0  0  0  0  0  0  0  0  0  0  0
   25.8760   74.4102    4.9348 O   0  0  0  0  0  0  0  0  0  0  0  0
   25.5681   74.4796    3.7544 C   0  0  0  0  0  0  0  0  0  0  0  0
  1  4  1  0
  1 24  1  0
  1  2  1  6
  1  3  2  0
 25 28  1  0
 25 24  1  0
 25 26  1  6
 25 27  2  0
  6 11  1  0
  6 12  1  0
 29 36  1  0
 29 37  1  0
  9  7  1  6
  7 13  1  0
 10  8  1  1
  8 14  1  0
  4  5  1  0
 36 28  1  6
 33 30  1  1
 30 38  1  0
 34 31  1  6
 31 39  1  0
 35 32  1  6
 32 40  1  0
 41 43  1  0
 15 19  2  0
 42 43  2  0
 16 22  2  0
 12 17  1  6
 17 19  1  0
 17 20  1  0
 18 19  1  0
 18 22  1  0
 18 23  1  0
  9 10  1  0
  9 11  1  0
 10 12  1  0
 11  5  1  6
 33 34  1  0
 33 35  1  0
 34 36  1  0
 35 37  1  0
 37 43  1  1
 20 21  2  0
 21 22  1  0
M  CHG  3   2  -1  26  -1  41  -1
M  END
>  <COMPND>  (470) 
    udp_gluA.pdb 

>  <AUTHOR>  (470) 
    GENERATED BY OPEN BABEL 3.1.1

>  <MASTER>  (470) 
        0    0    0    0    0    0    0    0   56    0   56    0

>  <minimizedAffinity>  (470) 
-7.51773

>  <CNNscore>  (470) 
0.8581112623

>  <CNNaffinity>  (470) 
4.5135917664

>  <CNN_VS>  (470) 
3.8731639385

>  <CNNaffinity_variance>  (470) 
0.0795895010

$$$$
471
     RDKit          3D

 43 45  0  0  0  0  0  0  0  0999 V2000
   20.6490   71.0498   -1.3337 P   0  0  2  0  0  0  0  0  0  0  0  0
   21.9038   70.7600   -2.3136 O   0  0  0  0  0  0  0  0  0  0  0  0
   20.8207   70.5646    0.0759 O   0  0  0  0  0  0  0  0  0  0  0  0
   19.3814   70.4436   -2.1360 O   0  0  0  0  0  0  0  0  0  0  0  0
   19.1299   70.9049   -3.4507 C   0  0  0  0  0  0  0  0  0  0  0  0
   17.4032   71.6738   -4.9356 O   0  0  0  0  0  0  0  0  0  0  0  0
   15.4960   70.1161   -3.2247 O   0  0  0  0  0  0  0  0  0  0  0  0
   15.8531   68.4702   -5.3694 O   0  0  0  0  0  0  0  0  0  0  0  0
   16.8400   69.8054   -3.5930 C   0  0  1  0  0  0  0  0  0  0  0  0
   16.8978   69.3614   -5.0393 C   0  0  2  0  0  0  0  0  0  0  0  0
   17.6304   71.1064   -3.6273 C   0  0  1  0  0  0  0  0  0  0  0  0
   16.7941   70.6839   -5.7796 C   0  0  2  0  0  0  0  0  0  0  0  0
   14.9714   69.3002   -3.1961 H   0  0  0  0  0  0  0  0  0  0  0  0
   15.9641   67.6438   -4.8728 H   0  0  0  0  0  0  0  0  0  0  0  0
   15.5058   70.6046   -8.2917 O   0  0  0  0  0  0  0  0  0  0  0  0
   19.5210   70.5982  -10.5550 O   0  0  0  0  0  0  0  0  0  0  0  0
   17.4786   70.6609   -7.0413 N   0  0  0  0  0  0  0  0  0  0  0  0
   17.5068   70.6005   -9.4165 N   0  0  0  0  0  0  0  0  0  0  0  0
   16.7373   70.6211   -8.2459 C   0  0  0  0  0  0  0  0  0  0  0  0
   18.8676   70.6793   -7.0772 C   0  0  0  0  0  0  0  0  0  0  0  0
   19.5871   70.6594   -8.2009 C   0  0  0  0  0  0  0  0  0  0  0  0
   18.8895   70.6169   -9.5028 C   0  0  0  0  0  0  0  0  0  0  0  0
   17.0130   70.5707  -10.2677 H   0  0  0  0  0  0  0  0  0  0  0  0
   20.4391   72.6463   -1.4754 O   0  0  0  0  0  0  0  0  0  0  0  0
   21.4163   73.8818   -1.1118 P   0  0  2  0  0  0  0  0  0  0  0  0
   20.4098   75.1487   -1.0672 O   0  0  0  0  0  0  0  0  0  0  0  0
   22.5763   74.0463   -2.0505 O   0  0  0  0  0  0  0  0  0  0  0  0
   21.8306   73.6365    0.4279 O   0  0  0  0  0  0  0  0  0  0  0  0
   23.2435   74.7022    2.0018 O   0  0  0  0  0  0  0  0  0  0  0  0
   24.0743   70.7144    2.6911 O   0  0  0  0  0  0  0  0  0  0  0  0
   23.7893   71.7175   -0.0378 O   0  0  0  0  0  0  0  0  0  0  0  0
   22.3985   72.1976    4.5465 O   0  0  0  0  0  0  0  0  0  0  0  0
   23.2652   71.8331    2.3282 C   0  0  2  0  0  0  0  0  0  0  0  0
   23.8808   72.5394    1.1200 C   0  0  2  0  0  0  0  0  0  0  0  0
   23.2062   72.7827    3.5268 C   0  0  1  0  0  0  0  0  0  0  0  0
   23.1750   73.8679    0.8447 C   0  0  1  0  0  0  0  0  0  0  0  0
   22.6037   74.1305    3.1407 C   0  0  1  0  0  0  0  0  0  0  0  0
   24.1263   70.0970    1.9445 H   0  0  0  0  0  0  0  0  0  0  0  0
   24.2348   70.8726    0.1299 H   0  0  0  0  0  0  0  0  0  0  0  0
   22.7710   71.3390    4.8013 H   0  0  0  0  0  0  0  0  0  0  0  0
   23.8736   75.9651    3.8640 O   0  0  0  0  0  0  0  0  0  0  0  0
   22.2163   75.2361    5.2499 O   0  0  0  0  0  0  0  0  0  0  0  0
   22.8488   75.1465    4.2084 C   0  0  0  0  0  0  0  0  0  0  0  0
  1  4  1  0
  1 24  1  0
  1  2  1  6
  1  3  2  0
 25 28  1  0
 25 24  1  0
 25 26  1  1
 25 27  2  0
  6 11  1  0
  6 12  1  0
 29 36  1  0
 29 37  1  0
  9  7  1  6
  7 13  1  0
 10  8  1  6
  8 14  1  0
  4  5  1  0
 36 28  1  1
 33 30  1  1
 30 38  1  0
 34 31  1  6
 31 39  1  0
 35 32  1  1
 32 40  1  0
 41 43  1  0
 15 19  2  0
 42 43  2  0
 16 22  2  0
 12 17  1  6
 17 19  1  0
 17 20  1  0
 18 19  1  0
 18 22  1  0
 18 23  1  0
  9 10  1  0
  9 11  1  0
 10 12  1  0
 11  5  1  6
 33 34  1  0
 33 35  1  0
 34 36  1  0
 35 37  1  0
 37 43  1  1
 20 21  2  0
 21 22  1  0
M  CHG  3   2  -1  26  -1  41  -1
M  END
>  <COMPND>  (471) 
    udp_gluA.pdb 

>  <AUTHOR>  (471) 
    GENERATED BY OPEN BABEL 3.1.1

>  <MASTER>  (471) 
        0    0    0    0    0    0    0    0   56    0   56    0

>  <minimizedAffinity>  (471) 
-7.46046

>  <CNNscore>  (471) 
0.8362712264

>  <CNNaffinity>  (471) 
4.6586227417

>  <CNN_VS>  (471) 
3.8958721161

>  <CNNaffinity_variance>  (471) 
0.0698525161

$$$$
472
     RDKit          3D

 43 45  0  0  0  0  0  0  0  0999 V2000
   20.2575   71.8673   -2.0237 P   0  0  2  0  0  0  0  0  0  0  0  0
   20.3584   70.6855   -0.9228 O   0  0  0  0  0  0  0  0  0  0  0  0
   19.1923   72.8905   -1.7591 O   0  0  0  0  0  0  0  0  0  0  0  0
   20.1394   71.0780   -3.4312 O   0  0  0  0  0  0  0  0  0  0  0  0
   19.2854   69.9513   -3.5050 C   0  0  0  0  0  0  0  0  0  0  0  0
   17.6988   71.2228   -4.7871 O   0  0  0  0  0  0  0  0  0  0  0  0
   15.5731   69.7620   -3.2578 O   0  0  0  0  0  0  0  0  0  0  0  0
   15.6126   68.4343   -5.6393 O   0  0  0  0  0  0  0  0  0  0  0  0
   16.8383   69.2902   -3.7216 C   0  0  1  0  0  0  0  0  0  0  0  0
   16.7998   69.0738   -5.2196 C   0  0  2  0  0  0  0  0  0  0  0  0
   17.8412   70.4281   -3.5897 C   0  0  1  0  0  0  0  0  0  0  0  0
   16.9168   70.4939   -5.7465 C   0  0  2  0  0  0  0  0  0  0  0  0
   14.9157   69.0521   -3.3323 H   0  0  0  0  0  0  0  0  0  0  0  0
   15.5853   67.5339   -5.2783 H   0  0  0  0  0  0  0  0  0  0  0  0
   15.5734   70.4440   -8.2303 O   0  0  0  0  0  0  0  0  0  0  0  0
   19.5277   70.7244  -10.5815 O   0  0  0  0  0  0  0  0  0  0  0  0
   17.5708   70.5525   -7.0231 N   0  0  0  0  0  0  0  0  0  0  0  0
   17.5442   70.5826   -9.3990 N   0  0  0  0  0  0  0  0  0  0  0  0
   16.8033   70.5206   -8.2114 C   0  0  0  0  0  0  0  0  0  0  0  0
   18.9559   70.6422   -7.0895 C   0  0  0  0  0  0  0  0  0  0  0  0
   19.6480   70.7006   -8.2289 C   0  0  0  0  0  0  0  0  0  0  0  0
   18.9219   70.6718   -9.5155 C   0  0  0  0  0  0  0  0  0  0  0  0
   17.0319   70.5599  -10.2394 H   0  0  0  0  0  0  0  0  0  0  0  0
   21.7623   72.4565   -2.0626 O   0  0  0  0  0  0  0  0  0  0  0  0
   22.3663   73.8607   -1.5363 P   0  0  2  0  0  0  0  0  0  0  0  0
   23.7744   73.4290   -0.8645 O   0  0  0  0  0  0  0  0  0  0  0  0
   21.4510   74.6199   -0.6200 O   0  0  0  0  0  0  0  0  0  0  0  0
   22.7817   74.6558   -2.8771 O   0  0  0  0  0  0  0  0  0  0  0  0
   23.4053   73.8176   -5.0026 O   0  0  0  0  0  0  0  0  0  0  0  0
   25.6236   77.2962   -4.7868 O   0  0  0  0  0  0  0  0  0  0  0  0
   25.3834   75.5462   -2.4599 O   0  0  0  0  0  0  0  0  0  0  0  0
   23.2395   77.1865   -6.4467 O   0  0  0  0  0  0  0  0  0  0  0  0
   24.5046   76.4464   -4.5344 C   0  0  2  0  0  0  0  0  0  0  0  0
   24.9677   75.2020   -3.7765 C   0  0  2  0  0  0  0  0  0  0  0  0
   23.8960   76.0529   -5.8823 C   0  0  1  0  0  0  0  0  0  0  0  0
   23.8466   74.1655   -3.6897 C   0  0  1  0  0  0  0  0  0  0  0  0
   22.8778   74.9271   -5.7264 C   0  0  1  0  0  0  0  0  0  0  0  0
   26.0267   77.5591   -3.9444 H   0  0  0  0  0  0  0  0  0  0  0  0
   26.0945   76.2038   -2.5074 H   0  0  0  0  0  0  0  0  0  0  0  0
   23.8767   77.9104   -6.5510 H   0  0  0  0  0  0  0  0  0  0  0  0
   23.5387   74.5452   -7.9442 O   0  0  0  0  0  0  0  0  0  0  0  0
   21.5060   73.7300   -7.3096 O   0  0  0  0  0  0  0  0  0  0  0  0
   22.5386   74.3311   -7.0538 C   0  0  0  0  0  0  0  0  0  0  0  0
  1  4  1  0
  1 24  1  0
  1  2  1  1
  1  3  2  0
 25 28  1  0
 25 24  1  0
 25 26  1  1
 25 27  2  0
  6 11  1  0
  6 12  1  0
 29 36  1  0
 29 37  1  0
  9  7  1  6
  7 13  1  0
 10  8  1  1
  8 14  1  0
  4  5  1  0
 36 28  1  1
 33 30  1  6
 30 38  1  0
 34 31  1  1
 31 39  1  0
 35 32  1  1
 32 40  1  0
 41 43  1  0
 15 19  2  0
 42 43  2  0
 16 22  2  0
 12 17  1  6
 17 19  1  0
 17 20  1  0
 18 19  1  0
 18 22  1  0
 18 23  1  0
  9 10  1  0
  9 11  1  0
 10 12  1  0
 11  5  1  6
 33 34  1  0
 33 35  1  0
 34 36  1  0
 35 37  1  0
 37 43  1  6
 20 21  2  0
 21 22  1  0
M  CHG  3   2  -1  26  -1  41  -1
M  END
>  <COMPND>  (472) 
    udp_gluA.pdb 

>  <AUTHOR>  (472) 
    GENERATED BY OPEN BABEL 3.1.1

>  <MASTER>  (472) 
        0    0    0    0    0    0    0    0   56    0   56    0

>  <minimizedAffinity>  (472) 
-6.93296

>  <CNNscore>  (472) 
0.7973017693

>  <CNNaffinity>  (472) 
4.5079445839

>  <CNN_VS>  (472) 
3.5941922665

>  <CNNaffinity_variance>  (472) 
0.2618247867

$$$$
473
     RDKit          3D

 43 45  0  0  0  0  0  0  0  0999 V2000
   20.3574   71.8529   -2.2253 P   0  0  2  0  0  0  0  0  0  0  0  0
   20.5202   70.7459   -1.0561 O   0  0  0  0  0  0  0  0  0  0  0  0
   19.3275   72.9108   -1.9573 O   0  0  0  0  0  0  0  0  0  0  0  0
   20.1293   70.9733   -3.5641 O   0  0  0  0  0  0  0  0  0  0  0  0
   19.2422   69.8713   -3.5060 C   0  0  0  0  0  0  0  0  0  0  0  0
   17.6813   71.1714   -4.7910 O   0  0  0  0  0  0  0  0  0  0  0  0
   15.5276   69.7750   -3.2407 O   0  0  0  0  0  0  0  0  0  0  0  0
   15.5234   68.4284   -5.6120 O   0  0  0  0  0  0  0  0  0  0  0  0
   16.7787   69.2687   -3.7066 C   0  0  1  0  0  0  0  0  0  0  0  0
   16.7279   69.0418   -5.2026 C   0  0  2  0  0  0  0  0  0  0  0  0
   17.8097   70.3828   -3.5881 C   0  0  1  0  0  0  0  0  0  0  0  0
   16.8772   70.4545   -5.7411 C   0  0  2  0  0  0  0  0  0  0  0  0
   14.8527   69.0809   -3.3068 H   0  0  0  0  0  0  0  0  0  0  0  0
   15.4759   67.5317   -5.2438 H   0  0  0  0  0  0  0  0  0  0  0  0
   15.5209   70.4312   -8.2183 O   0  0  0  0  0  0  0  0  0  0  0  0
   19.4704   70.5829  -10.5895 O   0  0  0  0  0  0  0  0  0  0  0  0
   17.5264   70.4872   -7.0211 N   0  0  0  0  0  0  0  0  0  0  0  0
   17.4893   70.5057   -9.3969 N   0  0  0  0  0  0  0  0  0  0  0  0
   16.7526   70.4717   -8.2056 C   0  0  0  0  0  0  0  0  0  0  0  0
   18.9132   70.5358   -7.0944 C   0  0  0  0  0  0  0  0  0  0  0  0
   19.6013   70.5679   -8.2373 C   0  0  0  0  0  0  0  0  0  0  0  0
   18.8684   70.5538   -9.5203 C   0  0  0  0  0  0  0  0  0  0  0  0
   16.9725   70.4937  -10.2348 H   0  0  0  0  0  0  0  0  0  0  0  0
   21.8634   72.4106   -2.4092 O   0  0  0  0  0  0  0  0  0  0  0  0
   22.4218   73.9155   -2.6020 P   0  0  2  0  0  0  0  0  0  0  0  0
   23.9071   73.8436   -1.9622 O   0  0  0  0  0  0  0  0  0  0  0  0
   21.5437   74.9789   -2.0087 O   0  0  0  0  0  0  0  0  0  0  0  0
   22.6689   74.0601   -4.1896 O   0  0  0  0  0  0  0  0  0  0  0  0
   21.7987   75.8103   -5.5269 O   0  0  0  0  0  0  0  0  0  0  0  0
   22.3828   72.8262   -8.3237 O   0  0  0  0  0  0  0  0  0  0  0  0
   21.2596   72.1984   -5.7009 O   0  0  0  0  0  0  0  0  0  0  0  0
   24.2240   75.0712   -8.1790 O   0  0  0  0  0  0  0  0  0  0  0  0
   22.6541   73.5703   -7.1360 C   0  0  2  0  0  0  0  0  0  0  0  0
   21.4396   73.5153   -6.2089 C   0  0  2  0  0  0  0  0  0  0  0  0
   22.9495   75.0162   -7.5410 C   0  0  1  0  0  0  0  0  0  0  0  0
   21.6020   74.4836   -5.0364 C   0  0  1  0  0  0  0  0  0  0  0  0
   22.9713   75.9413   -6.3275 C   0  0  1  0  0  0  0  0  0  0  0  0
   22.1921   71.9038   -8.0910 H   0  0  0  0  0  0  0  0  0  0  0  0
   21.1562   71.5787   -6.4396 H   0  0  0  0  0  0  0  0  0  0  0  0
   24.2236   74.4865   -8.9530 H   0  0  0  0  0  0  0  0  0  0  0  0
   23.1313   78.1928   -5.6899 O   0  0  0  0  0  0  0  0  0  0  0  0
   22.7433   77.7613   -7.8950 O   0  0  0  0  0  0  0  0  0  0  0  0
   22.9298   77.3734   -6.7515 C   0  0  0  0  0  0  0  0  0  0  0  0
  1  4  1  0
  1 24  1  0
  1  2  1  1
  1  3  2  0
 25 28  1  0
 25 24  1  0
 25 26  1  1
 25 27  2  0
  6 11  1  0
  6 12  1  0
 29 36  1  0
 29 37  1  0
  9  7  1  6
  7 13  1  0
 10  8  1  1
  8 14  1  0
  4  5  1  0
 36 28  1  6
 33 30  1  6
 30 38  1  0
 34 31  1  1
 31 39  1  0
 35 32  1  1
 32 40  1  0
 41 43  1  0
 15 19  2  0
 42 43  2  0
 16 22  2  0
 12 17  1  6
 17 19  1  0
 17 20  1  0
 18 19  1  0
 18 22  1  0
 18 23  1  0
  9 10  1  0
  9 11  1  0
 10 12  1  0
 11  5  1  6
 33 34  1  0
 33 35  1  0
 34 36  1  0
 35 37  1  0
 37 43  1  6
 20 21  2  0
 21 22  1  0
M  CHG  3   2  -1  26  -1  41  -1
M  END
>  <COMPND>  (473) 
    udp_gluA.pdb 

>  <AUTHOR>  (473) 
    GENERATED BY OPEN BABEL 3.1.1

>  <MASTER>  (473) 
        0    0    0    0    0    0    0    0   56    0   56    0

>  <minimizedAffinity>  (473) 
-6.90681

>  <CNNscore>  (473) 
0.7956055999

>  <CNNaffinity>  (473) 
4.5778608322

>  <CNN_VS>  (473) 
3.6421716213

>  <CNNaffinity_variance>  (473) 
0.3825604916

$$$$
474
     RDKit          3D

 43 45  0  0  0  0  0  0  0  0999 V2000
   21.7405   72.4475   -5.4739 P   0  0  2  0  0  0  0  0  0  0  0  0
   21.1342   73.9210   -5.1910 O   0  0  0  0  0  0  0  0  0  0  0  0
   23.0046   72.4270   -6.2823 O   0  0  0  0  0  0  0  0  0  0  0  0
   20.4935   71.6277   -6.0990 O   0  0  0  0  0  0  0  0  0  0  0  0
   20.0376   71.9740   -7.3939 C   0  0  0  0  0  0  0  0  0  0  0  0
   18.7811   69.9659   -6.9861 O   0  0  0  0  0  0  0  0  0  0  0  0
   18.1020   70.0197   -9.9063 O   0  0  0  0  0  0  0  0  0  0  0  0
   15.8432   71.0191   -8.7508 O   0  0  0  0  0  0  0  0  0  0  0  0
   18.2608   71.1076   -8.9953 C   0  0  1  0  0  0  0  0  0  0  0  0
   17.0671   71.1930   -8.0678 C   0  0  2  0  0  0  0  0  0  0  0  0
   19.3869   70.7542   -8.0334 C   0  0  1  0  0  0  0  0  0  0  0  0
   17.3518   70.0716   -7.0832 C   0  0  2  0  0  0  0  0  0  0  0  0
   17.3876   70.2224  -10.5311 H   0  0  0  0  0  0  0  0  0  0  0  0
   15.7078   71.7582   -9.3650 H   0  0  0  0  0  0  0  0  0  0  0  0
   16.4759   68.0797   -5.2829 O   0  0  0  0  0  0  0  0  0  0  0  0
   15.3047   71.2076   -2.1067 O   0  0  0  0  0  0  0  0  0  0  0  0
   16.8136   70.3376   -5.7792 N   0  0  0  0  0  0  0  0  0  0  0  0
   15.8925   69.6395   -3.7031 N   0  0  0  0  0  0  0  0  0  0  0  0
   16.4026   69.2649   -4.9531 C   0  0  0  0  0  0  0  0  0  0  0  0
   16.6990   71.6476   -5.3302 C   0  0  0  0  0  0  0  0  0  0  0  0
   16.2108   71.9890   -4.1361 C   0  0  0  0  0  0  0  0  0  0  0  0
   15.7582   70.9282   -3.2124 C   0  0  0  0  0  0  0  0  0  0  0  0
   15.5979   68.9101   -3.1111 H   0  0  0  0  0  0  0  0  0  0  0  0
   21.8799   71.8214   -3.9902 O   0  0  0  0  0  0  0  0  0  0  0  0
   23.0773   71.9126   -2.9078 P   0  0  2  0  0  0  0  0  0  0  0  0
   23.6499   73.4124   -3.1152 O   0  0  0  0  0  0  0  0  0  0  0  0
   24.1111   70.8321   -3.0407 O   0  0  0  0  0  0  0  0  0  0  0  0
   22.3333   71.9550   -1.4770 O   0  0  0  0  0  0  0  0  0  0  0  0
   23.9573   72.5997    0.1218 O   0  0  0  0  0  0  0  0  0  0  0  0
   20.5708   72.2407    2.4609 O   0  0  0  0  0  0  0  0  0  0  0  0
   21.1581   70.2635    0.3920 O   0  0  0  0  0  0  0  0  0  0  0  0
   21.5640   74.8719    1.7255 O   0  0  0  0  0  0  0  0  0  0  0  0
   21.3096   72.5194    1.2716 C   0  0  2  0  0  0  0  0  0  0  0  0
   22.0667   71.2654    0.8337 C   0  0  2  0  0  0  0  0  0  0  0  0
   22.2905   73.6532    1.5790 C   0  0  1  0  0  0  0  0  0  0  0  0
   23.0450   71.5842   -0.2978 C   0  0  1  0  0  0  0  0  0  0  0  0
   23.3115   73.8257    0.4582 C   0  0  1  0  0  0  0  0  0  0  0  0
   19.9409   71.5230    2.2897 H   0  0  0  0  0  0  0  0  0  0  0  0
   20.5342   70.0565    1.1050 H   0  0  0  0  0  0  0  0  0  0  0  0
   20.9106   74.7755    2.4358 H   0  0  0  0  0  0  0  0  0  0  0  0
   24.2613   75.9701    0.4902 O   0  0  0  0  0  0  0  0  0  0  0  0
   25.4084   74.3085    1.5496 O   0  0  0  0  0  0  0  0  0  0  0  0
   24.4455   74.6913    0.9022 C   0  0  0  0  0  0  0  0  0  0  0  0
  1  4  1  0
  1 24  1  0
  1  2  1  1
  1  3  2  0
 25 28  1  0
 25 24  1  0
 25 26  1  6
 25 27  2  0
  6 11  1  0
  6 12  1  0
 29 36  1  0
 29 37  1  0
  9  7  1  6
  7 13  1  0
 10  8  1  6
  8 14  1  0
  4  5  1  0
 36 28  1  6
 33 30  1  1
 30 38  1  0
 34 31  1  6
 31 39  1  0
 35 32  1  6
 32 40  1  0
 41 43  1  0
 15 19  2  0
 42 43  2  0
 16 22  2  0
 12 17  1  1
 17 19  1  0
 17 20  1  0
 18 19  1  0
 18 22  1  0
 18 23  1  0
  9 10  1  0
  9 11  1  0
 10 12  1  0
 11  5  1  1
 33 34  1  0
 33 35  1  0
 34 36  1  0
 35 37  1  0
 37 43  1  1
 20 21  2  0
 21 22  1  0
M  CHG  3   2  -1  26  -1  41  -1
M  END
>  <COMPND>  (474) 
    udp_gluA.pdb 

>  <AUTHOR>  (474) 
    GENERATED BY OPEN BABEL 3.1.1

>  <MASTER>  (474) 
        0    0    0    0    0    0    0    0   56    0   56    0

>  <minimizedAffinity>  (474) 
-7.99675

>  <CNNscore>  (474) 
0.7251262665

>  <CNNaffinity>  (474) 
4.5252141953

>  <CNN_VS>  (474) 
3.2813515663

>  <CNNaffinity_variance>  (474) 
0.2147835791

$$$$
475
     RDKit          3D

 43 45  0  0  0  0  0  0  0  0999 V2000
   23.3916   71.8027   -3.2629 P   0  0  2  0  0  0  0  0  0  0  0  0
   24.1018   72.9701   -4.1298 O   0  0  0  0  0  0  0  0  0  0  0  0
   24.2704   70.6301   -2.9393 O   0  0  0  0  0  0  0  0  0  0  0  0
   22.0465   71.4639   -4.0959 O   0  0  0  0  0  0  0  0  0  0  0  0
   21.6079   72.3865   -5.0761 C   0  0  0  0  0  0  0  0  0  0  0  0
   20.5655   70.4622   -6.0702 O   0  0  0  0  0  0  0  0  0  0  0  0
   20.7778   71.9261   -8.6785 O   0  0  0  0  0  0  0  0  0  0  0  0
   18.1668   72.3086   -7.9914 O   0  0  0  0  0  0  0  0  0  0  0  0
   20.5146   72.4400   -7.3727 C   0  0  1  0  0  0  0  0  0  0  0  0
   19.1001   72.1019   -6.9518 C   0  0  2  0  0  0  0  0  0  0  0  0
   21.3431   71.6397   -6.3771 C   0  0  1  0  0  0  0  0  0  0  0  0
   19.2279   70.6389   -6.5629 C   0  0  2  0  0  0  0  0  0  0  0  0
   20.2594   72.4220   -9.3321 H   0  0  0  0  0  0  0  0  0  0  0  0
   18.1218   73.2549   -8.2021 H   0  0  0  0  0  0  0  0  0  0  0  0
   16.5702   69.8125   -7.0427 O   0  0  0  0  0  0  0  0  0  0  0  0
   15.7511   69.2150   -2.5464 O   0  0  0  0  0  0  0  0  0  0  0  0
   18.2984   70.2617   -5.5360 N   0  0  0  0  0  0  0  0  0  0  0  0
   16.1645   69.5167   -4.8028 N   0  0  0  0  0  0  0  0  0  0  0  0
   16.9863   69.8621   -5.8837 C   0  0  0  0  0  0  0  0  0  0  0  0
   18.6894   70.2881   -4.2028 C   0  0  0  0  0  0  0  0  0  0  0  0
   17.8948   69.9559   -3.1835 C   0  0  0  0  0  0  0  0  0  0  0  0
   16.5080   69.5278   -3.4606 C   0  0  0  0  0  0  0  0  0  0  0  0
   15.2457   69.2371   -5.0198 H   0  0  0  0  0  0  0  0  0  0  0  0
   22.8295   72.5990   -1.9734 O   0  0  0  0  0  0  0  0  0  0  0  0
   21.5056   72.3652   -1.0755 P   0  0  2  0  0  0  0  0  0  0  0  0
   21.3504   70.7540   -1.0580 O   0  0  0  0  0  0  0  0  0  0  0  0
   20.2910   73.0982   -1.5668 O   0  0  0  0  0  0  0  0  0  0  0  0
   21.9565   72.7471    0.4256 O   0  0  0  0  0  0  0  0  0  0  0  0
   23.0873   71.1166    1.7186 O   0  0  0  0  0  0  0  0  0  0  0  0
   21.9609   73.8471    4.6071 O   0  0  0  0  0  0  0  0  0  0  0  0
   20.1093   73.0980    2.4752 O   0  0  0  0  0  0  0  0  0  0  0  0
   24.7212   73.7355    3.7021 O   0  0  0  0  0  0  0  0  0  0  0  0
   22.3658   73.4174    3.3073 C   0  0  2  0  0  0  0  0  0  0  0  0
   21.3370   72.4333    2.7501 C   0  0  2  0  0  0  0  0  0  0  0  0
   23.7328   72.7419    3.4371 C   0  0  1  0  0  0  0  0  0  0  0  0
   21.8468   71.7775    1.4660 C   0  0  1  0  0  0  0  0  0  0  0  0
   24.1135   72.0044    2.1566 C   0  0  1  0  0  0  0  0  0  0  0  0
   21.0943   74.2796    4.5495 H   0  0  0  0  0  0  0  0  0  0  0  0
   19.7802   73.5166    3.2857 H   0  0  0  0  0  0  0  0  0  0  0  0
   24.4906   74.2124    4.5147 H   0  0  0  0  0  0  0  0  0  0  0  0
   24.8859   69.7931    2.2812 O   0  0  0  0  0  0  0  0  0  0  0  0
   26.4077   71.4491    2.6563 O   0  0  0  0  0  0  0  0  0  0  0  0
   25.2697   71.0887    2.3956 C   0  0  0  0  0  0  0  0  0  0  0  0
  1  4  1  0
  1 24  1  0
  1  2  1  6
  1  3  2  0
 25 28  1  0
 25 24  1  0
 25 26  1  1
 25 27  2  0
  6 11  1  0
  6 12  1  0
 29 36  1  0
 29 37  1  0
  9  7  1  6
  7 13  1  0
 10  8  1  6
  8 14  1  0
  4  5  1  0
 36 28  1  6
 33 30  1  1
 30 38  1  0
 34 31  1  6
 31 39  1  0
 35 32  1  6
 32 40  1  0
 41 43  1  0
 15 19  2  0
 42 43  2  0
 16 22  2  0
 12 17  1  1
 17 19  1  0
 17 20  1  0
 18 19  1  0
 18 22  1  0
 18 23  1  0
  9 10  1  0
  9 11  1  0
 10 12  1  0
 11  5  1  1
 33 34  1  0
 33 35  1  0
 34 36  1  0
 35 37  1  0
 37 43  1  1
 20 21  2  0
 21 22  1  0
M  CHG  3   2  -1  26  -1  41  -1
M  END
>  <COMPND>  (475) 
    udp_gluA.pdb 

>  <AUTHOR>  (475) 
    GENERATED BY OPEN BABEL 3.1.1

>  <MASTER>  (475) 
        0    0    0    0    0    0    0    0   56    0   56    0

>  <minimizedAffinity>  (475) 
-8.00894

>  <CNNscore>  (475) 
0.7001110911

>  <CNNaffinity>  (475) 
4.4286265373

>  <CNN_VS>  (475) 
3.1005306244

>  <CNNaffinity_variance>  (475) 
0.1108154207

$$$$
476
     RDKit          3D

 43 45  0  0  0  0  0  0  0  0999 V2000
   22.6813   72.7092   -3.9483 P   0  0  2  0  0  0  0  0  0  0  0  0
   21.9699   71.2673   -3.7646 O   0  0  0  0  0  0  0  0  0  0  0  0
   24.0758   72.6619   -4.5007 O   0  0  0  0  0  0  0  0  0  0  0  0
   22.5236   73.4079   -2.4975 O   0  0  0  0  0  0  0  0  0  0  0  0
   21.5436   74.4169   -2.3359 C   0  0  0  0  0  0  0  0  0  0  0  0
   20.8471   72.6364   -0.8790 O   0  0  0  0  0  0  0  0  0  0  0  0
   18.6750   74.4883    0.0399 O   0  0  0  0  0  0  0  0  0  0  0  0
   20.5109   74.6808    2.0470 O   0  0  0  0  0  0  0  0  0  0  0  0
   20.0205   74.7878   -0.3321 C   0  0  1  0  0  0  0  0  0  0  0  0
   20.9760   74.3461    0.7561 C   0  0  2  0  0  0  0  0  0  0  0  0
   20.4045   73.8703   -1.4849 C   0  0  1  0  0  0  0  0  0  0  0  0
   21.0409   72.8455    0.5288 C   0  0  2  0  0  0  0  0  0  0  0  0
   18.4071   75.0622    0.7751 H   0  0  0  0  0  0  0  0  0  0  0  0
   20.4880   75.6464    2.1421 H   0  0  0  0  0  0  0  0  0  0  0  0
   21.4921   70.0993    1.0097 O   0  0  0  0  0  0  0  0  0  0  0  0
   25.9359   70.8161    2.0013 O   0  0  0  0  0  0  0  0  0  0  0  0
   22.3061   72.2871    0.9139 N   0  0  0  0  0  0  0  0  0  0  0  0
   23.7047   70.4590    1.5041 N   0  0  0  0  0  0  0  0  0  0  0  0
   22.4261   70.8941    1.1314 C   0  0  0  0  0  0  0  0  0  0  0  0
   23.4108   73.1154    1.0708 C   0  0  0  0  0  0  0  0  0  0  0  0
   24.6232   72.6860    1.4264 C   0  0  0  0  0  0  0  0  0  0  0  0
   24.8335   71.2444    1.6734 C   0  0  0  0  0  0  0  0  0  0  0  0
   23.8123   69.4934    1.6630 H   0  0  0  0  0  0  0  0  0  0  0  0
   21.6231   73.5224   -4.8603 O   0  0  0  0  0  0  0  0  0  0  0  0
   21.2021   73.3453   -6.4111 P   0  0  2  0  0  0  0  0  0  0  0  0
   22.3730   72.3994   -7.0065 O   0  0  0  0  0  0  0  0  0  0  0  0
   21.0161   74.6387   -7.1503 O   0  0  0  0  0  0  0  0  0  0  0  0
   19.8947   72.4009   -6.3750 O   0  0  0  0  0  0  0  0  0  0  0  0
   19.3608   70.2038   -5.6699 O   0  0  0  0  0  0  0  0  0  0  0  0
   17.4414   70.4042   -9.3228 O   0  0  0  0  0  0  0  0  0  0  0  0
   20.1270   71.5073   -8.9986 O   0  0  0  0  0  0  0  0  0  0  0  0
   15.9116   70.5959   -6.8582 O   0  0  0  0  0  0  0  0  0  0  0  0
   17.9569   70.9115   -8.0920 C   0  0  2  0  0  0  0  0  0  0  0  0
   19.4685   70.6881   -8.0395 C   0  0  2  0  0  0  0  0  0  0  0  0
   17.2684   70.1649   -6.9473 C   0  0  1  0  0  0  0  0  0  0  0  0
   20.0206   71.0068   -6.6494 C   0  0  1  0  0  0  0  0  0  0  0  0
   17.9552   70.4368   -5.6121 C   0  0  1  0  0  0  0  0  0  0  0  0
   17.8646   70.8641  -10.0649 H   0  0  0  0  0  0  0  0  0  0  0  0
   19.7813   71.3106   -9.8830 H   0  0  0  0  0  0  0  0  0  0  0  0
   15.4631   70.4286   -7.7018 H   0  0  0  0  0  0  0  0  0  0  0  0
   18.5104   69.1573   -3.7262 O   0  0  0  0  0  0  0  0  0  0  0  0
   16.3661   69.0113   -4.4877 O   0  0  0  0  0  0  0  0  0  0  0  0
   17.4969   69.4665   -4.5725 C   0  0  0  0  0  0  0  0  0  0  0  0
  1  4  1  0
  1 24  1  0
  1  2  1  1
  1  3  2  0
 25 28  1  0
 25 24  1  0
 25 26  1  6
 25 27  2  0
  6 11  1  0
  6 12  1  0
 29 36  1  0
 29 37  1  0
  9  7  1  1
  7 13  1  0
 10  8  1  1
  8 14  1  0
  4  5  1  0
 36 28  1  1
 33 30  1  6
 30 38  1  0
 34 31  1  6
 31 39  1  0
 35 32  1  1
 32 40  1  0
 41 43  1  0
 15 19  2  0
 42 43  2  0
 16 22  2  0
 12 17  1  6
 17 19  1  0
 17 20  1  0
 18 19  1  0
 18 22  1  0
 18 23  1  0
  9 10  1  0
  9 11  1  0
 10 12  1  0
 11  5  1  1
 33 34  1  0
 33 35  1  0
 34 36  1  0
 35 37  1  0
 37 43  1  1
 20 21  2  0
 21 22  1  0
M  CHG  3   2  -1  26  -1  41  -1
M  END
>  <COMPND>  (476) 
    udp_gluA.pdb 

>  <AUTHOR>  (476) 
    GENERATED BY OPEN BABEL 3.1.1

>  <MASTER>  (476) 
        0    0    0    0    0    0    0    0   56    0   56    0

>  <minimizedAffinity>  (476) 
-7.80466

>  <CNNscore>  (476) 
0.6513129473

>  <CNNaffinity>  (476) 
4.5832748413

>  <CNN_VS>  (476) 
2.9851462841

>  <CNNaffinity_variance>  (476) 
0.0388997607

$$$$
477
     RDKit          3D

 43 45  0  0  0  0  0  0  0  0999 V2000
   23.4920   73.5773   -4.1798 P   0  0  2  0  0  0  0  0  0  0  0  0
   22.7137   74.9746   -4.4264 O   0  0  0  0  0  0  0  0  0  0  0  0
   24.9831   73.6953   -4.0598 O   0  0  0  0  0  0  0  0  0  0  0  0
   22.9564   72.6192   -5.3686 O   0  0  0  0  0  0  0  0  0  0  0  0
   21.6053   72.1972   -5.3399 C   0  0  0  0  0  0  0  0  0  0  0  0
   20.4808   70.3090   -6.3135 O   0  0  0  0  0  0  0  0  0  0  0  0
   20.6784   71.7728   -8.9231 O   0  0  0  0  0  0  0  0  0  0  0  0
   18.0970   72.2343   -8.1749 O   0  0  0  0  0  0  0  0  0  0  0  0
   20.4614   72.2910   -7.6105 C   0  0  1  0  0  0  0  0  0  0  0  0
   19.0472   71.9959   -7.1576 C   0  0  2  0  0  0  0  0  0  0  0  0
   21.2874   71.4626   -6.6359 C   0  0  1  0  0  0  0  0  0  0  0  0
   19.1383   70.5286   -6.7747 C   0  0  2  0  0  0  0  0  0  0  0  0
   20.1607   72.2862   -9.5634 H   0  0  0  0  0  0  0  0  0  0  0  0
   18.0766   73.1821   -8.3826 H   0  0  0  0  0  0  0  0  0  0  0  0
   16.4268   69.8553   -7.1880 O   0  0  0  0  0  0  0  0  0  0  0  0
   15.7136   69.1988   -2.6820 O   0  0  0  0  0  0  0  0  0  0  0  0
   18.2215   70.1776   -5.7273 N   0  0  0  0  0  0  0  0  0  0  0  0
   16.0739   69.5300   -4.9433 N   0  0  0  0  0  0  0  0  0  0  0  0
   16.8799   69.8561   -6.0419 C   0  0  0  0  0  0  0  0  0  0  0  0
   18.6536   70.1525   -4.4069 C   0  0  0  0  0  0  0  0  0  0  0  0
   17.8736   69.8396   -3.3703 C   0  0  0  0  0  0  0  0  0  0  0  0
   16.4580   69.4920   -3.6126 C   0  0  0  0  0  0  0  0  0  0  0  0
   15.1353   69.3045   -5.1371 H   0  0  0  0  0  0  0  0  0  0  0  0
   22.7565   72.9783   -2.8710 O   0  0  0  0  0  0  0  0  0  0  0  0
   22.8898   71.5409   -2.1431 P   0  0  2  0  0  0  0  0  0  0  0  0
   24.2307   70.9164   -2.8005 O   0  0  0  0  0  0  0  0  0  0  0  0
   21.6739   70.6698   -2.2728 O   0  0  0  0  0  0  0  0  0  0  0  0
   23.3052   71.8887   -0.6235 O   0  0  0  0  0  0  0  0  0  0  0  0
   24.6660   70.9481    1.0714 O   0  0  0  0  0  0  0  0  0  0  0  0
   21.2515   71.9268    3.1812 O   0  0  0  0  0  0  0  0  0  0  0  0
   21.0578   70.7218    0.5270 O   0  0  0  0  0  0  0  0  0  0  0  0
   23.6404   73.5644    3.4305 O   0  0  0  0  0  0  0  0  0  0  0  0
   22.2391   72.0716    2.1606 C   0  0  2  0  0  0  0  0  0  0  0  0
   22.2580   70.8182    1.2852 C   0  0  2  0  0  0  0  0  0  0  0  0
   23.5963   72.2667    2.8401 C   0  0  1  0  0  0  0  0  0  0  0  0
   23.4512   70.8368    0.3288 C   0  0  1  0  0  0  0  0  0  0  0  0
   24.7425   72.1467    1.8399 C   0  0  1  0  0  0  0  0  0  0  0  0
   20.3803   71.8015    2.7729 H   0  0  0  0  0  0  0  0  0  0  0  0
   20.2965   70.7098    1.1275 H   0  0  0  0  0  0  0  0  0  0  0  0
   22.9159   73.6538    4.0692 H   0  0  0  0  0  0  0  0  0  0  0  0
   26.5719   70.7716    2.3537 O   0  0  0  0  0  0  0  0  0  0  0  0
   26.5872   72.8855    3.2084 O   0  0  0  0  0  0  0  0  0  0  0  0
   26.0514   72.0088    2.5471 C   0  0  0  0  0  0  0  0  0  0  0  0
  1  4  1  0
  1 24  1  0
  1  2  1  6
  1  3  2  0
 25 28  1  0
 25 24  1  0
 25 26  1  6
 25 27  2  0
  6 11  1  0
  6 12  1  0
 29 36  1  0
 29 37  1  0
  9  7  1  6
  7 13  1  0
 10  8  1  6
  8 14  1  0
  4  5  1  0
 36 28  1  6
 33 30  1  1
 30 38  1  0
 34 31  1  6
 31 39  1  0
 35 32  1  6
 32 40  1  0
 41 43  1  0
 15 19  2  0
 42 43  2  0
 16 22  2  0
 12 17  1  1
 17 19  1  0
 17 20  1  0
 18 19  1  0
 18 22  1  0
 18 23  1  0
  9 10  1  0
  9 11  1  0
 10 12  1  0
 11  5  1  1
 33 34  1  0
 33 35  1  0
 34 36  1  0
 35 37  1  0
 37 43  1  1
 20 21  2  0
 21 22  1  0
M  CHG  3   2  -1  26  -1  41  -1
M  END
>  <COMPND>  (477) 
    udp_gluA.pdb 

>  <AUTHOR>  (477) 
    GENERATED BY OPEN BABEL 3.1.1

>  <MASTER>  (477) 
        0    0    0    0    0    0    0    0   56    0   56    0

>  <minimizedAffinity>  (477) 
-8.63044

>  <CNNscore>  (477) 
0.6440129876

>  <CNNaffinity>  (477) 
4.3529186249

>  <CNN_VS>  (477) 
2.8033361435

>  <CNNaffinity_variance>  (477) 
0.1955198646

$$$$
478
     RDKit          3D

 43 45  0  0  0  0  0  0  0  0999 V2000
   23.0791   73.3809   -4.5232 P   0  0  2  0  0  0  0  0  0  0  0  0
   24.2007   72.2944   -4.0985 O   0  0  0  0  0  0  0  0  0  0  0  0
   23.6196   74.7048   -4.9782 O   0  0  0  0  0  0  0  0  0  0  0  0
   22.0828   73.4291   -3.2491 O   0  0  0  0  0  0  0  0  0  0  0  0
   22.6334   73.2737   -1.9541 C   0  0  0  0  0  0  0  0  0  0  0  0
   23.4069   71.3843   -0.6854 O   0  0  0  0  0  0  0  0  0  0  0  0
   20.5223   70.6023   -0.4424 O   0  0  0  0  0  0  0  0  0  0  0  0
   21.0350   71.7483    1.9784 O   0  0  0  0  0  0  0  0  0  0  0  0
   21.1083   71.9043   -0.4470 C   0  0  1  0  0  0  0  0  0  0  0  0
   21.8034   72.1709    0.8714 C   0  0  2  0  0  0  0  0  0  0  0  0
   22.2750   71.8909   -1.4253 C   0  0  1  0  0  0  0  0  0  0  0  0
   23.0898   71.3781    0.7156 C   0  0  2  0  0  0  0  0  0  0  0  0
   19.7743   70.5863    0.1756 H   0  0  0  0  0  0  0  0  0  0  0  0
   20.2272   72.2833    2.0344 H   0  0  0  0  0  0  0  0  0  0  0  0
   24.9700   69.8982    2.2160 O   0  0  0  0  0  0  0  0  0  0  0  0
   27.2405   73.7079    3.4708 O   0  0  0  0  0  0  0  0  0  0  0  0
   24.1825   71.9579    1.4442 N   0  0  0  0  0  0  0  0  0  0  0  0
   26.0985   71.7971    2.8404 N   0  0  0  0  0  0  0  0  0  0  0  0
   25.0702   71.1255    2.1661 C   0  0  0  0  0  0  0  0  0  0  0  0
   24.3672   73.3351    1.4377 C   0  0  0  0  0  0  0  0  0  0  0  0
   25.3521   73.9608    2.0851 C   0  0  0  0  0  0  0  0  0  0  0  0
   26.3226   73.1642    2.8641 C   0  0  0  0  0  0  0  0  0  0  0  0
   26.7279   71.2389    3.3517 H   0  0  0  0  0  0  0  0  0  0  0  0
   22.2105   72.5905   -5.6339 O   0  0  0  0  0  0  0  0  0  0  0  0
   21.1437   73.1251   -6.7248 P   0  0  2  0  0  0  0  0  0  0  0  0
   21.6976   72.5101   -8.1159 O   0  0  0  0  0  0  0  0  0  0  0  0
   20.9675   74.6160   -6.7345 O   0  0  0  0  0  0  0  0  0  0  0  0
   19.7953   72.2935   -6.4202 O   0  0  0  0  0  0  0  0  0  0  0  0
   19.5462   70.1566   -5.4300 O   0  0  0  0  0  0  0  0  0  0  0  0
   16.3122   70.2753   -7.9980 O   0  0  0  0  0  0  0  0  0  0  0  0
   18.9210   71.2722   -8.8550 O   0  0  0  0  0  0  0  0  0  0  0  0
   15.9214   70.6463   -5.1413 O   0  0  0  0  0  0  0  0  0  0  0  0
   17.2946   70.8148   -7.1139 C   0  0  2  0  0  0  0  0  0  0  0  0
   18.6916   70.5274   -7.6645 C   0  0  2  0  0  0  0  0  0  0  0  0
   17.1149   70.1521   -5.7462 C   0  0  1  0  0  0  0  0  0  0  0  0
   19.7682   70.8842   -6.6386 C   0  0  1  0  0  0  0  0  0  0  0  0
   18.2911   70.4538   -4.8221 C   0  0  1  0  0  0  0  0  0  0  0  0
   16.4070   70.6818   -8.8738 H   0  0  0  0  0  0  0  0  0  0  0  0
   18.2414   71.0509   -9.5104 H   0  0  0  0  0  0  0  0  0  0  0  0
   15.1651   70.4607   -5.7196 H   0  0  0  0  0  0  0  0  0  0  0  0
   17.5515   68.4343   -3.8861 O   0  0  0  0  0  0  0  0  0  0  0  0
   18.8330   69.7837   -2.5685 O   0  0  0  0  0  0  0  0  0  0  0  0
   18.2740   69.5531   -3.6302 C   0  0  0  0  0  0  0  0  0  0  0  0
  1  4  1  0
  1 24  1  0
  1  2  1  1
  1  3  2  0
 25 28  1  0
 25 24  1  0
 25 26  1  6
 25 27  2  0
  6 11  1  0
  6 12  1  0
 29 36  1  0
 29 37  1  0
  9  7  1  1
  7 13  1  0
 10  8  1  1
  8 14  1  0
  4  5  1  0
 36 28  1  1
 33 30  1  6
 30 38  1  0
 34 31  1  6
 31 39  1  0
 35 32  1  1
 32 40  1  0
 41 43  1  0
 15 19  2  0
 42 43  2  0
 16 22  2  0
 12 17  1  1
 17 19  1  0
 17 20  1  0
 18 19  1  0
 18 22  1  0
 18 23  1  0
  9 10  1  0
  9 11  1  0
 10 12  1  0
 11  5  1  1
 33 34  1  0
 33 35  1  0
 34 36  1  0
 35 37  1  0
 37 43  1  1
 20 21  2  0
 21 22  1  0
M  CHG  3   2  -1  26  -1  41  -1
M  END
>  <COMPND>  (478) 
    udp_gluA.pdb 

>  <AUTHOR>  (478) 
    GENERATED BY OPEN BABEL 3.1.1

>  <MASTER>  (478) 
        0    0    0    0    0    0    0    0   56    0   56    0

>  <minimizedAffinity>  (478) 
-7.89152

>  <CNNscore>  (478) 
0.6280788183

>  <CNNaffinity>  (478) 
4.4914216995

>  <CNN_VS>  (478) 
2.8209667206

>  <CNNaffinity_variance>  (478) 
0.0500161275

$$$$
479
     RDKit          3D

 43 45  0  0  0  0  0  0  0  0999 V2000
   22.8325   73.3566   -4.4619 P   0  0  2  0  0  0  0  0  0  0  0  0
   23.9483   72.2040   -4.2486 O   0  0  0  0  0  0  0  0  0  0  0  0
   23.0463   74.2309   -5.6626 O   0  0  0  0  0  0  0  0  0  0  0  0
   22.7853   74.1203   -3.0362 O   0  0  0  0  0  0  0  0  0  0  0  0
   22.0782   73.5162   -1.9687 C   0  0  0  0  0  0  0  0  0  0  0  0
   22.9025   73.4569    0.2884 O   0  0  0  0  0  0  0  0  0  0  0  0
   24.0771   70.7873   -0.4080 O   0  0  0  0  0  0  0  0  0  0  0  0
   21.8267   70.1061    0.9730 O   0  0  0  0  0  0  0  0  0  0  0  0
   22.8466   71.3722   -0.8349 C   0  0  1  0  0  0  0  0  0  0  0  0
   21.8339   71.3423    0.2902 C   0  0  2  0  0  0  0  0  0  0  0  0
   23.0753   72.8664   -1.0180 C   0  0  1  0  0  0  0  0  0  0  0  0
   22.3019   72.4916    1.1664 C   0  0  2  0  0  0  0  0  0  0  0  0
   23.9559   69.8325   -0.2843 H   0  0  0  0  0  0  0  0  0  0  0  0
   21.5213   69.4070    0.3730 H   0  0  0  0  0  0  0  0  0  0  0  0
   22.0479   72.5216    3.9791 O   0  0  0  0  0  0  0  0  0  0  0  0
   18.1128   74.9131    3.7809 O   0  0  0  0  0  0  0  0  0  0  0  0
   21.2209   73.1150    1.8762 N   0  0  0  0  0  0  0  0  0  0  0  0
   20.0877   73.7118    3.8777 N   0  0  0  0  0  0  0  0  0  0  0  0
   21.1875   73.0727    3.2901 C   0  0  0  0  0  0  0  0  0  0  0  0
   20.2104   73.7600    1.1734 C   0  0  0  0  0  0  0  0  0  0  0  0
   19.1685   74.3647    1.7475 C   0  0  0  0  0  0  0  0  0  0  0  0
   19.0578   74.3657    3.2209 C   0  0  0  0  0  0  0  0  0  0  0  0
   20.0416   73.6938    4.8610 H   0  0  0  0  0  0  0  0  0  0  0  0
   21.4476   72.5232   -4.4737 O   0  0  0  0  0  0  0  0  0  0  0  0
   19.9292   72.9921   -4.7708 P   0  0  2  0  0  0  0  0  0  0  0  0
   20.0681   74.5929   -4.9674 O   0  0  0  0  0  0  0  0  0  0  0  0
   18.9408   72.5820   -3.7177 O   0  0  0  0  0  0  0  0  0  0  0  0
   19.6076   72.4269   -6.2471 O   0  0  0  0  0  0  0  0  0  0  0  0
   19.0615   70.1539   -5.8672 O   0  0  0  0  0  0  0  0  0  0  0  0
   18.2207   70.5592   -9.8917 O   0  0  0  0  0  0  0  0  0  0  0  0
   20.6230   71.7690   -8.7516 O   0  0  0  0  0  0  0  0  0  0  0  0
   16.0580   70.4646   -7.9515 O   0  0  0  0  0  0  0  0  0  0  0  0
   18.3363   70.9879   -8.5350 C   0  0  2  0  0  0  0  0  0  0  0  0
   19.7862   70.8395   -8.0731 C   0  0  2  0  0  0  0  0  0  0  0  0
   17.4140   70.1134   -7.6825 C   0  0  1  0  0  0  0  0  0  0  0  0
   19.9064   71.0690   -6.5659 C   0  0  1  0  0  0  0  0  0  0  0  0
   17.6819   70.3080   -6.1929 C   0  0  1  0  0  0  0  0  0  0  0  0
   18.7983   71.1008  -10.4525 H   0  0  0  0  0  0  0  0  0  0  0  0
   20.5514   71.6293   -9.7085 H   0  0  0  0  0  0  0  0  0  0  0  0
   15.8744   70.3453   -8.8965 H   0  0  0  0  0  0  0  0  0  0  0  0
   17.5427   69.1855   -4.1381 O   0  0  0  0  0  0  0  0  0  0  0  0
   16.1423   68.4926   -5.7988 O   0  0  0  0  0  0  0  0  0  0  0  0
   17.0256   69.2318   -5.3909 C   0  0  0  0  0  0  0  0  0  0  0  0
  1  4  1  0
  1 24  1  0
  1  2  1  1
  1  3  2  0
 25 28  1  0
 25 24  1  0
 25 26  1  6
 25 27  2  0
  6 11  1  0
  6 12  1  0
 29 36  1  0
 29 37  1  0
  9  7  1  1
  7 13  1  0
 10  8  1  1
  8 14  1  0
  4  5  1  0
 36 28  1  6
 33 30  1  6
 30 38  1  0
 34 31  1  6
 31 39  1  0
 35 32  1  1
 32 40  1  0
 41 43  1  0
 15 19  2  0
 42 43  2  0
 16 22  2  0
 12 17  1  6
 17 19  1  0
 17 20  1  0
 18 19  1  0
 18 22  1  0
 18 23  1  0
  9 10  1  0
  9 11  1  0
 10 12  1  0
 11  5  1  6
 33 34  1  0
 33 35  1  0
 34 36  1  0
 35 37  1  0
 37 43  1  1
 20 21  2  0
 21 22  1  0
M  CHG  3   2  -1  26  -1  41  -1
M  END
>  <COMPND>  (479) 
    udp_gluA.pdb 

>  <AUTHOR>  (479) 
    GENERATED BY OPEN BABEL 3.1.1

>  <MASTER>  (479) 
        0    0    0    0    0    0    0    0   56    0   56    0

>  <minimizedAffinity>  (479) 
-7.44861

>  <CNNscore>  (479) 
0.6254029870

>  <CNNaffinity>  (479) 
4.3680472374

>  <CNN_VS>  (479) 
2.7317898273

>  <CNNaffinity_variance>  (479) 
0.0282635055

$$$$
480
     RDKit          3D

 43 45  0  0  0  0  0  0  0  0999 V2000
   21.8088   71.0733   -0.0075 P   0  0  2  0  0  0  0  0  0  0  0  0
   23.3084   71.0267   -0.6141 O   0  0  0  0  0  0  0  0  0  0  0  0
   21.5718   70.1688    1.1661 O   0  0  0  0  0  0  0  0  0  0  0  0
   20.8613   70.8180   -1.2940 O   0  0  0  0  0  0  0  0  0  0  0  0
   20.4093   71.9374   -2.0336 C   0  0  0  0  0  0  0  0  0  0  0  0
   20.8339   70.9020   -4.1608 O   0  0  0  0  0  0  0  0  0  0  0  0
   21.9918   73.5367   -5.0028 O   0  0  0  0  0  0  0  0  0  0  0  0
   19.5114   73.5869   -6.1347 O   0  0  0  0  0  0  0  0  0  0  0  0
   20.8787   73.2702   -4.1492 C   0  0  1  0  0  0  0  0  0  0  0  0
   19.6890   72.8134   -4.9665 C   0  0  2  0  0  0  0  0  0  0  0  0
   21.2005   72.0264   -3.3322 C   0  0  1  0  0  0  0  0  0  0  0  0
   20.0509   71.3696   -5.2706 C   0  0  2  0  0  0  0  0  0  0  0  0
   21.8095   74.3275   -5.5350 H   0  0  0  0  0  0  0  0  0  0  0  0
   19.2823   74.4972   -5.8880 H   0  0  0  0  0  0  0  0  0  0  0  0
   18.6038   71.0388   -7.6733 O   0  0  0  0  0  0  0  0  0  0  0  0
   15.6250   68.1322   -5.6928 O   0  0  0  0  0  0  0  0  0  0  0  0
   18.8932   70.5324   -5.4109 N   0  0  0  0  0  0  0  0  0  0  0  0
   17.1210   69.5923   -6.6844 N   0  0  0  0  0  0  0  0  0  0  0  0
   18.2392   70.4362   -6.6620 C   0  0  0  0  0  0  0  0  0  0  0  0
   18.4182   69.8168   -4.3186 C   0  0  0  0  0  0  0  0  0  0  0  0
   17.3511   69.0163   -4.3553 C   0  0  0  0  0  0  0  0  0  0  0  0
   16.6103   68.8608   -5.6243 C   0  0  0  0  0  0  0  0  0  0  0  0
   16.6479   69.5108   -7.5439 H   0  0  0  0  0  0  0  0  0  0  0  0
   21.5899   72.6453    0.2988 O   0  0  0  0  0  0  0  0  0  0  0  0
   22.6510   73.8567    0.4411 P   0  0  2  0  0  0  0  0  0  0  0  0
   21.7869   75.1572    0.0141 O   0  0  0  0  0  0  0  0  0  0  0  0
   23.9130   73.6660   -0.3493 O   0  0  0  0  0  0  0  0  0  0  0  0
   22.8746   74.0203    2.0304 O   0  0  0  0  0  0  0  0  0  0  0  0
   24.7195   73.2520    3.3013 O   0  0  0  0  0  0  0  0  0  0  0  0
   21.6904   73.2167    6.1104 O   0  0  0  0  0  0  0  0  0  0  0  0
   21.2001   72.2658    3.3920 O   0  0  0  0  0  0  0  0  0  0  0  0
   23.6947   75.3219    6.1522 O   0  0  0  0  0  0  0  0  0  0  0  0
   22.3943   73.6817    4.9588 C   0  0  2  0  0  0  0  0  0  0  0  0
   22.4861   72.5577    3.9266 C   0  0  2  0  0  0  0  0  0  0  0  0
   23.7942   74.1126    5.4024 C   0  0  1  0  0  0  0  0  0  0  0  0
   23.4258   72.9409    2.7825 C   0  0  1  0  0  0  0  0  0  0  0  0
   24.7080   74.3551    4.2046 C   0  0  1  0  0  0  0  0  0  0  0  0
   20.7977   72.9372    5.8529 H   0  0  0  0  0  0  0  0  0  0  0  0
   20.5986   72.0221    4.1125 H   0  0  0  0  0  0  0  0  0  0  0  0
   23.1155   75.1811    6.9174 H   0  0  0  0  0  0  0  0  0  0  0  0
   26.9664   74.1077    3.6214 O   0  0  0  0  0  0  0  0  0  0  0  0
   26.5102   74.7897    5.7488 O   0  0  0  0  0  0  0  0  0  0  0  0
   26.1351   74.4497    4.6368 C   0  0  0  0  0  0  0  0  0  0  0  0
  1  4  1  0
  1 24  1  0
  1  2  1  6
  1  3  2  0
 25 28  1  0
 25 24  1  0
 25 26  1  6
 25 27  2  0
  6 11  1  0
  6 12  1  0
 29 36  1  0
 29 37  1  0
  9  7  1  6
  7 13  1  0
 10  8  1  6
  8 14  1  0
  4  5  1  0
 36 28  1  1
 33 30  1  1
 30 38  1  0
 34 31  1  6
 31 39  1  0
 35 32  1  6
 32 40  1  0
 41 43  1  0
 15 19  2  0
 42 43  2  0
 16 22  2  0
 12 17  1  1
 17 19  1  0
 17 20  1  0
 18 19  1  0
 18 22  1  0
 18 23  1  0
  9 10  1  0
  9 11  1  0
 10 12  1  0
 11  5  1  1
 33 34  1  0
 33 35  1  0
 34 36  1  0
 35 37  1  0
 37 43  1  1
 20 21  2  0
 21 22  1  0
M  CHG  3   2  -1  26  -1  41  -1
M  END
>  <COMPND>  (480) 
    udp_gluA.pdb 

>  <AUTHOR>  (480) 
    GENERATED BY OPEN BABEL 3.1.1

>  <MASTER>  (480) 
        0    0    0    0    0    0    0    0   56    0   56    0

>  <minimizedAffinity>  (480) 
-6.66253

>  <CNNscore>  (480) 
0.6247434616

>  <CNNaffinity>  (480) 
4.2335796356

>  <CNN_VS>  (480) 
2.6449012756

>  <CNNaffinity_variance>  (480) 
0.0770649016

$$$$
481
     RDKit          3D

 43 45  0  0  0  0  0  0  0  0999 V2000
   22.2968   71.8059   -3.1869 P   0  0  2  0  0  0  0  0  0  0  0  0
   21.7597   73.3149   -2.9562 O   0  0  0  0  0  0  0  0  0  0  0  0
   23.7322   71.7023   -3.6121 O   0  0  0  0  0  0  0  0  0  0  0  0
   21.2150   71.1593   -4.2016 O   0  0  0  0  0  0  0  0  0  0  0  0
   20.3915   70.1079   -3.7317 C   0  0  0  0  0  0  0  0  0  0  0  0
   18.6135   71.3512   -4.7665 O   0  0  0  0  0  0  0  0  0  0  0  0
   16.7947   70.0595   -2.7628 O   0  0  0  0  0  0  0  0  0  0  0  0
   16.3427   68.5878   -5.0136 O   0  0  0  0  0  0  0  0  0  0  0  0
   17.9354   69.5177   -3.4290 C   0  0  1  0  0  0  0  0  0  0  0  0
   17.6022   69.2113   -4.8737 C   0  0  2  0  0  0  0  0  0  0  0  0
   18.9688   70.6271   -3.5687 C   0  0  1  0  0  0  0  0  0  0  0  0
   17.6448   70.5917   -5.5068 C   0  0  2  0  0  0  0  0  0  0  0  0
   16.1204   69.3690   -2.6620 H   0  0  0  0  0  0  0  0  0  0  0  0
   16.3670   67.7126   -4.5948 H   0  0  0  0  0  0  0  0  0  0  0  0
   15.8651   70.1934   -7.6633 O   0  0  0  0  0  0  0  0  0  0  0  0
   19.2703   70.4496  -10.7589 O   0  0  0  0  0  0  0  0  0  0  0  0
   18.0395   70.5499   -6.8864 N   0  0  0  0  0  0  0  0  0  0  0  0
   17.5629   70.3204   -9.2029 N   0  0  0  0  0  0  0  0  0  0  0  0
   17.0666   70.3440   -7.8929 C   0  0  0  0  0  0  0  0  0  0  0  0
   19.3757   70.7134   -7.2308 C   0  0  0  0  0  0  0  0  0  0  0  0
   19.8337   70.6885   -8.4839 C   0  0  0  0  0  0  0  0  0  0  0  0
   18.8825   70.4775   -9.5948 C   0  0  0  0  0  0  0  0  0  0  0  0
   16.9047   70.1764   -9.9208 H   0  0  0  0  0  0  0  0  0  0  0  0
   21.9565   71.0809   -1.7828 O   0  0  0  0  0  0  0  0  0  0  0  0
   21.1525   71.6087   -0.4832 P   0  0  2  0  0  0  0  0  0  0  0  0
   21.1406   70.3180    0.4937 O   0  0  0  0  0  0  0  0  0  0  0  0
   19.7925   72.1679   -0.7857 O   0  0  0  0  0  0  0  0  0  0  0  0
   22.1608   72.6481    0.2277 O   0  0  0  0  0  0  0  0  0  0  0  0
   24.1742   73.6335   -0.5368 O   0  0  0  0  0  0  0  0  0  0  0  0
   24.9268   73.2096    3.5032 O   0  0  0  0  0  0  0  0  0  0  0  0
   23.6027   71.0751    2.0116 O   0  0  0  0  0  0  0  0  0  0  0  0
   24.2894   75.8243    2.4041 O   0  0  0  0  0  0  0  0  0  0  0  0
   24.1231   73.4215    2.3426 C   0  0  2  0  0  0  0  0  0  0  0  0
   24.2279   72.2076    1.4190 C   0  0  2  0  0  0  0  0  0  0  0  0
   24.6381   74.6760    1.6333 C   0  0  1  0  0  0  0  0  0  0  0  0
   23.5694   72.4897    0.0678 C   0  0  1  0  0  0  0  0  0  0  0  0
   24.0284   74.8190    0.2418 C   0  0  1  0  0  0  0  0  0  0  0  0
   24.6180   72.4173    3.9704 H   0  0  0  0  0  0  0  0  0  0  0  0
   24.0154   70.8905    2.8695 H   0  0  0  0  0  0  0  0  0  0  0  0
   24.6712   75.7457    3.2923 H   0  0  0  0  0  0  0  0  0  0  0  0
   25.7175   76.4458    0.1968 O   0  0  0  0  0  0  0  0  0  0  0  0
   24.5574   76.0974   -1.7350 O   0  0  0  0  0  0  0  0  0  0  0  0
   24.7690   75.8398   -0.5595 C   0  0  0  0  0  0  0  0  0  0  0  0
  1  4  1  0
  1 24  1  0
  1  2  1  1
  1  3  2  0
 25 28  1  0
 25 24  1  0
 25 26  1  1
 25 27  2  0
  6 11  1  0
  6 12  1  0
 29 36  1  0
 29 37  1  0
  9  7  1  1
  7 13  1  0
 10  8  1  1
  8 14  1  0
  4  5  1  0
 36 28  1  1
 33 30  1  1
 30 38  1  0
 34 31  1  1
 31 39  1  0
 35 32  1  1
 32 40  1  0
 41 43  1  0
 15 19  2  0
 42 43  2  0
 16 22  2  0
 12 17  1  6
 17 19  1  0
 17 20  1  0
 18 19  1  0
 18 22  1  0
 18 23  1  0
  9 10  1  0
  9 11  1  0
 10 12  1  0
 11  5  1  6
 33 34  1  0
 33 35  1  0
 34 36  1  0
 35 37  1  0
 37 43  1  6
 20 21  2  0
 21 22  1  0
M  CHG  3   2  -1  26  -1  41  -1
M  END
>  <COMPND>  (481) 
    udp_gluA.pdb 

>  <AUTHOR>  (481) 
    GENERATED BY OPEN BABEL 3.1.1

>  <MASTER>  (481) 
        0    0    0    0    0    0    0    0   56    0   56    0

>  <minimizedAffinity>  (481) 
-7.42824

>  <CNNscore>  (481) 
0.9457803965

>  <CNNaffinity>  (481) 
4.8729419708

>  <CNN_VS>  (481) 
4.6087331772

>  <CNNaffinity_variance>  (481) 
0.0526006520

$$$$
482
     RDKit          3D

 43 45  0  0  0  0  0  0  0  0999 V2000
   20.2147   71.9660   -1.7876 P   0  0  2  0  0  0  0  0  0  0  0  0
   20.3252   70.6011   -0.9253 O   0  0  0  0  0  0  0  0  0  0  0  0
   19.2893   73.0015   -1.2190 O   0  0  0  0  0  0  0  0  0  0  0  0
   19.8633   71.4542   -3.2818 O   0  0  0  0  0  0  0  0  0  0  0  0
   19.1198   70.2584   -3.4295 C   0  0  0  0  0  0  0  0  0  0  0  0
   17.4760   71.3276   -4.8195 O   0  0  0  0  0  0  0  0  0  0  0  0
   15.4300   69.7682   -3.2790 O   0  0  0  0  0  0  0  0  0  0  0  0
   15.6574   68.3348   -5.5876 O   0  0  0  0  0  0  0  0  0  0  0  0
   16.7444   69.3831   -3.6819 C   0  0  1  0  0  0  0  0  0  0  0  0
   16.7731   69.0919   -5.1673 C   0  0  2  0  0  0  0  0  0  0  0  0
   17.6446   70.6068   -3.5796 C   0  0  1  0  0  0  0  0  0  0  0  0
   16.7890   70.4896   -5.7624 C   0  0  2  0  0  0  0  0  0  0  0  0
   14.8366   69.0025   -3.3359 H   0  0  0  0  0  0  0  0  0  0  0  0
   15.6932   67.4538   -5.1820 H   0  0  0  0  0  0  0  0  0  0  0  0
   15.5081   70.5638   -8.2785 O   0  0  0  0  0  0  0  0  0  0  0  0
   19.5300   70.6871  -10.5265 O   0  0  0  0  0  0  0  0  0  0  0  0
   17.4772   70.5414   -7.0212 N   0  0  0  0  0  0  0  0  0  0  0  0
   17.5125   70.6241   -9.3957 N   0  0  0  0  0  0  0  0  0  0  0  0
   16.7395   70.5754   -8.2282 C   0  0  0  0  0  0  0  0  0  0  0  0
   18.8664   70.5597   -7.0520 C   0  0  0  0  0  0  0  0  0  0  0  0
   19.5892   70.6063   -8.1727 C   0  0  0  0  0  0  0  0  0  0  0  0
   18.8954   70.6434   -9.4768 C   0  0  0  0  0  0  0  0  0  0  0  0
   17.0211   70.6464  -10.2486 H   0  0  0  0  0  0  0  0  0  0  0  0
   21.7550   72.4385   -1.9182 O   0  0  0  0  0  0  0  0  0  0  0  0
   22.8469   72.8221   -0.7893 P   0  0  2  0  0  0  0  0  0  0  0  0
   23.7459   71.4809   -0.6735 O   0  0  0  0  0  0  0  0  0  0  0  0
   22.2532   73.2828    0.5103 O   0  0  0  0  0  0  0  0  0  0  0  0
   23.8126   73.8992   -1.5033 O   0  0  0  0  0  0  0  0  0  0  0  0
   23.1321   75.9772   -2.4133 O   0  0  0  0  0  0  0  0  0  0  0  0
   26.5279   75.1641   -4.6214 O   0  0  0  0  0  0  0  0  0  0  0  0
   24.6040   73.0468   -4.0299 O   0  0  0  0  0  0  0  0  0  0  0  0
   26.6086   77.1473   -2.4974 O   0  0  0  0  0  0  0  0  0  0  0  0
   25.6879   75.1432   -3.4673 C   0  0  2  0  0  0  0  0  0  0  0  0
   24.3761   74.4328   -3.8019 C   0  0  2  0  0  0  0  0  0  0  0  0
   25.4181   76.5913   -3.0524 C   0  0  1  0  0  0  0  0  0  0  0  0
   23.3633   74.5909   -2.6671 C   0  0  1  0  0  0  0  0  0  0  0  0
   24.3083   76.6741   -2.0083 C   0  0  1  0  0  0  0  0  0  0  0  0
   26.7129   74.2545   -4.9034 H   0  0  0  0  0  0  0  0  0  0  0  0
   25.2460   72.9390   -4.7486 H   0  0  0  0  0  0  0  0  0  0  0  0
   27.3230   77.1005   -3.1518 H   0  0  0  0  0  0  0  0  0  0  0  0
   24.2164   78.8369   -2.9113 O   0  0  0  0  0  0  0  0  0  0  0  0
   23.1745   78.4996   -0.9113 O   0  0  0  0  0  0  0  0  0  0  0  0
   23.8286   78.0807   -1.8546 C   0  0  0  0  0  0  0  0  0  0  0  0
  1  4  1  0
  1 24  1  0
  1  2  1  1
  1  3  2  0
 25 28  1  0
 25 24  1  0
 25 26  1  1
 25 27  2  0
  6 11  1  0
  6 12  1  0
 29 36  1  0
 29 37  1  0
  9  7  1  6
  7 13  1  0
 10  8  1  6
  8 14  1  0
  4  5  1  0
 36 28  1  1
 33 30  1  6
 30 38  1  0
 34 31  1  1
 31 39  1  0
 35 32  1  1
 32 40  1  0
 41 43  1  0
 15 19  2  0
 42 43  2  0
 16 22  2  0
 12 17  1  6
 17 19  1  0
 17 20  1  0
 18 19  1  0
 18 22  1  0
 18 23  1  0
  9 10  1  0
  9 11  1  0
 10 12  1  0
 11  5  1  6
 33 34  1  0
 33 35  1  0
 34 36  1  0
 35 37  1  0
 37 43  1  6
 20 21  2  0
 21 22  1  0
M  CHG  3   2  -1  26  -1  41  -1
M  END
>  <COMPND>  (482) 
    udp_gluA.pdb 

>  <AUTHOR>  (482) 
    GENERATED BY OPEN BABEL 3.1.1

>  <MASTER>  (482) 
        0    0    0    0    0    0    0    0   56    0   56    0

>  <minimizedAffinity>  (482) 
-7.04499

>  <CNNscore>  (482) 
0.9226185679

>  <CNNaffinity>  (482) 
4.8528709412

>  <CNN_VS>  (482) 
4.4773488045

>  <CNNaffinity_variance>  (482) 
0.0693858936

$$$$
483
     RDKit          3D

 43 45  0  0  0  0  0  0  0  0999 V2000
   23.0548   71.5730   -2.8173 P   0  0  2  0  0  0  0  0  0  0  0  0
   23.3827   73.1537   -2.7050 O   0  0  0  0  0  0  0  0  0  0  0  0
   24.2129   70.7136   -3.2321 O   0  0  0  0  0  0  0  0  0  0  0  0
   21.7554   71.5132   -3.7796 O   0  0  0  0  0  0  0  0  0  0  0  0
   20.9117   70.3786   -3.7066 C   0  0  0  0  0  0  0  0  0  0  0  0
   18.9921   71.5097   -4.6086 O   0  0  0  0  0  0  0  0  0  0  0  0
   17.4210   70.1962   -2.4182 O   0  0  0  0  0  0  0  0  0  0  0  0
   16.8423   68.6405   -4.5818 O   0  0  0  0  0  0  0  0  0  0  0  0
   18.5228   69.6872   -3.1702 C   0  0  1  0  0  0  0  0  0  0  0  0
   18.0781   69.3241   -4.5711 C   0  0  2  0  0  0  0  0  0  0  0  0
   19.4858   70.8376   -3.4297 C   0  0  1  0  0  0  0  0  0  0  0  0
   17.9989   70.6859   -5.2398 C   0  0  2  0  0  0  0  0  0  0  0  0
   16.7919   69.4791   -2.2401 H   0  0  0  0  0  0  0  0  0  0  0  0
   16.9451   67.7799   -4.1451 H   0  0  0  0  0  0  0  0  0  0  0  0
   16.0553   70.1512   -7.2179 O   0  0  0  0  0  0  0  0  0  0  0  0
   19.1587   70.4638  -10.6113 O   0  0  0  0  0  0  0  0  0  0  0  0
   18.2716   70.6217   -6.6477 N   0  0  0  0  0  0  0  0  0  0  0  0
   17.6030   70.3064   -8.9060 N   0  0  0  0  0  0  0  0  0  0  0  0
   17.2238   70.3462   -7.5578 C   0  0  0  0  0  0  0  0  0  0  0  0
   19.5636   70.8319   -7.1143 C   0  0  0  0  0  0  0  0  0  0  0  0
   19.9097   70.7909   -8.4024 C   0  0  0  0  0  0  0  0  0  0  0  0
   18.8745   70.5082   -9.4182 C   0  0  0  0  0  0  0  0  0  0  0  0
   16.8911   70.1142   -9.5583 H   0  0  0  0  0  0  0  0  0  0  0  0
   22.4451   71.2245   -1.3614 O   0  0  0  0  0  0  0  0  0  0  0  0
   21.4002   72.0306   -0.4276 P   0  0  2  0  0  0  0  0  0  0  0  0
   20.4331   70.8625    0.1388 O   0  0  0  0  0  0  0  0  0  0  0  0
   20.6788   73.1442   -1.1300 O   0  0  0  0  0  0  0  0  0  0  0  0
   22.2679   72.4960    0.8502 O   0  0  0  0  0  0  0  0  0  0  0  0
   24.0063   71.4384    2.0621 O   0  0  0  0  0  0  0  0  0  0  0  0
   21.9942   73.4480    5.0590 O   0  0  0  0  0  0  0  0  0  0  0  0
   20.5160   72.0484    2.9637 O   0  0  0  0  0  0  0  0  0  0  0  0
   24.5309   74.4653    4.0684 O   0  0  0  0  0  0  0  0  0  0  0  0
   22.4864   73.2346    3.7361 C   0  0  2  0  0  0  0  0  0  0  0  0
   21.9169   71.9282    3.1826 C   0  0  2  0  0  0  0  0  0  0  0  0
   24.0135   73.1624    3.8055 C   0  0  1  0  0  0  0  0  0  0  0  0
   22.5961   71.5496    1.8658 C   0  0  1  0  0  0  0  0  0  0  0  0
   24.6075   72.6572    2.4938 C   0  0  1  0  0  0  0  0  0  0  0  0
   21.0255   73.4973    5.0398 H   0  0  0  0  0  0  0  0  0  0  0  0
   20.0787   72.2887    3.7952 H   0  0  0  0  0  0  0  0  0  0  0  0
   24.1605   74.7984    4.9007 H   0  0  0  0  0  0  0  0  0  0  0  0
   26.2393   70.9796    2.3379 O   0  0  0  0  0  0  0  0  0  0  0  0
   26.9224   73.0310    3.0620 O   0  0  0  0  0  0  0  0  0  0  0  0
   26.0419   72.2790    2.6720 C   0  0  0  0  0  0  0  0  0  0  0  0
  1  4  1  0
  1 24  1  0
  1  2  1  1
  1  3  2  0
 25 28  1  0
 25 24  1  0
 25 26  1  1
 25 27  2  0
  6 11  1  0
  6 12  1  0
 29 36  1  0
 29 37  1  0
  9  7  1  1
  7 13  1  0
 10  8  1  1
  8 14  1  0
  4  5  1  0
 36 28  1  6
 33 30  1  1
 30 38  1  0
 34 31  1  6
 31 39  1  0
 35 32  1  6
 32 40  1  0
 41 43  1  0
 15 19  2  0
 42 43  2  0
 16 22  2  0
 12 17  1  6
 17 19  1  0
 17 20  1  0
 18 19  1  0
 18 22  1  0
 18 23  1  0
  9 10  1  0
  9 11  1  0
 10 12  1  0
 11  5  1  6
 33 34  1  0
 33 35  1  0
 34 36  1  0
 35 37  1  0
 37 43  1  1
 20 21  2  0
 21 22  1  0
M  CHG  3   2  -1  26  -1  41  -1
M  END
>  <COMPND>  (483) 
    udp_gluA.pdb 

>  <AUTHOR>  (483) 
    GENERATED BY OPEN BABEL 3.1.1

>  <MASTER>  (483) 
        0    0    0    0    0    0    0    0   56    0   56    0

>  <minimizedAffinity>  (483) 
-8.05109

>  <CNNscore>  (483) 
0.9201319814

>  <CNNaffinity>  (483) 
4.8354711533

>  <CNN_VS>  (483) 
4.4492716789

>  <CNNaffinity_variance>  (483) 
0.0252280142

$$$$
484
     RDKit          3D

 43 45  0  0  0  0  0  0  0  0999 V2000
   21.7714   71.7564   -3.1523 P   0  0  2  0  0  0  0  0  0  0  0  0
   21.6529   73.3305   -2.7956 O   0  0  0  0  0  0  0  0  0  0  0  0
   23.0436   71.3569   -3.8406 O   0  0  0  0  0  0  0  0  0  0  0  0
   20.4058   71.4370   -3.9591 O   0  0  0  0  0  0  0  0  0  0  0  0
   19.6167   70.3372   -3.5440 C   0  0  0  0  0  0  0  0  0  0  0  0
   17.8976   71.4161   -4.8317 O   0  0  0  0  0  0  0  0  0  0  0  0
   15.9388   70.0021   -3.0553 O   0  0  0  0  0  0  0  0  0  0  0  0
   15.9102   68.4709   -5.3116 O   0  0  0  0  0  0  0  0  0  0  0  0
   17.1979   69.5488   -3.5532 C   0  0  1  0  0  0  0  0  0  0  0  0
   17.0854   69.1985   -5.0218 C   0  0  2  0  0  0  0  0  0  0  0  0
   18.1477   70.7385   -3.5812 C   0  0  1  0  0  0  0  0  0  0  0  0
   17.1003   70.5698   -5.6752 C   0  0  2  0  0  0  0  0  0  0  0  0
   15.3151   69.2592   -3.0282 H   0  0  0  0  0  0  0  0  0  0  0  0
   15.9492   67.6058   -4.8733 H   0  0  0  0  0  0  0  0  0  0  0  0
   15.6077   70.6135   -8.0725 O   0  0  0  0  0  0  0  0  0  0  0  0
   19.4180   70.4683  -10.6617 O   0  0  0  0  0  0  0  0  0  0  0  0
   17.6768   70.5443   -6.9897 N   0  0  0  0  0  0  0  0  0  0  0  0
   17.5069   70.5401   -9.3598 N   0  0  0  0  0  0  0  0  0  0  0  0
   16.8381   70.5695   -8.1290 C   0  0  0  0  0  0  0  0  0  0  0  0
   19.0574   70.4967   -7.1407 C   0  0  0  0  0  0  0  0  0  0  0  0
   19.6803   70.4693   -8.3205 C   0  0  0  0  0  0  0  0  0  0  0  0
   18.8769   70.4919   -9.5604 C   0  0  0  0  0  0  0  0  0  0  0  0
   16.9439   70.5548  -10.1673 H   0  0  0  0  0  0  0  0  0  0  0  0
   21.5254   71.0411   -1.7238 O   0  0  0  0  0  0  0  0  0  0  0  0
   21.1026   71.6538   -0.2887 P   0  0  2  0  0  0  0  0  0  0  0  0
   21.1838   70.3735    0.6985 O   0  0  0  0  0  0  0  0  0  0  0  0
   19.7747   72.3542   -0.2852 O   0  0  0  0  0  0  0  0  0  0  0  0
   22.3498   72.5812    0.1438 O   0  0  0  0  0  0  0  0  0  0  0  0
   22.1370   73.6770    2.2326 O   0  0  0  0  0  0  0  0  0  0  0  0
   25.4427   75.5639    0.6262 O   0  0  0  0  0  0  0  0  0  0  0  0
   23.1162   74.9781   -1.0408 O   0  0  0  0  0  0  0  0  0  0  0  0
   25.7718   73.5776    2.7232 O   0  0  0  0  0  0  0  0  0  0  0  0
   24.5452   74.4775    0.8548 C   0  0  2  0  0  0  0  0  0  0  0  0
   23.1446   74.8615    0.3770 C   0  0  2  0  0  0  0  0  0  0  0  0
   24.5330   74.1821    2.3563 C   0  0  1  0  0  0  0  0  0  0  0  0
   22.1134   73.8192    0.8118 C   0  0  1  0  0  0  0  0  0  0  0  0
   23.3979   73.2324    2.7280 C   0  0  1  0  0  0  0  0  0  0  0  0
   25.4668   75.7696   -0.3216 H   0  0  0  0  0  0  0  0  0  0  0  0
   23.7684   75.6377   -1.3236 H   0  0  0  0  0  0  0  0  0  0  0  0
   26.5026   74.1719    2.4917 H   0  0  0  0  0  0  0  0  0  0  0  0
   23.7650   74.2904    4.7890 O   0  0  0  0  0  0  0  0  0  0  0  0
   22.5798   72.3426    4.8162 O   0  0  0  0  0  0  0  0  0  0  0  0
   23.1881   73.2098    4.2072 C   0  0  0  0  0  0  0  0  0  0  0  0
  1  4  1  0
  1 24  1  0
  1  2  1  1
  1  3  2  0
 25 28  1  0
 25 24  1  0
 25 26  1  1
 25 27  2  0
  6 11  1  0
  6 12  1  0
 29 36  1  0
 29 37  1  0
  9  7  1  6
  7 13  1  0
 10  8  1  1
  8 14  1  0
  4  5  1  0
 36 28  1  6
 33 30  1  1
 30 38  1  0
 34 31  1  6
 31 39  1  0
 35 32  1  6
 32 40  1  0
 41 43  1  0
 15 19  2  0
 42 43  2  0
 16 22  2  0
 12 17  1  6
 17 19  1  0
 17 20  1  0
 18 19  1  0
 18 22  1  0
 18 23  1  0
  9 10  1  0
  9 11  1  0
 10 12  1  0
 11  5  1  6
 33 34  1  0
 33 35  1  0
 34 36  1  0
 35 37  1  0
 37 43  1  1
 20 21  2  0
 21 22  1  0
M  CHG  3   2  -1  26  -1  41  -1
M  END
>  <COMPND>  (484) 
    udp_gluA.pdb 

>  <AUTHOR>  (484) 
    GENERATED BY OPEN BABEL 3.1.1

>  <MASTER>  (484) 
        0    0    0    0    0    0    0    0   56    0   56    0

>  <minimizedAffinity>  (484) 
-7.30349

>  <CNNscore>  (484) 
0.8969637752

>  <CNNaffinity>  (484) 
4.7238812447

>  <CNN_VS>  (484) 
4.2371501923

>  <CNNaffinity_variance>  (484) 
0.0525377914

$$$$
485
     RDKit          3D

 43 45  0  0  0  0  0  0  0  0999 V2000
   20.8355   73.1087   -3.6552 P   0  0  2  0  0  0  0  0  0  0  0  0
   20.3444   73.5570   -2.1798 O   0  0  0  0  0  0  0  0  0  0  0  0
   21.4016   74.2140   -4.4975 O   0  0  0  0  0  0  0  0  0  0  0  0
   19.5536   72.3396   -4.2743 O   0  0  0  0  0  0  0  0  0  0  0  0
   18.9588   71.3004   -3.5188 C   0  0  0  0  0  0  0  0  0  0  0  0
   17.1918   71.7760   -5.0774 O   0  0  0  0  0  0  0  0  0  0  0  0
   15.4167   70.1741   -3.2680 O   0  0  0  0  0  0  0  0  0  0  0  0
   15.9723   68.4101   -5.2719 O   0  0  0  0  0  0  0  0  0  0  0  0
   16.7911   69.9709   -3.5969 C   0  0  1  0  0  0  0  0  0  0  0  0
   16.9182   69.4237   -5.0029 C   0  0  2  0  0  0  0  0  0  0  0  0
   17.4501   71.3374   -3.7261 C   0  0  1  0  0  0  0  0  0  0  0  0
   16.6982   70.6678   -5.8466 C   0  0  2  0  0  0  0  0  0  0  0  0
   14.9744   69.3147   -3.1802 H   0  0  0  0  0  0  0  0  0  0  0  0
   16.1552   67.6400   -4.7103 H   0  0  0  0  0  0  0  0  0  0  0  0
   15.4563   70.6945   -8.3830 O   0  0  0  0  0  0  0  0  0  0  0  0
   19.5062   70.4606  -10.5709 O   0  0  0  0  0  0  0  0  0  0  0  0
   17.4042   70.6149   -7.0954 N   0  0  0  0  0  0  0  0  0  0  0  0
   17.4745   70.5769   -9.4703 N   0  0  0  0  0  0  0  0  0  0  0  0
   16.6853   70.6336   -8.3140 C   0  0  0  0  0  0  0  0  0  0  0  0
   18.7921   70.5470   -7.1052 C   0  0  0  0  0  0  0  0  0  0  0  0
   19.5306   70.4936   -8.2154 C   0  0  0  0  0  0  0  0  0  0  0  0
   18.8570   70.5079   -9.5305 C   0  0  0  0  0  0  0  0  0  0  0  0
   16.9963   70.5866  -10.3308 H   0  0  0  0  0  0  0  0  0  0  0  0
   21.8668   71.9036   -3.3438 O   0  0  0  0  0  0  0  0  0  0  0  0
   23.2907   71.8963   -2.5783 P   0  0  2  0  0  0  0  0  0  0  0  0
   23.8728   73.3791   -2.8658 O   0  0  0  0  0  0  0  0  0  0  0  0
   24.2068   70.7813   -2.9924 O   0  0  0  0  0  0  0  0  0  0  0  0
   22.9123   71.9045   -1.0101 O   0  0  0  0  0  0  0  0  0  0  0  0
   22.7111   73.8672    0.3000 O   0  0  0  0  0  0  0  0  0  0  0  0
   23.5103   71.0134    3.1784 O   0  0  0  0  0  0  0  0  0  0  0  0
   24.9610   71.0058    0.6427 O   0  0  0  0  0  0  0  0  0  0  0  0
   20.8106   72.0411    2.8526 O   0  0  0  0  0  0  0  0  0  0  0  0
   22.9813   71.5130    1.9502 C   0  0  2  0  0  0  0  0  0  0  0  0
   24.1187   72.0623    1.0889 C   0  0  2  0  0  0  0  0  0  0  0  0
   21.9815   72.6229    2.2827 C   0  0  1  0  0  0  0  0  0  0  0  0
   23.5716   72.8106   -0.1275 C   0  0  1  0  0  0  0  0  0  0  0  0
   21.5803   73.4035    1.0344 C   0  0  1  0  0  0  0  0  0  0  0  0
   24.1484   70.3067    2.9921 H   0  0  0  0  0  0  0  0  0  0  0  0
   25.3114   70.5266    1.4094 H   0  0  0  0  0  0  0  0  0  0  0  0
   21.0522   71.5412    3.6479 H   0  0  0  0  0  0  0  0  0  0  0  0
   20.9953   74.9122    2.7323 O   0  0  0  0  0  0  0  0  0  0  0  0
   20.2796   75.3932    0.6215 O   0  0  0  0  0  0  0  0  0  0  0  0
   20.8777   74.6694    1.4033 C   0  0  0  0  0  0  0  0  0  0  0  0
  1  4  1  0
  1 24  1  0
  1  2  1  1
  1  3  2  0
 25 28  1  0
 25 24  1  0
 25 26  1  6
 25 27  2  0
  6 11  1  0
  6 12  1  0
 29 36  1  0
 29 37  1  0
  9  7  1  6
  7 13  1  0
 10  8  1  6
  8 14  1  0
  4  5  1  0
 36 28  1  6
 33 30  1  1
 30 38  1  0
 34 31  1  6
 31 39  1  0
 35 32  1  6
 32 40  1  0
 41 43  1  0
 15 19  2  0
 42 43  2  0
 16 22  2  0
 12 17  1  6
 17 19  1  0
 17 20  1  0
 18 19  1  0
 18 22  1  0
 18 23  1  0
  9 10  1  0
  9 11  1  0
 10 12  1  0
 11  5  1  6
 33 34  1  0
 33 35  1  0
 34 36  1  0
 35 37  1  0
 37 43  1  1
 20 21  2  0
 21 22  1  0
M  CHG  3   2  -1  26  -1  41  -1
M  END
>  <COMPND>  (485) 
    udp_gluA.pdb 

>  <AUTHOR>  (485) 
    GENERATED BY OPEN BABEL 3.1.1

>  <MASTER>  (485) 
        0    0    0    0    0    0    0    0   56    0   56    0

>  <minimizedAffinity>  (485) 
-7.61679

>  <CNNscore>  (485) 
0.8516028523

>  <CNNaffinity>  (485) 
4.6251182556

>  <CNN_VS>  (485) 
3.9387638569

>  <CNNaffinity_variance>  (485) 
0.0879618526

$$$$
486
     RDKit          3D

 43 45  0  0  0  0  0  0  0  0999 V2000
   20.8310   72.9687   -3.5843 P   0  0  2  0  0  0  0  0  0  0  0  0
   20.3033   73.3103   -2.0931 O   0  0  0  0  0  0  0  0  0  0  0  0
   21.3266   74.1492   -4.3670 O   0  0  0  0  0  0  0  0  0  0  0  0
   19.6066   72.1475   -4.2511 O   0  0  0  0  0  0  0  0  0  0  0  0
   18.9841   71.1272   -3.4922 C   0  0  0  0  0  0  0  0  0  0  0  0
   17.2272   71.6970   -5.0304 O   0  0  0  0  0  0  0  0  0  0  0  0
   15.4158   70.0803   -3.2706 O   0  0  0  0  0  0  0  0  0  0  0  0
   15.9251   68.3702   -5.3327 O   0  0  0  0  0  0  0  0  0  0  0  0
   16.7844   69.8545   -3.6091 C   0  0  1  0  0  0  0  0  0  0  0  0
   16.8960   69.3509   -5.0326 C   0  0  2  0  0  0  0  0  0  0  0  0
   17.4766   71.2079   -3.6947 C   0  0  1  0  0  0  0  0  0  0  0  0
   16.7054   70.6271   -5.8344 C   0  0  2  0  0  0  0  0  0  0  0  0
   14.9527   69.2296   -3.2102 H   0  0  0  0  0  0  0  0  0  0  0  0
   16.0898   67.5777   -4.7971 H   0  0  0  0  0  0  0  0  0  0  0  0
   15.4548   70.6550   -8.3666 O   0  0  0  0  0  0  0  0  0  0  0  0
   19.5010   70.5126  -10.5693 O   0  0  0  0  0  0  0  0  0  0  0  0
   17.4081   70.5980   -7.0859 N   0  0  0  0  0  0  0  0  0  0  0  0
   17.4712   70.5830   -9.4612 N   0  0  0  0  0  0  0  0  0  0  0  0
   16.6849   70.6152   -8.3020 C   0  0  0  0  0  0  0  0  0  0  0  0
   18.7969   70.5548   -7.1007 C   0  0  0  0  0  0  0  0  0  0  0  0
   19.5326   70.5246   -8.2137 C   0  0  0  0  0  0  0  0  0  0  0  0
   18.8545   70.5390   -9.5264 C   0  0  0  0  0  0  0  0  0  0  0  0
   16.9901   70.5921  -10.3201 H   0  0  0  0  0  0  0  0  0  0  0  0
   21.9388   71.8208   -3.3231 O   0  0  0  0  0  0  0  0  0  0  0  0
   23.4331   71.9073   -2.7123 P   0  0  2  0  0  0  0  0  0  0  0  0
   23.9591   73.3500   -3.2244 O   0  0  0  0  0  0  0  0  0  0  0  0
   24.3201   70.7562   -3.0894 O   0  0  0  0  0  0  0  0  0  0  0  0
   23.2162   72.0931   -1.1245 O   0  0  0  0  0  0  0  0  0  0  0  0
   24.3271   70.9412    0.6214 O   0  0  0  0  0  0  0  0  0  0  0  0
   20.7018   71.8454    2.3842 O   0  0  0  0  0  0  0  0  0  0  0  0
   20.8113   70.9099   -0.3811 O   0  0  0  0  0  0  0  0  0  0  0  0
   23.0835   73.3564    3.0876 O   0  0  0  0  0  0  0  0  0  0  0  0
   21.8135   72.0489    1.5121 C   0  0  2  0  0  0  0  0  0  0  0  0
   21.9087   70.8858    0.5243 C   0  0  2  0  0  0  0  0  0  0  0  0
   23.0792   72.1244    2.3690 C   0  0  1  0  0  0  0  0  0  0  0  0
   23.2128   70.9496   -0.2719 C   0  0  1  0  0  0  0  0  0  0  0  0
   24.3385   72.0563    1.5099 C   0  0  1  0  0  0  0  0  0  0  0  0
   19.8859   71.7941    1.8618 H   0  0  0  0  0  0  0  0  0  0  0  0
   19.9804   70.8700    0.1173 H   0  0  0  0  0  0  0  0  0  0  0  0
   22.2870   73.4124    3.6384 H   0  0  0  0  0  0  0  0  0  0  0  0
   25.9259   72.9301    2.9992 O   0  0  0  0  0  0  0  0  0  0  0  0
   26.1115   70.7228    2.4583 O   0  0  0  0  0  0  0  0  0  0  0  0
   25.5438   71.7998    2.3547 C   0  0  0  0  0  0  0  0  0  0  0  0
  1  4  1  0
  1 24  1  0
  1  2  1  1
  1  3  2  0
 25 28  1  0
 25 24  1  0
 25 26  1  6
 25 27  2  0
  6 11  1  0
  6 12  1  0
 29 36  1  0
 29 37  1  0
  9  7  1  6
  7 13  1  0
 10  8  1  6
  8 14  1  0
  4  5  1  0
 36 28  1  1
 33 30  1  1
 30 38  1  0
 34 31  1  6
 31 39  1  0
 35 32  1  6
 32 40  1  0
 41 43  1  0
 15 19  2  0
 42 43  2  0
 16 22  2  0
 12 17  1  6
 17 19  1  0
 17 20  1  0
 18 19  1  0
 18 22  1  0
 18 23  1  0
  9 10  1  0
  9 11  1  0
 10 12  1  0
 11  5  1  6
 33 34  1  0
 33 35  1  0
 34 36  1  0
 35 37  1  0
 37 43  1  1
 20 21  2  0
 21 22  1  0
M  CHG  3   2  -1  26  -1  41  -1
M  END
>  <COMPND>  (486) 
    udp_gluA.pdb 

>  <AUTHOR>  (486) 
    GENERATED BY OPEN BABEL 3.1.1

>  <MASTER>  (486) 
        0    0    0    0    0    0    0    0   56    0   56    0

>  <minimizedAffinity>  (486) 
-8.39189

>  <CNNscore>  (486) 
0.8468194008

>  <CNNaffinity>  (486) 
4.6755156517

>  <CNN_VS>  (486) 
3.9593174458

>  <CNNaffinity_variance>  (486) 
0.0715140551

$$$$
487
     RDKit          3D

 43 45  0  0  0  0  0  0  0  0999 V2000
   20.4687   71.2821   -1.4233 P   0  0  2  0  0  0  0  0  0  0  0  0
   21.0693   70.5744   -0.0977 O   0  0  0  0  0  0  0  0  0  0  0  0
   19.8972   72.6526   -1.2062 O   0  0  0  0  0  0  0  0  0  0  0  0
   19.4454   70.1809   -2.0218 O   0  0  0  0  0  0  0  0  0  0  0  0
   19.1226   70.2361   -3.3992 C   0  0  0  0  0  0  0  0  0  0  0  0
   17.4880   71.3211   -4.7880 O   0  0  0  0  0  0  0  0  0  0  0  0
   15.4290   69.7738   -3.2524 O   0  0  0  0  0  0  0  0  0  0  0  0
   15.6471   68.3440   -5.5641 O   0  0  0  0  0  0  0  0  0  0  0  0
   16.7408   69.3796   -3.6553 C   0  0  1  0  0  0  0  0  0  0  0  0
   16.7682   69.0916   -5.1414 C   0  0  2  0  0  0  0  0  0  0  0  0
   17.6501   70.5962   -3.5496 C   0  0  1  0  0  0  0  0  0  0  0  0
   16.7953   70.4905   -5.7333 C   0  0  2  0  0  0  0  0  0  0  0  0
   14.8298   69.0128   -3.3115 H   0  0  0  0  0  0  0  0  0  0  0  0
   15.6759   67.4618   -5.1605 H   0  0  0  0  0  0  0  0  0  0  0  0
   15.5167   70.5793   -8.2500 O   0  0  0  0  0  0  0  0  0  0  0  0
   19.5410   70.6780  -10.4949 O   0  0  0  0  0  0  0  0  0  0  0  0
   17.4847   70.5399   -6.9915 N   0  0  0  0  0  0  0  0  0  0  0  0
   17.5222   70.6273   -9.3657 N   0  0  0  0  0  0  0  0  0  0  0  0
   16.7481   70.5819   -8.1988 C   0  0  0  0  0  0  0  0  0  0  0  0
   18.8740   70.5481   -7.0212 C   0  0  0  0  0  0  0  0  0  0  0  0
   19.5980   70.5918   -8.1413 C   0  0  0  0  0  0  0  0  0  0  0  0
   18.9054   70.6367   -9.4458 C   0  0  0  0  0  0  0  0  0  0  0  0
   17.0316   70.6551  -10.2189 H   0  0  0  0  0  0  0  0  0  0  0  0
   21.7090   71.2260   -2.4583 O   0  0  0  0  0  0  0  0  0  0  0  0
   22.8904   72.2883   -2.7578 P   0  0  2  0  0  0  0  0  0  0  0  0
   24.0249   71.3862   -3.4785 O   0  0  0  0  0  0  0  0  0  0  0  0
   23.3703   73.0334   -1.5460 O   0  0  0  0  0  0  0  0  0  0  0  0
   22.3085   73.2267   -3.9339 O   0  0  0  0  0  0  0  0  0  0  0  0
   20.0998   73.2575   -4.7883 O   0  0  0  0  0  0  0  0  0  0  0  0
   22.2865   74.4997   -8.0660 O   0  0  0  0  0  0  0  0  0  0  0  0
   23.2493   72.3120   -6.3862 O   0  0  0  0  0  0  0  0  0  0  0  0
   20.7502   76.4250   -6.5220 O   0  0  0  0  0  0  0  0  0  0  0  0
   21.9839   74.3614   -6.6777 C   0  0  2  0  0  0  0  0  0  0  0  0
   21.9464   72.8785   -6.3074 C   0  0  2  0  0  0  0  0  0  0  0  0
   20.6203   75.0079   -6.4242 C   0  0  1  0  0  0  0  0  0  0  0  0
   21.4026   72.6817   -4.8916 C   0  0  1  0  0  0  0  0  0  0  0  0
   20.0888   74.6615   -5.0363 C   0  0  1  0  0  0  0  0  0  0  0  0
   23.1491   74.0958   -8.2509 H   0  0  0  0  0  0  0  0  0  0  0  0
   23.6005   72.4334   -7.2819 H   0  0  0  0  0  0  0  0  0  0  0  0
   21.0878   76.6588   -7.4008 H   0  0  0  0  0  0  0  0  0  0  0  0
   18.0461   74.9984   -6.1388 O   0  0  0  0  0  0  0  0  0  0  0  0
   18.0639   75.2721   -3.8752 O   0  0  0  0  0  0  0  0  0  0  0  0
   18.6409   75.0114   -4.9202 C   0  0  0  0  0  0  0  0  0  0  0  0
  1  4  1  0
  1 24  1  0
  1  2  1  1
  1  3  2  0
 25 28  1  0
 25 24  1  0
 25 26  1  6
 25 27  2  0
  6 11  1  0
  6 12  1  0
 29 36  1  0
 29 37  1  0
  9  7  1  6
  7 13  1  0
 10  8  1  6
  8 14  1  0
  4  5  1  0
 36 28  1  1
 33 30  1  6
 30 38  1  0
 34 31  1  1
 31 39  1  0
 35 32  1  1
 32 40  1  0
 41 43  1  0
 15 19  2  0
 42 43  2  0
 16 22  2  0
 12 17  1  6
 17 19  1  0
 17 20  1  0
 18 19  1  0
 18 22  1  0
 18 23  1  0
  9 10  1  0
  9 11  1  0
 10 12  1  0
 11  5  1  6
 33 34  1  0
 33 35  1  0
 34 36  1  0
 35 37  1  0
 37 43  1  6
 20 21  2  0
 21 22  1  0
M  CHG  3   2  -1  26  -1  41  -1
M  END
>  <COMPND>  (487) 
    udp_gluA.pdb 

>  <AUTHOR>  (487) 
    GENERATED BY OPEN BABEL 3.1.1

>  <MASTER>  (487) 
        0    0    0    0    0    0    0    0   56    0   56    0

>  <minimizedAffinity>  (487) 
-7.78178

>  <CNNscore>  (487) 
0.8374084830

>  <CNNaffinity>  (487) 
4.6224508286

>  <CNN_VS>  (487) 
3.8708796501

>  <CNNaffinity_variance>  (487) 
0.9644981623

$$$$
488
     RDKit          3D

 43 45  0  0  0  0  0  0  0  0999 V2000
   20.4730   71.1825   -1.3536 P   0  0  2  0  0  0  0  0  0  0  0  0
   20.7378   70.5376    0.1069 O   0  0  0  0  0  0  0  0  0  0  0  0
   20.0393   72.6190   -1.3427 O   0  0  0  0  0  0  0  0  0  0  0  0
   19.4498   70.1449   -2.0567 O   0  0  0  0  0  0  0  0  0  0  0  0
   19.1528   70.3145   -3.4306 C   0  0  0  0  0  0  0  0  0  0  0  0
   17.5081   71.3715   -4.8290 O   0  0  0  0  0  0  0  0  0  0  0  0
   15.4613   69.8442   -3.2575 O   0  0  0  0  0  0  0  0  0  0  0  0
   15.6721   68.3766   -5.5462 O   0  0  0  0  0  0  0  0  0  0  0  0
   16.7723   69.4470   -3.6604 C   0  0  1  0  0  0  0  0  0  0  0  0
   16.7932   69.1343   -5.1416 C   0  0  2  0  0  0  0  0  0  0  0  0
   17.6786   70.6678   -3.5796 C   0  0  1  0  0  0  0  0  0  0  0  0
   16.8131   70.5232   -5.7568 C   0  0  2  0  0  0  0  0  0  0  0  0
   14.8641   69.0805   -3.3009 H   0  0  0  0  0  0  0  0  0  0  0  0
   15.7055   67.5014   -5.1281 H   0  0  0  0  0  0  0  0  0  0  0  0
   15.5218   70.5943   -8.2676 O   0  0  0  0  0  0  0  0  0  0  0  0
   19.5345   70.6378  -10.5347 O   0  0  0  0  0  0  0  0  0  0  0  0
   17.4962   70.5537   -7.0191 N   0  0  0  0  0  0  0  0  0  0  0  0
   17.5216   70.6149   -9.3944 N   0  0  0  0  0  0  0  0  0  0  0  0
   16.7534   70.5881   -8.2229 C   0  0  0  0  0  0  0  0  0  0  0  0
   18.8853   70.5510   -7.0563 C   0  0  0  0  0  0  0  0  0  0  0  0
   19.6035   70.5769   -8.1807 C   0  0  0  0  0  0  0  0  0  0  0  0
   18.9043   70.6128   -9.4819 C   0  0  0  0  0  0  0  0  0  0  0  0
   17.0266   70.6370  -10.2452 H   0  0  0  0  0  0  0  0  0  0  0  0
   21.8631   70.9046   -2.1303 O   0  0  0  0  0  0  0  0  0  0  0  0
   23.3160   71.5992   -1.9875 P   0  0  2  0  0  0  0  0  0  0  0  0
   24.2440   70.7238   -2.9839 O   0  0  0  0  0  0  0  0  0  0  0  0
   23.8252   71.6774   -0.5773 O   0  0  0  0  0  0  0  0  0  0  0  0
   23.1616   73.0263   -2.7236 O   0  0  0  0  0  0  0  0  0  0  0  0
   23.6590   73.2057   -5.0322 O   0  0  0  0  0  0  0  0  0  0  0  0
   23.7075   77.1645   -3.8518 O   0  0  0  0  0  0  0  0  0  0  0  0
   24.9272   75.1048   -2.1771 O   0  0  0  0  0  0  0  0  0  0  0  0
   21.4449   76.1147   -5.3449 O   0  0  0  0  0  0  0  0  0  0  0  0
   23.2857   75.8010   -3.8224 C   0  0  2  0  0  0  0  0  0  0  0  0
   24.4828   74.9015   -3.5135 C   0  0  2  0  0  0  0  0  0  0  0  0
   22.7016   75.4570   -5.1944 C   0  0  1  0  0  0  0  0  0  0  0  0
   24.1217   73.4271   -3.6994 C   0  0  1  0  0  0  0  0  0  0  0  0
   22.4869   73.9540   -5.3476 C   0  0  1  0  0  0  0  0  0  0  0  0
   24.0824   77.4058   -2.9901 H   0  0  0  0  0  0  0  0  0  0  0  0
   25.1577   76.0384   -2.0520 H   0  0  0  0  0  0  0  0  0  0  0  0
   21.5675   77.0721   -5.2494 H   0  0  0  0  0  0  0  0  0  0  0  0
   20.9208   73.7343   -7.0799 O   0  0  0  0  0  0  0  0  0  0  0  0
   23.0906   73.2330   -7.5696 O   0  0  0  0  0  0  0  0  0  0  0  0
   22.2354   73.5970   -6.7765 C   0  0  0  0  0  0  0  0  0  0  0  0
  1  4  1  0
  1 24  1  0
  1  2  1  1
  1  3  2  0
 25 28  1  0
 25 24  1  0
 25 26  1  6
 25 27  2  0
  6 11  1  0
  6 12  1  0
 29 36  1  0
 29 37  1  0
  9  7  1  6
  7 13  1  0
 10  8  1  6
  8 14  1  0
  4  5  1  0
 36 28  1  1
 33 30  1  6
 30 38  1  0
 34 31  1  1
 31 39  1  0
 35 32  1  1
 32 40  1  0
 41 43  1  0
 15 19  2  0
 42 43  2  0
 16 22  2  0
 12 17  1  6
 17 19  1  0
 17 20  1  0
 18 19  1  0
 18 22  1  0
 18 23  1  0
  9 10  1  0
  9 11  1  0
 10 12  1  0
 11  5  1  6
 33 34  1  0
 33 35  1  0
 34 36  1  0
 35 37  1  0
 37 43  1  6
 20 21  2  0
 21 22  1  0
M  CHG  3   2  -1  26  -1  41  -1
M  END
>  <COMPND>  (488) 
    udp_gluA.pdb 

>  <AUTHOR>  (488) 
    GENERATED BY OPEN BABEL 3.1.1

>  <MASTER>  (488) 
        0    0    0    0    0    0    0    0   56    0   56    0

>  <minimizedAffinity>  (488) 
-8.26909

>  <CNNscore>  (488) 
0.8358885646

>  <CNNaffinity>  (488) 
4.6345191002

>  <CNN_VS>  (488) 
3.8739414215

>  <CNNaffinity_variance>  (488) 
0.2874900401

$$$$
489
     RDKit          3D

 43 45  0  0  0  0  0  0  0  0999 V2000
   19.5578   72.7626   -1.7314 P   0  0  2  0  0  0  0  0  0  0  0  0
   18.1273   73.0438   -1.0290 O   0  0  0  0  0  0  0  0  0  0  0  0
   19.9494   73.7519   -2.7896 O   0  0  0  0  0  0  0  0  0  0  0  0
   19.4578   71.2212   -2.2131 O   0  0  0  0  0  0  0  0  0  0  0  0
   19.1424   70.9552   -3.5675 C   0  0  0  0  0  0  0  0  0  0  0  0
   17.4251   71.6362   -5.1053 O   0  0  0  0  0  0  0  0  0  0  0  0
   15.5163   70.1285   -3.3517 O   0  0  0  0  0  0  0  0  0  0  0  0
   15.9217   68.3964   -5.4185 O   0  0  0  0  0  0  0  0  0  0  0  0
   16.8688   69.8201   -3.6898 C   0  0  1  0  0  0  0  0  0  0  0  0
   16.9507   69.3149   -5.1147 C   0  0  2  0  0  0  0  0  0  0  0  0
   17.6428   71.1288   -3.7709 C   0  0  1  0  0  0  0  0  0  0  0  0
   16.8394   70.6027   -5.9129 C   0  0  2  0  0  0  0  0  0  0  0  0
   15.0019   69.3076   -3.2941 H   0  0  0  0  0  0  0  0  0  0  0  0
   16.0370   67.5938   -4.8852 H   0  0  0  0  0  0  0  0  0  0  0  0
   15.5934   70.6949   -8.4458 O   0  0  0  0  0  0  0  0  0  0  0  0
   19.6272   70.3318  -10.6460 O   0  0  0  0  0  0  0  0  0  0  0  0
   17.5401   70.5342   -7.1640 N   0  0  0  0  0  0  0  0  0  0  0  0
   17.6036   70.5129   -9.5392 N   0  0  0  0  0  0  0  0  0  0  0  0
   16.8196   70.5889   -8.3805 C   0  0  0  0  0  0  0  0  0  0  0  0
   18.9246   70.4161   -7.1779 C   0  0  0  0  0  0  0  0  0  0  0  0
   19.6582   70.3450   -8.2904 C   0  0  0  0  0  0  0  0  0  0  0  0
   18.9825   70.3943   -9.6036 C   0  0  0  0  0  0  0  0  0  0  0  0
   17.1241   70.5469  -10.3984 H   0  0  0  0  0  0  0  0  0  0  0  0
   20.5706   72.6854   -0.4740 O   0  0  0  0  0  0  0  0  0  0  0  0
   21.1987   73.8491    0.4561 P   0  0  2  0  0  0  0  0  0  0  0  0
   22.0102   73.0217    1.5862 O   0  0  0  0  0  0  0  0  0  0  0  0
   20.1866   74.8135    1.0032 O   0  0  0  0  0  0  0  0  0  0  0  0
   22.3452   74.5265   -0.4544 O   0  0  0  0  0  0  0  0  0  0  0  0
   23.7647   72.9078   -1.4413 O   0  0  0  0  0  0  0  0  0  0  0  0
   25.6350   76.4319   -2.5140 O   0  0  0  0  0  0  0  0  0  0  0  0
   24.5583   76.0872    0.1798 O   0  0  0  0  0  0  0  0  0  0  0  0
   24.0833   74.9482   -4.4740 O   0  0  0  0  0  0  0  0  0  0  0  0
   24.5281   75.5889   -2.1944 C   0  0  2  0  0  0  0  0  0  0  0  0
   24.6939   75.0422   -0.7763 C   0  0  2  0  0  0  0  0  0  0  0  0
   24.4993   74.4420   -3.2071 C   0  0  1  0  0  0  0  0  0  0  0  0
   23.6540   73.9601   -0.4821 C   0  0  1  0  0  0  0  0  0  0  0  0
   23.5298   73.3443   -2.7782 C   0  0  1  0  0  0  0  0  0  0  0  0
   25.6735   77.1682   -1.8834 H   0  0  0  0  0  0  0  0  0  0  0  0
   25.2149   76.7775   -0.0011 H   0  0  0  0  0  0  0  0  0  0  0  0
   24.6920   75.6478   -4.7584 H   0  0  0  0  0  0  0  0  0  0  0  0
   23.4775   72.3249   -4.8900 O   0  0  0  0  0  0  0  0  0  0  0  0
   24.1176   71.0302   -3.1256 O   0  0  0  0  0  0  0  0  0  0  0  0
   23.7467   72.1022   -3.5797 C   0  0  0  0  0  0  0  0  0  0  0  0
  1  4  1  0
  1 24  1  0
  1  2  1  1
  1  3  2  0
 25 28  1  0
 25 24  1  0
 25 26  1  1
 25 27  2  0
  6 11  1  0
  6 12  1  0
 29 36  1  0
 29 37  1  0
  9  7  1  6
  7 13  1  0
 10  8  1  6
  8 14  1  0
  4  5  1  0
 36 28  1  6
 33 30  1  6
 30 38  1  0
 34 31  1  1
 31 39  1  0
 35 32  1  6
 32 40  1  0
 41 43  1  0
 15 19  2  0
 42 43  2  0
 16 22  2  0
 12 17  1  6
 17 19  1  0
 17 20  1  0
 18 19  1  0
 18 22  1  0
 18 23  1  0
  9 10  1  0
  9 11  1  0
 10 12  1  0
 11  5  1  6
 33 34  1  0
 33 35  1  0
 34 36  1  0
 35 37  1  0
 37 43  1  6
 20 21  2  0
 21 22  1  0
M  CHG  3   2  -1  26  -1  41  -1
M  END
>  <COMPND>  (489) 
    udp_gluA.pdb 

>  <AUTHOR>  (489) 
    GENERATED BY OPEN BABEL 3.1.1

>  <MASTER>  (489) 
        0    0    0    0    0    0    0    0   56    0   56    0

>  <minimizedAffinity>  (489) 
-7.14674

>  <CNNscore>  (489) 
0.8159285784

>  <CNNaffinity>  (489) 
4.6779265404

>  <CNN_VS>  (489) 
3.8168540001

>  <CNNaffinity_variance>  (489) 
0.0766524300

$$$$
490
     RDKit          3D

 43 45  0  0  0  0  0  0  0  0999 V2000
   22.4420   73.0502   -4.2214 P   0  0  2  0  0  0  0  0  0  0  0  0
   21.7635   74.4036   -4.7929 O   0  0  0  0  0  0  0  0  0  0  0  0
   23.0758   72.1719   -5.2600 O   0  0  0  0  0  0  0  0  0  0  0  0
   21.2663   72.3661   -3.3453 O   0  0  0  0  0  0  0  0  0  0  0  0
   20.5756   71.2566   -3.8898 C   0  0  0  0  0  0  0  0  0  0  0  0
   18.5379   71.9192   -4.9789 O   0  0  0  0  0  0  0  0  0  0  0  0
   17.1077   70.5658   -2.7174 O   0  0  0  0  0  0  0  0  0  0  0  0
   16.9382   68.7212   -4.7185 O   0  0  0  0  0  0  0  0  0  0  0  0
   18.3230   70.1952   -3.3688 C   0  0  1  0  0  0  0  0  0  0  0  0
   18.0292   69.6178   -4.7372 C   0  0  2  0  0  0  0  0  0  0  0  0
   19.0775   71.4711   -3.7166 C   0  0  1  0  0  0  0  0  0  0  0  0
   17.7449   70.8677   -5.5525 C   0  0  2  0  0  0  0  0  0  0  0  0
   16.6082   69.7669   -2.4853 H   0  0  0  0  0  0  0  0  0  0  0  0
   17.1689   67.9423   -4.1873 H   0  0  0  0  0  0  0  0  0  0  0  0
   15.9154   70.2540   -7.6147 O   0  0  0  0  0  0  0  0  0  0  0  0
   19.2294   70.3008  -10.8177 O   0  0  0  0  0  0  0  0  0  0  0  0
   18.1026   70.7138   -6.9342 N   0  0  0  0  0  0  0  0  0  0  0  0
   17.5679   70.2769   -9.2079 N   0  0  0  0  0  0  0  0  0  0  0  0
   17.1069   70.4050   -7.8910 C   0  0  0  0  0  0  0  0  0  0  0  0
   19.4256   70.8700   -7.3297 C   0  0  0  0  0  0  0  0  0  0  0  0
   19.8497   70.7449   -8.5888 C   0  0  0  0  0  0  0  0  0  0  0  0
   18.8730   70.4223   -9.6496 C   0  0  0  0  0  0  0  0  0  0  0  0
   16.8933   70.0601   -9.8914 H   0  0  0  0  0  0  0  0  0  0  0  0
   23.4605   73.6027   -3.0944 O   0  0  0  0  0  0  0  0  0  0  0  0
   23.2379   74.6537   -1.8862 P   0  0  2  0  0  0  0  0  0  0  0  0
   21.9384   75.4938   -2.3615 O   0  0  0  0  0  0  0  0  0  0  0  0
   24.4399   75.4977   -1.5750 O   0  0  0  0  0  0  0  0  0  0  0  0
   22.7134   73.7551   -0.6534 O   0  0  0  0  0  0  0  0  0  0  0  0
   23.8342   73.3767    1.3983 O   0  0  0  0  0  0  0  0  0  0  0  0
   21.5378   69.9599    1.0522 O   0  0  0  0  0  0  0  0  0  0  0  0
   22.9271   71.0523   -1.2739 O   0  0  0  0  0  0  0  0  0  0  0  0
   20.7587   72.0601    2.9050 O   0  0  0  0  0  0  0  0  0  0  0  0
   21.8515   71.3420    0.8813 C   0  0  2  0  0  0  0  0  0  0  0  0
   23.1385   71.4779    0.0673 C   0  0  2  0  0  0  0  0  0  0  0  0
   22.0317   71.9612    2.2692 C   0  0  1  0  0  0  0  0  0  0  0  0
   23.6300   72.9260    0.0586 C   0  0  1  0  0  0  0  0  0  0  0  0
   22.6430   73.3566    2.1816 C   0  0  1  0  0  0  0  0  0  0  0  0
   21.4188   69.5453    0.1832 H   0  0  0  0  0  0  0  0  0  0  0  0
   22.6148   70.1342   -1.2760 H   0  0  0  0  0  0  0  0  0  0  0  0
   20.3588   71.1786    2.9669 H   0  0  0  0  0  0  0  0  0  0  0  0
   22.1083   74.4088    4.2085 O   0  0  0  0  0  0  0  0  0  0  0  0
   24.2511   73.6728    3.9523 O   0  0  0  0  0  0  0  0  0  0  0  0
   23.1158   73.8138    3.5231 C   0  0  0  0  0  0  0  0  0  0  0  0
  1  4  1  0
  1 24  1  0
  1  2  1  6
  1  3  2  0
 25 28  1  0
 25 24  1  0
 25 26  1  6
 25 27  2  0
  6 11  1  0
  6 12  1  0
 29 36  1  0
 29 37  1  0
  9  7  1  6
  7 13  1  0
 10  8  1  1
  8 14  1  0
  4  5  1  0
 36 28  1  1
 33 30  1  1
 30 38  1  0
 34 31  1  6
 31 39  1  0
 35 32  1  6
 32 40  1  0
 41 43  1  0
 15 19  2  0
 42 43  2  0
 16 22  2  0
 12 17  1  6
 17 19  1  0
 17 20  1  0
 18 19  1  0
 18 22  1  0
 18 23  1  0
  9 10  1  0
  9 11  1  0
 10 12  1  0
 11  5  1  6
 33 34  1  0
 33 35  1  0
 34 36  1  0
 35 37  1  0
 37 43  1  1
 20 21  2  0
 21 22  1  0
M  CHG  3   2  -1  26  -1  41  -1
M  END
>  <COMPND>  (490) 
    udp_gluA.pdb 

>  <AUTHOR>  (490) 
    GENERATED BY OPEN BABEL 3.1.1

>  <MASTER>  (490) 
        0    0    0    0    0    0    0    0   56    0   56    0

>  <minimizedAffinity>  (490) 
-7.60925

>  <CNNscore>  (490) 
0.8112509251

>  <CNNaffinity>  (490) 
4.5721907616

>  <CNN_VS>  (490) 
3.7091939449

>  <CNNaffinity_variance>  (490) 
0.0464219525

$$$$
491
     RDKit          3D

 43 45  0  0  0  0  0  0  0  0999 V2000
   21.7851   72.4042   -5.5782 P   0  0  2  0  0  0  0  0  0  0  0  0
   21.0856   73.8340   -5.2865 O   0  0  0  0  0  0  0  0  0  0  0  0
   23.0695   72.4732   -6.3512 O   0  0  0  0  0  0  0  0  0  0  0  0
   20.6058   71.5250   -6.2522 O   0  0  0  0  0  0  0  0  0  0  0  0
   20.1189   71.9095   -7.5248 C   0  0  0  0  0  0  0  0  0  0  0  0
   18.8472   69.9074   -7.1348 O   0  0  0  0  0  0  0  0  0  0  0  0
   18.0987   70.0404  -10.0354 O   0  0  0  0  0  0  0  0  0  0  0  0
   15.8812   71.0385   -8.8014 O   0  0  0  0  0  0  0  0  0  0  0  0
   18.2931   71.1037   -9.1027 C   0  0  1  0  0  0  0  0  0  0  0  0
   17.1233   71.1810   -8.1446 C   0  0  2  0  0  0  0  0  0  0  0  0
   19.4376   70.7136   -8.1774 C   0  0  1  0  0  0  0  0  0  0  0  0
   17.4175   70.0327   -7.1944 C   0  0  2  0  0  0  0  0  0  0  0  0
   17.3721   70.2668  -10.6375 H   0  0  0  0  0  0  0  0  0  0  0  0
   15.7404   71.7940   -9.3942 H   0  0  0  0  0  0  0  0  0  0  0  0
   16.3214   68.0413   -5.5183 O   0  0  0  0  0  0  0  0  0  0  0  0
   15.5177   71.0704   -2.1386 O   0  0  0  0  0  0  0  0  0  0  0  0
   16.9143   70.2734   -5.8716 N   0  0  0  0  0  0  0  0  0  0  0  0
   15.9212   69.5521   -3.8370 N   0  0  0  0  0  0  0  0  0  0  0  0
   16.3842   69.2034   -5.1126 C   0  0  0  0  0  0  0  0  0  0  0  0
   16.9504   71.5561   -5.3386 C   0  0  0  0  0  0  0  0  0  0  0  0
   16.5055   71.8730   -4.1211 C   0  0  0  0  0  0  0  0  0  0  0  0
   15.9354   70.8132   -3.2636 C   0  0  0  0  0  0  0  0  0  0  0  0
   15.5457   68.8242   -3.2906 H   0  0  0  0  0  0  0  0  0  0  0  0
   21.9213   71.7589   -4.1024 O   0  0  0  0  0  0  0  0  0  0  0  0
   23.0886   71.8875   -2.9913 P   0  0  2  0  0  0  0  0  0  0  0  0
   23.6261   73.4009   -3.1930 O   0  0  0  0  0  0  0  0  0  0  0  0
   24.1537   70.8343   -3.0925 O   0  0  0  0  0  0  0  0  0  0  0  0
   22.3084   71.9172   -1.5796 O   0  0  0  0  0  0  0  0  0  0  0  0
   23.8879   72.6844    0.0097 O   0  0  0  0  0  0  0  0  0  0  0  0
   20.4792   72.3279    2.3166 O   0  0  0  0  0  0  0  0  0  0  0  0
   21.1572   70.2772    0.3495 O   0  0  0  0  0  0  0  0  0  0  0  0
   21.4030   74.9523    1.4740 O   0  0  0  0  0  0  0  0  0  0  0  0
   21.2269   72.5747    1.1258 C   0  0  2  0  0  0  0  0  0  0  0  0
   22.0282   71.3261    0.7566 C   0  0  2  0  0  0  0  0  0  0  0  0
   22.1682   73.7513    1.3938 C   0  0  1  0  0  0  0  0  0  0  0  0
   23.0133   71.6229   -0.3749 C   0  0  1  0  0  0  0  0  0  0  0  0
   23.2002   73.9038    0.2802 C   0  0  1  0  0  0  0  0  0  0  0  0
   19.8739   71.5839    2.1702 H   0  0  0  0  0  0  0  0  0  0  0  0
   20.5292   70.0839    1.0626 H   0  0  0  0  0  0  0  0  0  0  0  0
   20.7421   74.8682    2.1790 H   0  0  0  0  0  0  0  0  0  0  0  0
   24.3178   74.9664    2.0476 O   0  0  0  0  0  0  0  0  0  0  0  0
   25.0830   75.3736   -0.0614 O   0  0  0  0  0  0  0  0  0  0  0  0
   24.3006   74.8236    0.6992 C   0  0  0  0  0  0  0  0  0  0  0  0
  1  4  1  0
  1 24  1  0
  1  2  1  1
  1  3  2  0
 25 28  1  0
 25 24  1  0
 25 26  1  6
 25 27  2  0
  6 11  1  0
  6 12  1  0
 29 36  1  0
 29 37  1  0
  9  7  1  6
  7 13  1  0
 10  8  1  6
  8 14  1  0
  4  5  1  0
 36 28  1  6
 33 30  1  1
 30 38  1  0
 34 31  1  6
 31 39  1  0
 35 32  1  6
 32 40  1  0
 41 43  1  0
 15 19  2  0
 42 43  2  0
 16 22  2  0
 12 17  1  1
 17 19  1  0
 17 20  1  0
 18 19  1  0
 18 22  1  0
 18 23  1  0
  9 10  1  0
  9 11  1  0
 10 12  1  0
 11  5  1  1
 33 34  1  0
 33 35  1  0
 34 36  1  0
 35 37  1  0
 37 43  1  1
 20 21  2  0
 21 22  1  0
M  CHG  3   2  -1  26  -1  41  -1
M  END
>  <COMPND>  (491) 
    udp_gluA.pdb 

>  <AUTHOR>  (491) 
    GENERATED BY OPEN BABEL 3.1.1

>  <MASTER>  (491) 
        0    0    0    0    0    0    0    0   56    0   56    0

>  <minimizedAffinity>  (491) 
-8.06831

>  <CNNscore>  (491) 
0.7243643999

>  <CNNaffinity>  (491) 
4.5318627357

>  <CNN_VS>  (491) 
3.2827200890

>  <CNNaffinity_variance>  (491) 
0.2265352011

$$$$
492
     RDKit          3D

 43 45  0  0  0  0  0  0  0  0999 V2000
   21.6101   72.0410   -5.5473 P   0  0  2  0  0  0  0  0  0  0  0  0
   23.1858   72.4080   -5.5848 O   0  0  0  0  0  0  0  0  0  0  0  0
   21.1950   71.1447   -4.4176 O   0  0  0  0  0  0  0  0  0  0  0  0
   21.3057   71.4829   -7.0352 O   0  0  0  0  0  0  0  0  0  0  0  0
   20.1252   71.9109   -7.6894 C   0  0  0  0  0  0  0  0  0  0  0  0
   18.8887   69.8996   -7.2386 O   0  0  0  0  0  0  0  0  0  0  0  0
   18.0405   69.9983  -10.1130 O   0  0  0  0  0  0  0  0  0  0  0  0
   15.8560   70.9851   -8.8129 O   0  0  0  0  0  0  0  0  0  0  0  0
   18.2554   71.0721   -9.1969 C   0  0  1  0  0  0  0  0  0  0  0  0
   17.1181   71.1462   -8.2002 C   0  0  2  0  0  0  0  0  0  0  0  0
   19.4347   70.7021   -8.3078 C   0  0  1  0  0  0  0  0  0  0  0  0
   17.4565   70.0098   -7.2505 C   0  0  2  0  0  0  0  0  0  0  0  0
   17.2915   70.2118  -10.6919 H   0  0  0  0  0  0  0  0  0  0  0  0
   15.6872   71.7336   -9.4072 H   0  0  0  0  0  0  0  0  0  0  0  0
   16.2784   68.0588   -5.5825 O   0  0  0  0  0  0  0  0  0  0  0  0
   15.7273   71.0725   -2.1389 O   0  0  0  0  0  0  0  0  0  0  0  0
   16.9962   70.2574   -5.9135 N   0  0  0  0  0  0  0  0  0  0  0  0
   16.0042   69.5619   -3.8694 N   0  0  0  0  0  0  0  0  0  0  0  0
   16.4189   69.2080   -5.1600 C   0  0  0  0  0  0  0  0  0  0  0  0
   17.1198   71.5265   -5.3613 C   0  0  0  0  0  0  0  0  0  0  0  0
   16.7199   71.8486   -4.1295 C   0  0  0  0  0  0  0  0  0  0  0  0
   16.1055   70.8101   -3.2767 C   0  0  0  0  0  0  0  0  0  0  0  0
   15.5973   68.8484   -3.3264 H   0  0  0  0  0  0  0  0  0  0  0  0
   20.8992   73.4927   -5.5511 O   0  0  0  0  0  0  0  0  0  0  0  0
   20.7769   74.6177   -4.3966 P   0  0  2  0  0  0  0  0  0  0  0  0
   19.2501   74.4565   -3.8833 O   0  0  0  0  0  0  0  0  0  0  0  0
   21.1345   76.0043   -4.8475 O   0  0  0  0  0  0  0  0  0  0  0  0
   21.6765   74.0562   -3.1810 O   0  0  0  0  0  0  0  0  0  0  0  0
   20.7117   73.0910   -1.2453 O   0  0  0  0  0  0  0  0  0  0  0  0
   24.4766   74.1148    0.1132 O   0  0  0  0  0  0  0  0  0  0  0  0
   22.9729   75.9419   -1.6000 O   0  0  0  0  0  0  0  0  0  0  0  0
   23.8449   71.3406   -0.4829 O   0  0  0  0  0  0  0  0  0  0  0  0
   23.5067   73.6980   -0.8478 C   0  0  2  0  0  0  0  0  0  0  0  0
   22.4317   74.7756   -0.9905 C   0  0  2  0  0  0  0  0  0  0  0  0
   22.8859   72.3886   -0.3558 C   0  0  1  0  0  0  0  0  0  0  0  0
   21.2598   74.2711   -1.8338 C   0  0  1  0  0  0  0  0  0  0  0  0
   21.6485   72.0188   -1.1686 C   0  0  1  0  0  0  0  0  0  0  0  0
   24.8846   74.9454   -0.1783 H   0  0  0  0  0  0  0  0  0  0  0  0
   23.7172   76.2673   -1.0703 H   0  0  0  0  0  0  0  0  0  0  0  0
   24.6376   71.5637    0.0298 H   0  0  0  0  0  0  0  0  0  0  0  0
   19.8052   70.5703   -1.2423 O   0  0  0  0  0  0  0  0  0  0  0  0
   21.1475   70.4527    0.5971 O   0  0  0  0  0  0  0  0  0  0  0  0
   20.8695   70.9407   -0.4881 C   0  0  0  0  0  0  0  0  0  0  0  0
  1  4  1  0
  1 24  1  0
  1  2  1  6
  1  3  2  0
 25 28  1  0
 25 24  1  0
 25 26  1  1
 25 27  2  0
  6 11  1  0
  6 12  1  0
 29 36  1  0
 29 37  1  0
  9  7  1  6
  7 13  1  0
 10  8  1  6
  8 14  1  0
  4  5  1  0
 36 28  1  6
 33 30  1  1
 30 38  1  0
 34 31  1  6
 31 39  1  0
 35 32  1  6
 32 40  1  0
 41 43  1  0
 15 19  2  0
 42 43  2  0
 16 22  2  0
 12 17  1  1
 17 19  1  0
 17 20  1  0
 18 19  1  0
 18 22  1  0
 18 23  1  0
  9 10  1  0
  9 11  1  0
 10 12  1  0
 11  5  1  1
 33 34  1  0
 33 35  1  0
 34 36  1  0
 35 37  1  0
 37 43  1  1
 20 21  2  0
 21 22  1  0
M  CHG  3   2  -1  26  -1  41  -1
M  END
>  <COMPND>  (492) 
    udp_gluA.pdb 

>  <AUTHOR>  (492) 
    GENERATED BY OPEN BABEL 3.1.1

>  <MASTER>  (492) 
        0    0    0    0    0    0    0    0   56    0   56    0

>  <minimizedAffinity>  (492) 
-7.46187

>  <CNNscore>  (492) 
0.7195981145

>  <CNNaffinity>  (492) 
4.6222805977

>  <CNN_VS>  (492) 
3.3261845112

>  <CNNaffinity_variance>  (492) 
0.2483904809

$$$$
493
     RDKit          3D

 43 45  0  0  0  0  0  0  0  0999 V2000
   22.7154   71.4109   -3.1898 P   0  0  2  0  0  0  0  0  0  0  0  0
   24.2567   70.9889   -2.9342 O   0  0  0  0  0  0  0  0  0  0  0  0
   21.7090   70.3333   -2.9112 O   0  0  0  0  0  0  0  0  0  0  0  0
   22.7181   71.9969   -4.6980 O   0  0  0  0  0  0  0  0  0  0  0  0
   21.4870   72.4013   -5.2683 C   0  0  0  0  0  0  0  0  0  0  0  0
   20.4760   70.4231   -6.1860 O   0  0  0  0  0  0  0  0  0  0  0  0
   20.6865   71.7778   -8.8528 O   0  0  0  0  0  0  0  0  0  0  0  0
   18.0663   72.1547   -8.1982 O   0  0  0  0  0  0  0  0  0  0  0  0
   20.4081   72.3431   -7.5716 C   0  0  1  0  0  0  0  0  0  0  0  0
   18.9954   72.0046   -7.1452 C   0  0  2  0  0  0  0  0  0  0  0  0
   21.2404   71.5966   -6.5380 C   0  0  1  0  0  0  0  0  0  0  0  0
   19.1394   70.5612   -6.6938 C   0  0  2  0  0  0  0  0  0  0  0  0
   20.1661   72.2386   -9.5299 H   0  0  0  0  0  0  0  0  0  0  0  0
   18.0105   73.0906   -8.4492 H   0  0  0  0  0  0  0  0  0  0  0  0
   16.4550   69.8100   -7.1473 O   0  0  0  0  0  0  0  0  0  0  0  0
   15.6573   69.2567   -2.6416 O   0  0  0  0  0  0  0  0  0  0  0  0
   18.2082   70.2157   -5.6573 N   0  0  0  0  0  0  0  0  0  0  0  0
   16.0599   69.5361   -4.9027 N   0  0  0  0  0  0  0  0  0  0  0  0
   16.8822   69.8527   -5.9921 C   0  0  0  0  0  0  0  0  0  0  0  0
   18.6111   70.2367   -4.3276 C   0  0  0  0  0  0  0  0  0  0  0  0
   17.8160   69.9323   -3.3001 C   0  0  0  0  0  0  0  0  0  0  0  0
   16.4150   69.5433   -3.5635 C   0  0  0  0  0  0  0  0  0  0  0  0
   15.1317   69.2823   -5.1107 H   0  0  0  0  0  0  0  0  0  0  0  0
   22.5479   72.7392   -2.2841 O   0  0  0  0  0  0  0  0  0  0  0  0
   23.4995   74.0351   -2.1142 P   0  0  2  0  0  0  0  0  0  0  0  0
   22.4486   75.2286   -1.8117 O   0  0  0  0  0  0  0  0  0  0  0  0
   24.4060   74.2909   -3.2833 O   0  0  0  0  0  0  0  0  0  0  0  0
   24.2638   73.8007   -0.7130 O   0  0  0  0  0  0  0  0  0  0  0  0
   22.5571   73.1649    0.8010 O   0  0  0  0  0  0  0  0  0  0  0  0
   25.9447   72.7453    3.1283 O   0  0  0  0  0  0  0  0  0  0  0  0
   25.6413   75.0481    1.3564 O   0  0  0  0  0  0  0  0  0  0  0  0
   24.6142   70.3958    2.0510 O   0  0  0  0  0  0  0  0  0  0  0  0
   25.1837   72.7332    1.9205 C   0  0  2  0  0  0  0  0  0  0  0  0
   24.6039   74.1250    1.6671 C   0  0  2  0  0  0  0  0  0  0  0  0
   24.0581   71.7089    2.0810 C   0  0  1  0  0  0  0  0  0  0  0  0
   23.5997   74.0977    0.5140 C   0  0  1  0  0  0  0  0  0  0  0  0
   23.0310   71.8294    0.9589 C   0  0  1  0  0  0  0  0  0  0  0  0
   26.6661   73.3893    3.0497 H   0  0  0  0  0  0  0  0  0  0  0  0
   26.2822   75.0703    2.0838 H   0  0  0  0  0  0  0  0  0  0  0  0
   25.2697   70.3059    2.7603 H   0  0  0  0  0  0  0  0  0  0  0  0
   20.8866   71.8745    1.9080 O   0  0  0  0  0  0  0  0  0  0  0  0
   21.6018   69.8876    1.0478 O   0  0  0  0  0  0  0  0  0  0  0  0
   21.7886   71.0699    1.2932 C   0  0  0  0  0  0  0  0  0  0  0  0
  1  4  1  0
  1 24  1  0
  1  2  1  1
  1  3  2  0
 25 28  1  0
 25 24  1  0
 25 26  1  1
 25 27  2  0
  6 11  1  0
  6 12  1  0
 29 36  1  0
 29 37  1  0
  9  7  1  6
  7 13  1  0
 10  8  1  6
  8 14  1  0
  4  5  1  0
 36 28  1  6
 33 30  1  1
 30 38  1  0
 34 31  1  6
 31 39  1  0
 35 32  1  6
 32 40  1  0
 41 43  1  0
 15 19  2  0
 42 43  2  0
 16 22  2  0
 12 17  1  1
 17 19  1  0
 17 20  1  0
 18 19  1  0
 18 22  1  0
 18 23  1  0
  9 10  1  0
  9 11  1  0
 10 12  1  0
 11  5  1  1
 33 34  1  0
 33 35  1  0
 34 36  1  0
 35 37  1  0
 37 43  1  1
 20 21  2  0
 21 22  1  0
M  CHG  3   2  -1  26  -1  41  -1
M  END
>  <COMPND>  (493) 
    udp_gluA.pdb 

>  <AUTHOR>  (493) 
    GENERATED BY OPEN BABEL 3.1.1

>  <MASTER>  (493) 
        0    0    0    0    0    0    0    0   56    0   56    0

>  <minimizedAffinity>  (493) 
-7.83192

>  <CNNscore>  (493) 
0.6399027109

>  <CNNaffinity>  (493) 
4.4671463966

>  <CNN_VS>  (493) 
2.8585391045

>  <CNNaffinity_variance>  (493) 
0.1626655906

$$$$
494
     RDKit          3D

 43 45  0  0  0  0  0  0  0  0999 V2000
   23.0258   73.8285   -4.1546 P   0  0  2  0  0  0  0  0  0  0  0  0
   24.0492   72.5891   -4.3430 O   0  0  0  0  0  0  0  0  0  0  0  0
   23.5147   75.1413   -4.6925 O   0  0  0  0  0  0  0  0  0  0  0  0
   22.6722   73.8038   -2.5759 O   0  0  0  0  0  0  0  0  0  0  0  0
   21.8202   74.8091   -2.0581 C   0  0  0  0  0  0  0  0  0  0  0  0
   21.0575   72.8564   -0.8820 O   0  0  0  0  0  0  0  0  0  0  0  0
   18.7769   74.5518    0.0750 O   0  0  0  0  0  0  0  0  0  0  0  0
   20.4481   74.5297    2.2297 O   0  0  0  0  0  0  0  0  0  0  0  0
   20.1393   74.9140   -0.1513 C   0  0  1  0  0  0  0  0  0  0  0  0
   21.0188   74.3594    0.9492 C   0  0  2  0  0  0  0  0  0  0  0  0
   20.6329   74.1473   -1.3706 C   0  0  1  0  0  0  0  0  0  0  0  0
   21.1376   72.8979    0.5516 C   0  0  2  0  0  0  0  0  0  0  0  0
   18.4394   75.0293    0.8495 H   0  0  0  0  0  0  0  0  0  0  0  0
   20.3944   75.4765    2.4364 H   0  0  0  0  0  0  0  0  0  0  0  0
   21.5362   70.1393    1.0072 O   0  0  0  0  0  0  0  0  0  0  0  0
   25.9573   70.7794    2.1422 O   0  0  0  0  0  0  0  0  0  0  0  0
   22.3827   72.3165    0.9668 N   0  0  0  0  0  0  0  0  0  0  0  0
   23.7375   70.4609    1.5730 N   0  0  0  0  0  0  0  0  0  0  0  0
   22.4769   70.9191    1.1681 C   0  0  0  0  0  0  0  0  0  0  0  0
   23.4935   73.1268    1.1685 C   0  0  0  0  0  0  0  0  0  0  0  0
   24.6885   72.6754    1.5543 C   0  0  0  0  0  0  0  0  0  0  0  0
   24.8713   71.2278    1.7872 C   0  0  0  0  0  0  0  0  0  0  0  0
   23.8270   69.4917    1.7215 H   0  0  0  0  0  0  0  0  0  0  0  0
   21.6667   73.2842   -4.8399 O   0  0  0  0  0  0  0  0  0  0  0  0
   21.1213   73.4039   -6.3571 P   0  0  2  0  0  0  0  0  0  0  0  0
   22.2351   72.6014   -7.2149 O   0  0  0  0  0  0  0  0  0  0  0  0
   20.8841   74.8133   -6.8167 O   0  0  0  0  0  0  0  0  0  0  0  0
   19.8156   72.4575   -6.3985 O   0  0  0  0  0  0  0  0  0  0  0  0
   19.2728   70.2626   -5.6937 O   0  0  0  0  0  0  0  0  0  0  0  0
   17.4798   70.4190   -9.4124 O   0  0  0  0  0  0  0  0  0  0  0  0
   20.1448   71.5440   -9.0049 O   0  0  0  0  0  0  0  0  0  0  0  0
   15.8643   70.6199   -7.0039 O   0  0  0  0  0  0  0  0  0  0  0  0
   17.9488   70.9401   -8.1689 C   0  0  2  0  0  0  0  0  0  0  0  0
   19.4592   70.7280   -8.0622 C   0  0  2  0  0  0  0  0  0  0  0  0
   17.2262   70.1980   -7.0424 C   0  0  1  0  0  0  0  0  0  0  0  0
   19.9606   71.0621   -6.6566 C   0  0  1  0  0  0  0  0  0  0  0  0
   17.8645   70.4858   -5.6865 C   0  0  1  0  0  0  0  0  0  0  0  0
   17.9253   70.8757  -10.1433 H   0  0  0  0  0  0  0  0  0  0  0  0
   19.8314   71.3375   -9.8990 H   0  0  0  0  0  0  0  0  0  0  0  0
   15.4465   70.4424   -7.8611 H   0  0  0  0  0  0  0  0  0  0  0  0
   18.0751   69.6608   -3.5010 O   0  0  0  0  0  0  0  0  0  0  0  0
   16.4733   68.7152   -4.8199 O   0  0  0  0  0  0  0  0  0  0  0  0
   17.3771   69.5209   -4.6552 C   0  0  0  0  0  0  0  0  0  0  0  0
  1  4  1  0
  1 24  1  0
  1  2  1  1
  1  3  2  0
 25 28  1  0
 25 24  1  0
 25 26  1  6
 25 27  2  0
  6 11  1  0
  6 12  1  0
 29 36  1  0
 29 37  1  0
  9  7  1  1
  7 13  1  0
 10  8  1  1
  8 14  1  0
  4  5  1  0
 36 28  1  1
 33 30  1  6
 30 38  1  0
 34 31  1  6
 31 39  1  0
 35 32  1  1
 32 40  1  0
 41 43  1  0
 15 19  2  0
 42 43  2  0
 16 22  2  0
 12 17  1  6
 17 19  1  0
 17 20  1  0
 18 19  1  0
 18 22  1  0
 18 23  1  0
  9 10  1  0
  9 11  1  0
 10 12  1  0
 11  5  1  1
 33 34  1  0
 33 35  1  0
 34 36  1  0
 35 37  1  0
 37 43  1  1
 20 21  2  0
 21 22  1  0
M  CHG  3   2  -1  26  -1  41  -1
M  END
>  <COMPND>  (494) 
    udp_gluA.pdb 

>  <AUTHOR>  (494) 
    GENERATED BY OPEN BABEL 3.1.1

>  <MASTER>  (494) 
        0    0    0    0    0    0    0    0   56    0   56    0

>  <minimizedAffinity>  (494) 
-7.66533

>  <CNNscore>  (494) 
0.6335395575

>  <CNNaffinity>  (494) 
4.5418434143

>  <CNN_VS>  (494) 
2.8774373531

>  <CNNaffinity_variance>  (494) 
0.0466810055

$$$$
495
     RDKit          3D

 43 45  0  0  0  0  0  0  0  0999 V2000
   21.9321   72.5235   -5.8880 P   0  0  2  0  0  0  0  0  0  0  0  0
   21.3905   73.9561   -5.3653 O   0  0  0  0  0  0  0  0  0  0  0  0
   23.0366   72.5951   -6.9013 O   0  0  0  0  0  0  0  0  0  0  0  0
   20.5920   71.7512   -6.3629 O   0  0  0  0  0  0  0  0  0  0  0  0
   20.0284   72.0845   -7.6182 C   0  0  0  0  0  0  0  0  0  0  0  0
   18.8984   70.0117   -7.1660 O   0  0  0  0  0  0  0  0  0  0  0  0
   18.0912   70.0367  -10.0538 O   0  0  0  0  0  0  0  0  0  0  0  0
   15.8352   70.9123   -8.7969 O   0  0  0  0  0  0  0  0  0  0  0  0
   18.2318   71.1292   -9.1453 C   0  0  1  0  0  0  0  0  0  0  0  0
   17.0767   71.1491   -8.1668 C   0  0  2  0  0  0  0  0  0  0  0  0
   19.4158   70.8335   -8.2348 C   0  0  1  0  0  0  0  0  0  0  0  0
   17.4627   70.0420   -7.2007 C   0  0  2  0  0  0  0  0  0  0  0  0
   17.3407   70.2028  -10.6461 H   0  0  0  0  0  0  0  0  0  0  0  0
   15.6345   71.6448   -9.4012 H   0  0  0  0  0  0  0  0  0  0  0  0
   16.2999   68.0593   -5.5595 O   0  0  0  0  0  0  0  0  0  0  0  0
   15.6008   71.0530   -2.1254 O   0  0  0  0  0  0  0  0  0  0  0  0
   16.9684   70.2759   -5.8734 N   0  0  0  0  0  0  0  0  0  0  0  0
   15.9519   69.5525   -3.8511 N   0  0  0  0  0  0  0  0  0  0  0  0
   16.4023   69.2111   -5.1331 C   0  0  0  0  0  0  0  0  0  0  0  0
   17.0483   71.5469   -5.3175 C   0  0  0  0  0  0  0  0  0  0  0  0
   16.6147   71.8570   -4.0941 C   0  0  0  0  0  0  0  0  0  0  0  0
   16.0091   70.8020   -3.2552 C   0  0  0  0  0  0  0  0  0  0  0  0
   15.5520   68.8282   -3.3175 H   0  0  0  0  0  0  0  0  0  0  0  0
   22.3242   71.7617   -4.5173 O   0  0  0  0  0  0  0  0  0  0  0  0
   23.5026   72.0424   -3.4467 P   0  0  2  0  0  0  0  0  0  0  0  0
   24.4681   73.0837   -4.2239 O   0  0  0  0  0  0  0  0  0  0  0  0
   24.1961   70.8046   -2.9557 O   0  0  0  0  0  0  0  0  0  0  0  0
   22.8031   72.9218   -2.2892 O   0  0  0  0  0  0  0  0  0  0  0  0
   21.6405   71.6695   -0.6494 O   0  0  0  0  0  0  0  0  0  0  0  0
   20.4481   75.5249    0.2352 O   0  0  0  0  0  0  0  0  0  0  0  0
   20.6211   74.6282   -2.5398 O   0  0  0  0  0  0  0  0  0  0  0  0
   22.4135   74.1855    1.9068 O   0  0  0  0  0  0  0  0  0  0  0  0
   21.3401   74.5100   -0.2257 C   0  0  2  0  0  0  0  0  0  0  0  0
   20.7093   73.7720   -1.4067 C   0  0  2  0  0  0  0  0  0  0  0  0
   21.5943   73.5423    0.9323 C   0  0  1  0  0  0  0  0  0  0  0  0
   21.5282   72.5353   -1.7795 C   0  0  1  0  0  0  0  0  0  0  0  0
   22.3040   72.2781    0.4562 C   0  0  1  0  0  0  0  0  0  0  0  0
   20.2719   76.1517   -0.4840 H   0  0  0  0  0  0  0  0  0  0  0  0
   20.1030   75.4151   -2.3103 H   0  0  0  0  0  0  0  0  0  0  0  0
   21.9732   74.9919    2.2180 H   0  0  0  0  0  0  0  0  0  0  0  0
   21.5767   70.1297    1.0535 O   0  0  0  0  0  0  0  0  0  0  0  0
   22.7527   71.3016    2.6164 O   0  0  0  0  0  0  0  0  0  0  0  0
   22.2535   71.2147    1.5046 C   0  0  0  0  0  0  0  0  0  0  0  0
  1  4  1  0
  1 24  1  0
  1  2  1  1
  1  3  2  0
 25 28  1  0
 25 24  1  0
 25 26  1  6
 25 27  2  0
  6 11  1  0
  6 12  1  0
 29 36  1  0
 29 37  1  0
  9  7  1  6
  7 13  1  0
 10  8  1  6
  8 14  1  0
  4  5  1  0
 36 28  1  1
 33 30  1  1
 30 38  1  0
 34 31  1  6
 31 39  1  0
 35 32  1  1
 32 40  1  0
 41 43  1  0
 15 19  2  0
 42 43  2  0
 16 22  2  0
 12 17  1  1
 17 19  1  0
 17 20  1  0
 18 19  1  0
 18 22  1  0
 18 23  1  0
  9 10  1  0
  9 11  1  0
 10 12  1  0
 11  5  1  1
 33 34  1  0
 33 35  1  0
 34 36  1  0
 35 37  1  0
 37 43  1  1
 20 21  2  0
 21 22  1  0
M  CHG  3   2  -1  26  -1  41  -1
M  END
>  <COMPND>  (495) 
    udp_gluA.pdb 

>  <AUTHOR>  (495) 
    GENERATED BY OPEN BABEL 3.1.1

>  <MASTER>  (495) 
        0    0    0    0    0    0    0    0   56    0   56    0

>  <minimizedAffinity>  (495) 
-8.40175

>  <CNNscore>  (495) 
0.6333847046

>  <CNNaffinity>  (495) 
4.4229216576

>  <CNN_VS>  (495) 
2.8014109135

>  <CNNaffinity_variance>  (495) 
0.3983750343

$$$$
496
     RDKit          3D

 43 45  0  0  0  0  0  0  0  0999 V2000
   23.1772   71.5768   -2.6220 P   0  0  2  0  0  0  0  0  0  0  0  0
   23.3988   73.1620   -2.3836 O   0  0  0  0  0  0  0  0  0  0  0  0
   24.3628   70.8488   -3.1842 O   0  0  0  0  0  0  0  0  0  0  0  0
   21.8234   71.5023   -3.5049 O   0  0  0  0  0  0  0  0  0  0  0  0
   21.5902   72.5103   -4.4714 C   0  0  0  0  0  0  0  0  0  0  0  0
   20.6308   70.6656   -5.6773 O   0  0  0  0  0  0  0  0  0  0  0  0
   21.0426   72.3098   -8.1508 O   0  0  0  0  0  0  0  0  0  0  0  0
   18.3856   72.6533   -7.6426 O   0  0  0  0  0  0  0  0  0  0  0  0
   20.6782   72.7309   -6.8361 C   0  0  1  0  0  0  0  0  0  0  0  0
   19.2358   72.3697   -6.5511 C   0  0  2  0  0  0  0  0  0  0  0  0
   21.4281   71.8587   -5.8387 C   0  0  1  0  0  0  0  0  0  0  0  0
   19.3351   70.8823   -6.2583 C   0  0  2  0  0  0  0  0  0  0  0  0
   20.5758   72.8529   -8.8057 H   0  0  0  0  0  0  0  0  0  0  0  0
   18.3557   73.6124   -7.7884 H   0  0  0  0  0  0  0  0  0  0  0  0
   16.7634   69.9900   -7.0112 O   0  0  0  0  0  0  0  0  0  0  0  0
   15.5574   69.1973   -2.6338 O   0  0  0  0  0  0  0  0  0  0  0  0
   18.3293   70.4370   -5.3359 N   0  0  0  0  0  0  0  0  0  0  0  0
   16.1648   69.5970   -4.8302 N   0  0  0  0  0  0  0  0  0  0  0  0
   17.0696   70.0090   -5.8175 C   0  0  0  0  0  0  0  0  0  0  0  0
   18.5953   70.4255   -3.9720 C   0  0  0  0  0  0  0  0  0  0  0  0
   17.7229   70.0299   -3.0430 C   0  0  0  0  0  0  0  0  0  0  0  0
   16.3833   69.5683   -3.4624 C   0  0  0  0  0  0  0  0  0  0  0  0
   15.2803   69.2965   -5.1412 H   0  0  0  0  0  0  0  0  0  0  0  0
   22.6934   71.0557   -1.1703 O   0  0  0  0  0  0  0  0  0  0  0  0
   21.6186   71.6653   -0.1278 P   0  0  2  0  0  0  0  0  0  0  0  0
   21.0164   70.3481    0.5952 O   0  0  0  0  0  0  0  0  0  0  0  0
   20.5842   72.5524   -0.7579 O   0  0  0  0  0  0  0  0  0  0  0  0
   22.5118   72.3812    1.0090 O   0  0  0  0  0  0  0  0  0  0  0  0
   24.2911   71.6872    2.4096 O   0  0  0  0  0  0  0  0  0  0  0  0
   22.0648   74.0343    4.9792 O   0  0  0  0  0  0  0  0  0  0  0  0
   20.7444   72.1809    3.1473 O   0  0  0  0  0  0  0  0  0  0  0  0
   24.5454   75.0502    3.8544 O   0  0  0  0  0  0  0  0  0  0  0  0
   22.6041   73.6296    3.7209 C   0  0  2  0  0  0  0  0  0  0  0  0
   22.1443   72.2071    3.4008 C   0  0  2  0  0  0  0  0  0  0  0  0
   24.1301   73.6861    3.8202 C   0  0  1  0  0  0  0  0  0  0  0  0
   22.8819   71.6554    2.1799 C   0  0  1  0  0  0  0  0  0  0  0  0
   24.7917   73.0047    2.6259 C   0  0  1  0  0  0  0  0  0  0  0  0
   21.0958   74.0062    4.9400 H   0  0  0  0  0  0  0  0  0  0  0  0
   20.2702   72.5298    3.9178 H   0  0  0  0  0  0  0  0  0  0  0  0
   24.1312   75.4955    4.6101 H   0  0  0  0  0  0  0  0  0  0  0  0
   26.5803   71.4873    2.6143 O   0  0  0  0  0  0  0  0  0  0  0  0
   27.0299   73.6200    3.2840 O   0  0  0  0  0  0  0  0  0  0  0  0
   26.2448   72.7730    2.8852 C   0  0  0  0  0  0  0  0  0  0  0  0
  1  4  1  0
  1 24  1  0
  1  2  1  1
  1  3  2  0
 25 28  1  0
 25 24  1  0
 25 26  1  1
 25 27  2  0
  6 11  1  0
  6 12  1  0
 29 36  1  0
 29 37  1  0
  9  7  1  6
  7 13  1  0
 10  8  1  6
  8 14  1  0
  4  5  1  0
 36 28  1  6
 33 30  1  1
 30 38  1  0
 34 31  1  6
 31 39  1  0
 35 32  1  6
 32 40  1  0
 41 43  1  0
 15 19  2  0
 42 43  2  0
 16 22  2  0
 12 17  1  1
 17 19  1  0
 17 20  1  0
 18 19  1  0
 18 22  1  0
 18 23  1  0
  9 10  1  0
  9 11  1  0
 10 12  1  0
 11  5  1  1
 33 34  1  0
 33 35  1  0
 34 36  1  0
 35 37  1  0
 37 43  1  1
 20 21  2  0
 21 22  1  0
M  CHG  3   2  -1  26  -1  41  -1
M  END
>  <COMPND>  (496) 
    udp_gluA.pdb 

>  <AUTHOR>  (496) 
    GENERATED BY OPEN BABEL 3.1.1

>  <MASTER>  (496) 
        0    0    0    0    0    0    0    0   56    0   56    0

>  <minimizedAffinity>  (496) 
-7.87503

>  <CNNscore>  (496) 
0.6327909827

>  <CNNaffinity>  (496) 
4.3375511169

>  <CNN_VS>  (496) 
2.7447631359

>  <CNNaffinity_variance>  (496) 
0.1469226778

$$$$
497
     RDKit          3D

 43 45  0  0  0  0  0  0  0  0999 V2000
   23.4363   73.6136   -4.1284 P   0  0  2  0  0  0  0  0  0  0  0  0
   22.7209   75.0592   -4.2604 O   0  0  0  0  0  0  0  0  0  0  0  0
   24.9304   73.6559   -3.9959 O   0  0  0  0  0  0  0  0  0  0  0  0
   22.8664   72.7812   -5.3935 O   0  0  0  0  0  0  0  0  0  0  0  0
   21.5203   72.3436   -5.3639 C   0  0  0  0  0  0  0  0  0  0  0  0
   20.4634   70.3793   -6.2596 O   0  0  0  0  0  0  0  0  0  0  0  0
   20.6139   71.7413   -8.9267 O   0  0  0  0  0  0  0  0  0  0  0  0
   18.0170   72.1432   -8.1982 O   0  0  0  0  0  0  0  0  0  0  0  0
   20.3772   72.3049   -7.6364 C   0  0  1  0  0  0  0  0  0  0  0  0
   18.9734   71.9796   -7.1719 C   0  0  2  0  0  0  0  0  0  0  0  0
   21.2300   71.5461   -6.6288 C   0  0  1  0  0  0  0  0  0  0  0  0
   19.1147   70.5332   -6.7295 C   0  0  2  0  0  0  0  0  0  0  0  0
   20.0797   72.2100   -9.5875 H   0  0  0  0  0  0  0  0  0  0  0  0
   17.9641   73.0805   -8.4444 H   0  0  0  0  0  0  0  0  0  0  0  0
   16.4467   69.6924   -7.1182 O   0  0  0  0  0  0  0  0  0  0  0  0
   15.7312   69.2566   -2.5859 O   0  0  0  0  0  0  0  0  0  0  0  0
   18.2091   70.1937   -5.6686 N   0  0  0  0  0  0  0  0  0  0  0  0
   16.0926   69.4771   -4.8604 N   0  0  0  0  0  0  0  0  0  0  0  0
   16.8894   69.7830   -5.9716 C   0  0  0  0  0  0  0  0  0  0  0  0
   18.6306   70.2673   -4.3466 C   0  0  0  0  0  0  0  0  0  0  0  0
   17.8597   69.9725   -3.2981 C   0  0  0  0  0  0  0  0  0  0  0  0
   16.4668   69.5359   -3.5277 C   0  0  0  0  0  0  0  0  0  0  0  0
   15.1691   69.1908   -5.0462 H   0  0  0  0  0  0  0  0  0  0  0  0
   22.6678   72.9415   -2.8752 O   0  0  0  0  0  0  0  0  0  0  0  0
   22.8521   71.5004   -2.1661 P   0  0  2  0  0  0  0  0  0  0  0  0
   24.2003   70.9214   -2.8499 O   0  0  0  0  0  0  0  0  0  0  0  0
   21.6595   70.5968   -2.2885 O   0  0  0  0  0  0  0  0  0  0  0  0
   23.2798   71.8426   -0.6487 O   0  0  0  0  0  0  0  0  0  0  0  0
   24.6547   70.8686    1.0157 O   0  0  0  0  0  0  0  0  0  0  0  0
   21.3179   71.9405    3.2031 O   0  0  0  0  0  0  0  0  0  0  0  0
   21.0299   70.7374    0.5566 O   0  0  0  0  0  0  0  0  0  0  0  0
   23.7546   73.5144    3.3931 O   0  0  0  0  0  0  0  0  0  0  0  0
   22.2847   72.0576    2.1593 C   0  0  2  0  0  0  0  0  0  0  0  0
   22.2497   70.8030    1.2863 C   0  0  2  0  0  0  0  0  0  0  0  0
   23.6622   72.2175    2.8064 C   0  0  1  0  0  0  0  0  0  0  0  0
   23.4202   70.7886    0.3021 C   0  0  1  0  0  0  0  0  0  0  0  0
   24.7810   72.0657    1.7798 C   0  0  1  0  0  0  0  0  0  0  0  0
   20.4343   71.8378    2.8157 H   0  0  0  0  0  0  0  0  0  0  0  0
   20.2829   70.7465    1.1749 H   0  0  0  0  0  0  0  0  0  0  0  0
   23.0479   73.6240    4.0483 H   0  0  0  0  0  0  0  0  0  0  0  0
   26.4563   73.0285    3.1094 O   0  0  0  0  0  0  0  0  0  0  0  0
   26.7755   70.8749    2.4318 O   0  0  0  0  0  0  0  0  0  0  0  0
   26.1020   71.8941    2.4564 C   0  0  0  0  0  0  0  0  0  0  0  0
  1  4  1  0
  1 24  1  0
  1  2  1  6
  1  3  2  0
 25 28  1  0
 25 24  1  0
 25 26  1  6
 25 27  2  0
  6 11  1  0
  6 12  1  0
 29 36  1  0
 29 37  1  0
  9  7  1  6
  7 13  1  0
 10  8  1  6
  8 14  1  0
  4  5  1  0
 36 28  1  6
 33 30  1  1
 30 38  1  0
 34 31  1  6
 31 39  1  0
 35 32  1  6
 32 40  1  0
 41 43  1  0
 15 19  2  0
 42 43  2  0
 16 22  2  0
 12 17  1  1
 17 19  1  0
 17 20  1  0
 18 19  1  0
 18 22  1  0
 18 23  1  0
  9 10  1  0
  9 11  1  0
 10 12  1  0
 11  5  1  1
 33 34  1  0
 33 35  1  0
 34 36  1  0
 35 37  1  0
 37 43  1  1
 20 21  2  0
 21 22  1  0
M  CHG  3   2  -1  26  -1  41  -1
M  END
>  <COMPND>  (497) 
    udp_gluA.pdb 

>  <AUTHOR>  (497) 
    GENERATED BY OPEN BABEL 3.1.1

>  <MASTER>  (497) 
        0    0    0    0    0    0    0    0   56    0   56    0

>  <minimizedAffinity>  (497) 
-8.51194

>  <CNNscore>  (497) 
0.6215066314

>  <CNNaffinity>  (497) 
4.3261628151

>  <CNN_VS>  (497) 
2.6887388229

>  <CNNaffinity_variance>  (497) 
0.2046107799

$$$$
498
     RDKit          3D

 43 45  0  0  0  0  0  0  0  0999 V2000
   23.1043   73.3966   -4.5536 P   0  0  2  0  0  0  0  0  0  0  0  0
   24.1988   72.3127   -4.0572 O   0  0  0  0  0  0  0  0  0  0  0  0
   23.6707   74.7189   -4.9806 O   0  0  0  0  0  0  0  0  0  0  0  0
   22.0329   73.4494   -3.3423 O   0  0  0  0  0  0  0  0  0  0  0  0
   22.5026   73.2878   -2.0165 C   0  0  0  0  0  0  0  0  0  0  0  0
   23.2130   71.3557   -0.7755 O   0  0  0  0  0  0  0  0  0  0  0  0
   20.3052   70.6557   -0.5599 O   0  0  0  0  0  0  0  0  0  0  0  0
   20.8383   71.7460    1.8821 O   0  0  0  0  0  0  0  0  0  0  0  0
   20.9295   71.9397   -0.5400 C   0  0  1  0  0  0  0  0  0  0  0  0
   21.6249   72.1638    0.7861 C   0  0  2  0  0  0  0  0  0  0  0  0
   22.1006   71.9077   -1.5125 C   0  0  1  0  0  0  0  0  0  0  0  0
   22.8882   71.3359    0.6236 C   0  0  2  0  0  0  0  0  0  0  0  0
   19.5537   70.6517    0.0541 H   0  0  0  0  0  0  0  0  0  0  0  0
   20.0464   72.3039    1.9430 H   0  0  0  0  0  0  0  0  0  0  0  0
   24.8173   69.7677    1.9637 O   0  0  0  0  0  0  0  0  0  0  0  0
   27.0856   73.4965    3.4451 O   0  0  0  0  0  0  0  0  0  0  0  0
   23.9935   71.8710    1.3671 N   0  0  0  0  0  0  0  0  0  0  0  0
   25.9446   71.6264    2.7011 N   0  0  0  0  0  0  0  0  0  0  0  0
   24.9058   70.9963    2.0033 C   0  0  0  0  0  0  0  0  0  0  0  0
   24.1663   73.2467    1.4592 C   0  0  0  0  0  0  0  0  0  0  0  0
   25.1616   73.8325    2.1278 C   0  0  0  0  0  0  0  0  0  0  0  0
   26.1577   72.9900    2.8216 C   0  0  0  0  0  0  0  0  0  0  0  0
   26.5912   71.0380    3.1540 H   0  0  0  0  0  0  0  0  0  0  0  0
   22.3049   72.6009   -5.7115 O   0  0  0  0  0  0  0  0  0  0  0  0
   21.3077   73.1304   -6.8685 P   0  0  2  0  0  0  0  0  0  0  0  0
   21.9304   72.4863   -8.2167 O   0  0  0  0  0  0  0  0  0  0  0  0
   21.1515   74.6229   -6.9113 O   0  0  0  0  0  0  0  0  0  0  0  0
   19.9338   72.3201   -6.6271 O   0  0  0  0  0  0  0  0  0  0  0  0
   19.4974   70.2060   -5.6527 O   0  0  0  0  0  0  0  0  0  0  0  0
   16.6443   70.3615   -8.6366 O   0  0  0  0  0  0  0  0  0  0  0  0
   19.3701   71.2811   -9.1448 O   0  0  0  0  0  0  0  0  0  0  0  0
   15.8809   70.7878   -5.8641 O   0  0  0  0  0  0  0  0  0  0  0  0
   17.5120   70.8913   -7.6344 C   0  0  2  0  0  0  0  0  0  0  0  0
   18.9626   70.5613   -7.9870 C   0  0  2  0  0  0  0  0  0  0  0  0
   17.1318   70.2552   -6.2954 C   0  0  1  0  0  0  0  0  0  0  0  0
   19.8996   70.9085   -6.8293 C   0  0  1  0  0  0  0  0  0  0  0  0
   18.1799   70.5432   -5.2244 C   0  0  1  0  0  0  0  0  0  0  0  0
   16.8672   70.7514   -9.4966 H   0  0  0  0  0  0  0  0  0  0  0  0
   18.7797   71.0658   -9.8833 H   0  0  0  0  0  0  0  0  0  0  0  0
   15.2051   70.6113   -6.5371 H   0  0  0  0  0  0  0  0  0  0  0  0
   19.0610   69.7042   -3.2191 O   0  0  0  0  0  0  0  0  0  0  0  0
   16.9780   68.9952   -3.8171 O   0  0  0  0  0  0  0  0  0  0  0  0
   17.9783   69.6625   -4.0345 C   0  0  0  0  0  0  0  0  0  0  0  0
  1  4  1  0
  1 24  1  0
  1  2  1  1
  1  3  2  0
 25 28  1  0
 25 24  1  0
 25 26  1  6
 25 27  2  0
  6 11  1  0
  6 12  1  0
 29 36  1  0
 29 37  1  0
  9  7  1  1
  7 13  1  0
 10  8  1  1
  8 14  1  0
  4  5  1  0
 36 28  1  1
 33 30  1  6
 30 38  1  0
 34 31  1  6
 31 39  1  0
 35 32  1  1
 32 40  1  0
 41 43  1  0
 15 19  2  0
 42 43  2  0
 16 22  2  0
 12 17  1  1
 17 19  1  0
 17 20  1  0
 18 19  1  0
 18 22  1  0
 18 23  1  0
  9 10  1  0
  9 11  1  0
 10 12  1  0
 11  5  1  1
 33 34  1  0
 33 35  1  0
 34 36  1  0
 35 37  1  0
 37 43  1  1
 20 21  2  0
 21 22  1  0
M  CHG  3   2  -1  26  -1  41  -1
M  END
>  <COMPND>  (498) 
    udp_gluA.pdb 

>  <AUTHOR>  (498) 
    GENERATED BY OPEN BABEL 3.1.1

>  <MASTER>  (498) 
        0    0    0    0    0    0    0    0   56    0   56    0

>  <minimizedAffinity>  (498) 
-7.87387

>  <CNNscore>  (498) 
0.6121314764

>  <CNNaffinity>  (498) 
4.4952249527

>  <CNN_VS>  (498) 
2.7516686916

>  <CNNaffinity_variance>  (498) 
0.0403240696

$$$$
499
     RDKit          3D

 43 45  0  0  0  0  0  0  0  0999 V2000
   22.8012   73.4780   -4.1280 P   0  0  2  0  0  0  0  0  0  0  0  0
   23.8923   72.3128   -4.3936 O   0  0  0  0  0  0  0  0  0  0  0  0
   23.1614   74.8229   -4.6877 O   0  0  0  0  0  0  0  0  0  0  0  0
   22.5572   73.4248   -2.5293 O   0  0  0  0  0  0  0  0  0  0  0  0
   22.0739   74.5864   -1.8801 C   0  0  0  0  0  0  0  0  0  0  0  0
   21.2137   72.9352   -0.3598 O   0  0  0  0  0  0  0  0  0  0  0  0
   19.3202   75.0602    0.5839 O   0  0  0  0  0  0  0  0  0  0  0  0
   21.2343   75.0625    2.5261 O   0  0  0  0  0  0  0  0  0  0  0  0
   20.6787   75.1829    0.1620 C   0  0  1  0  0  0  0  0  0  0  0  0
   21.6094   74.6474    1.2294 C   0  0  2  0  0  0  0  0  0  0  0  0
   20.9063   74.2023   -0.9803 C   0  0  1  0  0  0  0  0  0  0  0  0
   21.4806   73.1461    1.0358 C   0  0  2  0  0  0  0  0  0  0  0  0
   19.1508   75.6773    1.3134 H   0  0  0  0  0  0  0  0  0  0  0  0
   21.3341   76.0251    2.5989 H   0  0  0  0  0  0  0  0  0  0  0  0
   21.6919   70.3344    1.1976 O   0  0  0  0  0  0  0  0  0  0  0  0
   26.1310   70.5556    2.4178 O   0  0  0  0  0  0  0  0  0  0  0  0
   22.6797   72.4426    1.3935 N   0  0  0  0  0  0  0  0  0  0  0  0
   23.9024   70.4473    1.8062 N   0  0  0  0  0  0  0  0  0  0  0  0
   22.6796   71.0286    1.4456 C   0  0  0  0  0  0  0  0  0  0  0  0
   23.8386   73.1513    1.6861 C   0  0  0  0  0  0  0  0  0  0  0  0
   24.9966   72.5833    2.0282 C   0  0  0  0  0  0  0  0  0  0  0  0
   25.0813   71.1101    2.1068 C   0  0  0  0  0  0  0  0  0  0  0  0
   23.9263   69.4641    1.8512 H   0  0  0  0  0  0  0  0  0  0  0  0
   21.4397   72.8431   -4.7247 O   0  0  0  0  0  0  0  0  0  0  0  0
   20.5214   71.6193   -4.2025 P   0  0  2  0  0  0  0  0  0  0  0  0
   19.5808   72.3141   -3.0832 O   0  0  0  0  0  0  0  0  0  0  0  0
   21.2984   70.4337   -3.7080 O   0  0  0  0  0  0  0  0  0  0  0  0
   19.5253   71.3018   -5.4312 O   0  0  0  0  0  0  0  0  0  0  0  0
   19.3375   71.8615   -7.7248 O   0  0  0  0  0  0  0  0  0  0  0  0
   15.4592   72.4013   -6.4075 O   0  0  0  0  0  0  0  0  0  0  0  0
   17.7136   73.3117   -4.7878 O   0  0  0  0  0  0  0  0  0  0  0  0
   16.1561   70.0499   -7.9684 O   0  0  0  0  0  0  0  0  0  0  0  0
   16.7564   71.8056   -6.4314 C   0  0  2  0  0  0  0  0  0  0  0  0
   17.8137   72.8698   -6.1366 C   0  0  2  0  0  0  0  0  0  0  0  0
   16.9766   71.2076   -7.8227 C   0  0  1  0  0  0  0  0  0  0  0  0
   19.2217   72.3240   -6.3787 C   0  0  1  0  0  0  0  0  0  0  0  0
   18.4330   70.8026   -8.0309 C   0  0  1  0  0  0  0  0  0  0  0  0
   15.2970   72.7881   -5.5327 H   0  0  0  0  0  0  0  0  0  0  0  0
   16.8226   73.6591   -4.6271 H   0  0  0  0  0  0  0  0  0  0  0  0
   15.2265   70.2940   -7.8381 H   0  0  0  0  0  0  0  0  0  0  0  0
   17.9101   69.5388   -9.9364 O   0  0  0  0  0  0  0  0  0  0  0  0
   19.5332   71.1254  -10.1538 O   0  0  0  0  0  0  0  0  0  0  0  0
   18.7076   70.5337   -9.4747 C   0  0  0  0  0  0  0  0  0  0  0  0
  1  4  1  0
  1 24  1  0
  1  2  1  1
  1  3  2  0
 25 28  1  0
 25 24  1  0
 25 26  1  1
 25 27  2  0
  6 11  1  0
  6 12  1  0
 29 36  1  0
 29 37  1  0
  9  7  1  1
  7 13  1  0
 10  8  1  1
  8 14  1  0
  4  5  1  0
 36 28  1  1
 33 30  1  6
 30 38  1  0
 34 31  1  1
 31 39  1  0
 35 32  1  1
 32 40  1  0
 41 43  1  0
 15 19  2  0
 42 43  2  0
 16 22  2  0
 12 17  1  6
 17 19  1  0
 17 20  1  0
 18 19  1  0
 18 22  1  0
 18 23  1  0
  9 10  1  0
  9 11  1  0
 10 12  1  0
 11  5  1  6
 33 34  1  0
 33 35  1  0
 34 36  1  0
 35 37  1  0
 37 43  1  6
 20 21  2  0
 21 22  1  0
M  CHG  3   2  -1  26  -1  41  -1
M  END
>  <COMPND>  (499) 
    udp_gluA.pdb 

>  <AUTHOR>  (499) 
    GENERATED BY OPEN BABEL 3.1.1

>  <MASTER>  (499) 
        0    0    0    0    0    0    0    0   56    0   56    0

>  <minimizedAffinity>  (499) 
-6.95291

>  <CNNscore>  (499) 
0.6117171645

>  <CNNaffinity>  (499) 
4.3674440384

>  <CNN_VS>  (499) 
2.6716403961

>  <CNNaffinity_variance>  (499) 
0.0246465150

$$$$
500
     RDKit          3D

 43 45  0  0  0  0  0  0  0  0999 V2000
   22.8286   71.2306   -2.5630 P   0  0  2  0  0  0  0  0  0  0  0  0
   24.3212   70.8058   -3.0218 O   0  0  0  0  0  0  0  0  0  0  0  0
   21.7234   70.4175   -3.1707 O   0  0  0  0  0  0  0  0  0  0  0  0
   22.7712   72.8215   -2.8523 O   0  0  0  0  0  0  0  0  0  0  0  0
   21.8565   73.2999   -3.8214 C   0  0  0  0  0  0  0  0  0  0  0  0
   21.8506   72.3038   -6.0089 O   0  0  0  0  0  0  0  0  0  0  0  0
   23.4752   74.6667   -6.8856 O   0  0  0  0  0  0  0  0  0  0  0  0
   20.9739   75.3043   -7.7646 O   0  0  0  0  0  0  0  0  0  0  0  0
   22.4127   74.6037   -5.9340 C   0  0  1  0  0  0  0  0  0  0  0  0
   21.0829   74.4539   -6.6424 C   0  0  2  0  0  0  0  0  0  0  0  0
   22.5274   73.2809   -5.1888 C   0  0  1  0  0  0  0  0  0  0  0  0
   21.0917   72.9830   -7.0219 C   0  0  2  0  0  0  0  0  0  0  0  0
   23.4228   75.5035   -7.3743 H   0  0  0  0  0  0  0  0  0  0  0  0
   20.9725   76.2292   -7.4705 H   0  0  0  0  0  0  0  0  0  0  0  0
   20.3664   70.7462   -8.5863 O   0  0  0  0  0  0  0  0  0  0  0  0
   15.9960   70.9167   -7.1322 O   0  0  0  0  0  0  0  0  0  0  0  0
   19.7712   72.4219   -7.0709 N   0  0  0  0  0  0  0  0  0  0  0  0
   18.1901   70.8339   -7.8613 N   0  0  0  0  0  0  0  0  0  0  0  0
   19.5121   71.2972   -7.8895 C   0  0  0  0  0  0  0  0  0  0  0  0
   18.7505   72.9831   -6.3131 C   0  0  0  0  0  0  0  0  0  0  0  0
   17.4954   72.5302   -6.2965 C   0  0  0  0  0  0  0  0  0  0  0  0
   17.1408   71.3590   -7.1247 C   0  0  0  0  0  0  0  0  0  0  0  0
   17.9851   70.0530   -8.4249 H   0  0  0  0  0  0  0  0  0  0  0  0
   22.9100   71.1573   -0.9503 O   0  0  0  0  0  0  0  0  0  0  0  0
   21.8298   71.5517    0.1861 P   0  0  2  0  0  0  0  0  0  0  0  0
   21.5163   70.1359    0.9056 O   0  0  0  0  0  0  0  0  0  0  0  0
   20.6150   72.2609   -0.3387 O   0  0  0  0  0  0  0  0  0  0  0  0
   22.6723   72.3865    1.2796 O   0  0  0  0  0  0  0  0  0  0  0  0
   24.5256   71.8762    2.6630 O   0  0  0  0  0  0  0  0  0  0  0  0
   22.2125   74.1974    5.1789 O   0  0  0  0  0  0  0  0  0  0  0  0
   20.9728   72.1770    3.4714 O   0  0  0  0  0  0  0  0  0  0  0  0
   24.5944   75.3144    3.9420 O   0  0  0  0  0  0  0  0  0  0  0  0
   22.7471   73.7677    3.9268 C   0  0  2  0  0  0  0  0  0  0  0  0
   22.3736   72.3049    3.6858 C   0  0  2  0  0  0  0  0  0  0  0  0
   24.2682   73.9265    3.9826 C   0  0  1  0  0  0  0  0  0  0  0  0
   23.1165   71.7433    2.4727 C   0  0  1  0  0  0  0  0  0  0  0  0
   24.9443   73.2319    2.8041 C   0  0  1  0  0  0  0  0  0  0  0  0
   21.2468   74.1055    5.1669 H   0  0  0  0  0  0  0  0  0  0  0  0
   20.4952   72.5317    4.2372 H   0  0  0  0  0  0  0  0  0  0  0  0
   24.1700   75.7682    4.6869 H   0  0  0  0  0  0  0  0  0  0  0  0
   26.8288   71.8353    2.8066 O   0  0  0  0  0  0  0  0  0  0  0  0
   27.1514   74.0186    3.3798 O   0  0  0  0  0  0  0  0  0  0  0  0
   26.4151   73.1064    3.0350 C   0  0  0  0  0  0  0  0  0  0  0  0
  1  4  1  0
  1 24  1  0
  1  2  1  6
  1  3  2  0
 25 28  1  0
 25 24  1  0
 25 26  1  1
 25 27  2  0
  6 11  1  0
  6 12  1  0
 29 36  1  0
 29 37  1  0
  9  7  1  6
  7 13  1  0
 10  8  1  6
  8 14  1  0
  4  5  1  0
 36 28  1  6
 33 30  1  1
 30 38  1  0
 34 31  1  6
 31 39  1  0
 35 32  1  6
 32 40  1  0
 41 43  1  0
 15 19  2  0
 42 43  2  0
 16 22  2  0
 12 17  1  1
 17 19  1  0
 17 20  1  0
 18 19  1  0
 18 22  1  0
 18 23  1  0
  9 10  1  0
  9 11  1  0
 10 12  1  0
 11  5  1  1
 33 34  1  0
 33 35  1  0
 34 36  1  0
 35 37  1  0
 37 43  1  1
 20 21  2  0
 21 22  1  0
M  CHG  3   2  -1  26  -1  41  -1
M  END
>  <COMPND>  (500) 
    udp_gluA.pdb 

>  <AUTHOR>  (500) 
    GENERATED BY OPEN BABEL 3.1.1

>  <MASTER>  (500) 
        0    0    0    0    0    0    0    0   56    0   56    0

>  <minimizedAffinity>  (500) 
-7.24305

>  <CNNscore>  (500) 
0.5977140665

>  <CNNaffinity>  (500) 
4.3608503342

>  <CNN_VS>  (500) 
2.6065416336

>  <CNNaffinity_variance>  (500) 
0.0330720432

$$$$
501
     RDKit          3D

 43 45  0  0  0  0  0  0  0  0999 V2000
   22.7655   71.6766   -2.9342 P   0  0  2  0  0  0  0  0  0  0  0  0
   22.5344   73.2463   -2.6157 O   0  0  0  0  0  0  0  0  0  0  0  0
   24.1624   71.3121   -3.3436 O   0  0  0  0  0  0  0  0  0  0  0  0
   21.6047   71.3223   -4.0043 O   0  0  0  0  0  0  0  0  0  0  0  0
   20.7248   70.2509   -3.7174 C   0  0  0  0  0  0  0  0  0  0  0  0
   18.9084   71.5065   -4.6671 O   0  0  0  0  0  0  0  0  0  0  0  0
   17.2011   70.3134   -2.5100 O   0  0  0  0  0  0  0  0  0  0  0  0
   16.5673   68.7911   -4.6819 O   0  0  0  0  0  0  0  0  0  0  0  0
   18.2825   69.7269   -3.2346 C   0  0  1  0  0  0  0  0  0  0  0  0
   17.8464   69.3886   -4.6444 C   0  0  2  0  0  0  0  0  0  0  0  0
   19.3278   70.8076   -3.4751 C   0  0  1  0  0  0  0  0  0  0  0  0
   17.8760   70.7496   -5.3188 C   0  0  2  0  0  0  0  0  0  0  0  0
   16.5205   69.6418   -2.3444 H   0  0  0  0  0  0  0  0  0  0  0  0
   16.6009   67.9275   -4.2404 H   0  0  0  0  0  0  0  0  0  0  0  0
   15.9512   70.3022   -7.3366 O   0  0  0  0  0  0  0  0  0  0  0  0
   19.1409   70.4264  -10.6614 O   0  0  0  0  0  0  0  0  0  0  0  0
   18.1760   70.6606   -6.7198 N   0  0  0  0  0  0  0  0  0  0  0  0
   17.5418   70.3635   -8.9905 N   0  0  0  0  0  0  0  0  0  0  0  0
   17.1355   70.4333   -7.6514 C   0  0  0  0  0  0  0  0  0  0  0  0
   19.4871   70.7995   -7.1586 C   0  0  0  0  0  0  0  0  0  0  0  0
   19.8590   70.7306   -8.4383 C   0  0  0  0  0  0  0  0  0  0  0  0
   18.8331   70.4946   -9.4753 C   0  0  0  0  0  0  0  0  0  0  0  0
   16.8353   70.2038   -9.6573 H   0  0  0  0  0  0  0  0  0  0  0  0
   22.2488   70.9526   -1.5845 O   0  0  0  0  0  0  0  0  0  0  0  0
   21.6206   71.5637   -0.2260 P   0  0  2  0  0  0  0  0  0  0  0  0
   21.0237   70.2597    0.5247 O   0  0  0  0  0  0  0  0  0  0  0  0
   20.6202   72.6607   -0.4492 O   0  0  0  0  0  0  0  0  0  0  0  0
   22.8991   71.9934    0.6589 O   0  0  0  0  0  0  0  0  0  0  0  0
   24.5058   71.2890    2.2500 O   0  0  0  0  0  0  0  0  0  0  0  0
   22.4355   74.1712    4.3653 O   0  0  0  0  0  0  0  0  0  0  0  0
   21.0072   72.2592    2.6804 O   0  0  0  0  0  0  0  0  0  0  0  0
   25.0757   74.7582    3.2998 O   0  0  0  0  0  0  0  0  0  0  0  0
   22.9907   73.5547    3.2036 C   0  0  2  0  0  0  0  0  0  0  0  0
   22.3847   72.1626    3.0238 C   0  0  2  0  0  0  0  0  0  0  0  0
   24.5051   73.4548    3.3993 C   0  0  1  0  0  0  0  0  0  0  0  0
   23.1172   71.3841    1.9301 C   0  0  1  0  0  0  0  0  0  0  0  0
   25.1456   72.5600    2.3421 C   0  0  1  0  0  0  0  0  0  0  0  0
   21.4734   74.2453    4.2638 H   0  0  0  0  0  0  0  0  0  0  0  0
   20.5363   72.7523    3.3700 H   0  0  0  0  0  0  0  0  0  0  0  0
   24.6764   75.3378    3.9673 H   0  0  0  0  0  0  0  0  0  0  0  0
   26.8256   70.9236    2.3781 O   0  0  0  0  0  0  0  0  0  0  0  0
   27.3352   72.9573    3.2745 O   0  0  0  0  0  0  0  0  0  0  0  0
   26.5451   72.2040    2.7256 C   0  0  0  0  0  0  0  0  0  0  0  0
  1  4  1  0
  1 24  1  0
  1  2  1  1
  1  3  2  0
 25 28  1  0
 25 24  1  0
 25 26  1  1
 25 27  2  0
  6 11  1  0
  6 12  1  0
 29 36  1  0
 29 37  1  0
  9  7  1  1
  7 13  1  0
 10  8  1  1
  8 14  1  0
  4  5  1  0
 36 28  1  6
 33 30  1  1
 30 38  1  0
 34 31  1  6
 31 39  1  0
 35 32  1  6
 32 40  1  0
 41 43  1  0
 15 19  2  0
 42 43  2  0
 16 22  2  0
 12 17  1  6
 17 19  1  0
 17 20  1  0
 18 19  1  0
 18 22  1  0
 18 23  1  0
  9 10  1  0
  9 11  1  0
 10 12  1  0
 11  5  1  6
 33 34  1  0
 33 35  1  0
 34 36  1  0
 35 37  1  0
 37 43  1  1
 20 21  2  0
 21 22  1  0
M  CHG  3   2  -1  26  -1  41  -1
M  END
>  <COMPND>  (501) 
    udp_gluA.pdb 

>  <AUTHOR>  (501) 
    GENERATED BY OPEN BABEL 3.1.1

>  <MASTER>  (501) 
        0    0    0    0    0    0    0    0   56    0   56    0

>  <minimizedAffinity>  (501) 
-8.10297

>  <CNNscore>  (501) 
0.9330797791

>  <CNNaffinity>  (501) 
4.8879575729

>  <CNN_VS>  (501) 
4.5608544350

>  <CNNaffinity_variance>  (501) 
0.0435257778

$$$$
502
     RDKit          3D

 43 45  0  0  0  0  0  0  0  0999 V2000
   21.5042   71.7575   -3.4334 P   0  0  2  0  0  0  0  0  0  0  0  0
   22.7915   71.7317   -4.4137 O   0  0  0  0  0  0  0  0  0  0  0  0
   21.7412   71.1975   -2.0615 O   0  0  0  0  0  0  0  0  0  0  0  0
   20.3435   71.0329   -4.2970 O   0  0  0  0  0  0  0  0  0  0  0  0
   19.5204   70.0764   -3.6552 C   0  0  0  0  0  0  0  0  0  0  0  0
   17.8789   71.3096   -4.9050 O   0  0  0  0  0  0  0  0  0  0  0  0
   15.8249   69.9355   -3.2066 O   0  0  0  0  0  0  0  0  0  0  0  0
   15.7283   68.5097   -5.5290 O   0  0  0  0  0  0  0  0  0  0  0  0
   17.0601   69.4319   -3.7157 C   0  0  1  0  0  0  0  0  0  0  0  0
   16.9411   69.1538   -5.1992 C   0  0  2  0  0  0  0  0  0  0  0  0
   18.0776   70.5640   -3.6843 C   0  0  1  0  0  0  0  0  0  0  0  0
   17.0416   70.5495   -5.7907 C   0  0  2  0  0  0  0  0  0  0  0  0
   15.1588   69.2299   -3.2168 H   0  0  0  0  0  0  0  0  0  0  0  0
   15.7129   67.6253   -5.1295 H   0  0  0  0  0  0  0  0  0  0  0  0
   15.5665   70.4695   -8.1978 O   0  0  0  0  0  0  0  0  0  0  0  0
   19.3963   70.5491  -10.7609 O   0  0  0  0  0  0  0  0  0  0  0  0
   17.6279   70.5484   -7.1011 N   0  0  0  0  0  0  0  0  0  0  0  0
   17.4754   70.5082   -9.4720 N   0  0  0  0  0  0  0  0  0  0  0  0
   16.7974   70.5062   -8.2459 C   0  0  0  0  0  0  0  0  0  0  0  0
   19.0096   70.5903   -7.2428 C   0  0  0  0  0  0  0  0  0  0  0  0
   19.6414   70.5918   -8.4182 C   0  0  0  0  0  0  0  0  0  0  0  0
   18.8470   70.5484   -9.6634 C   0  0  0  0  0  0  0  0  0  0  0  0
   16.9184   70.4772  -10.2833 H   0  0  0  0  0  0  0  0  0  0  0  0
   21.0597   73.3114   -3.4588 O   0  0  0  0  0  0  0  0  0  0  0  0
   20.3854   74.2412   -2.3211 P   0  0  2  0  0  0  0  0  0  0  0  0
   19.1749   73.3231   -1.7626 O   0  0  0  0  0  0  0  0  0  0  0  0
   19.9602   75.5970   -2.8061 O   0  0  0  0  0  0  0  0  0  0  0  0
   21.4637   74.2671   -1.1216 O   0  0  0  0  0  0  0  0  0  0  0  0
   21.1342   72.9847    0.8421 O   0  0  0  0  0  0  0  0  0  0  0  0
   23.9168   75.7630    2.1095 O   0  0  0  0  0  0  0  0  0  0  0  0
   21.6790   76.5748    0.4161 O   0  0  0  0  0  0  0  0  0  0  0  0
   24.7344   73.0303    1.5485 O   0  0  0  0  0  0  0  0  0  0  0  0
   23.2665   74.9037    1.1733 C   0  0  2  0  0  0  0  0  0  0  0  0
   21.7965   75.3044    1.0462 C   0  0  2  0  0  0  0  0  0  0  0  0
   23.3840   73.4676    1.6888 C   0  0  1  0  0  0  0  0  0  0  0  0
   21.0161   74.2709    0.2328 C   0  0  1  0  0  0  0  0  0  0  0  0
   22.4804   72.5191    0.9062 C   0  0  1  0  0  0  0  0  0  0  0  0
   23.8549   76.6814    1.8028 H   0  0  0  0  0  0  0  0  0  0  0  0
   22.1721   77.2354    0.9268 H   0  0  0  0  0  0  0  0  0  0  0  0
   25.3200   73.6258    2.0418 H   0  0  0  0  0  0  0  0  0  0  0  0
   22.9911   71.2415    2.8058 O   0  0  0  0  0  0  0  0  0  0  0  0
   21.7456   70.2374    1.1810 O   0  0  0  0  0  0  0  0  0  0  0  0
   22.3489   71.2087    1.6119 C   0  0  0  0  0  0  0  0  0  0  0  0
  1  4  1  0
  1 24  1  0
  1  2  1  6
  1  3  2  0
 25 28  1  0
 25 24  1  0
 25 26  1  1
 25 27  2  0
  6 11  1  0
  6 12  1  0
 29 36  1  0
 29 37  1  0
  9  7  1  6
  7 13  1  0
 10  8  1  1
  8 14  1  0
  4  5  1  0
 36 28  1  6
 33 30  1  1
 30 38  1  0
 34 31  1  6
 31 39  1  0
 35 32  1  6
 32 40  1  0
 41 43  1  0
 15 19  2  0
 42 43  2  0
 16 22  2  0
 12 17  1  6
 17 19  1  0
 17 20  1  0
 18 19  1  0
 18 22  1  0
 18 23  1  0
  9 10  1  0
  9 11  1  0
 10 12  1  0
 11  5  1  6
 33 34  1  0
 33 35  1  0
 34 36  1  0
 35 37  1  0
 37 43  1  1
 20 21  2  0
 21 22  1  0
M  CHG  3   2  -1  26  -1  41  -1
M  END
>  <COMPND>  (502) 
    udp_gluA.pdb 

>  <AUTHOR>  (502) 
    GENERATED BY OPEN BABEL 3.1.1

>  <MASTER>  (502) 
        0    0    0    0    0    0    0    0   56    0   56    0

>  <minimizedAffinity>  (502) 
-7.24528

>  <CNNscore>  (502) 
0.9094619155

>  <CNNaffinity>  (502) 
4.7790651321

>  <CNN_VS>  (502) 
4.3463778496

>  <CNNaffinity_variance>  (502) 
0.1106551662

$$$$
503
     RDKit          3D

 43 45  0  0  0  0  0  0  0  0999 V2000
   21.4515   72.6992   -4.6830 P   0  0  2  0  0  0  0  0  0  0  0  0
   21.3116   74.2903   -4.4231 O   0  0  0  0  0  0  0  0  0  0  0  0
   22.3553   72.3199   -5.8193 O   0  0  0  0  0  0  0  0  0  0  0  0
   19.9207   72.1890   -4.8025 O   0  0  0  0  0  0  0  0  0  0  0  0
   19.3829   71.4117   -3.7484 C   0  0  0  0  0  0  0  0  0  0  0  0
   17.5124   71.7745   -5.2138 O   0  0  0  0  0  0  0  0  0  0  0  0
   15.8939   70.2132   -3.2304 O   0  0  0  0  0  0  0  0  0  0  0  0
   16.3736   68.3751   -5.1868 O   0  0  0  0  0  0  0  0  0  0  0  0
   17.2507   70.0285   -3.6347 C   0  0  1  0  0  0  0  0  0  0  0  0
   17.3067   69.4221   -5.0208 C   0  0  2  0  0  0  0  0  0  0  0  0
   17.8640   71.4032   -3.8633 C   0  0  1  0  0  0  0  0  0  0  0  0
   17.0027   70.6215   -5.9023 C   0  0  2  0  0  0  0  0  0  0  0  0
   15.4809   69.3483   -3.0784 H   0  0  0  0  0  0  0  0  0  0  0  0
   16.6107   67.6354   -4.6048 H   0  0  0  0  0  0  0  0  0  0  0  0
   15.6236   70.7301   -8.3645 O   0  0  0  0  0  0  0  0  0  0  0  0
   19.5222   70.2587  -10.7775 O   0  0  0  0  0  0  0  0  0  0  0  0
   17.6327   70.5296   -7.1890 N   0  0  0  0  0  0  0  0  0  0  0  0
   17.5665   70.4942   -9.5640 N   0  0  0  0  0  0  0  0  0  0  0  0
   16.8486   70.5951   -8.3650 C   0  0  0  0  0  0  0  0  0  0  0  0
   19.0112   70.3783   -7.2771 C   0  0  0  0  0  0  0  0  0  0  0  0
   19.6813   70.2836   -8.4272 C   0  0  0  0  0  0  0  0  0  0  0  0
   18.9367   70.3422   -9.7022 C   0  0  0  0  0  0  0  0  0  0  0  0
   17.0420   70.5351  -10.3962 H   0  0  0  0  0  0  0  0  0  0  0  0
   21.9111   72.1348   -3.2398 O   0  0  0  0  0  0  0  0  0  0  0  0
   23.3736   72.0258   -2.5593 P   0  0  2  0  0  0  0  0  0  0  0  0
   24.0734   73.4293   -2.9600 O   0  0  0  0  0  0  0  0  0  0  0  0
   24.1525   70.8083   -2.9653 O   0  0  0  0  0  0  0  0  0  0  0  0
   23.0976   72.1463   -0.9744 O   0  0  0  0  0  0  0  0  0  0  0  0
   24.3414   70.9621    0.6565 O   0  0  0  0  0  0  0  0  0  0  0  0
   20.8459   71.7852    2.6991 O   0  0  0  0  0  0  0  0  0  0  0  0
   20.7626   70.9206   -0.0902 O   0  0  0  0  0  0  0  0  0  0  0  0
   23.2598   73.3020    3.2675 O   0  0  0  0  0  0  0  0  0  0  0  0
   21.8898   72.0217    1.7545 C   0  0  2  0  0  0  0  0  0  0  0  0
   21.9228   70.8848    0.7328 C   0  0  2  0  0  0  0  0  0  0  0  0
   23.2136   72.0884    2.5195 C   0  0  1  0  0  0  0  0  0  0  0  0
   23.1654   70.9817   -0.1535 C   0  0  1  0  0  0  0  0  0  0  0  0
   24.4079   72.0546    1.5703 C   0  0  1  0  0  0  0  0  0  0  0  0
   19.9947   71.7389    2.2357 H   0  0  0  0  0  0  0  0  0  0  0  0
   19.9704   70.8598    0.4657 H   0  0  0  0  0  0  0  0  0  0  0  0
   22.5048   73.3361    3.8755 H   0  0  0  0  0  0  0  0  0  0  0  0
   26.0662   72.8931    3.0016 O   0  0  0  0  0  0  0  0  0  0  0  0
   26.2760   70.7263    2.3233 O   0  0  0  0  0  0  0  0  0  0  0  0
   25.6732   71.7891    2.3191 C   0  0  0  0  0  0  0  0  0  0  0  0
  1  4  1  0
  1 24  1  0
  1  2  1  1
  1  3  2  0
 25 28  1  0
 25 24  1  0
 25 26  1  6
 25 27  2  0
  6 11  1  0
  6 12  1  0
 29 36  1  0
 29 37  1  0
  9  7  1  6
  7 13  1  0
 10  8  1  1
  8 14  1  0
  4  5  1  0
 36 28  1  1
 33 30  1  1
 30 38  1  0
 34 31  1  6
 31 39  1  0
 35 32  1  6
 32 40  1  0
 41 43  1  0
 15 19  2  0
 42 43  2  0
 16 22  2  0
 12 17  1  6
 17 19  1  0
 17 20  1  0
 18 19  1  0
 18 22  1  0
 18 23  1  0
  9 10  1  0
  9 11  1  0
 10 12  1  0
 11  5  1  6
 33 34  1  0
 33 35  1  0
 34 36  1  0
 35 37  1  0
 37 43  1  1
 20 21  2  0
 21 22  1  0
M  CHG  3   2  -1  26  -1  41  -1
M  END
>  <COMPND>  (503) 
    udp_gluA.pdb 

>  <AUTHOR>  (503) 
    GENERATED BY OPEN BABEL 3.1.1

>  <MASTER>  (503) 
        0    0    0    0    0    0    0    0   56    0   56    0

>  <minimizedAffinity>  (503) 
-8.49956

>  <CNNscore>  (503) 
0.8705987334

>  <CNNaffinity>  (503) 
4.7378683090

>  <CNN_VS>  (503) 
4.1247820854

>  <CNNaffinity_variance>  (503) 
0.0414162576

$$$$
504
     RDKit          3D

 43 45  0  0  0  0  0  0  0  0999 V2000
   21.0084   73.1524   -3.9989 P   0  0  2  0  0  0  0  0  0  0  0  0
   20.6923   73.9638   -2.6348 O   0  0  0  0  0  0  0  0  0  0  0  0
   21.6360   73.9685   -5.0906 O   0  0  0  0  0  0  0  0  0  0  0  0
   19.5984   72.4501   -4.3687 O   0  0  0  0  0  0  0  0  0  0  0  0
   19.1379   71.3878   -3.5539 C   0  0  0  0  0  0  0  0  0  0  0  0
   17.2658   71.6850   -5.0319 O   0  0  0  0  0  0  0  0  0  0  0  0
   15.7404   69.9129   -3.1547 O   0  0  0  0  0  0  0  0  0  0  0  0
   16.3812   68.2142   -5.1894 O   0  0  0  0  0  0  0  0  0  0  0  0
   17.1125   69.8483   -3.5441 C   0  0  1  0  0  0  0  0  0  0  0  0
   17.2320   69.3172   -4.9568 C   0  0  2  0  0  0  0  0  0  0  0  0
   17.6255   71.2739   -3.6952 C   0  0  1  0  0  0  0  0  0  0  0  0
   16.8522   70.5334   -5.7842 C   0  0  2  0  0  0  0  0  0  0  0  0
   15.3904   69.0136   -3.0519 H   0  0  0  0  0  0  0  0  0  0  0  0
   16.6644   67.4659   -4.6399 H   0  0  0  0  0  0  0  0  0  0  0  0
   15.5009   70.6059   -8.2632 O   0  0  0  0  0  0  0  0  0  0  0  0
   19.4576   70.6012  -10.6272 O   0  0  0  0  0  0  0  0  0  0  0  0
   17.5046   70.5518   -7.0628 N   0  0  0  0  0  0  0  0  0  0  0  0
   17.4728   70.6025   -9.4382 N   0  0  0  0  0  0  0  0  0  0  0  0
   16.7331   70.5881   -8.2484 C   0  0  0  0  0  0  0  0  0  0  0  0
   18.8923   70.5357   -7.1337 C   0  0  0  0  0  0  0  0  0  0  0  0
   19.5832   70.5499   -8.2752 C   0  0  0  0  0  0  0  0  0  0  0  0
   18.8529   70.5868   -9.5593 C   0  0  0  0  0  0  0  0  0  0  0  0
   16.9576   70.6256  -10.2769 H   0  0  0  0  0  0  0  0  0  0  0  0
   21.9078   71.9123   -3.4833 O   0  0  0  0  0  0  0  0  0  0  0  0
   23.2999   71.8800   -2.6618 P   0  0  2  0  0  0  0  0  0  0  0  0
   23.9266   73.3466   -2.9383 O   0  0  0  0  0  0  0  0  0  0  0  0
   24.2059   70.7408   -3.0299 O   0  0  0  0  0  0  0  0  0  0  0  0
   22.8602   71.9111   -1.1100 O   0  0  0  0  0  0  0  0  0  0  0  0
   22.5897   73.8687    0.1953 O   0  0  0  0  0  0  0  0  0  0  0  0
   23.4042   71.0348    3.0890 O   0  0  0  0  0  0  0  0  0  0  0  0
   24.8995   71.0610    0.5795 O   0  0  0  0  0  0  0  0  0  0  0  0
   20.6873   71.9989    2.7146 O   0  0  0  0  0  0  0  0  0  0  0  0
   22.8855   71.5217    1.8513 C   0  0  2  0  0  0  0  0  0  0  0  0
   24.0249   72.0975    1.0100 C   0  0  2  0  0  0  0  0  0  0  0  0
   21.8543   72.6079    2.1653 C   0  0  1  0  0  0  0  0  0  0  0  0
   23.4822   72.8326   -0.2163 C   0  0  1  0  0  0  0  0  0  0  0  0
   21.4571   73.3787    0.9096 C   0  0  1  0  0  0  0  0  0  0  0  0
   24.0619   70.3432    2.9145 H   0  0  0  0  0  0  0  0  0  0  0  0
   25.2475   70.5901    1.3525 H   0  0  0  0  0  0  0  0  0  0  0  0
   20.9264   71.5049    3.5144 H   0  0  0  0  0  0  0  0  0  0  0  0
   19.3923   74.3786    1.3975 O   0  0  0  0  0  0  0  0  0  0  0  0
   21.2316   75.7260    1.4201 O   0  0  0  0  0  0  0  0  0  0  0  0
   20.7187   74.6279    1.2653 C   0  0  0  0  0  0  0  0  0  0  0  0
  1  4  1  0
  1 24  1  0
  1  2  1  1
  1  3  2  0
 25 28  1  0
 25 24  1  0
 25 26  1  6
 25 27  2  0
  6 11  1  0
  6 12  1  0
 29 36  1  0
 29 37  1  0
  9  7  1  6
  7 13  1  0
 10  8  1  1
  8 14  1  0
  4  5  1  0
 36 28  1  6
 33 30  1  1
 30 38  1  0
 34 31  1  6
 31 39  1  0
 35 32  1  6
 32 40  1  0
 41 43  1  0
 15 19  2  0
 42 43  2  0
 16 22  2  0
 12 17  1  6
 17 19  1  0
 17 20  1  0
 18 19  1  0
 18 22  1  0
 18 23  1  0
  9 10  1  0
  9 11  1  0
 10 12  1  0
 11  5  1  6
 33 34  1  0
 33 35  1  0
 34 36  1  0
 35 37  1  0
 37 43  1  1
 20 21  2  0
 21 22  1  0
M  CHG  3   2  -1  26  -1  41  -1
M  END
>  <COMPND>  (504) 
    udp_gluA.pdb 

>  <AUTHOR>  (504) 
    GENERATED BY OPEN BABEL 3.1.1

>  <MASTER>  (504) 
        0    0    0    0    0    0    0    0   56    0   56    0

>  <minimizedAffinity>  (504) 
-7.57546

>  <CNNscore>  (504) 
0.8642716408

>  <CNNaffinity>  (504) 
4.7004003525

>  <CNN_VS>  (504) 
4.0624227524

>  <CNNaffinity_variance>  (504) 
0.0783194453

$$$$
505
     RDKit          3D

 43 45  0  0  0  0  0  0  0  0999 V2000
   21.9238   73.2143   -5.4884 P   0  0  2  0  0  0  0  0  0  0  0  0
   21.7554   74.7501   -5.9698 O   0  0  0  0  0  0  0  0  0  0  0  0
   22.8084   72.3708   -6.3588 O   0  0  0  0  0  0  0  0  0  0  0  0
   20.4021   72.6917   -5.3173 O   0  0  0  0  0  0  0  0  0  0  0  0
   20.0345   72.0667   -4.1012 C   0  0  0  0  0  0  0  0  0  0  0  0
   17.9893   72.1627   -5.3604 O   0  0  0  0  0  0  0  0  0  0  0  0
   16.7044   70.7907   -3.0242 O   0  0  0  0  0  0  0  0  0  0  0  0
   17.0608   68.7465   -4.7934 O   0  0  0  0  0  0  0  0  0  0  0  0
   18.0138   70.6167   -3.5660 C   0  0  1  0  0  0  0  0  0  0  0  0
   17.9444   69.8458   -4.8672 C   0  0  2  0  0  0  0  0  0  0  0  0
   18.5156   71.9778   -4.0284 C   0  0  1  0  0  0  0  0  0  0  0  0
   17.4713   70.9120   -5.8406 C   0  0  2  0  0  0  0  0  0  0  0  0
   16.3627   69.9343   -2.7218 H   0  0  0  0  0  0  0  0  0  0  0  0
   17.4061   68.0960   -4.1613 H   0  0  0  0  0  0  0  0  0  0  0  0
   15.8121   70.6375   -8.1095 O   0  0  0  0  0  0  0  0  0  0  0  0
   19.4272   70.0574  -10.9093 O   0  0  0  0  0  0  0  0  0  0  0  0
   17.9526   70.6885   -7.1745 N   0  0  0  0  0  0  0  0  0  0  0  0
   17.6142   70.3478   -9.5016 N   0  0  0  0  0  0  0  0  0  0  0  0
   17.0350   70.5647   -8.2444 C   0  0  0  0  0  0  0  0  0  0  0  0
   19.3185   70.5960   -7.4126 C   0  0  0  0  0  0  0  0  0  0  0  0
   19.8556   70.3891   -8.6166 C   0  0  0  0  0  0  0  0  0  0  0  0
   18.9661   70.2478   -9.7880 C   0  0  0  0  0  0  0  0  0  0  0  0
   16.9952   70.2563  -10.2618 H   0  0  0  0  0  0  0  0  0  0  0  0
   22.4297   73.3663   -3.9607 O   0  0  0  0  0  0  0  0  0  0  0  0
   23.7765   72.8477   -3.2320 P   0  0  2  0  0  0  0  0  0  0  0  0
   24.9357   73.7504   -3.9114 O   0  0  0  0  0  0  0  0  0  0  0  0
   24.0033   71.3674   -3.3385 O   0  0  0  0  0  0  0  0  0  0  0  0
   23.6630   73.4006   -1.7208 O   0  0  0  0  0  0  0  0  0  0  0  0
   21.7786   72.7490   -0.4427 O   0  0  0  0  0  0  0  0  0  0  0  0
   23.2740   75.8796    1.8003 O   0  0  0  0  0  0  0  0  0  0  0  0
   23.1589   76.0675   -1.1127 O   0  0  0  0  0  0  0  0  0  0  0  0
   23.6810   73.1360    2.6708 O   0  0  0  0  0  0  0  0  0  0  0  0
   23.3427   74.7572    0.9209 C   0  0  2  0  0  0  0  0  0  0  0  0
   22.5331   75.0473   -0.3432 C   0  0  2  0  0  0  0  0  0  0  0  0
   22.7663   73.5448    1.6556 C   0  0  1  0  0  0  0  0  0  0  0  0
   22.3923   73.7905   -1.2031 C   0  0  1  0  0  0  0  0  0  0  0  0
   22.5380   72.3737    0.7043 C   0  0  1  0  0  0  0  0  0  0  0  0
   23.6349   76.6623    1.3548 H   0  0  0  0  0  0  0  0  0  0  0  0
   23.2517   76.8679   -0.5732 H   0  0  0  0  0  0  0  0  0  0  0  0
   23.8350   73.8725    3.2829 H   0  0  0  0  0  0  0  0  0  0  0  0
   20.9640   71.8579    2.3650 O   0  0  0  0  0  0  0  0  0  0  0  0
   21.6330   70.1570    1.0018 O   0  0  0  0  0  0  0  0  0  0  0  0
   21.6839   71.3286    1.3449 C   0  0  0  0  0  0  0  0  0  0  0  0
  1  4  1  0
  1 24  1  0
  1  2  1  6
  1  3  2  0
 25 28  1  0
 25 24  1  0
 25 26  1  6
 25 27  2  0
  6 11  1  0
  6 12  1  0
 29 36  1  0
 29 37  1  0
  9  7  1  6
  7 13  1  0
 10  8  1  1
  8 14  1  0
  4  5  1  0
 36 28  1  1
 33 30  1  1
 30 38  1  0
 34 31  1  6
 31 39  1  0
 35 32  1  1
 32 40  1  0
 41 43  1  0
 15 19  2  0
 42 43  2  0
 16 22  2  0
 12 17  1  6
 17 19  1  0
 17 20  1  0
 18 19  1  0
 18 22  1  0
 18 23  1  0
  9 10  1  0
  9 11  1  0
 10 12  1  0
 11  5  1  6
 33 34  1  0
 33 35  1  0
 34 36  1  0
 35 37  1  0
 37 43  1  1
 20 21  2  0
 21 22  1  0
M  CHG  3   2  -1  26  -1  41  -1
M  END
>  <COMPND>  (505) 
    udp_gluA.pdb 

>  <AUTHOR>  (505) 
    GENERATED BY OPEN BABEL 3.1.1

>  <MASTER>  (505) 
        0    0    0    0    0    0    0    0   56    0   56    0

>  <minimizedAffinity>  (505) 
-7.89515

>  <CNNscore>  (505) 
0.8515703678

>  <CNNaffinity>  (505) 
4.6022124290

>  <CNN_VS>  (505) 
3.9191076756

>  <CNNaffinity_variance>  (505) 
0.0611373186

$$$$
506
     RDKit          3D

 43 45  0  0  0  0  0  0  0  0999 V2000
   20.4638   71.2782   -1.4223 P   0  0  2  0  0  0  0  0  0  0  0  0
   21.0607   70.5744   -0.0929 O   0  0  0  0  0  0  0  0  0  0  0  0
   19.8980   72.6521   -1.2121 O   0  0  0  0  0  0  0  0  0  0  0  0
   19.4363   70.1784   -2.0162 O   0  0  0  0  0  0  0  0  0  0  0  0
   19.1159   70.2273   -3.3944 C   0  0  0  0  0  0  0  0  0  0  0  0
   17.4913   71.3202   -4.7885 O   0  0  0  0  0  0  0  0  0  0  0  0
   15.4194   69.7855   -3.2576 O   0  0  0  0  0  0  0  0  0  0  0  0
   15.6361   68.3527   -5.5676 O   0  0  0  0  0  0  0  0  0  0  0  0
   16.7301   69.3837   -3.6565 C   0  0  1  0  0  0  0  0  0  0  0  0
   16.7602   69.0944   -5.1423 C   0  0  2  0  0  0  0  0  0  0  0  0
   17.6459   70.5953   -3.5492 C   0  0  1  0  0  0  0  0  0  0  0  0
   16.7966   70.4927   -5.7352 C   0  0  2  0  0  0  0  0  0  0  0  0
   14.8162   69.0277   -3.3179 H   0  0  0  0  0  0  0  0  0  0  0  0
   15.6589   67.4707   -5.1633 H   0  0  0  0  0  0  0  0  0  0  0  0
   15.5257   70.5818   -8.2558 O   0  0  0  0  0  0  0  0  0  0  0  0
   19.5568   70.6616  -10.4892 O   0  0  0  0  0  0  0  0  0  0  0  0
   17.4899   70.5373   -6.9914 N   0  0  0  0  0  0  0  0  0  0  0  0
   17.5346   70.6204   -9.3658 N   0  0  0  0  0  0  0  0  0  0  0  0
   16.7569   70.5799   -8.2010 C   0  0  0  0  0  0  0  0  0  0  0  0
   18.8793   70.5404   -7.0172 C   0  0  0  0  0  0  0  0  0  0  0  0
   19.6066   70.5794   -8.1353 C   0  0  0  0  0  0  0  0  0  0  0  0
   18.9180   70.6245   -9.4419 C   0  0  0  0  0  0  0  0  0  0  0  0
   17.0466   70.6484  -10.2204 H   0  0  0  0  0  0  0  0  0  0  0  0
   21.7046   71.2120   -2.4562 O   0  0  0  0  0  0  0  0  0  0  0  0
   22.8972   72.2626   -2.7518 P   0  0  2  0  0  0  0  0  0  0  0  0
   24.0254   71.3495   -3.4684 O   0  0  0  0  0  0  0  0  0  0  0  0
   23.3801   73.0033   -1.5384 O   0  0  0  0  0  0  0  0  0  0  0  0
   22.3285   73.2065   -3.9300 O   0  0  0  0  0  0  0  0  0  0  0  0
   20.1069   73.2488   -4.7497 O   0  0  0  0  0  0  0  0  0  0  0  0
   22.2431   74.5359   -8.0434 O   0  0  0  0  0  0  0  0  0  0  0  0
   23.2312   72.3254   -6.4088 O   0  0  0  0  0  0  0  0  0  0  0  0
   20.7310   76.4398   -6.4498 O   0  0  0  0  0  0  0  0  0  0  0  0
   21.9619   74.3786   -6.6527 C   0  0  2  0  0  0  0  0  0  0  0  0
   21.9298   72.8908   -6.3021 C   0  0  2  0  0  0  0  0  0  0  0  0
   20.6024   75.0216   -6.3694 C   0  0  1  0  0  0  0  0  0  0  0  0
   21.4079   72.6747   -4.8810 C   0  0  1  0  0  0  0  0  0  0  0  0
   20.0923   74.6562   -4.9784 C   0  0  1  0  0  0  0  0  0  0  0  0
   23.1026   74.1347   -8.2471 H   0  0  0  0  0  0  0  0  0  0  0  0
   23.5687   72.4592   -7.3081 H   0  0  0  0  0  0  0  0  0  0  0  0
   21.0551   76.6857   -7.3303 H   0  0  0  0  0  0  0  0  0  0  0  0
   18.2549   74.8999   -3.5411 O   0  0  0  0  0  0  0  0  0  0  0  0
   17.9117   75.3402   -5.7518 O   0  0  0  0  0  0  0  0  0  0  0  0
   18.6465   75.0043   -4.8352 C   0  0  0  0  0  0  0  0  0  0  0  0
  1  4  1  0
  1 24  1  0
  1  2  1  1
  1  3  2  0
 25 28  1  0
 25 24  1  0
 25 26  1  6
 25 27  2  0
  6 11  1  0
  6 12  1  0
 29 36  1  0
 29 37  1  0
  9  7  1  6
  7 13  1  0
 10  8  1  6
  8 14  1  0
  4  5  1  0
 36 28  1  1
 33 30  1  6
 30 38  1  0
 34 31  1  1
 31 39  1  0
 35 32  1  1
 32 40  1  0
 41 43  1  0
 15 19  2  0
 42 43  2  0
 16 22  2  0
 12 17  1  6
 17 19  1  0
 17 20  1  0
 18 19  1  0
 18 22  1  0
 18 23  1  0
  9 10  1  0
  9 11  1  0
 10 12  1  0
 11  5  1  6
 33 34  1  0
 33 35  1  0
 34 36  1  0
 35 37  1  0
 37 43  1  6
 20 21  2  0
 21 22  1  0
M  CHG  3   2  -1  26  -1  41  -1
M  END
>  <COMPND>  (506) 
    udp_gluA.pdb 

>  <AUTHOR>  (506) 
    GENERATED BY OPEN BABEL 3.1.1

>  <MASTER>  (506) 
        0    0    0    0    0    0    0    0   56    0   56    0

>  <minimizedAffinity>  (506) 
-7.78219

>  <CNNscore>  (506) 
0.8495110273

>  <CNNaffinity>  (506) 
4.6238451004

>  <CNN_VS>  (506) 
3.9280073643

>  <CNNaffinity_variance>  (506) 
0.9658439755

$$$$
507
     RDKit          3D

 43 45  0  0  0  0  0  0  0  0999 V2000
   22.0801   73.1737   -6.5729 P   0  0  2  0  0  0  0  0  0  0  0  0
   23.1643   72.2805   -5.7694 O   0  0  0  0  0  0  0  0  0  0  0  0
   21.2509   74.0853   -5.7166 O   0  0  0  0  0  0  0  0  0  0  0  0
   21.2566   72.0904   -7.4483 O   0  0  0  0  0  0  0  0  0  0  0  0
   19.8435   72.1745   -7.4728 C   0  0  0  0  0  0  0  0  0  0  0  0
   18.7275   70.1040   -6.9774 O   0  0  0  0  0  0  0  0  0  0  0  0
   18.0530   69.9843   -9.8967 O   0  0  0  0  0  0  0  0  0  0  0  0
   15.7280   70.8745   -8.7839 O   0  0  0  0  0  0  0  0  0  0  0  0
   18.1343   71.1189   -9.0338 C   0  0  1  0  0  0  0  0  0  0  0  0
   16.9355   71.1619   -8.1101 C   0  0  2  0  0  0  0  0  0  0  0  0
   19.2799   70.8861   -8.0584 C   0  0  1  0  0  0  0  0  0  0  0  0
   17.2946   70.1066   -7.0780 C   0  0  2  0  0  0  0  0  0  0  0  0
   17.3278   70.1099  -10.5291 H   0  0  0  0  0  0  0  0  0  0  0  0
   15.5434   71.5753   -9.4296 H   0  0  0  0  0  0  0  0  0  0  0  0
   16.7074   68.1494   -5.1284 O   0  0  0  0  0  0  0  0  0  0  0  0
   15.1548   71.3126   -2.1572 O   0  0  0  0  0  0  0  0  0  0  0  0
   16.7364   70.3910   -5.7864 N   0  0  0  0  0  0  0  0  0  0  0  0
   15.9337   69.7266   -3.6508 N   0  0  0  0  0  0  0  0  0  0  0  0
   16.4791   69.3349   -4.8805 C   0  0  0  0  0  0  0  0  0  0  0  0
   16.4514   71.7028   -5.4275 C   0  0  0  0  0  0  0  0  0  0  0  0
   15.9319   72.0607   -4.2516 C   0  0  0  0  0  0  0  0  0  0  0  0
   15.6325   71.0177   -3.2486 C   0  0  0  0  0  0  0  0  0  0  0  0
   15.7441   69.0086   -3.0044 H   0  0  0  0  0  0  0  0  0  0  0  0
   22.9817   73.9277   -7.6825 O   0  0  0  0  0  0  0  0  0  0  0  0
   23.2765   75.4993   -7.9213 P   0  0  2  0  0  0  0  0  0  0  0  0
   24.3778   75.8456   -6.7865 O   0  0  0  0  0  0  0  0  0  0  0  0
   22.0529   76.3683   -7.8812 O   0  0  0  0  0  0  0  0  0  0  0  0
   24.0927   75.5560   -9.3116 O   0  0  0  0  0  0  0  0  0  0  0  0
   24.7498   73.7298  -10.6689 O   0  0  0  0  0  0  0  0  0  0  0  0
   27.6783   76.5138  -11.5300 O   0  0  0  0  0  0  0  0  0  0  0  0
   26.7625   76.1293   -8.7826 O   0  0  0  0  0  0  0  0  0  0  0  0
   25.5480   75.9986  -13.4398 O   0  0  0  0  0  0  0  0  0  0  0  0
   26.3699   76.0658  -11.1759 C   0  0  2  0  0  0  0  0  0  0  0  0
   26.4364   75.2724   -9.8707 C   0  0  2  0  0  0  0  0  0  0  0  0
   25.8499   75.1807  -12.3109 C   0  0  1  0  0  0  0  0  0  0  0  0
   25.1019   74.5843   -9.5802 C   0  0  1  0  0  0  0  0  0  0  0  0
   24.5857   74.4320  -11.8990 C   0  0  1  0  0  0  0  0  0  0  0  0
   28.0292   77.0783  -10.8232 H   0  0  0  0  0  0  0  0  0  0  0  0
   27.6081   76.5695   -8.9604 H   0  0  0  0  0  0  0  0  0  0  0  0
   26.3444   76.4808  -13.7120 H   0  0  0  0  0  0  0  0  0  0  0  0
   23.8188   73.8536  -14.0388 O   0  0  0  0  0  0  0  0  0  0  0  0
   24.4147   72.1457  -12.6506 O   0  0  0  0  0  0  0  0  0  0  0  0
   24.2759   73.3397  -12.8701 C   0  0  0  0  0  0  0  0  0  0  0  0
  1  4  1  0
  1 24  1  0
  1  2  1  1
  1  3  2  0
 25 28  1  0
 25 24  1  0
 25 26  1  1
 25 27  2  0
  6 11  1  0
  6 12  1  0
 29 36  1  0
 29 37  1  0
  9  7  1  6
  7 13  1  0
 10  8  1  6
  8 14  1  0
  4  5  1  0
 36 28  1  6
 33 30  1  6
 30 38  1  0
 34 31  1  1
 31 39  1  0
 35 32  1  6
 32 40  1  0
 41 43  1  0
 15 19  2  0
 42 43  2  0
 16 22  2  0
 12 17  1  1
 17 19  1  0
 17 20  1  0
 18 19  1  0
 18 22  1  0
 18 23  1  0
  9 10  1  0
  9 11  1  0
 10 12  1  0
 11  5  1  1
 33 34  1  0
 33 35  1  0
 34 36  1  0
 35 37  1  0
 37 43  1  6
 20 21  2  0
 21 22  1  0
M  CHG  3   2  -1  26  -1  41  -1
M  END
>  <COMPND>  (507) 
    udp_gluA.pdb 

>  <AUTHOR>  (507) 
    GENERATED BY OPEN BABEL 3.1.1

>  <MASTER>  (507) 
        0    0    0    0    0    0    0    0   56    0   56    0

>  <minimizedAffinity>  (507) 
-7.61504

>  <CNNscore>  (507) 
0.8352346420

>  <CNNaffinity>  (507) 
4.7849497795

>  <CNN_VS>  (507) 
3.9965558052

>  <CNNaffinity_variance>  (507) 
0.3301908672

$$$$
508
     RDKit          3D

 43 45  0  0  0  0  0  0  0  0999 V2000
   21.5818   71.3092   -1.8378 P   0  0  2  0  0  0  0  0  0  0  0  0
   21.0503   72.8014   -1.5068 O   0  0  0  0  0  0  0  0  0  0  0  0
   22.6823   71.2399   -2.8556 O   0  0  0  0  0  0  0  0  0  0  0  0
   20.2354   70.4890   -2.2019 O   0  0  0  0  0  0  0  0  0  0  0  0
   19.7643   70.5212   -3.5367 C   0  0  0  0  0  0  0  0  0  0  0  0
   18.0503   71.6406   -4.7963 O   0  0  0  0  0  0  0  0  0  0  0  0
   16.0927   70.3440   -2.9315 O   0  0  0  0  0  0  0  0  0  0  0  0
   15.9347   68.7680   -5.1512 O   0  0  0  0  0  0  0  0  0  0  0  0
   17.3171   69.8303   -3.4563 C   0  0  1  0  0  0  0  0  0  0  0  0
   17.1460   69.4538   -4.9128 C   0  0  2  0  0  0  0  0  0  0  0  0
   18.3118   70.9801   -3.5391 C   0  0  1  0  0  0  0  0  0  0  0  0
   17.1949   70.8094   -5.5967 C   0  0  2  0  0  0  0  0  0  0  0  0
   15.4413   69.6274   -2.8692 H   0  0  0  0  0  0  0  0  0  0  0  0
   15.9530   67.9114   -4.6951 H   0  0  0  0  0  0  0  0  0  0  0  0
   15.6568   70.2813   -7.9058 O   0  0  0  0  0  0  0  0  0  0  0  0
   19.3519   70.5399  -10.6487 O   0  0  0  0  0  0  0  0  0  0  0  0
   17.7295   70.7332   -6.9269 N   0  0  0  0  0  0  0  0  0  0  0  0
   17.4988   70.4096   -9.2696 N   0  0  0  0  0  0  0  0  0  0  0  0
   16.8707   70.4622   -8.0183 C   0  0  0  0  0  0  0  0  0  0  0  0
   19.0888   70.9272   -7.1402 C   0  0  0  0  0  0  0  0  0  0  0  0
   19.6729   70.8741   -8.3389 C   0  0  0  0  0  0  0  0  0  0  0  0
   18.8465   70.5951   -9.5316 C   0  0  0  0  0  0  0  0  0  0  0  0
   16.9216   70.2204  -10.0444 H   0  0  0  0  0  0  0  0  0  0  0  0
   21.9755   70.7325   -0.3800 O   0  0  0  0  0  0  0  0  0  0  0  0
   22.9900   71.2958    0.7457 P   0  0  2  0  0  0  0  0  0  0  0  0
   23.8784   72.3788   -0.0656 O   0  0  0  0  0  0  0  0  0  0  0  0
   23.7921   70.2329    1.4390 O   0  0  0  0  0  0  0  0  0  0  0  0
   22.0634   72.1813    1.7254 O   0  0  0  0  0  0  0  0  0  0  0  0
   21.0805   74.3271    1.9214 O   0  0  0  0  0  0  0  0  0  0  0  0
   23.1491   74.0213    5.4845 O   0  0  0  0  0  0  0  0  0  0  0  0
   24.3608   73.1134    2.9861 O   0  0  0  0  0  0  0  0  0  0  0  0
   20.2606   73.6964    5.4416 O   0  0  0  0  0  0  0  0  0  0  0  0
   22.4089   73.5415    4.3620 C   0  0  2  0  0  0  0  0  0  0  0  0
   23.1612   73.8737    3.0732 C   0  0  2  0  0  0  0  0  0  0  0  0
   21.0400   74.2256    4.3708 C   0  0  1  0  0  0  0  0  0  0  0  0
   22.2973   73.5833    1.8451 C   0  0  1  0  0  0  0  0  0  0  0  0
   20.2922   73.9921    3.0613 C   0  0  1  0  0  0  0  0  0  0  0  0
   24.0230   73.6003    5.4997 H   0  0  0  0  0  0  0  0  0  0  0  0
   24.9137   73.2926    3.7624 H   0  0  0  0  0  0  0  0  0  0  0  0
   20.7255   73.8384    6.2810 H   0  0  0  0  0  0  0  0  0  0  0  0
   19.4710   76.0435    2.2744 O   0  0  0  0  0  0  0  0  0  0  0  0
   18.0075   74.6955    3.3882 O   0  0  0  0  0  0  0  0  0  0  0  0
   19.1245   74.9169    2.9451 C   0  0  0  0  0  0  0  0  0  0  0  0
  1  4  1  0
  1 24  1  0
  1  2  1  1
  1  3  2  0
 25 28  1  0
 25 24  1  0
 25 26  1  6
 25 27  2  0
  6 11  1  0
  6 12  1  0
 29 36  1  0
 29 37  1  0
  9  7  1  6
  7 13  1  0
 10  8  1  1
  8 14  1  0
  4  5  1  0
 36 28  1  1
 33 30  1  1
 30 38  1  0
 34 31  1  6
 31 39  1  0
 35 32  1  1
 32 40  1  0
 41 43  1  0
 15 19  2  0
 42 43  2  0
 16 22  2  0
 12 17  1  6
 17 19  1  0
 17 20  1  0
 18 19  1  0
 18 22  1  0
 18 23  1  0
  9 10  1  0
  9 11  1  0
 10 12  1  0
 11  5  1  6
 33 34  1  0
 33 35  1  0
 34 36  1  0
 35 37  1  0
 37 43  1  1
 20 21  2  0
 21 22  1  0
M  CHG  3   2  -1  26  -1  41  -1
M  END
>  <COMPND>  (508) 
    udp_gluA.pdb 

>  <AUTHOR>  (508) 
    GENERATED BY OPEN BABEL 3.1.1

>  <MASTER>  (508) 
        0    0    0    0    0    0    0    0   56    0   56    0

>  <minimizedAffinity>  (508) 
-7.15895

>  <CNNscore>  (508) 
0.8302015066

>  <CNNaffinity>  (508) 
4.5325288773

>  <CNN_VS>  (508) 
3.7629122734

>  <CNNaffinity_variance>  (508) 
0.0729225725

$$$$
509
     RDKit          3D

 43 45  0  0  0  0  0  0  0  0999 V2000
   23.1158   71.9906   -3.5291 P   0  0  2  0  0  0  0  0  0  0  0  0
   23.8929   72.6947   -4.7617 O   0  0  0  0  0  0  0  0  0  0  0  0
   23.8973   70.9303   -2.8102 O   0  0  0  0  0  0  0  0  0  0  0  0
   21.7128   71.5115   -4.1771 O   0  0  0  0  0  0  0  0  0  0  0  0
   21.0271   70.4269   -3.5788 C   0  0  0  0  0  0  0  0  0  0  0  0
   19.0593   71.4995   -4.4477 O   0  0  0  0  0  0  0  0  0  0  0  0
   17.5719   70.1677   -2.2104 O   0  0  0  0  0  0  0  0  0  0  0  0
   16.9856   68.5766   -4.3460 O   0  0  0  0  0  0  0  0  0  0  0  0
   18.6695   69.6798   -2.9823 C   0  0  1  0  0  0  0  0  0  0  0  0
   18.2032   69.2917   -4.3695 C   0  0  2  0  0  0  0  0  0  0  0  0
   19.5964   70.8519   -3.2741 C   0  0  1  0  0  0  0  0  0  0  0  0
   18.0740   70.6444   -5.0487 C   0  0  2  0  0  0  0  0  0  0  0  0
   16.9656   69.4366   -2.0116 H   0  0  0  0  0  0  0  0  0  0  0  0
   17.1203   67.7232   -3.9039 H   0  0  0  0  0  0  0  0  0  0  0  0
   16.1271   69.9349   -6.9678 O   0  0  0  0  0  0  0  0  0  0  0  0
   19.1178   70.4049  -10.4432 O   0  0  0  0  0  0  0  0  0  0  0  0
   18.3168   70.5735   -6.4618 N   0  0  0  0  0  0  0  0  0  0  0  0
   17.6188   70.1687   -8.6968 N   0  0  0  0  0  0  0  0  0  0  0  0
   17.2700   70.2066   -7.3403 C   0  0  0  0  0  0  0  0  0  0  0  0
   19.5787   70.8668   -6.9643 C   0  0  0  0  0  0  0  0  0  0  0  0
   19.8959   70.8265   -8.2599 C   0  0  0  0  0  0  0  0  0  0  0  0
   18.8597   70.4513   -9.2443 C   0  0  0  0  0  0  0  0  0  0  0  0
   16.9070   69.9138   -9.3276 H   0  0  0  0  0  0  0  0  0  0  0  0
   22.6811   73.2467   -2.6092 O   0  0  0  0  0  0  0  0  0  0  0  0
   23.5446   74.4796   -2.0194 P   0  0  2  0  0  0  0  0  0  0  0  0
   22.4685   75.6871   -1.9540 O   0  0  0  0  0  0  0  0  0  0  0  0
   24.7827   74.7967   -2.8072 O   0  0  0  0  0  0  0  0  0  0  0  0
   23.8138   74.0901   -0.4773 O   0  0  0  0  0  0  0  0  0  0  0  0
   23.7807   71.9975    0.6315 O   0  0  0  0  0  0  0  0  0  0  0  0
   22.3723   74.5311    3.5752 O   0  0  0  0  0  0  0  0  0  0  0  0
   21.4603   74.8169    0.8146 O   0  0  0  0  0  0  0  0  0  0  0  0
   25.0993   73.5309    3.6929 O   0  0  0  0  0  0  0  0  0  0  0  0
   23.1454   74.1631    2.4329 C   0  0  2  0  0  0  0  0  0  0  0  0
   22.2134   73.7146    1.3070 C   0  0  2  0  0  0  0  0  0  0  0  0
   24.0765   73.0191    2.8406 C   0  0  1  0  0  0  0  0  0  0  0  0
   23.0061   73.0980    0.1536 C   0  0  1  0  0  0  0  0  0  0  0  0
   24.7332   72.3745    1.6233 C   0  0  1  0  0  0  0  0  0  0  0  0
   21.7729   75.2568    3.3400 H   0  0  0  0  0  0  0  0  0  0  0  0
   20.9551   75.2132    1.5413 H   0  0  0  0  0  0  0  0  0  0  0  0
   24.6946   73.9441    4.4716 H   0  0  0  0  0  0  0  0  0  0  0  0
   24.5291   70.0403    1.7296 O   0  0  0  0  0  0  0  0  0  0  0  0
   26.4899   70.9472    2.4588 O   0  0  0  0  0  0  0  0  0  0  0  0
   25.3685   71.0730    1.9903 C   0  0  0  0  0  0  0  0  0  0  0  0
  1  4  1  0
  1 24  1  0
  1  2  1  6
  1  3  2  0
 25 28  1  0
 25 24  1  0
 25 26  1  1
 25 27  2  0
  6 11  1  0
  6 12  1  0
 29 36  1  0
 29 37  1  0
  9  7  1  1
  7 13  1  0
 10  8  1  1
  8 14  1  0
  4  5  1  0
 36 28  1  1
 33 30  1  1
 30 38  1  0
 34 31  1  6
 31 39  1  0
 35 32  1  1
 32 40  1  0
 41 43  1  0
 15 19  2  0
 42 43  2  0
 16 22  2  0
 12 17  1  6
 17 19  1  0
 17 20  1  0
 18 19  1  0
 18 22  1  0
 18 23  1  0
  9 10  1  0
  9 11  1  0
 10 12  1  0
 11  5  1  6
 33 34  1  0
 33 35  1  0
 34 36  1  0
 35 37  1  0
 37 43  1  1
 20 21  2  0
 21 22  1  0
M  CHG  3   2  -1  26  -1  41  -1
M  END
>  <COMPND>  (509) 
    udp_gluA.pdb 

>  <AUTHOR>  (509) 
    GENERATED BY OPEN BABEL 3.1.1

>  <MASTER>  (509) 
        0    0    0    0    0    0    0    0   56    0   56    0

>  <minimizedAffinity>  (509) 
-7.60406

>  <CNNscore>  (509) 
0.8204665780

>  <CNNaffinity>  (509) 
4.6003737450

>  <CNN_VS>  (509) 
3.7744529247

>  <CNNaffinity_variance>  (509) 
0.0300323218

$$$$
510
     RDKit          3D

 43 45  0  0  0  0  0  0  0  0999 V2000
   22.9554   71.5289   -2.1444 P   0  0  2  0  0  0  0  0  0  0  0  0
   22.3914   73.0128   -1.8297 O   0  0  0  0  0  0  0  0  0  0  0  0
   23.9279   71.4494   -3.2843 O   0  0  0  0  0  0  0  0  0  0  0  0
   21.6189   70.6297   -2.2969 O   0  0  0  0  0  0  0  0  0  0  0  0
   20.9229   70.6566   -3.5295 C   0  0  0  0  0  0  0  0  0  0  0  0
   18.9285   71.6165   -4.4670 O   0  0  0  0  0  0  0  0  0  0  0  0
   17.4499   70.2508   -2.2443 O   0  0  0  0  0  0  0  0  0  0  0  0
   16.9977   68.5972   -4.3649 O   0  0  0  0  0  0  0  0  0  0  0  0
   18.5897   69.8046   -2.9793 C   0  0  1  0  0  0  0  0  0  0  0  0
   18.1793   69.3708   -4.3706 C   0  0  2  0  0  0  0  0  0  0  0  0
   19.4658   71.0158   -3.2687 C   0  0  1  0  0  0  0  0  0  0  0  0
   18.0020   70.7040   -5.0771 C   0  0  2  0  0  0  0  0  0  0  0  0
   16.8751   69.4942   -2.0476 H   0  0  0  0  0  0  0  0  0  0  0  0
   17.1623   67.7590   -3.9042 H   0  0  0  0  0  0  0  0  0  0  0  0
   16.1345   69.8936   -7.0348 O   0  0  0  0  0  0  0  0  0  0  0  0
   19.1970   70.4244  -10.4382 O   0  0  0  0  0  0  0  0  0  0  0  0
   18.2848   70.6214   -6.4821 N   0  0  0  0  0  0  0  0  0  0  0  0
   17.6619   70.1578   -8.7279 N   0  0  0  0  0  0  0  0  0  0  0  0
   17.2761   70.2025   -7.3817 C   0  0  0  0  0  0  0  0  0  0  0  0
   19.5478   70.9545   -6.9562 C   0  0  0  0  0  0  0  0  0  0  0  0
   19.9006   70.9069   -8.2423 C   0  0  0  0  0  0  0  0  0  0  0  0
   18.9056   70.4787   -9.2473 C   0  0  0  0  0  0  0  0  0  0  0  0
   16.9772   69.8671   -9.3728 H   0  0  0  0  0  0  0  0  0  0  0  0
   23.5502   71.0566   -0.7175 O   0  0  0  0  0  0  0  0  0  0  0  0
   22.8598   70.9612    0.7412 P   0  0  2  0  0  0  0  0  0  0  0  0
   24.0389   70.3542    1.6695 O   0  0  0  0  0  0  0  0  0  0  0  0
   21.5833   70.1716    0.7678 O   0  0  0  0  0  0  0  0  0  0  0  0
   22.7096   72.4932    1.2239 O   0  0  0  0  0  0  0  0  0  0  0  0
   21.9755   72.8716    3.4436 O   0  0  0  0  0  0  0  0  0  0  0  0
   21.5293   76.6180    1.7604 O   0  0  0  0  0  0  0  0  0  0  0  0
   20.7508   74.2254    0.2760 O   0  0  0  0  0  0  0  0  0  0  0  0
   23.7558   76.0781    3.5499 O   0  0  0  0  0  0  0  0  0  0  0  0
   22.1244   75.3330    1.9411 C   0  0  2  0  0  0  0  0  0  0  0  0
   21.0882   74.2449    1.6581 C   0  0  2  0  0  0  0  0  0  0  0  0
   22.6145   75.2380    3.3876 C   0  0  1  0  0  0  0  0  0  0  0  0
   21.6172   72.8677    2.0612 C   0  0  1  0  0  0  0  0  0  0  0  0
   23.0057   73.8083    3.7505 C   0  0  1  0  0  0  0  0  0  0  0  0
   21.2102   76.7014    0.8480 H   0  0  0  0  0  0  0  0  0  0  0  0
   20.4147   75.0963    0.0133 H   0  0  0  0  0  0  0  0  0  0  0  0
   23.5203   76.9910    3.3219 H   0  0  0  0  0  0  0  0  0  0  0  0
   24.2576   74.3346    5.6629 O   0  0  0  0  0  0  0  0  0  0  0  0
   22.4144   73.0244    5.9544 O   0  0  0  0  0  0  0  0  0  0  0  0
   23.1639   73.6607    5.2288 C   0  0  0  0  0  0  0  0  0  0  0  0
  1  4  1  0
  1 24  1  0
  1  2  1  1
  1  3  2  0
 25 28  1  0
 25 24  1  0
 25 26  1  1
 25 27  2  0
  6 11  1  0
  6 12  1  0
 29 36  1  0
 29 37  1  0
  9  7  1  1
  7 13  1  0
 10  8  1  1
  8 14  1  0
  4  5  1  0
 36 28  1  6
 33 30  1  1
 30 38  1  0
 34 31  1  6
 31 39  1  0
 35 32  1  6
 32 40  1  0
 41 43  1  0
 15 19  2  0
 42 43  2  0
 16 22  2  0
 12 17  1  6
 17 19  1  0
 17 20  1  0
 18 19  1  0
 18 22  1  0
 18 23  1  0
  9 10  1  0
  9 11  1  0
 10 12  1  0
 11  5  1  6
 33 34  1  0
 33 35  1  0
 34 36  1  0
 35 37  1  0
 37 43  1  1
 20 21  2  0
 21 22  1  0
M  CHG  3   2  -1  26  -1  41  -1
M  END
>  <COMPND>  (510) 
    udp_gluA.pdb 

>  <AUTHOR>  (510) 
    GENERATED BY OPEN BABEL 3.1.1

>  <MASTER>  (510) 
        0    0    0    0    0    0    0    0   56    0   56    0

>  <minimizedAffinity>  (510) 
-7.60941

>  <CNNscore>  (510) 
0.8029591441

>  <CNNaffinity>  (510) 
4.6381182671

>  <CNN_VS>  (510) 
3.7242195606

>  <CNNaffinity_variance>  (510) 
0.0688452199

$$$$
511
     RDKit          3D

 43 45  0  0  0  0  0  0  0  0999 V2000
   21.4608   71.6348   -3.3546 P   0  0  2  0  0  0  0  0  0  0  0  0
   22.8186   71.6443   -4.2352 O   0  0  0  0  0  0  0  0  0  0  0  0
   21.6113   71.0914   -1.9640 O   0  0  0  0  0  0  0  0  0  0  0  0
   20.3921   70.8680   -4.2968 O   0  0  0  0  0  0  0  0  0  0  0  0
   19.5560   69.8870   -3.7111 C   0  0  0  0  0  0  0  0  0  0  0  0
   17.9189   71.1490   -4.9378 O   0  0  0  0  0  0  0  0  0  0  0  0
   15.8618   69.7734   -3.2445 O   0  0  0  0  0  0  0  0  0  0  0  0
   15.7404   68.3755   -5.5826 O   0  0  0  0  0  0  0  0  0  0  0  0
   17.0898   69.2649   -3.7659 C   0  0  1  0  0  0  0  0  0  0  0  0
   16.9606   69.0051   -5.2519 C   0  0  2  0  0  0  0  0  0  0  0  0
   18.1175   70.3876   -3.7270 C   0  0  1  0  0  0  0  0  0  0  0  0
   17.0704   70.4066   -5.8278 C   0  0  2  0  0  0  0  0  0  0  0  0
   15.1894   69.0738   -3.2592 H   0  0  0  0  0  0  0  0  0  0  0  0
   15.7193   67.4867   -5.1933 H   0  0  0  0  0  0  0  0  0  0  0  0
   15.5906   70.6393   -8.2221 O   0  0  0  0  0  0  0  0  0  0  0  0
   19.3984   70.4290  -10.8105 O   0  0  0  0  0  0  0  0  0  0  0  0
   17.6497   70.4154   -7.1412 N   0  0  0  0  0  0  0  0  0  0  0  0
   17.4884   70.5333   -9.5090 N   0  0  0  0  0  0  0  0  0  0  0  0
   16.8174   70.5369   -8.2790 C   0  0  0  0  0  0  0  0  0  0  0  0
   19.0267   70.3064   -7.2926 C   0  0  0  0  0  0  0  0  0  0  0  0
   19.6519   70.3047   -8.4716 C   0  0  0  0  0  0  0  0  0  0  0  0
   18.8551   70.4267   -9.7100 C   0  0  0  0  0  0  0  0  0  0  0  0
   16.9298   70.6147  -10.3157 H   0  0  0  0  0  0  0  0  0  0  0  0
   20.9707   73.1735   -3.4269 O   0  0  0  0  0  0  0  0  0  0  0  0
   20.1791   74.0868   -2.3532 P   0  0  2  0  0  0  0  0  0  0  0  0
   20.3055   75.5776   -2.9713 O   0  0  0  0  0  0  0  0  0  0  0  0
   20.6820   73.9567   -0.9446 O   0  0  0  0  0  0  0  0  0  0  0  0
   18.6264   73.6953   -2.5486 O   0  0  0  0  0  0  0  0  0  0  0  0
   17.0824   75.1228   -3.6382 O   0  0  0  0  0  0  0  0  0  0  0  0
   14.5719   72.7089   -1.4160 O   0  0  0  0  0  0  0  0  0  0  0  0
   17.0505   73.7324   -0.2570 O   0  0  0  0  0  0  0  0  0  0  0  0
   14.8321   72.2972   -4.2820 O   0  0  0  0  0  0  0  0  0  0  0  0
   15.7393   73.0281   -2.1730 C   0  0  2  0  0  0  0  0  0  0  0  0
   16.4947   74.1696   -1.4918 C   0  0  2  0  0  0  0  0  0  0  0  0
   15.2935   73.4473   -3.5757 C   0  0  1  0  0  0  0  0  0  0  0  0
   17.6192   74.6924   -2.3868 C   0  0  1  0  0  0  0  0  0  0  0  0
   16.4419   74.0739   -4.3612 C   0  0  1  0  0  0  0  0  0  0  0  0
   14.8305   72.4396   -0.5205 H   0  0  0  0  0  0  0  0  0  0  0  0
   16.3425   73.3991    0.3157 H   0  0  0  0  0  0  0  0  0  0  0  0
   14.1011   71.8888   -3.7924 H   0  0  0  0  0  0  0  0  0  0  0  0
   14.5940   74.9698   -5.4945 O   0  0  0  0  0  0  0  0  0  0  0  0
   16.6203   75.1168   -6.5296 O   0  0  0  0  0  0  0  0  0  0  0  0
   15.9324   74.7699   -5.5812 C   0  0  0  0  0  0  0  0  0  0  0  0
  1  4  1  0
  1 24  1  0
  1  2  1  6
  1  3  2  0
 25 28  1  0
 25 24  1  0
 25 26  1  6
 25 27  2  0
  6 11  1  0
  6 12  1  0
 29 36  1  0
 29 37  1  0
  9  7  1  6
  7 13  1  0
 10  8  1  1
  8 14  1  0
  4  5  1  0
 36 28  1  6
 33 30  1  1
 30 38  1  0
 34 31  1  1
 31 39  1  0
 35 32  1  6
 32 40  1  0
 41 43  1  0
 15 19  2  0
 42 43  2  0
 16 22  2  0
 12 17  1  6
 17 19  1  0
 17 20  1  0
 18 19  1  0
 18 22  1  0
 18 23  1  0
  9 10  1  0
  9 11  1  0
 10 12  1  0
 11  5  1  6
 33 34  1  0
 33 35  1  0
 34 36  1  0
 35 37  1  0
 37 43  1  6
 20 21  2  0
 21 22  1  0
M  CHG  3   2  -1  26  -1  41  -1
M  END
>  <COMPND>  (511) 
    udp_gluA.pdb 

>  <AUTHOR>  (511) 
    GENERATED BY OPEN BABEL 3.1.1

>  <MASTER>  (511) 
        0    0    0    0    0    0    0    0   56    0   56    0

>  <minimizedAffinity>  (511) 
-6.15852

>  <CNNscore>  (511) 
0.7901301980

>  <CNNaffinity>  (511) 
4.3710441589

>  <CNN_VS>  (511) 
3.4536941051

>  <CNNaffinity_variance>  (511) 
0.3699634671

$$$$
512
     RDKit          3D

 43 45  0  0  0  0  0  0  0  0999 V2000
   23.1182   71.5939   -2.4210 P   0  0  2  0  0  0  0  0  0  0  0  0
   23.4695   73.0862   -1.9030 O   0  0  0  0  0  0  0  0  0  0  0  0
   24.2416   70.8844   -3.1184 O   0  0  0  0  0  0  0  0  0  0  0  0
   21.7664   71.7917   -3.2880 O   0  0  0  0  0  0  0  0  0  0  0  0
   21.1763   70.6540   -3.8894 C   0  0  0  0  0  0  0  0  0  0  0  0
   19.0972   70.3691   -5.0614 O   0  0  0  0  0  0  0  0  0  0  0  0
   19.6877   73.0022   -6.3689 O   0  0  0  0  0  0  0  0  0  0  0  0
   17.8820   73.6849   -4.4430 O   0  0  0  0  0  0  0  0  0  0  0  0
   19.9623   72.5740   -5.0348 C   0  0  1  0  0  0  0  0  0  0  0  0
   18.6863   72.5456   -4.2204 C   0  0  2  0  0  0  0  0  0  0  0  0
   20.3422   71.1004   -5.0833 C   0  0  1  0  0  0  0  0  0  0  0  0
   18.0312   71.2635   -4.7051 C   0  0  2  0  0  0  0  0  0  0  0  0
   19.4425   73.9411   -6.3635 H   0  0  0  0  0  0  0  0  0  0  0  0
   18.3427   74.4746   -4.1172 H   0  0  0  0  0  0  0  0  0  0  0  0
   15.3895   72.0429   -4.0801 O   0  0  0  0  0  0  0  0  0  0  0  0
   15.0195   68.8211   -0.8049 O   0  0  0  0  0  0  0  0  0  0  0  0
   17.2215   70.6455   -3.6935 N   0  0  0  0  0  0  0  0  0  0  0  0
   15.2081   70.4382   -2.4488 N   0  0  0  0  0  0  0  0  0  0  0  0
   15.9069   71.1130   -3.4584 C   0  0  0  0  0  0  0  0  0  0  0  0
   17.7297   69.5883   -2.9484 C   0  0  0  0  0  0  0  0  0  0  0  0
   17.0515   68.9550   -1.9894 C   0  0  0  0  0  0  0  0  0  0  0  0
   15.6712   69.3823   -1.6804 C   0  0  0  0  0  0  0  0  0  0  0  0
   14.2915   70.7472   -2.2655 H   0  0  0  0  0  0  0  0  0  0  0  0
   22.5870   70.8607   -1.0819 O   0  0  0  0  0  0  0  0  0  0  0  0
   21.7689   71.4344    0.1890 P   0  0  2  0  0  0  0  0  0  0  0  0
   21.3063   70.0926    0.9674 O   0  0  0  0  0  0  0  0  0  0  0  0
   20.6430   72.3602   -0.1704 O   0  0  0  0  0  0  0  0  0  0  0  0
   22.8960   72.0886    1.1398 O   0  0  0  0  0  0  0  0  0  0  0  0
   24.6450   71.3931    2.5773 O   0  0  0  0  0  0  0  0  0  0  0  0
   22.6882   74.1771    4.9200 O   0  0  0  0  0  0  0  0  0  0  0  0
   21.1718   72.2642    3.3151 O   0  0  0  0  0  0  0  0  0  0  0  0
   25.2167   74.8534    3.6550 O   0  0  0  0  0  0  0  0  0  0  0  0
   23.1602   73.5991    3.7030 C   0  0  2  0  0  0  0  0  0  0  0  0
   22.5748   72.1959    3.5421 C   0  0  2  0  0  0  0  0  0  0  0  0
   24.6876   73.5340    3.7715 C   0  0  1  0  0  0  0  0  0  0  0  0
   23.2329   71.4591    2.3747 C   0  0  1  0  0  0  0  0  0  0  0  0
   25.2597   72.6778    2.6454 C   0  0  1  0  0  0  0  0  0  0  0  0
   21.7196   74.2287    4.8994 H   0  0  0  0  0  0  0  0  0  0  0  0
   20.7478   72.7308    4.0520 H   0  0  0  0  0  0  0  0  0  0  0  0
   24.8602   75.4087    4.3659 H   0  0  0  0  0  0  0  0  0  0  0  0
   26.9870   71.1014    2.4643 O   0  0  0  0  0  0  0  0  0  0  0  0
   27.4997   73.0988    3.4370 O   0  0  0  0  0  0  0  0  0  0  0  0
   26.6942   72.3501    2.9046 C   0  0  0  0  0  0  0  0  0  0  0  0
  1  4  1  0
  1 24  1  0
  1  2  1  1
  1  3  2  0
 25 28  1  0
 25 24  1  0
 25 26  1  1
 25 27  2  0
  6 11  1  0
  6 12  1  0
 29 36  1  0
 29 37  1  0
  9  7  1  6
  7 13  1  0
 10  8  1  6
  8 14  1  0
  4  5  1  0
 36 28  1  6
 33 30  1  1
 30 38  1  0
 34 31  1  6
 31 39  1  0
 35 32  1  6
 32 40  1  0
 41 43  1  0
 15 19  2  0
 42 43  2  0
 16 22  2  0
 12 17  1  1
 17 19  1  0
 17 20  1  0
 18 19  1  0
 18 22  1  0
 18 23  1  0
  9 10  1  0
  9 11  1  0
 10 12  1  0
 11  5  1  1
 33 34  1  0
 33 35  1  0
 34 36  1  0
 35 37  1  0
 37 43  1  1
 20 21  2  0
 21 22  1  0
M  CHG  3   2  -1  26  -1  41  -1
M  END
>  <COMPND>  (512) 
    udp_gluA.pdb 

>  <AUTHOR>  (512) 
    GENERATED BY OPEN BABEL 3.1.1

>  <MASTER>  (512) 
        0    0    0    0    0    0    0    0   56    0   56    0

>  <minimizedAffinity>  (512) 
-7.03658

>  <CNNscore>  (512) 
0.7174458504

>  <CNNaffinity>  (512) 
4.3675093651

>  <CNN_VS>  (512) 
3.1334514618

>  <CNNaffinity_variance>  (512) 
0.0139250774

$$$$
513
     RDKit          3D

 43 45  0  0  0  0  0  0  0  0999 V2000
   23.1491   73.3556   -4.6019 P   0  0  2  0  0  0  0  0  0  0  0  0
   24.2410   72.2644   -4.1159 O   0  0  0  0  0  0  0  0  0  0  0  0
   23.7104   74.7046   -4.9437 O   0  0  0  0  0  0  0  0  0  0  0  0
   22.0321   73.3353   -3.4315 O   0  0  0  0  0  0  0  0  0  0  0  0
   22.4629   73.2225   -2.0876 C   0  0  0  0  0  0  0  0  0  0  0  0
   23.2394   71.3235   -0.8352 O   0  0  0  0  0  0  0  0  0  0  0  0
   20.3548   70.5439   -0.5845 O   0  0  0  0  0  0  0  0  0  0  0  0
   20.8800   71.6727    1.8416 O   0  0  0  0  0  0  0  0  0  0  0  0
   20.9426   71.8451   -0.5830 C   0  0  1  0  0  0  0  0  0  0  0  0
   21.6440   72.1018    0.7340 C   0  0  2  0  0  0  0  0  0  0  0  0
   22.1049   71.8366   -1.5665 C   0  0  1  0  0  0  0  0  0  0  0  0
   22.9287   71.3082    0.5671 C   0  0  2  0  0  0  0  0  0  0  0  0
   19.6096   70.5247    0.0368 H   0  0  0  0  0  0  0  0  0  0  0  0
   20.0733   72.2085    1.9049 H   0  0  0  0  0  0  0  0  0  0  0  0
   24.8365   69.8128    2.0165 O   0  0  0  0  0  0  0  0  0  0  0  0
   27.0939   73.6137    3.3208 O   0  0  0  0  0  0  0  0  0  0  0  0
   24.0254   71.8816    1.2946 N   0  0  0  0  0  0  0  0  0  0  0  0
   25.9584   71.7074    2.6656 N   0  0  0  0  0  0  0  0  0  0  0  0
   24.9273   71.0416    1.9898 C   0  0  0  0  0  0  0  0  0  0  0  0
   24.2002   73.2600    1.3134 C   0  0  0  0  0  0  0  0  0  0  0  0
   25.1880   73.8800    1.9619 C   0  0  0  0  0  0  0  0  0  0  0  0
   26.1730   73.0753    2.7139 C   0  0  0  0  0  0  0  0  0  0  0  0
   26.5976   71.1438    3.1585 H   0  0  0  0  0  0  0  0  0  0  0  0
   22.4065   72.6054   -5.8261 O   0  0  0  0  0  0  0  0  0  0  0  0
   21.3379   73.1474   -6.9115 P   0  0  2  0  0  0  0  0  0  0  0  0
   21.8799   72.5279   -8.3053 O   0  0  0  0  0  0  0  0  0  0  0  0
   21.1726   74.6396   -6.9208 O   0  0  0  0  0  0  0  0  0  0  0  0
   19.9851   72.3259   -6.5994 O   0  0  0  0  0  0  0  0  0  0  0  0
   19.5701   70.1935   -5.6560 O   0  0  0  0  0  0  0  0  0  0  0  0
   16.6397   70.4127   -8.5599 O   0  0  0  0  0  0  0  0  0  0  0  0
   19.3532   71.3380   -9.1215 O   0  0  0  0  0  0  0  0  0  0  0  0
   15.9505   70.7850   -5.7604 O   0  0  0  0  0  0  0  0  0  0  0  0
   17.5346   70.9211   -7.5706 C   0  0  2  0  0  0  0  0  0  0  0  0
   18.9748   70.5960   -7.9679 C   0  0  2  0  0  0  0  0  0  0  0  0
   17.1886   70.2592   -6.2350 C   0  0  1  0  0  0  0  0  0  0  0  0
   19.9427   70.9186   -6.8286 C   0  0  1  0  0  0  0  0  0  0  0  0
   18.2651   70.5242   -5.1864 C   0  0  1  0  0  0  0  0  0  0  0  0
   16.8407   70.8193   -9.4175 H   0  0  0  0  0  0  0  0  0  0  0  0
   18.7430   71.1383   -9.8483 H   0  0  0  0  0  0  0  0  0  0  0  0
   15.2568   70.6229   -6.4187 H   0  0  0  0  0  0  0  0  0  0  0  0
   17.1818   68.6526   -4.2780 O   0  0  0  0  0  0  0  0  0  0  0  0
   18.6889   69.7293   -2.9482 O   0  0  0  0  0  0  0  0  0  0  0  0
   18.0930   69.6203   -4.0093 C   0  0  0  0  0  0  0  0  0  0  0  0
  1  4  1  0
  1 24  1  0
  1  2  1  1
  1  3  2  0
 25 28  1  0
 25 24  1  0
 25 26  1  6
 25 27  2  0
  6 11  1  0
  6 12  1  0
 29 36  1  0
 29 37  1  0
  9  7  1  1
  7 13  1  0
 10  8  1  1
  8 14  1  0
  4  5  1  0
 36 28  1  1
 33 30  1  6
 30 38  1  0
 34 31  1  6
 31 39  1  0
 35 32  1  1
 32 40  1  0
 41 43  1  0
 15 19  2  0
 42 43  2  0
 16 22  2  0
 12 17  1  1
 17 19  1  0
 17 20  1  0
 18 19  1  0
 18 22  1  0
 18 23  1  0
  9 10  1  0
  9 11  1  0
 10 12  1  0
 11  5  1  1
 33 34  1  0
 33 35  1  0
 34 36  1  0
 35 37  1  0
 37 43  1  1
 20 21  2  0
 21 22  1  0
M  CHG  3   2  -1  26  -1  41  -1
M  END
>  <COMPND>  (513) 
    udp_gluA.pdb 

>  <AUTHOR>  (513) 
    GENERATED BY OPEN BABEL 3.1.1

>  <MASTER>  (513) 
        0    0    0    0    0    0    0    0   56    0   56    0

>  <minimizedAffinity>  (513) 
-7.90031

>  <CNNscore>  (513) 
0.6600515842

>  <CNNaffinity>  (513) 
4.5451197624

>  <CNN_VS>  (513) 
3.0000135899

>  <CNNaffinity_variance>  (513) 
0.0452104397

$$$$
514
     RDKit          3D

 43 45  0  0  0  0  0  0  0  0999 V2000
   21.9342   72.5305   -5.8792 P   0  0  2  0  0  0  0  0  0  0  0  0
   21.3988   73.9653   -5.3559 O   0  0  0  0  0  0  0  0  0  0  0  0
   23.0412   72.5976   -6.8900 O   0  0  0  0  0  0  0  0  0  0  0  0
   20.5910   71.7658   -6.3579 O   0  0  0  0  0  0  0  0  0  0  0  0
   20.0415   72.0913   -7.6214 C   0  0  0  0  0  0  0  0  0  0  0  0
   18.9209   70.0148   -7.1631 O   0  0  0  0  0  0  0  0  0  0  0  0
   18.1015   70.0350  -10.0475 O   0  0  0  0  0  0  0  0  0  0  0  0
   15.8476   70.9034   -8.7817 O   0  0  0  0  0  0  0  0  0  0  0  0
   18.2419   71.1286   -9.1404 C   0  0  1  0  0  0  0  0  0  0  0  0
   17.0909   71.1450   -8.1569 C   0  0  2  0  0  0  0  0  0  0  0  0
   19.4308   70.8378   -8.2346 C   0  0  1  0  0  0  0  0  0  0  0  0
   17.4849   70.0399   -7.1918 C   0  0  2  0  0  0  0  0  0  0  0  0
   17.3479   70.1981  -10.6368 H   0  0  0  0  0  0  0  0  0  0  0  0
   15.6417   71.6347   -9.3856 H   0  0  0  0  0  0  0  0  0  0  0  0
   16.2846   68.0671   -5.5658 O   0  0  0  0  0  0  0  0  0  0  0  0
   15.6434   71.0468   -2.1083 O   0  0  0  0  0  0  0  0  0  0  0  0
   16.9954   70.2729   -5.8626 N   0  0  0  0  0  0  0  0  0  0  0  0
   15.9655   69.5533   -3.8457 N   0  0  0  0  0  0  0  0  0  0  0  0
   16.4091   69.2134   -5.1305 C   0  0  0  0  0  0  0  0  0  0  0  0
   17.0996   71.5378   -5.2968 C   0  0  0  0  0  0  0  0  0  0  0  0
   16.6723   71.8465   -4.0709 C   0  0  0  0  0  0  0  0  0  0  0  0
   16.0467   70.7968   -3.2401 C   0  0  0  0  0  0  0  0  0  0  0  0
   15.5519   68.8326   -3.3176 H   0  0  0  0  0  0  0  0  0  0  0  0
   22.3193   71.7651   -4.5086 O   0  0  0  0  0  0  0  0  0  0  0  0
   23.5010   72.0341   -3.4386 P   0  0  2  0  0  0  0  0  0  0  0  0
   24.4691   73.0765   -4.2110 O   0  0  0  0  0  0  0  0  0  0  0  0
   24.1904   70.7905   -2.9568 O   0  0  0  0  0  0  0  0  0  0  0  0
   22.8074   72.9089   -2.2741 O   0  0  0  0  0  0  0  0  0  0  0  0
   21.6449   71.6613   -0.6306 O   0  0  0  0  0  0  0  0  0  0  0  0
   20.4511   75.5189    0.2420 O   0  0  0  0  0  0  0  0  0  0  0  0
   20.6248   74.6138   -2.5302 O   0  0  0  0  0  0  0  0  0  0  0  0
   22.4168   74.1854    1.9180 O   0  0  0  0  0  0  0  0  0  0  0  0
   21.3436   74.5030   -0.2156 C   0  0  2  0  0  0  0  0  0  0  0  0
   20.7131   73.7611   -1.3945 C   0  0  2  0  0  0  0  0  0  0  0  0
   21.5979   73.5390    0.9453 C   0  0  1  0  0  0  0  0  0  0  0  0
   21.5325   72.5236   -1.7634 C   0  0  1  0  0  0  0  0  0  0  0  0
   22.3081   72.2735    0.4733 C   0  0  1  0  0  0  0  0  0  0  0  0
   20.2748   76.1435   -0.4792 H   0  0  0  0  0  0  0  0  0  0  0  0
   20.1064   75.4013   -2.3032 H   0  0  0  0  0  0  0  0  0  0  0  0
   21.9762   74.9926    2.2266 H   0  0  0  0  0  0  0  0  0  0  0  0
   21.5385   70.1470    1.0954 O   0  0  0  0  0  0  0  0  0  0  0  0
   22.7906   71.2877    2.6219 O   0  0  0  0  0  0  0  0  0  0  0  0
   22.2579   71.2134    1.5248 C   0  0  0  0  0  0  0  0  0  0  0  0
  1  4  1  0
  1 24  1  0
  1  2  1  1
  1  3  2  0
 25 28  1  0
 25 24  1  0
 25 26  1  6
 25 27  2  0
  6 11  1  0
  6 12  1  0
 29 36  1  0
 29 37  1  0
  9  7  1  6
  7 13  1  0
 10  8  1  6
  8 14  1  0
  4  5  1  0
 36 28  1  1
 33 30  1  1
 30 38  1  0
 34 31  1  6
 31 39  1  0
 35 32  1  1
 32 40  1  0
 41 43  1  0
 15 19  2  0
 42 43  2  0
 16 22  2  0
 12 17  1  1
 17 19  1  0
 17 20  1  0
 18 19  1  0
 18 22  1  0
 18 23  1  0
  9 10  1  0
  9 11  1  0
 10 12  1  0
 11  5  1  1
 33 34  1  0
 33 35  1  0
 34 36  1  0
 35 37  1  0
 37 43  1  1
 20 21  2  0
 21 22  1  0
M  CHG  3   2  -1  26  -1  41  -1
M  END
>  <COMPND>  (514) 
    udp_gluA.pdb 

>  <AUTHOR>  (514) 
    GENERATED BY OPEN BABEL 3.1.1

>  <MASTER>  (514) 
        0    0    0    0    0    0    0    0   56    0   56    0

>  <minimizedAffinity>  (514) 
-8.40334

>  <CNNscore>  (514) 
0.6398367286

>  <CNNaffinity>  (514) 
4.4308066368

>  <CNN_VS>  (514) 
2.8349928856

>  <CNNaffinity_variance>  (514) 
0.3875499368

$$$$
515
     RDKit          3D

 43 45  0  0  0  0  0  0  0  0999 V2000
   21.8616   72.4386   -5.6774 P   0  0  2  0  0  0  0  0  0  0  0  0
   21.1732   73.8471   -5.2760 O   0  0  0  0  0  0  0  0  0  0  0  0
   23.0847   72.5539   -6.5390 O   0  0  0  0  0  0  0  0  0  0  0  0
   20.6433   71.5739   -6.2988 O   0  0  0  0  0  0  0  0  0  0  0  0
   20.1256   71.9466   -7.5628 C   0  0  0  0  0  0  0  0  0  0  0  0
   18.8909   69.9256   -7.1521 O   0  0  0  0  0  0  0  0  0  0  0  0
   18.1225   70.0269  -10.0488 O   0  0  0  0  0  0  0  0  0  0  0  0
   15.8958   70.9949   -8.8074 O   0  0  0  0  0  0  0  0  0  0  0  0
   18.3043   71.0995   -9.1241 C   0  0  1  0  0  0  0  0  0  0  0  0
   17.1393   71.1629   -8.1593 C   0  0  2  0  0  0  0  0  0  0  0  0
   19.4610   70.7349   -8.2035 C   0  0  1  0  0  0  0  0  0  0  0  0
   17.4589   70.0260   -7.2037 C   0  0  2  0  0  0  0  0  0  0  0  0
   17.3884   70.2369  -10.6478 H   0  0  0  0  0  0  0  0  0  0  0  0
   15.7385   71.7440   -9.4042 H   0  0  0  0  0  0  0  0  0  0  0  0
   16.3204   68.0446   -5.5441 O   0  0  0  0  0  0  0  0  0  0  0  0
   15.5770   71.0629   -2.1410 O   0  0  0  0  0  0  0  0  0  0  0  0
   16.9598   70.2666   -5.8793 N   0  0  0  0  0  0  0  0  0  0  0  0
   15.9503   69.5500   -3.8511 N   0  0  0  0  0  0  0  0  0  0  0  0
   16.4069   69.2019   -5.1291 C   0  0  0  0  0  0  0  0  0  0  0  0
   17.0220   71.5441   -5.3361 C   0  0  0  0  0  0  0  0  0  0  0  0
   16.5827   71.8605   -4.1164 C   0  0  0  0  0  0  0  0  0  0  0  0
   15.9901   70.8060   -3.2677 C   0  0  0  0  0  0  0  0  0  0  0  0
   15.5594   68.8258   -3.3107 H   0  0  0  0  0  0  0  0  0  0  0  0
   22.1118   71.7354   -4.2436 O   0  0  0  0  0  0  0  0  0  0  0  0
   23.3087   71.9090   -3.1707 P   0  0  2  0  0  0  0  0  0  0  0  0
   23.9989   73.3060   -3.6094 O   0  0  0  0  0  0  0  0  0  0  0  0
   24.2544   70.7446   -3.1093 O   0  0  0  0  0  0  0  0  0  0  0  0
   22.5652   72.2418   -1.7783 O   0  0  0  0  0  0  0  0  0  0  0  0
   23.2350   70.8483    0.0158 O   0  0  0  0  0  0  0  0  0  0  0  0
   20.0441   72.8805    1.6759 O   0  0  0  0  0  0  0  0  0  0  0  0
   19.9002   71.8846   -1.0667 O   0  0  0  0  0  0  0  0  0  0  0  0
   22.7665   73.5947    2.4032 O   0  0  0  0  0  0  0  0  0  0  0  0
   21.1774   72.7054    0.8257 C   0  0  2  0  0  0  0  0  0  0  0  0
   20.9213   71.5446   -0.1359 C   0  0  2  0  0  0  0  0  0  0  0  0
   22.3902   72.4065    1.7098 C   0  0  1  0  0  0  0  0  0  0  0  0
   22.1928   71.1789   -0.9029 C   0  0  1  0  0  0  0  0  0  0  0  0
   23.5790   71.9278    0.8815 C   0  0  1  0  0  0  0  0  0  0  0  0
   19.2610   73.0716    1.1359 H   0  0  0  0  0  0  0  0  0  0  0  0
   19.0905   72.1180   -0.5868 H   0  0  0  0  0  0  0  0  0  0  0  0
   22.0185   73.9100    2.9342 H   0  0  0  0  0  0  0  0  0  0  0  0
   24.7087   69.9912    1.5706 O   0  0  0  0  0  0  0  0  0  0  0  0
   25.3316   71.9590    2.5395 O   0  0  0  0  0  0  0  0  0  0  0  0
   24.6313   71.3319    1.7589 C   0  0  0  0  0  0  0  0  0  0  0  0
  1  4  1  0
  1 24  1  0
  1  2  1  1
  1  3  2  0
 25 28  1  0
 25 24  1  0
 25 26  1  6
 25 27  2  0
  6 11  1  0
  6 12  1  0
 29 36  1  0
 29 37  1  0
  9  7  1  6
  7 13  1  0
 10  8  1  6
  8 14  1  0
  4  5  1  0
 36 28  1  1
 33 30  1  1
 30 38  1  0
 34 31  1  6
 31 39  1  0
 35 32  1  6
 32 40  1  0
 41 43  1  0
 15 19  2  0
 42 43  2  0
 16 22  2  0
 12 17  1  1
 17 19  1  0
 17 20  1  0
 18 19  1  0
 18 22  1  0
 18 23  1  0
  9 10  1  0
  9 11  1  0
 10 12  1  0
 11  5  1  1
 33 34  1  0
 33 35  1  0
 34 36  1  0
 35 37  1  0
 37 43  1  1
 20 21  2  0
 21 22  1  0
M  CHG  3   2  -1  26  -1  41  -1
M  END
>  <COMPND>  (515) 
    udp_gluA.pdb 

>  <AUTHOR>  (515) 
    GENERATED BY OPEN BABEL 3.1.1

>  <MASTER>  (515) 
        0    0    0    0    0    0    0    0   56    0   56    0

>  <minimizedAffinity>  (515) 
-8.33559

>  <CNNscore>  (515) 
0.6315914989

>  <CNNaffinity>  (515) 
4.4437379837

>  <CNN_VS>  (515) 
2.8066270351

>  <CNNaffinity_variance>  (515) 
0.2494371682

$$$$
516
     RDKit          3D

 43 45  0  0  0  0  0  0  0  0999 V2000
   22.3867   72.1667   -2.5813 P   0  0  2  0  0  0  0  0  0  0  0  0
   23.3846   71.0694   -1.9342 O   0  0  0  0  0  0  0  0  0  0  0  0
   21.1799   72.4932   -1.7512 O   0  0  0  0  0  0  0  0  0  0  0  0
   22.0853   71.5917   -4.0633 O   0  0  0  0  0  0  0  0  0  0  0  0
   21.5263   72.4655   -5.0269 C   0  0  0  0  0  0  0  0  0  0  0  0
   20.5398   70.5109   -6.0188 O   0  0  0  0  0  0  0  0  0  0  0  0
   20.7876   71.9445   -8.6409 O   0  0  0  0  0  0  0  0  0  0  0  0
   18.1553   72.2909   -8.0189 O   0  0  0  0  0  0  0  0  0  0  0  0
   20.4856   72.4706   -7.3484 C   0  0  1  0  0  0  0  0  0  0  0  0
   19.0677   72.1138   -6.9555 C   0  0  2  0  0  0  0  0  0  0  0  0
   21.3043   71.6975   -6.3235 C   0  0  1  0  0  0  0  0  0  0  0  0
   19.2110   70.6583   -6.5443 C   0  0  2  0  0  0  0  0  0  0  0  0
   20.2762   72.4228   -9.3126 H   0  0  0  0  0  0  0  0  0  0  0  0
   18.0992   73.2336   -8.2431 H   0  0  0  0  0  0  0  0  0  0  0  0
   16.5791   69.7812   -7.0737 O   0  0  0  0  0  0  0  0  0  0  0  0
   15.6669   69.2270   -2.5898 O   0  0  0  0  0  0  0  0  0  0  0  0
   18.2646   70.2785   -5.5340 N   0  0  0  0  0  0  0  0  0  0  0  0
   16.1270   69.5070   -4.8399 N   0  0  0  0  0  0  0  0  0  0  0  0
   16.9676   69.8525   -5.9062 C   0  0  0  0  0  0  0  0  0  0  0  0
   18.6243   70.3284   -4.1927 C   0  0  0  0  0  0  0  0  0  0  0  0
   17.8121   69.9958   -3.1875 C   0  0  0  0  0  0  0  0  0  0  0  0
   16.4393   69.5409   -3.4905 C   0  0  0  0  0  0  0  0  0  0  0  0
   15.2182   69.2093   -5.0741 H   0  0  0  0  0  0  0  0  0  0  0  0
   23.3646   73.4209   -2.8701 O   0  0  0  0  0  0  0  0  0  0  0  0
   23.8335   74.6421   -1.9200 P   0  0  2  0  0  0  0  0  0  0  0  0
   22.4436   75.3963   -1.5741 O   0  0  0  0  0  0  0  0  0  0  0  0
   24.8828   75.5273   -2.5277 O   0  0  0  0  0  0  0  0  0  0  0  0
   24.2706   73.9389   -0.5355 O   0  0  0  0  0  0  0  0  0  0  0  0
   22.5595   73.3509    0.9928 O   0  0  0  0  0  0  0  0  0  0  0  0
   25.9360   73.0490    3.3542 O   0  0  0  0  0  0  0  0  0  0  0  0
   25.6267   75.2775    1.4907 O   0  0  0  0  0  0  0  0  0  0  0  0
   24.6290   70.6488    2.3633 O   0  0  0  0  0  0  0  0  0  0  0  0
   25.1823   72.9834    2.1435 C   0  0  2  0  0  0  0  0  0  0  0  0
   24.5941   74.3598    1.8318 C   0  0  2  0  0  0  0  0  0  0  0  0
   24.0632   71.9579    2.3381 C   0  0  1  0  0  0  0  0  0  0  0  0
   23.5971   74.2794    0.6749 C   0  0  1  0  0  0  0  0  0  0  0  0
   23.0421   72.0263    1.2062 C   0  0  1  0  0  0  0  0  0  0  0  0
   26.6532   73.6947    3.2543 H   0  0  0  0  0  0  0  0  0  0  0  0
   26.2631   75.3332    2.2203 H   0  0  0  0  0  0  0  0  0  0  0  0
   25.2808   70.5920    3.0793 H   0  0  0  0  0  0  0  0  0  0  0  0
   21.0290   71.9948    2.4096 O   0  0  0  0  0  0  0  0  0  0  0  0
   21.5178   70.1568    1.1520 O   0  0  0  0  0  0  0  0  0  0  0  0
   21.8031   71.2714    1.5632 C   0  0  0  0  0  0  0  0  0  0  0  0
  1  4  1  0
  1 24  1  0
  1  2  1  1
  1  3  2  0
 25 28  1  0
 25 24  1  0
 25 26  1  1
 25 27  2  0
  6 11  1  0
  6 12  1  0
 29 36  1  0
 29 37  1  0
  9  7  1  6
  7 13  1  0
 10  8  1  6
  8 14  1  0
  4  5  1  0
 36 28  1  6
 33 30  1  1
 30 38  1  0
 34 31  1  6
 31 39  1  0
 35 32  1  6
 32 40  1  0
 41 43  1  0
 15 19  2  0
 42 43  2  0
 16 22  2  0
 12 17  1  1
 17 19  1  0
 17 20  1  0
 18 19  1  0
 18 22  1  0
 18 23  1  0
  9 10  1  0
  9 11  1  0
 10 12  1  0
 11  5  1  1
 33 34  1  0
 33 35  1  0
 34 36  1  0
 35 37  1  0
 37 43  1  1
 20 21  2  0
 21 22  1  0
M  CHG  3   2  -1  26  -1  41  -1
M  END
>  <COMPND>  (516) 
    udp_gluA.pdb 

>  <AUTHOR>  (516) 
    GENERATED BY OPEN BABEL 3.1.1

>  <MASTER>  (516) 
        0    0    0    0    0    0    0    0   56    0   56    0

>  <minimizedAffinity>  (516) 
-7.18173

>  <CNNscore>  (516) 
0.6053432822

>  <CNNaffinity>  (516) 
4.3043122292

>  <CNN_VS>  (516) 
2.6055865288

>  <CNNaffinity_variance>  (516) 
0.2102238387

$$$$
517
     RDKit          3D

 43 45  0  0  0  0  0  0  0  0999 V2000
   22.0212   76.2613   -4.5166 P   0  0  2  0  0  0  0  0  0  0  0  0
   21.9342   77.7131   -3.8067 O   0  0  0  0  0  0  0  0  0  0  0  0
   22.3806   76.2889   -5.9732 O   0  0  0  0  0  0  0  0  0  0  0  0
   20.6053   75.5667   -4.1552 O   0  0  0  0  0  0  0  0  0  0  0  0
   20.0844   74.5928   -5.0411 C   0  0  0  0  0  0  0  0  0  0  0  0
   18.3660   72.9177   -5.1766 O   0  0  0  0  0  0  0  0  0  0  0  0
   19.2804   72.0261   -2.4636 O   0  0  0  0  0  0  0  0  0  0  0  0
   20.4401   70.1925   -4.1156 O   0  0  0  0  0  0  0  0  0  0  0  0
   20.0498   72.5266   -3.5572 C   0  0  1  0  0  0  0  0  0  0  0  0
   20.1672   71.4751   -4.6401 C   0  0  2  0  0  0  0  0  0  0  0  0
   19.2326   73.6081   -4.2505 C   0  0  1  0  0  0  0  0  0  0  0  0
   18.8050   71.5563   -5.3076 C   0  0  2  0  0  0  0  0  0  0  0  0
   19.7821   71.3335   -2.0050 H   0  0  0  0  0  0  0  0  0  0  0  0
   21.3180   70.1924   -3.7019 H   0  0  0  0  0  0  0  0  0  0  0  0
   16.6410   70.4741   -6.7646 O   0  0  0  0  0  0  0  0  0  0  0  0
   19.1150   70.2820  -10.6487 O   0  0  0  0  0  0  0  0  0  0  0  0
   18.8562   71.2142   -6.7009 N   0  0  0  0  0  0  0  0  0  0  0  0
   17.8756   70.3785   -8.6975 N   0  0  0  0  0  0  0  0  0  0  0  0
   17.7130   70.6764   -7.3381 C   0  0  0  0  0  0  0  0  0  0  0  0
   20.0275   71.4133   -7.4214 C   0  0  0  0  0  0  0  0  0  0  0  0
   20.1673   71.1246   -8.7167 C   0  0  0  0  0  0  0  0  0  0  0  0
   19.0205   70.5583   -9.4567 C   0  0  0  0  0  0  0  0  0  0  0  0
   17.0940   70.0011   -9.1622 H   0  0  0  0  0  0  0  0  0  0  0  0
   23.0680   75.4615   -3.5798 O   0  0  0  0  0  0  0  0  0  0  0  0
   23.8511   74.0667   -3.8141 P   0  0  2  0  0  0  0  0  0  0  0  0
   25.4060   74.5158   -3.8421 O   0  0  0  0  0  0  0  0  0  0  0  0
   23.4049   73.3067   -5.0296 O   0  0  0  0  0  0  0  0  0  0  0  0
   23.6838   73.2649   -2.4244 O   0  0  0  0  0  0  0  0  0  0  0  0
   21.9585   72.7279   -0.8932 O   0  0  0  0  0  0  0  0  0  0  0  0
   24.9626   74.0048    1.6391 O   0  0  0  0  0  0  0  0  0  0  0  0
   24.4136   75.4366   -0.8474 O   0  0  0  0  0  0  0  0  0  0  0  0
   24.3794   71.1686    1.3806 O   0  0  0  0  0  0  0  0  0  0  0  0
   24.4151   73.3984    0.4685 C   0  0  2  0  0  0  0  0  0  0  0  0
   23.5788   74.4248   -0.2961 C   0  0  2  0  0  0  0  0  0  0  0  0
   23.5411   72.2223    0.9099 C   0  0  1  0  0  0  0  0  0  0  0  0
   22.7925   73.7577   -1.4256 C   0  0  1  0  0  0  0  0  0  0  0  0
   22.6945   71.6934   -0.2443 C   0  0  1  0  0  0  0  0  0  0  0  0
   25.5219   74.7552    1.3833 H   0  0  0  0  0  0  0  0  0  0  0  0
   24.9156   75.8639   -0.1363 H   0  0  0  0  0  0  0  0  0  0  0  0
   24.9237   71.4922    2.1154 H   0  0  0  0  0  0  0  0  0  0  0  0
   20.7046   70.5428   -0.7112 O   0  0  0  0  0  0  0  0  0  0  0  0
   21.5712   70.3135    1.3853 O   0  0  0  0  0  0  0  0  0  0  0  0
   21.6217   70.7831    0.2584 C   0  0  0  0  0  0  0  0  0  0  0  0
  1  4  1  0
  1 24  1  0
  1  2  1  1
  1  3  2  0
 25 28  1  0
 25 24  1  0
 25 26  1  6
 25 27  2  0
  6 11  1  0
  6 12  1  0
 29 36  1  0
 29 37  1  0
  9  7  1  1
  7 13  1  0
 10  8  1  1
  8 14  1  0
  4  5  1  0
 36 28  1  6
 33 30  1  1
 30 38  1  0
 34 31  1  6
 31 39  1  0
 35 32  1  6
 32 40  1  0
 41 43  1  0
 15 19  2  0
 42 43  2  0
 16 22  2  0
 12 17  1  6
 17 19  1  0
 17 20  1  0
 18 19  1  0
 18 22  1  0
 18 23  1  0
  9 10  1  0
  9 11  1  0
 10 12  1  0
 11  5  1  6
 33 34  1  0
 33 35  1  0
 34 36  1  0
 35 37  1  0
 37 43  1  1
 20 21  2  0
 21 22  1  0
M  CHG  3   2  -1  26  -1  41  -1
M  END
>  <COMPND>  (517) 
    udp_gluA.pdb 

>  <AUTHOR>  (517) 
    GENERATED BY OPEN BABEL 3.1.1

>  <MASTER>  (517) 
        0    0    0    0    0    0    0    0   56    0   56    0

>  <minimizedAffinity>  (517) 
-6.22717

>  <CNNscore>  (517) 
0.5888318419

>  <CNNaffinity>  (517) 
4.2199168205

>  <CNN_VS>  (517) 
2.4848213196

>  <CNNaffinity_variance>  (517) 
0.1364845186

$$$$
518
     RDKit          3D

 43 45  0  0  0  0  0  0  0  0999 V2000
   20.1409   71.8506   -2.5699 P   0  0  2  0  0  0  0  0  0  0  0  0
   19.1597   70.5826   -2.3505 O   0  0  0  0  0  0  0  0  0  0  0  0
   20.0596   72.9061   -1.5064 O   0  0  0  0  0  0  0  0  0  0  0  0
   19.8092   72.3427   -4.0751 O   0  0  0  0  0  0  0  0  0  0  0  0
   19.5152   73.7109   -4.2898 C   0  0  0  0  0  0  0  0  0  0  0  0
   19.2598   72.7185   -6.4641 O   0  0  0  0  0  0  0  0  0  0  0  0
   18.6365   75.4819   -7.4472 O   0  0  0  0  0  0  0  0  0  0  0  0
   16.1637   74.3514   -7.2399 O   0  0  0  0  0  0  0  0  0  0  0  0
   18.3010   74.8686   -6.2023 C   0  0  1  0  0  0  0  0  0  0  0  0
   17.1863   73.8629   -6.3972 C   0  0  2  0  0  0  0  0  0  0  0  0
   19.4647   73.9783   -5.7886 C   0  0  1  0  0  0  0  0  0  0  0  0
   17.9281   72.6829   -7.0015 C   0  0  2  0  0  0  0  0  0  0  0  0
   17.9078   76.0559   -7.7321 H   0  0  0  0  0  0  0  0  0  0  0  0
   15.7216   75.1012   -6.8105 H   0  0  0  0  0  0  0  0  0  0  0  0
   15.6611   71.6080   -8.2984 O   0  0  0  0  0  0  0  0  0  0  0  0
   15.6915   67.8488   -5.6317 O   0  0  0  0  0  0  0  0  0  0  0  0
   17.3228   71.4251   -6.6662 N   0  0  0  0  0  0  0  0  0  0  0  0
   15.6778   69.7372   -6.9683 N   0  0  0  0  0  0  0  0  0  0  0  0
   16.1862   70.9764   -7.3795 C   0  0  0  0  0  0  0  0  0  0  0  0
   17.8552   70.6500   -5.6432 C   0  0  0  0  0  0  0  0  0  0  0  0
   17.3597   69.4708   -5.2626 C   0  0  0  0  0  0  0  0  0  0  0  0
   16.1722   68.9304   -5.9563 C   0  0  0  0  0  0  0  0  0  0  0  0
   14.8853   69.4049   -7.4488 H   0  0  0  0  0  0  0  0  0  0  0  0
   21.5950   71.1616   -2.7250 O   0  0  0  0  0  0  0  0  0  0  0  0
   23.0770   71.7300   -2.4182 P   0  0  2  0  0  0  0  0  0  0  0  0
   23.0567   73.2003   -3.0950 O   0  0  0  0  0  0  0  0  0  0  0  0
   24.1886   70.8430   -2.8994 O   0  0  0  0  0  0  0  0  0  0  0  0
   23.0861   72.0130   -0.8300 O   0  0  0  0  0  0  0  0  0  0  0  0
   24.4590   71.0757    0.8570 O   0  0  0  0  0  0  0  0  0  0  0  0
   20.9497   71.7757    2.9216 O   0  0  0  0  0  0  0  0  0  0  0  0
   20.8818   70.6773    0.2155 O   0  0  0  0  0  0  0  0  0  0  0  0
   23.2383   73.5284    3.2975 O   0  0  0  0  0  0  0  0  0  0  0  0
   21.9501   72.0178    1.9324 C   0  0  2  0  0  0  0  0  0  0  0  0
   22.0577   70.8061    1.0062 C   0  0  2  0  0  0  0  0  0  0  0  0
   23.2791   72.2569    2.6525 C   0  0  1  0  0  0  0  0  0  0  0  0
   23.2690   70.9306    0.0809 C   0  0  1  0  0  0  0  0  0  0  0  0
   24.4521   72.2425    1.6765 C   0  0  1  0  0  0  0  0  0  0  0  0
   20.0961   71.6209    2.4873 H   0  0  0  0  0  0  0  0  0  0  0  0
   20.1092   70.5981    0.7962 H   0  0  0  0  0  0  0  0  0  0  0  0
   22.4959   73.5508    3.9214 H   0  0  0  0  0  0  0  0  0  0  0  0
   26.2408   70.8827    2.3493 O   0  0  0  0  0  0  0  0  0  0  0  0
   26.3028   73.0720    2.9835 O   0  0  0  0  0  0  0  0  0  0  0  0
   25.7506   72.1456    2.4091 C   0  0  0  0  0  0  0  0  0  0  0  0
  1  4  1  0
  1 24  1  0
  1  2  1  1
  1  3  2  0
 25 28  1  0
 25 24  1  0
 25 26  1  6
 25 27  2  0
  6 11  1  0
  6 12  1  0
 29 36  1  0
 29 37  1  0
  9  7  1  6
  7 13  1  0
 10  8  1  6
  8 14  1  0
  4  5  1  0
 36 28  1  6
 33 30  1  1
 30 38  1  0
 34 31  1  6
 31 39  1  0
 35 32  1  6
 32 40  1  0
 41 43  1  0
 15 19  2  0
 42 43  2  0
 16 22  2  0
 12 17  1  1
 17 19  1  0
 17 20  1  0
 18 19  1  0
 18 22  1  0
 18 23  1  0
  9 10  1  0
  9 11  1  0
 10 12  1  0
 11  5  1  1
 33 34  1  0
 33 35  1  0
 34 36  1  0
 35 37  1  0
 37 43  1  1
 20 21  2  0
 21 22  1  0
M  CHG  3   2  -1  26  -1  41  -1
M  END
>  <COMPND>  (518) 
    udp_gluA.pdb 

>  <AUTHOR>  (518) 
    GENERATED BY OPEN BABEL 3.1.1

>  <MASTER>  (518) 
        0    0    0    0    0    0    0    0   56    0   56    0

>  <minimizedAffinity>  (518) 
-7.51435

>  <CNNscore>  (518) 
0.5527907610

>  <CNNaffinity>  (518) 
4.1954312325

>  <CNN_VS>  (518) 
2.3191955090

>  <CNNaffinity_variance>  (518) 
0.2798258066

$$$$
519
     RDKit          3D

 43 45  0  0  0  0  0  0  0  0999 V2000
   16.1241   70.2671   -2.6963 P   0  0  2  0  0  0  0  0  0  0  0  0
   15.5207   71.6588   -3.2603 O   0  0  0  0  0  0  0  0  0  0  0  0
   15.8282   69.0609   -3.5384 O   0  0  0  0  0  0  0  0  0  0  0  0
   15.5943   70.2047   -1.1687 O   0  0  0  0  0  0  0  0  0  0  0  0
   14.7353   69.1435   -0.7938 C   0  0  0  0  0  0  0  0  0  0  0  0
   12.4298   68.5048   -0.5614 O   0  0  0  0  0  0  0  0  0  0  0  0
   11.7912   71.4261   -0.7835 O   0  0  0  0  0  0  0  0  0  0  0  0
   11.6202   70.9812    1.9015 O   0  0  0  0  0  0  0  0  0  0  0  0
   12.9039   70.7896   -0.1546 C   0  0  1  0  0  0  0  0  0  0  0  0
   12.4731   70.1463    1.1465 C   0  0  2  0  0  0  0  0  0  0  0  0
   13.2900   69.5804   -0.9954 C   0  0  1  0  0  0  0  0  0  0  0  0
   11.7776   68.8863    0.6602 C   0  0  2  0  0  0  0  0  0  0  0  0
   11.5263   72.2020   -0.2642 H   0  0  0  0  0  0  0  0  0  0  0  0
   12.1094   71.7690    2.1878 H   0  0  0  0  0  0  0  0  0  0  0  0
    9.5748   67.7002    1.9708 O   0  0  0  0  0  0  0  0  0  0  0  0
   12.2858   64.7500    4.2491 O   0  0  0  0  0  0  0  0  0  0  0  0
   11.8792   67.8065    1.6007 N   0  0  0  0  0  0  0  0  0  0  0  0
   10.9273   66.2326    3.1050 N   0  0  0  0  0  0  0  0  0  0  0  0
   10.7109   67.2828    2.2031 C   0  0  0  0  0  0  0  0  0  0  0  0
   13.1244   67.2767    1.9165 C   0  0  0  0  0  0  0  0  0  0  0  0
   13.3148   66.2756    2.7780 C   0  0  0  0  0  0  0  0  0  0  0  0
   12.1461   65.6724    3.4517 C   0  0  0  0  0  0  0  0  0  0  0  0
   10.1290   65.8530    3.5386 H   0  0  0  0  0  0  0  0  0  0  0  0
   17.6968   70.5976   -2.5223 O   0  0  0  0  0  0  0  0  0  0  0  0
   18.8624   70.8201   -3.6202 P   0  0  2  0  0  0  0  0  0  0  0  0
   19.5605   69.3629   -3.7189 O   0  0  0  0  0  0  0  0  0  0  0  0
   19.8095   71.9386   -3.2948 O   0  0  0  0  0  0  0  0  0  0  0  0
   18.0790   70.9920   -5.0198 O   0  0  0  0  0  0  0  0  0  0  0  0
   18.9988   71.2812   -7.1830 O   0  0  0  0  0  0  0  0  0  0  0  0
   15.3992   73.2795   -7.5260 O   0  0  0  0  0  0  0  0  0  0  0  0
   17.0280   73.5653   -5.1177 O   0  0  0  0  0  0  0  0  0  0  0  0
   15.7288   70.6511   -8.7234 O   0  0  0  0  0  0  0  0  0  0  0  0
   16.2927   72.2785   -7.0386 C   0  0  2  0  0  0  0  0  0  0  0  0
   17.4665   72.9457   -6.3213 C   0  0  2  0  0  0  0  0  0  0  0  0
   16.7924   71.4670   -8.2360 C   0  0  1  0  0  0  0  0  0  0  0  0
   18.5555   71.9250   -5.9879 C   0  0  1  0  0  0  0  0  0  0  0  0
   17.9610   70.5653   -7.8492 C   0  0  1  0  0  0  0  0  0  0  0  0
   15.0687   73.8079   -6.7825 H   0  0  0  0  0  0  0  0  0  0  0  0
   16.3367   74.2140   -5.3218 H   0  0  0  0  0  0  0  0  0  0  0  0
   14.9786   71.2129   -8.9730 H   0  0  0  0  0  0  0  0  0  0  0  0
   19.8777   69.5592   -8.7524 O   0  0  0  0  0  0  0  0  0  0  0  0
   18.1712   70.0247  -10.1912 O   0  0  0  0  0  0  0  0  0  0  0  0
   18.6470   70.0348   -9.0658 C   0  0  0  0  0  0  0  0  0  0  0  0
  1  4  1  0
  1 24  1  0
  1  2  1  6
  1  3  2  0
 25 28  1  0
 25 24  1  0
 25 26  1  6
 25 27  2  0
  6 11  1  0
  6 12  1  0
 29 36  1  0
 29 37  1  0
  9  7  1  6
  7 13  1  0
 10  8  1  6
  8 14  1  0
  4  5  1  0
 36 28  1  1
 33 30  1  6
 30 38  1  0
 34 31  1  1
 31 39  1  0
 35 32  1  1
 32 40  1  0
 41 43  1  0
 15 19  2  0
 42 43  2  0
 16 22  2  0
 12 17  1  1
 17 19  1  0
 17 20  1  0
 18 19  1  0
 18 22  1  0
 18 23  1  0
  9 10  1  0
  9 11  1  0
 10 12  1  0
 11  5  1  1
 33 34  1  0
 33 35  1  0
 34 36  1  0
 35 37  1  0
 37 43  1  6
 20 21  2  0
 21 22  1  0
M  CHG  3   2  -1  26  -1  41  -1
M  END
>  <COMPND>  (519) 
    udp_gluA.pdb 

>  <AUTHOR>  (519) 
    GENERATED BY OPEN BABEL 3.1.1

>  <MASTER>  (519) 
        0    0    0    0    0    0    0    0   56    0   56    0

>  <minimizedAffinity>  (519) 
-6.55575

>  <CNNscore>  (519) 
0.5243519545

>  <CNNaffinity>  (519) 
4.1795797348

>  <CNN_VS>  (519) 
2.1915707588

>  <CNNaffinity_variance>  (519) 
0.0244502798

$$$$
520
     RDKit          3D

 43 45  0  0  0  0  0  0  0  0999 V2000
   22.8684   71.0560    0.8966 P   0  0  2  0  0  0  0  0  0  0  0  0
   21.5690   70.0982    0.7821 O   0  0  0  0  0  0  0  0  0  0  0  0
   23.7780   70.7544    2.0513 O   0  0  0  0  0  0  0  0  0  0  0  0
   22.2529   72.5519    0.8590 O   0  0  0  0  0  0  0  0  0  0  0  0
   22.5053   73.4145    1.9530 C   0  0  0  0  0  0  0  0  0  0  0  0
   22.4358   72.7699    4.2676 O   0  0  0  0  0  0  0  0  0  0  0  0
   19.5311   73.5104    4.1942 O   0  0  0  0  0  0  0  0  0  0  0  0
   20.6686   75.6785    5.3949 O   0  0  0  0  0  0  0  0  0  0  0  0
   20.6364   74.1211    3.5279 C   0  0  1  0  0  0  0  0  0  0  0  0
   21.4664   74.9179    4.5120 C   0  0  2  0  0  0  0  0  0  0  0  0
   21.6027   73.0194    3.1147 C   0  0  1  0  0  0  0  0  0  0  0  0
   22.2472   73.8258    5.2230 C   0  0  2  0  0  0  0  0  0  0  0  0
   18.8998   74.1948    4.4678 H   0  0  0  0  0  0  0  0  0  0  0  0
   20.1921   76.3600    4.8944 H   0  0  0  0  0  0  0  0  0  0  0  0
   23.0890   73.7821    7.9185 O   0  0  0  0  0  0  0  0  0  0  0  0
   27.1951   75.5863    6.8559 O   0  0  0  0  0  0  0  0  0  0  0  0
   23.5312   74.2781    5.6787 N   0  0  0  0  0  0  0  0  0  0  0  0
   25.1329   74.6817    7.3868 N   0  0  0  0  0  0  0  0  0  0  0  0
   23.8549   74.2133    7.0546 C   0  0  0  0  0  0  0  0  0  0  0  0
   24.4542   74.7770    4.7676 C   0  0  0  0  0  0  0  0  0  0  0  0
   25.6686   75.2197    5.0993 C   0  0  0  0  0  0  0  0  0  0  0  0
   26.0851   75.1874    6.5167 C   0  0  0  0  0  0  0  0  0  0  0  0
   25.3802   74.6485    8.3392 H   0  0  0  0  0  0  0  0  0  0  0  0
   23.5565   70.9095   -0.5587 O   0  0  0  0  0  0  0  0  0  0  0  0
   23.2220   71.6275   -1.9681 P   0  0  2  0  0  0  0  0  0  0  0  0
   24.1726   70.8431   -3.0176 O   0  0  0  0  0  0  0  0  0  0  0  0
   23.4078   73.1173   -1.9595 O   0  0  0  0  0  0  0  0  0  0  0  0
   21.7272   71.1413   -2.3306 O   0  0  0  0  0  0  0  0  0  0  0  0
   20.5459   71.9041   -4.2363 O   0  0  0  0  0  0  0  0  0  0  0  0
   17.4669   70.6381   -1.7898 O   0  0  0  0  0  0  0  0  0  0  0  0
   19.7187   72.1342   -0.6825 O   0  0  0  0  0  0  0  0  0  0  0  0
   18.2837   69.0206   -4.0630 O   0  0  0  0  0  0  0  0  0  0  0  0
   18.7851   70.6260   -2.3378 C   0  0  2  0  0  0  0  0  0  0  0  0
   19.4620   71.9709   -2.0725 C   0  0  2  0  0  0  0  0  0  0  0  0
   18.6692   70.3762   -3.8431 C   0  0  1  0  0  0  0  0  0  0  0  0
   20.7811   72.0801   -2.8387 C   0  0  1  0  0  0  0  0  0  0  0  0
   19.9962   70.6272   -4.5533 C   0  0  1  0  0  0  0  0  0  0  0  0
   17.5155   70.7954   -0.8337 H   0  0  0  0  0  0  0  0  0  0  0  0
   18.8860   72.0658   -0.1902 H   0  0  0  0  0  0  0  0  0  0  0  0
   17.4405   68.8476   -3.6160 H   0  0  0  0  0  0  0  0  0  0  0  0
   20.9460   71.0876   -6.6480 O   0  0  0  0  0  0  0  0  0  0  0  0
   18.7554   70.4557   -6.6154 O   0  0  0  0  0  0  0  0  0  0  0  0
   19.8000   70.7043   -6.0325 C   0  0  0  0  0  0  0  0  0  0  0  0
  1  4  1  0
  1 24  1  0
  1  2  1  6
  1  3  2  0
 25 28  1  0
 25 24  1  0
 25 26  1  6
 25 27  2  0
  6 11  1  0
  6 12  1  0
 29 36  1  0
 29 37  1  0
  9  7  1  1
  7 13  1  0
 10  8  1  1
  8 14  1  0
  4  5  1  0
 36 28  1  1
 33 30  1  6
 30 38  1  0
 34 31  1  1
 31 39  1  0
 35 32  1  1
 32 40  1  0
 41 43  1  0
 15 19  2  0
 42 43  2  0
 16 22  2  0
 12 17  1  6
 17 19  1  0
 17 20  1  0
 18 19  1  0
 18 22  1  0
 18 23  1  0
  9 10  1  0
  9 11  1  0
 10 12  1  0
 11  5  1  6
 33 34  1  0
 33 35  1  0
 34 36  1  0
 35 37  1  0
 37 43  1  6
 20 21  2  0
 21 22  1  0
M  CHG  3   2  -1  26  -1  41  -1
M  END
>  <COMPND>  (520) 
    udp_gluA.pdb 

>  <AUTHOR>  (520) 
    GENERATED BY OPEN BABEL 3.1.1

>  <MASTER>  (520) 
        0    0    0    0    0    0    0    0   56    0   56    0

>  <minimizedAffinity>  (520) 
-6.51180

>  <CNNscore>  (520) 
0.5087805986

>  <CNNaffinity>  (520) 
4.0090060234

>  <CNN_VS>  (520) 
2.0397045612

>  <CNNaffinity_variance>  (520) 
0.0974263698

$$$$
521
     RDKit          3D

 43 45  0  0  0  0  0  0  0  0999 V2000
   23.0502   71.5832   -2.4781 P   0  0  2  0  0  0  0  0  0  0  0  0
   23.3125   73.0951   -1.9639 O   0  0  0  0  0  0  0  0  0  0  0  0
   24.2293   70.9221   -3.1295 O   0  0  0  0  0  0  0  0  0  0  0  0
   21.7213   71.7089   -3.3926 O   0  0  0  0  0  0  0  0  0  0  0  0
   20.9062   70.5638   -3.5617 C   0  0  0  0  0  0  0  0  0  0  0  0
   18.9226   71.5680   -4.4753 O   0  0  0  0  0  0  0  0  0  0  0  0
   17.4336   70.1948   -2.2643 O   0  0  0  0  0  0  0  0  0  0  0  0
   16.9448   68.5784   -4.4054 O   0  0  0  0  0  0  0  0  0  0  0  0
   18.5625   69.7410   -3.0114 C   0  0  1  0  0  0  0  0  0  0  0  0
   18.1384   69.3333   -4.4064 C   0  0  2  0  0  0  0  0  0  0  0  0
   19.4562   70.9422   -3.2883 C   0  0  1  0  0  0  0  0  0  0  0  0
   17.9788   70.6789   -5.0934 C   0  0  2  0  0  0  0  0  0  0  0  0
   16.8478   69.4446   -2.0753 H   0  0  0  0  0  0  0  0  0  0  0  0
   17.0983   67.7313   -3.9573 H   0  0  0  0  0  0  0  0  0  0  0  0
   16.0949   69.9058   -7.0503 O   0  0  0  0  0  0  0  0  0  0  0  0
   19.1423   70.4566  -10.4641 O   0  0  0  0  0  0  0  0  0  0  0  0
   18.2532   70.6115   -6.5009 N   0  0  0  0  0  0  0  0  0  0  0  0
   17.6148   70.1799   -8.7486 N   0  0  0  0  0  0  0  0  0  0  0  0
   17.2367   70.2109   -7.3998 C   0  0  0  0  0  0  0  0  0  0  0  0
   19.5160   70.9415   -6.9778 C   0  0  0  0  0  0  0  0  0  0  0  0
   19.8614   70.9072   -8.2663 C   0  0  0  0  0  0  0  0  0  0  0  0
   18.8579   70.4984   -9.2709 C   0  0  0  0  0  0  0  0  0  0  0  0
   16.9244   69.9020   -9.3932 H   0  0  0  0  0  0  0  0  0  0  0  0
   22.5084   70.8372   -1.1504 O   0  0  0  0  0  0  0  0  0  0  0  0
   21.7864   71.4189    0.1740 P   0  0  2  0  0  0  0  0  0  0  0  0
   21.3251   70.0817    0.9612 O   0  0  0  0  0  0  0  0  0  0  0  0
   20.6733   72.3866   -0.1061 O   0  0  0  0  0  0  0  0  0  0  0  0
   22.9890   72.0213    1.0647 O   0  0  0  0  0  0  0  0  0  0  0  0
   24.7099   71.3920    2.5653 O   0  0  0  0  0  0  0  0  0  0  0  0
   22.6456   74.2004    4.7833 O   0  0  0  0  0  0  0  0  0  0  0  0
   21.2043   72.2222    3.1885 O   0  0  0  0  0  0  0  0  0  0  0  0
   25.1957   74.8876    3.5687 O   0  0  0  0  0  0  0  0  0  0  0  0
   23.1594   73.6001    3.5944 C   0  0  2  0  0  0  0  0  0  0  0  0
   22.6016   72.1835    3.4541 C   0  0  2  0  0  0  0  0  0  0  0  0
   24.6853   73.5627    3.7049 C   0  0  1  0  0  0  0  0  0  0  0  0
   23.3028   71.4289    2.3238 C   0  0  1  0  0  0  0  0  0  0  0  0
   25.3014   72.6884    2.6166 C   0  0  1  0  0  0  0  0  0  0  0  0
   21.6772   74.2349    4.7358 H   0  0  0  0  0  0  0  0  0  0  0  0
   20.7531   72.6999    3.9017 H   0  0  0  0  0  0  0  0  0  0  0  0
   24.8112   75.4545    4.2555 H   0  0  0  0  0  0  0  0  0  0  0  0
   27.0462   71.1217    2.5639 O   0  0  0  0  0  0  0  0  0  0  0  0
   27.5218   73.1796    3.4228 O   0  0  0  0  0  0  0  0  0  0  0  0
   26.7336   72.3917    2.9220 C   0  0  0  0  0  0  0  0  0  0  0  0
  1  4  1  0
  1 24  1  0
  1  2  1  1
  1  3  2  0
 25 28  1  0
 25 24  1  0
 25 26  1  1
 25 27  2  0
  6 11  1  0
  6 12  1  0
 29 36  1  0
 29 37  1  0
  9  7  1  1
  7 13  1  0
 10  8  1  1
  8 14  1  0
  4  5  1  0
 36 28  1  6
 33 30  1  1
 30 38  1  0
 34 31  1  6
 31 39  1  0
 35 32  1  6
 32 40  1  0
 41 43  1  0
 15 19  2  0
 42 43  2  0
 16 22  2  0
 12 17  1  6
 17 19  1  0
 17 20  1  0
 18 19  1  0
 18 22  1  0
 18 23  1  0
  9 10  1  0
  9 11  1  0
 10 12  1  0
 11  5  1  6
 33 34  1  0
 33 35  1  0
 34 36  1  0
 35 37  1  0
 37 43  1  1
 20 21  2  0
 21 22  1  0
M  CHG  3   2  -1  26  -1  41  -1
M  END
>  <COMPND>  (521) 
    udp_gluA.pdb 

>  <AUTHOR>  (521) 
    GENERATED BY OPEN BABEL 3.1.1

>  <MASTER>  (521) 
        0    0    0    0    0    0    0    0   56    0   56    0

>  <minimizedAffinity>  (521) 
-8.29244

>  <CNNscore>  (521) 
0.9120021462

>  <CNNaffinity>  (521) 
4.7581048012

>  <CNN_VS>  (521) 
4.3394017220

>  <CNNaffinity_variance>  (521) 
0.0725363865

$$$$
522
     RDKit          3D

 43 45  0  0  0  0  0  0  0  0999 V2000
   21.2848   71.3168   -2.0100 P   0  0  2  0  0  0  0  0  0  0  0  0
   22.8370   71.0366   -2.3718 O   0  0  0  0  0  0  0  0  0  0  0  0
   20.7604   70.5496   -0.8318 O   0  0  0  0  0  0  0  0  0  0  0  0
   20.5095   71.0725   -3.4090 O   0  0  0  0  0  0  0  0  0  0  0  0
   19.6438   69.9574   -3.5164 C   0  0  0  0  0  0  0  0  0  0  0  0
   17.9745   71.2388   -4.6781 O   0  0  0  0  0  0  0  0  0  0  0  0
   15.9594   69.7977   -2.9887 O   0  0  0  0  0  0  0  0  0  0  0  0
   15.8085   68.4652   -5.3631 O   0  0  0  0  0  0  0  0  0  0  0  0
   17.1823   69.3150   -3.5457 C   0  0  1  0  0  0  0  0  0  0  0  0
   17.0289   69.0961   -5.0360 C   0  0  2  0  0  0  0  0  0  0  0  0
   18.2010   70.4454   -3.4929 C   0  0  1  0  0  0  0  0  0  0  0  0
   17.1166   70.5142   -5.5738 C   0  0  2  0  0  0  0  0  0  0  0  0
   15.2929   69.0928   -3.0115 H   0  0  0  0  0  0  0  0  0  0  0  0
   15.8018   67.5656   -4.9988 H   0  0  0  0  0  0  0  0  0  0  0  0
   15.6050   70.2898   -7.9488 O   0  0  0  0  0  0  0  0  0  0  0  0
   19.3551   70.7243  -10.5930 O   0  0  0  0  0  0  0  0  0  0  0  0
   17.6725   70.5653   -6.8963 N   0  0  0  0  0  0  0  0  0  0  0  0
   17.4743   70.5054   -9.2635 N   0  0  0  0  0  0  0  0  0  0  0  0
   16.8257   70.4423   -8.0232 C   0  0  0  0  0  0  0  0  0  0  0  0
   19.0408   70.7371   -7.0674 C   0  0  0  0  0  0  0  0  0  0  0  0
   19.6446   70.7954   -8.2561 C   0  0  0  0  0  0  0  0  0  0  0  0
   18.8316   70.6744   -9.4840 C   0  0  0  0  0  0  0  0  0  0  0  0
   16.9057   70.4201  -10.0627 H   0  0  0  0  0  0  0  0  0  0  0  0
   21.2355   72.9238   -1.8430 O   0  0  0  0  0  0  0  0  0  0  0  0
   20.8283   73.8478   -0.5804 P   0  0  2  0  0  0  0  0  0  0  0  0
   21.1879   75.3432   -1.0852 O   0  0  0  0  0  0  0  0  0  0  0  0
   21.4894   73.4547    0.7090 O   0  0  0  0  0  0  0  0  0  0  0  0
   19.2160   73.8064   -0.5459 O   0  0  0  0  0  0  0  0  0  0  0  0
   17.5312   74.3488   -2.1196 O   0  0  0  0  0  0  0  0  0  0  0  0
   15.8544   75.6993    1.4064 O   0  0  0  0  0  0  0  0  0  0  0  0
   18.6837   76.1577    0.8412 O   0  0  0  0  0  0  0  0  0  0  0  0
   14.9191   73.2256    0.1994 O   0  0  0  0  0  0  0  0  0  0  0  0
   16.6565   74.8494    0.5865 C   0  0  2  0  0  0  0  0  0  0  0  0
   17.7372   75.6790   -0.1073 C   0  0  2  0  0  0  0  0  0  0  0  0
   15.7423   74.1925   -0.4502 C   0  0  1  0  0  0  0  0  0  0  0  0
   18.4676   74.8509   -1.1654 C   0  0  1  0  0  0  0  0  0  0  0  0
   16.5488   73.4929   -1.5404 C   0  0  1  0  0  0  0  0  0  0  0  0
   16.4141   76.1279    2.0729 H   0  0  0  0  0  0  0  0  0  0  0  0
   18.2271   76.6838    1.5158 H   0  0  0  0  0  0  0  0  0  0  0  0
   14.4006   73.6580    0.8958 H   0  0  0  0  0  0  0  0  0  0  0  0
   16.0332   73.8638   -3.7983 O   0  0  0  0  0  0  0  0  0  0  0  0
   14.7714   72.3272   -2.6821 O   0  0  0  0  0  0  0  0  0  0  0  0
   15.6784   73.1457   -2.7041 C   0  0  0  0  0  0  0  0  0  0  0  0
  1  4  1  0
  1 24  1  0
  1  2  1  6
  1  3  2  0
 25 28  1  0
 25 24  1  0
 25 26  1  6
 25 27  2  0
  6 11  1  0
  6 12  1  0
 29 36  1  0
 29 37  1  0
  9  7  1  6
  7 13  1  0
 10  8  1  1
  8 14  1  0
  4  5  1  0
 36 28  1  1
 33 30  1  1
 30 38  1  0
 34 31  1  1
 31 39  1  0
 35 32  1  1
 32 40  1  0
 41 43  1  0
 15 19  2  0
 42 43  2  0
 16 22  2  0
 12 17  1  6
 17 19  1  0
 17 20  1  0
 18 19  1  0
 18 22  1  0
 18 23  1  0
  9 10  1  0
  9 11  1  0
 10 12  1  0
 11  5  1  6
 33 34  1  0
 33 35  1  0
 34 36  1  0
 35 37  1  0
 37 43  1  6
 20 21  2  0
 21 22  1  0
M  CHG  3   2  -1  26  -1  41  -1
M  END
>  <COMPND>  (522) 
    udp_gluA.pdb 

>  <AUTHOR>  (522) 
    GENERATED BY OPEN BABEL 3.1.1

>  <MASTER>  (522) 
        0    0    0    0    0    0    0    0   56    0   56    0

>  <minimizedAffinity>  (522) 
-6.04757

>  <CNNscore>  (522) 
0.9051161408

>  <CNNaffinity>  (522) 
4.5925207138

>  <CNN_VS>  (522) 
4.1567645073

>  <CNNaffinity_variance>  (522) 
0.0823690742

$$$$
523
     RDKit          3D

 43 45  0  0  0  0  0  0  0  0999 V2000
   22.7097   72.2276   -4.2483 P   0  0  2  0  0  0  0  0  0  0  0  0
   23.2716   72.8695   -5.6234 O   0  0  0  0  0  0  0  0  0  0  0  0
   23.7241   71.4721   -3.4409 O   0  0  0  0  0  0  0  0  0  0  0  0
   21.4124   71.3813   -4.7162 O   0  0  0  0  0  0  0  0  0  0  0  0
   20.7893   70.5245   -3.7770 C   0  0  0  0  0  0  0  0  0  0  0  0
   18.8950   71.6479   -4.7400 O   0  0  0  0  0  0  0  0  0  0  0  0
   17.2792   70.4179   -2.5337 O   0  0  0  0  0  0  0  0  0  0  0  0
   16.7139   68.8036   -4.6575 O   0  0  0  0  0  0  0  0  0  0  0  0
   18.3858   69.8748   -3.2541 C   0  0  1  0  0  0  0  0  0  0  0  0
   17.9568   69.4742   -4.6497 C   0  0  2  0  0  0  0  0  0  0  0  0
   19.3648   71.0067   -3.5344 C   0  0  1  0  0  0  0  0  0  0  0  0
   17.9018   70.8159   -5.3602 C   0  0  2  0  0  0  0  0  0  0  0  0
   16.6398   69.7132   -2.3431 H   0  0  0  0  0  0  0  0  0  0  0  0
   16.8011   67.9555   -4.1937 H   0  0  0  0  0  0  0  0  0  0  0  0
   15.9914   70.1842   -7.3421 O   0  0  0  0  0  0  0  0  0  0  0  0
   19.1335   70.4221  -10.7058 O   0  0  0  0  0  0  0  0  0  0  0  0
   18.1935   70.7062   -6.7615 N   0  0  0  0  0  0  0  0  0  0  0  0
   17.5584   70.3023   -9.0154 N   0  0  0  0  0  0  0  0  0  0  0  0
   17.1614   70.3839   -7.6742 C   0  0  0  0  0  0  0  0  0  0  0  0
   19.4882   70.9185   -7.2192 C   0  0  0  0  0  0  0  0  0  0  0  0
   19.8514   70.8373   -8.5007 C   0  0  0  0  0  0  0  0  0  0  0  0
   18.8334   70.5042   -9.5186 C   0  0  0  0  0  0  0  0  0  0  0  0
   16.8576   70.0771   -9.6692 H   0  0  0  0  0  0  0  0  0  0  0  0
   22.0600   73.5003   -3.4926 O   0  0  0  0  0  0  0  0  0  0  0  0
   22.7133   74.5851   -2.4876 P   0  0  2  0  0  0  0  0  0  0  0  0
   22.2212   76.0003   -3.1004 O   0  0  0  0  0  0  0  0  0  0  0  0
   24.2015   74.4626   -2.3322 O   0  0  0  0  0  0  0  0  0  0  0  0
   21.8813   74.4245   -1.1149 O   0  0  0  0  0  0  0  0  0  0  0  0
   21.3049   72.2508   -0.3718 O   0  0  0  0  0  0  0  0  0  0  0  0
   18.7829   74.6107    1.8951 O   0  0  0  0  0  0  0  0  0  0  0  0
   19.2159   75.1982   -0.9336 O   0  0  0  0  0  0  0  0  0  0  0  0
   21.1420   73.4166    3.1034 O   0  0  0  0  0  0  0  0  0  0  0  0
   19.9782   74.2905    1.1833 C   0  0  2  0  0  0  0  0  0  0  0  0
   19.6415   74.0076   -0.2810 C   0  0  2  0  0  0  0  0  0  0  0  0
   20.5998   73.0533    1.8351 C   0  0  1  0  0  0  0  0  0  0  0  0
   20.8534   73.4399   -1.0212 C   0  0  1  0  0  0  0  0  0  0  0  0
   21.7184   72.4729    0.9746 C   0  0  1  0  0  0  0  0  0  0  0  0
   18.3702   75.3940    1.4986 H   0  0  0  0  0  0  0  0  0  0  0  0
   18.4473   75.5640   -0.4690 H   0  0  0  0  0  0  0  0  0  0  0  0
   20.4402   73.7876    3.6607 H   0  0  0  0  0  0  0  0  0  0  0  0
   22.9732   71.1711    2.4687 O   0  0  0  0  0  0  0  0  0  0  0  0
   21.6616   70.0608    0.9700 O   0  0  0  0  0  0  0  0  0  0  0  0
   22.0905   71.1033    1.4415 C   0  0  0  0  0  0  0  0  0  0  0  0
  1  4  1  0
  1 24  1  0
  1  2  1  6
  1  3  2  0
 25 28  1  0
 25 24  1  0
 25 26  1  6
 25 27  2  0
  6 11  1  0
  6 12  1  0
 29 36  1  0
 29 37  1  0
  9  7  1  1
  7 13  1  0
 10  8  1  1
  8 14  1  0
  4  5  1  0
 36 28  1  1
 33 30  1  1
 30 38  1  0
 34 31  1  6
 31 39  1  0
 35 32  1  1
 32 40  1  0
 41 43  1  0
 15 19  2  0
 42 43  2  0
 16 22  2  0
 12 17  1  6
 17 19  1  0
 17 20  1  0
 18 19  1  0
 18 22  1  0
 18 23  1  0
  9 10  1  0
  9 11  1  0
 10 12  1  0
 11  5  1  6
 33 34  1  0
 33 35  1  0
 34 36  1  0
 35 37  1  0
 37 43  1  1
 20 21  2  0
 21 22  1  0
M  CHG  3   2  -1  26  -1  41  -1
M  END
>  <COMPND>  (523) 
    udp_gluA.pdb 

>  <AUTHOR>  (523) 
    GENERATED BY OPEN BABEL 3.1.1

>  <MASTER>  (523) 
        0    0    0    0    0    0    0    0   56    0   56    0

>  <minimizedAffinity>  (523) 
-7.42163

>  <CNNscore>  (523) 
0.8773469925

>  <CNNaffinity>  (523) 
4.7100811005

>  <CNN_VS>  (523) 
4.1323757172

>  <CNNaffinity_variance>  (523) 
0.0173314214

$$$$
524
     RDKit          3D

 43 45  0  0  0  0  0  0  0  0999 V2000
   20.4292   71.2533   -1.3799 P   0  0  2  0  0  0  0  0  0  0  0  0
   20.9276   70.5752    0.0024 O   0  0  0  0  0  0  0  0  0  0  0  0
   19.8867   72.6457   -1.2429 O   0  0  0  0  0  0  0  0  0  0  0  0
   19.4117   70.1609   -2.0038 O   0  0  0  0  0  0  0  0  0  0  0  0
   19.1011   70.2365   -3.3830 C   0  0  0  0  0  0  0  0  0  0  0  0
   17.4702   71.3186   -4.7783 O   0  0  0  0  0  0  0  0  0  0  0  0
   15.4087   69.7580   -3.2596 O   0  0  0  0  0  0  0  0  0  0  0  0
   15.6467   68.3360   -5.5742 O   0  0  0  0  0  0  0  0  0  0  0  0
   16.7245   69.3705   -3.6558 C   0  0  1  0  0  0  0  0  0  0  0  0
   16.7621   69.0871   -5.1426 C   0  0  2  0  0  0  0  0  0  0  0  0
   17.6280   70.5907   -3.5411 C   0  0  1  0  0  0  0  0  0  0  0  0
   16.7867   70.4878   -5.7302 C   0  0  2  0  0  0  0  0  0  0  0  0
   14.8131   68.9946   -3.3246 H   0  0  0  0  0  0  0  0  0  0  0  0
   15.6769   67.4527   -5.1730 H   0  0  0  0  0  0  0  0  0  0  0  0
   15.5231   70.5579   -8.2550 O   0  0  0  0  0  0  0  0  0  0  0  0
   19.5599   70.7022  -10.4747 O   0  0  0  0  0  0  0  0  0  0  0  0
   17.4834   70.5439   -6.9841 N   0  0  0  0  0  0  0  0  0  0  0  0
   17.5349   70.6287   -9.3582 N   0  0  0  0  0  0  0  0  0  0  0  0
   16.7540   70.5754   -8.1961 C   0  0  0  0  0  0  0  0  0  0  0  0
   18.8726   70.5689   -7.0051 C   0  0  0  0  0  0  0  0  0  0  0  0
   19.6031   70.6199   -8.1207 C   0  0  0  0  0  0  0  0  0  0  0  0
   18.9183   70.6547   -9.4296 C   0  0  0  0  0  0  0  0  0  0  0  0
   17.0494   70.6493  -10.2145 H   0  0  0  0  0  0  0  0  0  0  0  0
   21.7276   71.1274   -2.3345 O   0  0  0  0  0  0  0  0  0  0  0  0
   22.9407   72.1577   -2.6177 P   0  0  2  0  0  0  0  0  0  0  0  0
   24.0321   71.2418   -3.3862 O   0  0  0  0  0  0  0  0  0  0  0  0
   23.4646   72.8446   -1.3899 O   0  0  0  0  0  0  0  0  0  0  0  0
   22.3745   73.1547   -3.7525 O   0  0  0  0  0  0  0  0  0  0  0  0
   20.1373   73.3459   -4.5060 O   0  0  0  0  0  0  0  0  0  0  0  0
   22.2551   74.5131   -7.8556 O   0  0  0  0  0  0  0  0  0  0  0  0
   23.1453   72.2330   -6.2610 O   0  0  0  0  0  0  0  0  0  0  0  0
   20.9170   76.5007   -6.2094 O   0  0  0  0  0  0  0  0  0  0  0  0
   22.0052   74.3655   -6.4579 C   0  0  2  0  0  0  0  0  0  0  0  0
   21.8870   72.8806   -6.1133 C   0  0  2  0  0  0  0  0  0  0  0  0
   20.6991   75.0932   -6.1316 C   0  0  1  0  0  0  0  0  0  0  0  0
   21.3939   72.6896   -4.6782 C   0  0  1  0  0  0  0  0  0  0  0  0
   20.2073   74.7527   -4.7278 C   0  0  1  0  0  0  0  0  0  0  0  0
   23.0805   74.0585   -8.0865 H   0  0  0  0  0  0  0  0  0  0  0  0
   23.4642   72.3504   -7.1692 H   0  0  0  0  0  0  0  0  0  0  0  0
   21.2305   76.7307   -7.0981 H   0  0  0  0  0  0  0  0  0  0  0  0
   18.1323   74.3439   -3.7137 O   0  0  0  0  0  0  0  0  0  0  0  0
   18.2905   76.1811   -5.0548 O   0  0  0  0  0  0  0  0  0  0  0  0
   18.7919   75.1927   -4.5402 C   0  0  0  0  0  0  0  0  0  0  0  0
  1  4  1  0
  1 24  1  0
  1  2  1  1
  1  3  2  0
 25 28  1  0
 25 24  1  0
 25 26  1  6
 25 27  2  0
  6 11  1  0
  6 12  1  0
 29 36  1  0
 29 37  1  0
  9  7  1  6
  7 13  1  0
 10  8  1  6
  8 14  1  0
  4  5  1  0
 36 28  1  1
 33 30  1  6
 30 38  1  0
 34 31  1  1
 31 39  1  0
 35 32  1  1
 32 40  1  0
 41 43  1  0
 15 19  2  0
 42 43  2  0
 16 22  2  0
 12 17  1  6
 17 19  1  0
 17 20  1  0
 18 19  1  0
 18 22  1  0
 18 23  1  0
  9 10  1  0
  9 11  1  0
 10 12  1  0
 11  5  1  6
 33 34  1  0
 33 35  1  0
 34 36  1  0
 35 37  1  0
 37 43  1  6
 20 21  2  0
 21 22  1  0
M  CHG  3   2  -1  26  -1  41  -1
M  END
>  <COMPND>  (524) 
    udp_gluA.pdb 

>  <AUTHOR>  (524) 
    GENERATED BY OPEN BABEL 3.1.1

>  <MASTER>  (524) 
        0    0    0    0    0    0    0    0   56    0   56    0

>  <minimizedAffinity>  (524) 
-7.75902

>  <CNNscore>  (524) 
0.8725255132

>  <CNNaffinity>  (524) 
4.6531867981

>  <CNN_VS>  (524) 
4.0600242615

>  <CNNaffinity_variance>  (524) 
0.8535760045

$$$$
525
     RDKit          3D

 43 45  0  0  0  0  0  0  0  0999 V2000
   21.4699   72.6123   -4.7160 P   0  0  2  0  0  0  0  0  0  0  0  0
   21.3589   74.2160   -4.5294 O   0  0  0  0  0  0  0  0  0  0  0  0
   22.3697   72.1649   -5.8303 O   0  0  0  0  0  0  0  0  0  0  0  0
   19.9301   72.1256   -4.8178 O   0  0  0  0  0  0  0  0  0  0  0  0
   19.3981   71.3411   -3.7661 C   0  0  0  0  0  0  0  0  0  0  0  0
   17.5205   71.7107   -5.2206 O   0  0  0  0  0  0  0  0  0  0  0  0
   15.9129   70.1353   -3.2394 O   0  0  0  0  0  0  0  0  0  0  0  0
   16.3856   68.3099   -5.2092 O   0  0  0  0  0  0  0  0  0  0  0  0
   17.2680   69.9547   -3.6510 C   0  0  1  0  0  0  0  0  0  0  0  0
   17.3183   69.3569   -5.0411 C   0  0  2  0  0  0  0  0  0  0  0  0
   17.8787   71.3315   -3.8740 C   0  0  1  0  0  0  0  0  0  0  0  0
   17.0089   70.5614   -5.9138 C   0  0  2  0  0  0  0  0  0  0  0  0
   15.5016   69.2691   -3.0908 H   0  0  0  0  0  0  0  0  0  0  0  0
   16.6262   67.5669   -4.6329 H   0  0  0  0  0  0  0  0  0  0  0  0
   15.6337   70.8009   -8.3690 O   0  0  0  0  0  0  0  0  0  0  0  0
   19.5053   70.2254  -10.8028 O   0  0  0  0  0  0  0  0  0  0  0  0
   17.6329   70.4781   -7.2039 N   0  0  0  0  0  0  0  0  0  0  0  0
   17.5631   70.5131   -9.5788 N   0  0  0  0  0  0  0  0  0  0  0  0
   16.8515   70.6117   -8.3759 C   0  0  0  0  0  0  0  0  0  0  0  0
   19.0032   70.2683   -7.2993 C   0  0  0  0  0  0  0  0  0  0  0  0
   19.6675   70.1766   -8.4530 C   0  0  0  0  0  0  0  0  0  0  0  0
   18.9250   70.3043   -9.7242 C   0  0  0  0  0  0  0  0  0  0  0  0
   17.0401   70.6008  -10.4084 H   0  0  0  0  0  0  0  0  0  0  0  0
   21.9146   72.1059   -3.2467 O   0  0  0  0  0  0  0  0  0  0  0  0
   23.3727   72.0020   -2.5562 P   0  0  2  0  0  0  0  0  0  0  0  0
   24.0835   73.3926   -2.9820 O   0  0  0  0  0  0  0  0  0  0  0  0
   24.1461   70.7716   -2.9327 O   0  0  0  0  0  0  0  0  0  0  0  0
   23.0890   72.1570   -0.9757 O   0  0  0  0  0  0  0  0  0  0  0  0
   24.3630   71.0551    0.6893 O   0  0  0  0  0  0  0  0  0  0  0  0
   20.8385   71.8279    2.7015 O   0  0  0  0  0  0  0  0  0  0  0  0
   20.7893   70.8862   -0.0635 O   0  0  0  0  0  0  0  0  0  0  0  0
   23.2043   73.4312    3.2337 O   0  0  0  0  0  0  0  0  0  0  0  0
   21.8777   72.0700    1.7531 C   0  0  2  0  0  0  0  0  0  0  0  0
   21.9476   70.9075    0.7626 C   0  0  2  0  0  0  0  0  0  0  0  0
   23.1966   72.1970    2.5188 C   0  0  1  0  0  0  0  0  0  0  0  0
   23.1893   71.0176   -0.1234 C   0  0  1  0  0  0  0  0  0  0  0  0
   24.3941   72.1734    1.5734 C   0  0  1  0  0  0  0  0  0  0  0  0
   19.9905   71.7436    2.2378 H   0  0  0  0  0  0  0  0  0  0  0  0
   19.9976   70.8167    0.4922 H   0  0  0  0  0  0  0  0  0  0  0  0
   22.4469   73.4590    3.8390 H   0  0  0  0  0  0  0  0  0  0  0  0
   26.1288   70.7048    2.1525 O   0  0  0  0  0  0  0  0  0  0  0  0
   26.2173   72.8121    3.0188 O   0  0  0  0  0  0  0  0  0  0  0  0
   25.6647   71.9663    2.3317 C   0  0  0  0  0  0  0  0  0  0  0  0
  1  4  1  0
  1 24  1  0
  1  2  1  1
  1  3  2  0
 25 28  1  0
 25 24  1  0
 25 26  1  6
 25 27  2  0
  6 11  1  0
  6 12  1  0
 29 36  1  0
 29 37  1  0
  9  7  1  6
  7 13  1  0
 10  8  1  1
  8 14  1  0
  4  5  1  0
 36 28  1  1
 33 30  1  1
 30 38  1  0
 34 31  1  6
 31 39  1  0
 35 32  1  6
 32 40  1  0
 41 43  1  0
 15 19  2  0
 42 43  2  0
 16 22  2  0
 12 17  1  6
 17 19  1  0
 17 20  1  0
 18 19  1  0
 18 22  1  0
 18 23  1  0
  9 10  1  0
  9 11  1  0
 10 12  1  0
 11  5  1  6
 33 34  1  0
 33 35  1  0
 34 36  1  0
 35 37  1  0
 37 43  1  1
 20 21  2  0
 21 22  1  0
M  CHG  3   2  -1  26  -1  41  -1
M  END
>  <COMPND>  (525) 
    udp_gluA.pdb 

>  <AUTHOR>  (525) 
    GENERATED BY OPEN BABEL 3.1.1

>  <MASTER>  (525) 
        0    0    0    0    0    0    0    0   56    0   56    0

>  <minimizedAffinity>  (525) 
-8.47558

>  <CNNscore>  (525) 
0.8703295588

>  <CNNaffinity>  (525) 
4.7545185089

>  <CNN_VS>  (525) 
4.1379981041

>  <CNNaffinity_variance>  (525) 
0.0388240442

$$$$
526
     RDKit          3D

 43 45  0  0  0  0  0  0  0  0999 V2000
   20.8366   72.4915   -4.6744 P   0  0  2  0  0  0  0  0  0  0  0  0
   20.1559   73.7733   -5.3903 O   0  0  0  0  0  0  0  0  0  0  0  0
   21.1922   71.3642   -5.5987 O   0  0  0  0  0  0  0  0  0  0  0  0
   19.8097   72.1230   -3.4795 O   0  0  0  0  0  0  0  0  0  0  0  0
   19.1590   70.8660   -3.5108 C   0  0  0  0  0  0  0  0  0  0  0  0
   17.4116   71.6929   -4.9392 O   0  0  0  0  0  0  0  0  0  0  0  0
   15.5221   70.1081   -3.2333 O   0  0  0  0  0  0  0  0  0  0  0  0
   15.8190   68.5183   -5.4289 O   0  0  0  0  0  0  0  0  0  0  0  0
   16.8552   69.7941   -3.6370 C   0  0  1  0  0  0  0  0  0  0  0  0
   16.8795   69.3894   -5.0957 C   0  0  2  0  0  0  0  0  0  0  0  0
   17.6585   71.0874   -3.6517 C   0  0  1  0  0  0  0  0  0  0  0  0
   16.7752   70.7328   -5.7974 C   0  0  2  0  0  0  0  0  0  0  0  0
   14.9896   69.2971   -3.2165 H   0  0  0  0  0  0  0  0  0  0  0  0
   15.9311   67.6774   -4.9573 H   0  0  0  0  0  0  0  0  0  0  0  0
   15.9274   72.2478   -8.0251 O   0  0  0  0  0  0  0  0  0  0  0  0
   19.3805   70.6732  -10.6406 O   0  0  0  0  0  0  0  0  0  0  0  0
   17.4343   70.7375   -7.0728 N   0  0  0  0  0  0  0  0  0  0  0  0
   17.6475   71.4613   -9.3260 N   0  0  0  0  0  0  0  0  0  0  0  0
   16.9270   71.5340   -8.1265 C   0  0  0  0  0  0  0  0  0  0  0  0
   18.5700   69.9613   -7.2695 C   0  0  0  0  0  0  0  0  0  0  0  0
   19.2460   69.9025   -8.4185 C   0  0  0  0  0  0  0  0  0  0  0  0
   18.7817   70.7038   -9.5698 C   0  0  0  0  0  0  0  0  0  0  0  0
   17.3122   72.0056  -10.0748 H   0  0  0  0  0  0  0  0  0  0  0  0
   22.0917   73.1390   -3.8881 O   0  0  0  0  0  0  0  0  0  0  0  0
   23.3922   72.4525   -3.2167 P   0  0  2  0  0  0  0  0  0  0  0  0
   24.6057   72.9546   -4.1632 O   0  0  0  0  0  0  0  0  0  0  0  0
   23.2964   70.9611   -3.0732 O   0  0  0  0  0  0  0  0  0  0  0  0
   23.6034   73.2465   -1.8283 O   0  0  0  0  0  0  0  0  0  0  0  0
   21.8442   72.7719   -0.3155 O   0  0  0  0  0  0  0  0  0  0  0  0
   24.0043   75.6092    1.7705 O   0  0  0  0  0  0  0  0  0  0  0  0
   23.5189   75.9274   -1.0926 O   0  0  0  0  0  0  0  0  0  0  0  0
   24.1845   72.8036    2.5101 O   0  0  0  0  0  0  0  0  0  0  0  0
   23.8142   74.5232    0.8637 C   0  0  2  0  0  0  0  0  0  0  0  0
   22.8824   74.9584   -0.2677 C   0  0  2  0  0  0  0  0  0  0  0  0
   23.1979   73.3590    1.6426 C   0  0  1  0  0  0  0  0  0  0  0  0
   22.4725   73.7631   -1.1292 C   0  0  1  0  0  0  0  0  0  0  0  0
   22.7002   72.2628    0.7050 C   0  0  1  0  0  0  0  0  0  0  0  0
   24.3950   76.3609    1.2977 H   0  0  0  0  0  0  0  0  0  0  0  0
   23.7820   76.6886   -0.5524 H   0  0  0  0  0  0  0  0  0  0  0  0
   24.5097   73.4911    3.1121 H   0  0  0  0  0  0  0  0  0  0  0  0
   21.3058   71.8743    2.5506 O   0  0  0  0  0  0  0  0  0  0  0  0
   21.5848   70.1561    1.0778 O   0  0  0  0  0  0  0  0  0  0  0  0
   21.8187   71.3014    1.4336 C   0  0  0  0  0  0  0  0  0  0  0  0
  1  4  1  0
  1 24  1  0
  1  2  1  6
  1  3  2  0
 25 28  1  0
 25 24  1  0
 25 26  1  6
 25 27  2  0
  6 11  1  0
  6 12  1  0
 29 36  1  0
 29 37  1  0
  9  7  1  6
  7 13  1  0
 10  8  1  1
  8 14  1  0
  4  5  1  0
 36 28  1  1
 33 30  1  1
 30 38  1  0
 34 31  1  6
 31 39  1  0
 35 32  1  1
 32 40  1  0
 41 43  1  0
 15 19  2  0
 42 43  2  0
 16 22  2  0
 12 17  1  6
 17 19  1  0
 17 20  1  0
 18 19  1  0
 18 22  1  0
 18 23  1  0
  9 10  1  0
  9 11  1  0
 10 12  1  0
 11  5  1  6
 33 34  1  0
 33 35  1  0
 34 36  1  0
 35 37  1  0
 37 43  1  1
 20 21  2  0
 21 22  1  0
M  CHG  3   2  -1  26  -1  41  -1
M  END
>  <COMPND>  (526) 
    udp_gluA.pdb 

>  <AUTHOR>  (526) 
    GENERATED BY OPEN BABEL 3.1.1

>  <MASTER>  (526) 
        0    0    0    0    0    0    0    0   56    0   56    0

>  <minimizedAffinity>  (526) 
-7.56121

>  <CNNscore>  (526) 
0.8600901961

>  <CNNaffinity>  (526) 
4.6614351273

>  <CNN_VS>  (526) 
4.0092544556

>  <CNNaffinity_variance>  (526) 
0.1062404513

$$$$
527
     RDKit          3D

 43 45  0  0  0  0  0  0  0  0999 V2000
   20.4286   71.1761   -1.4065 P   0  0  2  0  0  0  0  0  0  0  0  0
   20.8548   70.6014    0.0451 O   0  0  0  0  0  0  0  0  0  0  0  0
   19.8833   72.5741   -1.3993 O   0  0  0  0  0  0  0  0  0  0  0  0
   19.4412   70.0398   -1.9996 O   0  0  0  0  0  0  0  0  0  0  0  0
   19.1072   70.0850   -3.3747 C   0  0  0  0  0  0  0  0  0  0  0  0
   17.5030   71.2523   -4.7317 O   0  0  0  0  0  0  0  0  0  0  0  0
   15.4032   69.7059   -3.2515 O   0  0  0  0  0  0  0  0  0  0  0  0
   15.5948   68.3461   -5.6075 O   0  0  0  0  0  0  0  0  0  0  0  0
   16.7066   69.2938   -3.6638 C   0  0  1  0  0  0  0  0  0  0  0  0
   16.7319   69.0530   -5.1583 C   0  0  2  0  0  0  0  0  0  0  0  0
   17.6441   70.4844   -3.5169 C   0  0  1  0  0  0  0  0  0  0  0  0
   16.7938   70.4691   -5.7049 C   0  0  2  0  0  0  0  0  0  0  0  0
   14.7865   68.9615   -3.3365 H   0  0  0  0  0  0  0  0  0  0  0  0
   15.6015   67.4510   -5.2324 H   0  0  0  0  0  0  0  0  0  0  0  0
   15.5267   70.5250   -8.2283 O   0  0  0  0  0  0  0  0  0  0  0  0
   19.5581   70.7515  -10.4511 O   0  0  0  0  0  0  0  0  0  0  0  0
   17.4882   70.5425   -6.9592 N   0  0  0  0  0  0  0  0  0  0  0  0
   17.5358   70.6367   -9.3330 N   0  0  0  0  0  0  0  0  0  0  0  0
   16.7571   70.5649   -8.1704 C   0  0  0  0  0  0  0  0  0  0  0  0
   18.8767   70.5931   -6.9814 C   0  0  0  0  0  0  0  0  0  0  0  0
   19.6050   70.6615   -8.0974 C   0  0  0  0  0  0  0  0  0  0  0  0
   18.9184   70.6884   -9.4056 C   0  0  0  0  0  0  0  0  0  0  0  0
   17.0492   70.6515  -10.1888 H   0  0  0  0  0  0  0  0  0  0  0  0
   21.7732   70.9823   -2.2825 O   0  0  0  0  0  0  0  0  0  0  0  0
   22.9332   72.0311   -2.6926 P   0  0  2  0  0  0  0  0  0  0  0  0
   24.1314   71.0737   -3.2100 O   0  0  0  0  0  0  0  0  0  0  0  0
   23.3266   72.9750   -1.5933 O   0  0  0  0  0  0  0  0  0  0  0  0
   22.3816   72.7504   -4.0271 O   0  0  0  0  0  0  0  0  0  0  0  0
   22.7597   75.0618   -4.3784 O   0  0  0  0  0  0  0  0  0  0  0  0
   19.6804   74.3018   -7.0257 O   0  0  0  0  0  0  0  0  0  0  0  0
   19.6466   73.1451   -4.3433 O   0  0  0  0  0  0  0  0  0  0  0  0
   22.3980   74.6315   -8.0041 O   0  0  0  0  0  0  0  0  0  0  0  0
   20.8518   73.9995   -6.2678 C   0  0  2  0  0  0  0  0  0  0  0  0
   20.5508   74.1546   -4.7768 C   0  0  2  0  0  0  0  0  0  0  0  0
   21.9540   74.9726   -6.6923 C   0  0  1  0  0  0  0  0  0  0  0  0
   21.8326   74.0646   -3.9477 C   0  0  1  0  0  0  0  0  0  0  0  0
   23.1468   74.9121   -5.7425 C   0  0  1  0  0  0  0  0  0  0  0  0
   18.9662   73.6959   -6.7729 H   0  0  0  0  0  0  0  0  0  0  0  0
   18.8310   73.1962   -4.8655 H   0  0  0  0  0  0  0  0  0  0  0  0
   21.6481   74.6661   -8.6185 H   0  0  0  0  0  0  0  0  0  0  0  0
   25.1827   75.9495   -5.2129 O   0  0  0  0  0  0  0  0  0  0  0  0
   23.8331   77.0119   -6.7126 O   0  0  0  0  0  0  0  0  0  0  0  0
   24.0591   76.0747   -5.9619 C   0  0  0  0  0  0  0  0  0  0  0  0
  1  4  1  0
  1 24  1  0
  1  2  1  1
  1  3  2  0
 25 28  1  0
 25 24  1  0
 25 26  1  6
 25 27  2  0
  6 11  1  0
  6 12  1  0
 29 36  1  0
 29 37  1  0
  9  7  1  6
  7 13  1  0
 10  8  1  6
  8 14  1  0
  4  5  1  0
 36 28  1  6
 33 30  1  6
 30 38  1  0
 34 31  1  1
 31 39  1  0
 35 32  1  6
 32 40  1  0
 41 43  1  0
 15 19  2  0
 42 43  2  0
 16 22  2  0
 12 17  1  6
 17 19  1  0
 17 20  1  0
 18 19  1  0
 18 22  1  0
 18 23  1  0
  9 10  1  0
  9 11  1  0
 10 12  1  0
 11  5  1  6
 33 34  1  0
 33 35  1  0
 34 36  1  0
 35 37  1  0
 37 43  1  6
 20 21  2  0
 21 22  1  0
M  CHG  3   2  -1  26  -1  41  -1
M  END
>  <COMPND>  (527) 
    udp_gluA.pdb 

>  <AUTHOR>  (527) 
    GENERATED BY OPEN BABEL 3.1.1

>  <MASTER>  (527) 
        0    0    0    0    0    0    0    0   56    0   56    0

>  <minimizedAffinity>  (527) 
-7.77919

>  <CNNscore>  (527) 
0.8053209782

>  <CNNaffinity>  (527) 
4.6265954971

>  <CNN_VS>  (527) 
3.7258944511

>  <CNNaffinity_variance>  (527) 
0.4733555913

$$$$
528
     RDKit          3D

 43 45  0  0  0  0  0  0  0  0999 V2000
   21.7807   72.4068   -5.5791 P   0  0  2  0  0  0  0  0  0  0  0  0
   21.1361   73.8553   -5.2544 O   0  0  0  0  0  0  0  0  0  0  0  0
   23.0459   72.4427   -6.3851 O   0  0  0  0  0  0  0  0  0  0  0  0
   20.5560   71.5738   -6.2304 O   0  0  0  0  0  0  0  0  0  0  0  0
   20.1020   71.9372   -7.5212 C   0  0  0  0  0  0  0  0  0  0  0  0
   18.8606   69.9163   -7.1310 O   0  0  0  0  0  0  0  0  0  0  0  0
   18.1204   70.0307  -10.0345 O   0  0  0  0  0  0  0  0  0  0  0  0
   15.8832   70.9968   -8.8108 O   0  0  0  0  0  0  0  0  0  0  0  0
   18.2948   71.0992   -9.1037 C   0  0  1  0  0  0  0  0  0  0  0  0
   17.1205   71.1603   -8.1499 C   0  0  2  0  0  0  0  0  0  0  0  0
   19.4419   70.7292   -8.1734 C   0  0  1  0  0  0  0  0  0  0  0  0
   17.4293   70.0190   -7.1959 C   0  0  2  0  0  0  0  0  0  0  0  0
   17.3925   70.2442  -10.6397 H   0  0  0  0  0  0  0  0  0  0  0  0
   15.7327   71.7485   -9.4059 H   0  0  0  0  0  0  0  0  0  0  0  0
   16.3040   68.0254   -5.5420 O   0  0  0  0  0  0  0  0  0  0  0  0
   15.4982   71.0381   -2.1482 O   0  0  0  0  0  0  0  0  0  0  0  0
   16.9177   70.2549   -5.8755 N   0  0  0  0  0  0  0  0  0  0  0  0
   15.9028   69.5280   -3.8537 N   0  0  0  0  0  0  0  0  0  0  0  0
   16.3729   69.1841   -5.1280 C   0  0  0  0  0  0  0  0  0  0  0  0
   16.9599   71.5337   -5.3335 C   0  0  0  0  0  0  0  0  0  0  0  0
   16.5080   71.8460   -4.1174 C   0  0  0  0  0  0  0  0  0  0  0  0
   15.9226   70.7851   -3.2716 C   0  0  0  0  0  0  0  0  0  0  0  0
   15.5171   68.7995   -3.3152 H   0  0  0  0  0  0  0  0  0  0  0  0
   21.9343   71.7413   -4.1140 O   0  0  0  0  0  0  0  0  0  0  0  0
   23.1028   71.8747   -3.0048 P   0  0  2  0  0  0  0  0  0  0  0  0
   23.6472   73.3838   -3.2208 O   0  0  0  0  0  0  0  0  0  0  0  0
   24.1630   70.8157   -3.0968 O   0  0  0  0  0  0  0  0  0  0  0  0
   22.3237   71.9212   -1.5930 O   0  0  0  0  0  0  0  0  0  0  0  0
   23.8883   72.6891    0.0105 O   0  0  0  0  0  0  0  0  0  0  0  0
   20.4715   72.2837    2.2971 O   0  0  0  0  0  0  0  0  0  0  0  0
   21.1773   70.2554    0.3167 O   0  0  0  0  0  0  0  0  0  0  0  0
   21.3763   74.9230    1.4807 O   0  0  0  0  0  0  0  0  0  0  0  0
   21.2229   72.5469    1.1122 C   0  0  2  0  0  0  0  0  0  0  0  0
   22.0370   71.3084    0.7369 C   0  0  2  0  0  0  0  0  0  0  0  0
   22.1524   73.7294    1.3946 C   0  0  1  0  0  0  0  0  0  0  0  0
   23.0251   71.6232   -0.3872 C   0  0  1  0  0  0  0  0  0  0  0  0
   23.1886   73.9002    0.2875 C   0  0  1  0  0  0  0  0  0  0  0  0
   19.8735   71.5357    2.1415 H   0  0  0  0  0  0  0  0  0  0  0  0
   20.5475   70.0506    1.0251 H   0  0  0  0  0  0  0  0  0  0  0  0
   20.7127   74.8273    2.1817 H   0  0  0  0  0  0  0  0  0  0  0  0
   24.2624   74.9897    2.0656 O   0  0  0  0  0  0  0  0  0  0  0  0
   25.0802   75.3641   -0.0297 O   0  0  0  0  0  0  0  0  0  0  0  0
   24.2787   74.8261    0.7195 C   0  0  0  0  0  0  0  0  0  0  0  0
  1  4  1  0
  1 24  1  0
  1  2  1  1
  1  3  2  0
 25 28  1  0
 25 24  1  0
 25 26  1  6
 25 27  2  0
  6 11  1  0
  6 12  1  0
 29 36  1  0
 29 37  1  0
  9  7  1  6
  7 13  1  0
 10  8  1  6
  8 14  1  0
  4  5  1  0
 36 28  1  6
 33 30  1  1
 30 38  1  0
 34 31  1  6
 31 39  1  0
 35 32  1  6
 32 40  1  0
 41 43  1  0
 15 19  2  0
 42 43  2  0
 16 22  2  0
 12 17  1  1
 17 19  1  0
 17 20  1  0
 18 19  1  0
 18 22  1  0
 18 23  1  0
  9 10  1  0
  9 11  1  0
 10 12  1  0
 11  5  1  1
 33 34  1  0
 33 35  1  0
 34 36  1  0
 35 37  1  0
 37 43  1  1
 20 21  2  0
 21 22  1  0
M  CHG  3   2  -1  26  -1  41  -1
M  END
>  <COMPND>  (528) 
    udp_gluA.pdb 

>  <AUTHOR>  (528) 
    GENERATED BY OPEN BABEL 3.1.1

>  <MASTER>  (528) 
        0    0    0    0    0    0    0    0   56    0   56    0

>  <minimizedAffinity>  (528) 
-8.05902

>  <CNNscore>  (528) 
0.7272403240

>  <CNNaffinity>  (528) 
4.5378627777

>  <CNN_VS>  (528) 
3.3001167774

>  <CNNaffinity_variance>  (528) 
0.2204428464

$$$$
529
     RDKit          3D

 43 45  0  0  0  0  0  0  0  0999 V2000
   21.9189   72.4552   -5.7266 P   0  0  2  0  0  0  0  0  0  0  0  0
   21.2823   73.8901   -5.3332 O   0  0  0  0  0  0  0  0  0  0  0  0
   23.1243   72.5199   -6.6180 O   0  0  0  0  0  0  0  0  0  0  0  0
   20.6612   71.6178   -6.3054 O   0  0  0  0  0  0  0  0  0  0  0  0
   20.1198   71.9910   -7.5592 C   0  0  0  0  0  0  0  0  0  0  0  0
   18.9070   69.9560   -7.1525 O   0  0  0  0  0  0  0  0  0  0  0  0
   18.1460   70.0492  -10.0514 O   0  0  0  0  0  0  0  0  0  0  0  0
   15.9048   70.9915   -8.8164 O   0  0  0  0  0  0  0  0  0  0  0  0
   18.3129   71.1235   -9.1260 C   0  0  1  0  0  0  0  0  0  0  0  0
   17.1444   71.1735   -8.1646 C   0  0  2  0  0  0  0  0  0  0  0  0
   19.4709   70.7720   -8.2020 C   0  0  1  0  0  0  0  0  0  0  0  0
   17.4741   70.0401   -7.2082 C   0  0  2  0  0  0  0  0  0  0  0  0
   17.4114   70.2509  -10.6525 H   0  0  0  0  0  0  0  0  0  0  0  0
   15.7407   71.7389   -9.4135 H   0  0  0  0  0  0  0  0  0  0  0  0
   16.3465   68.0470   -5.5552 O   0  0  0  0  0  0  0  0  0  0  0  0
   15.5660   71.0545   -2.1508 O   0  0  0  0  0  0  0  0  0  0  0  0
   16.9684   70.2748   -5.8854 N   0  0  0  0  0  0  0  0  0  0  0  0
   15.9579   69.5470   -3.8616 N   0  0  0  0  0  0  0  0  0  0  0  0
   16.4219   69.2044   -5.1385 C   0  0  0  0  0  0  0  0  0  0  0  0
   17.0180   71.5520   -5.3403 C   0  0  0  0  0  0  0  0  0  0  0  0
   16.5719   71.8631   -4.1217 C   0  0  0  0  0  0  0  0  0  0  0  0
   15.9852   70.8026   -3.2764 C   0  0  0  0  0  0  0  0  0  0  0  0
   15.5712   68.8188   -3.3235 H   0  0  0  0  0  0  0  0  0  0  0  0
   22.1818   71.7679   -4.2874 O   0  0  0  0  0  0  0  0  0  0  0  0
   23.4262   71.8927   -3.2630 P   0  0  2  0  0  0  0  0  0  0  0  0
   24.2039   73.2130   -3.7849 O   0  0  0  0  0  0  0  0  0  0  0  0
   24.2826   70.6622   -3.1817 O   0  0  0  0  0  0  0  0  0  0  0  0
   22.7607   72.3389   -1.8629 O   0  0  0  0  0  0  0  0  0  0  0  0
   23.1486   70.8102   -0.0960 O   0  0  0  0  0  0  0  0  0  0  0  0
   20.4140   73.3932    1.6123 O   0  0  0  0  0  0  0  0  0  0  0  0
   20.0776   72.4929   -1.1465 O   0  0  0  0  0  0  0  0  0  0  0  0
   23.2239   73.5525    2.3405 O   0  0  0  0  0  0  0  0  0  0  0  0
   21.4912   73.0166    0.7544 C   0  0  2  0  0  0  0  0  0  0  0  0
   21.0140   71.9448   -0.2259 C   0  0  2  0  0  0  0  0  0  0  0  0
   22.6235   72.4723    1.6282 C   0  0  1  0  0  0  0  0  0  0  0  0
   22.1897   71.3530   -1.0045 C   0  0  1  0  0  0  0  0  0  0  0  0
   23.6962   71.7869    0.7868 C   0  0  1  0  0  0  0  0  0  0  0  0
   19.6825   73.7421    1.0789 H   0  0  0  0  0  0  0  0  0  0  0  0
   19.3289   72.8705   -0.6593 H   0  0  0  0  0  0  0  0  0  0  0  0
   22.5516   73.9974    2.8799 H   0  0  0  0  0  0  0  0  0  0  0  0
   24.1081   70.8602    2.9018 O   0  0  0  0  0  0  0  0  0  0  0  0
   25.6733   70.4965    1.2842 O   0  0  0  0  0  0  0  0  0  0  0  0
   24.6135   70.9826    1.6494 C   0  0  0  0  0  0  0  0  0  0  0  0
  1  4  1  0
  1 24  1  0
  1  2  1  1
  1  3  2  0
 25 28  1  0
 25 24  1  0
 25 26  1  6
 25 27  2  0
  6 11  1  0
  6 12  1  0
 29 36  1  0
 29 37  1  0
  9  7  1  6
  7 13  1  0
 10  8  1  6
  8 14  1  0
  4  5  1  0
 36 28  1  1
 33 30  1  1
 30 38  1  0
 34 31  1  6
 31 39  1  0
 35 32  1  6
 32 40  1  0
 41 43  1  0
 15 19  2  0
 42 43  2  0
 16 22  2  0
 12 17  1  1
 17 19  1  0
 17 20  1  0
 18 19  1  0
 18 22  1  0
 18 23  1  0
  9 10  1  0
  9 11  1  0
 10 12  1  0
 11  5  1  1
 33 34  1  0
 33 35  1  0
 34 36  1  0
 35 37  1  0
 37 43  1  1
 20 21  2  0
 21 22  1  0
M  CHG  3   2  -1  26  -1  41  -1
M  END
>  <COMPND>  (529) 
    udp_gluA.pdb 

>  <AUTHOR>  (529) 
    GENERATED BY OPEN BABEL 3.1.1

>  <MASTER>  (529) 
        0    0    0    0    0    0    0    0   56    0   56    0

>  <minimizedAffinity>  (529) 
-8.40204

>  <CNNscore>  (529) 
0.6648028493

>  <CNNaffinity>  (529) 
4.4722418785

>  <CNN_VS>  (529) 
2.9731590748

>  <CNNaffinity_variance>  (529) 
0.2335112542

$$$$
530
     RDKit          3D

 43 45  0  0  0  0  0  0  0  0999 V2000
   23.0015   73.0874   -4.0710 P   0  0  2  0  0  0  0  0  0  0  0  0
   23.0646   73.6522   -5.5863 O   0  0  0  0  0  0  0  0  0  0  0  0
   24.1713   72.2417   -3.6609 O   0  0  0  0  0  0  0  0  0  0  0  0
   21.5526   72.3729   -3.9827 O   0  0  0  0  0  0  0  0  0  0  0  0
   20.3936   73.1780   -4.0968 C   0  0  0  0  0  0  0  0  0  0  0  0
   18.3004   72.1604   -4.6975 O   0  0  0  0  0  0  0  0  0  0  0  0
   18.5316   70.6127   -2.1396 O   0  0  0  0  0  0  0  0  0  0  0  0
   19.3294   68.7955   -4.0098 O   0  0  0  0  0  0  0  0  0  0  0  0
   19.5571   71.0167   -3.0472 C   0  0  1  0  0  0  0  0  0  0  0  0
   19.5148   70.1655   -4.2985 C   0  0  2  0  0  0  0  0  0  0  0  0
   19.1921   72.3933   -3.5858 C   0  0  1  0  0  0  0  0  0  0  0  0
   18.3408   70.7687   -5.0507 C   0  0  2  0  0  0  0  0  0  0  0  0
   18.7428   69.7356   -1.7823 H   0  0  0  0  0  0  0  0  0  0  0  0
   20.1034   68.4584   -3.5310 H   0  0  0  0  0  0  0  0  0  0  0  0
   16.3316   69.7968   -6.7814 O   0  0  0  0  0  0  0  0  0  0  0  0
   19.0005   70.3659  -10.4959 O   0  0  0  0  0  0  0  0  0  0  0  0
   18.4839   70.6523   -6.4743 N   0  0  0  0  0  0  0  0  0  0  0  0
   17.6632   70.0802   -8.6296 N   0  0  0  0  0  0  0  0  0  0  0  0
   17.4137   70.1516   -7.2528 C   0  0  0  0  0  0  0  0  0  0  0  0
   19.6725   71.0330   -7.0853 C   0  0  0  0  0  0  0  0  0  0  0  0
   19.8955   70.9592   -8.3989 C   0  0  0  0  0  0  0  0  0  0  0  0
   18.8286   70.4462   -9.2833 C   0  0  0  0  0  0  0  0  0  0  0  0
   16.9335   69.7328   -9.1920 H   0  0  0  0  0  0  0  0  0  0  0  0
   22.7994   74.4288   -3.1920 O   0  0  0  0  0  0  0  0  0  0  0  0
   23.3686   74.8392   -1.7355 P   0  0  2  0  0  0  0  0  0  0  0  0
   22.5285   76.1745   -1.3729 O   0  0  0  0  0  0  0  0  0  0  0  0
   24.8589   75.0129   -1.6833 O   0  0  0  0  0  0  0  0  0  0  0  0
   22.7907   73.7111   -0.7375 O   0  0  0  0  0  0  0  0  0  0  0  0
   24.0281   73.1924    1.2141 O   0  0  0  0  0  0  0  0  0  0  0  0
   21.4328   69.9860    0.9872 O   0  0  0  0  0  0  0  0  0  0  0  0
   22.7286   71.0155   -1.4201 O   0  0  0  0  0  0  0  0  0  0  0  0
   20.9759   72.0983    2.9315 O   0  0  0  0  0  0  0  0  0  0  0  0
   21.8478   71.3413    0.8169 C   0  0  2  0  0  0  0  0  0  0  0  0
   23.0762   71.3899   -0.0921 C   0  0  2  0  0  0  0  0  0  0  0  0
   22.1841   71.9100    2.1972 C   0  0  1  0  0  0  0  0  0  0  0  0
   23.6857   72.7924   -0.1134 C   0  0  1  0  0  0  0  0  0  0  0  0
   22.9022   73.2519    2.0870 C   0  0  1  0  0  0  0  0  0  0  0  0
   21.2138   69.6036    0.1229 H   0  0  0  0  0  0  0  0  0  0  0  0
   22.3409   70.1267   -1.4140 H   0  0  0  0  0  0  0  0  0  0  0  0
   20.5091   71.2516    3.0087 H   0  0  0  0  0  0  0  0  0  0  0  0
   24.8496   73.8183    3.2652 O   0  0  0  0  0  0  0  0  0  0  0  0
   22.8978   73.7722    4.4430 O   0  0  0  0  0  0  0  0  0  0  0  0
   23.5122   73.6362    3.3956 C   0  0  0  0  0  0  0  0  0  0  0  0
  1  4  1  0
  1 24  1  0
  1  2  1  6
  1  3  2  0
 25 28  1  0
 25 24  1  0
 25 26  1  1
 25 27  2  0
  6 11  1  0
  6 12  1  0
 29 36  1  0
 29 37  1  0
  9  7  1  1
  7 13  1  0
 10  8  1  1
  8 14  1  0
  4  5  1  0
 36 28  1  1
 33 30  1  1
 30 38  1  0
 34 31  1  6
 31 39  1  0
 35 32  1  1
 32 40  1  0
 41 43  1  0
 15 19  2  0
 42 43  2  0
 16 22  2  0
 12 17  1  6
 17 19  1  0
 17 20  1  0
 18 19  1  0
 18 22  1  0
 18 23  1  0
  9 10  1  0
  9 11  1  0
 10 12  1  0
 11  5  1  6
 33 34  1  0
 33 35  1  0
 34 36  1  0
 35 37  1  0
 37 43  1  1
 20 21  2  0
 21 22  1  0
M  CHG  3   2  -1  26  -1  41  -1
M  END
>  <COMPND>  (530) 
    udp_gluA.pdb 

>  <AUTHOR>  (530) 
    GENERATED BY OPEN BABEL 3.1.1

>  <MASTER>  (530) 
        0    0    0    0    0    0    0    0   56    0   56    0

>  <minimizedAffinity>  (530) 
-7.39053

>  <CNNscore>  (530) 
0.6547721624

>  <CNNaffinity>  (530) 
4.4065809250

>  <CNN_VS>  (530) 
2.8853065968

>  <CNNaffinity_variance>  (530) 
0.0841348246

$$$$
531
     RDKit          3D

 43 45  0  0  0  0  0  0  0  0999 V2000
   23.4584   73.5946   -4.1826 P   0  0  2  0  0  0  0  0  0  0  0  0
   22.7262   75.0263   -4.3642 O   0  0  0  0  0  0  0  0  0  0  0  0
   24.9522   73.6586   -4.0546 O   0  0  0  0  0  0  0  0  0  0  0  0
   22.8961   72.7114   -5.4162 O   0  0  0  0  0  0  0  0  0  0  0  0
   21.5161   72.3967   -5.4486 C   0  0  0  0  0  0  0  0  0  0  0  0
   20.4918   70.3877   -6.2807 O   0  0  0  0  0  0  0  0  0  0  0  0
   20.5752   71.6859   -8.9824 O   0  0  0  0  0  0  0  0  0  0  0  0
   17.9800   72.0478   -8.2272 O   0  0  0  0  0  0  0  0  0  0  0  0
   20.3434   72.2760   -7.7031 C   0  0  1  0  0  0  0  0  0  0  0  0
   18.9537   71.9312   -7.2109 C   0  0  2  0  0  0  0  0  0  0  0  0
   21.2267   71.5617   -6.6893 C   0  0  1  0  0  0  0  0  0  0  0  0
   19.1338   70.4998   -6.7351 C   0  0  2  0  0  0  0  0  0  0  0  0
   20.0216   72.1260   -9.6469 H   0  0  0  0  0  0  0  0  0  0  0  0
   17.9026   72.9773   -8.4956 H   0  0  0  0  0  0  0  0  0  0  0  0
   16.4503   69.6820   -7.0616 O   0  0  0  0  0  0  0  0  0  0  0  0
   15.8382   69.2469   -2.5140 O   0  0  0  0  0  0  0  0  0  0  0  0
   18.2505   70.1666   -5.6535 N   0  0  0  0  0  0  0  0  0  0  0  0
   16.1477   69.4670   -4.7963 N   0  0  0  0  0  0  0  0  0  0  0  0
   16.9206   69.7675   -5.9256 C   0  0  0  0  0  0  0  0  0  0  0  0
   18.7038   70.2352   -4.3417 C   0  0  0  0  0  0  0  0  0  0  0  0
   17.9553   69.9456   -3.2756 C   0  0  0  0  0  0  0  0  0  0  0  0
   16.5538   69.5210   -3.4727 C   0  0  0  0  0  0  0  0  0  0  0  0
   15.2177   69.1887   -4.9604 H   0  0  0  0  0  0  0  0  0  0  0  0
   22.6997   72.9585   -2.9048 O   0  0  0  0  0  0  0  0  0  0  0  0
   22.8428   71.5120   -2.1972 P   0  0  2  0  0  0  0  0  0  0  0  0
   24.2000   70.9151   -2.8468 O   0  0  0  0  0  0  0  0  0  0  0  0
   21.6403   70.6273   -2.3558 O   0  0  0  0  0  0  0  0  0  0  0  0
   23.2344   71.8416   -0.6674 O   0  0  0  0  0  0  0  0  0  0  0  0
   24.5853   70.8458    1.0038 O   0  0  0  0  0  0  0  0  0  0  0  0
   21.2318   71.9211    3.1639 O   0  0  0  0  0  0  0  0  0  0  0  0
   20.9650   70.7409    0.5049 O   0  0  0  0  0  0  0  0  0  0  0  0
   23.6760   73.4782    3.3925 O   0  0  0  0  0  0  0  0  0  0  0  0
   22.2105   72.0405    2.1315 C   0  0  2  0  0  0  0  0  0  0  0  0
   22.1772   70.7931    1.2481 C   0  0  2  0  0  0  0  0  0  0  0  0
   23.5820   72.1867    2.7945 C   0  0  1  0  0  0  0  0  0  0  0  0
   23.3581   70.7792    0.2764 C   0  0  1  0  0  0  0  0  0  0  0  0
   24.7107   72.0361    1.7788 C   0  0  1  0  0  0  0  0  0  0  0  0
   20.3519   71.8270    2.7662 H   0  0  0  0  0  0  0  0  0  0  0  0
   20.2114   70.7497    1.1152 H   0  0  0  0  0  0  0  0  0  0  0  0
   22.9630   73.5870    4.0410 H   0  0  0  0  0  0  0  0  0  0  0  0
   26.4246   73.0069    3.0523 O   0  0  0  0  0  0  0  0  0  0  0  0
   26.6537   70.8048    2.5069 O   0  0  0  0  0  0  0  0  0  0  0  0
   26.0233   71.8508    2.4680 C   0  0  0  0  0  0  0  0  0  0  0  0
  1  4  1  0
  1 24  1  0
  1  2  1  6
  1  3  2  0
 25 28  1  0
 25 24  1  0
 25 26  1  6
 25 27  2  0
  6 11  1  0
  6 12  1  0
 29 36  1  0
 29 37  1  0
  9  7  1  6
  7 13  1  0
 10  8  1  6
  8 14  1  0
  4  5  1  0
 36 28  1  6
 33 30  1  1
 30 38  1  0
 34 31  1  6
 31 39  1  0
 35 32  1  6
 32 40  1  0
 41 43  1  0
 15 19  2  0
 42 43  2  0
 16 22  2  0
 12 17  1  1
 17 19  1  0
 17 20  1  0
 18 19  1  0
 18 22  1  0
 18 23  1  0
  9 10  1  0
  9 11  1  0
 10 12  1  0
 11  5  1  1
 33 34  1  0
 33 35  1  0
 34 36  1  0
 35 37  1  0
 37 43  1  1
 20 21  2  0
 21 22  1  0
M  CHG  3   2  -1  26  -1  41  -1
M  END
>  <COMPND>  (531) 
    udp_gluA.pdb 

>  <AUTHOR>  (531) 
    GENERATED BY OPEN BABEL 3.1.1

>  <MASTER>  (531) 
        0    0    0    0    0    0    0    0   56    0   56    0

>  <minimizedAffinity>  (531) 
-8.53820

>  <CNNscore>  (531) 
0.6260879636

>  <CNNaffinity>  (531) 
4.3362994194

>  <CNN_VS>  (531) 
2.7149047852

>  <CNNaffinity_variance>  (531) 
0.2144850492

$$$$
532
     RDKit          3D

 43 45  0  0  0  0  0  0  0  0999 V2000
   21.9442   72.4962   -5.8720 P   0  0  2  0  0  0  0  0  0  0  0  0
   21.2592   73.9201   -5.5227 O   0  0  0  0  0  0  0  0  0  0  0  0
   23.1353   72.5722   -6.7816 O   0  0  0  0  0  0  0  0  0  0  0  0
   20.7117   71.5919   -6.4024 O   0  0  0  0  0  0  0  0  0  0  0  0
   20.0560   71.9764   -7.5968 C   0  0  0  0  0  0  0  0  0  0  0  0
   18.8500   69.9413   -7.1708 O   0  0  0  0  0  0  0  0  0  0  0  0
   18.0968   69.9990  -10.0726 O   0  0  0  0  0  0  0  0  0  0  0  0
   15.8485   70.9463   -8.8546 O   0  0  0  0  0  0  0  0  0  0  0  0
   18.2569   71.0843   -9.1589 C   0  0  1  0  0  0  0  0  0  0  0  0
   17.0855   71.1404   -8.2013 C   0  0  2  0  0  0  0  0  0  0  0  0
   19.4136   70.7477   -8.2278 C   0  0  1  0  0  0  0  0  0  0  0  0
   17.4169   70.0191   -7.2314 C   0  0  2  0  0  0  0  0  0  0  0  0
   17.3631   70.1911  -10.6780 H   0  0  0  0  0  0  0  0  0  0  0  0
   15.6831   71.6862   -9.4604 H   0  0  0  0  0  0  0  0  0  0  0  0
   16.3421   68.0305   -5.5383 O   0  0  0  0  0  0  0  0  0  0  0  0
   15.4879   71.0829   -2.1921 O   0  0  0  0  0  0  0  0  0  0  0  0
   16.9065   70.2665   -5.9127 N   0  0  0  0  0  0  0  0  0  0  0  0
   15.9168   69.5528   -3.8737 N   0  0  0  0  0  0  0  0  0  0  0  0
   16.3882   69.1974   -5.1443 C   0  0  0  0  0  0  0  0  0  0  0  0
   16.9239   71.5550   -5.3926 C   0  0  0  0  0  0  0  0  0  0  0  0
   16.4711   71.8784   -4.1797 C   0  0  0  0  0  0  0  0  0  0  0  0
   15.9125   70.8199   -3.3132 C   0  0  0  0  0  0  0  0  0  0  0  0
   15.5493   68.8257   -3.3210 H   0  0  0  0  0  0  0  0  0  0  0  0
   22.2503   71.8729   -4.4123 O   0  0  0  0  0  0  0  0  0  0  0  0
   23.5142   72.0607   -3.4218 P   0  0  2  0  0  0  0  0  0  0  0  0
   24.4568   73.1075   -4.2194 O   0  0  0  0  0  0  0  0  0  0  0  0
   24.1964   70.7779   -3.0441 O   0  0  0  0  0  0  0  0  0  0  0  0
   22.9347   72.9035   -2.1742 O   0  0  0  0  0  0  0  0  0  0  0  0
   21.2560   72.0620   -0.7309 O   0  0  0  0  0  0  0  0  0  0  0  0
   20.9190   76.1351   -0.1277 O   0  0  0  0  0  0  0  0  0  0  0  0
   21.3050   75.0635   -2.8179 O   0  0  0  0  0  0  0  0  0  0  0  0
   22.2060   74.4652    1.8737 O   0  0  0  0  0  0  0  0  0  0  0  0
   21.5969   74.9119   -0.4141 C   0  0  2  0  0  0  0  0  0  0  0  0
   21.0001   74.2783   -1.6711 C   0  0  2  0  0  0  0  0  0  0  0  0
   21.4196   73.9804    0.7870 C   0  0  1  0  0  0  0  0  0  0  0  0
   21.5398   72.8625   -1.8791 C   0  0  1  0  0  0  0  0  0  0  0  0
   21.8644   72.5580    0.4594 C   0  0  1  0  0  0  0  0  0  0  0  0
   21.0179   76.7431   -0.8773 H   0  0  0  0  0  0  0  0  0  0  0  0
   20.9657   75.9633   -2.6926 H   0  0  0  0  0  0  0  0  0  0  0  0
   21.9330   75.3699    2.0922 H   0  0  0  0  0  0  0  0  0  0  0  0
   21.5675   70.3195    1.0939 O   0  0  0  0  0  0  0  0  0  0  0  0
   20.9084   71.9180    2.5803 O   0  0  0  0  0  0  0  0  0  0  0  0
   21.3896   71.6000    1.5031 C   0  0  0  0  0  0  0  0  0  0  0  0
  1  4  1  0
  1 24  1  0
  1  2  1  1
  1  3  2  0
 25 28  1  0
 25 24  1  0
 25 26  1  6
 25 27  2  0
  6 11  1  0
  6 12  1  0
 29 36  1  0
 29 37  1  0
  9  7  1  6
  7 13  1  0
 10  8  1  6
  8 14  1  0
  4  5  1  0
 36 28  1  1
 33 30  1  1
 30 38  1  0
 34 31  1  6
 31 39  1  0
 35 32  1  1
 32 40  1  0
 41 43  1  0
 15 19  2  0
 42 43  2  0
 16 22  2  0
 12 17  1  1
 17 19  1  0
 17 20  1  0
 18 19  1  0
 18 22  1  0
 18 23  1  0
  9 10  1  0
  9 11  1  0
 10 12  1  0
 11  5  1  1
 33 34  1  0
 33 35  1  0
 34 36  1  0
 35 37  1  0
 37 43  1  1
 20 21  2  0
 21 22  1  0
M  CHG  3   2  -1  26  -1  41  -1
M  END
>  <COMPND>  (532) 
    udp_gluA.pdb 

>  <AUTHOR>  (532) 
    GENERATED BY OPEN BABEL 3.1.1

>  <MASTER>  (532) 
        0    0    0    0    0    0    0    0   56    0   56    0

>  <minimizedAffinity>  (532) 
-8.38209

>  <CNNscore>  (532) 
0.6201761365

>  <CNNaffinity>  (532) 
4.4470419884

>  <CNN_VS>  (532) 
2.7579493523

>  <CNNaffinity_variance>  (532) 
0.3913001418

$$$$
533
     RDKit          3D

 43 45  0  0  0  0  0  0  0  0999 V2000
   23.0515   73.5130   -4.3322 P   0  0  2  0  0  0  0  0  0  0  0  0
   24.1184   72.3016   -4.2177 O   0  0  0  0  0  0  0  0  0  0  0  0
   23.5327   74.7107   -5.0975 O   0  0  0  0  0  0  0  0  0  0  0  0
   22.6108   73.7887   -2.8000 O   0  0  0  0  0  0  0  0  0  0  0  0
   22.5351   75.1286   -2.3490 C   0  0  0  0  0  0  0  0  0  0  0  0
   21.1541   74.0347   -0.7139 O   0  0  0  0  0  0  0  0  0  0  0  0
   20.2107   76.7762    0.0511 O   0  0  0  0  0  0  0  0  0  0  0  0
   22.0288   76.2059    2.0018 O   0  0  0  0  0  0  0  0  0  0  0  0
   21.5075   76.3513   -0.3687 C   0  0  1  0  0  0  0  0  0  0  0  0
   22.1940   75.5867    0.7432 C   0  0  2  0  0  0  0  0  0  0  0  0
   21.3282   75.2757   -1.4314 C   0  0  1  0  0  0  0  0  0  0  0  0
   21.5103   74.2324    0.6636 C   0  0  2  0  0  0  0  0  0  0  0  0
   20.2995   77.4637    0.7303 H   0  0  0  0  0  0  0  0  0  0  0  0
   22.4821   77.0641    2.0019 H   0  0  0  0  0  0  0  0  0  0  0  0
   20.6164   71.8916    1.9665 O   0  0  0  0  0  0  0  0  0  0  0  0
   24.8899   70.1845    2.2257 O   0  0  0  0  0  0  0  0  0  0  0  0
   22.3679   73.1602    1.0826 N   0  0  0  0  0  0  0  0  0  0  0  0
   22.7458   71.0440    2.0953 N   0  0  0  0  0  0  0  0  0  0  0  0
   21.8181   72.0282    1.7294 C   0  0  0  0  0  0  0  0  0  0  0  0
   23.7360   73.2352    0.8508 C   0  0  0  0  0  0  0  0  0  0  0  0
   24.6077   72.2890    1.2053 C   0  0  0  0  0  0  0  0  0  0  0  0
   24.1152   71.0740    1.8868 C   0  0  0  0  0  0  0  0  0  0  0  0
   22.3869   70.2473    2.5489 H   0  0  0  0  0  0  0  0  0  0  0  0
   21.7489   72.7911   -4.9607 O   0  0  0  0  0  0  0  0  0  0  0  0
   20.1759   73.1418   -4.8332 P   0  0  2  0  0  0  0  0  0  0  0  0
   20.1230   74.7270   -5.1568 O   0  0  0  0  0  0  0  0  0  0  0  0
   19.5643   72.7586   -3.5167 O   0  0  0  0  0  0  0  0  0  0  0  0
   19.4950   72.4412   -6.1170 O   0  0  0  0  0  0  0  0  0  0  0  0
   19.0846   70.1771   -5.5563 O   0  0  0  0  0  0  0  0  0  0  0  0
   17.6340   70.3626   -9.4202 O   0  0  0  0  0  0  0  0  0  0  0  0
   20.1413   71.6855   -8.7145 O   0  0  0  0  0  0  0  0  0  0  0  0
   15.7927   70.3111   -7.1712 O   0  0  0  0  0  0  0  0  0  0  0  0
   17.9393   70.8604   -8.1175 C   0  0  2  0  0  0  0  0  0  0  0  0
   19.4462   70.7705   -7.8754 C   0  0  2  0  0  0  0  0  0  0  0  0
   17.1842   70.0069   -7.0961 C   0  0  1  0  0  0  0  0  0  0  0  0
   19.7851   71.0770   -6.4159 C   0  0  1  0  0  0  0  0  0  0  0  0
   17.6675   70.2812   -5.6749 C   0  0  1  0  0  0  0  0  0  0  0  0
   18.1030   70.8898  -10.0861 H   0  0  0  0  0  0  0  0  0  0  0  0
   19.9306   71.4970   -9.6421 H   0  0  0  0  0  0  0  0  0  0  0  0
   15.4726   70.1409   -8.0709 H   0  0  0  0  0  0  0  0  0  0  0  0
   18.1186   68.9358   -3.8073 O   0  0  0  0  0  0  0  0  0  0  0  0
   16.0720   68.7049   -4.7856 O   0  0  0  0  0  0  0  0  0  0  0  0
   17.1740   69.2302   -4.7347 C   0  0  0  0  0  0  0  0  0  0  0  0
  1  4  1  0
  1 24  1  0
  1  2  1  1
  1  3  2  0
 25 28  1  0
 25 24  1  0
 25 26  1  6
 25 27  2  0
  6 11  1  0
  6 12  1  0
 29 36  1  0
 29 37  1  0
  9  7  1  1
  7 13  1  0
 10  8  1  1
  8 14  1  0
  4  5  1  0
 36 28  1  1
 33 30  1  6
 30 38  1  0
 34 31  1  6
 31 39  1  0
 35 32  1  1
 32 40  1  0
 41 43  1  0
 15 19  2  0
 42 43  2  0
 16 22  2  0
 12 17  1  6
 17 19  1  0
 17 20  1  0
 18 19  1  0
 18 22  1  0
 18 23  1  0
  9 10  1  0
  9 11  1  0
 10 12  1  0
 11  5  1  6
 33 34  1  0
 33 35  1  0
 34 36  1  0
 35 37  1  0
 37 43  1  1
 20 21  2  0
 21 22  1  0
M  CHG  3   2  -1  26  -1  41  -1
M  END
>  <COMPND>  (533) 
    udp_gluA.pdb 

>  <AUTHOR>  (533) 
    GENERATED BY OPEN BABEL 3.1.1

>  <MASTER>  (533) 
        0    0    0    0    0    0    0    0   56    0   56    0

>  <minimizedAffinity>  (533) 
-7.23975

>  <CNNscore>  (533) 
0.5576983094

>  <CNNaffinity>  (533) 
4.4443449974

>  <CNN_VS>  (533) 
2.4786036015

>  <CNNaffinity_variance>  (533) 
0.0926849395

$$$$
534
     RDKit          3D

 43 45  0  0  0  0  0  0  0  0999 V2000
   22.5507   72.9373   -2.4897 P   0  0  2  0  0  0  0  0  0  0  0  0
   23.1477   74.3719   -2.0378 O   0  0  0  0  0  0  0  0  0  0  0  0
   23.3441   71.7485   -2.0325 O   0  0  0  0  0  0  0  0  0  0  0  0
   22.3609   73.0821   -4.0900 O   0  0  0  0  0  0  0  0  0  0  0  0
   22.2818   71.9037   -4.8708 C   0  0  0  0  0  0  0  0  0  0  0  0
   20.8736   71.3372   -6.7346 O   0  0  0  0  0  0  0  0  0  0  0  0
   21.3953   74.1157   -7.7343 O   0  0  0  0  0  0  0  0  0  0  0  0
   18.9138   74.3375   -6.6256 O   0  0  0  0  0  0  0  0  0  0  0  0
   21.2353   73.6531   -6.3930 C   0  0  1  0  0  0  0  0  0  0  0  0
   19.7793   73.3452   -6.1148 C   0  0  2  0  0  0  0  0  0  0  0  0
   21.8772   72.2762   -6.2913 C   0  0  1  0  0  0  0  0  0  0  0  0
   19.6031   72.0037   -6.8055 C   0  0  2  0  0  0  0  0  0  0  0  0
   20.9928   74.9942   -7.8238 H   0  0  0  0  0  0  0  0  0  0  0  0
   19.0644   75.1720   -6.1535 H   0  0  0  0  0  0  0  0  0  0  0  0
   16.8879   71.8997   -7.5761 O   0  0  0  0  0  0  0  0  0  0  0  0
   15.8837   68.8286   -4.2891 O   0  0  0  0  0  0  0  0  0  0  0  0
   18.6104   71.1855   -6.1684 N   0  0  0  0  0  0  0  0  0  0  0  0
   16.3901   70.3710   -5.9376 N   0  0  0  0  0  0  0  0  0  0  0  0
   17.2740   71.2068   -6.6327 C   0  0  0  0  0  0  0  0  0  0  0  0
   18.9641   70.3730   -5.0980 C   0  0  0  0  0  0  0  0  0  0  0  0
   18.1105   69.5816   -4.4455 C   0  0  0  0  0  0  0  0  0  0  0  0
   16.6947   69.5457   -4.8672 C   0  0  0  0  0  0  0  0  0  0  0  0
   15.4536   70.3704   -6.2414 H   0  0  0  0  0  0  0  0  0  0  0  0
   21.0322   72.9860   -1.9378 O   0  0  0  0  0  0  0  0  0  0  0  0
   20.3779   72.4060   -0.5780 P   0  0  2  0  0  0  0  0  0  0  0  0
   20.3060   70.8123   -0.8527 O   0  0  0  0  0  0  0  0  0  0  0  0
   19.0624   73.0304   -0.2124 O   0  0  0  0  0  0  0  0  0  0  0  0
   21.5321   72.5755    0.5363 O   0  0  0  0  0  0  0  0  0  0  0  0
   22.7749   70.9961    1.7894 O   0  0  0  0  0  0  0  0  0  0  0  0
   22.3062   74.0575    4.5236 O   0  0  0  0  0  0  0  0  0  0  0  0
   20.0815   73.2469    2.8125 O   0  0  0  0  0  0  0  0  0  0  0  0
   24.8626   73.6652    3.1963 O   0  0  0  0  0  0  0  0  0  0  0  0
   22.4605   73.4807    3.2270 C   0  0  2  0  0  0  0  0  0  0  0  0
   21.2998   72.5248    2.9507 C   0  0  2  0  0  0  0  0  0  0  0  0
   23.7906   72.7243    3.2011 C   0  0  1  0  0  0  0  0  0  0  0  0
   21.5476   71.7174    1.6757 C   0  0  1  0  0  0  0  0  0  0  0  0
   23.9076   71.8453    1.9592 C   0  0  1  0  0  0  0  0  0  0  0  0
   21.4675   74.5435    4.5638 H   0  0  0  0  0  0  0  0  0  0  0  0
   19.9182   73.7617    3.6179 H   0  0  0  0  0  0  0  0  0  0  0  0
   24.7997   74.2311    3.9816 H   0  0  0  0  0  0  0  0  0  0  0  0
   24.6429   69.6289    1.7396 O   0  0  0  0  0  0  0  0  0  0  0  0
   26.1606   71.1593    2.4835 O   0  0  0  0  0  0  0  0  0  0  0  0
   25.0357   70.8758    2.0999 C   0  0  0  0  0  0  0  0  0  0  0  0
  1  4  1  0
  1 24  1  0
  1  2  1  1
  1  3  2  0
 25 28  1  0
 25 24  1  0
 25 26  1  6
 25 27  2  0
  6 11  1  0
  6 12  1  0
 29 36  1  0
 29 37  1  0
  9  7  1  6
  7 13  1  0
 10  8  1  6
  8 14  1  0
  4  5  1  0
 36 28  1  6
 33 30  1  1
 30 38  1  0
 34 31  1  6
 31 39  1  0
 35 32  1  6
 32 40  1  0
 41 43  1  0
 15 19  2  0
 42 43  2  0
 16 22  2  0
 12 17  1  1
 17 19  1  0
 17 20  1  0
 18 19  1  0
 18 22  1  0
 18 23  1  0
  9 10  1  0
  9 11  1  0
 10 12  1  0
 11  5  1  1
 33 34  1  0
 33 35  1  0
 34 36  1  0
 35 37  1  0
 37 43  1  1
 20 21  2  0
 21 22  1  0
M  CHG  3   2  -1  26  -1  41  -1
M  END
>  <COMPND>  (534) 
    udp_gluA.pdb 

>  <AUTHOR>  (534) 
    GENERATED BY OPEN BABEL 3.1.1

>  <MASTER>  (534) 
        0    0    0    0    0    0    0    0   56    0   56    0

>  <minimizedAffinity>  (534) 
-6.63921

>  <CNNscore>  (534) 
0.5490648746

>  <CNNaffinity>  (534) 
4.2180390358

>  <CNN_VS>  (534) 
2.3159770966

>  <CNNaffinity_variance>  (534) 
0.0901015028

$$$$
535
     RDKit          3D

 43 45  0  0  0  0  0  0  0  0999 V2000
   22.7173   73.1297   -5.0321 P   0  0  2  0  0  0  0  0  0  0  0  0
   23.0755   72.1847   -6.2961 O   0  0  0  0  0  0  0  0  0  0  0  0
   23.1969   74.5471   -5.1447 O   0  0  0  0  0  0  0  0  0  0  0  0
   23.2702   72.3000   -3.7578 O   0  0  0  0  0  0  0  0  0  0  0  0
   22.8270   72.6712   -2.4654 C   0  0  0  0  0  0  0  0  0  0  0  0
   23.3012   70.9787   -0.8258 O   0  0  0  0  0  0  0  0  0  0  0  0
   20.3440   70.4882   -0.7486 O   0  0  0  0  0  0  0  0  0  0  0  0
   20.7562   71.9975    1.4848 O   0  0  0  0  0  0  0  0  0  0  0  0
   21.0522   71.7171   -0.9122 C   0  0  1  0  0  0  0  0  0  0  0  0
   21.6542   72.1547    0.4062 C   0  0  2  0  0  0  0  0  0  0  0  0
   22.2916   71.4369   -1.7511 C   0  0  1  0  0  0  0  0  0  0  0  0
   22.8660   71.2452    0.5169 C   0  0  2  0  0  0  0  0  0  0  0  0
   19.5478   70.6420   -0.2156 H   0  0  0  0  0  0  0  0  0  0  0  0
   20.0025   72.5978    1.3681 H   0  0  0  0  0  0  0  0  0  0  0  0
   24.8113   69.8134    1.9805 O   0  0  0  0  0  0  0  0  0  0  0  0
   26.9539   73.6849    3.2709 O   0  0  0  0  0  0  0  0  0  0  0  0
   23.9434   71.8539    1.2447 N   0  0  0  0  0  0  0  0  0  0  0  0
   25.8760   71.7430    2.6227 N   0  0  0  0  0  0  0  0  0  0  0  0
   24.8667   71.0442    1.9474 C   0  0  0  0  0  0  0  0  0  0  0  0
   24.0783   73.2369    1.2564 C   0  0  0  0  0  0  0  0  0  0  0  0
   25.0456   73.8887    1.9046 C   0  0  0  0  0  0  0  0  0  0  0  0
   26.0510   73.1168    2.6641 C   0  0  0  0  0  0  0  0  0  0  0  0
   26.5296   71.2008    3.1208 H   0  0  0  0  0  0  0  0  0  0  0  0
   21.1141   72.9697   -4.9022 O   0  0  0  0  0  0  0  0  0  0  0  0
   19.9058   73.8020   -5.5810 P   0  0  2  0  0  0  0  0  0  0  0  0
   20.5815   74.4080   -6.9214 O   0  0  0  0  0  0  0  0  0  0  0  0
   19.2857   74.8316   -4.6814 O   0  0  0  0  0  0  0  0  0  0  0  0
   18.8819   72.6754   -6.1147 O   0  0  0  0  0  0  0  0  0  0  0  0
   18.5566   70.4085   -5.5110 O   0  0  0  0  0  0  0  0  0  0  0  0
   17.8410   70.3063   -9.5786 O   0  0  0  0  0  0  0  0  0  0  0  0
   20.0590   71.8749   -8.5042 O   0  0  0  0  0  0  0  0  0  0  0  0
   15.6231   70.1829   -7.7033 O   0  0  0  0  0  0  0  0  0  0  0  0
   17.8574   70.8821   -8.2724 C   0  0  2  0  0  0  0  0  0  0  0  0
   19.2952   70.9366   -7.7553 C   0  0  2  0  0  0  0  0  0  0  0  0
   16.9961   70.0071   -7.3590 C   0  0  1  0  0  0  0  0  0  0  0  0
   19.3307   71.3313   -6.2782 C   0  0  1  0  0  0  0  0  0  0  0  0
   17.1827   70.3811   -5.8914 C   0  0  1  0  0  0  0  0  0  0  0  0
   18.3820   70.8455  -10.1768 H   0  0  0  0  0  0  0  0  0  0  0  0
   20.0405   71.6306   -9.4425 H   0  0  0  0  0  0  0  0  0  0  0  0
   15.4908   69.9483   -8.6351 H   0  0  0  0  0  0  0  0  0  0  0  0
   16.6673   69.7188   -3.7012 O   0  0  0  0  0  0  0  0  0  0  0  0
   16.1451   68.2643   -5.3777 O   0  0  0  0  0  0  0  0  0  0  0  0
   16.6084   69.3296   -4.9988 C   0  0  0  0  0  0  0  0  0  0  0  0
  1  4  1  0
  1 24  1  0
  1  2  1  6
  1  3  2  0
 25 28  1  0
 25 24  1  0
 25 26  1  6
 25 27  2  0
  6 11  1  0
  6 12  1  0
 29 36  1  0
 29 37  1  0
  9  7  1  1
  7 13  1  0
 10  8  1  1
  8 14  1  0
  4  5  1  0
 36 28  1  6
 33 30  1  6
 30 38  1  0
 34 31  1  6
 31 39  1  0
 35 32  1  6
 32 40  1  0
 41 43  1  0
 15 19  2  0
 42 43  2  0
 16 22  2  0
 12 17  1  1
 17 19  1  0
 17 20  1  0
 18 19  1  0
 18 22  1  0
 18 23  1  0
  9 10  1  0
  9 11  1  0
 10 12  1  0
 11  5  1  1
 33 34  1  0
 33 35  1  0
 34 36  1  0
 35 37  1  0
 37 43  1  1
 20 21  2  0
 21 22  1  0
M  CHG  3   2  -1  26  -1  41  -1
M  END
>  <COMPND>  (535) 
    udp_gluA.pdb 

>  <AUTHOR>  (535) 
    GENERATED BY OPEN BABEL 3.1.1

>  <MASTER>  (535) 
        0    0    0    0    0    0    0    0   56    0   56    0

>  <minimizedAffinity>  (535) 
-7.92754

>  <CNNscore>  (535) 
0.5485702753

>  <CNNaffinity>  (535) 
4.3876047134

>  <CNN_VS>  (535) 
2.4069094658

>  <CNNaffinity_variance>  (535) 
0.0820754319

$$$$
536
     RDKit          3D

 43 45  0  0  0  0  0  0  0  0999 V2000
   22.6252   73.0891   -3.9619 P   0  0  2  0  0  0  0  0  0  0  0  0
   24.0335   72.4893   -4.4872 O   0  0  0  0  0  0  0  0  0  0  0  0
   22.6350   74.5595   -3.6629 O   0  0  0  0  0  0  0  0  0  0  0  0
   22.2285   72.1233   -2.7258 O   0  0  0  0  0  0  0  0  0  0  0  0
   21.3035   71.0764   -2.9555 C   0  0  0  0  0  0  0  0  0  0  0  0
   20.6295   70.5705   -0.7044 O   0  0  0  0  0  0  0  0  0  0  0  0
   18.4696   72.6144   -1.0897 O   0  0  0  0  0  0  0  0  0  0  0  0
   20.3341   73.9830    0.3548 O   0  0  0  0  0  0  0  0  0  0  0  0
   19.8093   72.6116   -1.5832 C   0  0  1  0  0  0  0  0  0  0  0  0
   20.7807   72.9228   -0.4644 C   0  0  2  0  0  0  0  0  0  0  0  0
   20.1773   71.1765   -1.9347 C   0  0  1  0  0  0  0  0  0  0  0  0
   20.8435   71.5979    0.2764 C   0  0  2  0  0  0  0  0  0  0  0  0
   18.2118   73.5209   -0.8583 H   0  0  0  0  0  0  0  0  0  0  0  0
   20.3118   74.8039   -0.1625 H   0  0  0  0  0  0  0  0  0  0  0  0
   21.3306   71.9402    3.0372 O   0  0  0  0  0  0  0  0  0  0  0  0
   25.7596   70.7450    2.5899 O   0  0  0  0  0  0  0  0  0  0  0  0
   22.1146   71.3830    0.9080 N   0  0  0  0  0  0  0  0  0  0  0  0
   23.5363   71.3456    2.8116 N   0  0  0  0  0  0  0  0  0  0  0  0
   22.2530   71.5832    2.3019 C   0  0  0  0  0  0  0  0  0  0  0  0
   23.2061   70.9773    0.1498 C   0  0  0  0  0  0  0  0  0  0  0  0
   24.4231   70.7546    0.6499 C   0  0  0  0  0  0  0  0  0  0  0  0
   24.6528   70.9417    2.0975 C   0  0  0  0  0  0  0  0  0  0  0  0
   23.6577   71.4803    3.7793 H   0  0  0  0  0  0  0  0  0  0  0  0
   21.5872   72.6440   -5.1183 O   0  0  0  0  0  0  0  0  0  0  0  0
   20.5970   73.5189   -6.0499 P   0  0  2  0  0  0  0  0  0  0  0  0
   21.4620   73.7445   -7.3994 O   0  0  0  0  0  0  0  0  0  0  0  0
   20.1085   74.7858   -5.4094 O   0  0  0  0  0  0  0  0  0  0  0  0
   19.4289   72.4934   -6.4816 O   0  0  0  0  0  0  0  0  0  0  0  0
   18.9945   70.2628   -5.8147 O   0  0  0  0  0  0  0  0  0  0  0  0
   17.7444   70.2216   -9.7521 O   0  0  0  0  0  0  0  0  0  0  0  0
   20.2095   71.5946   -8.9953 O   0  0  0  0  0  0  0  0  0  0  0  0
   15.7899   70.2889   -7.6013 O   0  0  0  0  0  0  0  0  0  0  0  0
   17.9813   70.7940   -8.4660 C   0  0  2  0  0  0  0  0  0  0  0  0
   19.4739   70.7253   -8.1422 C   0  0  2  0  0  0  0  0  0  0  0  0
   17.1763   69.9962   -7.4377 C   0  0  1  0  0  0  0  0  0  0  0  0
   19.7366   71.1158   -6.6871 C   0  0  1  0  0  0  0  0  0  0  0  0
   17.5852   70.3531   -6.0116 C   0  0  1  0  0  0  0  0  0  0  0  0
   18.2460   70.7124  -10.4221 H   0  0  0  0  0  0  0  0  0  0  0  0
   20.0472   71.3527   -9.9203 H   0  0  0  0  0  0  0  0  0  0  0  0
   15.5169   70.0664   -8.5050 H   0  0  0  0  0  0  0  0  0  0  0  0
   17.3813   69.6935   -3.7699 O   0  0  0  0  0  0  0  0  0  0  0  0
   16.3904   68.3680   -5.3385 O   0  0  0  0  0  0  0  0  0  0  0  0
   17.0460   69.3548   -5.0395 C   0  0  0  0  0  0  0  0  0  0  0  0
  1  4  1  0
  1 24  1  0
  1  2  1  6
  1  3  2  0
 25 28  1  0
 25 24  1  0
 25 26  1  6
 25 27  2  0
  6 11  1  0
  6 12  1  0
 29 36  1  0
 29 37  1  0
  9  7  1  1
  7 13  1  0
 10  8  1  1
  8 14  1  0
  4  5  1  0
 36 28  1  6
 33 30  1  6
 30 38  1  0
 34 31  1  6
 31 39  1  0
 35 32  1  1
 32 40  1  0
 41 43  1  0
 15 19  2  0
 42 43  2  0
 16 22  2  0
 12 17  1  6
 17 19  1  0
 17 20  1  0
 18 19  1  0
 18 22  1  0
 18 23  1  0
  9 10  1  0
  9 11  1  0
 10 12  1  0
 11  5  1  6
 33 34  1  0
 33 35  1  0
 34 36  1  0
 35 37  1  0
 37 43  1  1
 20 21  2  0
 21 22  1  0
M  CHG  3   2  -1  26  -1  41  -1
M  END
>  <COMPND>  (536) 
    udp_gluA.pdb 

>  <AUTHOR>  (536) 
    GENERATED BY OPEN BABEL 3.1.1

>  <MASTER>  (536) 
        0    0    0    0    0    0    0    0   56    0   56    0

>  <minimizedAffinity>  (536) 
-8.16379

>  <CNNscore>  (536) 
0.5477887988

>  <CNNaffinity>  (536) 
4.2313871384

>  <CNN_VS>  (536) 
2.3179063797

>  <CNNaffinity_variance>  (536) 
0.2874882221

$$$$
537
     RDKit          3D

 43 45  0  0  0  0  0  0  0  0999 V2000
   22.7792   73.0585   -4.0247 P   0  0  2  0  0  0  0  0  0  0  0  0
   23.7667   71.7763   -4.0254 O   0  0  0  0  0  0  0  0  0  0  0  0
   23.4595   74.3821   -4.2171 O   0  0  0  0  0  0  0  0  0  0  0  0
   21.9327   72.8961   -2.6554 O   0  0  0  0  0  0  0  0  0  0  0  0
   22.2397   73.7463   -1.5658 C   0  0  0  0  0  0  0  0  0  0  0  0
   22.9741   73.5410    0.7137 O   0  0  0  0  0  0  0  0  0  0  0  0
   24.0939   70.8757   -0.0827 O   0  0  0  0  0  0  0  0  0  0  0  0
   21.7723   70.1948    1.1754 O   0  0  0  0  0  0  0  0  0  0  0  0
   22.8989   71.5217   -0.5223 C   0  0  1  0  0  0  0  0  0  0  0  0
   21.8431   71.4646    0.5613 C   0  0  2  0  0  0  0  0  0  0  0  0
   23.1793   73.0153   -0.6156 C   0  0  1  0  0  0  0  0  0  0  0  0
   22.3113   72.5503    1.5153 C   0  0  2  0  0  0  0  0  0  0  0  0
   23.9393   69.9201   -0.0155 H   0  0  0  0  0  0  0  0  0  0  0  0
   21.4695   69.5387    0.5274 H   0  0  0  0  0  0  0  0  0  0  0  0
   22.1415   72.7618    4.3265 O   0  0  0  0  0  0  0  0  0  0  0  0
   18.0892   74.9463    4.1001 O   0  0  0  0  0  0  0  0  0  0  0  0
   21.2229   73.1695    2.2174 N   0  0  0  0  0  0  0  0  0  0  0  0
   20.1229   73.8487    4.2111 N   0  0  0  0  0  0  0  0  0  0  0  0
   21.2345   73.2232    3.6312 C   0  0  0  0  0  0  0  0  0  0  0  0
   20.1610   73.7163    1.5071 C   0  0  0  0  0  0  0  0  0  0  0  0
   19.1085   74.3095    2.0739 C   0  0  0  0  0  0  0  0  0  0  0  0
   19.0426   74.4067    3.5468 C   0  0  0  0  0  0  0  0  0  0  0  0
   20.1076   73.8964    5.1943 H   0  0  0  0  0  0  0  0  0  0  0  0
   21.6982   72.6846   -5.1668 O   0  0  0  0  0  0  0  0  0  0  0  0
   20.6136   73.5993   -5.9418 P   0  0  2  0  0  0  0  0  0  0  0  0
   21.3626   73.9655   -7.3294 O   0  0  0  0  0  0  0  0  0  0  0  0
   20.1424   74.7913   -5.1602 O   0  0  0  0  0  0  0  0  0  0  0  0
   19.4439   72.5738   -6.3689 O   0  0  0  0  0  0  0  0  0  0  0  0
   19.0168   70.3610   -5.6407 O   0  0  0  0  0  0  0  0  0  0  0  0
   17.6960   70.2281   -9.5529 O   0  0  0  0  0  0  0  0  0  0  0  0
   20.1771   71.6127   -8.8739 O   0  0  0  0  0  0  0  0  0  0  0  0
   15.7806   70.3522   -7.3696 O   0  0  0  0  0  0  0  0  0  0  0  0
   17.9571   70.8308   -8.2854 C   0  0  2  0  0  0  0  0  0  0  0  0
   19.4552   70.7660   -7.9869 C   0  0  2  0  0  0  0  0  0  0  0  0
   17.1691   70.0600   -7.2239 C   0  0  1  0  0  0  0  0  0  0  0  0
   19.7449   71.1908   -6.5466 C   0  0  1  0  0  0  0  0  0  0  0  0
   17.6044   70.4501   -5.8144 C   0  0  1  0  0  0  0  0  0  0  0  0
   18.1864   70.7013  -10.2434 H   0  0  0  0  0  0  0  0  0  0  0  0
   19.9977   71.3490   -9.7896 H   0  0  0  0  0  0  0  0  0  0  0  0
   15.4909   70.1087   -8.2627 H   0  0  0  0  0  0  0  0  0  0  0  0
   17.1600   69.9924   -3.5572 O   0  0  0  0  0  0  0  0  0  0  0  0
   16.6378   68.3684   -5.0702 O   0  0  0  0  0  0  0  0  0  0  0  0
   17.0806   69.4769   -4.8090 C   0  0  0  0  0  0  0  0  0  0  0  0
  1  4  1  0
  1 24  1  0
  1  2  1  1
  1  3  2  0
 25 28  1  0
 25 24  1  0
 25 26  1  6
 25 27  2  0
  6 11  1  0
  6 12  1  0
 29 36  1  0
 29 37  1  0
  9  7  1  1
  7 13  1  0
 10  8  1  1
  8 14  1  0
  4  5  1  0
 36 28  1  6
 33 30  1  6
 30 38  1  0
 34 31  1  6
 31 39  1  0
 35 32  1  1
 32 40  1  0
 41 43  1  0
 15 19  2  0
 42 43  2  0
 16 22  2  0
 12 17  1  6
 17 19  1  0
 17 20  1  0
 18 19  1  0
 18 22  1  0
 18 23  1  0
  9 10  1  0
  9 11  1  0
 10 12  1  0
 11  5  1  6
 33 34  1  0
 33 35  1  0
 34 36  1  0
 35 37  1  0
 37 43  1  1
 20 21  2  0
 21 22  1  0
M  CHG  3   2  -1  26  -1  41  -1
M  END
>  <COMPND>  (537) 
    udp_gluA.pdb 

>  <AUTHOR>  (537) 
    GENERATED BY OPEN BABEL 3.1.1

>  <MASTER>  (537) 
        0    0    0    0    0    0    0    0   56    0   56    0

>  <minimizedAffinity>  (537) 
-7.29103

>  <CNNscore>  (537) 
0.5348516107

>  <CNNaffinity>  (537) 
4.3084211349

>  <CNN_VS>  (537) 
2.3043658733

>  <CNNaffinity_variance>  (537) 
0.0711090565

$$$$
538
     RDKit          3D

 43 45  0  0  0  0  0  0  0  0999 V2000
   23.4447   72.2894   -3.5291 P   0  0  2  0  0  0  0  0  0  0  0  0
   24.0816   70.8290   -3.2454 O   0  0  0  0  0  0  0  0  0  0  0  0
   24.4226   73.3269   -3.9974 O   0  0  0  0  0  0  0  0  0  0  0  0
   22.6500   72.6386   -2.1637 O   0  0  0  0  0  0  0  0  0  0  0  0
   23.3882   72.7461   -0.9603 C   0  0  0  0  0  0  0  0  0  0  0  0
   24.4238   71.2493    0.6097 O   0  0  0  0  0  0  0  0  0  0  0  0
   21.6674   70.1930    1.1371 O   0  0  0  0  0  0  0  0  0  0  0  0
   22.0892   71.8461    3.2645 O   0  0  0  0  0  0  0  0  0  0  0  0
   22.0843   71.5288    0.8537 C   0  0  1  0  0  0  0  0  0  0  0  0
   22.7715   72.1307    2.0611 C   0  0  2  0  0  0  0  0  0  0  0  0
   23.2197   71.4619   -0.1586 C   0  0  1  0  0  0  0  0  0  0  0  0
   24.1436   71.4815    1.9993 C   0  0  2  0  0  0  0  0  0  0  0  0
   20.9424   70.2101    1.7819 H   0  0  0  0  0  0  0  0  0  0  0  0
   21.2219   72.2817    3.2552 H   0  0  0  0  0  0  0  0  0  0  0  0
   26.8155   70.6650    2.4122 O   0  0  0  0  0  0  0  0  0  0  0  0
   28.0020   74.7801    4.1159 O   0  0  0  0  0  0  0  0  0  0  0  0
   25.1715   72.3193    2.5492 N   0  0  0  0  0  0  0  0  0  0  0  0
   27.4037   72.7150    3.2613 N   0  0  0  0  0  0  0  0  0  0  0  0
   26.4818   71.8119    2.7156 C   0  0  0  0  0  0  0  0  0  0  0  0
   24.8781   73.6273    2.9155 C   0  0  0  0  0  0  0  0  0  0  0  0
   25.7675   74.4762    3.4342 C   0  0  0  0  0  0  0  0  0  0  0  0
   27.1591   74.0247    3.6415 C   0  0  0  0  0  0  0  0  0  0  0  0
   28.3221   72.3839    3.3885 H   0  0  0  0  0  0  0  0  0  0  0  0
   22.2520   71.9689   -4.5719 O   0  0  0  0  0  0  0  0  0  0  0  0
   21.5509   72.8918   -5.6989 P   0  0  2  0  0  0  0  0  0  0  0  0
   22.4490   72.6131   -7.0165 O   0  0  0  0  0  0  0  0  0  0  0  0
   21.4361   74.3411   -5.3241 O   0  0  0  0  0  0  0  0  0  0  0  0
   20.1430   72.1659   -6.0047 O   0  0  0  0  0  0  0  0  0  0  0  0
   19.4343   69.9852   -5.4121 O   0  0  0  0  0  0  0  0  0  0  0  0
   17.3773   70.6078   -8.9405 O   0  0  0  0  0  0  0  0  0  0  0  0
   20.1682   71.4334   -8.6878 O   0  0  0  0  0  0  0  0  0  0  0  0
   15.9876   70.7737   -6.3925 O   0  0  0  0  0  0  0  0  0  0  0  0
   17.9950   70.9812   -7.7087 C   0  0  2  0  0  0  0  0  0  0  0  0
   19.4790   70.6159   -7.7490 C   0  0  2  0  0  0  0  0  0  0  0  0
   17.2914   70.2260   -6.5789 C   0  0  1  0  0  0  0  0  0  0  0  0
   20.1223   70.7878   -6.3723 C   0  0  1  0  0  0  0  0  0  0  0  0
   18.0616   70.3427   -5.2668 C   0  0  1  0  0  0  0  0  0  0  0  0
   17.8081   71.0755   -9.6732 H   0  0  0  0  0  0  0  0  0  0  0  0
   19.7651   71.3296   -9.5636 H   0  0  0  0  0  0  0  0  0  0  0  0
   15.4870   70.7058   -7.2205 H   0  0  0  0  0  0  0  0  0  0  0  0
   18.5816   68.8745   -3.5131 O   0  0  0  0  0  0  0  0  0  0  0  0
   16.3936   69.0126   -4.1397 O   0  0  0  0  0  0  0  0  0  0  0  0
   17.5607   69.3511   -4.2677 C   0  0  0  0  0  0  0  0  0  0  0  0
  1  4  1  0
  1 24  1  0
  1  2  1  1
  1  3  2  0
 25 28  1  0
 25 24  1  0
 25 26  1  6
 25 27  2  0
  6 11  1  0
  6 12  1  0
 29 36  1  0
 29 37  1  0
  9  7  1  1
  7 13  1  0
 10  8  1  1
  8 14  1  0
  4  5  1  0
 36 28  1  1
 33 30  1  6
 30 38  1  0
 34 31  1  6
 31 39  1  0
 35 32  1  1
 32 40  1  0
 41 43  1  0
 15 19  2  0
 42 43  2  0
 16 22  2  0
 12 17  1  6
 17 19  1  0
 17 20  1  0
 18 19  1  0
 18 22  1  0
 18 23  1  0
  9 10  1  0
  9 11  1  0
 10 12  1  0
 11  5  1  1
 33 34  1  0
 33 35  1  0
 34 36  1  0
 35 37  1  0
 37 43  1  1
 20 21  2  0
 21 22  1  0
M  CHG  3   2  -1  26  -1  41  -1
M  END
>  <COMPND>  (538) 
    udp_gluA.pdb 

>  <AUTHOR>  (538) 
    GENERATED BY OPEN BABEL 3.1.1

>  <MASTER>  (538) 
        0    0    0    0    0    0    0    0   56    0   56    0

>  <minimizedAffinity>  (538) 
-8.25896

>  <CNNscore>  (538) 
0.5120030642

>  <CNNaffinity>  (538) 
4.3662333488

>  <CNN_VS>  (538) 
2.2355248928

>  <CNNaffinity_variance>  (538) 
0.1513212025

$$$$
539
     RDKit          3D

 43 45  0  0  0  0  0  0  0  0999 V2000
   19.4337   76.0321   -3.4127 P   0  0  2  0  0  0  0  0  0  0  0  0
   19.4399   75.9976   -1.7948 O   0  0  0  0  0  0  0  0  0  0  0  0
   18.5569   77.0874   -4.0205 O   0  0  0  0  0  0  0  0  0  0  0  0
   19.0921   74.5073   -3.8325 O   0  0  0  0  0  0  0  0  0  0  0  0
   18.2526   74.2859   -4.9509 C   0  0  0  0  0  0  0  0  0  0  0  0
   16.7689   72.6003   -5.8082 O   0  0  0  0  0  0  0  0  0  0  0  0
   16.6666   71.5307   -3.0087 O   0  0  0  0  0  0  0  0  0  0  0  0
   18.4195   69.8362   -4.2303 O   0  0  0  0  0  0  0  0  0  0  0  0
   17.7612   72.1188   -3.7119 C   0  0  1  0  0  0  0  0  0  0  0  0
   18.3063   71.1489   -4.7388 C   0  0  2  0  0  0  0  0  0  0  0  0
   17.2108   73.2352   -4.5888 C   0  0  1  0  0  0  0  0  0  0  0  0
   17.2787   71.2580   -5.8523 C   0  0  2  0  0  0  0  0  0  0  0  0
   16.9937   70.8144   -2.4416 H   0  0  0  0  0  0  0  0  0  0  0  0
   19.0857   69.8192   -3.5247 H   0  0  0  0  0  0  0  0  0  0  0  0
   15.7971   70.4601   -8.1205 O   0  0  0  0  0  0  0  0  0  0  0  0
   19.5648   70.3615  -10.7734 O   0  0  0  0  0  0  0  0  0  0  0  0
   17.8472   71.0169   -7.1483 N   0  0  0  0  0  0  0  0  0  0  0  0
   17.6752   70.4108   -9.4394 N   0  0  0  0  0  0  0  0  0  0  0  0
   17.0150   70.6193   -8.2213 C   0  0  0  0  0  0  0  0  0  0  0  0
   19.2133   71.1760   -7.3469 C   0  0  0  0  0  0  0  0  0  0  0  0
   19.8282   70.9737   -8.5138 C   0  0  0  0  0  0  0  0  0  0  0  0
   19.0309   70.5556   -9.6855 C   0  0  0  0  0  0  0  0  0  0  0  0
   17.1169   70.1314  -10.2007 H   0  0  0  0  0  0  0  0  0  0  0  0
   21.0024   76.1671   -3.7788 O   0  0  0  0  0  0  0  0  0  0  0  0
   22.3089   75.4786   -3.1210 P   0  0  2  0  0  0  0  0  0  0  0  0
   22.5724   76.3739   -1.7984 O   0  0  0  0  0  0  0  0  0  0  0  0
   23.4864   75.3822   -4.0472 O   0  0  0  0  0  0  0  0  0  0  0  0
   21.7841   74.0618   -2.5556 O   0  0  0  0  0  0  0  0  0  0  0  0
   22.4640   72.6687   -0.7650 O   0  0  0  0  0  0  0  0  0  0  0  0
   21.4875   69.8933   -3.6653 O   0  0  0  0  0  0  0  0  0  0  0  0
   22.9638   72.3139   -4.3693 O   0  0  0  0  0  0  0  0  0  0  0  0
   19.6904   70.3601   -1.4284 O   0  0  0  0  0  0  0  0  0  0  0  0
   21.3864   71.1289   -2.9573 C   0  0  2  0  0  0  0  0  0  0  0  0
   22.7183   71.8754   -3.0381 C   0  0  2  0  0  0  0  0  0  0  0  0
   21.0413   70.8122   -1.5004 C   0  0  1  0  0  0  0  0  0  0  0  0
   22.7236   73.0874   -2.1055 C   0  0  1  0  0  0  0  0  0  0  0  0
   21.1915   72.0438   -0.6120 C   0  0  1  0  0  0  0  0  0  0  0  0
   21.7063   70.0696   -4.5939 H   0  0  0  0  0  0  0  0  0  0  0  0
   22.9615   71.5500   -4.9666 H   0  0  0  0  0  0  0  0  0  0  0  0
   19.5813   69.5766   -1.9897 H   0  0  0  0  0  0  0  0  0  0  0  0
   21.4547   70.3419    0.9805 O   0  0  0  0  0  0  0  0  0  0  0  0
   20.9503   72.4251    1.7582 O   0  0  0  0  0  0  0  0  0  0  0  0
   21.1773   71.6610    0.8321 C   0  0  0  0  0  0  0  0  0  0  0  0
  1  4  1  0
  1 24  1  0
  1  2  1  1
  1  3  2  0
 25 28  1  0
 25 24  1  0
 25 26  1  1
 25 27  2  0
  6 11  1  0
  6 12  1  0
 29 36  1  0
 29 37  1  0
  9  7  1  6
  7 13  1  0
 10  8  1  1
  8 14  1  0
  4  5  1  0
 36 28  1  6
 33 30  1  6
 30 38  1  0
 34 31  1  6
 31 39  1  0
 35 32  1  6
 32 40  1  0
 41 43  1  0
 15 19  2  0
 42 43  2  0
 16 22  2  0
 12 17  1  6
 17 19  1  0
 17 20  1  0
 18 19  1  0
 18 22  1  0
 18 23  1  0
  9 10  1  0
  9 11  1  0
 10 12  1  0
 11  5  1  6
 33 34  1  0
 33 35  1  0
 34 36  1  0
 35 37  1  0
 37 43  1  1
 20 21  2  0
 21 22  1  0
M  CHG  3   2  -1  26  -1  41  -1
M  END
>  <COMPND>  (539) 
    udp_gluA.pdb 

>  <AUTHOR>  (539) 
    GENERATED BY OPEN BABEL 3.1.1

>  <MASTER>  (539) 
        0    0    0    0    0    0    0    0   56    0   56    0

>  <minimizedAffinity>  (539) 
-6.35115

>  <CNNscore>  (539) 
0.4873158336

>  <CNNaffinity>  (539) 
4.3668112755

>  <CNN_VS>  (539) 
2.1280162334

>  <CNNaffinity_variance>  (539) 
0.1275928319

$$$$
540
     RDKit          3D

 43 45  0  0  0  0  0  0  0  0999 V2000
   23.3493   72.8182   -3.0906 P   0  0  2  0  0  0  0  0  0  0  0  0
   24.3602   72.6232   -4.3391 O   0  0  0  0  0  0  0  0  0  0  0  0
   23.5274   71.8345   -1.9715 O   0  0  0  0  0  0  0  0  0  0  0  0
   21.8844   72.8438   -3.7771 O   0  0  0  0  0  0  0  0  0  0  0  0
   21.3813   74.0795   -4.2510 C   0  0  0  0  0  0  0  0  0  0  0  0
   20.9492   72.7276   -6.1909 O   0  0  0  0  0  0  0  0  0  0  0  0
   20.7302   75.3046   -7.7083 O   0  0  0  0  0  0  0  0  0  0  0  0
   18.1198   74.6181   -7.3200 O   0  0  0  0  0  0  0  0  0  0  0  0
   20.3253   75.0055   -6.3722 C   0  0  1  0  0  0  0  0  0  0  0  0
   19.0704   74.1584   -6.3821 C   0  0  2  0  0  0  0  0  0  0  0  0
   21.3493   74.0509   -5.7737 C   0  0  1  0  0  0  0  0  0  0  0  0
   19.6194   72.7855   -6.7309 C   0  0  2  0  0  0  0  0  0  0  0  0
   20.0909   75.9132   -8.1116 H   0  0  0  0  0  0  0  0  0  0  0  0
   17.8006   75.4951   -7.0534 H   0  0  0  0  0  0  0  0  0  0  0  0
   17.3137   71.6837   -7.9336 O   0  0  0  0  0  0  0  0  0  0  0  0
   16.7020   68.7111   -4.4646 O   0  0  0  0  0  0  0  0  0  0  0  0
   18.8384   71.7228   -6.1638 N   0  0  0  0  0  0  0  0  0  0  0  0
   17.0107   70.2049   -6.2042 N   0  0  0  0  0  0  0  0  0  0  0  0
   17.6977   71.2418   -6.8490 C   0  0  0  0  0  0  0  0  0  0  0  0
   19.2051   71.1674   -4.9439 C   0  0  0  0  0  0  0  0  0  0  0  0
   18.5403   70.1793   -4.3418 C   0  0  0  0  0  0  0  0  0  0  0  0
   17.3363   69.6205   -4.9909 C   0  0  0  0  0  0  0  0  0  0  0  0
   16.2119   69.8550   -6.6611 H   0  0  0  0  0  0  0  0  0  0  0  0
   23.5820   74.3624   -2.6731 O   0  0  0  0  0  0  0  0  0  0  0  0
   23.3595   75.1266   -1.2659 P   0  0  2  0  0  0  0  0  0  0  0  0
   21.7835   74.9049   -0.9698 O   0  0  0  0  0  0  0  0  0  0  0  0
   23.7915   76.5644   -1.2709 O   0  0  0  0  0  0  0  0  0  0  0  0
   24.1120   74.2052   -0.1763 O   0  0  0  0  0  0  0  0  0  0  0  0
   22.6226   73.2873    1.4201 O   0  0  0  0  0  0  0  0  0  0  0  0
   26.2924   72.1725    2.9556 O   0  0  0  0  0  0  0  0  0  0  0  0
   25.8992   74.8499    1.8550 O   0  0  0  0  0  0  0  0  0  0  0  0
   24.6198   70.2150    1.6060 O   0  0  0  0  0  0  0  0  0  0  0  0
   25.3500   72.4879    1.9308 C   0  0  2  0  0  0  0  0  0  0  0  0
   24.8528   73.9218    2.1165 C   0  0  2  0  0  0  0  0  0  0  0  0
   24.1847   71.5021    2.0402 C   0  0  1  0  0  0  0  0  0  0  0  0
   23.6787   74.2189    1.1827 C   0  0  1  0  0  0  0  0  0  0  0  0
   23.0050   71.9357    1.1748 C   0  0  1  0  0  0  0  0  0  0  0  0
   27.0421   72.7863    2.9058 H   0  0  0  0  0  0  0  0  0  0  0  0
   26.6476   74.6670    2.4439 H   0  0  0  0  0  0  0  0  0  0  0  0
   25.3705   69.9274    2.1487 H   0  0  0  0  0  0  0  0  0  0  0  0
   21.0161   71.8647    2.4161 O   0  0  0  0  0  0  0  0  0  0  0  0
   21.4816   70.0665    1.0937 O   0  0  0  0  0  0  0  0  0  0  0  0
   21.7740   71.1685    1.5330 C   0  0  0  0  0  0  0  0  0  0  0  0
  1  4  1  0
  1 24  1  0
  1  2  1  6
  1  3  2  0
 25 28  1  0
 25 24  1  0
 25 26  1  1
 25 27  2  0
  6 11  1  0
  6 12  1  0
 29 36  1  0
 29 37  1  0
  9  7  1  6
  7 13  1  0
 10  8  1  6
  8 14  1  0
  4  5  1  0
 36 28  1  6
 33 30  1  1
 30 38  1  0
 34 31  1  6
 31 39  1  0
 35 32  1  6
 32 40  1  0
 41 43  1  0
 15 19  2  0
 42 43  2  0
 16 22  2  0
 12 17  1  1
 17 19  1  0
 17 20  1  0
 18 19  1  0
 18 22  1  0
 18 23  1  0
  9 10  1  0
  9 11  1  0
 10 12  1  0
 11  5  1  1
 33 34  1  0
 33 35  1  0
 34 36  1  0
 35 37  1  0
 37 43  1  1
 20 21  2  0
 21 22  1  0
M  CHG  3   2  -1  26  -1  41  -1
M  END
>  <COMPND>  (540) 
    udp_gluA.pdb 

>  <AUTHOR>  (540) 
    GENERATED BY OPEN BABEL 3.1.1

>  <MASTER>  (540) 
        0    0    0    0    0    0    0    0   56    0   56    0

>  <minimizedAffinity>  (540) 
-6.77319

>  <CNNscore>  (540) 
0.4831748009

>  <CNNaffinity>  (540) 
4.2375769615

>  <CNN_VS>  (540) 
2.0474903584

>  <CNNaffinity_variance>  (540) 
0.1018089801

$$$$
541
     RDKit          3D

 43 45  0  0  0  0  0  0  0  0999 V2000
   22.9404   71.5969   -2.6846 P   0  0  2  0  0  0  0  0  0  0  0  0
   23.0365   73.1637   -2.2910 O   0  0  0  0  0  0  0  0  0  0  0  0
   24.2001   71.0068   -3.2474 O   0  0  0  0  0  0  0  0  0  0  0  0
   21.6380   71.5158   -3.6411 O   0  0  0  0  0  0  0  0  0  0  0  0
   20.8279   70.3561   -3.5833 C   0  0  0  0  0  0  0  0  0  0  0  0
   18.8911   71.4530   -4.4906 O   0  0  0  0  0  0  0  0  0  0  0  0
   17.3256   70.0534   -2.3501 O   0  0  0  0  0  0  0  0  0  0  0  0
   16.8203   68.5269   -4.5525 O   0  0  0  0  0  0  0  0  0  0  0  0
   18.4514   69.5897   -3.0958 C   0  0  1  0  0  0  0  0  0  0  0  0
   18.0367   69.2432   -4.5101 C   0  0  2  0  0  0  0  0  0  0  0  0
   19.3863   70.7707   -3.3182 C   0  0  1  0  0  0  0  0  0  0  0  0
   17.9298   70.6157   -5.1526 C   0  0  2  0  0  0  0  0  0  0  0  0
   16.7139   69.3161   -2.1955 H   0  0  0  0  0  0  0  0  0  0  0  0
   16.9404   67.6606   -4.1316 H   0  0  0  0  0  0  0  0  0  0  0  0
   16.0422   70.0142   -7.1655 O   0  0  0  0  0  0  0  0  0  0  0  0
   19.1703   70.5369  -10.5100 O   0  0  0  0  0  0  0  0  0  0  0  0
   18.2240   70.5875   -6.5574 N   0  0  0  0  0  0  0  0  0  0  0  0
   17.6022   70.2741   -8.8293 N   0  0  0  0  0  0  0  0  0  0  0  0
   17.2037   70.2735   -7.4860 C   0  0  0  0  0  0  0  0  0  0  0  0
   19.5096   70.8703   -7.0026 C   0  0  0  0  0  0  0  0  0  0  0  0
   19.8743   70.8671   -8.2862 C   0  0  0  0  0  0  0  0  0  0  0  0
   18.8684   70.5482   -9.3205 C   0  0  0  0  0  0  0  0  0  0  0  0
   16.9096   70.0563   -9.4942 H   0  0  0  0  0  0  0  0  0  0  0  0
   22.4284   70.9092   -1.3143 O   0  0  0  0  0  0  0  0  0  0  0  0
   21.7173   71.5449   -0.0089 P   0  0  2  0  0  0  0  0  0  0  0  0
   21.1370   70.2470    0.7651 O   0  0  0  0  0  0  0  0  0  0  0  0
   20.6872   72.5926   -0.3176 O   0  0  0  0  0  0  0  0  0  0  0  0
   22.9377   72.0571    0.9134 O   0  0  0  0  0  0  0  0  0  0  0  0
   24.6115   71.3339    2.4248 O   0  0  0  0  0  0  0  0  0  0  0  0
   22.5364   74.0741    4.7167 O   0  0  0  0  0  0  0  0  0  0  0  0
   21.1047   72.1925    3.0009 O   0  0  0  0  0  0  0  0  0  0  0  0
   25.1257   74.7731    3.5952 O   0  0  0  0  0  0  0  0  0  0  0  0
   23.0700   73.5190    3.5147 C   0  0  2  0  0  0  0  0  0  0  0  0
   22.4944   72.1193    3.2978 C   0  0  2  0  0  0  0  0  0  0  0  0
   24.5920   73.4519    3.6597 C   0  0  1  0  0  0  0  0  0  0  0  0
   23.2115   71.4043    2.1518 C   0  0  1  0  0  0  0  0  0  0  0  0
   25.2213   72.6169    2.5483 C   0  0  1  0  0  0  0  0  0  0  0  0
   21.5700   74.1265    4.6478 H   0  0  0  0  0  0  0  0  0  0  0  0
   20.6435   72.6452    3.7239 H   0  0  0  0  0  0  0  0  0  0  0  0
   24.7331   75.3150    4.2973 H   0  0  0  0  0  0  0  0  0  0  0  0
   26.9362   71.0178    2.4876 O   0  0  0  0  0  0  0  0  0  0  0  0
   27.4337   73.0419    3.4120 O   0  0  0  0  0  0  0  0  0  0  0  0
   26.6408   72.2836    2.8741 C   0  0  0  0  0  0  0  0  0  0  0  0
  1  4  1  0
  1 24  1  0
  1  2  1  1
  1  3  2  0
 25 28  1  0
 25 24  1  0
 25 26  1  1
 25 27  2  0
  6 11  1  0
  6 12  1  0
 29 36  1  0
 29 37  1  0
  9  7  1  1
  7 13  1  0
 10  8  1  1
  8 14  1  0
  4  5  1  0
 36 28  1  6
 33 30  1  1
 30 38  1  0
 34 31  1  6
 31 39  1  0
 35 32  1  6
 32 40  1  0
 41 43  1  0
 15 19  2  0
 42 43  2  0
 16 22  2  0
 12 17  1  6
 17 19  1  0
 17 20  1  0
 18 19  1  0
 18 22  1  0
 18 23  1  0
  9 10  1  0
  9 11  1  0
 10 12  1  0
 11  5  1  6
 33 34  1  0
 33 35  1  0
 34 36  1  0
 35 37  1  0
 37 43  1  1
 20 21  2  0
 21 22  1  0
M  CHG  3   2  -1  26  -1  41  -1
M  END
>  <COMPND>  (541) 
    udp_gluA.pdb 

>  <AUTHOR>  (541) 
    GENERATED BY OPEN BABEL 3.1.1

>  <MASTER>  (541) 
        0    0    0    0    0    0    0    0   56    0   56    0

>  <minimizedAffinity>  (541) 
-8.24586

>  <CNNscore>  (541) 
0.9145312309

>  <CNNaffinity>  (541) 
4.8177323341

>  <CNN_VS>  (541) 
4.4059667587

>  <CNNaffinity_variance>  (541) 
0.0640347824

$$$$
542
     RDKit          3D

 43 45  0  0  0  0  0  0  0  0999 V2000
   22.5966   72.3746   -4.5103 P   0  0  2  0  0  0  0  0  0  0  0  0
   23.0212   72.4272   -6.0710 O   0  0  0  0  0  0  0  0  0  0  0  0
   23.3063   71.3336   -3.6954 O   0  0  0  0  0  0  0  0  0  0  0  0
   20.9834   72.2563   -4.5504 O   0  0  0  0  0  0  0  0  0  0  0  0
   20.3630   71.2198   -3.8119 C   0  0  0  0  0  0  0  0  0  0  0  0
   18.4119   71.9914   -4.9849 O   0  0  0  0  0  0  0  0  0  0  0  0
   16.8161   70.7100   -2.7934 O   0  0  0  0  0  0  0  0  0  0  0  0
   16.6367   68.8814   -4.8084 O   0  0  0  0  0  0  0  0  0  0  0  0
   18.0372   70.2774   -3.3934 C   0  0  1  0  0  0  0  0  0  0  0  0
   17.7731   69.7194   -4.7759 C   0  0  2  0  0  0  0  0  0  0  0  0
   18.8721   71.5126   -3.7026 C   0  0  1  0  0  0  0  0  0  0  0  0
   17.5904   70.9845   -5.5969 C   0  0  2  0  0  0  0  0  0  0  0  0
   16.2657   69.9379   -2.5868 H   0  0  0  0  0  0  0  0  0  0  0  0
   16.8030   68.0903   -4.2713 H   0  0  0  0  0  0  0  0  0  0  0  0
   15.8787   70.1477   -7.6818 O   0  0  0  0  0  0  0  0  0  0  0  0
   19.2669   70.3691  -10.7987 O   0  0  0  0  0  0  0  0  0  0  0  0
   17.9991   70.8152   -6.9627 N   0  0  0  0  0  0  0  0  0  0  0  0
   17.5681   70.2578   -9.2320 N   0  0  0  0  0  0  0  0  0  0  0  0
   17.0607   70.3904   -7.9328 C   0  0  0  0  0  0  0  0  0  0  0  0
   19.3148   71.0702   -7.3296 C   0  0  0  0  0  0  0  0  0  0  0  0
   19.7837   70.9394   -8.5721 C   0  0  0  0  0  0  0  0  0  0  0  0
   18.8683   70.4991   -9.6452 C   0  0  0  0  0  0  0  0  0  0  0  0
   16.9340   69.9613   -9.9243 H   0  0  0  0  0  0  0  0  0  0  0  0
   22.8372   73.8951   -4.0174 O   0  0  0  0  0  0  0  0  0  0  0  0
   24.0210   74.5489   -3.1314 P   0  0  2  0  0  0  0  0  0  0  0  0
   23.6184   76.1158   -3.0749 O   0  0  0  0  0  0  0  0  0  0  0  0
   25.4020   74.2839   -3.6572 O   0  0  0  0  0  0  0  0  0  0  0  0
   23.7590   74.0070   -1.6347 O   0  0  0  0  0  0  0  0  0  0  0  0
   21.7768   73.0254   -0.7883 O   0  0  0  0  0  0  0  0  0  0  0  0
   23.3950   74.7199    2.6144 O   0  0  0  0  0  0  0  0  0  0  0  0
   23.4244   76.1717    0.0794 O   0  0  0  0  0  0  0  0  0  0  0  0
   23.5611   71.8482    2.1937 O   0  0  0  0  0  0  0  0  0  0  0  0
   23.4208   74.0937    1.3317 C   0  0  2  0  0  0  0  0  0  0  0  0
   22.6919   74.9752    0.3172 C   0  0  2  0  0  0  0  0  0  0  0  0
   22.7251   72.7362    1.4541 C   0  0  1  0  0  0  0  0  0  0  0  0
   22.4983   74.2380   -1.0087 C   0  0  1  0  0  0  0  0  0  0  0  0
   22.4547   72.1231    0.0831 C   0  0  1  0  0  0  0  0  0  0  0  0
   23.8317   75.5846    2.5611 H   0  0  0  0  0  0  0  0  0  0  0  0
   23.5512   76.6444    0.9166 H   0  0  0  0  0  0  0  0  0  0  0  0
   23.7410   72.2268    3.0685 H   0  0  0  0  0  0  0  0  0  0  0  0
   21.9251   70.0862    1.1186 O   0  0  0  0  0  0  0  0  0  0  0  0
   20.4708   70.8608   -0.4575 O   0  0  0  0  0  0  0  0  0  0  0  0
   21.4986   70.9802    0.1924 C   0  0  0  0  0  0  0  0  0  0  0  0
  1  4  1  0
  1 24  1  0
  1  2  1  6
  1  3  2  0
 25 28  1  0
 25 24  1  0
 25 26  1  1
 25 27  2  0
  6 11  1  0
  6 12  1  0
 29 36  1  0
 29 37  1  0
  9  7  1  6
  7 13  1  0
 10  8  1  1
  8 14  1  0
  4  5  1  0
 36 28  1  1
 33 30  1  1
 30 38  1  0
 34 31  1  6
 31 39  1  0
 35 32  1  1
 32 40  1  0
 41 43  1  0
 15 19  2  0
 42 43  2  0
 16 22  2  0
 12 17  1  6
 17 19  1  0
 17 20  1  0
 18 19  1  0
 18 22  1  0
 18 23  1  0
  9 10  1  0
  9 11  1  0
 10 12  1  0
 11  5  1  6
 33 34  1  0
 33 35  1  0
 34 36  1  0
 35 37  1  0
 37 43  1  1
 20 21  2  0
 21 22  1  0
M  CHG  3   2  -1  26  -1  41  -1
M  END
>  <COMPND>  (542) 
    udp_gluA.pdb 

>  <AUTHOR>  (542) 
    GENERATED BY OPEN BABEL 3.1.1

>  <MASTER>  (542) 
        0    0    0    0    0    0    0    0   56    0   56    0

>  <minimizedAffinity>  (542) 
-7.72587

>  <CNNscore>  (542) 
0.8938615322

>  <CNNaffinity>  (542) 
4.7510538101

>  <CNN_VS>  (542) 
4.2467842102

>  <CNNaffinity_variance>  (542) 
0.0849409699

$$$$
543
     RDKit          3D

 43 45  0  0  0  0  0  0  0  0999 V2000
   20.5276   71.2532   -1.4585 P   0  0  2  0  0  0  0  0  0  0  0  0
   21.1178   70.5345   -0.1341 O   0  0  0  0  0  0  0  0  0  0  0  0
   20.0379   72.6566   -1.2528 O   0  0  0  0  0  0  0  0  0  0  0  0
   19.4318   70.2012   -2.0158 O   0  0  0  0  0  0  0  0  0  0  0  0
   19.1068   70.2296   -3.3935 C   0  0  0  0  0  0  0  0  0  0  0  0
   17.4831   71.3263   -4.7857 O   0  0  0  0  0  0  0  0  0  0  0  0
   15.4106   69.7837   -3.2638 O   0  0  0  0  0  0  0  0  0  0  0  0
   15.6320   68.3601   -5.5791 O   0  0  0  0  0  0  0  0  0  0  0  0
   16.7222   69.3847   -3.6623 C   0  0  1  0  0  0  0  0  0  0  0  0
   16.7547   69.1013   -5.1492 C   0  0  2  0  0  0  0  0  0  0  0  0
   17.6367   70.5968   -3.5490 C   0  0  1  0  0  0  0  0  0  0  0  0
   16.7906   70.5019   -5.7366 C   0  0  2  0  0  0  0  0  0  0  0  0
   14.8082   69.0256   -3.3278 H   0  0  0  0  0  0  0  0  0  0  0  0
   15.6551   67.4766   -5.1781 H   0  0  0  0  0  0  0  0  0  0  0  0
   15.5234   70.5760   -8.2595 O   0  0  0  0  0  0  0  0  0  0  0  0
   19.5574   70.6933  -10.4859 O   0  0  0  0  0  0  0  0  0  0  0  0
   17.4857   70.5521   -6.9917 N   0  0  0  0  0  0  0  0  0  0  0  0
   17.5338   70.6333   -9.3660 N   0  0  0  0  0  0  0  0  0  0  0  0
   16.7545   70.5863   -8.2026 C   0  0  0  0  0  0  0  0  0  0  0  0
   18.8750   70.5688   -7.0150 C   0  0  0  0  0  0  0  0  0  0  0  0
   19.6039   70.6139   -8.1318 C   0  0  0  0  0  0  0  0  0  0  0  0
   18.9172   70.6510   -9.4397 C   0  0  0  0  0  0  0  0  0  0  0  0
   17.0470   70.6557  -10.2215 H   0  0  0  0  0  0  0  0  0  0  0  0
   21.7394   71.1114   -2.5188 O   0  0  0  0  0  0  0  0  0  0  0  0
   23.0806   71.9911   -2.7217 P   0  0  2  0  0  0  0  0  0  0  0  0
   24.1896   70.8854   -3.1314 O   0  0  0  0  0  0  0  0  0  0  0  0
   23.4528   72.8294   -1.5332 O   0  0  0  0  0  0  0  0  0  0  0  0
   22.8202   72.8279   -4.0761 O   0  0  0  0  0  0  0  0  0  0  0  0
   20.5160   73.2473   -4.4275 O   0  0  0  0  0  0  0  0  0  0  0  0
   22.1759   74.6895   -7.9251 O   0  0  0  0  0  0  0  0  0  0  0  0
   23.1168   72.1790   -6.7645 O   0  0  0  0  0  0  0  0  0  0  0  0
   21.2726   76.5354   -5.8690 O   0  0  0  0  0  0  0  0  0  0  0  0
   22.1345   74.3851   -6.5309 C   0  0  2  0  0  0  0  0  0  0  0  0
   21.9525   72.8790   -6.3411 C   0  0  2  0  0  0  0  0  0  0  0  0
   20.9573   75.1452   -5.9157 C   0  0  1  0  0  0  0  0  0  0  0  0
   21.6740   72.5420   -4.8756 C   0  0  1  0  0  0  0  0  0  0  0  0
   20.6633   74.6638   -4.4979 C   0  0  1  0  0  0  0  0  0  0  0  0
   22.9164   74.2174   -8.3374 H   0  0  0  0  0  0  0  0  0  0  0  0
   23.2995   72.3885   -7.6935 H   0  0  0  0  0  0  0  0  0  0  0  0
   21.4620   76.8543   -6.7653 H   0  0  0  0  0  0  0  0  0  0  0  0
   18.3679   74.8640   -4.9369 O   0  0  0  0  0  0  0  0  0  0  0  0
   19.1351   75.7569   -2.9842 O   0  0  0  0  0  0  0  0  0  0  0  0
   19.3338   75.1628   -4.0332 C   0  0  0  0  0  0  0  0  0  0  0  0
  1  4  1  0
  1 24  1  0
  1  2  1  1
  1  3  2  0
 25 28  1  0
 25 24  1  0
 25 26  1  6
 25 27  2  0
  6 11  1  0
  6 12  1  0
 29 36  1  0
 29 37  1  0
  9  7  1  6
  7 13  1  0
 10  8  1  6
  8 14  1  0
  4  5  1  0
 36 28  1  1
 33 30  1  6
 30 38  1  0
 34 31  1  1
 31 39  1  0
 35 32  1  1
 32 40  1  0
 41 43  1  0
 15 19  2  0
 42 43  2  0
 16 22  2  0
 12 17  1  6
 17 19  1  0
 17 20  1  0
 18 19  1  0
 18 22  1  0
 18 23  1  0
  9 10  1  0
  9 11  1  0
 10 12  1  0
 11  5  1  6
 33 34  1  0
 33 35  1  0
 34 36  1  0
 35 37  1  0
 37 43  1  6
 20 21  2  0
 21 22  1  0
M  CHG  3   2  -1  26  -1  41  -1
M  END
>  <COMPND>  (543) 
    udp_gluA.pdb 

>  <AUTHOR>  (543) 
    GENERATED BY OPEN BABEL 3.1.1

>  <MASTER>  (543) 
        0    0    0    0    0    0    0    0   56    0   56    0

>  <minimizedAffinity>  (543) 
-8.04797

>  <CNNscore>  (543) 
0.8823869824

>  <CNNaffinity>  (543) 
4.6846394539

>  <CNN_VS>  (543) 
4.1336650848

>  <CNNaffinity_variance>  (543) 
0.8771026731

$$$$
544
     RDKit          3D

 43 45  0  0  0  0  0  0  0  0999 V2000
   21.5278   72.6761   -4.7520 P   0  0  2  0  0  0  0  0  0  0  0  0
   21.2527   74.2687   -4.6683 O   0  0  0  0  0  0  0  0  0  0  0  0
   22.5311   72.2601   -5.7874 O   0  0  0  0  0  0  0  0  0  0  0  0
   20.0507   72.0343   -4.9073 O   0  0  0  0  0  0  0  0  0  0  0  0
   19.4883   71.3560   -3.7990 C   0  0  0  0  0  0  0  0  0  0  0  0
   17.6220   71.7990   -5.2477 O   0  0  0  0  0  0  0  0  0  0  0  0
   15.9540   70.3172   -3.2443 O   0  0  0  0  0  0  0  0  0  0  0  0
   16.3317   68.4543   -5.1996 O   0  0  0  0  0  0  0  0  0  0  0  0
   17.2972   70.0705   -3.6609 C   0  0  1  0  0  0  0  0  0  0  0  0
   17.3125   69.4587   -5.0457 C   0  0  2  0  0  0  0  0  0  0  0  0
   17.9695   71.4157   -3.8995 C   0  0  1  0  0  0  0  0  0  0  0  0
   17.0543   70.6683   -5.9278 C   0  0  2  0  0  0  0  0  0  0  0  0
   15.5040   69.4722   -3.0858 H   0  0  0  0  0  0  0  0  0  0  0  0
   16.5408   67.7062   -4.6177 H   0  0  0  0  0  0  0  0  0  0  0  0
   15.6510   70.7856   -8.3759 O   0  0  0  0  0  0  0  0  0  0  0  0
   19.5082   70.1823  -10.8258 O   0  0  0  0  0  0  0  0  0  0  0  0
   17.6671   70.5448   -7.2202 N   0  0  0  0  0  0  0  0  0  0  0  0
   17.5733   70.4840   -9.5937 N   0  0  0  0  0  0  0  0  0  0  0  0
   16.8719   70.6178   -8.3882 C   0  0  0  0  0  0  0  0  0  0  0  0
   19.0400   70.3556   -7.3216 C   0  0  0  0  0  0  0  0  0  0  0  0
   19.6944   70.2299   -8.4777 C   0  0  0  0  0  0  0  0  0  0  0  0
   18.9373   70.2937   -9.7451 C   0  0  0  0  0  0  0  0  0  0  0  0
   17.0407   70.5294  -10.4205 H   0  0  0  0  0  0  0  0  0  0  0  0
   21.9309   72.2971   -3.2333 O   0  0  0  0  0  0  0  0  0  0  0  0
   23.3765   72.1121   -2.5334 P   0  0  2  0  0  0  0  0  0  0  0  0
   24.1366   73.4979   -2.8829 O   0  0  0  0  0  0  0  0  0  0  0  0
   24.1145   70.8769   -2.9618 O   0  0  0  0  0  0  0  0  0  0  0  0
   23.0789   72.1990   -0.9503 O   0  0  0  0  0  0  0  0  0  0  0  0
   24.3523   70.9995    0.6462 O   0  0  0  0  0  0  0  0  0  0  0  0
   20.8781   71.7664    2.7463 O   0  0  0  0  0  0  0  0  0  0  0  0
   20.7644   70.9433   -0.0544 O   0  0  0  0  0  0  0  0  0  0  0  0
   23.2885   73.2920    3.3062 O   0  0  0  0  0  0  0  0  0  0  0  0
   21.9079   72.0247    1.7919 C   0  0  2  0  0  0  0  0  0  0  0  0
   21.9355   70.9036    0.7528 C   0  0  2  0  0  0  0  0  0  0  0  0
   23.2410   72.0894    2.5406 C   0  0  1  0  0  0  0  0  0  0  0  0
   23.1656   71.0228   -0.1480 C   0  0  1  0  0  0  0  0  0  0  0  0
   24.4230   72.0786    1.5756 C   0  0  1  0  0  0  0  0  0  0  0  0
   20.0213   71.7209    2.2934 H   0  0  0  0  0  0  0  0  0  0  0  0
   19.9800   70.8685    0.5107 H   0  0  0  0  0  0  0  0  0  0  0  0
   22.5414   73.3114    3.9244 H   0  0  0  0  0  0  0  0  0  0  0  0
   26.2476   72.9683    2.7507 O   0  0  0  0  0  0  0  0  0  0  0  0
   26.1890   70.7051    2.4790 O   0  0  0  0  0  0  0  0  0  0  0  0
   25.6999   71.8110    2.3037 C   0  0  0  0  0  0  0  0  0  0  0  0
  1  4  1  0
  1 24  1  0
  1  2  1  1
  1  3  2  0
 25 28  1  0
 25 24  1  0
 25 26  1  6
 25 27  2  0
  6 11  1  0
  6 12  1  0
 29 36  1  0
 29 37  1  0
  9  7  1  6
  7 13  1  0
 10  8  1  1
  8 14  1  0
  4  5  1  0
 36 28  1  1
 33 30  1  1
 30 38  1  0
 34 31  1  6
 31 39  1  0
 35 32  1  6
 32 40  1  0
 41 43  1  0
 15 19  2  0
 42 43  2  0
 16 22  2  0
 12 17  1  6
 17 19  1  0
 17 20  1  0
 18 19  1  0
 18 22  1  0
 18 23  1  0
  9 10  1  0
  9 11  1  0
 10 12  1  0
 11  5  1  6
 33 34  1  0
 33 35  1  0
 34 36  1  0
 35 37  1  0
 37 43  1  1
 20 21  2  0
 21 22  1  0
M  CHG  3   2  -1  26  -1  41  -1
M  END
>  <COMPND>  (544) 
    udp_gluA.pdb 

>  <AUTHOR>  (544) 
    GENERATED BY OPEN BABEL 3.1.1

>  <MASTER>  (544) 
        0    0    0    0    0    0    0    0   56    0   56    0

>  <minimizedAffinity>  (544) 
-8.52454

>  <CNNscore>  (544) 
0.8705328107

>  <CNNaffinity>  (544) 
4.7404193878

>  <CNN_VS>  (544) 
4.1266903877

>  <CNNaffinity_variance>  (544) 
0.0353199244

$$$$
545
     RDKit          3D

 43 45  0  0  0  0  0  0  0  0999 V2000
   23.0450   72.0049   -3.6482 P   0  0  2  0  0  0  0  0  0  0  0  0
   23.7035   73.0298   -4.7135 O   0  0  0  0  0  0  0  0  0  0  0  0
   23.9772   70.9540   -3.1205 O   0  0  0  0  0  0  0  0  0  0  0  0
   21.7229   71.4565   -4.4028 O   0  0  0  0  0  0  0  0  0  0  0  0
   20.9701   70.4282   -3.7861 C   0  0  0  0  0  0  0  0  0  0  0  0
   19.0798   71.6070   -4.6889 O   0  0  0  0  0  0  0  0  0  0  0  0
   17.4931   70.4004   -2.4488 O   0  0  0  0  0  0  0  0  0  0  0  0
   16.8297   68.8183   -4.5686 O   0  0  0  0  0  0  0  0  0  0  0  0
   18.5657   69.8353   -3.2031 C   0  0  1  0  0  0  0  0  0  0  0  0
   18.0892   69.4571   -4.5895 C   0  0  2  0  0  0  0  0  0  0  0  0
   19.5654   70.9443   -3.5014 C   0  0  1  0  0  0  0  0  0  0  0  0
   18.0494   70.8055   -5.2881 C   0  0  2  0  0  0  0  0  0  0  0  0
   16.8414   69.7105   -2.2462 H   0  0  0  0  0  0  0  0  0  0  0  0
   16.9078   67.9645   -4.1137 H   0  0  0  0  0  0  0  0  0  0  0  0
   16.0663   70.2639   -7.2248 O   0  0  0  0  0  0  0  0  0  0  0  0
   19.1264   70.4231  -10.6678 O   0  0  0  0  0  0  0  0  0  0  0  0
   18.3003   70.7000   -6.6977 N   0  0  0  0  0  0  0  0  0  0  0  0
   17.5925   70.3427   -8.9377 N   0  0  0  0  0  0  0  0  0  0  0  0
   17.2337   70.4247   -7.5858 C   0  0  0  0  0  0  0  0  0  0  0  0
   19.5895   70.8701   -7.1873 C   0  0  0  0  0  0  0  0  0  0  0  0
   19.9160   70.7891   -8.4787 C   0  0  0  0  0  0  0  0  0  0  0  0
   18.8604   70.5037   -9.4724 C   0  0  0  0  0  0  0  0  0  0  0  0
   16.8672   70.1498   -9.5749 H   0  0  0  0  0  0  0  0  0  0  0  0
   22.4373   72.9927   -2.5222 O   0  0  0  0  0  0  0  0  0  0  0  0
   23.0556   74.3127   -1.8228 P   0  0  2  0  0  0  0  0  0  0  0  0
   22.2443   75.5211   -2.5312 O   0  0  0  0  0  0  0  0  0  0  0  0
   24.5489   74.4241   -1.9298 O   0  0  0  0  0  0  0  0  0  0  0  0
   22.4936   74.2761   -0.3111 O   0  0  0  0  0  0  0  0  0  0  0  0
   22.9845   74.6074    1.9820 O   0  0  0  0  0  0  0  0  0  0  0  0
   22.2815   70.5384    1.8520 O   0  0  0  0  0  0  0  0  0  0  0  0
   23.8355   71.8406   -0.2512 O   0  0  0  0  0  0  0  0  0  0  0  0
   20.2754   72.3313    2.9528 O   0  0  0  0  0  0  0  0  0  0  0  0
   22.1189   71.9020    1.4622 C   0  0  2  0  0  0  0  0  0  0  0  0
   23.4569   72.4577    0.9738 C   0  0  2  0  0  0  0  0  0  0  0  0
   21.6296   72.6872    2.6812 C   0  0  1  0  0  0  0  0  0  0  0  0
   23.3778   73.9707    0.7657 C   0  0  1  0  0  0  0  0  0  0  0  0
   21.6992   74.1922    2.4390 C   0  0  1  0  0  0  0  0  0  0  0  0
   22.5921   70.0198    1.0932 H   0  0  0  0  0  0  0  0  0  0  0  0
   23.8874   70.8804   -0.1266 H   0  0  0  0  0  0  0  0  0  0  0  0
   20.2173   71.3757    3.1086 H   0  0  0  0  0  0  0  0  0  0  0  0
   21.8144   74.1445    4.7812 O   0  0  0  0  0  0  0  0  0  0  0  0
   21.2107   76.1170    3.8095 O   0  0  0  0  0  0  0  0  0  0  0  0
   21.5399   74.9436    3.7205 C   0  0  0  0  0  0  0  0  0  0  0  0
  1  4  1  0
  1 24  1  0
  1  2  1  6
  1  3  2  0
 25 28  1  0
 25 24  1  0
 25 26  1  6
 25 27  2  0
  6 11  1  0
  6 12  1  0
 29 36  1  0
 29 37  1  0
  9  7  1  1
  7 13  1  0
 10  8  1  1
  8 14  1  0
  4  5  1  0
 36 28  1  6
 33 30  1  1
 30 38  1  0
 34 31  1  6
 31 39  1  0
 35 32  1  6
 32 40  1  0
 41 43  1  0
 15 19  2  0
 42 43  2  0
 16 22  2  0
 12 17  1  6
 17 19  1  0
 17 20  1  0
 18 19  1  0
 18 22  1  0
 18 23  1  0
  9 10  1  0
  9 11  1  0
 10 12  1  0
 11  5  1  6
 33 34  1  0
 33 35  1  0
 34 36  1  0
 35 37  1  0
 37 43  1  1
 20 21  2  0
 21 22  1  0
M  CHG  3   2  -1  26  -1  41  -1
M  END
>  <COMPND>  (545) 
    udp_gluA.pdb 

>  <AUTHOR>  (545) 
    GENERATED BY OPEN BABEL 3.1.1

>  <MASTER>  (545) 
        0    0    0    0    0    0    0    0   56    0   56    0

>  <minimizedAffinity>  (545) 
-7.44558

>  <CNNscore>  (545) 
0.8239516616

>  <CNNaffinity>  (545) 
4.6480150223

>  <CNN_VS>  (545) 
3.8297398090

>  <CNNaffinity_variance>  (545) 
0.0109103573

$$$$
546
     RDKit          3D

 43 45  0  0  0  0  0  0  0  0999 V2000
   21.9500   72.0605   -2.2031 P   0  0  2  0  0  0  0  0  0  0  0  0
   23.0845   70.9629   -1.8466 O   0  0  0  0  0  0  0  0  0  0  0  0
   20.9512   72.3164   -1.1128 O   0  0  0  0  0  0  0  0  0  0  0  0
   21.3384   71.5445   -3.6093 O   0  0  0  0  0  0  0  0  0  0  0  0
   20.4798   70.4188   -3.6007 C   0  0  0  0  0  0  0  0  0  0  0  0
   18.6397   71.5552   -4.6498 O   0  0  0  0  0  0  0  0  0  0  0  0
   16.9046   70.2804   -2.5628 O   0  0  0  0  0  0  0  0  0  0  0  0
   16.4675   68.7045   -4.7450 O   0  0  0  0  0  0  0  0  0  0  0  0
   18.0525   69.7535   -3.2286 C   0  0  1  0  0  0  0  0  0  0  0  0
   17.7056   69.3779   -4.6536 C   0  0  2  0  0  0  0  0  0  0  0  0
   19.0421   70.8929   -3.4313 C   0  0  1  0  0  0  0  0  0  0  0  0
   17.6867   70.7324   -5.3412 C   0  0  2  0  0  0  0  0  0  0  0  0
   16.2579   69.5707   -2.4222 H   0  0  0  0  0  0  0  0  0  0  0  0
   16.5311   67.8482   -4.2927 H   0  0  0  0  0  0  0  0  0  0  0  0
   15.8557   70.4160   -7.4681 O   0  0  0  0  0  0  0  0  0  0  0  0
   19.2258   70.4268  -10.6123 O   0  0  0  0  0  0  0  0  0  0  0  0
   18.0584   70.6497   -6.7253 N   0  0  0  0  0  0  0  0  0  0  0  0
   17.5360   70.4206   -9.0320 N   0  0  0  0  0  0  0  0  0  0  0  0
   17.0606   70.4907   -7.7159 C   0  0  0  0  0  0  0  0  0  0  0  0
   19.3971   70.7275   -7.0897 C   0  0  0  0  0  0  0  0  0  0  0  0
   19.8349   70.6593   -8.3485 C   0  0  0  0  0  0  0  0  0  0  0  0
   18.8570   70.4926   -9.4436 C   0  0  0  0  0  0  0  0  0  0  0  0
   16.8601   70.3079   -9.7390 H   0  0  0  0  0  0  0  0  0  0  0  0
   22.8189   73.3527   -2.6370 O   0  0  0  0  0  0  0  0  0  0  0  0
   22.3837   74.8897   -2.8854 P   0  0  2  0  0  0  0  0  0  0  0  0
   23.6769   75.7256   -2.3859 O   0  0  0  0  0  0  0  0  0  0  0  0
   21.0980   75.2815   -2.2165 O   0  0  0  0  0  0  0  0  0  0  0  0
   22.3831   75.0608   -4.4895 O   0  0  0  0  0  0  0  0  0  0  0  0
   20.5065   75.1845   -5.9291 O   0  0  0  0  0  0  0  0  0  0  0  0
   23.3703   73.5518   -8.4193 O   0  0  0  0  0  0  0  0  0  0  0  0
   23.1223   72.6452   -5.6532 O   0  0  0  0  0  0  0  0  0  0  0  0
   22.6250   76.3486   -8.6894 O   0  0  0  0  0  0  0  0  0  0  0  0
   22.8819   74.3622   -7.3504 C   0  0  2  0  0  0  0  0  0  0  0  0
   22.1804   73.4792   -6.3180 C   0  0  2  0  0  0  0  0  0  0  0  0
   21.8992   75.3777   -7.9377 C   0  0  1  0  0  0  0  0  0  0  0  0
   21.4473   74.3290   -5.2791 C   0  0  1  0  0  0  0  0  0  0  0  0
   21.1172   76.0948   -6.8410 C   0  0  1  0  0  0  0  0  0  0  0  0
   23.9968   72.8986   -8.0699 H   0  0  0  0  0  0  0  0  0  0  0  0
   23.5913   72.1033   -6.3065 H   0  0  0  0  0  0  0  0  0  0  0  0
   23.1273   75.9052   -9.3908 H   0  0  0  0  0  0  0  0  0  0  0  0
   20.3401   78.0182   -7.9355 O   0  0  0  0  0  0  0  0  0  0  0  0
   18.7980   76.4190   -7.4220 O   0  0  0  0  0  0  0  0  0  0  0  0
   19.9492   76.8284   -7.4154 C   0  0  0  0  0  0  0  0  0  0  0  0
  1  4  1  0
  1 24  1  0
  1  2  1  1
  1  3  2  0
 25 28  1  0
 25 24  1  0
 25 26  1  1
 25 27  2  0
  6 11  1  0
  6 12  1  0
 29 36  1  0
 29 37  1  0
  9  7  1  1
  7 13  1  0
 10  8  1  1
  8 14  1  0
  4  5  1  0
 36 28  1  6
 33 30  1  6
 30 38  1  0
 34 31  1  1
 31 39  1  0
 35 32  1  1
 32 40  1  0
 41 43  1  0
 15 19  2  0
 42 43  2  0
 16 22  2  0
 12 17  1  6
 17 19  1  0
 17 20  1  0
 18 19  1  0
 18 22  1  0
 18 23  1  0
  9 10  1  0
  9 11  1  0
 10 12  1  0
 11  5  1  6
 33 34  1  0
 33 35  1  0
 34 36  1  0
 35 37  1  0
 37 43  1  6
 20 21  2  0
 21 22  1  0
M  CHG  3   2  -1  26  -1  41  -1
M  END
>  <COMPND>  (546) 
    udp_gluA.pdb 

>  <AUTHOR>  (546) 
    GENERATED BY OPEN BABEL 3.1.1

>  <MASTER>  (546) 
        0    0    0    0    0    0    0    0   56    0   56    0

>  <minimizedAffinity>  (546) 
-6.39068

>  <CNNscore>  (546) 
0.7756867409

>  <CNNaffinity>  (546) 
4.5521039963

>  <CNN_VS>  (546) 
3.5310068130

>  <CNNaffinity_variance>  (546) 
0.3061859310

$$$$
547
     RDKit          3D

 43 45  0  0  0  0  0  0  0  0999 V2000
   23.0211   71.5219   -2.0766 P   0  0  2  0  0  0  0  0  0  0  0  0
   22.5826   73.0676   -1.8832 O   0  0  0  0  0  0  0  0  0  0  0  0
   24.0079   71.2766   -3.1801 O   0  0  0  0  0  0  0  0  0  0  0  0
   21.6147   70.7320   -2.2033 O   0  0  0  0  0  0  0  0  0  0  0  0
   20.9210   70.7801   -3.4366 C   0  0  0  0  0  0  0  0  0  0  0  0
   18.8772   71.6451   -4.3598 O   0  0  0  0  0  0  0  0  0  0  0  0
   17.4785   70.1974   -2.1373 O   0  0  0  0  0  0  0  0  0  0  0  0
   17.0979   68.5339   -4.2643 O   0  0  0  0  0  0  0  0  0  0  0  0
   18.6353   69.8115   -2.8799 C   0  0  1  0  0  0  0  0  0  0  0  0
   18.2399   69.3648   -4.2715 C   0  0  2  0  0  0  0  0  0  0  0  0
   19.4492   71.0658   -3.1671 C   0  0  1  0  0  0  0  0  0  0  0  0
   17.9937   70.6911   -4.9704 C   0  0  2  0  0  0  0  0  0  0  0  0
   16.9425   69.4124   -1.9419 H   0  0  0  0  0  0  0  0  0  0  0  0
   17.3058   67.7026   -3.8087 H   0  0  0  0  0  0  0  0  0  0  0  0
   16.1712   69.7658   -6.9195 O   0  0  0  0  0  0  0  0  0  0  0  0
   19.1741   70.4986  -10.3385 O   0  0  0  0  0  0  0  0  0  0  0  0
   18.2733   70.6294   -6.3771 N   0  0  0  0  0  0  0  0  0  0  0  0
   17.6689   70.1307   -8.6204 N   0  0  0  0  0  0  0  0  0  0  0  0
   17.2886   70.1481   -7.2720 C   0  0  0  0  0  0  0  0  0  0  0  0
   19.5096   71.0438   -6.8573 C   0  0  0  0  0  0  0  0  0  0  0  0
   19.8576   71.0214   -8.1454 C   0  0  0  0  0  0  0  0  0  0  0  0
   18.8865   70.5319   -9.1459 C   0  0  0  0  0  0  0  0  0  0  0  0
   17.0007   69.7978   -9.2622 H   0  0  0  0  0  0  0  0  0  0  0  0
   23.5405   71.1050   -0.6038 O   0  0  0  0  0  0  0  0  0  0  0  0
   22.7537   70.9785    0.8028 P   0  0  2  0  0  0  0  0  0  0  0  0
   23.9109   70.5100    1.8332 O   0  0  0  0  0  0  0  0  0  0  0  0
   21.5588   70.0706    0.7606 O   0  0  0  0  0  0  0  0  0  0  0  0
   22.4238   72.5000    1.2255 O   0  0  0  0  0  0  0  0  0  0  0  0
   21.2723   72.8392    3.2671 O   0  0  0  0  0  0  0  0  0  0  0  0
   20.9169   76.5450    1.4759 O   0  0  0  0  0  0  0  0  0  0  0  0
   20.5714   74.1037   -0.0909 O   0  0  0  0  0  0  0  0  0  0  0  0
   22.8048   76.1508    3.6510 O   0  0  0  0  0  0  0  0  0  0  0  0
   21.5455   75.3002    1.7814 C   0  0  2  0  0  0  0  0  0  0  0  0
   20.6470   74.1487    1.3293 C   0  0  2  0  0  0  0  0  0  0  0  0
   21.7660   75.2406    3.2946 C   0  0  1  0  0  0  0  0  0  0  0  0
   21.1753   72.8085    1.8427 C   0  0  1  0  0  0  0  0  0  0  0  0
   22.1698   73.8394    3.7440 C   0  0  1  0  0  0  0  0  0  0  0  0
   20.7667   76.6054    0.5193 H   0  0  0  0  0  0  0  0  0  0  0  0
   20.2371   74.9510   -0.4235 H   0  0  0  0  0  0  0  0  0  0  0  0
   22.5604   77.0465    3.3704 H   0  0  0  0  0  0  0  0  0  0  0  0
   21.3439   74.7321    5.7496 O   0  0  0  0  0  0  0  0  0  0  0  0
   22.5485   72.8011    5.8888 O   0  0  0  0  0  0  0  0  0  0  0  0
   22.0620   73.7067    5.2283 C   0  0  0  0  0  0  0  0  0  0  0  0
  1  4  1  0
  1 24  1  0
  1  2  1  1
  1  3  2  0
 25 28  1  0
 25 24  1  0
 25 26  1  1
 25 27  2  0
  6 11  1  0
  6 12  1  0
 29 36  1  0
 29 37  1  0
  9  7  1  1
  7 13  1  0
 10  8  1  1
  8 14  1  0
  4  5  1  0
 36 28  1  6
 33 30  1  1
 30 38  1  0
 34 31  1  6
 31 39  1  0
 35 32  1  6
 32 40  1  0
 41 43  1  0
 15 19  2  0
 42 43  2  0
 16 22  2  0
 12 17  1  6
 17 19  1  0
 17 20  1  0
 18 19  1  0
 18 22  1  0
 18 23  1  0
  9 10  1  0
  9 11  1  0
 10 12  1  0
 11  5  1  6
 33 34  1  0
 33 35  1  0
 34 36  1  0
 35 37  1  0
 37 43  1  1
 20 21  2  0
 21 22  1  0
M  CHG  3   2  -1  26  -1  41  -1
M  END
>  <COMPND>  (547) 
    udp_gluA.pdb 

>  <AUTHOR>  (547) 
    GENERATED BY OPEN BABEL 3.1.1

>  <MASTER>  (547) 
        0    0    0    0    0    0    0    0   56    0   56    0

>  <minimizedAffinity>  (547) 
-7.61192

>  <CNNscore>  (547) 
0.7588261962

>  <CNNaffinity>  (547) 
4.5956735611

>  <CNN_VS>  (547) 
3.4873175621

>  <CNNaffinity_variance>  (547) 
0.0505502000

$$$$
548
     RDKit          3D

 43 45  0  0  0  0  0  0  0  0999 V2000
   23.4135   71.8231   -3.2959 P   0  0  2  0  0  0  0  0  0  0  0  0
   24.1267   72.9617   -4.1980 O   0  0  0  0  0  0  0  0  0  0  0  0
   24.3002   70.6778   -2.9038 O   0  0  0  0  0  0  0  0  0  0  0  0
   22.0906   71.4302   -4.1407 O   0  0  0  0  0  0  0  0  0  0  0  0
   21.6004   72.3523   -5.0968 C   0  0  0  0  0  0  0  0  0  0  0  0
   20.5327   70.4397   -6.0866 O   0  0  0  0  0  0  0  0  0  0  0  0
   20.7235   71.9139   -8.6908 O   0  0  0  0  0  0  0  0  0  0  0  0
   18.1236   72.3111   -7.9702 O   0  0  0  0  0  0  0  0  0  0  0  0
   20.4796   72.4236   -7.3796 C   0  0  1  0  0  0  0  0  0  0  0  0
   19.0680   72.0934   -6.9430 C   0  0  2  0  0  0  0  0  0  0  0  0
   21.3147   71.6132   -6.3977 C   0  0  1  0  0  0  0  0  0  0  0  0
   19.1904   70.6278   -6.5622 C   0  0  2  0  0  0  0  0  0  0  0  0
   20.2006   72.4162   -9.3358 H   0  0  0  0  0  0  0  0  0  0  0  0
   18.0826   73.2587   -8.1762 H   0  0  0  0  0  0  0  0  0  0  0  0
   16.5318   69.7896   -7.0156 O   0  0  0  0  0  0  0  0  0  0  0  0
   15.7525   69.2114   -2.5098 O   0  0  0  0  0  0  0  0  0  0  0  0
   18.2709   70.2524   -5.5257 N   0  0  0  0  0  0  0  0  0  0  0  0
   16.1459   69.5034   -4.7710 N   0  0  0  0  0  0  0  0  0  0  0  0
   16.9574   69.8464   -5.8604 C   0  0  0  0  0  0  0  0  0  0  0  0
   18.6729   70.2867   -4.1960 C   0  0  0  0  0  0  0  0  0  0  0  0
   17.8880   69.9568   -3.1684 C   0  0  0  0  0  0  0  0  0  0  0  0
   16.5005   69.5223   -3.4318 C   0  0  0  0  0  0  0  0  0  0  0  0
   15.2264   69.2195   -4.9789 H   0  0  0  0  0  0  0  0  0  0  0  0
   22.8143   72.6666   -2.0540 O   0  0  0  0  0  0  0  0  0  0  0  0
   21.5455   72.3840   -1.0927 P   0  0  2  0  0  0  0  0  0  0  0  0
   21.4034   70.7720   -1.1321 O   0  0  0  0  0  0  0  0  0  0  0  0
   20.2995   73.1244   -1.4840 O   0  0  0  0  0  0  0  0  0  0  0  0
   22.0784   72.7095    0.3947 O   0  0  0  0  0  0  0  0  0  0  0  0
   23.1933   71.0911    1.7165 O   0  0  0  0  0  0  0  0  0  0  0  0
   21.9064   73.7748    4.5817 O   0  0  0  0  0  0  0  0  0  0  0  0
   20.1502   73.0068    2.3771 O   0  0  0  0  0  0  0  0  0  0  0  0
   24.7000   73.7252    3.7788 O   0  0  0  0  0  0  0  0  0  0  0  0
   22.3676   73.3640    3.2946 C   0  0  2  0  0  0  0  0  0  0  0  0
   21.3800   72.3642    2.6923 C   0  0  2  0  0  0  0  0  0  0  0  0
   23.7421   72.7145    3.4699 C   0  0  1  0  0  0  0  0  0  0  0  0
   21.9499   71.7293    1.4231 C   0  0  1  0  0  0  0  0  0  0  0  0
   24.1846   71.9953    2.1989 C   0  0  1  0  0  0  0  0  0  0  0  0
   21.0341   74.1905    4.4953 H   0  0  0  0  0  0  0  0  0  0  0  0
   19.7831   73.4122    3.1779 H   0  0  0  0  0  0  0  0  0  0  0  0
   24.4300   74.1908    4.5858 H   0  0  0  0  0  0  0  0  0  0  0  0
   24.9466   69.8104    2.5828 O   0  0  0  0  0  0  0  0  0  0  0  0
   26.5082   71.4719    2.5840 O   0  0  0  0  0  0  0  0  0  0  0  0
   25.3493   71.1007    2.4737 C   0  0  0  0  0  0  0  0  0  0  0  0
  1  4  1  0
  1 24  1  0
  1  2  1  6
  1  3  2  0
 25 28  1  0
 25 24  1  0
 25 26  1  1
 25 27  2  0
  6 11  1  0
  6 12  1  0
 29 36  1  0
 29 37  1  0
  9  7  1  6
  7 13  1  0
 10  8  1  6
  8 14  1  0
  4  5  1  0
 36 28  1  6
 33 30  1  1
 30 38  1  0
 34 31  1  6
 31 39  1  0
 35 32  1  6
 32 40  1  0
 41 43  1  0
 15 19  2  0
 42 43  2  0
 16 22  2  0
 12 17  1  1
 17 19  1  0
 17 20  1  0
 18 19  1  0
 18 22  1  0
 18 23  1  0
  9 10  1  0
  9 11  1  0
 10 12  1  0
 11  5  1  1
 33 34  1  0
 33 35  1  0
 34 36  1  0
 35 37  1  0
 37 43  1  1
 20 21  2  0
 21 22  1  0
M  CHG  3   2  -1  26  -1  41  -1
M  END
>  <COMPND>  (548) 
    udp_gluA.pdb 

>  <AUTHOR>  (548) 
    GENERATED BY OPEN BABEL 3.1.1

>  <MASTER>  (548) 
        0    0    0    0    0    0    0    0   56    0   56    0

>  <minimizedAffinity>  (548) 
-8.04188

>  <CNNscore>  (548) 
0.6911674142

>  <CNNaffinity>  (548) 
4.4009351730

>  <CNN_VS>  (548) 
3.0417830944

>  <CNNaffinity_variance>  (548) 
0.1243265644

$$$$
549
     RDKit          3D

 43 45  0  0  0  0  0  0  0  0999 V2000
   21.9058   72.4956   -5.9184 P   0  0  2  0  0  0  0  0  0  0  0  0
   21.1959   73.8342   -5.3501 O   0  0  0  0  0  0  0  0  0  0  0  0
   23.0271   72.7352   -6.8864 O   0  0  0  0  0  0  0  0  0  0  0  0
   20.6728   71.6091   -6.4769 O   0  0  0  0  0  0  0  0  0  0  0  0
   20.0989   71.9585   -7.7231 C   0  0  0  0  0  0  0  0  0  0  0  0
   18.9168   69.9219   -7.2410 O   0  0  0  0  0  0  0  0  0  0  0  0
   18.0295   69.9778  -10.1048 O   0  0  0  0  0  0  0  0  0  0  0  0
   15.8389   70.9223   -8.7837 O   0  0  0  0  0  0  0  0  0  0  0  0
   18.2304   71.0636   -9.1997 C   0  0  1  0  0  0  0  0  0  0  0  0
   17.1046   71.1183   -8.1887 C   0  0  2  0  0  0  0  0  0  0  0  0
   19.4296   70.7288   -8.3233 C   0  0  1  0  0  0  0  0  0  0  0  0
   17.4824   69.9978   -7.2351 C   0  0  2  0  0  0  0  0  0  0  0  0
   17.2682   70.1687  -10.6754 H   0  0  0  0  0  0  0  0  0  0  0  0
   15.6446   71.6619   -9.3814 H   0  0  0  0  0  0  0  0  0  0  0  0
   16.1780   68.0890   -5.6128 O   0  0  0  0  0  0  0  0  0  0  0  0
   15.8042   71.0561   -2.1056 O   0  0  0  0  0  0  0  0  0  0  0  0
   17.0335   70.2448   -5.8940 N   0  0  0  0  0  0  0  0  0  0  0  0
   15.9922   69.5689   -3.8679 N   0  0  0  0  0  0  0  0  0  0  0  0
   16.3887   69.2177   -5.1650 C   0  0  0  0  0  0  0  0  0  0  0  0
   17.2344   71.4914   -5.3140 C   0  0  0  0  0  0  0  0  0  0  0  0
   16.8510   71.8112   -4.0764 C   0  0  0  0  0  0  0  0  0  0  0  0
   16.1694   70.7952   -3.2479 C   0  0  0  0  0  0  0  0  0  0  0  0
   15.5394   68.8708   -3.3416 H   0  0  0  0  0  0  0  0  0  0  0  0
   22.3352   71.7126   -4.5710 O   0  0  0  0  0  0  0  0  0  0  0  0
   23.4714   72.0411   -3.4689 P   0  0  2  0  0  0  0  0  0  0  0  0
   24.4562   73.0638   -4.2464 O   0  0  0  0  0  0  0  0  0  0  0  0
   24.1564   70.8276   -2.9100 O   0  0  0  0  0  0  0  0  0  0  0  0
   22.7231   72.9535   -2.3689 O   0  0  0  0  0  0  0  0  0  0  0  0
   21.6417   71.6414   -0.7202 O   0  0  0  0  0  0  0  0  0  0  0  0
   20.3939   75.4496    0.2844 O   0  0  0  0  0  0  0  0  0  0  0  0
   20.4970   74.6148   -2.5133 O   0  0  0  0  0  0  0  0  0  0  0  0
   22.4413   74.1208    1.8636 O   0  0  0  0  0  0  0  0  0  0  0  0
   21.2928   74.4650   -0.2263 C   0  0  2  0  0  0  0  0  0  0  0  0
   20.6406   73.7375   -1.4022 C   0  0  2  0  0  0  0  0  0  0  0  0
   21.6054   73.4795    0.9020 C   0  0  1  0  0  0  0  0  0  0  0  0
   21.4740   72.5277   -1.8273 C   0  0  1  0  0  0  0  0  0  0  0  0
   22.3271   72.2419    0.3766 C   0  0  1  0  0  0  0  0  0  0  0  0
   20.1808   76.0870   -0.4153 H   0  0  0  0  0  0  0  0  0  0  0  0
   19.9694   75.3848   -2.2506 H   0  0  0  0  0  0  0  0  0  0  0  0
   21.9936   74.9103    2.2058 H   0  0  0  0  0  0  0  0  0  0  0  0
   21.5138   70.1418    1.0321 O   0  0  0  0  0  0  0  0  0  0  0  0
   22.9870   71.1710    2.4355 O   0  0  0  0  0  0  0  0  0  0  0  0
   22.3338   71.1561    1.4029 C   0  0  0  0  0  0  0  0  0  0  0  0
  1  4  1  0
  1 24  1  0
  1  2  1  1
  1  3  2  0
 25 28  1  0
 25 24  1  0
 25 26  1  6
 25 27  2  0
  6 11  1  0
  6 12  1  0
 29 36  1  0
 29 37  1  0
  9  7  1  6
  7 13  1  0
 10  8  1  6
  8 14  1  0
  4  5  1  0
 36 28  1  1
 33 30  1  1
 30 38  1  0
 34 31  1  6
 31 39  1  0
 35 32  1  1
 32 40  1  0
 41 43  1  0
 15 19  2  0
 42 43  2  0
 16 22  2  0
 12 17  1  1
 17 19  1  0
 17 20  1  0
 18 19  1  0
 18 22  1  0
 18 23  1  0
  9 10  1  0
  9 11  1  0
 10 12  1  0
 11  5  1  1
 33 34  1  0
 33 35  1  0
 34 36  1  0
 35 37  1  0
 37 43  1  1
 20 21  2  0
 21 22  1  0
M  CHG  3   2  -1  26  -1  41  -1
M  END
>  <COMPND>  (549) 
    udp_gluA.pdb 

>  <AUTHOR>  (549) 
    GENERATED BY OPEN BABEL 3.1.1

>  <MASTER>  (549) 
        0    0    0    0    0    0    0    0   56    0   56    0

>  <minimizedAffinity>  (549) 
-8.42057

>  <CNNscore>  (549) 
0.6734418273

>  <CNNaffinity>  (549) 
4.4730315208

>  <CNN_VS>  (549) 
3.0123264790

>  <CNNaffinity_variance>  (549) 
0.3839850426

$$$$
550
     RDKit          3D

 43 45  0  0  0  0  0  0  0  0999 V2000
   23.4993   73.5642   -4.1257 P   0  0  2  0  0  0  0  0  0  0  0  0
   22.6658   74.9157   -4.4385 O   0  0  0  0  0  0  0  0  0  0  0  0
   24.9887   73.7376   -4.0674 O   0  0  0  0  0  0  0  0  0  0  0  0
   22.9573   72.5098   -5.2268 O   0  0  0  0  0  0  0  0  0  0  0  0
   21.5601   72.3127   -5.3437 C   0  0  0  0  0  0  0  0  0  0  0  0
   20.5001   70.3613   -6.2635 O   0  0  0  0  0  0  0  0  0  0  0  0
   20.6758   71.7453   -8.9178 O   0  0  0  0  0  0  0  0  0  0  0  0
   18.0759   72.1536   -8.2039 O   0  0  0  0  0  0  0  0  0  0  0  0
   20.4328   72.2989   -7.6244 C   0  0  1  0  0  0  0  0  0  0  0  0
   19.0242   71.9766   -7.1725 C   0  0  2  0  0  0  0  0  0  0  0  0
   21.2749   71.5274   -6.6174 C   0  0  1  0  0  0  0  0  0  0  0  0
   19.1555   70.5258   -6.7414 C   0  0  2  0  0  0  0  0  0  0  0  0
   20.1485   72.2221   -9.5783 H   0  0  0  0  0  0  0  0  0  0  0  0
   18.0292   73.0932   -8.4425 H   0  0  0  0  0  0  0  0  0  0  0  0
   16.4584   69.7939   -7.1498 O   0  0  0  0  0  0  0  0  0  0  0  0
   15.7384   69.2257   -2.6328 O   0  0  0  0  0  0  0  0  0  0  0  0
   18.2408   70.1816   -5.6899 N   0  0  0  0  0  0  0  0  0  0  0  0
   16.1021   69.5126   -4.8996 N   0  0  0  0  0  0  0  0  0  0  0  0
   16.9067   69.8287   -6.0022 C   0  0  0  0  0  0  0  0  0  0  0  0
   18.6678   70.1942   -4.3676 C   0  0  0  0  0  0  0  0  0  0  0  0
   17.8892   69.8903   -3.3272 C   0  0  0  0  0  0  0  0  0  0  0  0
   16.4813   69.5115   -3.5670 C   0  0  0  0  0  0  0  0  0  0  0  0
   15.1686   69.2657   -5.0919 H   0  0  0  0  0  0  0  0  0  0  0  0
   22.8289   73.0338   -2.7538 O   0  0  0  0  0  0  0  0  0  0  0  0
   22.9051   71.5939   -2.0227 P   0  0  2  0  0  0  0  0  0  0  0  0
   24.2358   70.9263   -2.6583 O   0  0  0  0  0  0  0  0  0  0  0  0
   21.6645   70.7616   -2.1710 O   0  0  0  0  0  0  0  0  0  0  0  0
   23.3073   71.9303   -0.4971 O   0  0  0  0  0  0  0  0  0  0  0  0
   24.7060   70.9749    1.1582 O   0  0  0  0  0  0  0  0  0  0  0  0
   21.3367   71.9262    3.3516 O   0  0  0  0  0  0  0  0  0  0  0  0
   21.0872   70.7479    0.6900 O   0  0  0  0  0  0  0  0  0  0  0  0
   23.7281   73.5652    3.5657 O   0  0  0  0  0  0  0  0  0  0  0  0
   22.3017   72.0831    2.3113 C   0  0  2  0  0  0  0  0  0  0  0  0
   22.3034   70.8387    1.4230 C   0  0  2  0  0  0  0  0  0  0  0  0
   23.6730   72.2736    2.9631 C   0  0  1  0  0  0  0  0  0  0  0  0
   23.4755   70.8690    0.4411 C   0  0  1  0  0  0  0  0  0  0  0  0
   24.7974   72.1657    1.9371 C   0  0  1  0  0  0  0  0  0  0  0  0
   20.4571   71.8035    2.9611 H   0  0  0  0  0  0  0  0  0  0  0  0
   20.3391   70.7285    1.3068 H   0  0  0  0  0  0  0  0  0  0  0  0
   23.0174   73.6470    4.2208 H   0  0  0  0  0  0  0  0  0  0  0  0
   26.6560   70.8012    2.3675 O   0  0  0  0  0  0  0  0  0  0  0  0
   26.6573   72.8838    3.2960 O   0  0  0  0  0  0  0  0  0  0  0  0
   26.1215   72.0229    2.6142 C   0  0  0  0  0  0  0  0  0  0  0  0
  1  4  1  0
  1 24  1  0
  1  2  1  6
  1  3  2  0
 25 28  1  0
 25 24  1  0
 25 26  1  6
 25 27  2  0
  6 11  1  0
  6 12  1  0
 29 36  1  0
 29 37  1  0
  9  7  1  6
  7 13  1  0
 10  8  1  6
  8 14  1  0
  4  5  1  0
 36 28  1  6
 33 30  1  1
 30 38  1  0
 34 31  1  6
 31 39  1  0
 35 32  1  6
 32 40  1  0
 41 43  1  0
 15 19  2  0
 42 43  2  0
 16 22  2  0
 12 17  1  1
 17 19  1  0
 17 20  1  0
 18 19  1  0
 18 22  1  0
 18 23  1  0
  9 10  1  0
  9 11  1  0
 10 12  1  0
 11  5  1  1
 33 34  1  0
 33 35  1  0
 34 36  1  0
 35 37  1  0
 37 43  1  1
 20 21  2  0
 21 22  1  0
M  CHG  3   2  -1  26  -1  41  -1
M  END
>  <COMPND>  (550) 
    udp_gluA.pdb 

>  <AUTHOR>  (550) 
    GENERATED BY OPEN BABEL 3.1.1

>  <MASTER>  (550) 
        0    0    0    0    0    0    0    0   56    0   56    0

>  <minimizedAffinity>  (550) 
-8.45359

>  <CNNscore>  (550) 
0.6472074389

>  <CNNaffinity>  (550) 
4.3562827110

>  <CNN_VS>  (550) 
2.8194186687

>  <CNNaffinity_variance>  (550) 
0.1914353371

$$$$
551
     RDKit          3D

 43 45  0  0  0  0  0  0  0  0999 V2000
   21.6317   72.5889   -5.5469 P   0  0  2  0  0  0  0  0  0  0  0  0
   20.9714   74.0588   -5.6955 O   0  0  0  0  0  0  0  0  0  0  0  0
   23.0563   72.4848   -6.0066 O   0  0  0  0  0  0  0  0  0  0  0  0
   20.5793   71.6129   -6.2939 O   0  0  0  0  0  0  0  0  0  0  0  0
   20.1909   71.9251   -7.6190 C   0  0  0  0  0  0  0  0  0  0  0  0
   18.9513   69.9167   -7.1635 O   0  0  0  0  0  0  0  0  0  0  0  0
   18.1260   69.9943  -10.0452 O   0  0  0  0  0  0  0  0  0  0  0  0
   15.9309   70.9897   -8.7697 O   0  0  0  0  0  0  0  0  0  0  0  0
   18.3333   71.0748   -9.1352 C   0  0  1  0  0  0  0  0  0  0  0  0
   17.1881   71.1558   -8.1481 C   0  0  2  0  0  0  0  0  0  0  0  0
   19.5056   70.7116   -8.2341 C   0  0  1  0  0  0  0  0  0  0  0  0
   17.5193   70.0263   -7.1876 C   0  0  2  0  0  0  0  0  0  0  0  0
   17.3816   70.2032  -10.6316 H   0  0  0  0  0  0  0  0  0  0  0  0
   15.7666   71.7338   -9.3708 H   0  0  0  0  0  0  0  0  0  0  0  0
   16.2517   68.1091   -5.5462 O   0  0  0  0  0  0  0  0  0  0  0  0
   15.7531   71.1246   -2.0962 O   0  0  0  0  0  0  0  0  0  0  0  0
   17.0482   70.2836   -5.8561 N   0  0  0  0  0  0  0  0  0  0  0  0
   16.0037   69.6131   -3.8299 N   0  0  0  0  0  0  0  0  0  0  0  0
   16.4249   69.2511   -5.1162 C   0  0  0  0  0  0  0  0  0  0  0  0
   17.2067   71.5453   -5.2960 C   0  0  0  0  0  0  0  0  0  0  0  0
   16.8002   71.8753   -4.0685 C   0  0  0  0  0  0  0  0  0  0  0  0
   16.1386   70.8545   -3.2297 C   0  0  0  0  0  0  0  0  0  0  0  0
   15.5651   68.9115   -3.2963 H   0  0  0  0  0  0  0  0  0  0  0  0
   21.4014   72.2439   -3.9846 O   0  0  0  0  0  0  0  0  0  0  0  0
   21.7733   70.9280   -3.1221 P   0  0  2  0  0  0  0  0  0  0  0  0
   23.3895   70.8796   -3.1998 O   0  0  0  0  0  0  0  0  0  0  0  0
   21.0939   69.6734   -3.5891 O   0  0  0  0  0  0  0  0  0  0  0  0
   21.4511   71.3352   -1.5948 O   0  0  0  0  0  0  0  0  0  0  0  0
   23.0928   72.8370   -0.7832 O   0  0  0  0  0  0  0  0  0  0  0  0
   20.7627   72.2431    2.5762 O   0  0  0  0  0  0  0  0  0  0  0  0
   21.4629   69.9975    0.8438 O   0  0  0  0  0  0  0  0  0  0  0  0
   20.5437   74.7183    1.0675 O   0  0  0  0  0  0  0  0  0  0  0  0
   21.0280   72.3607    1.1784 C   0  0  2  0  0  0  0  0  0  0  0  0
   22.0405   71.2950    0.7583 C   0  0  2  0  0  0  0  0  0  0  0  0
   21.5902   73.7604    0.9200 C   0  0  1  0  0  0  0  0  0  0  0  0
   22.5223   71.5324   -0.6736 C   0  0  1  0  0  0  0  0  0  0  0  0
   22.1647   73.8786   -0.4888 C   0  0  1  0  0  0  0  0  0  0  0  0
   20.4045   71.3613    2.7644 H   0  0  0  0  0  0  0  0  0  0  0  0
   21.1547   69.8402    1.7497 H   0  0  0  0  0  0  0  0  0  0  0  0
   20.1694   74.6534    1.9599 H   0  0  0  0  0  0  0  0  0  0  0  0
   24.1765   74.8348   -1.2235 O   0  0  0  0  0  0  0  0  0  0  0  0
   22.6594   76.2274   -0.2447 O   0  0  0  0  0  0  0  0  0  0  0  0
   22.9939   75.1143   -0.6215 C   0  0  0  0  0  0  0  0  0  0  0  0
  1  4  1  0
  1 24  1  0
  1  2  1  1
  1  3  2  0
 25 28  1  0
 25 24  1  0
 25 26  1  1
 25 27  2  0
  6 11  1  0
  6 12  1  0
 29 36  1  0
 29 37  1  0
  9  7  1  6
  7 13  1  0
 10  8  1  6
  8 14  1  0
  4  5  1  0
 36 28  1  6
 33 30  1  1
 30 38  1  0
 34 31  1  6
 31 39  1  0
 35 32  1  6
 32 40  1  0
 41 43  1  0
 15 19  2  0
 42 43  2  0
 16 22  2  0
 12 17  1  1
 17 19  1  0
 17 20  1  0
 18 19  1  0
 18 22  1  0
 18 23  1  0
  9 10  1  0
  9 11  1  0
 10 12  1  0
 11  5  1  1
 33 34  1  0
 33 35  1  0
 34 36  1  0
 35 37  1  0
 37 43  1  1
 20 21  2  0
 21 22  1  0
M  CHG  3   2  -1  26  -1  41  -1
M  END
>  <COMPND>  (551) 
    udp_gluA.pdb 

>  <AUTHOR>  (551) 
    GENERATED BY OPEN BABEL 3.1.1

>  <MASTER>  (551) 
        0    0    0    0    0    0    0    0   56    0   56    0

>  <minimizedAffinity>  (551) 
-7.71927

>  <CNNscore>  (551) 
0.5968980789

>  <CNNaffinity>  (551) 
4.5362253189

>  <CNN_VS>  (551) 
2.7076642513

>  <CNNaffinity_variance>  (551) 
0.1989914179

$$$$
552
     RDKit          3D

 43 45  0  0  0  0  0  0  0  0999 V2000
   20.9839   72.0060   -5.0036 P   0  0  2  0  0  0  0  0  0  0  0  0
   20.8982   73.5874   -4.6706 O   0  0  0  0  0  0  0  0  0  0  0  0
   21.4614   71.6748   -6.3871 O   0  0  0  0  0  0  0  0  0  0  0  0
   19.5163   71.4469   -4.6142 O   0  0  0  0  0  0  0  0  0  0  0  0
   19.1939   71.2908   -3.2444 C   0  0  0  0  0  0  0  0  0  0  0  0
   17.9902   69.7936   -1.7997 O   0  0  0  0  0  0  0  0  0  0  0  0
   18.1222   67.8148   -4.0488 O   0  0  0  0  0  0  0  0  0  0  0  0
   15.5824   68.7853   -4.2574 O   0  0  0  0  0  0  0  0  0  0  0  0
   17.9672   69.2331   -4.1011 C   0  0  1  0  0  0  0  0  0  0  0  0
   16.5647   69.6228   -3.6845 C   0  0  2  0  0  0  0  0  0  0  0  0
   18.8103   69.8392   -2.9874 C   0  0  1  0  0  0  0  0  0  0  0  0
   16.6365   69.4906   -2.1728 C   0  0  2  0  0  0  0  0  0  0  0  0
   17.5926   67.4052   -4.7512 H   0  0  0  0  0  0  0  0  0  0  0  0
   15.5760   68.9063   -5.2203 H   0  0  0  0  0  0  0  0  0  0  0  0
   14.5290   68.6985   -0.4678 O   0  0  0  0  0  0  0  0  0  0  0  0
   13.3073   73.0664    0.3526 O   0  0  0  0  0  0  0  0  0  0  0  0
   15.7523   70.4000   -1.5006 N   0  0  0  0  0  0  0  0  0  0  0  0
   13.9219   70.8747   -0.0616 N   0  0  0  0  0  0  0  0  0  0  0  0
   14.7254   69.8989   -0.6661 C   0  0  0  0  0  0  0  0  0  0  0  0
   15.9075   71.7706   -1.6694 C   0  0  0  0  0  0  0  0  0  0  0  0
   15.1338   72.6884   -1.0865 C   0  0  0  0  0  0  0  0  0  0  0  0
   14.0370   72.2485   -0.1995 C   0  0  0  0  0  0  0  0  0  0  0  0
   13.1988   70.5499    0.5224 H   0  0  0  0  0  0  0  0  0  0  0  0
   21.9177   71.4348   -3.8143 O   0  0  0  0  0  0  0  0  0  0  0  0
   23.3957   71.8690   -3.3236 P   0  0  2  0  0  0  0  0  0  0  0  0
   23.9454   72.7657   -4.5541 O   0  0  0  0  0  0  0  0  0  0  0  0
   24.2844   70.7174   -2.9523 O   0  0  0  0  0  0  0  0  0  0  0  0
   23.1374   72.9264   -2.1329 O   0  0  0  0  0  0  0  0  0  0  0  0
   21.8868   71.9888   -0.3536 O   0  0  0  0  0  0  0  0  0  0  0  0
   22.1056   75.9576    0.7727 O   0  0  0  0  0  0  0  0  0  0  0  0
   21.5899   75.2343   -2.0104 O   0  0  0  0  0  0  0  0  0  0  0  0
   23.7680   73.9722    2.0938 O   0  0  0  0  0  0  0  0  0  0  0  0
   22.5581   74.7498    0.1608 C   0  0  2  0  0  0  0  0  0  0  0  0
   21.5655   74.3205   -0.9199 C   0  0  2  0  0  0  0  0  0  0  0  0
   22.6579   73.6775    1.2480 C   0  0  1  0  0  0  0  0  0  0  0  0
   21.8922   72.9189   -1.4372 C   0  0  1  0  0  0  0  0  0  0  0  0
   22.8587   72.2900    0.6453 C   0  0  1  0  0  0  0  0  0  0  0  0
   22.0345   76.6538    0.1007 H   0  0  0  0  0  0  0  0  0  0  0  0
   21.3838   76.1258   -1.6893 H   0  0  0  0  0  0  0  0  0  0  0  0
   23.6527   74.8528    2.4837 H   0  0  0  0  0  0  0  0  0  0  0  0
   21.7452   70.3050    1.2120 O   0  0  0  0  0  0  0  0  0  0  0  0
   23.1563   71.1873    2.7706 O   0  0  0  0  0  0  0  0  0  0  0  0
   22.6269   71.2278    1.6701 C   0  0  0  0  0  0  0  0  0  0  0  0
  1  4  1  0
  1 24  1  0
  1  2  1  6
  1  3  2  0
 25 28  1  0
 25 24  1  0
 25 26  1  6
 25 27  2  0
  6 11  1  0
  6 12  1  0
 29 36  1  0
 29 37  1  0
  9  7  1  1
  7 13  1  0
 10  8  1  6
  8 14  1  0
  4  5  1  0
 36 28  1  1
 33 30  1  1
 30 38  1  0
 34 31  1  6
 31 39  1  0
 35 32  1  1
 32 40  1  0
 41 43  1  0
 15 19  2  0
 42 43  2  0
 16 22  2  0
 12 17  1  1
 17 19  1  0
 17 20  1  0
 18 19  1  0
 18 22  1  0
 18 23  1  0
  9 10  1  0
  9 11  1  0
 10 12  1  0
 11  5  1  6
 33 34  1  0
 33 35  1  0
 34 36  1  0
 35 37  1  0
 37 43  1  1
 20 21  2  0
 21 22  1  0
M  CHG  3   2  -1  26  -1  41  -1
M  END
>  <COMPND>  (552) 
    udp_gluA.pdb 

>  <AUTHOR>  (552) 
    GENERATED BY OPEN BABEL 3.1.1

>  <MASTER>  (552) 
        0    0    0    0    0    0    0    0   56    0   56    0

>  <minimizedAffinity>  (552) 
-6.70390

>  <CNNscore>  (552) 
0.5913506746

>  <CNNaffinity>  (552) 
4.1473073959

>  <CNN_VS>  (552) 
2.4525129795

>  <CNNaffinity_variance>  (552) 
0.1949093342

$$$$
553
     RDKit          3D

 43 45  0  0  0  0  0  0  0  0999 V2000
   23.6723   72.6253   -3.7817 P   0  0  2  0  0  0  0  0  0  0  0  0
   24.9265   73.6195   -4.0213 O   0  0  0  0  0  0  0  0  0  0  0  0
   24.0176   71.3123   -3.1427 O   0  0  0  0  0  0  0  0  0  0  0  0
   22.9650   72.5354   -5.2342 O   0  0  0  0  0  0  0  0  0  0  0  0
   21.5728   72.2847   -5.2939 C   0  0  0  0  0  0  0  0  0  0  0  0
   20.4727   70.3639   -6.2309 O   0  0  0  0  0  0  0  0  0  0  0  0
   20.6361   71.7872   -8.8651 O   0  0  0  0  0  0  0  0  0  0  0  0
   18.0515   72.2221   -8.1122 O   0  0  0  0  0  0  0  0  0  0  0  0
   20.4174   72.3237   -7.5601 C   0  0  1  0  0  0  0  0  0  0  0  0
   19.0098   72.0149   -7.0957 C   0  0  2  0  0  0  0  0  0  0  0  0
   21.2602   71.5241   -6.5761 C   0  0  1  0  0  0  0  0  0  0  0  0
   19.1249   70.5556   -6.6892 C   0  0  2  0  0  0  0  0  0  0  0  0
   20.1079   72.2822   -9.5113 H   0  0  0  0  0  0  0  0  0  0  0  0
   18.0159   73.1660   -8.3354 H   0  0  0  0  0  0  0  0  0  0  0  0
   16.4290   69.8104   -7.0804 O   0  0  0  0  0  0  0  0  0  0  0  0
   15.7390   69.2434   -2.5586 O   0  0  0  0  0  0  0  0  0  0  0  0
   18.2183   70.2082   -5.6318 N   0  0  0  0  0  0  0  0  0  0  0  0
   16.0876   69.5297   -4.8279 N   0  0  0  0  0  0  0  0  0  0  0  0
   16.8840   69.8485   -5.9357 C   0  0  0  0  0  0  0  0  0  0  0  0
   18.6532   70.2241   -4.3121 C   0  0  0  0  0  0  0  0  0  0  0  0
   17.8824   69.9176   -3.2667 C   0  0  0  0  0  0  0  0  0  0  0  0
   16.4749   69.5318   -3.4976 C   0  0  0  0  0  0  0  0  0  0  0  0
   15.1542   69.2781   -5.0143 H   0  0  0  0  0  0  0  0  0  0  0  0
   22.6432   73.5376   -2.9323 O   0  0  0  0  0  0  0  0  0  0  0  0
   22.8602   74.9371   -2.1525 P   0  0  2  0  0  0  0  0  0  0  0  0
   21.3568   75.3611   -1.7282 O   0  0  0  0  0  0  0  0  0  0  0  0
   23.5951   75.9774   -2.9474 O   0  0  0  0  0  0  0  0  0  0  0  0
   23.5743   74.5263   -0.7655 O   0  0  0  0  0  0  0  0  0  0  0  0
   21.9809   73.1260    0.2878 O   0  0  0  0  0  0  0  0  0  0  0  0
   25.2156   72.7827    2.8346 O   0  0  0  0  0  0  0  0  0  0  0  0
   24.4751   75.3810    1.7233 O   0  0  0  0  0  0  0  0  0  0  0  0
   24.5651   70.6214    1.0025 O   0  0  0  0  0  0  0  0  0  0  0  0
   24.5578   72.9605    1.5802 C   0  0  2  0  0  0  0  0  0  0  0  0
   23.6750   74.2074    1.6374 C   0  0  2  0  0  0  0  0  0  0  0  0
   23.7064   71.7174    1.3123 C   0  0  1  0  0  0  0  0  0  0  0  0
   22.7821   74.3029    0.3995 C   0  0  1  0  0  0  0  0  0  0  0  0
   22.7535   71.9367    0.1408 C   0  0  1  0  0  0  0  0  0  0  0  0
   25.7628   73.5606    3.0261 H   0  0  0  0  0  0  0  0  0  0  0  0
   25.0444   75.3270    2.5065 H   0  0  0  0  0  0  0  0  0  0  0  0
   25.1768   70.4714    1.7402 H   0  0  0  0  0  0  0  0  0  0  0  0
   21.7024   70.1590    1.2527 O   0  0  0  0  0  0  0  0  0  0  0  0
   20.9704   70.6485   -0.8505 O   0  0  0  0  0  0  0  0  0  0  0  0
   21.7138   70.8647    0.0948 C   0  0  0  0  0  0  0  0  0  0  0  0
  1  4  1  0
  1 24  1  0
  1  2  1  6
  1  3  2  0
 25 28  1  0
 25 24  1  0
 25 26  1  1
 25 27  2  0
  6 11  1  0
  6 12  1  0
 29 36  1  0
 29 37  1  0
  9  7  1  6
  7 13  1  0
 10  8  1  6
  8 14  1  0
  4  5  1  0
 36 28  1  6
 33 30  1  1
 30 38  1  0
 34 31  1  6
 31 39  1  0
 35 32  1  6
 32 40  1  0
 41 43  1  0
 15 19  2  0
 42 43  2  0
 16 22  2  0
 12 17  1  1
 17 19  1  0
 17 20  1  0
 18 19  1  0
 18 22  1  0
 18 23  1  0
  9 10  1  0
  9 11  1  0
 10 12  1  0
 11  5  1  1
 33 34  1  0
 33 35  1  0
 34 36  1  0
 35 37  1  0
 37 43  1  1
 20 21  2  0
 21 22  1  0
M  CHG  3   2  -1  26  -1  41  -1
M  END
>  <COMPND>  (553) 
    udp_gluA.pdb 

>  <AUTHOR>  (553) 
    GENERATED BY OPEN BABEL 3.1.1

>  <MASTER>  (553) 
        0    0    0    0    0    0    0    0   56    0   56    0

>  <minimizedAffinity>  (553) 
-7.76704

>  <CNNscore>  (553) 
0.5851742029

>  <CNNaffinity>  (553) 
4.3262510300

>  <CNN_VS>  (553) 
2.5316104889

>  <CNNaffinity_variance>  (553) 
0.3213609755

$$$$
554
     RDKit          3D

 43 45  0  0  0  0  0  0  0  0999 V2000
   21.5747   73.7608   -1.5919 P   0  0  2  0  0  0  0  0  0  0  0  0
   21.5185   75.1499   -2.4201 O   0  0  0  0  0  0  0  0  0  0  0  0
   22.9449   73.1675   -1.4420 O   0  0  0  0  0  0  0  0  0  0  0  0
   20.4805   72.8243   -2.3292 O   0  0  0  0  0  0  0  0  0  0  0  0
   20.2690   72.9971   -3.7184 C   0  0  0  0  0  0  0  0  0  0  0  0
   20.6298   71.1196   -5.1754 O   0  0  0  0  0  0  0  0  0  0  0  0
   23.2810   72.3647   -5.8174 O   0  0  0  0  0  0  0  0  0  0  0  0
   21.7615   73.0529   -7.9746 O   0  0  0  0  0  0  0  0  0  0  0  0
   22.0261   72.9944   -5.5583 C   0  0  1  0  0  0  0  0  0  0  0  0
   21.1018   72.8295   -6.7460 C   0  0  2  0  0  0  0  0  0  0  0  0
   21.3097   72.1890   -4.4829 C   0  0  1  0  0  0  0  0  0  0  0  0
   20.6353   71.3927   -6.5856 C   0  0  2  0  0  0  0  0  0  0  0  0
   23.7573   72.8616   -6.5016 H   0  0  0  0  0  0  0  0  0  0  0  0
   22.0386   73.9815   -8.0287 H   0  0  0  0  0  0  0  0  0  0  0  0
   20.0452   70.9747   -9.3157 O   0  0  0  0  0  0  0  0  0  0  0  0
   15.5294   70.6036   -8.4710 O   0  0  0  0  0  0  0  0  0  0  0  0
   19.3140   71.1842   -7.1067 N   0  0  0  0  0  0  0  0  0  0  0  0
   17.7965   70.7913   -8.8926 N   0  0  0  0  0  0  0  0  0  0  0  0
   19.1261   70.9838   -8.4947 C   0  0  0  0  0  0  0  0  0  0  0  0
   18.2223   71.1778   -6.2469 C   0  0  0  0  0  0  0  0  0  0  0  0
   16.9609   70.9929   -6.6409 C   0  0  0  0  0  0  0  0  0  0  0  0
   16.6780   70.7773   -8.0751 C   0  0  0  0  0  0  0  0  0  0  0  0
   17.6405   70.6517   -9.8546 H   0  0  0  0  0  0  0  0  0  0  0  0
   20.8488   74.1395   -0.1982 O   0  0  0  0  0  0  0  0  0  0  0  0
   20.7513   73.3350    1.2007 P   0  0  2  0  0  0  0  0  0  0  0  0
   20.6667   71.7878    0.7324 O   0  0  0  0  0  0  0  0  0  0  0  0
   19.6224   73.7755    2.0870 O   0  0  0  0  0  0  0  0  0  0  0  0
   22.2163   73.4814    1.8600 O   0  0  0  0  0  0  0  0  0  0  0  0
   23.4760   71.7182    2.8158 O   0  0  0  0  0  0  0  0  0  0  0  0
   24.9929   75.0079    4.8020 O   0  0  0  0  0  0  0  0  0  0  0  0
   22.1209   74.7579    4.3293 O   0  0  0  0  0  0  0  0  0  0  0  0
   26.5304   73.7468    2.6815 O   0  0  0  0  0  0  0  0  0  0  0  0
   24.4196   74.2989    3.7036 C   0  0  2  0  0  0  0  0  0  0  0  0
   23.0682   73.7171    4.1194 C   0  0  2  0  0  0  0  0  0  0  0  0
   25.3834   73.1774    3.3098 C   0  0  1  0  0  0  0  0  0  0  0  0
   22.5314   72.7631    3.0514 C   0  0  1  0  0  0  0  0  0  0  0  0
   24.7311   72.1977    2.3385 C   0  0  1  0  0  0  0  0  0  0  0  0
   24.3977   75.7258    5.0698 H   0  0  0  0  0  0  0  0  0  0  0  0
   22.4552   75.3672    5.0056 H   0  0  0  0  0  0  0  0  0  0  0  0
   26.9548   74.3725    3.2891 H   0  0  0  0  0  0  0  0  0  0  0  0
   24.7561   69.8958    1.8890 O   0  0  0  0  0  0  0  0  0  0  0  0
   26.7513   70.8794    2.3898 O   0  0  0  0  0  0  0  0  0  0  0  0
   25.5435   70.9495    2.2186 C   0  0  0  0  0  0  0  0  0  0  0  0
  1  4  1  0
  1 24  1  0
  1  2  1  6
  1  3  2  0
 25 28  1  0
 25 24  1  0
 25 26  1  6
 25 27  2  0
  6 11  1  0
  6 12  1  0
 29 36  1  0
 29 37  1  0
  9  7  1  6
  7 13  1  0
 10  8  1  6
  8 14  1  0
  4  5  1  0
 36 28  1  6
 33 30  1  1
 30 38  1  0
 34 31  1  6
 31 39  1  0
 35 32  1  6
 32 40  1  0
 41 43  1  0
 15 19  2  0
 42 43  2  0
 16 22  2  0
 12 17  1  1
 17 19  1  0
 17 20  1  0
 18 19  1  0
 18 22  1  0
 18 23  1  0
  9 10  1  0
  9 11  1  0
 10 12  1  0
 11  5  1  6
 33 34  1  0
 33 35  1  0
 34 36  1  0
 35 37  1  0
 37 43  1  1
 20 21  2  0
 21 22  1  0
M  CHG  3   2  -1  26  -1  41  -1
M  END
>  <COMPND>  (554) 
    udp_gluA.pdb 

>  <AUTHOR>  (554) 
    GENERATED BY OPEN BABEL 3.1.1

>  <MASTER>  (554) 
        0    0    0    0    0    0    0    0   56    0   56    0

>  <minimizedAffinity>  (554) 
-6.65430

>  <CNNscore>  (554) 
0.5310131907

>  <CNNaffinity>  (554) 
4.1367063522

>  <CNN_VS>  (554) 
2.1966457367

>  <CNNaffinity_variance>  (554) 
0.0992095619

$$$$
555
     RDKit          3D

 43 45  0  0  0  0  0  0  0  0999 V2000
   23.5056   72.3514   -3.6456 P   0  0  2  0  0  0  0  0  0  0  0  0
   24.1153   70.8983   -3.2771 O   0  0  0  0  0  0  0  0  0  0  0  0
   24.5268   73.4233   -3.8906 O   0  0  0  0  0  0  0  0  0  0  0  0
   22.4518   72.6442   -2.4533 O   0  0  0  0  0  0  0  0  0  0  0  0
   22.9501   72.8322   -1.1415 C   0  0  0  0  0  0  0  0  0  0  0  0
   24.0916   71.3272    0.3451 O   0  0  0  0  0  0  0  0  0  0  0  0
   21.3979   70.1360    0.9078 O   0  0  0  0  0  0  0  0  0  0  0  0
   21.8103   71.7302    3.0814 O   0  0  0  0  0  0  0  0  0  0  0  0
   21.7503   71.4976    0.6618 C   0  0  1  0  0  0  0  0  0  0  0  0
   22.4457   72.0857    1.8713 C   0  0  2  0  0  0  0  0  0  0  0  0
   22.8583   71.5147   -0.3824 C   0  0  1  0  0  0  0  0  0  0  0  0
   23.8414   71.4984    1.7491 C   0  0  2  0  0  0  0  0  0  0  0  0
   20.6914   70.0995    1.5720 H   0  0  0  0  0  0  0  0  0  0  0  0
   20.9256   72.1283    3.1112 H   0  0  0  0  0  0  0  0  0  0  0  0
   26.4566   70.6690    2.4196 O   0  0  0  0  0  0  0  0  0  0  0  0
   27.6220   74.8890    3.8607 O   0  0  0  0  0  0  0  0  0  0  0  0
   24.8485   72.3597    2.3012 N   0  0  0  0  0  0  0  0  0  0  0  0
   27.0342   72.7713    3.1377 N   0  0  0  0  0  0  0  0  0  0  0  0
   26.1309   71.8434    2.6029 C   0  0  0  0  0  0  0  0  0  0  0  0
   24.5627   73.6991    2.5366 C   0  0  0  0  0  0  0  0  0  0  0  0
   25.4342   74.5715    3.0467 C   0  0  0  0  0  0  0  0  0  0  0  0
   26.7961   74.1126    3.3903 C   0  0  0  0  0  0  0  0  0  0  0  0
   27.9329   72.4347    3.3576 H   0  0  0  0  0  0  0  0  0  0  0  0
   22.5472   72.0334   -4.9077 O   0  0  0  0  0  0  0  0  0  0  0  0
   21.7135   73.0179   -5.8821 P   0  0  2  0  0  0  0  0  0  0  0  0
   22.4910   72.8847   -7.2956 O   0  0  0  0  0  0  0  0  0  0  0  0
   21.5890   74.4255   -5.3750 O   0  0  0  0  0  0  0  0  0  0  0  0
   20.3067   72.2646   -6.1186 O   0  0  0  0  0  0  0  0  0  0  0  0
   19.6411   70.0726   -5.5174 O   0  0  0  0  0  0  0  0  0  0  0  0
   17.4900   70.6812   -8.9917 O   0  0  0  0  0  0  0  0  0  0  0  0
   20.2753   71.5424   -8.8044 O   0  0  0  0  0  0  0  0  0  0  0  0
   16.1614   70.8195   -6.4096 O   0  0  0  0  0  0  0  0  0  0  0  0
   18.1329   71.0582   -7.7740 C   0  0  2  0  0  0  0  0  0  0  0  0
   19.6201   70.7125   -7.8522 C   0  0  2  0  0  0  0  0  0  0  0  0
   17.4672   70.2897   -6.6302 C   0  0  1  0  0  0  0  0  0  0  0  0
   20.2948   70.8877   -6.4910 C   0  0  1  0  0  0  0  0  0  0  0  0
   18.2680   70.4116   -5.3370 C   0  0  1  0  0  0  0  0  0  0  0  0
   17.8965   71.1572   -9.7329 H   0  0  0  0  0  0  0  0  0  0  0  0
   19.8521   71.4365   -9.6705 H   0  0  0  0  0  0  0  0  0  0  0  0
   15.6414   70.7481   -7.2253 H   0  0  0  0  0  0  0  0  0  0  0  0
   18.8229   69.0495   -3.5099 O   0  0  0  0  0  0  0  0  0  0  0  0
   16.6668   68.9724   -4.2477 O   0  0  0  0  0  0  0  0  0  0  0  0
   17.8047   69.4099   -4.3298 C   0  0  0  0  0  0  0  0  0  0  0  0
  1  4  1  0
  1 24  1  0
  1  2  1  1
  1  3  2  0
 25 28  1  0
 25 24  1  0
 25 26  1  6
 25 27  2  0
  6 11  1  0
  6 12  1  0
 29 36  1  0
 29 37  1  0
  9  7  1  1
  7 13  1  0
 10  8  1  1
  8 14  1  0
  4  5  1  0
 36 28  1  1
 33 30  1  6
 30 38  1  0
 34 31  1  6
 31 39  1  0
 35 32  1  1
 32 40  1  0
 41 43  1  0
 15 19  2  0
 42 43  2  0
 16 22  2  0
 12 17  1  6
 17 19  1  0
 17 20  1  0
 18 19  1  0
 18 22  1  0
 18 23  1  0
  9 10  1  0
  9 11  1  0
 10 12  1  0
 11  5  1  1
 33 34  1  0
 33 35  1  0
 34 36  1  0
 35 37  1  0
 37 43  1  1
 20 21  2  0
 21 22  1  0
M  CHG  3   2  -1  26  -1  41  -1
M  END
>  <COMPND>  (555) 
    udp_gluA.pdb 

>  <AUTHOR>  (555) 
    GENERATED BY OPEN BABEL 3.1.1

>  <MASTER>  (555) 
        0    0    0    0    0    0    0    0   56    0   56    0

>  <minimizedAffinity>  (555) 
-8.17189

>  <CNNscore>  (555) 
0.5228053331

>  <CNNaffinity>  (555) 
4.3250665665

>  <CNN_VS>  (555) 
2.2611677647

>  <CNNaffinity_variance>  (555) 
0.1501277983

$$$$
556
     RDKit          3D

 43 45  0  0  0  0  0  0  0  0999 V2000
   23.3821   72.4597   -3.6023 P   0  0  2  0  0  0  0  0  0  0  0  0
   24.2237   71.1056   -3.3250 O   0  0  0  0  0  0  0  0  0  0  0  0
   23.9898   73.7102   -3.0376 O   0  0  0  0  0  0  0  0  0  0  0  0
   21.8923   72.1050   -3.0805 O   0  0  0  0  0  0  0  0  0  0  0  0
   21.0367   73.1683   -2.7039 C   0  0  0  0  0  0  0  0  0  0  0  0
   20.4664   71.5508   -1.0199 O   0  0  0  0  0  0  0  0  0  0  0  0
   18.0504   73.2422   -0.4780 O   0  0  0  0  0  0  0  0  0  0  0  0
   19.7376   73.9479    1.5447 O   0  0  0  0  0  0  0  0  0  0  0  0
   19.3719   73.6438   -0.8398 C   0  0  1  0  0  0  0  0  0  0  0  0
   20.3090   73.4854    0.3388 C   0  0  2  0  0  0  0  0  0  0  0  0
   19.9213   72.6197   -1.8235 C   0  0  1  0  0  0  0  0  0  0  0  0
   20.5563   71.9865    0.3459 C   0  0  2  0  0  0  0  0  0  0  0  0
   17.6784   73.8815    0.1502 H   0  0  0  0  0  0  0  0  0  0  0  0
   19.6000   74.9071    1.4903 H   0  0  0  0  0  0  0  0  0  0  0  0
   21.2262   71.9541    3.0894 O   0  0  0  0  0  0  0  0  0  0  0  0
   25.5632   70.6707    2.2024 O   0  0  0  0  0  0  0  0  0  0  0  0
   21.8532   71.6476    0.8597 N   0  0  0  0  0  0  0  0  0  0  0  0
   23.3859   71.3159    2.6449 N   0  0  0  0  0  0  0  0  0  0  0  0
   22.0854   71.6621    2.2554 C   0  0  0  0  0  0  0  0  0  0  0  0
   22.8775   71.3042   -0.0143 C   0  0  0  0  0  0  0  0  0  0  0  0
   24.1120   70.9764    0.3719 C   0  0  0  0  0  0  0  0  0  0  0  0
   24.4379   70.9679    1.8131 C   0  0  0  0  0  0  0  0  0  0  0  0
   23.5722   71.3209    3.6117 H   0  0  0  0  0  0  0  0  0  0  0  0
   23.2138   72.4595   -5.2099 O   0  0  0  0  0  0  0  0  0  0  0  0
   22.3713   73.4317   -6.1891 P   0  0  2  0  0  0  0  0  0  0  0  0
   23.0856   73.2186   -7.6260 O   0  0  0  0  0  0  0  0  0  0  0  0
   22.3110   74.8613   -5.7344 O   0  0  0  0  0  0  0  0  0  0  0  0
   20.9335   72.7156   -6.3389 O   0  0  0  0  0  0  0  0  0  0  0  0
   20.2609   70.6040   -5.5034 O   0  0  0  0  0  0  0  0  0  0  0  0
   17.8877   70.9729   -8.8649 O   0  0  0  0  0  0  0  0  0  0  0  0
   20.6984   71.7654   -8.9424 O   0  0  0  0  0  0  0  0  0  0  0  0
   16.7458   71.3722   -6.2215 O   0  0  0  0  0  0  0  0  0  0  0  0
   18.6224   71.4346   -7.7313 C   0  0  2  0  0  0  0  0  0  0  0  0
   20.0921   71.0403   -7.8788 C   0  0  2  0  0  0  0  0  0  0  0  0
   18.0204   70.7875   -6.4820 C   0  0  1  0  0  0  0  0  0  0  0  0
   20.8639   71.3126   -6.5869 C   0  0  1  0  0  0  0  0  0  0  0  0
   18.9119   70.9972   -5.2615 C   0  0  1  0  0  0  0  0  0  0  0  0
   18.2525   71.3710   -9.6710 H   0  0  0  0  0  0  0  0  0  0  0  0
   20.2136   71.5975   -9.7652 H   0  0  0  0  0  0  0  0  0  0  0  0
   16.1687   71.2458   -6.9909 H   0  0  0  0  0  0  0  0  0  0  0  0
   17.2562   70.4261   -3.7013 O   0  0  0  0  0  0  0  0  0  0  0  0
   19.1745   69.1938   -3.6802 O   0  0  0  0  0  0  0  0  0  0  0  0
   18.4969   70.1001   -4.1410 C   0  0  0  0  0  0  0  0  0  0  0  0
  1  4  1  0
  1 24  1  0
  1  2  1  6
  1  3  2  0
 25 28  1  0
 25 24  1  0
 25 26  1  6
 25 27  2  0
  6 11  1  0
  6 12  1  0
 29 36  1  0
 29 37  1  0
  9  7  1  1
  7 13  1  0
 10  8  1  1
  8 14  1  0
  4  5  1  0
 36 28  1  1
 33 30  1  6
 30 38  1  0
 34 31  1  6
 31 39  1  0
 35 32  1  1
 32 40  1  0
 41 43  1  0
 15 19  2  0
 42 43  2  0
 16 22  2  0
 12 17  1  6
 17 19  1  0
 17 20  1  0
 18 19  1  0
 18 22  1  0
 18 23  1  0
  9 10  1  0
  9 11  1  0
 10 12  1  0
 11  5  1  1
 33 34  1  0
 33 35  1  0
 34 36  1  0
 35 37  1  0
 37 43  1  1
 20 21  2  0
 21 22  1  0
M  CHG  3   2  -1  26  -1  41  -1
M  END
>  <COMPND>  (556) 
    udp_gluA.pdb 

>  <AUTHOR>  (556) 
    GENERATED BY OPEN BABEL 3.1.1

>  <MASTER>  (556) 
        0    0    0    0    0    0    0    0   56    0   56    0

>  <minimizedAffinity>  (556) 
-7.30783

>  <CNNscore>  (556) 
0.5163565874

>  <CNNaffinity>  (556) 
4.1251983643

>  <CNN_VS>  (556) 
2.1300733089

>  <CNNaffinity_variance>  (556) 
0.1608655453

$$$$
557
     RDKit          3D

 43 45  0  0  0  0  0  0  0  0999 V2000
   20.9665   71.8072   -1.6128 P   0  0  2  0  0  0  0  0  0  0  0  0
   20.7890   73.0972   -2.5737 O   0  0  0  0  0  0  0  0  0  0  0  0
   21.9954   70.8145   -2.0685 O   0  0  0  0  0  0  0  0  0  0  0  0
   19.4620   71.2348   -1.4491 O   0  0  0  0  0  0  0  0  0  0  0  0
   18.4286   71.8190   -2.2206 C   0  0  0  0  0  0  0  0  0  0  0  0
   16.7466   70.8961   -3.6687 O   0  0  0  0  0  0  0  0  0  0  0  0
   16.5352   68.6554   -1.6872 O   0  0  0  0  0  0  0  0  0  0  0  0
   18.0626   67.5611   -3.6635 O   0  0  0  0  0  0  0  0  0  0  0  0
   17.6879   69.3880   -2.1033 C   0  0  1  0  0  0  0  0  0  0  0  0
   18.1050   68.9626   -3.4952 C   0  0  2  0  0  0  0  0  0  0  0  0
   17.2701   70.8354   -2.3242 C   0  0  1  0  0  0  0  0  0  0  0  0
   17.0905   69.6869   -4.3636 C   0  0  2  0  0  0  0  0  0  0  0  0
   16.7773   67.7273   -1.5399 H   0  0  0  0  0  0  0  0  0  0  0  0
   18.7266   67.1463   -3.0899 H   0  0  0  0  0  0  0  0  0  0  0  0
   19.7717   70.4299   -4.8487 O   0  0  0  0  0  0  0  0  0  0  0  0
   18.9995   70.9613   -9.3615 O   0  0  0  0  0  0  0  0  0  0  0  0
   17.6170   70.0245   -5.6557 N   0  0  0  0  0  0  0  0  0  0  0  0
   19.3843   70.6948   -7.0957 N   0  0  0  0  0  0  0  0  0  0  0  0
   18.9788   70.3843   -5.7910 C   0  0  0  0  0  0  0  0  0  0  0  0
   16.7889   69.9958   -6.7712 C   0  0  0  0  0  0  0  0  0  0  0  0
   17.1899   70.2943   -8.0085 C   0  0  0  0  0  0  0  0  0  0  0  0
   18.5977   70.6811   -8.2362 C   0  0  0  0  0  0  0  0  0  0  0  0
   20.3277   70.9503   -7.2146 H   0  0  0  0  0  0  0  0  0  0  0  0
   21.2627   72.4689   -0.1681 O   0  0  0  0  0  0  0  0  0  0  0  0
   21.3966   71.8008    1.2980 P   0  0  2  0  0  0  0  0  0  0  0  0
   21.4497   70.2148    0.9783 O   0  0  0  0  0  0  0  0  0  0  0  0
   20.3151   72.2021    2.2588 O   0  0  0  0  0  0  0  0  0  0  0  0
   22.8913   72.1690    1.7806 O   0  0  0  0  0  0  0  0  0  0  0  0
   24.4779   73.5379    0.6770 O   0  0  0  0  0  0  0  0  0  0  0  0
   26.9177   70.9238    2.7462 O   0  0  0  0  0  0  0  0  0  0  0  0
   24.5227   69.9514    1.3851 O   0  0  0  0  0  0  0  0  0  0  0  0
   26.5670   73.6506    3.6911 O   0  0  0  0  0  0  0  0  0  0  0  0
   25.7495   71.7118    2.5173 C   0  0  2  0  0  0  0  0  0  0  0  0
   25.0694   71.2555    1.2263 C   0  0  2  0  0  0  0  0  0  0  0  0
   26.1814   73.1755    2.4027 C   0  0  1  0  0  0  0  0  0  0  0  0
   23.9509   72.2191    0.8270 C   0  0  1  0  0  0  0  0  0  0  0  0
   25.0470   74.0516    1.8792 C   0  0  1  0  0  0  0  0  0  0  0  0
   26.6679   69.9895    2.8224 H   0  0  0  0  0  0  0  0  0  0  0  0
   25.2269   69.3348    1.6387 H   0  0  0  0  0  0  0  0  0  0  0  0
   27.2884   73.1013    4.0357 H   0  0  0  0  0  0  0  0  0  0  0  0
   25.1209   75.7059    0.2180 O   0  0  0  0  0  0  0  0  0  0  0  0
   26.2766   76.1109    2.1414 O   0  0  0  0  0  0  0  0  0  0  0  0
   25.5607   75.3910    1.4615 C   0  0  0  0  0  0  0  0  0  0  0  0
  1  4  1  0
  1 24  1  0
  1  2  1  6
  1  3  2  0
 25 28  1  0
 25 24  1  0
 25 26  1  6
 25 27  2  0
  6 11  1  0
  6 12  1  0
 29 36  1  0
 29 37  1  0
  9  7  1  6
  7 13  1  0
 10  8  1  1
  8 14  1  0
  4  5  1  0
 36 28  1  1
 33 30  1  6
 30 38  1  0
 34 31  1  1
 31 39  1  0
 35 32  1  1
 32 40  1  0
 41 43  1  0
 15 19  2  0
 42 43  2  0
 16 22  2  0
 12 17  1  6
 17 19  1  0
 17 20  1  0
 18 19  1  0
 18 22  1  0
 18 23  1  0
  9 10  1  0
  9 11  1  0
 10 12  1  0
 11  5  1  6
 33 34  1  0
 33 35  1  0
 34 36  1  0
 35 37  1  0
 37 43  1  6
 20 21  2  0
 21 22  1  0
M  CHG  3   2  -1  26  -1  41  -1
M  END
>  <COMPND>  (557) 
    udp_gluA.pdb 

>  <AUTHOR>  (557) 
    GENERATED BY OPEN BABEL 3.1.1

>  <MASTER>  (557) 
        0    0    0    0    0    0    0    0   56    0   56    0

>  <minimizedAffinity>  (557) 
-7.38796

>  <CNNscore>  (557) 
0.5025372505

>  <CNNaffinity>  (557) 
4.2356085777

>  <CNN_VS>  (557) 
2.1285510063

>  <CNNaffinity_variance>  (557) 
0.2438642681

$$$$
558
     RDKit          3D

 43 45  0  0  0  0  0  0  0  0999 V2000
   19.8847   71.7644   -1.6083 P   0  0  2  0  0  0  0  0  0  0  0  0
   19.1926   72.6920   -0.4772 O   0  0  0  0  0  0  0  0  0  0  0  0
   19.0317   70.6377   -2.1128 O   0  0  0  0  0  0  0  0  0  0  0  0
   21.2975   71.3345   -0.9471 O   0  0  0  0  0  0  0  0  0  0  0  0
   21.3607   71.1556    0.4559 C   0  0  0  0  0  0  0  0  0  0  0  0
   23.6463   71.7527    0.0118 O   0  0  0  0  0  0  0  0  0  0  0  0
   24.2641   70.6705    2.7391 O   0  0  0  0  0  0  0  0  0  0  0  0
   24.2131   73.3636    3.1642 O   0  0  0  0  0  0  0  0  0  0  0  0
   23.1105   71.3811    2.2889 C   0  0  1  0  0  0  0  0  0  0  0  0
   23.4378   72.8475    2.1026 C   0  0  2  0  0  0  0  0  0  0  0  0
   22.8122   70.9375    0.8633 C   0  0  1  0  0  0  0  0  0  0  0  0
   24.1880   72.8378    0.7816 C   0  0  2  0  0  0  0  0  0  0  0  0
   24.4743   70.9373    3.6482 H   0  0  0  0  0  0  0  0  0  0  0  0
   23.6914   73.3488    3.9825 H   0  0  0  0  0  0  0  0  0  0  0  0
   25.6202   75.2166    1.2977 O   0  0  0  0  0  0  0  0  0  0  0  0
   23.4648   77.4672   -2.0983 O   0  0  0  0  0  0  0  0  0  0  0  0
   24.0208   74.0601    0.0475 N   0  0  0  0  0  0  0  0  0  0  0  0
   24.5446   76.3355   -0.3935 N   0  0  0  0  0  0  0  0  0  0  0  0
   24.7897   75.1983    0.3873 C   0  0  0  0  0  0  0  0  0  0  0  0
   23.1057   74.1228   -0.9963 C   0  0  0  0  0  0  0  0  0  0  0  0
   22.8831   75.2139   -1.7315 C   0  0  0  0  0  0  0  0  0  0  0  0
   23.6446   76.4464   -1.4410 C   0  0  0  0  0  0  0  0  0  0  0  0
   25.0665   77.1411   -0.1744 H   0  0  0  0  0  0  0  0  0  0  0  0
   20.3228   72.8350   -2.7374 O   0  0  0  0  0  0  0  0  0  0  0  0
   20.8701   72.6247   -4.2440 P   0  0  2  0  0  0  0  0  0  0  0  0
   21.7439   71.2666   -4.1339 O   0  0  0  0  0  0  0  0  0  0  0  0
   21.6223   73.8010   -4.7957 O   0  0  0  0  0  0  0  0  0  0  0  0
   19.5677   72.2029   -5.0975 O   0  0  0  0  0  0  0  0  0  0  0  0
   18.6608   70.0238   -5.2925 O   0  0  0  0  0  0  0  0  0  0  0  0
   17.4303   71.7663   -8.8306 O   0  0  0  0  0  0  0  0  0  0  0  0
   20.1344   72.2157   -7.8205 O   0  0  0  0  0  0  0  0  0  0  0  0
   15.5373   71.3806   -6.6583 O   0  0  0  0  0  0  0  0  0  0  0  0
   17.7858   71.7342   -7.4483 C   0  0  2  0  0  0  0  0  0  0  0  0
   19.2283   71.2488   -7.3021 C   0  0  2  0  0  0  0  0  0  0  0  0
   16.8275   70.7773   -6.7356 C   0  0  1  0  0  0  0  0  0  0  0  0
   19.5697   70.9822   -5.8354 C   0  0  1  0  0  0  0  0  0  0  0  0
   17.3044   70.4626   -5.3207 C   0  0  1  0  0  0  0  0  0  0  0  0
   18.0261   72.3682   -9.3040 H   0  0  0  0  0  0  0  0  0  0  0  0
   19.9233   72.3900   -8.7508 H   0  0  0  0  0  0  0  0  0  0  0  0
   15.2223   71.5861   -7.5524 H   0  0  0  0  0  0  0  0  0  0  0  0
   16.1685   68.4555   -5.7486 O   0  0  0  0  0  0  0  0  0  0  0  0
   16.3383   69.1108   -3.5712 O   0  0  0  0  0  0  0  0  0  0  0  0
   16.5621   69.2943   -4.7583 C   0  0  0  0  0  0  0  0  0  0  0  0
  1  4  1  0
  1 24  1  0
  1  2  1  1
  1  3  2  0
 25 28  1  0
 25 24  1  0
 25 26  1  1
 25 27  2  0
  6 11  1  0
  6 12  1  0
 29 36  1  0
 29 37  1  0
  9  7  1  6
  7 13  1  0
 10  8  1  1
  8 14  1  0
  4  5  1  0
 36 28  1  1
 33 30  1  6
 30 38  1  0
 34 31  1  1
 31 39  1  0
 35 32  1  1
 32 40  1  0
 41 43  1  0
 15 19  2  0
 42 43  2  0
 16 22  2  0
 12 17  1  6
 17 19  1  0
 17 20  1  0
 18 19  1  0
 18 22  1  0
 18 23  1  0
  9 10  1  0
  9 11  1  0
 10 12  1  0
 11  5  1  6
 33 34  1  0
 33 35  1  0
 34 36  1  0
 35 37  1  0
 37 43  1  6
 20 21  2  0
 21 22  1  0
M  CHG  3   2  -1  26  -1  41  -1
M  END
>  <COMPND>  (558) 
    udp_gluA.pdb 

>  <AUTHOR>  (558) 
    GENERATED BY OPEN BABEL 3.1.1

>  <MASTER>  (558) 
        0    0    0    0    0    0    0    0   56    0   56    0

>  <minimizedAffinity>  (558) 
-6.39885

>  <CNNscore>  (558) 
0.5018851161

>  <CNNaffinity>  (558) 
4.0348086357

>  <CNN_VS>  (558) 
2.0250103474

>  <CNNaffinity_variance>  (558) 
0.0569519401

$$$$
559
     RDKit          3D

 43 45  0  0  0  0  0  0  0  0999 V2000
   19.8545   71.2042   -1.6985 P   0  0  2  0  0  0  0  0  0  0  0  0
   19.0182   72.4257   -1.0448 O   0  0  0  0  0  0  0  0  0  0  0  0
   20.6808   71.5714   -2.8961 O   0  0  0  0  0  0  0  0  0  0  0  0
   18.7406   70.0555   -1.9390 O   0  0  0  0  0  0  0  0  0  0  0  0
   18.6779   69.4294   -3.2073 C   0  0  0  0  0  0  0  0  0  0  0  0
   16.4188   70.2126   -2.9610 O   0  0  0  0  0  0  0  0  0  0  0  0
   15.7596   68.4846   -5.3212 O   0  0  0  0  0  0  0  0  0  0  0  0
   15.9239   70.9705   -6.4301 O   0  0  0  0  0  0  0  0  0  0  0  0
   16.9414   69.2409   -5.0570 C   0  0  1  0  0  0  0  0  0  0  0  0
   16.6756   70.7173   -5.2616 C   0  0  2  0  0  0  0  0  0  0  0  0
   17.2190   69.1714   -3.5616 C   0  0  1  0  0  0  0  0  0  0  0  0
   15.9240   71.0812   -3.9925 C   0  0  2  0  0  0  0  0  0  0  0  0
   15.5619   68.5142   -6.2708 H   0  0  0  0  0  0  0  0  0  0  0  0
   16.4455   70.7227   -7.2101 H   0  0  0  0  0  0  0  0  0  0  0  0
   14.1112   72.6051   -2.4537 O   0  0  0  0  0  0  0  0  0  0  0  0
   16.8615   76.3026   -2.5415 O   0  0  0  0  0  0  0  0  0  0  0  0
   16.1413   72.4446   -3.5989 N   0  0  0  0  0  0  0  0  0  0  0  0
   15.4823   74.4455   -2.4997 N   0  0  0  0  0  0  0  0  0  0  0  0
   15.1673   73.1199   -2.8259 C   0  0  0  0  0  0  0  0  0  0  0  0
   17.3082   73.0979   -3.9762 C   0  0  0  0  0  0  0  0  0  0  0  0
   17.5945   74.3617   -3.6575 C   0  0  0  0  0  0  0  0  0  0  0  0
   16.6291   75.1383   -2.8523 C   0  0  0  0  0  0  0  0  0  0  0  0
   14.8184   74.9369   -1.9638 H   0  0  0  0  0  0  0  0  0  0  0  0
   20.7012   70.6327   -0.4458 O   0  0  0  0  0  0  0  0  0  0  0  0
   21.5743   71.3948    0.6813 P   0  0  2  0  0  0  0  0  0  0  0  0
   22.8414   70.4106    0.8958 O   0  0  0  0  0  0  0  0  0  0  0  0
   20.8165   71.7102    1.9384 O   0  0  0  0  0  0  0  0  0  0  0  0
   22.1831   72.6834   -0.0746 O   0  0  0  0  0  0  0  0  0  0  0  0
   23.8123   72.6555   -1.7933 O   0  0  0  0  0  0  0  0  0  0  0  0
   24.4094   76.3896   -0.1296 O   0  0  0  0  0  0  0  0  0  0  0  0
   23.9431   74.0652    1.5775 O   0  0  0  0  0  0  0  0  0  0  0  0
   23.0292   76.1299   -2.6749 O   0  0  0  0  0  0  0  0  0  0  0  0
   23.6540   75.2440   -0.5232 C   0  0  2  0  0  0  0  0  0  0  0  0
   24.2033   74.0025    0.1800 C   0  0  2  0  0  0  0  0  0  0  0  0
   23.7780   75.0945   -2.0412 C   0  0  1  0  0  0  0  0  0  0  0  0
   23.5741   72.7292   -0.3871 C   0  0  1  0  0  0  0  0  0  0  0  0
   23.2424   73.7460   -2.5138 C   0  0  1  0  0  0  0  0  0  0  0  0
   24.3454   76.5046    0.8316 H   0  0  0  0  0  0  0  0  0  0  0  0
   24.3392   74.8709    1.9439 H   0  0  0  0  0  0  0  0  0  0  0  0
   23.3600   76.9936   -2.3825 H   0  0  0  0  0  0  0  0  0  0  0  0
   24.2481   72.2546   -4.0190 O   0  0  0  0  0  0  0  0  0  0  0  0
   23.4980   74.2358   -4.8624 O   0  0  0  0  0  0  0  0  0  0  0  0
   23.6609   73.4731   -3.9219 C   0  0  0  0  0  0  0  0  0  0  0  0
  1  4  1  0
  1 24  1  0
  1  2  1  1
  1  3  2  0
 25 28  1  0
 25 24  1  0
 25 26  1  1
 25 27  2  0
  6 11  1  0
  6 12  1  0
 29 36  1  0
 29 37  1  0
  9  7  1  1
  7 13  1  0
 10  8  1  6
  8 14  1  0
  4  5  1  0
 36 28  1  6
 33 30  1  1
 30 38  1  0
 34 31  1  1
 31 39  1  0
 35 32  1  6
 32 40  1  0
 41 43  1  0
 15 19  2  0
 42 43  2  0
 16 22  2  0
 12 17  1  1
 17 19  1  0
 17 20  1  0
 18 19  1  0
 18 22  1  0
 18 23  1  0
  9 10  1  0
  9 11  1  0
 10 12  1  0
 11  5  1  6
 33 34  1  0
 33 35  1  0
 34 36  1  0
 35 37  1  0
 37 43  1  6
 20 21  2  0
 21 22  1  0
M  CHG  3   2  -1  26  -1  41  -1
M  END
>  <COMPND>  (559) 
    udp_gluA.pdb 

>  <AUTHOR>  (559) 
    GENERATED BY OPEN BABEL 3.1.1

>  <MASTER>  (559) 
        0    0    0    0    0    0    0    0   56    0   56    0

>  <minimizedAffinity>  (559) 
-6.11343

>  <CNNscore>  (559) 
0.4929254949

>  <CNNaffinity>  (559) 
4.1487832069

>  <CNN_VS>  (559) 
2.0450410843

>  <CNNaffinity_variance>  (559) 
0.1701798588

$$$$
560
     RDKit          3D

 43 45  0  0  0  0  0  0  0  0999 V2000
   23.6919   74.1022   -3.3890 P   0  0  2  0  0  0  0  0  0  0  0  0
   23.8689   74.7211   -1.9043 O   0  0  0  0  0  0  0  0  0  0  0  0
   24.9693   73.6899   -4.0599 O   0  0  0  0  0  0  0  0  0  0  0  0
   22.8145   75.2140   -4.1713 O   0  0  0  0  0  0  0  0  0  0  0  0
   22.1345   74.8302   -5.3523 C   0  0  0  0  0  0  0  0  0  0  0  0
   19.9720   74.7753   -6.4004 O   0  0  0  0  0  0  0  0  0  0  0  0
   18.8884   75.7827   -3.7923 O   0  0  0  0  0  0  0  0  0  0  0  0
   18.3048   73.1208   -3.6916 O   0  0  0  0  0  0  0  0  0  0  0  0
   19.9592   74.8696   -4.0336 C   0  0  1  0  0  0  0  0  0  0  0  0
   19.4141   73.5251   -4.4666 C   0  0  2  0  0  0  0  0  0  0  0  0
   20.6976   75.3312   -5.2825 C   0  0  1  0  0  0  0  0  0  0  0  0
   19.0495   73.7854   -5.9183 C   0  0  2  0  0  0  0  0  0  0  0  0
   18.4017   75.5083   -2.9988 H   0  0  0  0  0  0  0  0  0  0  0  0
   18.5886   72.9675   -2.7763 H   0  0  0  0  0  0  0  0  0  0  0  0
   16.9133   72.6368   -7.3654 O   0  0  0  0  0  0  0  0  0  0  0  0
   19.5953   69.2652   -9.0034 O   0  0  0  0  0  0  0  0  0  0  0  0
   19.1617   72.6074   -6.7311 N   0  0  0  0  0  0  0  0  0  0  0  0
   18.2509   70.9581   -8.1790 N   0  0  0  0  0  0  0  0  0  0  0  0
   18.0274   72.1123   -7.4168 C   0  0  0  0  0  0  0  0  0  0  0  0
   20.3843   71.9566   -6.8442 C   0  0  0  0  0  0  0  0  0  0  0  0
   20.5819   70.8574   -7.5746 C   0  0  0  0  0  0  0  0  0  0  0  0
   19.4479   70.2751   -8.3218 C   0  0  0  0  0  0  0  0  0  0  0  0
   17.4755   70.5935   -8.6639 H   0  0  0  0  0  0  0  0  0  0  0  0
   22.6347   72.9015   -3.1580 O   0  0  0  0  0  0  0  0  0  0  0  0
   22.7994   71.4676   -2.4296 P   0  0  2  0  0  0  0  0  0  0  0  0
   24.2282   70.9374   -2.9755 O   0  0  0  0  0  0  0  0  0  0  0  0
   21.6576   70.5220   -2.6659 O   0  0  0  0  0  0  0  0  0  0  0  0
   23.0631   71.8244   -0.8786 O   0  0  0  0  0  0  0  0  0  0  0  0
   24.3513   70.8493    0.8532 O   0  0  0  0  0  0  0  0  0  0  0  0
   20.9278   71.9656    2.8785 O   0  0  0  0  0  0  0  0  0  0  0  0
   20.7503   70.7475    0.2292 O   0  0  0  0  0  0  0  0  0  0  0  0
   23.3677   73.5189    3.1701 O   0  0  0  0  0  0  0  0  0  0  0  0
   21.9425   72.0671    1.8794 C   0  0  2  0  0  0  0  0  0  0  0  0
   21.9360   70.8070    1.0136 C   0  0  2  0  0  0  0  0  0  0  0  0
   23.2904   72.2191    2.5880 C   0  0  1  0  0  0  0  0  0  0  0  0
   23.1501   70.7756    0.0842 C   0  0  1  0  0  0  0  0  0  0  0  0
   24.4535   72.0504    1.6148 C   0  0  1  0  0  0  0  0  0  0  0  0
   20.0621   71.8682    2.4516 H   0  0  0  0  0  0  0  0  0  0  0  0
   19.9759   70.7673    0.8125 H   0  0  0  0  0  0  0  0  0  0  0  0
   22.6328   73.6392    3.7916 H   0  0  0  0  0  0  0  0  0  0  0  0
   26.1530   73.0473    2.8874 O   0  0  0  0  0  0  0  0  0  0  0  0
   26.3436   70.8148    2.4647 O   0  0  0  0  0  0  0  0  0  0  0  0
   25.7405   71.8715    2.3523 C   0  0  0  0  0  0  0  0  0  0  0  0
  1  4  1  0
  1 24  1  0
  1  2  1  1
  1  3  2  0
 25 28  1  0
 25 24  1  0
 25 26  1  6
 25 27  2  0
  6 11  1  0
  6 12  1  0
 29 36  1  0
 29 37  1  0
  9  7  1  6
  7 13  1  0
 10  8  1  1
  8 14  1  0
  4  5  1  0
 36 28  1  6
 33 30  1  1
 30 38  1  0
 34 31  1  6
 31 39  1  0
 35 32  1  6
 32 40  1  0
 41 43  1  0
 15 19  2  0
 42 43  2  0
 16 22  2  0
 12 17  1  6
 17 19  1  0
 17 20  1  0
 18 19  1  0
 18 22  1  0
 18 23  1  0
  9 10  1  0
  9 11  1  0
 10 12  1  0
 11  5  1  1
 33 34  1  0
 33 35  1  0
 34 36  1  0
 35 37  1  0
 37 43  1  1
 20 21  2  0
 21 22  1  0
M  CHG  3   2  -1  26  -1  41  -1
M  END
>  <COMPND>  (560) 
    udp_gluA.pdb 

>  <AUTHOR>  (560) 
    GENERATED BY OPEN BABEL 3.1.1

>  <MASTER>  (560) 
        0    0    0    0    0    0    0    0   56    0   56    0

>  <minimizedAffinity>  (560) 
-6.90755

>  <CNNscore>  (560) 
0.4899337292

>  <CNNaffinity>  (560) 
4.1307935715

>  <CNN_VS>  (560) 
2.0238151550

>  <CNNaffinity_variance>  (560) 
0.0259625874

$$$$
561
     RDKit          3D

 43 45  0  0  0  0  0  0  0  0999 V2000
   21.9563   71.3097   -3.0314 P   0  0  2  0  0  0  0  0  0  0  0  0
   23.5056   70.9420   -3.3200 O   0  0  0  0  0  0  0  0  0  0  0  0
   21.5075   71.0958   -1.6156 O   0  0  0  0  0  0  0  0  0  0  0  0
   21.1438   70.4811   -4.1588 O   0  0  0  0  0  0  0  0  0  0  0  0
   20.1545   69.5595   -3.7388 C   0  0  0  0  0  0  0  0  0  0  0  0
   18.6265   71.1141   -4.7518 O   0  0  0  0  0  0  0  0  0  0  0  0
   16.5701   70.0467   -2.8483 O   0  0  0  0  0  0  0  0  0  0  0  0
   15.9529   68.7629   -5.1735 O   0  0  0  0  0  0  0  0  0  0  0  0
   17.6283   69.3579   -3.5148 C   0  0  1  0  0  0  0  0  0  0  0  0
   17.2911   69.1702   -4.9788 C   0  0  2  0  0  0  0  0  0  0  0  0
   18.8284   70.2925   -3.5815 C   0  0  1  0  0  0  0  0  0  0  0  0
   17.5704   70.5515   -5.5464 C   0  0  2  0  0  0  0  0  0  0  0  0
   15.7920   69.4694   -2.7935 H   0  0  0  0  0  0  0  0  0  0  0  0
   15.8260   67.8781   -4.7953 H   0  0  0  0  0  0  0  0  0  0  0  0
   15.8154   70.3201   -7.7470 O   0  0  0  0  0  0  0  0  0  0  0  0
   19.2985   70.3841  -10.7649 O   0  0  0  0  0  0  0  0  0  0  0  0
   17.9918   70.5054   -6.9179 N   0  0  0  0  0  0  0  0  0  0  0  0
   17.5519   70.3512   -9.2480 N   0  0  0  0  0  0  0  0  0  0  0  0
   17.0294   70.3877   -7.9485 C   0  0  0  0  0  0  0  0  0  0  0  0
   19.3437   70.5781   -7.2310 C   0  0  0  0  0  0  0  0  0  0  0  0
   19.8266   70.5421   -8.4744 C   0  0  0  0  0  0  0  0  0  0  0  0
   18.8878   70.4196   -9.6089 C   0  0  0  0  0  0  0  0  0  0  0  0
   16.9013   70.2676   -9.9821 H   0  0  0  0  0  0  0  0  0  0  0  0
   21.8430   72.8364   -3.5503 O   0  0  0  0  0  0  0  0  0  0  0  0
   22.4869   73.5700   -4.8391 P   0  0  2  0  0  0  0  0  0  0  0  0
   21.2503   74.4308   -5.4309 O   0  0  0  0  0  0  0  0  0  0  0  0
   23.1186   72.6342   -5.8286 O   0  0  0  0  0  0  0  0  0  0  0  0
   23.4919   74.6715   -4.2234 O   0  0  0  0  0  0  0  0  0  0  0  0
   25.8552   74.5911   -4.0901 O   0  0  0  0  0  0  0  0  0  0  0  0
   24.9051   76.8936   -0.7940 O   0  0  0  0  0  0  0  0  0  0  0  0
   23.3261   74.5251   -1.4508 O   0  0  0  0  0  0  0  0  0  0  0  0
   25.9852   78.1446   -3.1856 O   0  0  0  0  0  0  0  0  0  0  0  0
   24.7413   76.3801   -2.1159 C   0  0  2  0  0  0  0  0  0  0  0  0
   24.5683   74.8621   -2.0575 C   0  0  2  0  0  0  0  0  0  0  0  0
   25.9903   76.7427   -2.9223 C   0  0  1  0  0  0  0  0  0  0  0  0
   24.6202   74.2512   -3.4585 C   0  0  1  0  0  0  0  0  0  0  0  0
   26.0304   75.9967   -4.2529 C   0  0  1  0  0  0  0  0  0  0  0  0
   24.1232   76.6751   -0.2629 H   0  0  0  0  0  0  0  0  0  0  0  0
   23.2861   74.9098   -0.5615 H   0  0  0  0  0  0  0  0  0  0  0  0
   25.9597   78.6310   -2.3467 H   0  0  0  0  0  0  0  0  0  0  0  0
   28.0041   74.8897   -4.8698 O   0  0  0  0  0  0  0  0  0  0  0  0
   27.8733   77.1185   -5.3332 O   0  0  0  0  0  0  0  0  0  0  0  0
   27.3847   76.0960   -4.8761 C   0  0  0  0  0  0  0  0  0  0  0  0
  1  4  1  0
  1 24  1  0
  1  2  1  1
  1  3  2  0
 25 28  1  0
 25 24  1  0
 25 26  1  6
 25 27  2  0
  6 11  1  0
  6 12  1  0
 29 36  1  0
 29 37  1  0
  9  7  1  1
  7 13  1  0
 10  8  1  1
  8 14  1  0
  4  5  1  0
 36 28  1  6
 33 30  1  1
 30 38  1  0
 34 31  1  6
 31 39  1  0
 35 32  1  6
 32 40  1  0
 41 43  1  0
 15 19  2  0
 42 43  2  0
 16 22  2  0
 12 17  1  6
 17 19  1  0
 17 20  1  0
 18 19  1  0
 18 22  1  0
 18 23  1  0
  9 10  1  0
  9 11  1  0
 10 12  1  0
 11  5  1  6
 33 34  1  0
 33 35  1  0
 34 36  1  0
 35 37  1  0
 37 43  1  1
 20 21  2  0
 21 22  1  0
M  CHG  3   2  -1  26  -1  41  -1
M  END
>  <COMPND>  (561) 
    udp_gluA.pdb 

>  <AUTHOR>  (561) 
    GENERATED BY OPEN BABEL 3.1.1

>  <MASTER>  (561) 
        0    0    0    0    0    0    0    0   56    0   56    0

>  <minimizedAffinity>  (561) 
-7.35406

>  <CNNscore>  (561) 
0.9280418754

>  <CNNaffinity>  (561) 
4.7984762192

>  <CNN_VS>  (561) 
4.4531869888

>  <CNNaffinity_variance>  (561) 
0.1626407802

$$$$
562
     RDKit          3D

 43 45  0  0  0  0  0  0  0  0999 V2000
   22.9206   71.5863   -2.7270 P   0  0  2  0  0  0  0  0  0  0  0  0
   23.0203   73.1528   -2.3334 O   0  0  0  0  0  0  0  0  0  0  0  0
   24.2009   70.9721   -3.2120 O   0  0  0  0  0  0  0  0  0  0  0  0
   21.6760   71.5235   -3.7590 O   0  0  0  0  0  0  0  0  0  0  0  0
   20.8185   70.3977   -3.7164 C   0  0  0  0  0  0  0  0  0  0  0  0
   18.9184   71.5415   -4.6432 O   0  0  0  0  0  0  0  0  0  0  0  0
   17.3123   70.2475   -2.4667 O   0  0  0  0  0  0  0  0  0  0  0  0
   16.7453   68.6899   -4.6320 O   0  0  0  0  0  0  0  0  0  0  0  0
   18.4183   69.7273   -3.2047 C   0  0  1  0  0  0  0  0  0  0  0  0
   17.9864   69.3635   -4.6095 C   0  0  2  0  0  0  0  0  0  0  0  0
   19.3935   70.8691   -3.4569 C   0  0  1  0  0  0  0  0  0  0  0  0
   17.9257   70.7239   -5.2831 C   0  0  2  0  0  0  0  0  0  0  0  0
   16.6754   69.5361   -2.2935 H   0  0  0  0  0  0  0  0  0  0  0  0
   16.8362   67.8298   -4.1917 H   0  0  0  0  0  0  0  0  0  0  0  0
   16.0058   70.1690   -7.2786 O   0  0  0  0  0  0  0  0  0  0  0  0
   19.1435   70.4775  -10.6407 O   0  0  0  0  0  0  0  0  0  0  0  0
   18.2137   70.6532   -6.6877 N   0  0  0  0  0  0  0  0  0  0  0  0
   17.5706   70.3222   -8.9511 N   0  0  0  0  0  0  0  0  0  0  0  0
   17.1769   70.3676   -7.6072 C   0  0  0  0  0  0  0  0  0  0  0  0
   19.5095   70.8670   -7.1417 C   0  0  0  0  0  0  0  0  0  0  0  0
   19.8694   70.8204   -8.4258 C   0  0  0  0  0  0  0  0  0  0  0  0
   18.8464   70.5272   -9.4509 C   0  0  0  0  0  0  0  0  0  0  0  0
   16.8664   70.1230   -9.6098 H   0  0  0  0  0  0  0  0  0  0  0  0
   22.3161   70.9133   -1.3874 O   0  0  0  0  0  0  0  0  0  0  0  0
   21.5803   71.5724   -0.1075 P   0  0  2  0  0  0  0  0  0  0  0  0
   20.9862   70.2885    0.6792 O   0  0  0  0  0  0  0  0  0  0  0  0
   20.5558   72.6134   -0.4547 O   0  0  0  0  0  0  0  0  0  0  0  0
   22.7830   72.1025    0.8279 O   0  0  0  0  0  0  0  0  0  0  0  0
   24.4732   71.3469    2.3049 O   0  0  0  0  0  0  0  0  0  0  0  0
   22.4748   74.0983    4.6511 O   0  0  0  0  0  0  0  0  0  0  0  0
   20.9886   72.2475    2.9481 O   0  0  0  0  0  0  0  0  0  0  0  0
   25.0532   74.7709    3.4890 O   0  0  0  0  0  0  0  0  0  0  0  0
   22.9800   73.5445    3.4362 C   0  0  2  0  0  0  0  0  0  0  0  0
   22.3822   72.1540    3.2201 C   0  0  2  0  0  0  0  0  0  0  0  0
   24.5033   73.4564    3.5541 C   0  0  1  0  0  0  0  0  0  0  0  0
   23.0697   71.4376    2.0569 C   0  0  1  0  0  0  0  0  0  0  0  0
   25.1020   72.6209    2.4263 C   0  0  1  0  0  0  0  0  0  0  0  0
   21.5082   74.1638    4.5994 H   0  0  0  0  0  0  0  0  0  0  0  0
   20.5461   72.7013    3.6820 H   0  0  0  0  0  0  0  0  0  0  0  0
   24.6802   75.3131    4.2016 H   0  0  0  0  0  0  0  0  0  0  0  0
   26.7655   70.9674    2.4226 O   0  0  0  0  0  0  0  0  0  0  0  0
   27.3571   73.0363    3.1768 O   0  0  0  0  0  0  0  0  0  0  0  0
   26.5224   72.2668    2.7249 C   0  0  0  0  0  0  0  0  0  0  0  0
  1  4  1  0
  1 24  1  0
  1  2  1  1
  1  3  2  0
 25 28  1  0
 25 24  1  0
 25 26  1  1
 25 27  2  0
  6 11  1  0
  6 12  1  0
 29 36  1  0
 29 37  1  0
  9  7  1  1
  7 13  1  0
 10  8  1  1
  8 14  1  0
  4  5  1  0
 36 28  1  6
 33 30  1  1
 30 38  1  0
 34 31  1  6
 31 39  1  0
 35 32  1  6
 32 40  1  0
 41 43  1  0
 15 19  2  0
 42 43  2  0
 16 22  2  0
 12 17  1  6
 17 19  1  0
 17 20  1  0
 18 19  1  0
 18 22  1  0
 18 23  1  0
  9 10  1  0
  9 11  1  0
 10 12  1  0
 11  5  1  6
 33 34  1  0
 33 35  1  0
 34 36  1  0
 35 37  1  0
 37 43  1  1
 20 21  2  0
 21 22  1  0
M  CHG  3   2  -1  26  -1  41  -1
M  END
>  <COMPND>  (562) 
    udp_gluA.pdb 

>  <AUTHOR>  (562) 
    GENERATED BY OPEN BABEL 3.1.1

>  <MASTER>  (562) 
        0    0    0    0    0    0    0    0   56    0   56    0

>  <minimizedAffinity>  (562) 
-8.23513

>  <CNNscore>  (562) 
0.9228131771

>  <CNNaffinity>  (562) 
4.8453550339

>  <CNN_VS>  (562) 
4.4713573456

>  <CNNaffinity_variance>  (562) 
0.0474203043

$$$$
563
     RDKit          3D

 43 45  0  0  0  0  0  0  0  0999 V2000
   22.1064   71.3956   -2.7335 P   0  0  2  0  0  0  0  0  0  0  0  0
   23.5534   70.7507   -3.0642 O   0  0  0  0  0  0  0  0  0  0  0  0
   21.5740   71.0889   -1.3644 O   0  0  0  0  0  0  0  0  0  0  0  0
   21.1779   70.9215   -3.9709 O   0  0  0  0  0  0  0  0  0  0  0  0
   20.2130   69.9107   -3.7436 C   0  0  0  0  0  0  0  0  0  0  0  0
   18.5770   71.3155   -4.8056 O   0  0  0  0  0  0  0  0  0  0  0  0
   16.6081   70.1869   -2.8457 O   0  0  0  0  0  0  0  0  0  0  0  0
   16.0690   68.7720   -5.1136 O   0  0  0  0  0  0  0  0  0  0  0  0
   17.7077   69.5460   -3.4926 C   0  0  1  0  0  0  0  0  0  0  0  0
   17.3770   69.2774   -4.9454 C   0  0  2  0  0  0  0  0  0  0  0  0
   18.8406   70.5570   -3.6054 C   0  0  1  0  0  0  0  0  0  0  0  0
   17.5581   70.6507   -5.5692 C   0  0  2  0  0  0  0  0  0  0  0  0
   15.8717   69.5604   -2.7623 H   0  0  0  0  0  0  0  0  0  0  0  0
   16.0049   67.8965   -4.6998 H   0  0  0  0  0  0  0  0  0  0  0  0
   15.7996   70.3265   -7.7553 O   0  0  0  0  0  0  0  0  0  0  0  0
   19.2685   70.3878  -10.7896 O   0  0  0  0  0  0  0  0  0  0  0  0
   17.9749   70.5788   -6.9410 N   0  0  0  0  0  0  0  0  0  0  0  0
   17.5291   70.3563   -9.2644 N   0  0  0  0  0  0  0  0  0  0  0  0
   17.0111   70.4147   -7.9639 C   0  0  0  0  0  0  0  0  0  0  0  0
   19.3237   70.6721   -7.2619 C   0  0  0  0  0  0  0  0  0  0  0  0
   19.8023   70.6149   -8.5063 C   0  0  0  0  0  0  0  0  0  0  0  0
   18.8618   70.4438   -9.6330 C   0  0  0  0  0  0  0  0  0  0  0  0
   16.8774   70.2404   -9.9932 H   0  0  0  0  0  0  0  0  0  0  0  0
   22.3334   72.9681   -3.0311 O   0  0  0  0  0  0  0  0  0  0  0  0
   23.6297   73.9114   -2.8230 P   0  0  2  0  0  0  0  0  0  0  0  0
   23.0132   75.4068   -2.8881 O   0  0  0  0  0  0  0  0  0  0  0  0
   24.7398   73.6570   -3.8011 O   0  0  0  0  0  0  0  0  0  0  0  0
   24.0403   73.7074   -1.2763 O   0  0  0  0  0  0  0  0  0  0  0  0
   22.6660   73.3114    0.6114 O   0  0  0  0  0  0  0  0  0  0  0  0
   25.7833   75.4519    2.2753 O   0  0  0  0  0  0  0  0  0  0  0  0
   24.6563   76.2388   -0.3025 O   0  0  0  0  0  0  0  0  0  0  0  0
   25.6092   72.5779    2.6758 O   0  0  0  0  0  0  0  0  0  0  0  0
   25.1664   74.5469    1.3597 C   0  0  2  0  0  0  0  0  0  0  0  0
   24.0781   75.2775    0.5728 C   0  0  2  0  0  0  0  0  0  0  0  0
   24.5587   73.3980    2.1676 C   0  0  1  0  0  0  0  0  0  0  0  0
   23.2435   74.2941   -0.2489 C   0  0  1  0  0  0  0  0  0  0  0  0
   23.6403   72.5360    1.3062 C   0  0  1  0  0  0  0  0  0  0  0  0
   26.1766   76.1907    1.7844 H   0  0  0  0  0  0  0  0  0  0  0  0
   25.1876   76.8659    0.2122 H   0  0  0  0  0  0  0  0  0  0  0  0
   26.2011   73.1146    3.2258 H   0  0  0  0  0  0  0  0  0  0  0  0
   23.0258   71.8805    3.4728 O   0  0  0  0  0  0  0  0  0  0  0  0
   22.0303   70.7908    1.7348 O   0  0  0  0  0  0  0  0  0  0  0  0
   22.8067   71.6344    2.1574 C   0  0  0  0  0  0  0  0  0  0  0  0
  1  4  1  0
  1 24  1  0
  1  2  1  6
  1  3  2  0
 25 28  1  0
 25 24  1  0
 25 26  1  1
 25 27  2  0
  6 11  1  0
  6 12  1  0
 29 36  1  0
 29 37  1  0
  9  7  1  1
  7 13  1  0
 10  8  1  1
  8 14  1  0
  4  5  1  0
 36 28  1  6
 33 30  1  1
 30 38  1  0
 34 31  1  6
 31 39  1  0
 35 32  1  6
 32 40  1  0
 41 43  1  0
 15 19  2  0
 42 43  2  0
 16 22  2  0
 12 17  1  6
 17 19  1  0
 17 20  1  0
 18 19  1  0
 18 22  1  0
 18 23  1  0
  9 10  1  0
  9 11  1  0
 10 12  1  0
 11  5  1  6
 33 34  1  0
 33 35  1  0
 34 36  1  0
 35 37  1  0
 37 43  1  1
 20 21  2  0
 21 22  1  0
M  CHG  3   2  -1  26  -1  41  -1
M  END
>  <COMPND>  (563) 
    udp_gluA.pdb 

>  <AUTHOR>  (563) 
    GENERATED BY OPEN BABEL 3.1.1

>  <MASTER>  (563) 
        0    0    0    0    0    0    0    0   56    0   56    0

>  <minimizedAffinity>  (563) 
-7.58175

>  <CNNscore>  (563) 
0.9044408798

>  <CNNaffinity>  (563) 
4.7854504585

>  <CNN_VS>  (563) 
4.3281569481

>  <CNNaffinity_variance>  (563) 
0.0844337195

$$$$
564
     RDKit          3D

 43 45  0  0  0  0  0  0  0  0999 V2000
   20.4751   72.6906   -2.9149 P   0  0  2  0  0  0  0  0  0  0  0  0
   20.7629   73.6028   -1.6097 O   0  0  0  0  0  0  0  0  0  0  0  0
   20.2555   73.4559   -4.1869 O   0  0  0  0  0  0  0  0  0  0  0  0
   19.2586   71.7277   -2.4554 O   0  0  0  0  0  0  0  0  0  0  0  0
   18.8344   70.7058   -3.3388 C   0  0  0  0  0  0  0  0  0  0  0  0
   17.1454   71.4663   -4.8706 O   0  0  0  0  0  0  0  0  0  0  0  0
   15.2350   69.7456   -3.3274 O   0  0  0  0  0  0  0  0  0  0  0  0
   15.7693   68.2207   -5.5241 O   0  0  0  0  0  0  0  0  0  0  0  0
   16.6079   69.5131   -3.6429 C   0  0  1  0  0  0  0  0  0  0  0  0
   16.7544   69.1411   -5.1032 C   0  0  2  0  0  0  0  0  0  0  0  0
   17.3371   70.8483   -3.5796 C   0  0  1  0  0  0  0  0  0  0  0  0
   16.6237   70.4912   -5.7873 C   0  0  2  0  0  0  0  0  0  0  0  0
   14.7485   68.9067   -3.3615 H   0  0  0  0  0  0  0  0  0  0  0  0
   15.8955   67.3775   -5.0603 H   0  0  0  0  0  0  0  0  0  0  0  0
   15.4555   70.6179   -8.3555 O   0  0  0  0  0  0  0  0  0  0  0  0
   19.5733   70.7460  -10.4222 O   0  0  0  0  0  0  0  0  0  0  0  0
   17.3670   70.5584   -7.0136 N   0  0  0  0  0  0  0  0  0  0  0  0
   17.5075   70.6805   -9.3824 N   0  0  0  0  0  0  0  0  0  0  0  0
   16.6835   70.6187   -8.2510 C   0  0  0  0  0  0  0  0  0  0  0  0
   18.7563   70.5659   -6.9829 C   0  0  0  0  0  0  0  0  0  0  0  0
   19.5282   70.6254   -8.0699 C   0  0  0  0  0  0  0  0  0  0  0  0
   18.8928   70.6899   -9.4024 C   0  0  0  0  0  0  0  0  0  0  0  0
   17.0544   70.7211  -10.2556 H   0  0  0  0  0  0  0  0  0  0  0  0
   21.7420   71.6871   -2.9430 O   0  0  0  0  0  0  0  0  0  0  0  0
   23.2818   71.9092   -2.5033 P   0  0  2  0  0  0  0  0  0  0  0  0
   23.6185   73.3879   -3.0694 O   0  0  0  0  0  0  0  0  0  0  0  0
   24.2188   70.8369   -2.9788 O   0  0  0  0  0  0  0  0  0  0  0  0
   23.2281   72.0891   -0.9010 O   0  0  0  0  0  0  0  0  0  0  0  0
   24.4662   70.9288    0.7512 O   0  0  0  0  0  0  0  0  0  0  0  0
   20.9797   71.8166    2.7821 O   0  0  0  0  0  0  0  0  0  0  0  0
   20.8860   70.8975    0.0107 O   0  0  0  0  0  0  0  0  0  0  0  0
   23.4050   73.3275    3.3169 O   0  0  0  0  0  0  0  0  0  0  0  0
   22.0238   72.0271    1.8316 C   0  0  2  0  0  0  0  0  0  0  0  0
   22.0473   70.8700    0.8326 C   0  0  2  0  0  0  0  0  0  0  0  0
   23.3492   72.0996    2.5932 C   0  0  1  0  0  0  0  0  0  0  0  0
   23.2890   70.9406   -0.0573 C   0  0  1  0  0  0  0  0  0  0  0  0
   24.5417   72.0387    1.6431 C   0  0  1  0  0  0  0  0  0  0  0  0
   20.1275   71.7671    2.3210 H   0  0  0  0  0  0  0  0  0  0  0  0
   20.0943   70.8533    0.5688 H   0  0  0  0  0  0  0  0  0  0  0  0
   22.6513   73.3788    3.9252 H   0  0  0  0  0  0  0  0  0  0  0  0
   26.2455   72.9116    2.9983 O   0  0  0  0  0  0  0  0  0  0  0  0
   26.3721   70.6985    2.4645 O   0  0  0  0  0  0  0  0  0  0  0  0
   25.8064   71.7792    2.3952 C   0  0  0  0  0  0  0  0  0  0  0  0
  1  4  1  0
  1 24  1  0
  1  2  1  1
  1  3  2  0
 25 28  1  0
 25 24  1  0
 25 26  1  6
 25 27  2  0
  6 11  1  0
  6 12  1  0
 29 36  1  0
 29 37  1  0
  9  7  1  6
  7 13  1  0
 10  8  1  6
  8 14  1  0
  4  5  1  0
 36 28  1  1
 33 30  1  1
 30 38  1  0
 34 31  1  6
 31 39  1  0
 35 32  1  6
 32 40  1  0
 41 43  1  0
 15 19  2  0
 42 43  2  0
 16 22  2  0
 12 17  1  6
 17 19  1  0
 17 20  1  0
 18 19  1  0
 18 22  1  0
 18 23  1  0
  9 10  1  0
  9 11  1  0
 10 12  1  0
 11  5  1  6
 33 34  1  0
 33 35  1  0
 34 36  1  0
 35 37  1  0
 37 43  1  1
 20 21  2  0
 21 22  1  0
M  CHG  3   2  -1  26  -1  41  -1
M  END
>  <COMPND>  (564) 
    udp_gluA.pdb 

>  <AUTHOR>  (564) 
    GENERATED BY OPEN BABEL 3.1.1

>  <MASTER>  (564) 
        0    0    0    0    0    0    0    0   56    0   56    0

>  <minimizedAffinity>  (564) 
-8.44789

>  <CNNscore>  (564) 
0.8616097569

>  <CNNaffinity>  (564) 
4.6342673302

>  <CNN_VS>  (564) 
3.9929299355

>  <CNNaffinity_variance>  (564) 
0.1381012946

$$$$
565
     RDKit          3D

 43 45  0  0  0  0  0  0  0  0999 V2000
   21.2967   71.1062   -1.9951 P   0  0  2  0  0  0  0  0  0  0  0  0
   22.7936   70.7197   -1.5170 O   0  0  0  0  0  0  0  0  0  0  0  0
   20.2055   70.7080   -1.0451 O   0  0  0  0  0  0  0  0  0  0  0  0
   21.1922   70.4849   -3.4854 O   0  0  0  0  0  0  0  0  0  0  0  0
   20.1425   69.5778   -3.7677 C   0  0  0  0  0  0  0  0  0  0  0  0
   18.6006   71.1167   -4.7835 O   0  0  0  0  0  0  0  0  0  0  0  0
   16.5527   70.0309   -2.8813 O   0  0  0  0  0  0  0  0  0  0  0  0
   15.9504   68.7393   -5.2061 O   0  0  0  0  0  0  0  0  0  0  0  0
   17.6182   69.3519   -3.5462 C   0  0  1  0  0  0  0  0  0  0  0  0
   17.2844   69.1597   -5.0104 C   0  0  2  0  0  0  0  0  0  0  0  0
   18.8093   70.2980   -3.6124 C   0  0  1  0  0  0  0  0  0  0  0  0
   17.5508   70.5431   -5.5788 C   0  0  2  0  0  0  0  0  0  0  0  0
   15.7802   69.4461   -2.8269 H   0  0  0  0  0  0  0  0  0  0  0  0
   15.8317   67.8536   -4.8273 H   0  0  0  0  0  0  0  0  0  0  0  0
   15.7988   70.3167   -7.7823 O   0  0  0  0  0  0  0  0  0  0  0  0
   19.2861   70.3872  -10.7953 O   0  0  0  0  0  0  0  0  0  0  0  0
   17.9741   70.5001   -6.9498 N   0  0  0  0  0  0  0  0  0  0  0  0
   17.5374   70.3510   -9.2808 N   0  0  0  0  0  0  0  0  0  0  0  0
   17.0131   70.3847   -7.9819 C   0  0  0  0  0  0  0  0  0  0  0  0
   19.3264   70.5734   -7.2609 C   0  0  0  0  0  0  0  0  0  0  0  0
   19.8110   70.5401   -8.5038 C   0  0  0  0  0  0  0  0  0  0  0  0
   18.8738   70.4201   -9.6398 C   0  0  0  0  0  0  0  0  0  0  0  0
   16.8877   70.2690  -10.0160 H   0  0  0  0  0  0  0  0  0  0  0  0
   21.4028   72.6955   -2.2706 O   0  0  0  0  0  0  0  0  0  0  0  0
   22.6606   73.6171   -2.6974 P   0  0  2  0  0  0  0  0  0  0  0  0
   23.7969   72.5332   -3.0901 O   0  0  0  0  0  0  0  0  0  0  0  0
   23.0841   74.6049   -1.6492 O   0  0  0  0  0  0  0  0  0  0  0  0
   22.2252   74.2781   -4.1032 O   0  0  0  0  0  0  0  0  0  0  0  0
   20.2050   74.7809   -5.2324 O   0  0  0  0  0  0  0  0  0  0  0  0
   22.4753   73.1324   -8.2649 O   0  0  0  0  0  0  0  0  0  0  0  0
   22.4841   71.9453   -5.5956 O   0  0  0  0  0  0  0  0  0  0  0  0
   22.0683   76.0083   -8.1452 O   0  0  0  0  0  0  0  0  0  0  0  0
   22.2429   73.8637   -7.0611 C   0  0  2  0  0  0  0  0  0  0  0  0
   21.5775   72.9527   -6.0292 C   0  0  2  0  0  0  0  0  0  0  0  0
   21.3301   75.0458   -7.3947 C   0  0  1  0  0  0  0  0  0  0  0  0
   21.1057   73.7542   -4.8152 C   0  0  1  0  0  0  0  0  0  0  0  0
   20.8009   75.7153   -6.1297 C   0  0  1  0  0  0  0  0  0  0  0  0
   23.0532   72.3760   -8.0775 H   0  0  0  0  0  0  0  0  0  0  0  0
   22.7877   71.4330   -6.3609 H   0  0  0  0  0  0  0  0  0  0  0  0
   22.4108   75.5949   -8.9530 H   0  0  0  0  0  0  0  0  0  0  0  0
   18.5585   76.2938   -5.7571 O   0  0  0  0  0  0  0  0  0  0  0  0
   19.7336   77.5792   -7.2289 O   0  0  0  0  0  0  0  0  0  0  0  0
   19.6713   76.6388   -6.4511 C   0  0  0  0  0  0  0  0  0  0  0  0
  1  4  1  0
  1 24  1  0
  1  2  1  1
  1  3  2  0
 25 28  1  0
 25 24  1  0
 25 26  1  6
 25 27  2  0
  6 11  1  0
  6 12  1  0
 29 36  1  0
 29 37  1  0
  9  7  1  1
  7 13  1  0
 10  8  1  1
  8 14  1  0
  4  5  1  0
 36 28  1  6
 33 30  1  6
 30 38  1  0
 34 31  1  1
 31 39  1  0
 35 32  1  1
 32 40  1  0
 41 43  1  0
 15 19  2  0
 42 43  2  0
 16 22  2  0
 12 17  1  6
 17 19  1  0
 17 20  1  0
 18 19  1  0
 18 22  1  0
 18 23  1  0
  9 10  1  0
  9 11  1  0
 10 12  1  0
 11  5  1  6
 33 34  1  0
 33 35  1  0
 34 36  1  0
 35 37  1  0
 37 43  1  6
 20 21  2  0
 21 22  1  0
M  CHG  3   2  -1  26  -1  41  -1
M  END
>  <COMPND>  (565) 
    udp_gluA.pdb 

>  <AUTHOR>  (565) 
    GENERATED BY OPEN BABEL 3.1.1

>  <MASTER>  (565) 
        0    0    0    0    0    0    0    0   56    0   56    0

>  <minimizedAffinity>  (565) 
-7.05697

>  <CNNscore>  (565) 
0.8505913019

>  <CNNaffinity>  (565) 
4.6205649376

>  <CNN_VS>  (565) 
3.9302122593

>  <CNNaffinity_variance>  (565) 
0.4680546820

$$$$
566
     RDKit          3D

 43 45  0  0  0  0  0  0  0  0999 V2000
   22.8452   72.6705   -4.1360 P   0  0  2  0  0  0  0  0  0  0  0  0
   23.1958   73.7238   -5.3135 O   0  0  0  0  0  0  0  0  0  0  0  0
   23.9700   71.7559   -3.7484 O   0  0  0  0  0  0  0  0  0  0  0  0
   21.4955   71.9438   -4.6539 O   0  0  0  0  0  0  0  0  0  0  0  0
   20.9223   70.9296   -3.8493 C   0  0  0  0  0  0  0  0  0  0  0  0
   18.9017   71.8174   -4.8016 O   0  0  0  0  0  0  0  0  0  0  0  0
   17.4692   70.5056   -2.5171 O   0  0  0  0  0  0  0  0  0  0  0  0
   17.0298   68.7682   -4.5724 O   0  0  0  0  0  0  0  0  0  0  0  0
   18.6107   70.0545   -3.2465 C   0  0  1  0  0  0  0  0  0  0  0  0
   18.1963   69.5631   -4.6172 C   0  0  2  0  0  0  0  0  0  0  0  0
   19.4609   71.2707   -3.5876 C   0  0  1  0  0  0  0  0  0  0  0  0
   17.9874   70.8662   -5.3696 C   0  0  2  0  0  0  0  0  0  0  0  0
   16.9107   69.7459   -2.2879 H   0  0  0  0  0  0  0  0  0  0  0  0
   17.2144   67.9504   -4.0835 H   0  0  0  0  0  0  0  0  0  0  0  0
   16.0714   70.1118   -7.3026 O   0  0  0  0  0  0  0  0  0  0  0  0
   19.1422   70.4071  -10.7271 O   0  0  0  0  0  0  0  0  0  0  0  0
   18.2591   70.7382   -6.7734 N   0  0  0  0  0  0  0  0  0  0  0  0
   17.6029   70.2586   -9.0062 N   0  0  0  0  0  0  0  0  0  0  0  0
   17.2260   70.3529   -7.6601 C   0  0  0  0  0  0  0  0  0  0  0  0
   19.5357   70.9944   -7.2589 C   0  0  0  0  0  0  0  0  0  0  0  0
   19.8798   70.9003   -8.5448 C   0  0  0  0  0  0  0  0  0  0  0  0
   18.8593   70.5027   -9.5367 C   0  0  0  0  0  0  0  0  0  0  0  0
   16.9011   69.9900   -9.6423 H   0  0  0  0  0  0  0  0  0  0  0  0
   22.3108   73.6230   -2.9444 O   0  0  0  0  0  0  0  0  0  0  0  0
   23.1107   74.5086   -1.8537 P   0  0  2  0  0  0  0  0  0  0  0  0
   22.3683   75.9452   -1.9276 O   0  0  0  0  0  0  0  0  0  0  0  0
   24.5942   74.5670   -2.0764 O   0  0  0  0  0  0  0  0  0  0  0  0
   22.6713   73.8961   -0.4274 O   0  0  0  0  0  0  0  0  0  0  0  0
   23.7046   73.5744    1.6792 O   0  0  0  0  0  0  0  0  0  0  0  0
   21.6624   70.0163    1.1924 O   0  0  0  0  0  0  0  0  0  0  0  0
   23.0971   71.2190   -1.0502 O   0  0  0  0  0  0  0  0  0  0  0  0
   20.6482   72.0437    3.0122 O   0  0  0  0  0  0  0  0  0  0  0  0
   21.8920   71.4176    1.0460 C   0  0  2  0  0  0  0  0  0  0  0  0
   23.2083   71.6457    0.3026 C   0  0  2  0  0  0  0  0  0  0  0  0
   21.9568   72.0349    2.4448 C   0  0  1  0  0  0  0  0  0  0  0  0
   23.6022   73.1232    0.3281 C   0  0  1  0  0  0  0  0  0  0  0  0
   22.4775   73.4685    2.3976 C   0  0  1  0  0  0  0  0  0  0  0  0
   21.6175   69.6025    0.3160 H   0  0  0  0  0  0  0  0  0  0  0  0
   22.8472   70.2824   -1.0739 H   0  0  0  0  0  0  0  0  0  0  0  0
   20.3051   71.1371    3.0479 H   0  0  0  0  0  0  0  0  0  0  0  0
   22.7482   72.9350    4.6655 O   0  0  0  0  0  0  0  0  0  0  0  0
   23.1941   75.0823    4.0417 O   0  0  0  0  0  0  0  0  0  0  0  0
   22.8471   73.9439    3.7649 C   0  0  0  0  0  0  0  0  0  0  0  0
  1  4  1  0
  1 24  1  0
  1  2  1  6
  1  3  2  0
 25 28  1  0
 25 24  1  0
 25 26  1  1
 25 27  2  0
  6 11  1  0
  6 12  1  0
 29 36  1  0
 29 37  1  0
  9  7  1  1
  7 13  1  0
 10  8  1  1
  8 14  1  0
  4  5  1  0
 36 28  1  6
 33 30  1  1
 30 38  1  0
 34 31  1  6
 31 39  1  0
 35 32  1  6
 32 40  1  0
 41 43  1  0
 15 19  2  0
 42 43  2  0
 16 22  2  0
 12 17  1  6
 17 19  1  0
 17 20  1  0
 18 19  1  0
 18 22  1  0
 18 23  1  0
  9 10  1  0
  9 11  1  0
 10 12  1  0
 11  5  1  6
 33 34  1  0
 33 35  1  0
 34 36  1  0
 35 37  1  0
 37 43  1  1
 20 21  2  0
 21 22  1  0
M  CHG  3   2  -1  26  -1  41  -1
M  END
>  <COMPND>  (566) 
    udp_gluA.pdb 

>  <AUTHOR>  (566) 
    GENERATED BY OPEN BABEL 3.1.1

>  <MASTER>  (566) 
        0    0    0    0    0    0    0    0   56    0   56    0

>  <minimizedAffinity>  (566) 
-7.93802

>  <CNNscore>  (566) 
0.8253070116

>  <CNNaffinity>  (566) 
4.6581144333

>  <CNN_VS>  (566) 
3.8443744183

>  <CNNaffinity_variance>  (566) 
0.0425665788

$$$$
567
     RDKit          3D

 43 45  0  0  0  0  0  0  0  0999 V2000
   22.4696   72.3245   -4.6623 P   0  0  2  0  0  0  0  0  0  0  0  0
   23.0749   72.3314   -6.1631 O   0  0  0  0  0  0  0  0  0  0  0  0
   23.1556   71.3928   -3.7067 O   0  0  0  0  0  0  0  0  0  0  0  0
   20.8877   72.0654   -4.8826 O   0  0  0  0  0  0  0  0  0  0  0  0
   20.1655   71.3905   -3.8690 C   0  0  0  0  0  0  0  0  0  0  0  0
   18.4113   72.3380   -5.2116 O   0  0  0  0  0  0  0  0  0  0  0  0
   16.5258   71.4050   -3.0748 O   0  0  0  0  0  0  0  0  0  0  0  0
   16.2304   69.5000   -5.0034 O   0  0  0  0  0  0  0  0  0  0  0  0
   17.7135   70.7834   -3.5663 C   0  0  1  0  0  0  0  0  0  0  0  0
   17.4639   70.1842   -4.9341 C   0  0  2  0  0  0  0  0  0  0  0  0
   18.7230   71.8798   -3.8781 C   0  0  1  0  0  0  0  0  0  0  0  0
   17.5027   71.4118   -5.8281 C   0  0  2  0  0  0  0  0  0  0  0  0
   15.8658   70.7242   -2.8685 H   0  0  0  0  0  0  0  0  0  0  0  0
   16.2561   68.7269   -4.4172 H   0  0  0  0  0  0  0  0  0  0  0  0
   15.8602   70.4645   -7.9212 O   0  0  0  0  0  0  0  0  0  0  0  0
   19.4010   70.2915  -10.8668 O   0  0  0  0  0  0  0  0  0  0  0  0
   17.9694   71.1111   -7.1520 N   0  0  0  0  0  0  0  0  0  0  0  0
   17.6255   70.3782   -9.3860 N   0  0  0  0  0  0  0  0  0  0  0  0
   17.0619   70.6404   -8.1303 C   0  0  0  0  0  0  0  0  0  0  0  0
   19.3108   71.2845   -7.4706 C   0  0  0  0  0  0  0  0  0  0  0  0
   19.8331   71.0304   -8.6720 C   0  0  0  0  0  0  0  0  0  0  0  0
   18.9530   70.5345   -9.7503 C   0  0  0  0  0  0  0  0  0  0  0  0
   17.0136   70.0476  -10.0829 H   0  0  0  0  0  0  0  0  0  0  0  0
   22.5271   73.8839   -4.2406 O   0  0  0  0  0  0  0  0  0  0  0  0
   23.7480   74.9435   -4.2572 P   0  0  2  0  0  0  0  0  0  0  0  0
   25.0232   74.0454   -3.8241 O   0  0  0  0  0  0  0  0  0  0  0  0
   23.5241   76.1544   -3.3984 O   0  0  0  0  0  0  0  0  0  0  0  0
   23.9888   75.2660   -5.8194 O   0  0  0  0  0  0  0  0  0  0  0  0
   23.8907   77.5223   -6.5325 O   0  0  0  0  0  0  0  0  0  0  0  0
   23.6273   75.4940  -10.1220 O   0  0  0  0  0  0  0  0  0  0  0  0
   22.1483   74.5609   -7.7819 O   0  0  0  0  0  0  0  0  0  0  0  0
   26.1148   76.7895   -9.3571 O   0  0  0  0  0  0  0  0  0  0  0  0
   24.0430   75.7070   -8.7730 C   0  0  2  0  0  0  0  0  0  0  0  0
   22.8142   75.8153   -7.8699 C   0  0  2  0  0  0  0  0  0  0  0  0
   24.8533   77.0044   -8.7272 C   0  0  1  0  0  0  0  0  0  0  0  0
   23.2071   76.2703   -6.4637 C   0  0  1  0  0  0  0  0  0  0  0  0
   25.0964   77.4589   -7.2909 C   0  0  1  0  0  0  0  0  0  0  0  0
   23.1104   74.6747  -10.1757 H   0  0  0  0  0  0  0  0  0  0  0  0
   21.8963   74.2661   -8.6706 H   0  0  0  0  0  0  0  0  0  0  0  0
   25.9741   76.4996  -10.2720 H   0  0  0  0  0  0  0  0  0  0  0  0
   25.1212   79.5130   -6.1588 O   0  0  0  0  0  0  0  0  0  0  0  0
   26.3145   79.3793   -8.0971 O   0  0  0  0  0  0  0  0  0  0  0  0
   25.5887   78.8692   -7.2569 C   0  0  0  0  0  0  0  0  0  0  0  0
  1  4  1  0
  1 24  1  0
  1  2  1  6
  1  3  2  0
 25 28  1  0
 25 24  1  0
 25 26  1  1
 25 27  2  0
  6 11  1  0
  6 12  1  0
 29 36  1  0
 29 37  1  0
  9  7  1  6
  7 13  1  0
 10  8  1  1
  8 14  1  0
  4  5  1  0
 36 28  1  6
 33 30  1  6
 30 38  1  0
 34 31  1  1
 31 39  1  0
 35 32  1  1
 32 40  1  0
 41 43  1  0
 15 19  2  0
 42 43  2  0
 16 22  2  0
 12 17  1  6
 17 19  1  0
 17 20  1  0
 18 19  1  0
 18 22  1  0
 18 23  1  0
  9 10  1  0
  9 11  1  0
 10 12  1  0
 11  5  1  6
 33 34  1  0
 33 35  1  0
 34 36  1  0
 35 37  1  0
 37 43  1  6
 20 21  2  0
 21 22  1  0
M  CHG  3   2  -1  26  -1  41  -1
M  END
>  <COMPND>  (567) 
    udp_gluA.pdb 

>  <AUTHOR>  (567) 
    GENERATED BY OPEN BABEL 3.1.1

>  <MASTER>  (567) 
        0    0    0    0    0    0    0    0   56    0   56    0

>  <minimizedAffinity>  (567) 
-6.71088

>  <CNNscore>  (567) 
0.8225407600

>  <CNNaffinity>  (567) 
4.7346701622

>  <CNN_VS>  (567) 
3.8944592476

>  <CNNaffinity_variance>  (567) 
0.1186417714

$$$$
568
     RDKit          3D

 43 45  0  0  0  0  0  0  0  0999 V2000
   20.0544   73.9803   -3.7530 P   0  0  2  0  0  0  0  0  0  0  0  0
   19.3651   75.1772   -2.9096 O   0  0  0  0  0  0  0  0  0  0  0  0
   20.9702   74.4273   -4.8545 O   0  0  0  0  0  0  0  0  0  0  0  0
   18.8062   73.0569   -4.2082 O   0  0  0  0  0  0  0  0  0  0  0  0
   18.5547   71.8604   -3.4944 C   0  0  0  0  0  0  0  0  0  0  0  0
   16.7830   71.6981   -5.1108 O   0  0  0  0  0  0  0  0  0  0  0  0
   15.4932   69.7547   -3.2263 O   0  0  0  0  0  0  0  0  0  0  0  0
   16.6141   68.1168   -5.0964 O   0  0  0  0  0  0  0  0  0  0  0  0
   16.8775   69.9475   -3.5179 C   0  0  1  0  0  0  0  0  0  0  0  0
   17.2102   69.3790   -4.8811 C   0  0  2  0  0  0  0  0  0  0  0  0
   17.1102   71.4373   -3.7286 C   0  0  1  0  0  0  0  0  0  0  0  0
   16.6647   70.4494   -5.8109 C   0  0  2  0  0  0  0  0  0  0  0  0
   15.3202   68.8100   -3.0877 H   0  0  0  0  0  0  0  0  0  0  0  0
   16.9949   67.4703   -4.4808 H   0  0  0  0  0  0  0  0  0  0  0  0
   15.4788   70.6719   -8.3645 O   0  0  0  0  0  0  0  0  0  0  0  0
   19.5814   70.7614  -10.4632 O   0  0  0  0  0  0  0  0  0  0  0  0
   17.3994   70.5327   -7.0414 N   0  0  0  0  0  0  0  0  0  0  0  0
   17.5232   70.7152   -9.4074 N   0  0  0  0  0  0  0  0  0  0  0  0
   16.7073   70.6418   -8.2707 C   0  0  0  0  0  0  0  0  0  0  0  0
   18.7886   70.5076   -7.0229 C   0  0  0  0  0  0  0  0  0  0  0  0
   19.5527   70.5786   -8.1146 C   0  0  0  0  0  0  0  0  0  0  0  0
   18.9082   70.6935   -9.4392 C   0  0  0  0  0  0  0  0  0  0  0  0
   17.0640   70.7896  -10.2751 H   0  0  0  0  0  0  0  0  0  0  0  0
   20.7652   73.0907   -2.6058 O   0  0  0  0  0  0  0  0  0  0  0  0
   22.2772   72.5321   -2.4802 P   0  0  2  0  0  0  0  0  0  0  0  0
   23.1802   73.8598   -2.6854 O   0  0  0  0  0  0  0  0  0  0  0  0
   22.6004   71.4121   -3.4261 O   0  0  0  0  0  0  0  0  0  0  0  0
   22.4480   72.1608   -0.9196 O   0  0  0  0  0  0  0  0  0  0  0  0
   22.3206   74.0620    0.4870 O   0  0  0  0  0  0  0  0  0  0  0  0
   23.4104   71.1084    3.1622 O   0  0  0  0  0  0  0  0  0  0  0  0
   24.6439   71.2392    0.5173 O   0  0  0  0  0  0  0  0  0  0  0  0
   20.6743   72.0889    3.1059 O   0  0  0  0  0  0  0  0  0  0  0  0
   22.7713   71.6472    2.0050 C   0  0  2  0  0  0  0  0  0  0  0  0
   23.8224   72.2572    1.0773 C   0  0  2  0  0  0  0  0  0  0  0  0
   21.7825   72.7199    2.4670 C   0  0  1  0  0  0  0  0  0  0  0  0
   23.1618   73.0435   -0.0559 C   0  0  1  0  0  0  0  0  0  0  0  0
   21.2639   73.5430    1.2914 C   0  0  1  0  0  0  0  0  0  0  0  0
   24.0436   70.4244    2.8932 H   0  0  0  0  0  0  0  0  0  0  0  0
   25.0660   70.7361    1.2307 H   0  0  0  0  0  0  0  0  0  0  0  0
   20.9907   71.5616    3.8560 H   0  0  0  0  0  0  0  0  0  0  0  0
   19.7645   75.2799    0.8054 O   0  0  0  0  0  0  0  0  0  0  0  0
   20.7057   75.2691    2.8822 O   0  0  0  0  0  0  0  0  0  0  0  0
   20.5713   74.7765    1.7721 C   0  0  0  0  0  0  0  0  0  0  0  0
  1  4  1  0
  1 24  1  0
  1  2  1  1
  1  3  2  0
 25 28  1  0
 25 24  1  0
 25 26  1  6
 25 27  2  0
  6 11  1  0
  6 12  1  0
 29 36  1  0
 29 37  1  0
  9  7  1  6
  7 13  1  0
 10  8  1  6
  8 14  1  0
  4  5  1  0
 36 28  1  1
 33 30  1  1
 30 38  1  0
 34 31  1  6
 31 39  1  0
 35 32  1  6
 32 40  1  0
 41 43  1  0
 15 19  2  0
 42 43  2  0
 16 22  2  0
 12 17  1  6
 17 19  1  0
 17 20  1  0
 18 19  1  0
 18 22  1  0
 18 23  1  0
  9 10  1  0
  9 11  1  0
 10 12  1  0
 11  5  1  6
 33 34  1  0
 33 35  1  0
 34 36  1  0
 35 37  1  0
 37 43  1  1
 20 21  2  0
 21 22  1  0
M  CHG  3   2  -1  26  -1  41  -1
M  END
>  <COMPND>  (568) 
    udp_gluA.pdb 

>  <AUTHOR>  (568) 
    GENERATED BY OPEN BABEL 3.1.1

>  <MASTER>  (568) 
        0    0    0    0    0    0    0    0   56    0   56    0

>  <minimizedAffinity>  (568) 
-6.69245

>  <CNNscore>  (568) 
0.8182250857

>  <CNNaffinity>  (568) 
4.5728178024

>  <CNN_VS>  (568) 
3.7415943146

>  <CNNaffinity_variance>  (568) 
0.0968110263

$$$$
569
     RDKit          3D

 43 45  0  0  0  0  0  0  0  0999 V2000
   20.5713   73.5489   -5.2461 P   0  0  2  0  0  0  0  0  0  0  0  0
   19.3930   73.9413   -4.2085 O   0  0  0  0  0  0  0  0  0  0  0  0
   21.0283   74.6661   -6.1376 O   0  0  0  0  0  0  0  0  0  0  0  0
   20.0030   72.2354   -6.0007 O   0  0  0  0  0  0  0  0  0  0  0  0
   19.8765   72.2672   -7.4105 C   0  0  0  0  0  0  0  0  0  0  0  0
   18.8066   70.2140   -6.7645 O   0  0  0  0  0  0  0  0  0  0  0  0
   18.2375   69.8100   -9.6808 O   0  0  0  0  0  0  0  0  0  0  0  0
   15.8497   70.7195   -8.7282 O   0  0  0  0  0  0  0  0  0  0  0  0
   18.2548   71.0197   -8.9226 C   0  0  1  0  0  0  0  0  0  0  0  0
   17.0239   71.1060   -8.0452 C   0  0  2  0  0  0  0  0  0  0  0  0
   19.3724   70.9135   -7.8940 C   0  0  1  0  0  0  0  0  0  0  0  0
   17.3786   70.1602   -6.9105 C   0  0  2  0  0  0  0  0  0  0  0  0
   17.5312   69.8543  -10.3448 H   0  0  0  0  0  0  0  0  0  0  0  0
   15.6667   71.3529   -9.4404 H   0  0  0  0  0  0  0  0  0  0  0  0
   16.6426   68.3477   -4.8734 O   0  0  0  0  0  0  0  0  0  0  0  0
   15.0414   71.7337   -2.1872 O   0  0  0  0  0  0  0  0  0  0  0  0
   16.7676   70.5411   -5.6685 N   0  0  0  0  0  0  0  0  0  0  0  0
   15.8449   70.0357   -3.5379 N   0  0  0  0  0  0  0  0  0  0  0  0
   16.4369   69.5521   -4.7120 C   0  0  0  0  0  0  0  0  0  0  0  0
   16.5038   71.8801   -5.4072 C   0  0  0  0  0  0  0  0  0  0  0  0
   15.9391   72.3258   -4.2833 C   0  0  0  0  0  0  0  0  0  0  0  0
   15.5621   71.3573   -3.2329 C   0  0  0  0  0  0  0  0  0  0  0  0
   15.6039   69.3657   -2.8579 H   0  0  0  0  0  0  0  0  0  0  0  0
   21.7188   72.9454   -4.2807 O   0  0  0  0  0  0  0  0  0  0  0  0
   23.1997   73.4876   -3.9249 P   0  0  2  0  0  0  0  0  0  0  0  0
   23.1803   75.0080   -4.4801 O   0  0  0  0  0  0  0  0  0  0  0  0
   24.3130   72.6430   -4.4737 O   0  0  0  0  0  0  0  0  0  0  0  0
   23.2046   73.6406   -2.3189 O   0  0  0  0  0  0  0  0  0  0  0  0
   21.4488   72.6378   -1.0858 O   0  0  0  0  0  0  0  0  0  0  0  0
   23.0779   75.2076    1.7089 O   0  0  0  0  0  0  0  0  0  0  0  0
   22.7091   76.0697   -1.0579 O   0  0  0  0  0  0  0  0  0  0  0  0
   23.6054   72.3533    1.8689 O   0  0  0  0  0  0  0  0  0  0  0  0
   23.0898   74.3264    0.5859 C   0  0  2  0  0  0  0  0  0  0  0  0
   22.1695   74.8749   -0.5048 C   0  0  2  0  0  0  0  0  0  0  0  0
   22.5997   72.9549    1.0558 C   0  0  1  0  0  0  0  0  0  0  0  0
   21.9767   73.8507   -1.6241 C   0  0  1  0  0  0  0  0  0  0  0  0
   22.3105   72.0322   -0.1247 C   0  0  1  0  0  0  0  0  0  0  0  0
   23.3856   76.0858    1.4343 H   0  0  0  0  0  0  0  0  0  0  0  0
   22.8343   76.7239   -0.3531 H   0  0  0  0  0  0  0  0  0  0  0  0
   23.7989   72.9307    2.6239 H   0  0  0  0  0  0  0  0  0  0  0  0
   20.4392   70.6601   -0.4667 O   0  0  0  0  0  0  0  0  0  0  0  0
   21.8347   70.1071    1.2497 O   0  0  0  0  0  0  0  0  0  0  0  0
   21.5328   70.8350    0.3159 C   0  0  0  0  0  0  0  0  0  0  0  0
  1  4  1  0
  1 24  1  0
  1  2  1  1
  1  3  2  0
 25 28  1  0
 25 24  1  0
 25 26  1  6
 25 27  2  0
  6 11  1  0
  6 12  1  0
 29 36  1  0
 29 37  1  0
  9  7  1  6
  7 13  1  0
 10  8  1  6
  8 14  1  0
  4  5  1  0
 36 28  1  1
 33 30  1  1
 30 38  1  0
 34 31  1  6
 31 39  1  0
 35 32  1  1
 32 40  1  0
 41 43  1  0
 15 19  2  0
 42 43  2  0
 16 22  2  0
 12 17  1  1
 17 19  1  0
 17 20  1  0
 18 19  1  0
 18 22  1  0
 18 23  1  0
  9 10  1  0
  9 11  1  0
 10 12  1  0
 11  5  1  1
 33 34  1  0
 33 35  1  0
 34 36  1  0
 35 37  1  0
 37 43  1  1
 20 21  2  0
 21 22  1  0
M  CHG  3   2  -1  26  -1  41  -1
M  END
>  <COMPND>  (569) 
    udp_gluA.pdb 

>  <AUTHOR>  (569) 
    GENERATED BY OPEN BABEL 3.1.1

>  <MASTER>  (569) 
        0    0    0    0    0    0    0    0   56    0   56    0

>  <minimizedAffinity>  (569) 
-7.11769

>  <CNNscore>  (569) 
0.6578291655

>  <CNNaffinity>  (569) 
4.3774118423

>  <CNN_VS>  (569) 
2.8795890808

>  <CNNaffinity_variance>  (569) 
0.2533017993

$$$$
570
     RDKit          3D

 43 45  0  0  0  0  0  0  0  0999 V2000
   20.6754   71.5677   -4.9398 P   0  0  2  0  0  0  0  0  0  0  0  0
   20.0406   70.1881   -4.3807 O   0  0  0  0  0  0  0  0  0  0  0  0
   19.8651   72.7986   -4.6565 O   0  0  0  0  0  0  0  0  0  0  0  0
   20.9611   71.2589   -6.5021 O   0  0  0  0  0  0  0  0  0  0  0  0
   20.0745   71.7903   -7.4695 C   0  0  0  0  0  0  0  0  0  0  0  0
   18.7041   69.8443   -7.1336 O   0  0  0  0  0  0  0  0  0  0  0  0
   17.9868   70.0774  -10.0358 O   0  0  0  0  0  0  0  0  0  0  0  0
   15.8103   71.1548   -8.7957 O   0  0  0  0  0  0  0  0  0  0  0  0
   18.2249   71.1092   -9.0781 C   0  0  1  0  0  0  0  0  0  0  0  0
   17.0524   71.2222   -8.1270 C   0  0  2  0  0  0  0  0  0  0  0  0
   19.3414   70.6435   -8.1536 C   0  0  1  0  0  0  0  0  0  0  0  0
   17.2827   70.0403   -7.2007 C   0  0  2  0  0  0  0  0  0  0  0  0
   17.2771   70.3520  -10.6379 H   0  0  0  0  0  0  0  0  0  0  0  0
   15.7112   71.9291   -9.3725 H   0  0  0  0  0  0  0  0  0  0  0  0
   16.4605   68.0069   -5.4214 O   0  0  0  0  0  0  0  0  0  0  0  0
   15.3741   71.0609   -2.1447 O   0  0  0  0  0  0  0  0  0  0  0  0
   16.7809   70.2760   -5.8765 N   0  0  0  0  0  0  0  0  0  0  0  0
   15.9192   69.5300   -3.7915 N   0  0  0  0  0  0  0  0  0  0  0  0
   16.3947   69.1844   -5.0633 C   0  0  0  0  0  0  0  0  0  0  0  0
   16.6769   71.5755   -5.3953 C   0  0  0  0  0  0  0  0  0  0  0  0
   16.2219   71.8892   -4.1806 C   0  0  0  0  0  0  0  0  0  0  0  0
   15.7968   70.8072   -3.2686 C   0  0  0  0  0  0  0  0  0  0  0  0
   15.6424   68.7869   -3.2079 H   0  0  0  0  0  0  0  0  0  0  0  0
   22.1570   71.5735   -4.2936 O   0  0  0  0  0  0  0  0  0  0  0  0
   23.0510   72.7823   -3.6991 P   0  0  2  0  0  0  0  0  0  0  0  0
   22.3019   74.1048   -4.2559 O   0  0  0  0  0  0  0  0  0  0  0  0
   24.5080   72.7020   -4.0522 O   0  0  0  0  0  0  0  0  0  0  0  0
   22.7447   72.7772   -2.1152 O   0  0  0  0  0  0  0  0  0  0  0  0
   23.0449   70.9736   -0.6099 O   0  0  0  0  0  0  0  0  0  0  0  0
   19.9881   73.0809    1.2020 O   0  0  0  0  0  0  0  0  0  0  0  0
   19.9975   72.6794   -1.6916 O   0  0  0  0  0  0  0  0  0  0  0  0
   22.6914   73.2315    2.2605 O   0  0  0  0  0  0  0  0  0  0  0  0
   21.1702   72.9139    0.4193 C   0  0  2  0  0  0  0  0  0  0  0  0
   20.8668   72.0165   -0.7808 C   0  0  2  0  0  0  0  0  0  0  0  0
   22.2386   72.2720    1.3072 C   0  0  1  0  0  0  0  0  0  0  0  0
   22.1524   71.6281   -1.5124 C   0  0  1  0  0  0  0  0  0  0  0  0
   23.4344   71.7983    0.4862 C   0  0  1  0  0  0  0  0  0  0  0  0
   19.2948   73.4873    0.6584 H   0  0  0  0  0  0  0  0  0  0  0  0
   19.1798   72.9289   -1.2340 H   0  0  0  0  0  0  0  0  0  0  0  0
   21.9397   73.5412    2.7896 H   0  0  0  0  0  0  0  0  0  0  0  0
   25.3174   70.4007    0.5348 O   0  0  0  0  0  0  0  0  0  0  0  0
   24.1419   70.6300    2.4751 O   0  0  0  0  0  0  0  0  0  0  0  0
   24.3071   70.8933    1.2934 C   0  0  0  0  0  0  0  0  0  0  0  0
  1  4  1  0
  1 24  1  0
  1  2  1  1
  1  3  2  0
 25 28  1  0
 25 24  1  0
 25 26  1  6
 25 27  2  0
  6 11  1  0
  6 12  1  0
 29 36  1  0
 29 37  1  0
  9  7  1  6
  7 13  1  0
 10  8  1  6
  8 14  1  0
  4  5  1  0
 36 28  1  1
 33 30  1  1
 30 38  1  0
 34 31  1  6
 31 39  1  0
 35 32  1  1
 32 40  1  0
 41 43  1  0
 15 19  2  0
 42 43  2  0
 16 22  2  0
 12 17  1  1
 17 19  1  0
 17 20  1  0
 18 19  1  0
 18 22  1  0
 18 23  1  0
  9 10  1  0
  9 11  1  0
 10 12  1  0
 11  5  1  1
 33 34  1  0
 33 35  1  0
 34 36  1  0
 35 37  1  0
 37 43  1  1
 20 21  2  0
 21 22  1  0
M  CHG  3   2  -1  26  -1  41  -1
M  END
>  <COMPND>  (570) 
    udp_gluA.pdb 

>  <AUTHOR>  (570) 
    GENERATED BY OPEN BABEL 3.1.1

>  <MASTER>  (570) 
        0    0    0    0    0    0    0    0   56    0   56    0

>  <minimizedAffinity>  (570) 
-7.75488

>  <CNNscore>  (570) 
0.6534932852

>  <CNNaffinity>  (570) 
4.3660726547

>  <CNN_VS>  (570) 
2.8531992435

>  <CNNaffinity_variance>  (570) 
0.3120480180

$$$$
571
     RDKit          3D

 43 45  0  0  0  0  0  0  0  0999 V2000
   21.6076   72.5682   -5.4199 P   0  0  2  0  0  0  0  0  0  0  0  0
   20.9825   73.9837   -5.8940 O   0  0  0  0  0  0  0  0  0  0  0  0
   23.1002   72.4645   -5.5352 O   0  0  0  0  0  0  0  0  0  0  0  0
   20.7605   71.4706   -6.2539 O   0  0  0  0  0  0  0  0  0  0  0  0
   19.9983   71.9062   -7.3647 C   0  0  0  0  0  0  0  0  0  0  0  0
   18.6602   69.9527   -6.9510 O   0  0  0  0  0  0  0  0  0  0  0  0
   18.0320   69.9901   -9.8827 O   0  0  0  0  0  0  0  0  0  0  0  0
   15.7938   71.0900   -8.7797 O   0  0  0  0  0  0  0  0  0  0  0  0
   18.2167   71.0842   -8.9841 C   0  0  1  0  0  0  0  0  0  0  0  0
   17.0119   71.2276   -8.0784 C   0  0  2  0  0  0  0  0  0  0  0  0
   19.3126   70.7026   -7.9985 C   0  0  1  0  0  0  0  0  0  0  0  0
   17.2378   70.1106   -7.0738 C   0  0  2  0  0  0  0  0  0  0  0  0
   17.3362   70.2105  -10.5223 H   0  0  0  0  0  0  0  0  0  0  0  0
   15.6966   71.8249   -9.4062 H   0  0  0  0  0  0  0  0  0  0  0  0
   16.5758   68.1762   -5.1254 O   0  0  0  0  0  0  0  0  0  0  0  0
   15.1368   71.3942   -2.1559 O   0  0  0  0  0  0  0  0  0  0  0  0
   16.6886   70.4153   -5.7829 N   0  0  0  0  0  0  0  0  0  0  0  0
   15.8588   69.7807   -3.6487 N   0  0  0  0  0  0  0  0  0  0  0  0
   16.3911   69.3693   -4.8777 C   0  0  0  0  0  0  0  0  0  0  0  0
   16.4517   71.7367   -5.4243 C   0  0  0  0  0  0  0  0  0  0  0  0
   15.9440   72.1134   -4.2491 C   0  0  0  0  0  0  0  0  0  0  0  0
   15.6048   71.0821   -3.2467 C   0  0  0  0  0  0  0  0  0  0  0  0
   15.6418   69.0701   -3.0027 H   0  0  0  0  0  0  0  0  0  0  0  0
   21.0352   72.4038   -3.9172 O   0  0  0  0  0  0  0  0  0  0  0  0
   20.4976   71.1026   -3.1226 P   0  0  2  0  0  0  0  0  0  0  0  0
   21.6776   70.0177   -3.3486 O   0  0  0  0  0  0  0  0  0  0  0  0
   19.1375   70.6359   -3.5541 O   0  0  0  0  0  0  0  0  0  0  0  0
   20.6049   71.5020   -1.5633 O   0  0  0  0  0  0  0  0  0  0  0  0
   20.8187   73.5917   -0.4695 O   0  0  0  0  0  0  0  0  0  0  0  0
   23.1145   71.1433    1.9394 O   0  0  0  0  0  0  0  0  0  0  0  0
   23.2579   70.9146   -0.9695 O   0  0  0  0  0  0  0  0  0  0  0  0
   20.4695   71.9801    2.8081 O   0  0  0  0  0  0  0  0  0  0  0  0
   22.0408   71.4659    1.0555 C   0  0  2  0  0  0  0  0  0  0  0  0
   22.6054   71.9699   -0.2729 C   0  0  2  0  0  0  0  0  0  0  0  0
   21.1919   72.5524    1.7195 C   0  0  1  0  0  0  0  0  0  0  0  0
   21.4959   72.5396   -1.1580 C   0  0  1  0  0  0  0  0  0  0  0  0
   20.1941   73.1581    0.7366 C   0  0  1  0  0  0  0  0  0  0  0  0
   23.6678   70.4546    1.5384 H   0  0  0  0  0  0  0  0  0  0  0  0
   23.9630   70.5483   -0.4136 H   0  0  0  0  0  0  0  0  0  0  0  0
   21.0930   71.5909    3.4410 H   0  0  0  0  0  0  0  0  0  0  0  0
   19.8273   75.4552    0.4362 O   0  0  0  0  0  0  0  0  0  0  0  0
   19.0135   74.5130    2.3465 O   0  0  0  0  0  0  0  0  0  0  0  0
   19.6094   74.4194    1.2839 C   0  0  0  0  0  0  0  0  0  0  0  0
  1  4  1  0
  1 24  1  0
  1  2  1  6
  1  3  2  0
 25 28  1  0
 25 24  1  0
 25 26  1  1
 25 27  2  0
  6 11  1  0
  6 12  1  0
 29 36  1  0
 29 37  1  0
  9  7  1  6
  7 13  1  0
 10  8  1  6
  8 14  1  0
  4  5  1  0
 36 28  1  1
 33 30  1  1
 30 38  1  0
 34 31  1  6
 31 39  1  0
 35 32  1  1
 32 40  1  0
 41 43  1  0
 15 19  2  0
 42 43  2  0
 16 22  2  0
 12 17  1  1
 17 19  1  0
 17 20  1  0
 18 19  1  0
 18 22  1  0
 18 23  1  0
  9 10  1  0
  9 11  1  0
 10 12  1  0
 11  5  1  1
 33 34  1  0
 33 35  1  0
 34 36  1  0
 35 37  1  0
 37 43  1  1
 20 21  2  0
 21 22  1  0
M  CHG  3   2  -1  26  -1  41  -1
M  END
>  <COMPND>  (571) 
    udp_gluA.pdb 

>  <AUTHOR>  (571) 
    GENERATED BY OPEN BABEL 3.1.1

>  <MASTER>  (571) 
        0    0    0    0    0    0    0    0   56    0   56    0

>  <minimizedAffinity>  (571) 
-7.24298

>  <CNNscore>  (571) 
0.6161266565

>  <CNNaffinity>  (571) 
4.4611139297

>  <CNN_VS>  (571) 
2.7486112118

>  <CNNaffinity_variance>  (571) 
0.2805177271

$$$$
572
     RDKit          3D

 43 45  0  0  0  0  0  0  0  0999 V2000
   21.9248   72.5394   -5.8812 P   0  0  2  0  0  0  0  0  0  0  0  0
   21.3307   73.9806   -5.4465 O   0  0  0  0  0  0  0  0  0  0  0  0
   23.0784   72.5926   -6.8394 O   0  0  0  0  0  0  0  0  0  0  0  0
   20.6253   71.7212   -6.3909 O   0  0  0  0  0  0  0  0  0  0  0  0
   20.0730   72.0474   -7.6531 C   0  0  0  0  0  0  0  0  0  0  0  0
   18.9355   69.9819   -7.1868 O   0  0  0  0  0  0  0  0  0  0  0  0
   18.1175   69.9969  -10.0716 O   0  0  0  0  0  0  0  0  0  0  0  0
   15.8702   70.8886   -8.8103 O   0  0  0  0  0  0  0  0  0  0  0  0
   18.2664   71.0930   -9.1689 C   0  0  1  0  0  0  0  0  0  0  0  0
   17.1151   71.1227   -8.1860 C   0  0  2  0  0  0  0  0  0  0  0  0
   19.4525   70.7964   -8.2614 C   0  0  1  0  0  0  0  0  0  0  0  0
   17.4999   70.0184   -7.2162 C   0  0  2  0  0  0  0  0  0  0  0  0
   17.3654   70.1636  -10.6618 H   0  0  0  0  0  0  0  0  0  0  0  0
   15.6704   71.6191   -9.4173 H   0  0  0  0  0  0  0  0  0  0  0  0
   16.2535   68.0704   -5.5950 O   0  0  0  0  0  0  0  0  0  0  0  0
   15.6660   71.0606   -2.1370 O   0  0  0  0  0  0  0  0  0  0  0  0
   17.0116   70.2608   -5.8881 N   0  0  0  0  0  0  0  0  0  0  0  0
   15.9612   69.5618   -3.8747 N   0  0  0  0  0  0  0  0  0  0  0  0
   16.4011   69.2135   -5.1585 C   0  0  0  0  0  0  0  0  0  0  0  0
   17.1411   71.5228   -5.3211 C   0  0  0  0  0  0  0  0  0  0  0  0
   16.7170   71.8396   -4.0962 C   0  0  0  0  0  0  0  0  0  0  0  0
   16.0670   70.8029   -3.2679 C   0  0  0  0  0  0  0  0  0  0  0  0
   15.5309   68.8497   -3.3482 H   0  0  0  0  0  0  0  0  0  0  0  0
   22.2598   71.8419   -4.4620 O   0  0  0  0  0  0  0  0  0  0  0  0
   23.4903   72.0601   -3.4364 P   0  0  2  0  0  0  0  0  0  0  0  0
   24.4467   73.1029   -4.2226 O   0  0  0  0  0  0  0  0  0  0  0  0
   24.1734   70.7912   -3.0154 O   0  0  0  0  0  0  0  0  0  0  0  0
   22.8639   72.9178   -2.2222 O   0  0  0  0  0  0  0  0  0  0  0  0
   21.3500   71.9282   -0.6931 O   0  0  0  0  0  0  0  0  0  0  0  0
   20.6235   75.9531   -0.1096 O   0  0  0  0  0  0  0  0  0  0  0  0
   20.9919   74.8905   -2.8058 O   0  0  0  0  0  0  0  0  0  0  0  0
   22.1677   74.4511    1.8424 O   0  0  0  0  0  0  0  0  0  0  0  0
   21.4097   74.8021   -0.4176 C   0  0  2  0  0  0  0  0  0  0  0  0
   20.8235   74.0937   -1.6390 C   0  0  2  0  0  0  0  0  0  0  0  0
   21.3855   73.8736    0.7987 C   0  0  1  0  0  0  0  0  0  0  0  0
   21.4958   72.7380   -1.8604 C   0  0  1  0  0  0  0  0  0  0  0  0
   21.9589   72.5000    0.4625 C   0  0  1  0  0  0  0  0  0  0  0  0
   20.6241   76.5578   -0.8684 H   0  0  0  0  0  0  0  0  0  0  0  0
   20.5679   75.7523   -2.6723 H   0  0  0  0  0  0  0  0  0  0  0  0
   21.8133   75.3260    2.0658 H   0  0  0  0  0  0  0  0  0  0  0  0
   21.5847   70.2552    1.0304 O   0  0  0  0  0  0  0  0  0  0  0  0
   21.4417   71.7908    2.7099 O   0  0  0  0  0  0  0  0  0  0  0  0
   21.6345   71.5126    1.5359 C   0  0  0  0  0  0  0  0  0  0  0  0
  1  4  1  0
  1 24  1  0
  1  2  1  1
  1  3  2  0
 25 28  1  0
 25 24  1  0
 25 26  1  6
 25 27  2  0
  6 11  1  0
  6 12  1  0
 29 36  1  0
 29 37  1  0
  9  7  1  6
  7 13  1  0
 10  8  1  6
  8 14  1  0
  4  5  1  0
 36 28  1  1
 33 30  1  1
 30 38  1  0
 34 31  1  6
 31 39  1  0
 35 32  1  1
 32 40  1  0
 41 43  1  0
 15 19  2  0
 42 43  2  0
 16 22  2  0
 12 17  1  1
 17 19  1  0
 17 20  1  0
 18 19  1  0
 18 22  1  0
 18 23  1  0
  9 10  1  0
  9 11  1  0
 10 12  1  0
 11  5  1  1
 33 34  1  0
 33 35  1  0
 34 36  1  0
 35 37  1  0
 37 43  1  1
 20 21  2  0
 21 22  1  0
M  CHG  3   2  -1  26  -1  41  -1
M  END
>  <COMPND>  (572) 
    udp_gluA.pdb 

>  <AUTHOR>  (572) 
    GENERATED BY OPEN BABEL 3.1.1

>  <MASTER>  (572) 
        0    0    0    0    0    0    0    0   56    0   56    0

>  <minimizedAffinity>  (572) 
-8.34988

>  <CNNscore>  (572) 
0.6110680699

>  <CNNaffinity>  (572) 
4.4210138321

>  <CNN_VS>  (572) 
2.7015404701

>  <CNNaffinity_variance>  (572) 
0.4008742273

$$$$
573
     RDKit          3D

 43 45  0  0  0  0  0  0  0  0999 V2000
   23.1730   73.4689   -4.1406 P   0  0  2  0  0  0  0  0  0  0  0  0
   24.1010   72.1434   -4.1117 O   0  0  0  0  0  0  0  0  0  0  0  0
   23.8055   74.6713   -4.7777 O   0  0  0  0  0  0  0  0  0  0  0  0
   22.7086   73.6518   -2.6015 O   0  0  0  0  0  0  0  0  0  0  0  0
   21.7826   74.6771   -2.2919 C   0  0  0  0  0  0  0  0  0  0  0  0
   20.9907   72.7874   -1.0351 O   0  0  0  0  0  0  0  0  0  0  0  0
   18.7466   74.5614   -0.1361 O   0  0  0  0  0  0  0  0  0  0  0  0
   20.4287   74.5945    2.0100 O   0  0  0  0  0  0  0  0  0  0  0  0
   20.1142   74.8891   -0.3831 C   0  0  1  0  0  0  0  0  0  0  0  0
   20.9893   74.3627    0.7346 C   0  0  2  0  0  0  0  0  0  0  0  0
   20.5871   74.0653   -1.5730 C   0  0  1  0  0  0  0  0  0  0  0  0
   21.0792   72.8846    0.3953 C   0  0  2  0  0  0  0  0  0  0  0  0
   18.4221   75.0756    0.6202 H   0  0  0  0  0  0  0  0  0  0  0  0
   20.3934   75.5496    2.1788 H   0  0  0  0  0  0  0  0  0  0  0  0
   21.4353   70.1360    0.9386 O   0  0  0  0  0  0  0  0  0  0  0  0
   25.8676   70.7428    2.0480 O   0  0  0  0  0  0  0  0  0  0  0  0
   22.3157   72.2973    0.8276 N   0  0  0  0  0  0  0  0  0  0  0  0
   23.6422   70.4410    1.4916 N   0  0  0  0  0  0  0  0  0  0  0  0
   22.3883   70.9058    1.0735 C   0  0  0  0  0  0  0  0  0  0  0  0
   23.4393   73.0961    1.0021 C   0  0  0  0  0  0  0  0  0  0  0  0
   24.6277   72.6386    1.4010 C   0  0  0  0  0  0  0  0  0  0  0  0
   24.7882   71.1965    1.6800 C   0  0  0  0  0  0  0  0  0  0  0  0
   23.7168   69.4758    1.6710 H   0  0  0  0  0  0  0  0  0  0  0  0
   21.8250   72.9523   -4.8679 O   0  0  0  0  0  0  0  0  0  0  0  0
   21.1300   73.4005   -6.2571 P   0  0  2  0  0  0  0  0  0  0  0  0
   22.1648   72.8616   -7.3791 O   0  0  0  0  0  0  0  0  0  0  0  0
   20.8274   74.8681   -6.3489 O   0  0  0  0  0  0  0  0  0  0  0  0
   19.8407   72.4410   -6.3979 O   0  0  0  0  0  0  0  0  0  0  0  0
   19.3909   70.2400   -5.6482 O   0  0  0  0  0  0  0  0  0  0  0  0
   17.4617   70.2946   -9.3010 O   0  0  0  0  0  0  0  0  0  0  0  0
   20.1041   71.5045   -9.0036 O   0  0  0  0  0  0  0  0  0  0  0  0
   15.9282   70.4777   -6.8381 O   0  0  0  0  0  0  0  0  0  0  0  0
   17.9589   70.8456   -8.0815 C   0  0  2  0  0  0  0  0  0  0  0  0
   19.4779   70.6804   -8.0272 C   0  0  2  0  0  0  0  0  0  0  0  0
   17.3002   70.0965   -6.9210 C   0  0  1  0  0  0  0  0  0  0  0  0
   20.0190   71.0474   -6.6446 C   0  0  1  0  0  0  0  0  0  0  0  0
   17.9776   70.4208   -5.5926 C   0  0  1  0  0  0  0  0  0  0  0  0
   17.8665   70.7552  -10.0529 H   0  0  0  0  0  0  0  0  0  0  0  0
   19.7652   71.2773   -9.8833 H   0  0  0  0  0  0  0  0  0  0  0  0
   15.4856   70.2767   -7.6775 H   0  0  0  0  0  0  0  0  0  0  0  0
   18.6129   69.1074   -3.7561 O   0  0  0  0  0  0  0  0  0  0  0  0
   16.4208   69.0332   -4.3792 O   0  0  0  0  0  0  0  0  0  0  0  0
   17.5572   69.4549   -4.5331 C   0  0  0  0  0  0  0  0  0  0  0  0
  1  4  1  0
  1 24  1  0
  1  2  1  1
  1  3  2  0
 25 28  1  0
 25 24  1  0
 25 26  1  6
 25 27  2  0
  6 11  1  0
  6 12  1  0
 29 36  1  0
 29 37  1  0
  9  7  1  1
  7 13  1  0
 10  8  1  1
  8 14  1  0
  4  5  1  0
 36 28  1  1
 33 30  1  6
 30 38  1  0
 34 31  1  6
 31 39  1  0
 35 32  1  1
 32 40  1  0
 41 43  1  0
 15 19  2  0
 42 43  2  0
 16 22  2  0
 12 17  1  6
 17 19  1  0
 17 20  1  0
 18 19  1  0
 18 22  1  0
 18 23  1  0
  9 10  1  0
  9 11  1  0
 10 12  1  0
 11  5  1  1
 33 34  1  0
 33 35  1  0
 34 36  1  0
 35 37  1  0
 37 43  1  1
 20 21  2  0
 21 22  1  0
M  CHG  3   2  -1  26  -1  41  -1
M  END
>  <COMPND>  (573) 
    udp_gluA.pdb 

>  <AUTHOR>  (573) 
    GENERATED BY OPEN BABEL 3.1.1

>  <MASTER>  (573) 
        0    0    0    0    0    0    0    0   56    0   56    0

>  <minimizedAffinity>  (573) 
-7.76887

>  <CNNscore>  (573) 
0.5978105664

>  <CNNaffinity>  (573) 
4.5151500702

>  <CNN_VS>  (573) 
2.6992044449

>  <CNNaffinity_variance>  (573) 
0.0653427169

$$$$
574
     RDKit          3D

 43 45  0  0  0  0  0  0  0  0999 V2000
   22.5227   72.7374   -4.3573 P   0  0  2  0  0  0  0  0  0  0  0  0
   24.0787   72.3016   -4.2687 O   0  0  0  0  0  0  0  0  0  0  0  0
   22.2460   74.1719   -4.0142 O   0  0  0  0  0  0  0  0  0  0  0  0
   21.7589   71.6378   -3.4488 O   0  0  0  0  0  0  0  0  0  0  0  0
   21.2909   72.0247   -2.1699 C   0  0  0  0  0  0  0  0  0  0  0  0
   23.2899   71.6562   -0.8869 O   0  0  0  0  0  0  0  0  0  0  0  0
   21.5848   70.0097    0.9497 O   0  0  0  0  0  0  0  0  0  0  0  0
   21.8062   72.3696    2.2980 O   0  0  0  0  0  0  0  0  0  0  0  0
   21.2550   71.2024    0.2374 C   0  0  1  0  0  0  0  0  0  0  0  0
   21.9108   72.4009    0.8899 C   0  0  2  0  0  0  0  0  0  0  0  0
   21.9558   71.1518   -1.1133 C   0  0  1  0  0  0  0  0  0  0  0  0
   23.3460   72.2767    0.4073 C   0  0  2  0  0  0  0  0  0  0  0  0
   21.1483   70.0192    1.8164 H   0  0  0  0  0  0  0  0  0  0  0  0
   20.8738   72.4522    2.5548 H   0  0  0  0  0  0  0  0  0  0  0  0
   24.7353   73.5637    2.5025 O   0  0  0  0  0  0  0  0  0  0  0  0
   25.7999   77.1646   -0.1703 O   0  0  0  0  0  0  0  0  0  0  0  0
   23.9956   73.5511    0.2864 N   0  0  0  0  0  0  0  0  0  0  0  0
   25.2634   75.3564    1.1696 N   0  0  0  0  0  0  0  0  0  0  0  0
   24.6662   74.1101    1.4000 C   0  0  0  0  0  0  0  0  0  0  0  0
   23.9662   74.2325   -0.9243 C   0  0  0  0  0  0  0  0  0  0  0  0
   24.5402   75.4197   -1.1287 C   0  0  0  0  0  0  0  0  0  0  0  0
   25.2605   76.0731   -0.0162 C   0  0  0  0  0  0  0  0  0  0  0  0
   25.7344   75.7665    1.9307 H   0  0  0  0  0  0  0  0  0  0  0  0
   22.1124   72.3138   -5.8623 O   0  0  0  0  0  0  0  0  0  0  0  0
   20.8531   72.7445   -6.7802 P   0  0  2  0  0  0  0  0  0  0  0  0
   21.1022   71.9287   -8.1560 O   0  0  0  0  0  0  0  0  0  0  0  0
   20.7002   74.2272   -6.9594 O   0  0  0  0  0  0  0  0  0  0  0  0
   19.5835   72.0179   -6.1001 O   0  0  0  0  0  0  0  0  0  0  0  0
   19.3034   69.9370   -5.0044 O   0  0  0  0  0  0  0  0  0  0  0  0
   15.7439   70.2838   -7.0726 O   0  0  0  0  0  0  0  0  0  0  0  0
   18.2708   71.0201   -8.3401 O   0  0  0  0  0  0  0  0  0  0  0  0
   15.8178   70.7584   -4.2055 O   0  0  0  0  0  0  0  0  0  0  0  0
   16.8900   70.7540   -6.3631 C   0  0  2  0  0  0  0  0  0  0  0  0
   18.1592   70.3284   -7.1017 C   0  0  2  0  0  0  0  0  0  0  0  0
   16.8608   70.1440   -4.9599 C   0  0  1  0  0  0  0  0  0  0  0  0
   19.4036   70.6118   -6.2590 C   0  0  1  0  0  0  0  0  0  0  0  0
   18.1834   70.3610   -4.2305 C   0  0  1  0  0  0  0  0  0  0  0  0
   15.7411   70.6584   -7.9675 H   0  0  0  0  0  0  0  0  0  0  0  0
   17.4844   70.8450   -8.8798 H   0  0  0  0  0  0  0  0  0  0  0  0
   14.9705   70.6277   -4.6591 H   0  0  0  0  0  0  0  0  0  0  0  0
   17.9086   68.2209   -3.3107 O   0  0  0  0  0  0  0  0  0  0  0  0
   18.6137   69.8736   -1.9070 O   0  0  0  0  0  0  0  0  0  0  0  0
   18.2676   69.4949   -3.0159 C   0  0  0  0  0  0  0  0  0  0  0  0
  1  4  1  0
  1 24  1  0
  1  2  1  6
  1  3  2  0
 25 28  1  0
 25 24  1  0
 25 26  1  6
 25 27  2  0
  6 11  1  0
  6 12  1  0
 29 36  1  0
 29 37  1  0
  9  7  1  1
  7 13  1  0
 10  8  1  1
  8 14  1  0
  4  5  1  0
 36 28  1  1
 33 30  1  6
 30 38  1  0
 34 31  1  6
 31 39  1  0
 35 32  1  1
 32 40  1  0
 41 43  1  0
 15 19  2  0
 42 43  2  0
 16 22  2  0
 12 17  1  6
 17 19  1  0
 17 20  1  0
 18 19  1  0
 18 22  1  0
 18 23  1  0
  9 10  1  0
  9 11  1  0
 10 12  1  0
 11  5  1  6
 33 34  1  0
 33 35  1  0
 34 36  1  0
 35 37  1  0
 37 43  1  1
 20 21  2  0
 21 22  1  0
M  CHG  3   2  -1  26  -1  41  -1
M  END
>  <COMPND>  (574) 
    udp_gluA.pdb 

>  <AUTHOR>  (574) 
    GENERATED BY OPEN BABEL 3.1.1

>  <MASTER>  (574) 
        0    0    0    0    0    0    0    0   56    0   56    0

>  <minimizedAffinity>  (574) 
-7.42196

>  <CNNscore>  (574) 
0.5882041454

>  <CNNaffinity>  (574) 
4.3117823601

>  <CNN_VS>  (574) 
2.5362081528

>  <CNNaffinity_variance>  (574) 
0.0642573833

$$$$
575
     RDKit          3D

 43 45  0  0  0  0  0  0  0  0999 V2000
   23.4395   72.2317   -3.5173 P   0  0  2  0  0  0  0  0  0  0  0  0
   24.0049   70.7476   -3.2062 O   0  0  0  0  0  0  0  0  0  0  0  0
   24.4593   73.2020   -4.0371 O   0  0  0  0  0  0  0  0  0  0  0  0
   22.6973   72.6603   -2.1450 O   0  0  0  0  0  0  0  0  0  0  0  0
   23.4653   72.7435   -0.9585 C   0  0  0  0  0  0  0  0  0  0  0  0
   24.4555   71.2448    0.6387 O   0  0  0  0  0  0  0  0  0  0  0  0
   21.6758   70.2368    1.1374 O   0  0  0  0  0  0  0  0  0  0  0  0
   22.0948   71.9020    3.2558 O   0  0  0  0  0  0  0  0  0  0  0  0
   22.1177   71.5633    0.8481 C   0  0  1  0  0  0  0  0  0  0  0  0
   22.7979   72.1651    2.0595 C   0  0  2  0  0  0  0  0  0  0  0  0
   23.2655   71.4694   -0.1479 C   0  0  1  0  0  0  0  0  0  0  0  0
   24.1602   71.4938    2.0222 C   0  0  2  0  0  0  0  0  0  0  0  0
   20.9425   70.2711    1.7720 H   0  0  0  0  0  0  0  0  0  0  0  0
   21.2348   72.3512    3.2308 H   0  0  0  0  0  0  0  0  0  0  0  0
   26.8301   70.6607    2.4148 O   0  0  0  0  0  0  0  0  0  0  0  0
   28.0406   74.7488    4.1658 O   0  0  0  0  0  0  0  0  0  0  0  0
   25.1937   72.3202    2.5788 N   0  0  0  0  0  0  0  0  0  0  0  0
   27.4302   72.6972    3.2875 N   0  0  0  0  0  0  0  0  0  0  0  0
   26.5024   71.8051    2.7339 C   0  0  0  0  0  0  0  0  0  0  0  0
   24.9074   73.6246    2.9626 C   0  0  0  0  0  0  0  0  0  0  0  0
   25.8023   74.4631    3.4887 C   0  0  0  0  0  0  0  0  0  0  0  0
   27.1927   74.0030    3.6851 C   0  0  0  0  0  0  0  0  0  0  0  0
   28.3476   72.3606    3.4071 H   0  0  0  0  0  0  0  0  0  0  0  0
   22.2069   71.9469   -4.5234 O   0  0  0  0  0  0  0  0  0  0  0  0
   21.5346   72.8713   -5.6667 P   0  0  2  0  0  0  0  0  0  0  0  0
   22.4587   72.5851   -6.9646 O   0  0  0  0  0  0  0  0  0  0  0  0
   21.4198   74.3219   -5.2971 O   0  0  0  0  0  0  0  0  0  0  0  0
   20.1296   72.1523   -6.0007 O   0  0  0  0  0  0  0  0  0  0  0  0
   19.3987   69.9762   -5.4181 O   0  0  0  0  0  0  0  0  0  0  0  0
   17.4138   70.6023   -8.9868 O   0  0  0  0  0  0  0  0  0  0  0  0
   20.2033   71.4147   -8.6815 O   0  0  0  0  0  0  0  0  0  0  0  0
   15.9757   70.7797   -6.4667 O   0  0  0  0  0  0  0  0  0  0  0  0
   18.0092   70.9750   -7.7440 C   0  0  2  0  0  0  0  0  0  0  0  0
   19.4919   70.6023   -7.7548 C   0  0  2  0  0  0  0  0  0  0  0  0
   17.2801   70.2253   -6.6267 C   0  0  1  0  0  0  0  0  0  0  0  0
   20.1092   70.7736   -6.3661 C   0  0  1  0  0  0  0  0  0  0  0  0
   18.0253   70.3407   -5.3001 C   0  0  1  0  0  0  0  0  0  0  0  0
   17.8611   71.0665   -9.7119 H   0  0  0  0  0  0  0  0  0  0  0  0
   19.8167   71.3112   -9.5648 H   0  0  0  0  0  0  0  0  0  0  0  0
   15.4909   70.7127   -7.3041 H   0  0  0  0  0  0  0  0  0  0  0  0
   16.5295   68.5870   -4.8654 O   0  0  0  0  0  0  0  0  0  0  0  0
   17.8877   69.2435   -3.1556 O   0  0  0  0  0  0  0  0  0  0  0  0
   17.5001   69.3535   -4.3092 C   0  0  0  0  0  0  0  0  0  0  0  0
  1  4  1  0
  1 24  1  0
  1  2  1  1
  1  3  2  0
 25 28  1  0
 25 24  1  0
 25 26  1  6
 25 27  2  0
  6 11  1  0
  6 12  1  0
 29 36  1  0
 29 37  1  0
  9  7  1  1
  7 13  1  0
 10  8  1  1
  8 14  1  0
  4  5  1  0
 36 28  1  1
 33 30  1  6
 30 38  1  0
 34 31  1  6
 31 39  1  0
 35 32  1  1
 32 40  1  0
 41 43  1  0
 15 19  2  0
 42 43  2  0
 16 22  2  0
 12 17  1  6
 17 19  1  0
 17 20  1  0
 18 19  1  0
 18 22  1  0
 18 23  1  0
  9 10  1  0
  9 11  1  0
 10 12  1  0
 11  5  1  1
 33 34  1  0
 33 35  1  0
 34 36  1  0
 35 37  1  0
 37 43  1  1
 20 21  2  0
 21 22  1  0
M  CHG  3   2  -1  26  -1  41  -1
M  END
>  <COMPND>  (575) 
    udp_gluA.pdb 

>  <AUTHOR>  (575) 
    GENERATED BY OPEN BABEL 3.1.1

>  <MASTER>  (575) 
        0    0    0    0    0    0    0    0   56    0   56    0

>  <minimizedAffinity>  (575) 
-8.24003

>  <CNNscore>  (575) 
0.5448591113

>  <CNNaffinity>  (575) 
4.4077248573

>  <CNN_VS>  (575) 
2.4015891552

>  <CNNaffinity_variance>  (575) 
0.1490963995

$$$$
576
     RDKit          3D

 43 45  0  0  0  0  0  0  0  0999 V2000
   22.7200   71.2791   -2.8247 P   0  0  2  0  0  0  0  0  0  0  0  0
   24.2692   70.8236   -2.9321 O   0  0  0  0  0  0  0  0  0  0  0  0
   21.7207   70.1759   -3.0151 O   0  0  0  0  0  0  0  0  0  0  0  0
   22.6062   72.5167   -3.8607 O   0  0  0  0  0  0  0  0  0  0  0  0
   21.3502   72.7873   -4.4554 C   0  0  0  0  0  0  0  0  0  0  0  0
   20.5403   70.8498   -5.6249 O   0  0  0  0  0  0  0  0  0  0  0  0
   20.9539   72.4262   -8.1419 O   0  0  0  0  0  0  0  0  0  0  0  0
   18.2647   72.6367   -7.7422 O   0  0  0  0  0  0  0  0  0  0  0  0
   20.5173   72.8722   -6.8578 C   0  0  1  0  0  0  0  0  0  0  0  0
   19.0873   72.4404   -6.6112 C   0  0  2  0  0  0  0  0  0  0  0  0
   21.2761   72.0796   -5.8022 C   0  0  1  0  0  0  0  0  0  0  0  0
   19.2575   70.9723   -6.2595 C   0  0  2  0  0  0  0  0  0  0  0  0
   20.4828   72.9184   -8.8329 H   0  0  0  0  0  0  0  0  0  0  0  0
   18.1874   73.5868   -7.9248 H   0  0  0  0  0  0  0  0  0  0  0  0
   16.8016   69.8379   -7.0709 O   0  0  0  0  0  0  0  0  0  0  0  0
   15.4427   69.2095   -2.7117 O   0  0  0  0  0  0  0  0  0  0  0  0
   18.2437   70.5038   -5.3575 N   0  0  0  0  0  0  0  0  0  0  0  0
   16.1267   69.5269   -4.8990 N   0  0  0  0  0  0  0  0  0  0  0  0
   17.0456   69.9506   -5.8681 C   0  0  0  0  0  0  0  0  0  0  0  0
   18.4415   70.5929   -3.9850 C   0  0  0  0  0  0  0  0  0  0  0  0
   17.5564   70.1847   -3.0736 C   0  0  0  0  0  0  0  0  0  0  0  0
   16.2783   69.5954   -3.5235 C   0  0  0  0  0  0  0  0  0  0  0  0
   15.2841   69.1402   -5.2303 H   0  0  0  0  0  0  0  0  0  0  0  0
   22.6544   72.0055   -1.3822 O   0  0  0  0  0  0  0  0  0  0  0  0
   22.4508   71.3999    0.1029 P   0  0  2  0  0  0  0  0  0  0  0  0
   23.8436   70.6228    0.3796 O   0  0  0  0  0  0  0  0  0  0  0  0
   21.2253   70.5466    0.2572 O   0  0  0  0  0  0  0  0  0  0  0  0
   22.5000   72.6836    1.0786 O   0  0  0  0  0  0  0  0  0  0  0  0
   24.0021   73.2835    2.8087 O   0  0  0  0  0  0  0  0  0  0  0  0
   20.4227   74.7542    4.2555 O   0  0  0  0  0  0  0  0  0  0  0  0
   20.5352   72.1339    2.9689 O   0  0  0  0  0  0  0  0  0  0  0  0
   22.4020   76.5685    3.1412 O   0  0  0  0  0  0  0  0  0  0  0  0
   21.3734   74.3927    3.2537 C   0  0  2  0  0  0  0  0  0  0  0  0
   21.6742   72.8968    3.3499 C   0  0  2  0  0  0  0  0  0  0  0  0
   22.6460   75.2081    3.4933 C   0  0  1  0  0  0  0  0  0  0  0  0
   22.8516   72.5167    2.4509 C   0  0  1  0  0  0  0  0  0  0  0  0
   23.8078   74.6874    2.6521 C   0  0  1  0  0  0  0  0  0  0  0  0
   19.6054   74.2485    4.1234 H   0  0  0  0  0  0  0  0  0  0  0  0
   19.7842   72.3702    3.5350 H   0  0  0  0  0  0  0  0  0  0  0  0
   21.6645   76.9120    3.6694 H   0  0  0  0  0  0  0  0  0  0  0  0
   24.9030   76.0987    4.1721 O   0  0  0  0  0  0  0  0  0  0  0  0
   26.1988   75.0110    2.6434 O   0  0  0  0  0  0  0  0  0  0  0  0
   25.1040   75.2602    3.1254 C   0  0  0  0  0  0  0  0  0  0  0  0
  1  4  1  0
  1 24  1  0
  1  2  1  6
  1  3  2  0
 25 28  1  0
 25 24  1  0
 25 26  1  1
 25 27  2  0
  6 11  1  0
  6 12  1  0
 29 36  1  0
 29 37  1  0
  9  7  1  6
  7 13  1  0
 10  8  1  6
  8 14  1  0
  4  5  1  0
 36 28  1  6
 33 30  1  1
 30 38  1  0
 34 31  1  6
 31 39  1  0
 35 32  1  6
 32 40  1  0
 41 43  1  0
 15 19  2  0
 42 43  2  0
 16 22  2  0
 12 17  1  1
 17 19  1  0
 17 20  1  0
 18 19  1  0
 18 22  1  0
 18 23  1  0
  9 10  1  0
  9 11  1  0
 10 12  1  0
 11  5  1  1
 33 34  1  0
 33 35  1  0
 34 36  1  0
 35 37  1  0
 37 43  1  1
 20 21  2  0
 21 22  1  0
M  CHG  3   2  -1  26  -1  41  -1
M  END
>  <COMPND>  (576) 
    udp_gluA.pdb 

>  <AUTHOR>  (576) 
    GENERATED BY OPEN BABEL 3.1.1

>  <MASTER>  (576) 
        0    0    0    0    0    0    0    0   56    0   56    0

>  <minimizedAffinity>  (576) 
-7.11906

>  <CNNscore>  (576) 
0.5123624802

>  <CNNaffinity>  (576) 
4.1303482056

>  <CNN_VS>  (576) 
2.1162354946

>  <CNNaffinity_variance>  (576) 
0.1899542511

$$$$
577
     RDKit          3D

 43 45  0  0  0  0  0  0  0  0999 V2000
   21.2062   73.6935   -2.2124 P   0  0  2  0  0  0  0  0  0  0  0  0
   22.5426   73.6978   -3.1251 O   0  0  0  0  0  0  0  0  0  0  0  0
   20.1633   74.6960   -2.6114 O   0  0  0  0  0  0  0  0  0  0  0  0
   21.7676   73.8276   -0.7008 O   0  0  0  0  0  0  0  0  0  0  0  0
   23.0856   73.3884   -0.4277 C   0  0  0  0  0  0  0  0  0  0  0  0
   24.3194   71.6576    0.6946 O   0  0  0  0  0  0  0  0  0  0  0  0
   21.6598   70.4126    1.3014 O   0  0  0  0  0  0  0  0  0  0  0  0
   22.2948   71.6376    3.6535 O   0  0  0  0  0  0  0  0  0  0  0  0
   22.0189   71.7932    1.2427 C   0  0  1  0  0  0  0  0  0  0  0  0
   22.8298   72.1762    2.4626 C   0  0  2  0  0  0  0  0  0  0  0  0
   23.0317   71.9677    0.1193 C   0  0  1  0  0  0  0  0  0  0  0  0
   24.1965   71.6053    2.1248 C   0  0  2  0  0  0  0  0  0  0  0  0
   21.0133   70.2762    2.0121 H   0  0  0  0  0  0  0  0  0  0  0  0
   21.4250   72.0327    3.8248 H   0  0  0  0  0  0  0  0  0  0  0  0
   26.8742   70.7210    2.2814 O   0  0  0  0  0  0  0  0  0  0  0  0
   28.2179   74.5850    4.4045 O   0  0  0  0  0  0  0  0  0  0  0  0
   25.2663   72.3602    2.7134 N   0  0  0  0  0  0  0  0  0  0  0  0
   27.5406   72.6459    3.3396 N   0  0  0  0  0  0  0  0  0  0  0  0
   26.5758   71.8248    2.7413 C   0  0  0  0  0  0  0  0  0  0  0  0
   25.0143   73.6157    3.2529 C   0  0  0  0  0  0  0  0  0  0  0  0
   25.9444   74.3867    3.8198 C   0  0  0  0  0  0  0  0  0  0  0  0
   27.3381   73.9010    3.8904 C   0  0  0  0  0  0  0  0  0  0  0  0
   28.4594   72.2937    3.3726 H   0  0  0  0  0  0  0  0  0  0  0  0
   20.7221   72.1530   -2.2849 O   0  0  0  0  0  0  0  0  0  0  0  0
   19.2464   71.5101   -2.4358 P   0  0  2  0  0  0  0  0  0  0  0  0
   18.2917   72.6033   -1.7190 O   0  0  0  0  0  0  0  0  0  0  0  0
   19.1204   70.1207   -1.8813 O   0  0  0  0  0  0  0  0  0  0  0  0
   18.9031   71.6376   -4.0069 O   0  0  0  0  0  0  0  0  0  0  0  0
   18.2147   70.0265   -5.6006 O   0  0  0  0  0  0  0  0  0  0  0  0
   20.5717   72.5254   -7.8957 O   0  0  0  0  0  0  0  0  0  0  0  0
   21.4105   71.7576   -5.2047 O   0  0  0  0  0  0  0  0  0  0  0  0
   17.6752   72.6497   -8.1086 O   0  0  0  0  0  0  0  0  0  0  0  0
   19.6712   72.1900   -6.8400 C   0  0  2  0  0  0  0  0  0  0  0  0
   20.3276   71.1662   -5.9134 C   0  0  2  0  0  0  0  0  0  0  0  0
   18.4041   71.6047   -7.4673 C   0  0  1  0  0  0  0  0  0  0  0  0
   19.3176   70.6120   -4.9076 C   0  0  1  0  0  0  0  0  0  0  0  0
   17.5076   70.9600   -6.4141 C   0  0  1  0  0  0  0  0  0  0  0  0
   21.3847   72.8994   -7.5209 H   0  0  0  0  0  0  0  0  0  0  0  0
   22.0551   72.1116   -5.8368 H   0  0  0  0  0  0  0  0  0  0  0  0
   18.2346   73.0684   -8.7813 H   0  0  0  0  0  0  0  0  0  0  0  0
   16.2127   69.0068   -6.3154 O   0  0  0  0  0  0  0  0  0  0  0  0
   15.8876   70.3810   -8.1057 O   0  0  0  0  0  0  0  0  0  0  0  0
   16.4563   70.1155   -7.0573 C   0  0  0  0  0  0  0  0  0  0  0  0
  1  4  1  0
  1 24  1  0
  1  2  1  6
  1  3  2  0
 25 28  1  0
 25 24  1  0
 25 26  1  1
 25 27  2  0
  6 11  1  0
  6 12  1  0
 29 36  1  0
 29 37  1  0
  9  7  1  1
  7 13  1  0
 10  8  1  1
  8 14  1  0
  4  5  1  0
 36 28  1  1
 33 30  1  6
 30 38  1  0
 34 31  1  1
 31 39  1  0
 35 32  1  1
 32 40  1  0
 41 43  1  0
 15 19  2  0
 42 43  2  0
 16 22  2  0
 12 17  1  1
 17 19  1  0
 17 20  1  0
 18 19  1  0
 18 22  1  0
 18 23  1  0
  9 10  1  0
  9 11  1  0
 10 12  1  0
 11  5  1  1
 33 34  1  0
 33 35  1  0
 34 36  1  0
 35 37  1  0
 37 43  1  6
 20 21  2  0
 21 22  1  0
M  CHG  3   2  -1  26  -1  41  -1
M  END
>  <COMPND>  (577) 
    udp_gluA.pdb 

>  <AUTHOR>  (577) 
    GENERATED BY OPEN BABEL 3.1.1

>  <MASTER>  (577) 
        0    0    0    0    0    0    0    0   56    0   56    0

>  <minimizedAffinity>  (577) 
-7.00675

>  <CNNscore>  (577) 
0.5120860338

>  <CNNaffinity>  (577) 
4.1934623718

>  <CNN_VS>  (577) 
2.1474134922

>  <CNNaffinity_variance>  (577) 
0.1222518682

$$$$
578
     RDKit          3D

 43 45  0  0  0  0  0  0  0  0999 V2000
   22.6503   73.5582   -4.4420 P   0  0  2  0  0  0  0  0  0  0  0  0
   23.6773   72.3524   -4.7738 O   0  0  0  0  0  0  0  0  0  0  0  0
   23.0655   74.9044   -4.9590 O   0  0  0  0  0  0  0  0  0  0  0  0
   22.4351   73.4560   -2.8417 O   0  0  0  0  0  0  0  0  0  0  0  0
   23.4524   72.8577   -2.0595 C   0  0  0  0  0  0  0  0  0  0  0  0
   21.7318   73.4670   -0.4956 O   0  0  0  0  0  0  0  0  0  0  0  0
   23.3427   71.9989    1.5638 O   0  0  0  0  0  0  0  0  0  0  0  0
   21.3869   70.2021    0.9451 O   0  0  0  0  0  0  0  0  0  0  0  0
   23.1488   71.6942    0.1824 C   0  0  1  0  0  0  0  0  0  0  0  0
   21.7572   71.1417   -0.0422 C   0  0  2  0  0  0  0  0  0  0  0  0
   23.0979   73.0078   -0.5857 C   0  0  1  0  0  0  0  0  0  0  0  0
   20.9075   72.4003    0.0004 C   0  0  2  0  0  0  0  0  0  0  0  0
   23.3785   71.1748    2.0751 H   0  0  0  0  0  0  0  0  0  0  0  0
   21.9566   69.4194    0.8763 H   0  0  0  0  0  0  0  0  0  0  0  0
   20.6379   70.6284   -2.1823 O   0  0  0  0  0  0  0  0  0  0  0  0
   16.3590   72.0902   -3.0757 O   0  0  0  0  0  0  0  0  0  0  0  0
   19.7338   72.2971   -0.8197 N   0  0  0  0  0  0  0  0  0  0  0  0
   18.5074   71.3588   -2.6258 N   0  0  0  0  0  0  0  0  0  0  0  0
   19.7009   71.3746   -1.8921 C   0  0  0  0  0  0  0  0  0  0  0  0
   18.6318   73.1021   -0.5579 C   0  0  0  0  0  0  0  0  0  0  0  0
   17.5010   73.0756   -1.2661 C   0  0  0  0  0  0  0  0  0  0  0  0
   17.3850   72.1403   -2.4041 C   0  0  0  0  0  0  0  0  0  0  0  0
   18.4616   70.7261   -3.3787 H   0  0  0  0  0  0  0  0  0  0  0  0
   21.2478   73.0133   -5.0328 O   0  0  0  0  0  0  0  0  0  0  0  0
   19.8159   73.7425   -5.2104 P   0  0  2  0  0  0  0  0  0  0  0  0
   20.0292   74.6608   -6.5263 O   0  0  0  0  0  0  0  0  0  0  0  0
   19.3548   74.4976   -3.9975 O   0  0  0  0  0  0  0  0  0  0  0  0
   18.8163   72.5704   -5.6895 O   0  0  0  0  0  0  0  0  0  0  0  0
   18.6279   70.2220   -5.4476 O   0  0  0  0  0  0  0  0  0  0  0  0
   17.9052   70.7119   -9.4856 O   0  0  0  0  0  0  0  0  0  0  0  0
   20.0303   72.2224   -8.1676 O   0  0  0  0  0  0  0  0  0  0  0  0
   15.7052   70.1675   -7.6650 O   0  0  0  0  0  0  0  0  0  0  0  0
   17.8922   71.0774   -8.1057 C   0  0  2  0  0  0  0  0  0  0  0  0
   19.3260   71.1355   -7.5781 C   0  0  2  0  0  0  0  0  0  0  0  0
   17.0874   70.0216   -7.3444 C   0  0  1  0  0  0  0  0  0  0  0  0
   19.3434   71.2970   -6.0575 C   0  0  1  0  0  0  0  0  0  0  0  0
   17.2567   70.1731   -5.8355 C   0  0  1  0  0  0  0  0  0  0  0  0
   18.4113   71.3686   -9.9895 H   0  0  0  0  0  0  0  0  0  0  0  0
   20.0230   72.1265   -9.1326 H   0  0  0  0  0  0  0  0  0  0  0  0
   15.5838   70.0734   -8.6228 H   0  0  0  0  0  0  0  0  0  0  0  0
   17.3492   68.8346   -3.9115 O   0  0  0  0  0  0  0  0  0  0  0  0
   15.9070   68.1926   -5.5568 O   0  0  0  0  0  0  0  0  0  0  0  0
   16.7488   68.9634   -5.1206 C   0  0  0  0  0  0  0  0  0  0  0  0
  1  4  1  0
  1 24  1  0
  1  2  1  6
  1  3  2  0
 25 28  1  0
 25 24  1  0
 25 26  1  6
 25 27  2  0
  6 11  1  0
  6 12  1  0
 29 36  1  0
 29 37  1  0
  9  7  1  1
  7 13  1  0
 10  8  1  1
  8 14  1  0
  4  5  1  0
 36 28  1  6
 33 30  1  6
 30 38  1  0
 34 31  1  6
 31 39  1  0
 35 32  1  1
 32 40  1  0
 41 43  1  0
 15 19  2  0
 42 43  2  0
 16 22  2  0
 12 17  1  6
 17 19  1  0
 17 20  1  0
 18 19  1  0
 18 22  1  0
 18 23  1  0
  9 10  1  0
  9 11  1  0
 10 12  1  0
 11  5  1  6
 33 34  1  0
 33 35  1  0
 34 36  1  0
 35 37  1  0
 37 43  1  1
 20 21  2  0
 21 22  1  0
M  CHG  3   2  -1  26  -1  41  -1
M  END
>  <COMPND>  (578) 
    udp_gluA.pdb 

>  <AUTHOR>  (578) 
    GENERATED BY OPEN BABEL 3.1.1

>  <MASTER>  (578) 
        0    0    0    0    0    0    0    0   56    0   56    0

>  <minimizedAffinity>  (578) 
-7.10816

>  <CNNscore>  (578) 
0.4743460417

>  <CNNaffinity>  (578) 
3.9974510670

>  <CNN_VS>  (578) 
1.8961751461

>  <CNNaffinity_variance>  (578) 
0.7707801461

$$$$
579
     RDKit          3D

 43 45  0  0  0  0  0  0  0  0999 V2000
   23.5286   72.2976   -3.2600 P   0  0  2  0  0  0  0  0  0  0  0  0
   24.1651   70.8245   -3.0511 O   0  0  0  0  0  0  0  0  0  0  0  0
   24.5047   73.3549   -3.6858 O   0  0  0  0  0  0  0  0  0  0  0  0
   22.7448   72.5824   -1.8734 O   0  0  0  0  0  0  0  0  0  0  0  0
   23.5026   72.7323   -0.6869 C   0  0  0  0  0  0  0  0  0  0  0  0
   24.0262   71.7069    1.4231 O   0  0  0  0  0  0  0  0  0  0  0  0
   21.5240   70.0970    1.0505 O   0  0  0  0  0  0  0  0  0  0  0  0
   20.7332   72.0303    2.8036 O   0  0  0  0  0  0  0  0  0  0  0  0
   21.7880   71.4531    0.6902 C   0  0  1  0  0  0  0  0  0  0  0  0
   21.7961   72.3311    1.9237 C   0  0  2  0  0  0  0  0  0  0  0  0
   23.2354   71.5426    0.2261 C   0  0  1  0  0  0  0  0  0  0  0  0
   23.1571   72.0206    2.5229 C   0  0  2  0  0  0  0  0  0  0  0  0
   20.6048   70.0150    1.3505 H   0  0  0  0  0  0  0  0  0  0  0  0
   19.8888   72.2456    2.3762 H   0  0  0  0  0  0  0  0  0  0  0  0
   22.5392   72.6324    5.2100 O   0  0  0  0  0  0  0  0  0  0  0  0
   25.3131   76.3133    5.2009 O   0  0  0  0  0  0  0  0  0  0  0  0
   23.7036   73.1330    3.2473 N   0  0  0  0  0  0  0  0  0  0  0  0
   23.9206   74.4657    5.2026 N   0  0  0  0  0  0  0  0  0  0  0  0
   23.3277   73.3517    4.5938 C   0  0  0  0  0  0  0  0  0  0  0  0
   24.6019   73.9917    2.6255 C   0  0  0  0  0  0  0  0  0  0  0  0
   25.1587   75.0493    3.2188 C   0  0  0  0  0  0  0  0  0  0  0  0
   24.8185   75.3489    4.6252 C   0  0  0  0  0  0  0  0  0  0  0  0
   23.6726   74.6396    6.1394 H   0  0  0  0  0  0  0  0  0  0  0  0
   22.3275   72.0288   -4.3077 O   0  0  0  0  0  0  0  0  0  0  0  0
   21.8124   72.8896   -5.5756 P   0  0  2  0  0  0  0  0  0  0  0  0
   22.8039   72.4228   -6.7670 O   0  0  0  0  0  0  0  0  0  0  0  0
   21.7818   74.3723   -5.3417 O   0  0  0  0  0  0  0  0  0  0  0  0
   20.3847   72.2424   -5.9569 O   0  0  0  0  0  0  0  0  0  0  0  0
   19.5914   70.0554   -5.5129 O   0  0  0  0  0  0  0  0  0  0  0  0
   17.5981   70.9787   -9.0118 O   0  0  0  0  0  0  0  0  0  0  0  0
   20.4138   71.6836   -8.6814 O   0  0  0  0  0  0  0  0  0  0  0  0
   16.1866   71.0310   -6.4710 O   0  0  0  0  0  0  0  0  0  0  0  0
   18.2148   71.2492   -7.7531 C   0  0  2  0  0  0  0  0  0  0  0  0
   19.6851   70.8332   -7.8036 C   0  0  2  0  0  0  0  0  0  0  0  0
   17.4719   70.4491   -6.6808 C   0  0  1  0  0  0  0  0  0  0  0  0
   20.3186   70.8924   -6.4130 C   0  0  1  0  0  0  0  0  0  0  0  0
   18.2309   70.4528   -5.3570 C   0  0  1  0  0  0  0  0  0  0  0  0
   18.0537   71.4765   -9.7089 H   0  0  0  0  0  0  0  0  0  0  0  0
   20.0171   71.6511   -9.5657 H   0  0  0  0  0  0  0  0  0  0  0  0
   15.6932   71.0349   -7.3061 H   0  0  0  0  0  0  0  0  0  0  0  0
   18.6369   69.0035   -3.5581 O   0  0  0  0  0  0  0  0  0  0  0  0
   16.5356   68.9994   -4.4434 O   0  0  0  0  0  0  0  0  0  0  0  0
   17.6834   69.4181   -4.4287 C   0  0  0  0  0  0  0  0  0  0  0  0
  1  4  1  0
  1 24  1  0
  1  2  1  1
  1  3  2  0
 25 28  1  0
 25 24  1  0
 25 26  1  6
 25 27  2  0
  6 11  1  0
  6 12  1  0
 29 36  1  0
 29 37  1  0
  9  7  1  1
  7 13  1  0
 10  8  1  1
  8 14  1  0
  4  5  1  0
 36 28  1  1
 33 30  1  6
 30 38  1  0
 34 31  1  6
 31 39  1  0
 35 32  1  1
 32 40  1  0
 41 43  1  0
 15 19  2  0
 42 43  2  0
 16 22  2  0
 12 17  1  6
 17 19  1  0
 17 20  1  0
 18 19  1  0
 18 22  1  0
 18 23  1  0
  9 10  1  0
  9 11  1  0
 10 12  1  0
 11  5  1  6
 33 34  1  0
 33 35  1  0
 34 36  1  0
 35 37  1  0
 37 43  1  1
 20 21  2  0
 21 22  1  0
M  CHG  3   2  -1  26  -1  41  -1
M  END
>  <COMPND>  (579) 
    udp_gluA.pdb 

>  <AUTHOR>  (579) 
    GENERATED BY OPEN BABEL 3.1.1

>  <MASTER>  (579) 
        0    0    0    0    0    0    0    0   56    0   56    0

>  <minimizedAffinity>  (579) 
-8.00440

>  <CNNscore>  (579) 
0.4605685174

>  <CNNaffinity>  (579) 
4.0996236801

>  <CNN_VS>  (579) 
1.8881576061

>  <CNNaffinity_variance>  (579) 
0.2068004161

$$$$
580
     RDKit          3D

 43 45  0  0  0  0  0  0  0  0999 V2000
   15.1079   74.4767   -6.2971 P   0  0  2  0  0  0  0  0  0  0  0  0
   13.7503   74.5882   -5.4234 O   0  0  0  0  0  0  0  0  0  0  0  0
   15.3051   75.5718   -7.3040 O   0  0  0  0  0  0  0  0  0  0  0  0
   15.0637   72.9734   -6.8936 O   0  0  0  0  0  0  0  0  0  0  0  0
   15.9125   72.6519   -7.9802 C   0  0  0  0  0  0  0  0  0  0  0  0
   17.6101   70.9862   -8.3287 O   0  0  0  0  0  0  0  0  0  0  0  0
   15.8922   69.1589   -6.6852 O   0  0  0  0  0  0  0  0  0  0  0  0
   17.7992   69.9473   -4.9025 O   0  0  0  0  0  0  0  0  0  0  0  0
   16.1129   70.5623   -6.5428 C   0  0  1  0  0  0  0  0  0  0  0  0
   17.4897   70.8207   -5.9683 C   0  0  2  0  0  0  0  0  0  0  0  0
   16.2315   71.1630   -7.9368 C   0  0  1  0  0  0  0  0  0  0  0  0
   18.3821   70.6054   -7.1788 C   0  0  2  0  0  0  0  0  0  0  0  0
   15.8132   68.7530   -5.8073 H   0  0  0  0  0  0  0  0  0  0  0  0
   17.2041   70.1241   -4.1564 H   0  0  0  0  0  0  0  0  0  0  0  0
   20.9663   69.6562   -7.8091 O   0  0  0  0  0  0  0  0  0  0  0  0
   22.8805   73.7618   -6.9586 O   0  0  0  0  0  0  0  0  0  0  0  0
   19.5734   71.4049   -7.1305 N   0  0  0  0  0  0  0  0  0  0  0  0
   21.9173   71.7017   -7.3839 N   0  0  0  0  0  0  0  0  0  0  0  0
   20.8225   70.8312   -7.4664 C   0  0  0  0  0  0  0  0  0  0  0  0
   19.4975   72.7408   -6.7556 C   0  0  0  0  0  0  0  0  0  0  0  0
   20.5498   73.5580   -6.6818 C   0  0  0  0  0  0  0  0  0  0  0  0
   21.8917   73.0371   -7.0157 C   0  0  0  0  0  0  0  0  0  0  0  0
   22.7979   71.3245   -7.6111 H   0  0  0  0  0  0  0  0  0  0  0  0
   16.2602   74.3856   -5.1671 O   0  0  0  0  0  0  0  0  0  0  0  0
   16.2031   73.8853   -3.6309 P   0  0  2  0  0  0  0  0  0  0  0  0
   15.4586   72.4518   -3.7362 O   0  0  0  0  0  0  0  0  0  0  0  0
   15.5470   74.8552   -2.6913 O   0  0  0  0  0  0  0  0  0  0  0  0
   17.7312   73.5242   -3.2609 O   0  0  0  0  0  0  0  0  0  0  0  0
   18.9593   71.5162   -2.9990 O   0  0  0  0  0  0  0  0  0  0  0  0
   20.4256   73.8099    0.1086 O   0  0  0  0  0  0  0  0  0  0  0  0
   17.5678   73.7902   -0.4971 O   0  0  0  0  0  0  0  0  0  0  0  0
   22.0205   73.4102   -2.2888 O   0  0  0  0  0  0  0  0  0  0  0  0
   19.8825   73.5684   -1.1893 C   0  0  2  0  0  0  0  0  0  0  0  0
   18.5185   72.8907   -1.0554 C   0  0  2  0  0  0  0  0  0  0  0  0
   20.8549   72.6622   -1.9478 C   0  0  1  0  0  0  0  0  0  0  0  0
   18.0106   72.4099   -2.4154 C   0  0  1  0  0  0  0  0  0  0  0  0
   20.2286   72.1231   -3.2306 C   0  0  1  0  0  0  0  0  0  0  0  0
   19.8245   74.3838    0.6092 H   0  0  0  0  0  0  0  0  0  0  0  0
   17.8838   74.0994    0.3659 H   0  0  0  0  0  0  0  0  0  0  0  0
   22.4286   73.7591   -1.4810 H   0  0  0  0  0  0  0  0  0  0  0  0
   22.2902   71.4228   -4.1030 O   0  0  0  0  0  0  0  0  0  0  0  0
   20.6445   69.8534   -3.9354 O   0  0  0  0  0  0  0  0  0  0  0  0
   21.0415   70.9993   -3.7862 C   0  0  0  0  0  0  0  0  0  0  0  0
  1  4  1  0
  1 24  1  0
  1  2  1  1
  1  3  2  0
 25 28  1  0
 25 24  1  0
 25 26  1  6
 25 27  2  0
  6 11  1  0
  6 12  1  0
 29 36  1  0
 29 37  1  0
  9  7  1  6
  7 13  1  0
 10  8  1  1
  8 14  1  0
  4  5  1  0
 36 28  1  6
 33 30  1  1
 30 38  1  0
 34 31  1  6
 31 39  1  0
 35 32  1  6
 32 40  1  0
 41 43  1  0
 15 19  2  0
 42 43  2  0
 16 22  2  0
 12 17  1  1
 17 19  1  0
 17 20  1  0
 18 19  1  0
 18 22  1  0
 18 23  1  0
  9 10  1  0
  9 11  1  0
 10 12  1  0
 11  5  1  1
 33 34  1  0
 33 35  1  0
 34 36  1  0
 35 37  1  0
 37 43  1  1
 20 21  2  0
 21 22  1  0
M  CHG  3   2  -1  26  -1  41  -1
M  END
