1
     RDKit          3D

 43 45  0  0  0  0  0  0  0  0999 V2000
   22.2182   71.7823   -3.2090 P   0  0  2  0  0  0  0  0  0  0  0  0
   21.7326   73.3065   -2.9674 O   0  0  0  0  0  0  0  0  0  0  0  0
   23.6432   71.6343   -3.6549 O   0  0  0  0  0  0  0  0  0  0  0  0
   21.1020   71.1730   -4.2095 O   0  0  0  0  0  0  0  0  0  0  0  0
   20.2228   70.1775   -3.7157 C   0  0  0  0  0  0  0  0  0  0  0  0
   18.5314   71.4697   -4.8307 O   0  0  0  0  0  0  0  0  0  0  0  0
   16.6050   70.3162   -2.8435 O   0  0  0  0  0  0  0  0  0  0  0  0
   16.1443   68.8033   -5.0650 O   0  0  0  0  0  0  0  0  0  0  0  0
   17.7355   69.7055   -3.4633 C   0  0  1  0  0  0  0  0  0  0  0  0
   17.4275   69.3740   -4.9086 C   0  0  2  0  0  0  0  0  0  0  0  0
   18.8222   70.7641   -3.6044 C   0  0  1  0  0  0  0  0  0  0  0  0
   17.5482   70.7334   -5.5762 C   0  0  2  0  0  0  0  0  0  0  0  0
   15.8977   69.6593   -2.7424 H   0  0  0  0  0  0  0  0  0  0  0  0
   16.1181   67.9402   -4.6233 H   0  0  0  0  0  0  0  0  0  0  0  0
   15.8116   70.3314   -7.7672 O   0  0  0  0  0  0  0  0  0  0  0  0
   19.3019   70.3745  -10.7767 O   0  0  0  0  0  0  0  0  0  0  0  0
   17.9761   70.6361   -6.9433 N   0  0  0  0  0  0  0  0  0  0  0  0
   17.5509   70.3534   -9.2640 N   0  0  0  0  0  0  0  0  0  0  0  0
   17.0235   70.4327   -7.9688 C   0  0  0  0  0  0  0  0  0  0  0  0
   19.3270   70.7425   -7.2558 C   0  0  0  0  0  0  0  0  0  0  0  0
   19.8139   70.6633   -8.4959 C   0  0  0  0  0  0  0  0  0  0  0  0
   18.8853   70.4517   -9.6251 C   0  0  0  0  0  0  0  0  0  0  0  0
   16.9059   70.2116   -9.9945 H   0  0  0  0  0  0  0  0  0  0  0  0
   21.8755   71.0643   -1.8019 O   0  0  0  0  0  0  0  0  0  0  0  0
   21.1408   71.6246   -0.4755 P   0  0  2  0  0  0  0  0  0  0  0  0
   21.1484   70.3490    0.5197 O   0  0  0  0  0  0  0  0  0  0  0  0
   19.7799   72.2070   -0.7254 O   0  0  0  0  0  0  0  0  0  0  0  0
   22.2002   72.6546    0.1741 O   0  0  0  0  0  0  0  0  0  0  0  0
   24.1982   73.6011   -0.6795 O   0  0  0  0  0  0  0  0  0  0  0  0
   25.3827   72.9701    3.2256 O   0  0  0  0  0  0  0  0  0  0  0  0
   24.8719   75.6450    2.3135 O   0  0  0  0  0  0  0  0  0  0  0  0
   23.7036   71.0243    1.8937 O   0  0  0  0  0  0  0  0  0  0  0  0
   24.4629   73.2922    2.1789 C   0  0  1  0  0  0  0  0  0  0  0  0
   24.9890   74.5247    1.4407 C   0  0  1  0  0  0  0  0  0  0  0  0
   24.3525   72.1022    1.2276 C   0  0  2  0  0  0  0  0  0  0  0  0
   24.2036   74.7719    0.1457 C   0  0  1  0  0  0  0  0  0  0  0  0
   23.5954   72.4687   -0.0500 C   0  0  1  0  0  0  0  0  0  0  0  0
   25.4571   73.7214    3.8334 H   0  0  0  0  0  0  0  0  0  0  0  0
   25.3719   75.4758    3.1275 H   0  0  0  0  0  0  0  0  0  0  0  0
   24.1927   70.8016    2.7005 H   0  0  0  0  0  0  0  0  0  0  0  0
   23.9006   76.9844   -0.7041 O   0  0  0  0  0  0  0  0  0  0  0  0
   24.8109   75.9003   -0.6850 C   0  0  0  0  0  0  0  0  0  0  0  0
   24.2741   77.7102   -1.2290 H   0  0  0  0  0  0  0  0  0  0  0  0
 25 28  1  0
 25 24  1  0
 25 26  1  1
 25 27  2  0
  1  4  1  0
  1 24  1  0
  1  2  1  1
  1  3  2  0
  6 11  1  0
  6 12  1  0
 29 36  1  0
 29 37  1  0
  9  7  1  6
  7 13  1  0
 10  8  1  1
  8 14  1  0
 37 28  1  1
  4  5  1  0
 33 30  1  1
 30 38  1  0
 34 31  1  1
 31 39  1  0
 35 32  1  1
 32 40  1  0
 41 42  1  0
 41 43  1  0
 15 19  2  0
 16 22  2  0
 12 17  1  6
 17 19  1  0
 17 20  1  0
 18 19  1  0
 18 22  1  0
 18 23  1  0
  9 10  1  0
  9 11  1  0
 10 12  1  0
 11  5  1  6
 33 34  1  0
 33 35  1  0
 34 36  1  0
 35 37  1  0
 36 42  1  6
 20 21  2  0
 21 22  1  0
M  CHG  2   2  -1  26  -1
M  END
>  <COMPND>  (1) 
    8629 

>  <AUTHOR>  (1) 
    GENERATED BY OPEN BABEL 3.1.1

>  <MASTER>  (1) 
        0    0    0    0    0    0    0    0   58    0   58    0

>  <minimizedAffinity>  (1) 
-7.43227

>  <CNNscore>  (1) 
0.9453504086

>  <CNNaffinity>  (1) 
4.8911294937

>  <CNN_VS>  (1) 
4.6238312721

>  <CNNaffinity_variance>  (1) 
0.1130954176

$$$$
2
     RDKit          3D

 43 45  0  0  0  0  0  0  0  0999 V2000
   20.3986   71.2315   -1.3592 P   0  0  2  0  0  0  0  0  0  0  0  0
   20.8720   70.5899    0.0485 O   0  0  0  0  0  0  0  0  0  0  0  0
   19.8660   72.6315   -1.2704 O   0  0  0  0  0  0  0  0  0  0  0  0
   19.3806   70.1296   -1.9654 O   0  0  0  0  0  0  0  0  0  0  0  0
   19.0668   70.1863   -3.3460 C   0  0  0  0  0  0  0  0  0  0  0  0
   17.4520   71.2975   -4.7358 O   0  0  0  0  0  0  0  0  0  0  0  0
   15.3715   69.7358   -3.2446 O   0  0  0  0  0  0  0  0  0  0  0  0
   15.6082   68.3376   -5.5739 O   0  0  0  0  0  0  0  0  0  0  0  0
   16.6847   69.3419   -3.6390 C   0  0  1  0  0  0  0  0  0  0  0  0
   16.7284   69.0753   -5.1292 C   0  0  2  0  0  0  0  0  0  0  0  0
   17.5980   70.5542   -3.5059 C   0  0  1  0  0  0  0  0  0  0  0  0
   16.7658   70.4826   -5.7002 C   0  0  2  0  0  0  0  0  0  0  0  0
   14.7702   68.9778   -3.3209 H   0  0  0  0  0  0  0  0  0  0  0  0
   15.6296   67.4500   -5.1834 H   0  0  0  0  0  0  0  0  0  0  0  0
   15.5161   70.5461   -8.2323 O   0  0  0  0  0  0  0  0  0  0  0  0
   19.5636   70.7318  -10.4288 O   0  0  0  0  0  0  0  0  0  0  0  0
   17.4689   70.5480   -6.9503 N   0  0  0  0  0  0  0  0  0  0  0  0
   17.5324   70.6387   -9.3239 N   0  0  0  0  0  0  0  0  0  0  0  0
   16.7467   70.5743   -8.1661 C   0  0  0  0  0  0  0  0  0  0  0  0
   18.8589   70.5856   -6.9625 C   0  0  0  0  0  0  0  0  0  0  0  0
   19.5934   70.6456   -8.0752 C   0  0  0  0  0  0  0  0  0  0  0  0
   18.9163   70.6767   -9.3877 C   0  0  0  0  0  0  0  0  0  0  0  0
   17.0510   70.6576  -10.1828 H   0  0  0  0  0  0  0  0  0  0  0  0
   21.7086   71.0680   -2.2920 O   0  0  0  0  0  0  0  0  0  0  0  0
   22.9434   72.0724   -2.5735 P   0  0  2  0  0  0  0  0  0  0  0  0
   24.0339   71.1248   -3.3018 O   0  0  0  0  0  0  0  0  0  0  0  0
   23.4542   72.7775   -1.3504 O   0  0  0  0  0  0  0  0  0  0  0  0
   22.4135   73.0546   -3.7394 O   0  0  0  0  0  0  0  0  0  0  0  0
   20.1739   73.1131   -4.5123 O   0  0  0  0  0  0  0  0  0  0  0  0
   22.0879   74.3977   -7.9382 O   0  0  0  0  0  0  0  0  0  0  0  0
   20.5741   76.2702   -6.3728 O   0  0  0  0  0  0  0  0  0  0  0  0
   23.2834   72.3272   -6.3063 O   0  0  0  0  0  0  0  0  0  0  0  0
   21.8836   74.2747   -6.5281 C   0  0  1  0  0  0  0  0  0  0  0  0
   20.5105   74.8585   -6.1897 C   0  0  1  0  0  0  0  0  0  0  0  0
   21.9504   72.7985   -6.1410 C   0  0  2  0  0  0  0  0  0  0  0  0
   20.1067   74.5245   -4.7473 C   0  0  1  0  0  0  0  0  0  0  0  0
   21.4817   72.5699   -4.7028 C   0  0  1  0  0  0  0  0  0  0  0  0
   22.0472   75.3327   -8.1905 H   0  0  0  0  0  0  0  0  0  0  0  0
   20.8306   76.4675   -7.2874 H   0  0  0  0  0  0  0  0  0  0  0  0
   23.5682   72.4773   -7.2208 H   0  0  0  0  0  0  0  0  0  0  0  0
   18.1073   74.0292   -3.5365 O   0  0  0  0  0  0  0  0  0  0  0  0
   18.6761   74.9605   -4.4384 C   0  0  0  0  0  0  0  0  0  0  0  0
   17.1967   74.2942   -3.3305 H   0  0  0  0  0  0  0  0  0  0  0  0
 25 28  1  0
 25 24  1  0
 25 26  1  6
 25 27  2  0
  1  4  1  0
  1 24  1  0
  1  2  1  1
  1  3  2  0
  6 11  1  0
  6 12  1  0
 29 36  1  0
 29 37  1  0
  9  7  1  6
  7 13  1  0
 10  8  1  6
  8 14  1  0
 37 28  1  1
  4  5  1  0
 33 30  1  6
 30 38  1  0
 34 31  1  1
 31 39  1  0
 35 32  1  1
 32 40  1  0
 41 42  1  0
 41 43  1  0
 15 19  2  0
 16 22  2  0
 12 17  1  6
 17 19  1  0
 17 20  1  0
 18 19  1  0
 18 22  1  0
 18 23  1  0
  9 10  1  0
  9 11  1  0
 10 12  1  0
 11  5  1  6
 33 34  1  0
 33 35  1  0
 34 36  1  0
 35 37  1  0
 36 42  1  6
 20 21  2  0
 21 22  1  0
M  CHG  2   2  -1  26  -1
M  END
>  <COMPND>  (2) 
    8629 

>  <AUTHOR>  (2) 
    GENERATED BY OPEN BABEL 3.1.1

>  <MASTER>  (2) 
        0    0    0    0    0    0    0    0   58    0   58    0

>  <minimizedAffinity>  (2) 
-7.80321

>  <CNNscore>  (2) 
0.9181028605

>  <CNNaffinity>  (2) 
4.6716704369

>  <CNN_VS>  (2) 
4.2890739441

>  <CNNaffinity_variance>  (2) 
0.6018185616

$$$$
3
     RDKit          3D

 43 45  0  0  0  0  0  0  0  0999 V2000
   22.9637   71.3911   -2.3503 P   0  0  2  0  0  0  0  0  0  0  0  0
   22.7855   72.9948   -2.4672 O   0  0  0  0  0  0  0  0  0  0  0  0
   24.1887   70.8391   -3.0181 O   0  0  0  0  0  0  0  0  0  0  0  0
   21.5511   70.8039   -2.8774 O   0  0  0  0  0  0  0  0  0  0  0  0
   20.8958   71.4724   -3.9411 C   0  0  0  0  0  0  0  0  0  0  0  0
   18.7175   71.9644   -4.8282 O   0  0  0  0  0  0  0  0  0  0  0  0
   17.6237   70.5334   -2.4310 O   0  0  0  0  0  0  0  0  0  0  0  0
   17.4025   68.6557   -4.3962 O   0  0  0  0  0  0  0  0  0  0  0  0
   18.7936   70.2481   -3.1959 C   0  0  1  0  0  0  0  0  0  0  0  0
   18.4145   69.6332   -4.5270 C   0  0  2  0  0  0  0  0  0  0  0  0
   19.4105   71.5744   -3.6224 C   0  0  1  0  0  0  0  0  0  0  0  0
   17.9557   70.8478   -5.3159 C   0  0  2  0  0  0  0  0  0  0  0  0
   17.2124   69.7015   -2.1470 H   0  0  0  0  0  0  0  0  0  0  0  0
   17.7431   67.9037   -3.8871 H   0  0  0  0  0  0  0  0  0  0  0  0
   15.9193   70.4891   -7.2401 O   0  0  0  0  0  0  0  0  0  0  0  0
   18.9635   70.3099  -10.6959 O   0  0  0  0  0  0  0  0  0  0  0  0
   18.1877   70.7051   -6.7255 N   0  0  0  0  0  0  0  0  0  0  0  0
   17.4367   70.4003   -8.9592 N   0  0  0  0  0  0  0  0  0  0  0  0
   17.0956   70.5286   -7.6068 C   0  0  0  0  0  0  0  0  0  0  0  0
   19.4866   70.7410   -7.2211 C   0  0  0  0  0  0  0  0  0  0  0  0
   19.7951   70.6158   -8.5136 C   0  0  0  0  0  0  0  0  0  0  0  0
   18.7122   70.4281   -9.5006 C   0  0  0  0  0  0  0  0  0  0  0  0
   16.6922   70.2761   -9.5917 H   0  0  0  0  0  0  0  0  0  0  0  0
   22.8923   71.1328   -0.7562 O   0  0  0  0  0  0  0  0  0  0  0  0
   21.7088   71.4033    0.3111 P   0  0  2  0  0  0  0  0  0  0  0  0
   21.5291   69.9688    1.0374 O   0  0  0  0  0  0  0  0  0  0  0  0
   20.4494   71.9537   -0.2929 O   0  0  0  0  0  0  0  0  0  0  0  0
   22.3800   72.3478    1.4347 O   0  0  0  0  0  0  0  0  0  0  0  0
   24.1826   71.5408    2.7448 O   0  0  0  0  0  0  0  0  0  0  0  0
   22.8566   74.5573    5.2335 O   0  0  0  0  0  0  0  0  0  0  0  0
   25.3202   74.8864    3.7945 O   0  0  0  0  0  0  0  0  0  0  0  0
   20.9463   72.9473    3.7714 O   0  0  0  0  0  0  0  0  0  0  0  0
   23.1347   73.9320    3.9777 C   0  0  1  0  0  0  0  0  0  0  0  0
   24.6353   73.6421    3.9081 C   0  0  1  0  0  0  0  0  0  0  0  0
   22.3315   72.6366    3.8764 C   0  0  2  0  0  0  0  0  0  0  0  0
   24.9699   72.7371    2.7148 C   0  0  1  0  0  0  0  0  0  0  0  0
   22.7765   71.7879    2.6840 C   0  0  1  0  0  0  0  0  0  0  0  0
   23.3631   75.3807    5.3040 H   0  0  0  0  0  0  0  0  0  0  0  0
   25.0999   75.4486    4.5539 H   0  0  0  0  0  0  0  0  0  0  0  0
   20.6769   73.4844    4.5322 H   0  0  0  0  0  0  0  0  0  0  0  0
   26.5007   70.9337    2.3779 O   0  0  0  0  0  0  0  0  0  0  0  0
   26.4352   72.3068    2.7165 C   0  0  0  0  0  0  0  0  0  0  0  0
   27.4275   70.6460    2.3748 H   0  0  0  0  0  0  0  0  0  0  0  0
 25 28  1  0
 25 24  1  0
 25 26  1  1
 25 27  2  0
  1  4  1  0
  1 24  1  0
  1  2  1  1
  1  3  2  0
  6 11  1  0
  6 12  1  0
 29 36  1  0
 29 37  1  0
  9  7  1  1
  7 13  1  0
 10  8  1  1
  8 14  1  0
 37 28  1  6
  4  5  1  0
 33 30  1  1
 30 38  1  0
 34 31  1  6
 31 39  1  0
 35 32  1  6
 32 40  1  0
 41 42  1  0
 41 43  1  0
 15 19  2  0
 16 22  2  0
 12 17  1  6
 17 19  1  0
 17 20  1  0
 18 19  1  0
 18 22  1  0
 18 23  1  0
  9 10  1  0
  9 11  1  0
 10 12  1  0
 11  5  1  6
 33 34  1  0
 33 35  1  0
 34 36  1  0
 35 37  1  0
 36 42  1  1
 20 21  2  0
 21 22  1  0
M  CHG  2   2  -1  26  -1
M  END
>  <COMPND>  (3) 
    8629 

>  <AUTHOR>  (3) 
    GENERATED BY OPEN BABEL 3.1.1

>  <MASTER>  (3) 
        0    0    0    0    0    0    0    0   58    0   58    0

>  <minimizedAffinity>  (3) 
-8.03817

>  <CNNscore>  (3) 
0.9168981314

>  <CNNaffinity>  (3) 
4.6752843857

>  <CNN_VS>  (3) 
4.2867593765

>  <CNNaffinity_variance>  (3) 
0.0665291399

$$$$
4
     RDKit          3D

 43 45  0  0  0  0  0  0  0  0999 V2000
   21.3817   71.2849   -2.4960 P   0  0  2  0  0  0  0  0  0  0  0  0
   22.7456   70.4150   -2.4775 O   0  0  0  0  0  0  0  0  0  0  0  0
   20.5833   71.2387   -1.2264 O   0  0  0  0  0  0  0  0  0  0  0  0
   20.6149   70.7768   -3.8270 O   0  0  0  0  0  0  0  0  0  0  0  0
   19.6530   69.7441   -3.7005 C   0  0  0  0  0  0  0  0  0  0  0  0
   18.1004   71.1696   -4.8543 O   0  0  0  0  0  0  0  0  0  0  0  0
   15.9755   69.9266   -3.1423 O   0  0  0  0  0  0  0  0  0  0  0  0
   15.6815   68.6037   -5.5088 O   0  0  0  0  0  0  0  0  0  0  0  0
   17.1426   69.3308   -3.7066 C   0  0  1  0  0  0  0  0  0  0  0  0
   16.9585   69.1210   -5.1951 C   0  0  2  0  0  0  0  0  0  0  0  0
   18.2624   70.3632   -3.6670 C   0  0  1  0  0  0  0  0  0  0  0  0
   17.1712   70.5233   -5.7396 C   0  0  2  0  0  0  0  0  0  0  0  0
   15.2466   69.2859   -3.1564 H   0  0  0  0  0  0  0  0  0  0  0  0
   15.5950   67.7105   -5.1409 H   0  0  0  0  0  0  0  0  0  0  0  0
   15.6262   70.4278   -8.1022 O   0  0  0  0  0  0  0  0  0  0  0  0
   19.3784   70.5070  -10.7772 O   0  0  0  0  0  0  0  0  0  0  0  0
   17.7184   70.5182   -7.0670 N   0  0  0  0  0  0  0  0  0  0  0  0
   17.4958   70.4675   -9.4322 N   0  0  0  0  0  0  0  0  0  0  0  0
   16.8554   70.4675   -8.1865 C   0  0  0  0  0  0  0  0  0  0  0  0
   19.0964   70.5635   -7.2487 C   0  0  0  0  0  0  0  0  0  0  0  0
   19.6913   70.5616   -8.4434 C   0  0  0  0  0  0  0  0  0  0  0  0
   18.8614   70.5102   -9.6643 C   0  0  0  0  0  0  0  0  0  0  0  0
   16.9147   70.4322  -10.2265 H   0  0  0  0  0  0  0  0  0  0  0  0
   21.8965   72.7592   -2.9137 O   0  0  0  0  0  0  0  0  0  0  0  0
   23.3878   73.3337   -3.1560 P   0  0  2  0  0  0  0  0  0  0  0  0
   23.1235   74.8329   -3.7037 O   0  0  0  0  0  0  0  0  0  0  0  0
   24.2350   72.4849   -4.0592 O   0  0  0  0  0  0  0  0  0  0  0  0
   23.9914   73.5417   -1.6737 O   0  0  0  0  0  0  0  0  0  0  0  0
   23.0481   72.8210    0.3775 O   0  0  0  0  0  0  0  0  0  0  0  0
   24.9197   76.2618    1.6848 O   0  0  0  0  0  0  0  0  0  0  0  0
   26.0028   73.6996    2.3990 O   0  0  0  0  0  0  0  0  0  0  0  0
   23.6272   76.2160   -0.9049 O   0  0  0  0  0  0  0  0  0  0  0  0
   24.7675   75.0833    0.8890 C   0  0  1  0  0  0  0  0  0  0  0  0
   24.7100   73.8756    1.8265 C   0  0  1  0  0  0  0  0  0  0  0  0
   23.4798   75.1937    0.0747 C   0  0  2  0  0  0  0  0  0  0  0  0
   24.2824   72.6091    1.0728 C   0  0  1  0  0  0  0  0  0  0  0  0
   23.1190   73.8662   -0.5943 C   0  0  1  0  0  0  0  0  0  0  0  0
   25.7358   76.1983    2.2040 H   0  0  0  0  0  0  0  0  0  0  0  0
   26.2611   74.5066    2.8716 H   0  0  0  0  0  0  0  0  0  0  0  0
   23.8552   77.0512   -0.4688 H   0  0  0  0  0  0  0  0  0  0  0  0
   23.1868   70.5099    1.3924 O   0  0  0  0  0  0  0  0  0  0  0  0
   24.0658   71.4278    2.0161 C   0  0  0  0  0  0  0  0  0  0  0  0
   23.0400   69.7526    1.9812 H   0  0  0  0  0  0  0  0  0  0  0  0
 25 28  1  0
 25 24  1  0
 25 26  1  6
 25 27  2  0
  1  4  1  0
  1 24  1  0
  1  2  1  1
  1  3  2  0
  6 11  1  0
  6 12  1  0
 29 36  1  0
 29 37  1  0
  9  7  1  6
  7 13  1  0
 10  8  1  1
  8 14  1  0
 37 28  1  6
  4  5  1  0
 33 30  1  1
 30 38  1  0
 34 31  1  6
 31 39  1  0
 35 32  1  6
 32 40  1  0
 41 42  1  0
 41 43  1  0
 15 19  2  0
 16 22  2  0
 12 17  1  6
 17 19  1  0
 17 20  1  0
 18 19  1  0
 18 22  1  0
 18 23  1  0
  9 10  1  0
  9 11  1  0
 10 12  1  0
 11  5  1  6
 33 34  1  0
 33 35  1  0
 34 36  1  0
 35 37  1  0
 36 42  1  1
 20 21  2  0
 21 22  1  0
M  CHG  2   2  -1  26  -1
M  END
>  <COMPND>  (4) 
    8629 

>  <AUTHOR>  (4) 
    GENERATED BY OPEN BABEL 3.1.1

>  <MASTER>  (4) 
        0    0    0    0    0    0    0    0   58    0   58    0

>  <minimizedAffinity>  (4) 
-7.24628

>  <CNNscore>  (4) 
0.9077206254

>  <CNNaffinity>  (4) 
4.8005347252

>  <CNN_VS>  (4) 
4.3575444221

>  <CNNaffinity_variance>  (4) 
0.0757252723

$$$$
5
     RDKit          3D

 43 45  0  0  0  0  0  0  0  0999 V2000
   21.7554   71.9906   -2.6592 P   0  0  2  0  0  0  0  0  0  0  0  0
   20.8926   73.3152   -2.3149 O   0  0  0  0  0  0  0  0  0  0  0  0
   23.2088   72.2361   -2.9396 O   0  0  0  0  0  0  0  0  0  0  0  0
   20.9201   71.2815   -3.8497 O   0  0  0  0  0  0  0  0  0  0  0  0
   20.0137   70.2450   -3.5153 C   0  0  0  0  0  0  0  0  0  0  0  0
   18.3456   71.5285   -4.6744 O   0  0  0  0  0  0  0  0  0  0  0  0
   16.3717   70.3558   -2.7460 O   0  0  0  0  0  0  0  0  0  0  0  0
   15.9851   68.8462   -4.9839 O   0  0  0  0  0  0  0  0  0  0  0  0
   17.5237   69.7548   -3.3351 C   0  0  1  0  0  0  0  0  0  0  0  0
   17.2592   69.4254   -4.7894 C   0  0  2  0  0  0  0  0  0  0  0  0
   18.6064   70.8214   -3.4423 C   0  0  1  0  0  0  0  0  0  0  0  0
   17.3892   70.7875   -5.4497 C   0  0  2  0  0  0  0  0  0  0  0  0
   15.6665   69.6936   -2.6669 H   0  0  0  0  0  0  0  0  0  0  0  0
   15.9524   67.9816   -4.5454 H   0  0  0  0  0  0  0  0  0  0  0  0
   15.7543   70.1487   -7.6625 O   0  0  0  0  0  0  0  0  0  0  0  0
   19.2908   70.4682  -10.6005 O   0  0  0  0  0  0  0  0  0  0  0  0
   17.8565   70.6972   -6.8042 N   0  0  0  0  0  0  0  0  0  0  0  0
   17.5165   70.3084   -9.1236 N   0  0  0  0  0  0  0  0  0  0  0  0
   16.9538   70.3687   -7.8423 C   0  0  0  0  0  0  0  0  0  0  0  0
   19.1963   70.9335   -7.0923 C   0  0  0  0  0  0  0  0  0  0  0  0
   19.7174   70.8708   -8.3194 C   0  0  0  0  0  0  0  0  0  0  0  0
   18.8419   70.5337   -9.4603 C   0  0  0  0  0  0  0  0  0  0  0  0
   16.9066   70.0809   -9.8626 H   0  0  0  0  0  0  0  0  0  0  0  0
   21.4678   71.0298   -1.3914 O   0  0  0  0  0  0  0  0  0  0  0  0
   22.1130   71.0061    0.0905 P   0  0  2  0  0  0  0  0  0  0  0  0
   23.7041   71.0647   -0.1966 O   0  0  0  0  0  0  0  0  0  0  0  0
   21.6781   69.8416    0.9324 O   0  0  0  0  0  0  0  0  0  0  0  0
   21.7577   72.4518    0.7139 O   0  0  0  0  0  0  0  0  0  0  0  0
   21.1355   72.2315    2.9900 O   0  0  0  0  0  0  0  0  0  0  0  0
   20.2401   76.2255    2.4450 O   0  0  0  0  0  0  0  0  0  0  0  0
   22.5344   75.4870    4.0067 O   0  0  0  0  0  0  0  0  0  0  0  0
   19.7023   74.3234    0.3301 O   0  0  0  0  0  0  0  0  0  0  0  0
   20.9809   75.0178    2.2496 C   0  0  1  0  0  0  0  0  0  0  0  0
   21.5253   74.5644    3.6057 C   0  0  1  0  0  0  0  0  0  0  0  0
   20.0562   73.9551    1.6589 C   0  0  2  0  0  0  0  0  0  0  0  0
   22.1013   73.1443    3.5246 C   0  0  1  0  0  0  0  0  0  0  0  0
   20.7072   72.5708    1.6697 C   0  0  1  0  0  0  0  0  0  0  0  0
   20.8216   76.9045    2.8195 H   0  0  0  0  0  0  0  0  0  0  0  0
   22.1578   76.3798    4.0535 H   0  0  0  0  0  0  0  0  0  0  0  0
   19.2909   75.2013    0.3368 H   0  0  0  0  0  0  0  0  0  0  0  0
   21.6922   73.2306    5.8771 O   0  0  0  0  0  0  0  0  0  0  0  0
   22.5059   72.6120    4.8976 C   0  0  0  0  0  0  0  0  0  0  0  0
   21.9383   72.9012    6.7561 H   0  0  0  0  0  0  0  0  0  0  0  0
 25 28  1  0
 25 24  1  0
 25 26  1  6
 25 27  2  0
  1  4  1  0
  1 24  1  0
  1  2  1  1
  1  3  2  0
  6 11  1  0
  6 12  1  0
 29 36  1  0
 29 37  1  0
  9  7  1  6
  7 13  1  0
 10  8  1  1
  8 14  1  0
 37 28  1  6
  4  5  1  0
 33 30  1  1
 30 38  1  0
 34 31  1  6
 31 39  1  0
 35 32  1  6
 32 40  1  0
 41 42  1  0
 41 43  1  0
 15 19  2  0
 16 22  2  0
 12 17  1  6
 17 19  1  0
 17 20  1  0
 18 19  1  0
 18 22  1  0
 18 23  1  0
  9 10  1  0
  9 11  1  0
 10 12  1  0
 11  5  1  6
 33 34  1  0
 33 35  1  0
 34 36  1  0
 35 37  1  0
 36 42  1  1
 20 21  2  0
 21 22  1  0
M  CHG  2   2  -1  26  -1
M  END
>  <COMPND>  (5) 
    8629 

>  <AUTHOR>  (5) 
    GENERATED BY OPEN BABEL 3.1.1

>  <MASTER>  (5) 
        0    0    0    0    0    0    0    0   58    0   58    0

>  <minimizedAffinity>  (5) 
-7.48931

>  <CNNscore>  (5) 
0.9047014117

>  <CNNaffinity>  (5) 
4.6395225525

>  <CNN_VS>  (5) 
4.1973824501

>  <CNNaffinity_variance>  (5) 
0.0518012419

$$$$
6
     RDKit          3D

 43 45  0  0  0  0  0  0  0  0999 V2000
   21.7823   71.6477   -2.5272 P   0  0  2  0  0  0  0  0  0  0  0  0
   23.0581   70.6554   -2.5978 O   0  0  0  0  0  0  0  0  0  0  0  0
   21.8760   72.7276   -1.4896 O   0  0  0  0  0  0  0  0  0  0  0  0
   20.5189   70.6467   -2.3873 O   0  0  0  0  0  0  0  0  0  0  0  0
   19.8530   70.2295   -3.5665 C   0  0  0  0  0  0  0  0  0  0  0  0
   18.1759   71.4608   -4.7685 O   0  0  0  0  0  0  0  0  0  0  0  0
   16.1844   70.1812   -2.9281 O   0  0  0  0  0  0  0  0  0  0  0  0
   15.9402   68.6895   -5.1979 O   0  0  0  0  0  0  0  0  0  0  0  0
   17.3804   69.6360   -3.4828 C   0  0  1  0  0  0  0  0  0  0  0  0
   17.1817   69.3172   -4.9500 C   0  0  2  0  0  0  0  0  0  0  0  0
   18.4214   70.7472   -3.5370 C   0  0  1  0  0  0  0  0  0  0  0  0
   17.2790   70.6928   -5.5874 C   0  0  2  0  0  0  0  0  0  0  0  0
   15.5047   69.4899   -2.8831 H   0  0  0  0  0  0  0  0  0  0  0  0
   15.9275   67.8181   -4.7721 H   0  0  0  0  0  0  0  0  0  0  0  0
   15.6968   70.3335   -7.8994 O   0  0  0  0  0  0  0  0  0  0  0  0
   19.3771   70.5090  -10.6680 O   0  0  0  0  0  0  0  0  0  0  0  0
   17.7976   70.6411   -6.9252 N   0  0  0  0  0  0  0  0  0  0  0  0
   17.5306   70.4213   -9.2761 N   0  0  0  0  0  0  0  0  0  0  0  0
   16.9178   70.4560   -8.0170 C   0  0  0  0  0  0  0  0  0  0  0  0
   19.1645   70.7736   -7.1441 C   0  0  0  0  0  0  0  0  0  0  0  0
   19.7332   70.7371   -8.3510 C   0  0  0  0  0  0  0  0  0  0  0  0
   18.8843   70.5471   -9.5449 C   0  0  0  0  0  0  0  0  0  0  0  0
   16.9373   70.2930  -10.0516 H   0  0  0  0  0  0  0  0  0  0  0  0
   21.6544   72.1841   -4.0467 O   0  0  0  0  0  0  0  0  0  0  0  0
   22.7458   72.8591   -5.0296 P   0  0  2  0  0  0  0  0  0  0  0  0
   22.6158   71.9848   -6.3847 O   0  0  0  0  0  0  0  0  0  0  0  0
   24.1339   72.9167   -4.4606 O   0  0  0  0  0  0  0  0  0  0  0  0
   22.1188   74.2968   -5.4103 O   0  0  0  0  0  0  0  0  0  0  0  0
   22.7768   76.3089   -6.4756 O   0  0  0  0  0  0  0  0  0  0  0  0
   21.2812   77.8809   -2.9623 O   0  0  0  0  0  0  0  0  0  0  0  0
   19.8052   78.2089   -5.4040 O   0  0  0  0  0  0  0  0  0  0  0  0
   22.7731   75.4007   -2.9146 O   0  0  0  0  0  0  0  0  0  0  0  0
   21.3408   76.9636   -4.0579 C   0  0  1  0  0  0  0  0  0  0  0  0
   21.1543   77.7531   -5.3551 C   0  0  1  0  0  0  0  0  0  0  0  0
   22.6967   76.2601   -4.0468 C   0  0  2  0  0  0  0  0  0  0  0  0
   21.4702   76.8862   -6.5814 C   0  0  1  0  0  0  0  0  0  0  0  0
   22.9311   75.4653   -5.3326 C   0  0  1  0  0  0  0  0  0  0  0  0
   20.4226   78.3306   -2.9633 H   0  0  0  0  0  0  0  0  0  0  0  0
   19.6185   78.7546   -4.6238 H   0  0  0  0  0  0  0  0  0  0  0  0
   22.6233   75.9158   -2.1071 H   0  0  0  0  0  0  0  0  0  0  0  0
   21.6547   76.8128   -8.9625 O   0  0  0  0  0  0  0  0  0  0  0  0
   21.4437   77.6957   -7.8761 C   0  0  0  0  0  0  0  0  0  0  0  0
   21.6402   77.3141   -9.7933 H   0  0  0  0  0  0  0  0  0  0  0  0
 25 28  1  0
 25 24  1  0
 25 26  1  6
 25 27  2  0
  1  4  1  0
  1 24  1  0
  1  2  1  6
  1  3  2  0
  6 11  1  0
  6 12  1  0
 29 36  1  0
 29 37  1  0
  9  7  1  6
  7 13  1  0
 10  8  1  1
  8 14  1  0
 37 28  1  6
  4  5  1  0
 33 30  1  1
 30 38  1  0
 34 31  1  6
 31 39  1  0
 35 32  1  1
 32 40  1  0
 41 42  1  0
 41 43  1  0
 15 19  2  0
 16 22  2  0
 12 17  1  6
 17 19  1  0
 17 20  1  0
 18 19  1  0
 18 22  1  0
 18 23  1  0
  9 10  1  0
  9 11  1  0
 10 12  1  0
 11  5  1  6
 33 34  1  0
 33 35  1  0
 34 36  1  0
 35 37  1  0
 36 42  1  6
 20 21  2  0
 21 22  1  0
M  CHG  2   2  -1  26  -1
M  END
>  <COMPND>  (6) 
    8629 

>  <AUTHOR>  (6) 
    GENERATED BY OPEN BABEL 3.1.1

>  <MASTER>  (6) 
        0    0    0    0    0    0    0    0   58    0   58    0

>  <minimizedAffinity>  (6) 
-6.54413

>  <CNNscore>  (6) 
0.8841353059

>  <CNNaffinity>  (6) 
4.6294655800

>  <CNN_VS>  (6) 
4.0930738449

>  <CNNaffinity_variance>  (6) 
0.2400940657

$$$$
7
     RDKit          3D

 43 45  0  0  0  0  0  0  0  0999 V2000
   21.6997   71.6745   -2.5705 P   0  0  2  0  0  0  0  0  0  0  0  0
   22.9789   70.6842   -2.5509 O   0  0  0  0  0  0  0  0  0  0  0  0
   21.7743   72.8253   -1.6105 O   0  0  0  0  0  0  0  0  0  0  0  0
   20.4367   70.6813   -2.3798 O   0  0  0  0  0  0  0  0  0  0  0  0
   19.7687   70.2074   -3.5361 C   0  0  0  0  0  0  0  0  0  0  0  0
   18.0963   71.4385   -4.7448 O   0  0  0  0  0  0  0  0  0  0  0  0
   16.0922   70.1140   -2.9504 O   0  0  0  0  0  0  0  0  0  0  0  0
   15.8949   68.6514   -5.2435 O   0  0  0  0  0  0  0  0  0  0  0  0
   17.3013   69.5884   -3.4955 C   0  0  1  0  0  0  0  0  0  0  0  0
   17.1264   69.2878   -4.9695 C   0  0  2  0  0  0  0  0  0  0  0  0
   18.3318   70.7104   -3.5198 C   0  0  1  0  0  0  0  0  0  0  0  0
   17.2187   70.6730   -5.5867 C   0  0  2  0  0  0  0  0  0  0  0  0
   15.4189   69.4154   -2.9244 H   0  0  0  0  0  0  0  0  0  0  0  0
   15.8850   67.7741   -4.8299 H   0  0  0  0  0  0  0  0  0  0  0  0
   15.6734   70.3242   -7.9251 O   0  0  0  0  0  0  0  0  0  0  0  0
   19.3895   70.5802  -10.6393 O   0  0  0  0  0  0  0  0  0  0  0  0
   17.7565   70.6448   -6.9176 N   0  0  0  0  0  0  0  0  0  0  0  0
   17.5250   70.4521   -9.2747 N   0  0  0  0  0  0  0  0  0  0  0  0
   16.8943   70.4630   -8.0240 C   0  0  0  0  0  0  0  0  0  0  0  0
   19.1245   70.7969   -7.1156 C   0  0  0  0  0  0  0  0  0  0  0  0
   19.7104   70.7828   -8.3147 C   0  0  0  0  0  0  0  0  0  0  0  0
   18.8807   70.5978   -9.5227 C   0  0  0  0  0  0  0  0  0  0  0  0
   16.9442   70.3265  -10.0600 H   0  0  0  0  0  0  0  0  0  0  0  0
   21.5944   72.1017   -4.1259 O   0  0  0  0  0  0  0  0  0  0  0  0
   22.6621   72.8203   -5.1040 P   0  0  2  0  0  0  0  0  0  0  0  0
   22.5580   71.9547   -6.4669 O   0  0  0  0  0  0  0  0  0  0  0  0
   24.0486   72.9171   -4.5364 O   0  0  0  0  0  0  0  0  0  0  0  0
   21.9888   74.2405   -5.4707 O   0  0  0  0  0  0  0  0  0  0  0  0
   20.1400   74.1488   -6.9507 O   0  0  0  0  0  0  0  0  0  0  0  0
   20.9786   78.1848   -7.1917 O   0  0  0  0  0  0  0  0  0  0  0  0
   18.6446   77.3041   -5.7688 O   0  0  0  0  0  0  0  0  0  0  0  0
   23.1416   76.2677   -7.0317 O   0  0  0  0  0  0  0  0  0  0  0  0
   20.8720   76.9124   -6.5475 C   0  0  1  0  0  0  0  0  0  0  0  0
   19.4127   76.4587   -6.6207 C   0  0  1  0  0  0  0  0  0  0  0  0
   21.7818   75.9140   -7.2608 C   0  0  2  0  0  0  0  0  0  0  0  0
   19.2662   74.9926   -6.1916 C   0  0  1  0  0  0  0  0  0  0  0  0
   21.5213   74.4802   -6.7956 C   0  0  1  0  0  0  0  0  0  0  0  0
   20.4037   78.8235   -6.7434 H   0  0  0  0  0  0  0  0  0  0  0  0
   18.7462   78.2270   -6.0502 H   0  0  0  0  0  0  0  0  0  0  0  0
   23.2937   77.1773   -7.3306 H   0  0  0  0  0  0  0  0  0  0  0  0
   16.9920   75.0978   -5.4664 O   0  0  0  0  0  0  0  0  0  0  0  0
   17.8464   74.4729   -6.4065 C   0  0  0  0  0  0  0  0  0  0  0  0
   16.0848   74.7768   -5.5916 H   0  0  0  0  0  0  0  0  0  0  0  0
 25 28  1  0
 25 24  1  0
 25 26  1  6
 25 27  2  0
  1  4  1  0
  1 24  1  0
  1  2  1  6
  1  3  2  0
  6 11  1  0
  6 12  1  0
 29 36  1  0
 29 37  1  0
  9  7  1  6
  7 13  1  0
 10  8  1  1
  8 14  1  0
 37 28  1  1
  4  5  1  0
 33 30  1  6
 30 38  1  0
 34 31  1  1
 31 39  1  0
 35 32  1  1
 32 40  1  0
 41 42  1  0
 41 43  1  0
 15 19  2  0
 16 22  2  0
 12 17  1  6
 17 19  1  0
 17 20  1  0
 18 19  1  0
 18 22  1  0
 18 23  1  0
  9 10  1  0
  9 11  1  0
 10 12  1  0
 11  5  1  6
 33 34  1  0
 33 35  1  0
 34 36  1  0
 35 37  1  0
 36 42  1  6
 20 21  2  0
 21 22  1  0
M  CHG  2   2  -1  26  -1
M  END
>  <COMPND>  (7) 
    8629 

>  <AUTHOR>  (7) 
    GENERATED BY OPEN BABEL 3.1.1

>  <MASTER>  (7) 
        0    0    0    0    0    0    0    0   58    0   58    0

>  <minimizedAffinity>  (7) 
-6.57554

>  <CNNscore>  (7) 
0.8682149649

>  <CNNaffinity>  (7) 
4.5656371117

>  <CNN_VS>  (7) 
3.9639544487

>  <CNNaffinity_variance>  (7) 
0.2552908063

$$$$
8
     RDKit          3D

 43 45  0  0  0  0  0  0  0  0999 V2000
   20.9450   72.6993   -4.4124 P   0  0  2  0  0  0  0  0  0  0  0  0
   20.0064   73.8262   -5.0955 O   0  0  0  0  0  0  0  0  0  0  0  0
   21.5957   71.7486   -5.3737 O   0  0  0  0  0  0  0  0  0  0  0  0
   19.9900   72.0240   -3.2944 O   0  0  0  0  0  0  0  0  0  0  0  0
   19.3449   70.8014   -3.6054 C   0  0  0  0  0  0  0  0  0  0  0  0
   17.5826   71.6077   -5.0260 O   0  0  0  0  0  0  0  0  0  0  0  0
   15.7029   70.1258   -3.2200 O   0  0  0  0  0  0  0  0  0  0  0  0
   15.9202   68.4472   -5.3582 O   0  0  0  0  0  0  0  0  0  0  0  0
   17.0193   69.7701   -3.6397 C   0  0  1  0  0  0  0  0  0  0  0  0
   17.0048   69.3099   -5.0825 C   0  0  2  0  0  0  0  0  0  0  0  0
   17.8467   71.0469   -3.7214 C   0  0  1  0  0  0  0  0  0  0  0  0
   16.9090   70.6276   -5.8326 C   0  0  2  0  0  0  0  0  0  0  0  0
   15.1558   69.3264   -3.1602 H   0  0  0  0  0  0  0  0  0  0  0  0
   16.0270   67.6232   -4.8578 H   0  0  0  0  0  0  0  0  0  0  0  0
   15.5193   70.6605   -8.2914 O   0  0  0  0  0  0  0  0  0  0  0  0
   19.4311   70.4055  -10.7151 O   0  0  0  0  0  0  0  0  0  0  0  0
   17.5393   70.5713   -7.1214 N   0  0  0  0  0  0  0  0  0  0  0  0
   17.4682   70.5337   -9.4962 N   0  0  0  0  0  0  0  0  0  0  0  0
   16.7502   70.5928   -8.2950 C   0  0  0  0  0  0  0  0  0  0  0  0
   18.9249   70.4961   -7.2124 C   0  0  0  0  0  0  0  0  0  0  0  0
   19.5943   70.4391   -8.3656 C   0  0  0  0  0  0  0  0  0  0  0  0
   18.8447   70.4568   -9.6384 C   0  0  0  0  0  0  0  0  0  0  0  0
   16.9395   70.5469  -10.3269 H   0  0  0  0  0  0  0  0  0  0  0  0
   21.9776   73.5737   -3.5281 O   0  0  0  0  0  0  0  0  0  0  0  0
   23.3910   73.1805   -2.8493 P   0  0  2  0  0  0  0  0  0  0  0  0
   24.2107   74.5753   -2.8647 O   0  0  0  0  0  0  0  0  0  0  0  0
   24.0990   72.0387   -3.5195 O   0  0  0  0  0  0  0  0  0  0  0  0
   23.0415   72.9302   -1.2936 O   0  0  0  0  0  0  0  0  0  0  0  0
   23.7736   70.9626   -0.1939 O   0  0  0  0  0  0  0  0  0  0  0  0
   20.6225   71.9670    2.2785 O   0  0  0  0  0  0  0  0  0  0  0  0
   23.3185   72.3225    3.2021 O   0  0  0  0  0  0  0  0  0  0  0  0
   20.3908   72.3453   -0.5820 O   0  0  0  0  0  0  0  0  0  0  0  0
   21.7330   72.2220    1.4142 C   0  0  1  0  0  0  0  0  0  0  0  0
   22.9784   71.5835    2.0323 C   0  0  1  0  0  0  0  0  0  0  0  0
   21.4451   71.6191    0.0405 C   0  0  2  0  0  0  0  0  0  0  0  0
   24.1502   71.5824    1.0413 C   0  0  1  0  0  0  0  0  0  0  0  0
   22.6890   71.6225   -0.8498 C   0  0  1  0  0  0  0  0  0  0  0  0
   20.7987   72.3477    3.1523 H   0  0  0  0  0  0  0  0  0  0  0  0
   22.5701   72.3158    3.8193 H   0  0  0  0  0  0  0  0  0  0  0  0
   19.6090   72.3354   -0.0087 H   0  0  0  0  0  0  0  0  0  0  0  0
   24.9336   70.0429    2.6921 O   0  0  0  0  0  0  0  0  0  0  0  0
   25.3532   70.8106    1.5791 C   0  0  0  0  0  0  0  0  0  0  0  0
   25.6889   69.5460    3.0446 H   0  0  0  0  0  0  0  0  0  0  0  0
 25 28  1  0
 25 24  1  0
 25 26  1  1
 25 27  2  0
  1  4  1  0
  1 24  1  0
  1  2  1  6
  1  3  2  0
  6 11  1  0
  6 12  1  0
 29 36  1  0
 29 37  1  0
  9  7  1  6
  7 13  1  0
 10  8  1  1
  8 14  1  0
 37 28  1  1
  4  5  1  0
 33 30  1  1
 30 38  1  0
 34 31  1  1
 31 39  1  0
 35 32  1  6
 32 40  1  0
 41 42  1  0
 41 43  1  0
 15 19  2  0
 16 22  2  0
 12 17  1  6
 17 19  1  0
 17 20  1  0
 18 19  1  0
 18 22  1  0
 18 23  1  0
  9 10  1  0
  9 11  1  0
 10 12  1  0
 11  5  1  6
 33 34  1  0
 33 35  1  0
 34 36  1  0
 35 37  1  0
 36 42  1  1
 20 21  2  0
 21 22  1  0
M  CHG  2   2  -1  26  -1
M  END
>  <COMPND>  (8) 
    8629 

>  <AUTHOR>  (8) 
    GENERATED BY OPEN BABEL 3.1.1

>  <MASTER>  (8) 
        0    0    0    0    0    0    0    0   58    0   58    0

>  <minimizedAffinity>  (8) 
-7.96478

>  <CNNscore>  (8) 
0.8638806343

>  <CNNaffinity>  (8) 
4.6820158958

>  <CNN_VS>  (8) 
4.0447030067

>  <CNNaffinity_variance>  (8) 
0.0741702765

$$$$
9
     RDKit          3D

 43 45  0  0  0  0  0  0  0  0999 V2000
   22.9608   71.5424   -2.5193 P   0  0  2  0  0  0  0  0  0  0  0  0
   22.9621   73.1439   -2.2901 O   0  0  0  0  0  0  0  0  0  0  0  0
   24.1916   70.9959   -3.1811 O   0  0  0  0  0  0  0  0  0  0  0  0
   21.5656   71.2613   -3.2889 O   0  0  0  0  0  0  0  0  0  0  0  0
   21.0775   72.2448   -4.1847 C   0  0  0  0  0  0  0  0  0  0  0  0
   18.9543   72.7234   -5.2029 O   0  0  0  0  0  0  0  0  0  0  0  0
   17.7183   71.6322   -2.6984 O   0  0  0  0  0  0  0  0  0  0  0  0
   17.4709   69.5485   -4.4400 O   0  0  0  0  0  0  0  0  0  0  0  0
   18.8971   71.2087   -3.3813 C   0  0  1  0  0  0  0  0  0  0  0  0
   18.5317   70.4591   -4.6455 C   0  0  2  0  0  0  0  0  0  0  0  0
   19.5893   72.4478   -3.9352 C   0  0  1  0  0  0  0  0  0  0  0  0
   18.1563   71.5915   -5.5860 C   0  0  2  0  0  0  0  0  0  0  0  0
   17.2592   70.8580   -2.3356 H   0  0  0  0  0  0  0  0  0  0  0  0
   17.7591   68.8472   -3.8351 H   0  0  0  0  0  0  0  0  0  0  0  0
   16.5067   72.3457   -7.7512 O   0  0  0  0  0  0  0  0  0  0  0  0
   19.2895   70.3188  -10.8153 O   0  0  0  0  0  0  0  0  0  0  0  0
   18.4260   71.2745   -6.9601 N   0  0  0  0  0  0  0  0  0  0  0  0
   17.8937   71.3360   -9.2751 N   0  0  0  0  0  0  0  0  0  0  0  0
   17.5331   71.6995   -7.9714 C   0  0  0  0  0  0  0  0  0  0  0  0
   19.5654   70.5502   -7.2934 C   0  0  0  0  0  0  0  0  0  0  0  0
   19.8942   70.2105   -8.5415 C   0  0  0  0  0  0  0  0  0  0  0  0
   19.0146   70.6158   -9.6568 C   0  0  0  0  0  0  0  0  0  0  0  0
   17.2864   71.6209   -9.9961 H   0  0  0  0  0  0  0  0  0  0  0  0
   22.6808   70.9632   -1.0364 O   0  0  0  0  0  0  0  0  0  0  0  0
   21.3677   71.0407   -0.0969 P   0  0  2  0  0  0  0  0  0  0  0  0
   21.7506   70.0901    1.1550 O   0  0  0  0  0  0  0  0  0  0  0  0
   20.0909   70.6654   -0.7917 O   0  0  0  0  0  0  0  0  0  0  0  0
   21.3855   72.5373    0.5072 O   0  0  0  0  0  0  0  0  0  0  0  0
   23.2168   73.9466    1.0334 O   0  0  0  0  0  0  0  0  0  0  0  0
   20.6717   74.9951    4.1114 O   0  0  0  0  0  0  0  0  0  0  0  0
   21.1237   76.8376    1.9552 O   0  0  0  0  0  0  0  0  0  0  0  0
   20.8261   72.2386    3.2409 O   0  0  0  0  0  0  0  0  0  0  0  0
   21.0121   74.5956    2.7810 C   0  0  1  0  0  0  0  0  0  0  0  0
   21.9136   75.6719    2.1730 C   0  0  1  0  0  0  0  0  0  0  0  0
   21.7383   73.2527    2.8335 C   0  0  2  0  0  0  0  0  0  0  0  0
   22.5351   75.1935    0.8539 C   0  0  1  0  0  0  0  0  0  0  0  0
   22.3611   72.8942    1.4830 C   0  0  1  0  0  0  0  0  0  0  0  0
   20.2099   75.8468    4.0851 H   0  0  0  0  0  0  0  0  0  0  0  0
   20.7366   77.1290    2.7958 H   0  0  0  0  0  0  0  0  0  0  0  0
   20.4390   72.4771    4.0971 H   0  0  0  0  0  0  0  0  0  0  0  0
   24.1691   75.6232   -0.8356 O   0  0  0  0  0  0  0  0  0  0  0  0
   23.5593   76.1876    0.3106 C   0  0  0  0  0  0  0  0  0  0  0  0
   24.8232   76.2450   -1.1924 H   0  0  0  0  0  0  0  0  0  0  0  0
 25 28  1  0
 25 24  1  0
 25 26  1  1
 25 27  2  0
  1  4  1  0
  1 24  1  0
  1  2  1  1
  1  3  2  0
  6 11  1  0
  6 12  1  0
 29 36  1  0
 29 37  1  0
  9  7  1  6
  7 13  1  0
 10  8  1  1
  8 14  1  0
 37 28  1  6
  4  5  1  0
 33 30  1  1
 30 38  1  0
 34 31  1  6
 31 39  1  0
 35 32  1  6
 32 40  1  0
 41 42  1  0
 41 43  1  0
 15 19  2  0
 16 22  2  0
 12 17  1  6
 17 19  1  0
 17 20  1  0
 18 19  1  0
 18 22  1  0
 18 23  1  0
  9 10  1  0
  9 11  1  0
 10 12  1  0
 11  5  1  6
 33 34  1  0
 33 35  1  0
 34 36  1  0
 35 37  1  0
 36 42  1  1
 20 21  2  0
 21 22  1  0
M  CHG  2   2  -1  26  -1
M  END
>  <COMPND>  (9) 
    8629 

>  <AUTHOR>  (9) 
    GENERATED BY OPEN BABEL 3.1.1

>  <MASTER>  (9) 
        0    0    0    0    0    0    0    0   58    0   58    0

>  <minimizedAffinity>  (9) 
-7.13161

>  <CNNscore>  (9) 
0.8500563502

>  <CNNaffinity>  (9) 
4.5721139908

>  <CNN_VS>  (9) 
3.8865544796

>  <CNNaffinity_variance>  (9) 
0.1204562336

$$$$
10
     RDKit          3D

 43 45  0  0  0  0  0  0  0  0999 V2000
   21.3716   72.7717   -4.5782 P   0  0  2  0  0  0  0  0  0  0  0  0
   21.3179   74.3021   -4.0565 O   0  0  0  0  0  0  0  0  0  0  0  0
   22.2026   72.5500   -5.8077 O   0  0  0  0  0  0  0  0  0  0  0  0
   19.8148   72.3467   -4.6964 O   0  0  0  0  0  0  0  0  0  0  0  0
   19.2850   71.4469   -3.7386 C   0  0  0  0  0  0  0  0  0  0  0  0
   17.4317   71.7758   -5.2322 O   0  0  0  0  0  0  0  0  0  0  0  0
   15.8104   70.1916   -3.2694 O   0  0  0  0  0  0  0  0  0  0  0  0
   16.3493   68.3566   -5.2133 O   0  0  0  0  0  0  0  0  0  0  0  0
   17.1749   70.0281   -3.6525 C   0  0  1  0  0  0  0  0  0  0  0  0
   17.2630   69.4200   -5.0367 C   0  0  2  0  0  0  0  0  0  0  0  0
   17.7690   71.4133   -3.8753 C   0  0  1  0  0  0  0  0  0  0  0  0
   16.9513   70.6123   -5.9252 C   0  0  2  0  0  0  0  0  0  0  0  0
   15.4097   69.3202   -3.1212 H   0  0  0  0  0  0  0  0  0  0  0  0
   16.5900   67.6226   -4.6267 H   0  0  0  0  0  0  0  0  0  0  0  0
   15.6113   70.7274   -8.4089 O   0  0  0  0  0  0  0  0  0  0  0  0
   19.5490   70.2793  -10.7615 O   0  0  0  0  0  0  0  0  0  0  0  0
   17.6017   70.5285   -7.2024 N   0  0  0  0  0  0  0  0  0  0  0  0
   17.5731   70.5043   -9.5783 N   0  0  0  0  0  0  0  0  0  0  0  0
   16.8368   70.5958   -8.3902 C   0  0  0  0  0  0  0  0  0  0  0  0
   18.9830   70.3817   -7.2683 C   0  0  0  0  0  0  0  0  0  0  0  0
   19.6699   70.2947   -8.4093 C   0  0  0  0  0  0  0  0  0  0  0  0
   18.9461   70.3565   -9.6955 C   0  0  0  0  0  0  0  0  0  0  0  0
   17.0612   70.5484  -10.4185 H   0  0  0  0  0  0  0  0  0  0  0  0
   21.8716   71.9600   -3.2729 O   0  0  0  0  0  0  0  0  0  0  0  0
   23.3228   71.8777   -2.5654 P   0  0  2  0  0  0  0  0  0  0  0  0
   23.9079   73.3755   -2.7436 O   0  0  0  0  0  0  0  0  0  0  0  0
   24.2118   70.7968   -3.1087 O   0  0  0  0  0  0  0  0  0  0  0  0
   23.0019   71.7503   -0.9888 O   0  0  0  0  0  0  0  0  0  0  0  0
   22.6359   73.7322    0.2582 O   0  0  0  0  0  0  0  0  0  0  0  0
   23.5206   71.1546    3.3605 O   0  0  0  0  0  0  0  0  0  0  0  0
   20.8166   72.0466    2.9854 O   0  0  0  0  0  0  0  0  0  0  0  0
   24.9578   70.9472    0.8564 O   0  0  0  0  0  0  0  0  0  0  0  0
   22.9743   71.5287    2.0928 C   0  0  1  0  0  0  0  0  0  0  0  0
   21.9362   72.6286    2.3237 C   0  0  1  0  0  0  0  0  0  0  0  0
   24.1010   72.0330    1.1930 C   0  0  2  0  0  0  0  0  0  0  0  0
   21.5009   73.2666    0.9975 C   0  0  1  0  0  0  0  0  0  0  0  0
   23.5580   72.6929   -0.0758 C   0  0  1  0  0  0  0  0  0  0  0  0
   22.8104   70.8331    3.9365 H   0  0  0  0  0  0  0  0  0  0  0  0
   21.1052   71.6469    3.8210 H   0  0  0  0  0  0  0  0  0  0  0  0
   25.2952   70.5380    1.6679 H   0  0  0  0  0  0  0  0  0  0  0  0
   20.7557   74.9293    2.5432 O   0  0  0  0  0  0  0  0  0  0  0  0
   20.5860   74.4698    1.2149 C   0  0  0  0  0  0  0  0  0  0  0  0
   20.1797   75.6952    2.6959 H   0  0  0  0  0  0  0  0  0  0  0  0
 25 28  1  0
 25 24  1  0
 25 26  1  1
 25 27  2  0
  1  4  1  0
  1 24  1  0
  1  2  1  1
  1  3  2  0
  6 11  1  0
  6 12  1  0
 29 36  1  0
 29 37  1  0
  9  7  1  6
  7 13  1  0
 10  8  1  1
  8 14  1  0
 37 28  1  6
  4  5  1  0
 33 30  1  1
 30 38  1  0
 34 31  1  6
 31 39  1  0
 35 32  1  6
 32 40  1  0
 41 42  1  0
 41 43  1  0
 15 19  2  0
 16 22  2  0
 12 17  1  6
 17 19  1  0
 17 20  1  0
 18 19  1  0
 18 22  1  0
 18 23  1  0
  9 10  1  0
  9 11  1  0
 10 12  1  0
 11  5  1  6
 33 34  1  0
 33 35  1  0
 34 36  1  0
 35 37  1  0
 36 42  1  1
 20 21  2  0
 21 22  1  0
M  CHG  2   2  -1  26  -1
M  END
>  <COMPND>  (10) 
    8629 

>  <AUTHOR>  (10) 
    GENERATED BY OPEN BABEL 3.1.1

>  <MASTER>  (10) 
        0    0    0    0    0    0    0    0   58    0   58    0

>  <minimizedAffinity>  (10) 
-7.71657

>  <CNNscore>  (10) 
0.8426412940

>  <CNNaffinity>  (10) 
4.6518254280

>  <CNN_VS>  (10) 
3.9198203087

>  <CNNaffinity_variance>  (10) 
0.0338597447

$$$$
11
     RDKit          3D

 43 45  0  0  0  0  0  0  0  0999 V2000
   20.5308   71.1682   -1.4907 P   0  0  2  0  0  0  0  0  0  0  0  0
   21.9187   70.9386   -2.2898 O   0  0  0  0  0  0  0  0  0  0  0  0
   20.6246   71.0154   -0.0010 O   0  0  0  0  0  0  0  0  0  0  0  0
   19.4867   70.1807   -2.2340 O   0  0  0  0  0  0  0  0  0  0  0  0
   19.2143   70.3950   -3.6079 C   0  0  0  0  0  0  0  0  0  0  0  0
   17.5748   71.3926   -5.0538 O   0  0  0  0  0  0  0  0  0  0  0  0
   15.5222   69.9489   -3.4127 O   0  0  0  0  0  0  0  0  0  0  0  0
   15.7256   68.3741   -5.6297 O   0  0  0  0  0  0  0  0  0  0  0  0
   16.8301   69.5273   -3.7962 C   0  0  1  0  0  0  0  0  0  0  0  0
   16.8508   69.1456   -5.2617 C   0  0  2  0  0  0  0  0  0  0  0  0
   17.7423   70.7474   -3.7724 C   0  0  1  0  0  0  0  0  0  0  0  0
   16.8756   70.5043   -5.9409 C   0  0  2  0  0  0  0  0  0  0  0  0
   14.9217   69.1865   -3.4202 H   0  0  0  0  0  0  0  0  0  0  0  0
   15.7554   67.5196   -5.1718 H   0  0  0  0  0  0  0  0  0  0  0  0
   15.5935   70.6579   -8.4529 O   0  0  0  0  0  0  0  0  0  0  0  0
   19.5969   70.3737  -10.7186 O   0  0  0  0  0  0  0  0  0  0  0  0
   17.5586   70.4731   -7.2034 N   0  0  0  0  0  0  0  0  0  0  0  0
   17.5879   70.5164   -9.5790 N   0  0  0  0  0  0  0  0  0  0  0  0
   16.8212   70.5558   -8.4075 C   0  0  0  0  0  0  0  0  0  0  0  0
   18.9443   70.3620   -7.2391 C   0  0  0  0  0  0  0  0  0  0  0  0
   19.6605   70.3246   -8.3646 C   0  0  0  0  0  0  0  0  0  0  0  0
   18.9666   70.4056   -9.6662 C   0  0  0  0  0  0  0  0  0  0  0  0
   17.0956   70.5721  -10.4301 H   0  0  0  0  0  0  0  0  0  0  0  0
   20.0628   72.6331   -1.9886 O   0  0  0  0  0  0  0  0  0  0  0  0
   20.4053   74.1071   -1.4202 P   0  0  2  0  0  0  0  0  0  0  0  0
   21.9423   73.9694   -0.9342 O   0  0  0  0  0  0  0  0  0  0  0  0
   19.4611   74.5919   -0.3584 O   0  0  0  0  0  0  0  0  0  0  0  0
   20.4751   75.0447   -2.7321 O   0  0  0  0  0  0  0  0  0  0  0  0
   22.2436   74.2071   -4.0690 O   0  0  0  0  0  0  0  0  0  0  0  0
   21.1268   77.4301   -6.3961 O   0  0  0  0  0  0  0  0  0  0  0  0
   20.5004   74.7665   -7.2686 O   0  0  0  0  0  0  0  0  0  0  0  0
   21.1222   77.6620   -3.5107 O   0  0  0  0  0  0  0  0  0  0  0  0
   20.9163   76.3300   -5.5069 C   0  0  1  0  0  0  0  0  0  0  0  0
   21.3982   75.0540   -6.2001 C   0  0  1  0  0  0  0  0  0  0  0  0
   21.7017   76.5717   -4.2192 C   0  0  2  0  0  0  0  0  0  0  0  0
   21.4535   73.8767   -5.2172 C   0  0  1  0  0  0  0  0  0  0  0  0
   21.7358   75.3234   -3.3356 C   0  0  1  0  0  0  0  0  0  0  0  0
   20.6304   77.2831   -7.2156 H   0  0  0  0  0  0  0  0  0  0  0  0
   20.4744   75.5180   -7.8816 H   0  0  0  0  0  0  0  0  0  0  0  0
   21.1067   78.4461   -4.0806 H   0  0  0  0  0  0  0  0  0  0  0  0
   22.9323   72.0281   -4.8934 O   0  0  0  0  0  0  0  0  0  0  0  0
   22.0799   72.6346   -5.8473 C   0  0  0  0  0  0  0  0  0  0  0  0
   23.3377   71.2359   -5.2805 H   0  0  0  0  0  0  0  0  0  0  0  0
 25 28  1  0
 25 24  1  0
 25 26  1  1
 25 27  2  0
  1  4  1  0
  1 24  1  0
  1  2  1  6
  1  3  2  0
  6 11  1  0
  6 12  1  0
 29 36  1  0
 29 37  1  0
  9  7  1  6
  7 13  1  0
 10  8  1  6
  8 14  1  0
 37 28  1  6
  4  5  1  0
 33 30  1  6
 30 38  1  0
 34 31  1  6
 31 39  1  0
 35 32  1  1
 32 40  1  0
 41 42  1  0
 41 43  1  0
 15 19  2  0
 16 22  2  0
 12 17  1  6
 17 19  1  0
 17 20  1  0
 18 19  1  0
 18 22  1  0
 18 23  1  0
  9 10  1  0
  9 11  1  0
 10 12  1  0
 11  5  1  6
 33 34  1  0
 33 35  1  0
 34 36  1  0
 35 37  1  0
 36 42  1  6
 20 21  2  0
 21 22  1  0
M  CHG  2   2  -1  26  -1
M  END
>  <COMPND>  (11) 
    8629 

>  <AUTHOR>  (11) 
    GENERATED BY OPEN BABEL 3.1.1

>  <MASTER>  (11) 
        0    0    0    0    0    0    0    0   58    0   58    0

>  <minimizedAffinity>  (11) 
-6.63579

>  <CNNscore>  (11) 
0.8341422081

>  <CNNaffinity>  (11) 
4.5502562523

>  <CNN_VS>  (11) 
3.7955608368

>  <CNNaffinity_variance>  (11) 
0.2559662461

$$$$
12
     RDKit          3D

 43 45  0  0  0  0  0  0  0  0999 V2000
   21.8298   72.4103   -5.5959 P   0  0  2  0  0  0  0  0  0  0  0  0
   21.2253   73.8954   -5.3801 O   0  0  0  0  0  0  0  0  0  0  0  0
   23.1171   72.3556   -6.3648 O   0  0  0  0  0  0  0  0  0  0  0  0
   20.5964   71.5773   -6.2305 O   0  0  0  0  0  0  0  0  0  0  0  0
   20.1254   71.9410   -7.5164 C   0  0  0  0  0  0  0  0  0  0  0  0
   18.8827   69.9246   -7.1123 O   0  0  0  0  0  0  0  0  0  0  0  0
   18.1276   70.0309  -10.0122 O   0  0  0  0  0  0  0  0  0  0  0  0
   15.8982   71.0062   -8.7813 O   0  0  0  0  0  0  0  0  0  0  0  0
   18.3083   71.1018   -9.0871 C   0  0  1  0  0  0  0  0  0  0  0  0
   17.1396   71.1696   -8.1263 C   0  0  2  0  0  0  0  0  0  0  0  0
   19.4604   70.7325   -8.1610 C   0  0  1  0  0  0  0  0  0  0  0  0
   17.4508   70.0302   -7.1707 C   0  0  2  0  0  0  0  0  0  0  0  0
   17.3971   70.2439  -10.6145 H   0  0  0  0  0  0  0  0  0  0  0  0
   15.7460   71.7559   -9.3777 H   0  0  0  0  0  0  0  0  0  0  0  0
   16.3104   68.0490   -5.5118 O   0  0  0  0  0  0  0  0  0  0  0  0
   15.5487   71.0708   -2.1162 O   0  0  0  0  0  0  0  0  0  0  0  0
   16.9467   70.2714   -5.8482 N   0  0  0  0  0  0  0  0  0  0  0  0
   15.9322   69.5552   -3.8223 N   0  0  0  0  0  0  0  0  0  0  0  0
   16.3928   69.2076   -5.0987 C   0  0  0  0  0  0  0  0  0  0  0  0
   17.0046   71.5512   -5.3072 C   0  0  0  0  0  0  0  0  0  0  0  0
   16.5599   71.8665   -4.0890 C   0  0  0  0  0  0  0  0  0  0  0  0
   15.9666   70.8127   -3.2407 C   0  0  0  0  0  0  0  0  0  0  0  0
   15.5419   68.8303   -3.2820 H   0  0  0  0  0  0  0  0  0  0  0  0
   21.9212   71.8327   -4.0889 O   0  0  0  0  0  0  0  0  0  0  0  0
   23.1051   71.9131   -2.9913 P   0  0  2  0  0  0  0  0  0  0  0  0
   23.7017   73.4028   -3.1974 O   0  0  0  0  0  0  0  0  0  0  0  0
   24.1245   70.8167   -3.1042 O   0  0  0  0  0  0  0  0  0  0  0  0
   22.3416   71.9728   -1.5705 O   0  0  0  0  0  0  0  0  0  0  0  0
   24.0200   72.3813    0.0520 O   0  0  0  0  0  0  0  0  0  0  0  0
   20.7357   72.1488    2.5441 O   0  0  0  0  0  0  0  0  0  0  0  0
   21.9604   74.6984    2.0466 O   0  0  0  0  0  0  0  0  0  0  0  0
   20.9495   70.3734    0.2677 O   0  0  0  0  0  0  0  0  0  0  0  0
   21.4383   72.4733    1.3414 C   0  0  1  0  0  0  0  0  0  0  0  0
   22.5586   73.4551    1.6906 C   0  0  1  0  0  0  0  0  0  0  0  0
   22.0138   71.1931    0.7387 C   0  0  2  0  0  0  0  0  0  0  0  0
   23.5188   73.6431    0.5083 C   0  0  1  0  0  0  0  0  0  0  0  0
   22.9935   71.4943   -0.3970 C   0  0  1  0  0  0  0  0  0  0  0  0
   20.3673   72.9572    2.9316 H   0  0  0  0  0  0  0  0  0  0  0  0
   21.3562   74.5656    2.7939 H   0  0  0  0  0  0  0  0  0  0  0  0
   20.3365   70.1896    0.9959 H   0  0  0  0  0  0  0  0  0  0  0  0
   24.9237   74.4055    2.2843 O   0  0  0  0  0  0  0  0  0  0  0  0
   24.7296   74.4943    0.8847 C   0  0  0  0  0  0  0  0  0  0  0  0
   25.6913   74.9421    2.5383 H   0  0  0  0  0  0  0  0  0  0  0  0
 25 28  1  0
 25 24  1  0
 25 26  1  6
 25 27  2  0
  1  4  1  0
  1 24  1  0
  1  2  1  1
  1  3  2  0
  6 11  1  0
  6 12  1  0
 29 36  1  0
 29 37  1  0
  9  7  1  6
  7 13  1  0
 10  8  1  6
  8 14  1  0
 37 28  1  6
  4  5  1  0
 33 30  1  1
 30 38  1  0
 34 31  1  6
 31 39  1  0
 35 32  1  6
 32 40  1  0
 41 42  1  0
 41 43  1  0
 15 19  2  0
 16 22  2  0
 12 17  1  1
 17 19  1  0
 17 20  1  0
 18 19  1  0
 18 22  1  0
 18 23  1  0
  9 10  1  0
  9 11  1  0
 10 12  1  0
 11  5  1  1
 33 34  1  0
 33 35  1  0
 34 36  1  0
 35 37  1  0
 36 42  1  1
 20 21  2  0
 21 22  1  0
M  CHG  2   2  -1  26  -1
M  END
>  <COMPND>  (12) 
    8629 

>  <AUTHOR>  (12) 
    GENERATED BY OPEN BABEL 3.1.1

>  <MASTER>  (12) 
        0    0    0    0    0    0    0    0   58    0   58    0

>  <minimizedAffinity>  (12) 
-8.13831

>  <CNNscore>  (12) 
0.8031845093

>  <CNNaffinity>  (12) 
4.5770111084

>  <CNN_VS>  (12) 
3.6761844158

>  <CNNaffinity_variance>  (12) 
0.1776957363

$$$$
13
     RDKit          3D

 43 45  0  0  0  0  0  0  0  0999 V2000
   23.4916   73.5731   -4.1522 P   0  0  2  0  0  0  0  0  0  0  0  0
   22.6916   74.9595   -4.3870 O   0  0  0  0  0  0  0  0  0  0  0  0
   24.9829   73.7099   -4.0586 O   0  0  0  0  0  0  0  0  0  0  0  0
   22.9473   72.6063   -5.3298 O   0  0  0  0  0  0  0  0  0  0  0  0
   21.5622   72.3109   -5.3760 C   0  0  0  0  0  0  0  0  0  0  0  0
   20.4950   70.3563   -6.2785 O   0  0  0  0  0  0  0  0  0  0  0  0
   20.6425   71.7331   -8.9381 O   0  0  0  0  0  0  0  0  0  0  0  0
   18.0494   72.1424   -8.1999 O   0  0  0  0  0  0  0  0  0  0  0  0
   20.4119   72.2905   -7.6453 C   0  0  1  0  0  0  0  0  0  0  0  0
   19.0082   71.9687   -7.1766 C   0  0  2  0  0  0  0  0  0  0  0  0
   21.2655   71.5221   -6.6441 C   0  0  1  0  0  0  0  0  0  0  0  0
   19.1451   70.5189   -6.7437 C   0  0  2  0  0  0  0  0  0  0  0  0
   20.1082   72.2079   -9.5947 H   0  0  0  0  0  0  0  0  0  0  0  0
   17.9993   73.0807   -8.4404 H   0  0  0  0  0  0  0  0  0  0  0  0
   16.4459   69.7778   -7.1218 O   0  0  0  0  0  0  0  0  0  0  0  0
   15.7719   69.2287   -2.5957 O   0  0  0  0  0  0  0  0  0  0  0  0
   18.2415   70.1767   -5.6817 N   0  0  0  0  0  0  0  0  0  0  0  0
   16.1126   69.5048   -4.8678 N   0  0  0  0  0  0  0  0  0  0  0  0
   16.9056   69.8197   -5.9787 C   0  0  0  0  0  0  0  0  0  0  0  0
   18.6826   70.1970   -4.3630 C   0  0  0  0  0  0  0  0  0  0  0  0
   17.9134   69.8952   -3.3149 C   0  0  0  0  0  0  0  0  0  0  0  0
   16.5046   69.5116   -3.5386 C   0  0  0  0  0  0  0  0  0  0  0  0
   15.1781   69.2534   -5.0504 H   0  0  0  0  0  0  0  0  0  0  0  0
   22.7874   72.9666   -2.8296 O   0  0  0  0  0  0  0  0  0  0  0  0
   22.8942   71.5062   -2.1450 P   0  0  2  0  0  0  0  0  0  0  0  0
   24.2024   70.8625   -2.8462 O   0  0  0  0  0  0  0  0  0  0  0  0
   21.6508   70.6745   -2.2726 O   0  0  0  0  0  0  0  0  0  0  0  0
   23.3494   71.7999   -0.6247 O   0  0  0  0  0  0  0  0  0  0  0  0
   24.5496   70.6632    1.0735 O   0  0  0  0  0  0  0  0  0  0  0  0
   21.2840   71.8908    3.2825 O   0  0  0  0  0  0  0  0  0  0  0  0
   23.8272   73.1628    3.6848 O   0  0  0  0  0  0  0  0  0  0  0  0
   20.9282   71.0043    0.5499 O   0  0  0  0  0  0  0  0  0  0  0  0
   22.2880   72.0009    2.2700 C   0  0  1  0  0  0  0  0  0  0  0  0
   23.6591   71.9553    2.9473 C   0  0  1  0  0  0  0  0  0  0  0  0
   22.1350   70.8417    1.2871 C   0  0  2  0  0  0  0  0  0  0  0  0
   24.7827   71.7997    1.9137 C   0  0  1  0  0  0  0  0  0  0  0  0
   23.3289   70.7468    0.3354 C   0  0  1  0  0  0  0  0  0  0  0  0
   21.3752   72.6242    3.9096 H   0  0  0  0  0  0  0  0  0  0  0  0
   23.1111   73.2492    4.3336 H   0  0  0  0  0  0  0  0  0  0  0  0
   20.1799   71.0627    1.1636 H   0  0  0  0  0  0  0  0  0  0  0  0
   26.5946   72.8402    3.0727 O   0  0  0  0  0  0  0  0  0  0  0  0
   26.1438   71.5938    2.5750 C   0  0  0  0  0  0  0  0  0  0  0  0
   27.4598   72.7244    3.4967 H   0  0  0  0  0  0  0  0  0  0  0  0
 25 28  1  0
 25 24  1  0
 25 26  1  6
 25 27  2  0
  1  4  1  0
  1 24  1  0
  1  2  1  6
  1  3  2  0
  6 11  1  0
  6 12  1  0
 29 36  1  0
 29 37  1  0
  9  7  1  6
  7 13  1  0
 10  8  1  6
  8 14  1  0
 37 28  1  6
  4  5  1  0
 33 30  1  1
 30 38  1  0
 34 31  1  6
 31 39  1  0
 35 32  1  6
 32 40  1  0
 41 42  1  0
 41 43  1  0
 15 19  2  0
 16 22  2  0
 12 17  1  1
 17 19  1  0
 17 20  1  0
 18 19  1  0
 18 22  1  0
 18 23  1  0
  9 10  1  0
  9 11  1  0
 10 12  1  0
 11  5  1  1
 33 34  1  0
 33 35  1  0
 34 36  1  0
 35 37  1  0
 36 42  1  1
 20 21  2  0
 21 22  1  0
M  CHG  2   2  -1  26  -1
M  END
>  <COMPND>  (13) 
    8629 

>  <AUTHOR>  (13) 
    GENERATED BY OPEN BABEL 3.1.1

>  <MASTER>  (13) 
        0    0    0    0    0    0    0    0   58    0   58    0

>  <minimizedAffinity>  (13) 
-8.24790

>  <CNNscore>  (13) 
0.6706715822

>  <CNNaffinity>  (13) 
4.3756370544

>  <CNN_VS>  (13) 
2.9346153736

>  <CNNaffinity_variance>  (13) 
0.2191269398

$$$$
14
     RDKit          3D

 43 45  0  0  0  0  0  0  0  0999 V2000
   21.8989   72.5410   -5.7732 P   0  0  2  0  0  0  0  0  0  0  0  0
   21.2993   74.0037   -5.4291 O   0  0  0  0  0  0  0  0  0  0  0  0
   23.0928   72.5433   -6.6821 O   0  0  0  0  0  0  0  0  0  0  0  0
   20.6154   71.7094   -6.3014 O   0  0  0  0  0  0  0  0  0  0  0  0
   20.0663   72.0435   -7.5642 C   0  0  0  0  0  0  0  0  0  0  0  0
   18.9147   69.9847   -7.1072 O   0  0  0  0  0  0  0  0  0  0  0  0
   18.1086   70.0122   -9.9951 O   0  0  0  0  0  0  0  0  0  0  0  0
   15.8612   70.9153   -8.7421 O   0  0  0  0  0  0  0  0  0  0  0  0
   18.2600   71.1047   -9.0903 C   0  0  1  0  0  0  0  0  0  0  0  0
   17.1053   71.1403   -8.1110 C   0  0  2  0  0  0  0  0  0  0  0  0
   19.4413   70.7983   -8.1782 C   0  0  1  0  0  0  0  0  0  0  0  0
   17.4789   70.0305   -7.1430 C   0  0  2  0  0  0  0  0  0  0  0  0
   17.3601   70.1852  -10.5883 H   0  0  0  0  0  0  0  0  0  0  0  0
   15.6684   71.6482   -9.3475 H   0  0  0  0  0  0  0  0  0  0  0  0
   16.2480   68.0768   -5.5164 O   0  0  0  0  0  0  0  0  0  0  0  0
   15.6288   71.0730   -2.0695 O   0  0  0  0  0  0  0  0  0  0  0  0
   16.9869   70.2725   -5.8160 N   0  0  0  0  0  0  0  0  0  0  0  0
   15.9409   69.5702   -3.8014 N   0  0  0  0  0  0  0  0  0  0  0  0
   16.3843   69.2231   -5.0839 C   0  0  0  0  0  0  0  0  0  0  0  0
   17.1045   71.5389   -5.2536 C   0  0  0  0  0  0  0  0  0  0  0  0
   16.6753   71.8539   -4.0298 C   0  0  0  0  0  0  0  0  0  0  0  0
   16.0339   70.8147   -3.1987 C   0  0  0  0  0  0  0  0  0  0  0  0
   15.5174   68.8552   -3.2730 H   0  0  0  0  0  0  0  0  0  0  0  0
   22.1674   71.9051   -4.3116 O   0  0  0  0  0  0  0  0  0  0  0  0
   23.4565   71.9854   -3.3395 P   0  0  2  0  0  0  0  0  0  0  0  0
   24.3938   73.0919   -4.0568 O   0  0  0  0  0  0  0  0  0  0  0  0
   24.1296   70.6651   -3.0998 O   0  0  0  0  0  0  0  0  0  0  0  0
   22.9162   72.7130   -2.0039 O   0  0  0  0  0  0  0  0  0  0  0  0
   20.8288   72.8844   -0.8949 O   0  0  0  0  0  0  0  0  0  0  0  0
   21.9855   76.8454   -0.7400 O   0  0  0  0  0  0  0  0  0  0  0  0
   22.0305   75.2603    1.6546 O   0  0  0  0  0  0  0  0  0  0  0  0
   22.5460   75.2688   -3.1021 O   0  0  0  0  0  0  0  0  0  0  0  0
   22.1827   75.4289   -0.7265 C   0  0  1  0  0  0  0  0  0  0  0  0
   21.3948   74.8462    0.4485 C   0  0  1  0  0  0  0  0  0  0  0  0
   21.6888   74.8436   -2.0481 C   0  0  2  0  0  0  0  0  0  0  0  0
   21.3389   73.3145    0.3726 C   0  0  1  0  0  0  0  0  0  0  0  0
   21.6248   73.3159   -2.0004 C   0  0  1  0  0  0  0  0  0  0  0  0
   22.2976   77.2233    0.0963 H   0  0  0  0  0  0  0  0  0  0  0  0
   22.0598   76.2294    1.6898 H   0  0  0  0  0  0  0  0  0  0  0  0
   22.5778   76.2375   -3.1220 H   0  0  0  0  0  0  0  0  0  0  0  0
   21.0976   71.6335    2.0534 O   0  0  0  0  0  0  0  0  0  0  0  0
   20.4271   72.7217    1.4447 C   0  0  0  0  0  0  0  0  0  0  0  0
   20.5293   71.2465    2.7382 H   0  0  0  0  0  0  0  0  0  0  0  0
 25 28  1  0
 25 24  1  0
 25 26  1  6
 25 27  2  0
  1  4  1  0
  1 24  1  0
  1  2  1  1
  1  3  2  0
  6 11  1  0
  6 12  1  0
 29 36  1  0
 29 37  1  0
  9  7  1  6
  7 13  1  0
 10  8  1  6
  8 14  1  0
 37 28  1  1
  4  5  1  0
 33 30  1  6
 30 38  1  0
 34 31  1  1
 31 39  1  0
 35 32  1  6
 32 40  1  0
 41 42  1  0
 41 43  1  0
 15 19  2  0
 16 22  2  0
 12 17  1  1
 17 19  1  0
 17 20  1  0
 18 19  1  0
 18 22  1  0
 18 23  1  0
  9 10  1  0
  9 11  1  0
 10 12  1  0
 11  5  1  1
 33 34  1  0
 33 35  1  0
 34 36  1  0
 35 37  1  0
 36 42  1  1
 20 21  2  0
 21 22  1  0
M  CHG  2   2  -1  26  -1
M  END
>  <COMPND>  (14) 
    8629 

>  <AUTHOR>  (14) 
    GENERATED BY OPEN BABEL 3.1.1

>  <MASTER>  (14) 
        0    0    0    0    0    0    0    0   58    0   58    0

>  <minimizedAffinity>  (14) 
-7.48889

>  <CNNscore>  (14) 
0.6500552297

>  <CNNaffinity>  (14) 
4.3718719482

>  <CNN_VS>  (14) 
2.8419582844

>  <CNNaffinity_variance>  (14) 
0.3343018889

$$$$
15
     RDKit          3D

 43 45  0  0  0  0  0  0  0  0999 V2000
   22.2505   73.3658   -4.9930 P   0  0  2  0  0  0  0  0  0  0  0  0
   22.2482   74.8331   -5.6746 O   0  0  0  0  0  0  0  0  0  0  0  0
   23.0350   72.3238   -5.7347 O   0  0  0  0  0  0  0  0  0  0  0  0
   20.6817   73.0383   -4.7708 O   0  0  0  0  0  0  0  0  0  0  0  0
   20.3301   71.9497   -3.9347 C   0  0  0  0  0  0  0  0  0  0  0  0
   18.2241   72.1889   -5.0666 O   0  0  0  0  0  0  0  0  0  0  0  0
   17.0185   70.7419   -2.7335 O   0  0  0  0  0  0  0  0  0  0  0  0
   17.1933   68.7826   -4.6222 O   0  0  0  0  0  0  0  0  0  0  0  0
   18.2866   70.5482   -3.3578 C   0  0  1  0  0  0  0  0  0  0  0  0
   18.1151   69.8513   -4.6914 C   0  0  2  0  0  0  0  0  0  0  0  0
   18.8161   71.9136   -3.7781 C   0  0  1  0  0  0  0  0  0  0  0  0
   17.6303   70.9849   -5.5792 C   0  0  2  0  0  0  0  0  0  0  0  0
   16.6604   69.8835   -2.4560 H   0  0  0  0  0  0  0  0  0  0  0  0
   17.5470   68.0871   -4.0461 H   0  0  0  0  0  0  0  0  0  0  0  0
   15.8928   70.1815   -7.6561 O   0  0  0  0  0  0  0  0  0  0  0  0
   19.2622   70.3681  -10.7951 O   0  0  0  0  0  0  0  0  0  0  0  0
   18.0269   70.8159   -6.9487 N   0  0  0  0  0  0  0  0  0  0  0  0
   17.5719   70.2752   -9.2174 N   0  0  0  0  0  0  0  0  0  0  0  0
   17.0768   70.4081   -7.9139 C   0  0  0  0  0  0  0  0  0  0  0  0
   19.3449   71.0541   -7.3230 C   0  0  0  0  0  0  0  0  0  0  0  0
   19.8013   70.9215   -8.5701 C   0  0  0  0  0  0  0  0  0  0  0  0
   18.8731   70.4991   -9.6387 C   0  0  0  0  0  0  0  0  0  0  0  0
   16.9281   69.9918   -9.9066 H   0  0  0  0  0  0  0  0  0  0  0  0
   22.7757   73.6625   -3.4933 O   0  0  0  0  0  0  0  0  0  0  0  0
   24.0573   74.4921   -2.9620 P   0  0  2  0  0  0  0  0  0  0  0  0
   23.4506   75.9623   -2.6654 O   0  0  0  0  0  0  0  0  0  0  0  0
   25.2285   74.4834   -3.9013 O   0  0  0  0  0  0  0  0  0  0  0  0
   24.3660   73.8764   -1.5024 O   0  0  0  0  0  0  0  0  0  0  0  0
   22.3690   73.1048   -0.4859 O   0  0  0  0  0  0  0  0  0  0  0  0
   24.9443   72.6817    2.7140 O   0  0  0  0  0  0  0  0  0  0  0  0
   23.9989   70.3459    1.3364 O   0  0  0  0  0  0  0  0  0  0  0  0
   25.1977   74.9615    0.9483 O   0  0  0  0  0  0  0  0  0  0  0  0
   24.5672   72.6692    1.3346 C   0  0  1  0  0  0  0  0  0  0  0  0
   23.4445   71.6457    1.1536 C   0  0  1  0  0  0  0  0  0  0  0  0
   24.0922   74.0647    0.9343 C   0  0  2  0  0  0  0  0  0  0  0  0
   22.8062   71.7637   -0.2370 C   0  0  1  0  0  0  0  0  0  0  0  0
   23.4293   74.0619   -0.4444 C   0  0  1  0  0  0  0  0  0  0  0  0
   25.2474   71.7986    2.9745 H   0  0  0  0  0  0  0  0  0  0  0  0
   24.3991   70.2848    2.2180 H   0  0  0  0  0  0  0  0  0  0  0  0
   25.6085   74.9544    1.8264 H   0  0  0  0  0  0  0  0  0  0  0  0
   21.1086   70.5343    0.9100 O   0  0  0  0  0  0  0  0  0  0  0  0
   21.5829   70.8614   -0.3832 C   0  0  0  0  0  0  0  0  0  0  0  0
   20.3298   69.9605    0.8326 H   0  0  0  0  0  0  0  0  0  0  0  0
 25 28  1  0
 25 24  1  0
 25 26  1  1
 25 27  2  0
  1  4  1  0
  1 24  1  0
  1  2  1  6
  1  3  2  0
  6 11  1  0
  6 12  1  0
 29 36  1  0
 29 37  1  0
  9  7  1  6
  7 13  1  0
 10  8  1  1
  8 14  1  0
 37 28  1  6
  4  5  1  0
 33 30  1  1
 30 38  1  0
 34 31  1  6
 31 39  1  0
 35 32  1  6
 32 40  1  0
 41 42  1  0
 41 43  1  0
 15 19  2  0
 16 22  2  0
 12 17  1  6
 17 19  1  0
 17 20  1  0
 18 19  1  0
 18 22  1  0
 18 23  1  0
  9 10  1  0
  9 11  1  0
 10 12  1  0
 11  5  1  6
 33 34  1  0
 33 35  1  0
 34 36  1  0
 35 37  1  0
 36 42  1  1
 20 21  2  0
 21 22  1  0
M  CHG  2   2  -1  26  -1
M  END
>  <COMPND>  (15) 
    8629 

>  <AUTHOR>  (15) 
    GENERATED BY OPEN BABEL 3.1.1

>  <MASTER>  (15) 
        0    0    0    0    0    0    0    0   58    0   58    0

>  <minimizedAffinity>  (15) 
-7.40307

>  <CNNscore>  (15) 
0.6473353505

>  <CNNaffinity>  (15) 
4.4239287376

>  <CNN_VS>  (15) 
2.8637654781

>  <CNNaffinity_variance>  (15) 
0.0568956360

$$$$
16
     RDKit          3D

 43 45  0  0  0  0  0  0  0  0999 V2000
   23.3645   71.8352   -3.3412 P   0  0  2  0  0  0  0  0  0  0  0  0
   24.0993   72.9947   -4.1974 O   0  0  0  0  0  0  0  0  0  0  0  0
   24.2533   70.7056   -2.9106 O   0  0  0  0  0  0  0  0  0  0  0  0
   22.0958   71.4216   -4.2563 O   0  0  0  0  0  0  0  0  0  0  0  0
   21.6418   72.3384   -5.2366 C   0  0  0  0  0  0  0  0  0  0  0  0
   20.5581   70.4103   -6.1759 O   0  0  0  0  0  0  0  0  0  0  0  0
   20.6985   71.8446   -8.8053 O   0  0  0  0  0  0  0  0  0  0  0  0
   18.1121   72.2523   -8.0432 O   0  0  0  0  0  0  0  0  0  0  0  0
   20.4785   72.3746   -7.4991 C   0  0  1  0  0  0  0  0  0  0  0  0
   19.0757   72.0505   -7.0296 C   0  0  2  0  0  0  0  0  0  0  0  0
   21.3333   71.5795   -6.5200 C   0  0  1  0  0  0  0  0  0  0  0  0
   19.2066   70.5908   -6.6295 C   0  0  2  0  0  0  0  0  0  0  0  0
   20.1633   72.3369   -9.4481 H   0  0  0  0  0  0  0  0  0  0  0  0
   18.0660   73.1959   -8.2626 H   0  0  0  0  0  0  0  0  0  0  0  0
   16.5292   69.7786   -7.0166 O   0  0  0  0  0  0  0  0  0  0  0  0
   15.8480   69.2332   -2.4912 O   0  0  0  0  0  0  0  0  0  0  0  0
   18.3071   70.2303   -5.5702 N   0  0  0  0  0  0  0  0  0  0  0  0
   16.1923   69.5075   -4.7630 N   0  0  0  0  0  0  0  0  0  0  0  0
   16.9822   69.8376   -5.8716 C   0  0  0  0  0  0  0  0  0  0  0  0
   18.7412   70.2681   -4.2496 C   0  0  0  0  0  0  0  0  0  0  0  0
   17.9750   69.9515   -3.2036 C   0  0  0  0  0  0  0  0  0  0  0  0
   16.5776   69.5306   -3.4320 C   0  0  0  0  0  0  0  0  0  0  0  0
   15.2655   69.2313   -4.9487 H   0  0  0  0  0  0  0  0  0  0  0  0
   22.6839   72.6563   -2.1265 O   0  0  0  0  0  0  0  0  0  0  0  0
   21.2794   72.4417   -1.3557 P   0  0  2  0  0  0  0  0  0  0  0  0
   21.0783   70.8368   -1.3908 O   0  0  0  0  0  0  0  0  0  0  0  0
   20.1346   73.2220   -1.9341 O   0  0  0  0  0  0  0  0  0  0  0  0
   21.6054   72.7780    0.1888 O   0  0  0  0  0  0  0  0  0  0  0  0
   22.9146   74.2310    1.5273 O   0  0  0  0  0  0  0  0  0  0  0  0
   24.2871   70.6062    2.9514 O   0  0  0  0  0  0  0  0  0  0  0  0
   22.5686   72.2166    4.5950 O   0  0  0  0  0  0  0  0  0  0  0  0
   23.7132   70.9262    0.1322 O   0  0  0  0  0  0  0  0  0  0  0  0
   23.3159   71.5190    2.4327 C   0  0  1  0  0  0  0  0  0  0  0  0
   23.1931   72.6929    3.4061 C   0  0  1  0  0  0  0  0  0  0  0  0
   23.7721   72.0056    1.0585 C   0  0  2  0  0  0  0  0  0  0  0  0
   22.3739   73.8370    2.7938 C   0  0  1  0  0  0  0  0  0  0  0  0
   22.9217   73.1766    0.5629 C   0  0  1  0  0  0  0  0  0  0  0  0
   24.0032   70.2931    3.8237 H   0  0  0  0  0  0  0  0  0  0  0  0
   23.0956   71.4942    4.9714 H   0  0  0  0  0  0  0  0  0  0  0  0
   24.2557   70.1914    0.4571 H   0  0  0  0  0  0  0  0  0  0  0  0
   21.5138   74.8402    4.7845 O   0  0  0  0  0  0  0  0  0  0  0  0
   22.3711   75.0783    3.6833 C   0  0  0  0  0  0  0  0  0  0  0  0
   21.5024   75.6218    5.3595 H   0  0  0  0  0  0  0  0  0  0  0  0
 25 28  1  0
 25 24  1  0
 25 26  1  1
 25 27  2  0
  1  4  1  0
  1 24  1  0
  1  2  1  6
  1  3  2  0
  6 11  1  0
  6 12  1  0
 29 36  1  0
 29 37  1  0
  9  7  1  6
  7 13  1  0
 10  8  1  6
  8 14  1  0
 37 28  1  1
  4  5  1  0
 33 30  1  1
 30 38  1  0
 34 31  1  1
 31 39  1  0
 35 32  1  6
 32 40  1  0
 41 42  1  0
 41 43  1  0
 15 19  2  0
 16 22  2  0
 12 17  1  1
 17 19  1  0
 17 20  1  0
 18 19  1  0
 18 22  1  0
 18 23  1  0
  9 10  1  0
  9 11  1  0
 10 12  1  0
 11  5  1  1
 33 34  1  0
 33 35  1  0
 34 36  1  0
 35 37  1  0
 36 42  1  1
 20 21  2  0
 21 22  1  0
M  CHG  2   2  -1  26  -1
M  END
>  <COMPND>  (16) 
    8629 

>  <AUTHOR>  (16) 
    GENERATED BY OPEN BABEL 3.1.1

>  <MASTER>  (16) 
        0    0    0    0    0    0    0    0   58    0   58    0

>  <minimizedAffinity>  (16) 
-7.44046

>  <CNNscore>  (16) 
0.6348047853

>  <CNNaffinity>  (16) 
4.3284673691

>  <CNN_VS>  (16) 
2.7477316856

>  <CNNaffinity_variance>  (16) 
0.1454284191

$$$$
17
     RDKit          3D

 43 45  0  0  0  0  0  0  0  0999 V2000
   21.7703   72.4184   -5.2517 P   0  0  2  0  0  0  0  0  0  0  0  0
   21.2905   73.8398   -4.6461 O   0  0  0  0  0  0  0  0  0  0  0  0
   22.8652   72.5023   -6.2743 O   0  0  0  0  0  0  0  0  0  0  0  0
   20.3960   71.7243   -5.7491 O   0  0  0  0  0  0  0  0  0  0  0  0
   20.0900   70.4211   -5.2845 C   0  0  0  0  0  0  0  0  0  0  0  0
   18.2056   71.6075   -4.3818 O   0  0  0  0  0  0  0  0  0  0  0  0
   17.8279   69.2499   -2.5680 O   0  0  0  0  0  0  0  0  0  0  0  0
   15.9463   68.8244   -4.4954 O   0  0  0  0  0  0  0  0  0  0  0  0
   18.2650   69.2828   -3.9256 C   0  0  1  0  0  0  0  0  0  0  0  0
   17.0970   69.5652   -4.8473 C   0  0  2  0  0  0  0  0  0  0  0  0
   19.1249   70.5267   -4.1117 C   0  0  1  0  0  0  0  0  0  0  0  0
   16.9071   71.0616   -4.6660 C   0  0  2  0  0  0  0  0  0  0  0  0
   17.2770   68.4638   -2.4248 H   0  0  0  0  0  0  0  0  0  0  0  0
   16.1171   67.8789   -4.6280 H   0  0  0  0  0  0  0  0  0  0  0  0
   17.2394   70.0721   -7.2905 O   0  0  0  0  0  0  0  0  0  0  0  0
   14.8537   73.5716   -9.1082 O   0  0  0  0  0  0  0  0  0  0  0  0
   16.3830   71.6939   -5.8436 N   0  0  0  0  0  0  0  0  0  0  0  0
   16.0511   71.8153   -8.1934 N   0  0  0  0  0  0  0  0  0  0  0  0
   16.6070   71.1156   -7.1148 C   0  0  0  0  0  0  0  0  0  0  0  0
   15.6556   72.8738   -5.7313 C   0  0  0  0  0  0  0  0  0  0  0  0
   15.1332   73.5293   -6.7698 C   0  0  0  0  0  0  0  0  0  0  0  0
   15.3216   72.9921   -8.1329 C   0  0  0  0  0  0  0  0  0  0  0  0
   16.1947   71.4314   -9.0888 H   0  0  0  0  0  0  0  0  0  0  0  0
   22.1485   71.5690   -3.9294 O   0  0  0  0  0  0  0  0  0  0  0  0
   23.3066   71.7869   -2.8229 P   0  0  2  0  0  0  0  0  0  0  0  0
   23.8296   73.2880   -3.1239 O   0  0  0  0  0  0  0  0  0  0  0  0
   24.3827   70.7402   -2.8441 O   0  0  0  0  0  0  0  0  0  0  0  0
   22.5153   71.9043   -1.4211 O   0  0  0  0  0  0  0  0  0  0  0  0
   24.1376   72.3176    0.2564 O   0  0  0  0  0  0  0  0  0  0  0  0
   20.7686   72.1052    2.6347 O   0  0  0  0  0  0  0  0  0  0  0  0
   22.0158   74.6495    2.1667 O   0  0  0  0  0  0  0  0  0  0  0  0
   21.0569   70.3175    0.3762 O   0  0  0  0  0  0  0  0  0  0  0  0
   21.5132   72.4219    1.4554 C   0  0  1  0  0  0  0  0  0  0  0  0
   22.6230   73.4031    1.8380 C   0  0  1  0  0  0  0  0  0  0  0  0
   22.1062   71.1374    0.8794 C   0  0  2  0  0  0  0  0  0  0  0  0
   23.6239   73.5829    0.6887 C   0  0  1  0  0  0  0  0  0  0  0  0
   23.1252   71.4305   -0.2232 C   0  0  1  0  0  0  0  0  0  0  0  0
   20.3890   72.9165    3.0051 H   0  0  0  0  0  0  0  0  0  0  0  0
   21.3858   74.5219    2.8933 H   0  0  0  0  0  0  0  0  0  0  0  0
   20.4186   70.1389    1.0837 H   0  0  0  0  0  0  0  0  0  0  0  0
   24.7774   74.6224    2.5046 O   0  0  0  0  0  0  0  0  0  0  0  0
   24.8230   74.4334    1.1023 C   0  0  0  0  0  0  0  0  0  0  0  0
   25.5348   75.1618    2.7823 H   0  0  0  0  0  0  0  0  0  0  0  0
 25 28  1  0
 25 24  1  0
 25 26  1  6
 25 27  2  0
  1  4  1  0
  1 24  1  0
  1  2  1  1
  1  3  2  0
  6 11  1  0
  6 12  1  0
 29 36  1  0
 29 37  1  0
  9  7  1  1
  7 13  1  0
 10  8  1  1
  8 14  1  0
 37 28  1  6
  4  5  1  0
 33 30  1  1
 30 38  1  0
 34 31  1  6
 31 39  1  0
 35 32  1  6
 32 40  1  0
 41 42  1  0
 41 43  1  0
 15 19  2  0
 16 22  2  0
 12 17  1  6
 17 19  1  0
 17 20  1  0
 18 19  1  0
 18 22  1  0
 18 23  1  0
  9 10  1  0
  9 11  1  0
 10 12  1  0
 11  5  1  6
 33 34  1  0
 33 35  1  0
 34 36  1  0
 35 37  1  0
 36 42  1  1
 20 21  2  0
 21 22  1  0
M  CHG  2   2  -1  26  -1
M  END
>  <COMPND>  (17) 
    8629 

>  <AUTHOR>  (17) 
    GENERATED BY OPEN BABEL 3.1.1

>  <MASTER>  (17) 
        0    0    0    0    0    0    0    0   58    0   58    0

>  <minimizedAffinity>  (17) 
-7.42493

>  <CNNscore>  (17) 
0.5908637047

>  <CNNaffinity>  (17) 
4.3545513153

>  <CNN_VS>  (17) 
2.5729463100

>  <CNNaffinity_variance>  (17) 
0.0412278995

$$$$
18
     RDKit          3D

 43 45  0  0  0  0  0  0  0  0999 V2000
   20.2840   72.3683   -4.9461 P   0  0  2  0  0  0  0  0  0  0  0  0
   20.2897   73.9102   -4.4561 O   0  0  0  0  0  0  0  0  0  0  0  0
   21.6417   71.7630   -5.1498 O   0  0  0  0  0  0  0  0  0  0  0  0
   19.3166   72.3766   -6.2430 O   0  0  0  0  0  0  0  0  0  0  0  0
   19.8809   72.0837   -7.5093 C   0  0  0  0  0  0  0  0  0  0  0  0
   18.6541   70.0994   -6.9339 O   0  0  0  0  0  0  0  0  0  0  0  0
   18.0248   69.8667   -9.8563 O   0  0  0  0  0  0  0  0  0  0  0  0
   15.7285   70.9265   -8.8364 O   0  0  0  0  0  0  0  0  0  0  0  0
   18.1478   71.0374   -9.0504 C   0  0  1  0  0  0  0  0  0  0  0  0
   16.9373   71.1874   -8.1527 C   0  0  2  0  0  0  0  0  0  0  0  0
   19.2641   70.7974   -8.0415 C   0  0  1  0  0  0  0  0  0  0  0  0
   17.2246   70.1682   -7.0634 C   0  0  2  0  0  0  0  0  0  0  0  0
   17.3180   69.9962  -10.5086 H   0  0  0  0  0  0  0  0  0  0  0  0
   15.5905   71.6018   -9.5188 H   0  0  0  0  0  0  0  0  0  0  0  0
   16.7610   68.3794   -4.9272 O   0  0  0  0  0  0  0  0  0  0  0  0
   15.0499   71.7236   -2.2570 O   0  0  0  0  0  0  0  0  0  0  0  0
   16.6593   70.5445   -5.7984 N   0  0  0  0  0  0  0  0  0  0  0  0
   15.9095   70.0460   -3.5993 N   0  0  0  0  0  0  0  0  0  0  0  0
   16.4669   69.5689   -4.7925 C   0  0  0  0  0  0  0  0  0  0  0  0
   16.3026   71.8682   -5.5651 C   0  0  0  0  0  0  0  0  0  0  0  0
   15.7710   72.3068   -4.4221 C   0  0  0  0  0  0  0  0  0  0  0  0
   15.5372   71.3514   -3.3200 C   0  0  0  0  0  0  0  0  0  0  0  0
   15.7660   69.3842   -2.8844 H   0  0  0  0  0  0  0  0  0  0  0  0
   19.3814   71.6338   -3.8242 O   0  0  0  0  0  0  0  0  0  0  0  0
   19.7665   70.5311   -2.7068 P   0  0  2  0  0  0  0  0  0  0  0  0
   20.7659   69.5346   -3.4979 O   0  0  0  0  0  0  0  0  0  0  0  0
   18.5839   69.8520   -2.0790 O   0  0  0  0  0  0  0  0  0  0  0  0
   20.7159   71.3186   -1.6659 O   0  0  0  0  0  0  0  0  0  0  0  0
   22.9766   71.5904   -2.3232 O   0  0  0  0  0  0  0  0  0  0  0  0
   23.3485   72.4627    1.6957 O   0  0  0  0  0  0  0  0  0  0  0  0
   23.5450   74.5768   -0.2383 O   0  0  0  0  0  0  0  0  0  0  0  0
   21.5551   70.3600    0.8345 O   0  0  0  0  0  0  0  0  0  0  0  0
   22.6982   72.4396    0.4222 C   0  0  1  0  0  0  0  0  0  0  0  0
   23.5763   73.1935   -0.5785 C   0  0  1  0  0  0  0  0  0  0  0  0
   22.5087   70.9884   -0.0153 C   0  0  2  0  0  0  0  0  0  0  0  0
   23.0816   72.9855   -2.0163 C   0  0  1  0  0  0  0  0  0  0  0  0
   22.0625   70.8923   -1.4754 C   0  0  1  0  0  0  0  0  0  0  0  0
   23.4714   73.3814    1.9795 H   0  0  0  0  0  0  0  0  0  0  0  0
   23.8593   74.6943    0.6720 H   0  0  0  0  0  0  0  0  0  0  0  0
   21.8492   70.4274    1.7558 H   0  0  0  0  0  0  0  0  0  0  0  0
   24.2816   72.6380   -4.0529 O   0  0  0  0  0  0  0  0  0  0  0  0
   24.0325   73.5978   -3.0425 C   0  0  0  0  0  0  0  0  0  0  0  0
   24.8852   73.0139   -4.7133 H   0  0  0  0  0  0  0  0  0  0  0  0
 25 28  1  0
 25 24  1  0
 25 26  1  6
 25 27  2  0
  1  4  1  0
  1 24  1  0
  1  2  1  1
  1  3  2  0
  6 11  1  0
  6 12  1  0
 29 36  1  0
 29 37  1  0
  9  7  1  6
  7 13  1  0
 10  8  1  6
  8 14  1  0
 37 28  1  1
  4  5  1  0
 33 30  1  1
 30 38  1  0
 34 31  1  1
 31 39  1  0
 35 32  1  1
 32 40  1  0
 41 42  1  0
 41 43  1  0
 15 19  2  0
 16 22  2  0
 12 17  1  1
 17 19  1  0
 17 20  1  0
 18 19  1  0
 18 22  1  0
 18 23  1  0
  9 10  1  0
  9 11  1  0
 10 12  1  0
 11  5  1  1
 33 34  1  0
 33 35  1  0
 34 36  1  0
 35 37  1  0
 36 42  1  6
 20 21  2  0
 21 22  1  0
M  CHG  2   2  -1  26  -1
M  END
>  <COMPND>  (18) 
    8629 

>  <AUTHOR>  (18) 
    GENERATED BY OPEN BABEL 3.1.1

>  <MASTER>  (18) 
        0    0    0    0    0    0    0    0   58    0   58    0

>  <minimizedAffinity>  (18) 
-7.56874

>  <CNNscore>  (18) 
0.5765807629

>  <CNNaffinity>  (18) 
4.3864293098

>  <CNN_VS>  (18) 
2.5291306973

>  <CNNaffinity_variance>  (18) 
0.2645019889

$$$$
19
     RDKit          3D

 43 45  0  0  0  0  0  0  0  0999 V2000
   21.7387   72.3521   -5.6835 P   0  0  2  0  0  0  0  0  0  0  0  0
   20.8650   73.7088   -5.5674 O   0  0  0  0  0  0  0  0  0  0  0  0
   23.0914   72.5211   -6.3103 O   0  0  0  0  0  0  0  0  0  0  0  0
   20.7453   71.3127   -6.4257 O   0  0  0  0  0  0  0  0  0  0  0  0
   19.9870   71.7738   -7.5304 C   0  0  0  0  0  0  0  0  0  0  0  0
   18.5968   69.8637   -7.0914 O   0  0  0  0  0  0  0  0  0  0  0  0
   17.9041   69.9321  -10.0079 O   0  0  0  0  0  0  0  0  0  0  0  0
   15.7277   71.1005   -8.8526 O   0  0  0  0  0  0  0  0  0  0  0  0
   18.1437   71.0161   -9.1119 C   0  0  1  0  0  0  0  0  0  0  0  0
   16.9655   71.1962   -8.1776 C   0  0  2  0  0  0  0  0  0  0  0  0
   19.2496   70.5956   -8.1518 C   0  0  1  0  0  0  0  0  0  0  0  0
   17.1774   70.0683   -7.1822 C   0  0  2  0  0  0  0  0  0  0  0  0
   17.2017   70.1772  -10.6312 H   0  0  0  0  0  0  0  0  0  0  0  0
   15.6402   71.8399   -9.4741 H   0  0  0  0  0  0  0  0  0  0  0  0
   16.6008   68.1559   -5.1851 O   0  0  0  0  0  0  0  0  0  0  0  0
   15.2243   71.4015   -2.2165 O   0  0  0  0  0  0  0  0  0  0  0  0
   16.6676   70.3858   -5.8780 N   0  0  0  0  0  0  0  0  0  0  0  0
   15.9161   69.7735   -3.7086 N   0  0  0  0  0  0  0  0  0  0  0  0
   16.4107   69.3508   -4.9490 C   0  0  0  0  0  0  0  0  0  0  0  0
   16.4281   71.7110   -5.5314 C   0  0  0  0  0  0  0  0  0  0  0  0
   15.9550   72.0975   -4.3448 C   0  0  0  0  0  0  0  0  0  0  0  0
   15.6602   71.0781   -3.3171 C   0  0  0  0  0  0  0  0  0  0  0  0
   15.7293   69.0698   -3.0455 H   0  0  0  0  0  0  0  0  0  0  0  0
   21.7655   71.8058   -4.1624 O   0  0  0  0  0  0  0  0  0  0  0  0
   20.6331   71.0605   -3.2819 P   0  0  2  0  0  0  0  0  0  0  0  0
   20.8210   69.5030   -3.6774 O   0  0  0  0  0  0  0  0  0  0  0  0
   19.2437   71.5894   -3.4916 O   0  0  0  0  0  0  0  0  0  0  0  0
   21.1652   71.1622   -1.7616 O   0  0  0  0  0  0  0  0  0  0  0  0
   21.4562   72.9791   -0.2681 O   0  0  0  0  0  0  0  0  0  0  0  0
   24.9080   70.8746    0.5727 O   0  0  0  0  0  0  0  0  0  0  0  0
   22.7654   70.9063    2.4848 O   0  0  0  0  0  0  0  0  0  0  0  0
   23.9413   71.0340   -2.1512 O   0  0  0  0  0  0  0  0  0  0  0  0
   23.5303   71.0315    0.2221 C   0  0  1  0  0  0  0  0  0  0  0  0
   22.8281   71.7770    1.3586 C   0  0  1  0  0  0  0  0  0  0  0  0
   23.4339   71.8233   -1.0807 C   0  0  2  0  0  0  0  0  0  0  0  0
   21.4176   72.2171    0.9442 C   0  0  1  0  0  0  0  0  0  0  0  0
   21.9957   72.2539   -1.3747 C   0  0  1  0  0  0  0  0  0  0  0  0
   24.9763   70.3723    1.3988 H   0  0  0  0  0  0  0  0  0  0  0  0
   23.6624   70.6355    2.7360 H   0  0  0  0  0  0  0  0  0  0  0  0
   24.8523   70.7680   -1.9531 H   0  0  0  0  0  0  0  0  0  0  0  0
   20.2834   72.2664    3.0466 O   0  0  0  0  0  0  0  0  0  0  0  0
   20.7587   73.0976    2.0038 C   0  0  0  0  0  0  0  0  0  0  0  0
   19.8618   72.8133    3.7284 H   0  0  0  0  0  0  0  0  0  0  0  0
 25 28  1  0
 25 24  1  0
 25 26  1  6
 25 27  2  0
  1  4  1  0
  1 24  1  0
  1  2  1  1
  1  3  2  0
  6 11  1  0
  6 12  1  0
 29 36  1  0
 29 37  1  0
  9  7  1  6
  7 13  1  0
 10  8  1  6
  8 14  1  0
 37 28  1  1
  4  5  1  0
 33 30  1  1
 30 38  1  0
 34 31  1  1
 31 39  1  0
 35 32  1  6
 32 40  1  0
 41 42  1  0
 41 43  1  0
 15 19  2  0
 16 22  2  0
 12 17  1  1
 17 19  1  0
 17 20  1  0
 18 19  1  0
 18 22  1  0
 18 23  1  0
  9 10  1  0
  9 11  1  0
 10 12  1  0
 11  5  1  1
 33 34  1  0
 33 35  1  0
 34 36  1  0
 35 37  1  0
 36 42  1  1
 20 21  2  0
 21 22  1  0
M  CHG  2   2  -1  26  -1
M  END
>  <COMPND>  (19) 
    8629 

>  <AUTHOR>  (19) 
    GENERATED BY OPEN BABEL 3.1.1

>  <MASTER>  (19) 
        0    0    0    0    0    0    0    0   58    0   58    0

>  <minimizedAffinity>  (19) 
-7.82957

>  <CNNscore>  (19) 
0.5362082124

>  <CNNaffinity>  (19) 
4.3855943680

>  <CNN_VS>  (19) 
2.3515918255

>  <CNNaffinity_variance>  (19) 
0.4146887660

$$$$
20
     RDKit          3D

 43 45  0  0  0  0  0  0  0  0999 V2000
   21.2295   75.4472   -3.2622 P   0  0  2  0  0  0  0  0  0  0  0  0
   21.4384   76.0789   -1.7875 O   0  0  0  0  0  0  0  0  0  0  0  0
   20.5822   76.3637   -4.2584 O   0  0  0  0  0  0  0  0  0  0  0  0
   20.4549   74.0545   -2.9820 O   0  0  0  0  0  0  0  0  0  0  0  0
   19.6702   73.4963   -4.0214 C   0  0  0  0  0  0  0  0  0  0  0  0
   18.1133   71.7437   -4.5490 O   0  0  0  0  0  0  0  0  0  0  0  0
   19.1706   70.3304   -2.1250 O   0  0  0  0  0  0  0  0  0  0  0  0
   20.4585   69.0577   -4.1642 O   0  0  0  0  0  0  0  0  0  0  0  0
   19.8643   71.1452   -3.0686 C   0  0  1  0  0  0  0  0  0  0  0  0
   20.0545   70.3959   -4.3708 C   0  0  2  0  0  0  0  0  0  0  0  0
   18.9330   72.2766   -3.4857 C   0  0  1  0  0  0  0  0  0  0  0  0
   18.6749   70.4998   -4.9986 C   0  0  2  0  0  0  0  0  0  0  0  0
   19.7456   69.6010   -1.8436 H   0  0  0  0  0  0  0  0  0  0  0  0
   21.3416   69.0446   -3.7633 H   0  0  0  0  0  0  0  0  0  0  0  0
   16.5896   69.5848   -6.6696 O   0  0  0  0  0  0  0  0  0  0  0  0
   18.9779   70.5557  -10.4899 O   0  0  0  0  0  0  0  0  0  0  0  0
   18.7249   70.5024   -6.4335 N   0  0  0  0  0  0  0  0  0  0  0  0
   17.7804   70.0692   -8.5704 N   0  0  0  0  0  0  0  0  0  0  0  0
   17.6242   70.0201   -7.1793 C   0  0  0  0  0  0  0  0  0  0  0  0
   19.8560   70.9797   -7.0866 C   0  0  0  0  0  0  0  0  0  0  0  0
   19.9898   71.0185   -8.4140 C   0  0  0  0  0  0  0  0  0  0  0  0
   18.8854   70.5332   -9.2665 C   0  0  0  0  0  0  0  0  0  0  0  0
   17.0265   69.7380   -9.1105 H   0  0  0  0  0  0  0  0  0  0  0  0
   22.7179   74.9607   -3.6634 O   0  0  0  0  0  0  0  0  0  0  0  0
   23.7507   73.9718   -2.9097 P   0  0  2  0  0  0  0  0  0  0  0  0
   24.9354   74.9655   -2.4335 O   0  0  0  0  0  0  0  0  0  0  0  0
   24.2129   72.8126   -3.7444 O   0  0  0  0  0  0  0  0  0  0  0  0
   22.9954   73.5548   -1.5457 O   0  0  0  0  0  0  0  0  0  0  0  0
   23.6878   73.6387    0.7193 O   0  0  0  0  0  0  0  0  0  0  0  0
   21.6133   70.0691    0.7952 O   0  0  0  0  0  0  0  0  0  0  0  0
   20.4910   72.3886    2.0634 O   0  0  0  0  0  0  0  0  0  0  0  0
   23.2183   70.7576   -1.5133 O   0  0  0  0  0  0  0  0  0  0  0  0
   21.8821   71.4113    0.3810 C   0  0  1  0  0  0  0  0  0  0  0  0
   21.8420   72.3119    1.6172 C   0  0  1  0  0  0  0  0  0  0  0  0
   23.2591   71.4640   -0.2781 C   0  0  2  0  0  0  0  0  0  0  0  0
   22.3802   73.7134    1.2993 C   0  0  1  0  0  0  0  0  0  0  0  0
   23.7215   72.9043   -0.5060 C   0  0  1  0  0  0  0  0  0  0  0  0
   20.7401   70.0287    1.2141 H   0  0  0  0  0  0  0  0  0  0  0  0
   20.1630   71.4971    2.2602 H   0  0  0  0  0  0  0  0  0  0  0  0
   22.9245   69.8473   -1.3555 H   0  0  0  0  0  0  0  0  0  0  0  0
   21.1998   75.0079    2.9241 O   0  0  0  0  0  0  0  0  0  0  0  0
   22.4967   74.5791    2.5520 C   0  0  0  0  0  0  0  0  0  0  0  0
   21.2584   75.5597    3.7202 H   0  0  0  0  0  0  0  0  0  0  0  0
 25 28  1  0
 25 24  1  0
 25 26  1  1
 25 27  2  0
  1  4  1  0
  1 24  1  0
  1  2  1  1
  1  3  2  0
  6 11  1  0
  6 12  1  0
 29 36  1  0
 29 37  1  0
  9  7  1  1
  7 13  1  0
 10  8  1  1
  8 14  1  0
 37 28  1  6
  4  5  1  0
 33 30  1  1
 30 38  1  0
 34 31  1  6
 31 39  1  0
 35 32  1  6
 32 40  1  0
 41 42  1  0
 41 43  1  0
 15 19  2  0
 16 22  2  0
 12 17  1  6
 17 19  1  0
 17 20  1  0
 18 19  1  0
 18 22  1  0
 18 23  1  0
  9 10  1  0
  9 11  1  0
 10 12  1  0
 11  5  1  6
 33 34  1  0
 33 35  1  0
 34 36  1  0
 35 37  1  0
 36 42  1  1
 20 21  2  0
 21 22  1  0
M  CHG  2   2  -1  26  -1
M  END
>  <COMPND>  (20) 
    8629 

>  <AUTHOR>  (20) 
    GENERATED BY OPEN BABEL 3.1.1

>  <MASTER>  (20) 
        0    0    0    0    0    0    0    0   58    0   58    0

>  <minimizedAffinity>  (20) 
-6.52891

>  <CNNscore>  (20) 
0.5092915893

>  <CNNaffinity>  (20) 
4.2853231430

>  <CNN_VS>  (20) 
2.1824791431

>  <CNNaffinity_variance>  (20) 
0.1136432514

$$$$
21
     RDKit          3D

 43 45  0  0  0  0  0  0  0  0999 V2000
   23.0908   71.6320   -2.5357 P   0  0  2  0  0  0  0  0  0  0  0  0
   23.3960   73.1659   -2.1217 O   0  0  0  0  0  0  0  0  0  0  0  0
   24.2476   70.8988   -3.1485 O   0  0  0  0  0  0  0  0  0  0  0  0
   21.7598   71.7340   -3.4501 O   0  0  0  0  0  0  0  0  0  0  0  0
   20.9643   70.5734   -3.6179 C   0  0  0  0  0  0  0  0  0  0  0  0
   18.9577   71.5434   -4.5158 O   0  0  0  0  0  0  0  0  0  0  0  0
   17.5087   70.1347   -2.3007 O   0  0  0  0  0  0  0  0  0  0  0  0
   17.0366   68.5157   -4.4437 O   0  0  0  0  0  0  0  0  0  0  0  0
   18.6402   69.7043   -3.0555 C   0  0  1  0  0  0  0  0  0  0  0  0
   18.2164   69.2933   -4.4502 C   0  0  2  0  0  0  0  0  0  0  0  0
   19.5101   70.9238   -3.3338 C   0  0  1  0  0  0  0  0  0  0  0  0
   18.0265   70.6382   -5.1309 C   0  0  2  0  0  0  0  0  0  0  0  0
   16.9383   69.3729   -2.1105 H   0  0  0  0  0  0  0  0  0  0  0  0
   17.2087   67.6705   -4.0001 H   0  0  0  0  0  0  0  0  0  0  0  0
   16.1396   69.8567   -7.0820 O   0  0  0  0  0  0  0  0  0  0  0  0
   19.1625   70.4554  -10.5092 O   0  0  0  0  0  0  0  0  0  0  0  0
   18.2934   70.5811   -6.5405 N   0  0  0  0  0  0  0  0  0  0  0  0
   17.6462   70.1556   -8.7869 N   0  0  0  0  0  0  0  0  0  0  0  0
   17.2769   70.1745   -7.4359 C   0  0  0  0  0  0  0  0  0  0  0  0
   19.5515   70.9263   -7.0220 C   0  0  0  0  0  0  0  0  0  0  0  0
   19.8881   70.9017   -8.3133 C   0  0  0  0  0  0  0  0  0  0  0  0
   18.8838   70.4884   -9.3145 C   0  0  0  0  0  0  0  0  0  0  0  0
   16.9543   69.8752   -9.4291 H   0  0  0  0  0  0  0  0  0  0  0  0
   22.5382   70.9873   -1.1602 O   0  0  0  0  0  0  0  0  0  0  0  0
   21.5894   71.6030   -0.0054 P   0  0  2  0  0  0  0  0  0  0  0  0
   21.0765   70.2917    0.7916 O   0  0  0  0  0  0  0  0  0  0  0  0
   20.4887   72.4855   -0.5188 O   0  0  0  0  0  0  0  0  0  0  0  0
   22.6071   72.3285    1.0158 O   0  0  0  0  0  0  0  0  0  0  0  0
   24.3525   71.7768    2.5211 O   0  0  0  0  0  0  0  0  0  0  0  0
   21.9489   73.9623    5.0701 O   0  0  0  0  0  0  0  0  0  0  0  0
   24.4209   75.0888    4.1381 O   0  0  0  0  0  0  0  0  0  0  0  0
   20.7501   72.1954    3.1155 O   0  0  0  0  0  0  0  0  0  0  0  0
   22.5553   73.6264    3.8191 C   0  0  1  0  0  0  0  0  0  0  0  0
   24.0738   73.7156    3.9829 C   0  0  1  0  0  0  0  0  0  0  0  0
   22.1390   72.2099    3.4271 C   0  0  2  0  0  0  0  0  0  0  0  0
   24.7980   73.1151    2.7705 C   0  0  1  0  0  0  0  0  0  0  0  0
   22.9538   71.6895    2.2416 C   0  0  1  0  0  0  0  0  0  0  0  0
   22.2088   74.8608    5.3245 H   0  0  0  0  0  0  0  0  0  0  0  0
   23.9566   75.4561    4.9067 H   0  0  0  0  0  0  0  0  0  0  0  0
   20.2452   72.5268    3.8739 H   0  0  0  0  0  0  0  0  0  0  0  0
   26.8149   74.3719    3.0179 O   0  0  0  0  0  0  0  0  0  0  0  0
   26.3091   73.0502    2.9813 C   0  0  0  0  0  0  0  0  0  0  0  0
   27.7757   74.3462    3.1519 H   0  0  0  0  0  0  0  0  0  0  0  0
 25 28  1  0
 25 24  1  0
 25 26  1  1
 25 27  2  0
  1  4  1  0
  1 24  1  0
  1  2  1  1
  1  3  2  0
  6 11  1  0
  6 12  1  0
 29 36  1  0
 29 37  1  0
  9  7  1  1
  7 13  1  0
 10  8  1  1
  8 14  1  0
 37 28  1  6
  4  5  1  0
 33 30  1  1
 30 38  1  0
 34 31  1  6
 31 39  1  0
 35 32  1  6
 32 40  1  0
 41 42  1  0
 41 43  1  0
 15 19  2  0
 16 22  2  0
 12 17  1  6
 17 19  1  0
 17 20  1  0
 18 19  1  0
 18 22  1  0
 18 23  1  0
  9 10  1  0
  9 11  1  0
 10 12  1  0
 11  5  1  6
 33 34  1  0
 33 35  1  0
 34 36  1  0
 35 37  1  0
 36 42  1  1
 20 21  2  0
 21 22  1  0
M  CHG  2   2  -1  26  -1
M  END
>  <COMPND>  (21) 
    8629 

>  <AUTHOR>  (21) 
    GENERATED BY OPEN BABEL 3.1.1

>  <MASTER>  (21) 
        0    0    0    0    0    0    0    0   58    0   58    0

>  <minimizedAffinity>  (21) 
-7.90654

>  <CNNscore>  (21) 
0.9303268194

>  <CNNaffinity>  (21) 
4.7744431496

>  <CNN_VS>  (21) 
4.4417924881

>  <CNNaffinity_variance>  (21) 
0.0589015968

$$$$
22
     RDKit          3D

 43 45  0  0  0  0  0  0  0  0999 V2000
   21.3752   72.1162   -4.6858 P   0  0  2  0  0  0  0  0  0  0  0  0
   20.5509   73.5022   -4.5562 O   0  0  0  0  0  0  0  0  0  0  0  0
   22.4484   72.1127   -5.7345 O   0  0  0  0  0  0  0  0  0  0  0  0
   20.2228   70.9933   -4.8561 O   0  0  0  0  0  0  0  0  0  0  0  0
   19.5740   70.5086   -3.6934 C   0  0  0  0  0  0  0  0  0  0  0  0
   17.8448   71.4961   -5.0381 O   0  0  0  0  0  0  0  0  0  0  0  0
   15.9011   70.1456   -3.1973 O   0  0  0  0  0  0  0  0  0  0  0  0
   15.9008   68.5008   -5.3724 O   0  0  0  0  0  0  0  0  0  0  0  0
   17.1668   69.6854   -3.6679 C   0  0  1  0  0  0  0  0  0  0  0  0
   17.0654   69.2594   -5.1177 C   0  0  2  0  0  0  0  0  0  0  0  0
   18.1004   70.8864   -3.7539 C   0  0  1  0  0  0  0  0  0  0  0  0
   17.0619   70.5962   -5.8394 C   0  0  2  0  0  0  0  0  0  0  0  0
   15.2879   69.3960   -3.1338 H   0  0  0  0  0  0  0  0  0  0  0  0
   15.9507   67.6600   -4.8914 H   0  0  0  0  0  0  0  0  0  0  0  0
   15.6006   70.7921   -8.2486 O   0  0  0  0  0  0  0  0  0  0  0  0
   19.3964   70.2602  -10.8080 O   0  0  0  0  0  0  0  0  0  0  0  0
   17.6430   70.5128   -7.1497 N   0  0  0  0  0  0  0  0  0  0  0  0
   17.4918   70.5273   -9.5210 N   0  0  0  0  0  0  0  0  0  0  0  0
   16.8207   70.6225   -8.2952 C   0  0  0  0  0  0  0  0  0  0  0  0
   19.0138   70.3246   -7.2891 C   0  0  0  0  0  0  0  0  0  0  0  0
   19.6382   70.2346   -8.4652 C   0  0  0  0  0  0  0  0  0  0  0  0
   18.8517   70.3391   -9.7112 C   0  0  0  0  0  0  0  0  0  0  0  0
   16.9393   70.6005  -10.3329 H   0  0  0  0  0  0  0  0  0  0  0  0
   21.9058   71.8667   -3.1794 O   0  0  0  0  0  0  0  0  0  0  0  0
   23.3969   71.9170   -2.5572 P   0  0  2  0  0  0  0  0  0  0  0  0
   23.9576   73.3513   -3.0530 O   0  0  0  0  0  0  0  0  0  0  0  0
   24.2614   70.7495   -2.9360 O   0  0  0  0  0  0  0  0  0  0  0  0
   23.1709   72.0945   -0.9690 O   0  0  0  0  0  0  0  0  0  0  0  0
   24.2654   70.7688    0.6624 O   0  0  0  0  0  0  0  0  0  0  0  0
   20.8755   71.7744    2.7952 O   0  0  0  0  0  0  0  0  0  0  0  0
   23.3924   72.9736    3.4848 O   0  0  0  0  0  0  0  0  0  0  0  0
   20.6824   71.1952   -0.0344 O   0  0  0  0  0  0  0  0  0  0  0  0
   21.9386   71.9863    1.8622 C   0  0  1  0  0  0  0  0  0  0  0  0
   23.2666   71.8555    2.6106 C   0  0  1  0  0  0  0  0  0  0  0  0
   21.8427   70.9429    0.7507 C   0  0  2  0  0  0  0  0  0  0  0  0
   24.4498   71.8046    1.6345 C   0  0  1  0  0  0  0  0  0  0  0  0
   23.0912   70.9428   -0.1332 C   0  0  1  0  0  0  0  0  0  0  0  0
   20.9304   72.4340    3.5033 H   0  0  0  0  0  0  0  0  0  0  0  0
   22.6389   72.9944    4.0955 H   0  0  0  0  0  0  0  0  0  0  0  0
   19.8988   71.1924    0.5365 H   0  0  0  0  0  0  0  0  0  0  0  0
   26.2516   72.7250    2.9054 O   0  0  0  0  0  0  0  0  0  0  0  0
   25.7684   71.5163    2.3488 C   0  0  0  0  0  0  0  0  0  0  0  0
   27.0904   72.5568    3.3635 H   0  0  0  0  0  0  0  0  0  0  0  0
 25 28  1  0
 25 24  1  0
 25 26  1  6
 25 27  2  0
  1  4  1  0
  1 24  1  0
  1  2  1  1
  1  3  2  0
  6 11  1  0
  6 12  1  0
 29 36  1  0
 29 37  1  0
  9  7  1  6
  7 13  1  0
 10  8  1  1
  8 14  1  0
 37 28  1  1
  4  5  1  0
 33 30  1  1
 30 38  1  0
 34 31  1  1
 31 39  1  0
 35 32  1  6
 32 40  1  0
 41 42  1  0
 41 43  1  0
 15 19  2  0
 16 22  2  0
 12 17  1  6
 17 19  1  0
 17 20  1  0
 18 19  1  0
 18 22  1  0
 18 23  1  0
  9 10  1  0
  9 11  1  0
 10 12  1  0
 11  5  1  6
 33 34  1  0
 33 35  1  0
 34 36  1  0
 35 37  1  0
 36 42  1  1
 20 21  2  0
 21 22  1  0
M  CHG  2   2  -1  26  -1
M  END
>  <COMPND>  (22) 
    8629 

>  <AUTHOR>  (22) 
    GENERATED BY OPEN BABEL 3.1.1

>  <MASTER>  (22) 
        0    0    0    0    0    0    0    0   58    0   58    0

>  <minimizedAffinity>  (22) 
-8.36757

>  <CNNscore>  (22) 
0.9153568745

>  <CNNaffinity>  (22) 
4.8502249718

>  <CNN_VS>  (22) 
4.4396867752

>  <CNNaffinity_variance>  (22) 
0.0695302859

$$$$
23
     RDKit          3D

 43 45  0  0  0  0  0  0  0  0999 V2000
   20.9018   71.9559   -2.8099 P   0  0  2  0  0  0  0  0  0  0  0  0
   21.8699   70.9371   -2.0086 O   0  0  0  0  0  0  0  0  0  0  0  0
   19.9518   72.7362   -1.9496 O   0  0  0  0  0  0  0  0  0  0  0  0
   20.2201   71.0297   -3.9481 O   0  0  0  0  0  0  0  0  0  0  0  0
   19.3803   69.9642   -3.5392 C   0  0  0  0  0  0  0  0  0  0  0  0
   17.7500   71.2168   -4.7829 O   0  0  0  0  0  0  0  0  0  0  0  0
   15.6791   69.7462   -3.1892 O   0  0  0  0  0  0  0  0  0  0  0  0
   15.6635   68.4063   -5.5643 O   0  0  0  0  0  0  0  0  0  0  0  0
   16.9336   69.2818   -3.6851 C   0  0  1  0  0  0  0  0  0  0  0  0
   16.8574   69.0578   -5.1809 C   0  0  2  0  0  0  0  0  0  0  0  0
   17.9312   70.4291   -3.5858 C   0  0  1  0  0  0  0  0  0  0  0  0
   16.9475   70.4764   -5.7170 C   0  0  2  0  0  0  0  0  0  0  0  0
   15.0257   69.0305   -3.2422 H   0  0  0  0  0  0  0  0  0  0  0  0
   15.6535   67.5079   -5.1990 H   0  0  0  0  0  0  0  0  0  0  0  0
   15.5355   70.4392   -8.1630 O   0  0  0  0  0  0  0  0  0  0  0  0
   19.4243   70.7026  -10.6225 O   0  0  0  0  0  0  0  0  0  0  0  0
   17.5658   70.5345   -7.0115 N   0  0  0  0  0  0  0  0  0  0  0  0
   17.4729   70.5706   -9.3857 N   0  0  0  0  0  0  0  0  0  0  0  0
   16.7662   70.5086   -8.1779 C   0  0  0  0  0  0  0  0  0  0  0  0
   18.9501   70.6165   -7.1152 C   0  0  0  0  0  0  0  0  0  0  0  0
   19.6088   70.6735   -8.2746 C   0  0  0  0  0  0  0  0  0  0  0  0
   18.8478   70.6516   -9.5404 C   0  0  0  0  0  0  0  0  0  0  0  0
   16.9367   70.5536  -10.2115 H   0  0  0  0  0  0  0  0  0  0  0  0
   21.9434   72.8599   -3.6529 O   0  0  0  0  0  0  0  0  0  0  0  0
   23.5049   73.1937   -3.4010 P   0  0  2  0  0  0  0  0  0  0  0  0
   24.2461   71.8050   -3.7747 O   0  0  0  0  0  0  0  0  0  0  0  0
   23.8100   73.7074   -2.0237 O   0  0  0  0  0  0  0  0  0  0  0  0
   23.9046   74.2033   -4.5951 O   0  0  0  0  0  0  0  0  0  0  0  0
   23.7366   76.5594   -4.7876 O   0  0  0  0  0  0  0  0  0  0  0  0
   22.7003   75.5069   -8.6436 O   0  0  0  0  0  0  0  0  0  0  0  0
   25.2625   76.7026   -8.1402 O   0  0  0  0  0  0  0  0  0  0  0  0
   21.7893   73.9009   -6.4142 O   0  0  0  0  0  0  0  0  0  0  0  0
   23.4052   75.3869   -7.4051 C   0  0  1  0  0  0  0  0  0  0  0  0
   24.2072   76.6708   -7.1833 C   0  0  1  0  0  0  0  0  0  0  0  0
   22.3980   75.1802   -6.2754 C   0  0  2  0  0  0  0  0  0  0  0  0
   24.7753   76.7301   -5.7590 C   0  0  1  0  0  0  0  0  0  0  0  0
   23.0570   75.3075   -4.9008 C   0  0  1  0  0  0  0  0  0  0  0  0
   23.3342   75.6378   -9.3652 H   0  0  0  0  0  0  0  0  0  0  0  0
   24.8903   76.6641   -9.0353 H   0  0  0  0  0  0  0  0  0  0  0  0
   21.3754   73.8330   -7.2883 H   0  0  0  0  0  0  0  0  0  0  0  0
   26.7969   77.9982   -5.8778 O   0  0  0  0  0  0  0  0  0  0  0  0
   25.4445   78.0711   -5.4655 C   0  0  0  0  0  0  0  0  0  0  0  0
   27.2354   78.8449   -5.6974 H   0  0  0  0  0  0  0  0  0  0  0  0
 25 28  1  0
 25 24  1  0
 25 26  1  6
 25 27  2  0
  1  4  1  0
  1 24  1  0
  1  2  1  1
  1  3  2  0
  6 11  1  0
  6 12  1  0
 29 36  1  0
 29 37  1  0
  9  7  1  6
  7 13  1  0
 10  8  1  1
  8 14  1  0
 37 28  1  6
  4  5  1  0
 33 30  1  6
 30 38  1  0
 34 31  1  6
 31 39  1  0
 35 32  1  6
 32 40  1  0
 41 42  1  0
 41 43  1  0
 15 19  2  0
 16 22  2  0
 12 17  1  6
 17 19  1  0
 17 20  1  0
 18 19  1  0
 18 22  1  0
 18 23  1  0
  9 10  1  0
  9 11  1  0
 10 12  1  0
 11  5  1  6
 33 34  1  0
 33 35  1  0
 34 36  1  0
 35 37  1  0
 36 42  1  1
 20 21  2  0
 21 22  1  0
M  CHG  2   2  -1  26  -1
M  END
>  <COMPND>  (23) 
    8629 

>  <AUTHOR>  (23) 
    GENERATED BY OPEN BABEL 3.1.1

>  <MASTER>  (23) 
        0    0    0    0    0    0    0    0   58    0   58    0

>  <minimizedAffinity>  (23) 
-6.97582

>  <CNNscore>  (23) 
0.8976445794

>  <CNNaffinity>  (23) 
4.7274246216

>  <CNN_VS>  (23) 
4.2435469627

>  <CNNaffinity_variance>  (23) 
0.2212242335

$$$$
24
     RDKit          3D

 43 45  0  0  0  0  0  0  0  0999 V2000
   20.6378   71.8935   -2.3333 P   0  0  2  0  0  0  0  0  0  0  0  0
   19.5643   72.6075   -1.3558 O   0  0  0  0  0  0  0  0  0  0  0  0
   20.8735   72.5972   -3.6374 O   0  0  0  0  0  0  0  0  0  0  0  0
   20.1085   70.3685   -2.4434 O   0  0  0  0  0  0  0  0  0  0  0  0
   19.4971   69.9505   -3.6514 C   0  0  0  0  0  0  0  0  0  0  0  0
   17.8707   71.2154   -4.8878 O   0  0  0  0  0  0  0  0  0  0  0  0
   15.8003   69.8304   -3.2187 O   0  0  0  0  0  0  0  0  0  0  0  0
   15.7012   68.4404   -5.5627 O   0  0  0  0  0  0  0  0  0  0  0  0
   17.0323   69.3250   -3.7305 C   0  0  1  0  0  0  0  0  0  0  0  0
   16.9183   69.0706   -5.2191 C   0  0  2  0  0  0  0  0  0  0  0  0
   18.0589   70.4495   -3.6777 C   0  0  1  0  0  0  0  0  0  0  0  0
   17.0307   70.4748   -5.7882 C   0  0  2  0  0  0  0  0  0  0  0  0
   15.1290   69.1298   -3.2421 H   0  0  0  0  0  0  0  0  0  0  0  0
   15.6777   67.5505   -5.1776 H   0  0  0  0  0  0  0  0  0  0  0  0
   15.5644   70.4772   -8.2023 O   0  0  0  0  0  0  0  0  0  0  0  0
   19.4055   70.5316  -10.7487 O   0  0  0  0  0  0  0  0  0  0  0  0
   17.6220   70.4898   -7.0965 N   0  0  0  0  0  0  0  0  0  0  0  0
   17.4781   70.5045   -9.4683 N   0  0  0  0  0  0  0  0  0  0  0  0
   16.7963   70.4887   -8.2448 C   0  0  0  0  0  0  0  0  0  0  0  0
   19.0060   70.5058   -7.2312 C   0  0  0  0  0  0  0  0  0  0  0  0
   19.6407   70.5194   -8.4052 C   0  0  0  0  0  0  0  0  0  0  0  0
   18.8515   70.5194   -9.6538 C   0  0  0  0  0  0  0  0  0  0  0  0
   16.9235   70.5036  -10.2820 H   0  0  0  0  0  0  0  0  0  0  0  0
   21.9478   71.7567   -1.3962 O   0  0  0  0  0  0  0  0  0  0  0  0
   22.0984   71.3913    0.1712 P   0  0  2  0  0  0  0  0  0  0  0  0
   23.6714   71.0440    0.3217 O   0  0  0  0  0  0  0  0  0  0  0  0
   21.1763   70.3035    0.6408 O   0  0  0  0  0  0  0  0  0  0  0  0
   21.9166   72.7996    0.9383 O   0  0  0  0  0  0  0  0  0  0  0  0
   21.2420   72.6741    3.2067 O   0  0  0  0  0  0  0  0  0  0  0  0
   20.4063   76.6537    2.4891 O   0  0  0  0  0  0  0  0  0  0  0  0
   22.6568   75.9508    4.1289 O   0  0  0  0  0  0  0  0  0  0  0  0
   19.8925   74.6776    0.4371 O   0  0  0  0  0  0  0  0  0  0  0  0
   21.1368   75.4313    2.3567 C   0  0  1  0  0  0  0  0  0  0  0  0
   21.6459   75.0246    3.7410 C   0  0  1  0  0  0  0  0  0  0  0  0
   20.2128   74.3568    1.7866 C   0  0  2  0  0  0  0  0  0  0  0  0
   22.2066   73.5961    3.7274 C   0  0  1  0  0  0  0  0  0  0  0  0
   20.8469   72.9669    1.8650 C   0  0  1  0  0  0  0  0  0  0  0  0
   20.9875   77.3403    2.8502 H   0  0  0  0  0  0  0  0  0  0  0  0
   22.2899   76.8488    4.1330 H   0  0  0  0  0  0  0  0  0  0  0  0
   19.4915   75.5595    0.4010 H   0  0  0  0  0  0  0  0  0  0  0  0
   23.6912   73.8561    5.5813 O   0  0  0  0  0  0  0  0  0  0  0  0
   22.5747   73.1128    5.1285 C   0  0  0  0  0  0  0  0  0  0  0  0
   23.9366   73.5595    6.4721 H   0  0  0  0  0  0  0  0  0  0  0  0
 25 28  1  0
 25 24  1  0
 25 26  1  6
 25 27  2  0
  1  4  1  0
  1 24  1  0
  1  2  1  1
  1  3  2  0
  6 11  1  0
  6 12  1  0
 29 36  1  0
 29 37  1  0
  9  7  1  6
  7 13  1  0
 10  8  1  1
  8 14  1  0
 37 28  1  6
  4  5  1  0
 33 30  1  1
 30 38  1  0
 34 31  1  6
 31 39  1  0
 35 32  1  6
 32 40  1  0
 41 42  1  0
 41 43  1  0
 15 19  2  0
 16 22  2  0
 12 17  1  6
 17 19  1  0
 17 20  1  0
 18 19  1  0
 18 22  1  0
 18 23  1  0
  9 10  1  0
  9 11  1  0
 10 12  1  0
 11  5  1  6
 33 34  1  0
 33 35  1  0
 34 36  1  0
 35 37  1  0
 36 42  1  1
 20 21  2  0
 21 22  1  0
M  CHG  2   2  -1  26  -1
M  END
>  <COMPND>  (24) 
    8629 

>  <AUTHOR>  (24) 
    GENERATED BY OPEN BABEL 3.1.1

>  <MASTER>  (24) 
        0    0    0    0    0    0    0    0   58    0   58    0

>  <minimizedAffinity>  (24) 
-7.15111

>  <CNNscore>  (24) 
0.8974273801

>  <CNNaffinity>  (24) 
4.5078859329

>  <CNN_VS>  (24) 
4.0455002785

>  <CNNaffinity_variance>  (24) 
0.0826590732

$$$$
25
     RDKit          3D

 43 45  0  0  0  0  0  0  0  0999 V2000
   22.1596   71.3067   -1.8546 P   0  0  2  0  0  0  0  0  0  0  0  0
   21.7578   72.8729   -1.9092 O   0  0  0  0  0  0  0  0  0  0  0  0
   23.5787   71.0028   -2.2357 O   0  0  0  0  0  0  0  0  0  0  0  0
   21.0216   70.5824   -2.7480 O   0  0  0  0  0  0  0  0  0  0  0  0
   20.5009   71.2739   -3.8698 C   0  0  0  0  0  0  0  0  0  0  0  0
   18.4449   71.8662   -4.9634 O   0  0  0  0  0  0  0  0  0  0  0  0
   17.0584   70.4409   -2.7190 O   0  0  0  0  0  0  0  0  0  0  0  0
   16.9687   68.6057   -4.7341 O   0  0  0  0  0  0  0  0  0  0  0  0
   18.2889   70.1219   -3.3668 C   0  0  1  0  0  0  0  0  0  0  0  0
   18.0249   69.5443   -4.7417 C   0  0  2  0  0  0  0  0  0  0  0  0
   18.9957   71.4295   -3.7015 C   0  0  1  0  0  0  0  0  0  0  0  0
   17.6953   70.7888   -5.5484 C   0  0  2  0  0  0  0  0  0  0  0  0
   16.5891   69.6214   -2.4952 H   0  0  0  0  0  0  0  0  0  0  0  0
   17.2268   67.8325   -4.2084 H   0  0  0  0  0  0  0  0  0  0  0  0
   15.8801   70.2368   -7.6409 O   0  0  0  0  0  0  0  0  0  0  0  0
   19.2258   70.3148  -10.8098 O   0  0  0  0  0  0  0  0  0  0  0  0
   18.0647   70.6599   -6.9298 N   0  0  0  0  0  0  0  0  0  0  0  0
   17.5475   70.2763   -9.2170 N   0  0  0  0  0  0  0  0  0  0  0  0
   17.0763   70.3806   -7.9021 C   0  0  0  0  0  0  0  0  0  0  0  0
   19.3943   70.8104   -7.3085 C   0  0  0  0  0  0  0  0  0  0  0  0
   19.8275   70.7066   -8.5666 C   0  0  0  0  0  0  0  0  0  0  0  0
   18.8587   70.4163   -9.6432 C   0  0  0  0  0  0  0  0  0  0  0  0
   16.8768   70.0817   -9.9114 H   0  0  0  0  0  0  0  0  0  0  0  0
   21.7624   70.8820   -0.3463 O   0  0  0  0  0  0  0  0  0  0  0  0
   22.0441   71.6082    1.0701 P   0  0  2  0  0  0  0  0  0  0  0  0
   23.0071   70.5602    1.8394 O   0  0  0  0  0  0  0  0  0  0  0  0
   20.8030   71.9804    1.8284 O   0  0  0  0  0  0  0  0  0  0  0  0
   23.0047   72.8534    0.7068 O   0  0  0  0  0  0  0  0  0  0  0  0
   22.8330   74.2528    2.6117 O   0  0  0  0  0  0  0  0  0  0  0  0
   25.6027   76.4204    0.4482 O   0  0  0  0  0  0  0  0  0  0  0  0
   26.4430   74.9783    2.7854 O   0  0  0  0  0  0  0  0  0  0  0  0
   23.4131   75.1066   -0.9153 O   0  0  0  0  0  0  0  0  0  0  0  0
   24.9610   75.2348    0.9256 C   0  0  1  0  0  0  0  0  0  0  0  0
   25.0770   75.2077    2.4509 C   0  0  1  0  0  0  0  0  0  0  0  0
   23.4946   75.2543    0.4982 C   0  0  2  0  0  0  0  0  0  0  0  0
   24.1879   74.1123    3.0547 C   0  0  1  0  0  0  0  0  0  0  0  0
   22.6890   74.1552    1.1934 C   0  0  1  0  0  0  0  0  0  0  0  0
   26.5343   76.4140    0.7158 H   0  0  0  0  0  0  0  0  0  0  0  0
   26.9937   75.6766    2.3977 H   0  0  0  0  0  0  0  0  0  0  0  0
   23.9268   75.8084   -1.3437 H   0  0  0  0  0  0  0  0  0  0  0  0
   24.6041   75.4527    4.9884 O   0  0  0  0  0  0  0  0  0  0  0  0
   24.1665   74.1696    4.5806 C   0  0  0  0  0  0  0  0  0  0  0  0
   24.5954   75.5039    5.9574 H   0  0  0  0  0  0  0  0  0  0  0  0
 25 28  1  0
 25 24  1  0
 25 26  1  1
 25 27  2  0
  1  4  1  0
  1 24  1  0
  1  2  1  1
  1  3  2  0
  6 11  1  0
  6 12  1  0
 29 36  1  0
 29 37  1  0
  9  7  1  6
  7 13  1  0
 10  8  1  1
  8 14  1  0
 37 28  1  6
  4  5  1  0
 33 30  1  1
 30 38  1  0
 34 31  1  6
 31 39  1  0
 35 32  1  6
 32 40  1  0
 41 42  1  0
 41 43  1  0
 15 19  2  0
 16 22  2  0
 12 17  1  6
 17 19  1  0
 17 20  1  0
 18 19  1  0
 18 22  1  0
 18 23  1  0
  9 10  1  0
  9 11  1  0
 10 12  1  0
 11  5  1  6
 33 34  1  0
 33 35  1  0
 34 36  1  0
 35 37  1  0
 36 42  1  1
 20 21  2  0
 21 22  1  0
M  CHG  2   2  -1  26  -1
M  END
>  <COMPND>  (25) 
    8629 

>  <AUTHOR>  (25) 
    GENERATED BY OPEN BABEL 3.1.1

>  <MASTER>  (25) 
        0    0    0    0    0    0    0    0   58    0   58    0

>  <minimizedAffinity>  (25) 
-6.72659

>  <CNNscore>  (25) 
0.8699256778

>  <CNNaffinity>  (25) 
4.6598229408

>  <CNN_VS>  (25) 
4.0536994934

>  <CNNaffinity_variance>  (25) 
0.1680476516

$$$$
26
     RDKit          3D

 43 45  0  0  0  0  0  0  0  0999 V2000
   20.2369   72.0502   -1.6552 P   0  0  2  0  0  0  0  0  0  0  0  0
   20.4228   70.6009   -0.9607 O   0  0  0  0  0  0  0  0  0  0  0  0
   19.3068   72.9828   -0.9364 O   0  0  0  0  0  0  0  0  0  0  0  0
   19.8383   71.7003   -3.1838 O   0  0  0  0  0  0  0  0  0  0  0  0
   19.1525   70.4877   -3.4430 C   0  0  0  0  0  0  0  0  0  0  0  0
   17.4711   71.4473   -4.8663 O   0  0  0  0  0  0  0  0  0  0  0  0
   15.4824   69.8843   -3.2561 O   0  0  0  0  0  0  0  0  0  0  0  0
   15.7482   68.3677   -5.5068 O   0  0  0  0  0  0  0  0  0  0  0  0
   16.8061   69.5258   -3.6492 C   0  0  1  0  0  0  0  0  0  0  0  0
   16.8408   69.1771   -5.1225 C   0  0  2  0  0  0  0  0  0  0  0  0
   17.6668   70.7820   -3.5992 C   0  0  1  0  0  0  0  0  0  0  0  0
   16.8082   70.5501   -5.7721 C   0  0  2  0  0  0  0  0  0  0  0  0
   14.9141   69.0979   -3.2798 H   0  0  0  0  0  0  0  0  0  0  0  0
   15.8141   67.5055   -5.0675 H   0  0  0  0  0  0  0  0  0  0  0  0
   15.5156   70.5738   -8.2834 O   0  0  0  0  0  0  0  0  0  0  0  0
   19.5266   70.6431  -10.5524 O   0  0  0  0  0  0  0  0  0  0  0  0
   17.4903   70.5748   -7.0353 N   0  0  0  0  0  0  0  0  0  0  0  0
   17.5138   70.6085   -9.4111 N   0  0  0  0  0  0  0  0  0  0  0  0
   16.7475   70.5839   -8.2389 C   0  0  0  0  0  0  0  0  0  0  0  0
   18.8803   70.5899   -7.0721 C   0  0  0  0  0  0  0  0  0  0  0  0
   19.5961   70.6120   -8.1983 C   0  0  0  0  0  0  0  0  0  0  0  0
   18.8968   70.6230   -9.4994 C   0  0  0  0  0  0  0  0  0  0  0  0
   17.0178   70.6149  -10.2618 H   0  0  0  0  0  0  0  0  0  0  0  0
   21.7560   72.5863   -1.7895 O   0  0  0  0  0  0  0  0  0  0  0  0
   23.0607   72.3199   -0.8732 P   0  0  2  0  0  0  0  0  0  0  0  0
   23.9346   73.6669   -1.0712 O   0  0  0  0  0  0  0  0  0  0  0  0
   23.7945   71.0518   -1.2012 O   0  0  0  0  0  0  0  0  0  0  0  0
   22.5183   72.4053    0.6445 O   0  0  0  0  0  0  0  0  0  0  0  0
   21.9729   74.5482    1.4972 O   0  0  0  0  0  0  0  0  0  0  0  0
   22.3094   72.4869    5.0593 O   0  0  0  0  0  0  0  0  0  0  0  0
   19.7131   73.2707    4.1144 O   0  0  0  0  0  0  0  0  0  0  0  0
   24.1362   71.9220    2.8859 O   0  0  0  0  0  0  0  0  0  0  0  0
   21.9826   72.6552    3.6771 C   0  0  1  0  0  0  0  0  0  0  0  0
   20.9321   73.7618    3.5640 C   0  0  1  0  0  0  0  0  0  0  0  0
   23.2469   73.0334    2.9078 C   0  0  2  0  0  0  0  0  0  0  0  0
   20.7271   74.1837    2.1028 C   0  0  1  0  0  0  0  0  0  0  0  0
   22.9266   73.4842    1.4815 C   0  0  1  0  0  0  0  0  0  0  0  0
   21.5110   72.2462    5.5533 H   0  0  0  0  0  0  0  0  0  0  0  0
   19.8564   73.0073    5.0370 H   0  0  0  0  0  0  0  0  0  0  0  0
   24.3314   71.6464    3.7947 H   0  0  0  0  0  0  0  0  0  0  0  0
   19.1343   75.3233    0.7342 O   0  0  0  0  0  0  0  0  0  0  0  0
   19.8014   75.3921    1.9810 C   0  0  0  0  0  0  0  0  0  0  0  0
   18.5414   76.0861    0.6429 H   0  0  0  0  0  0  0  0  0  0  0  0
 25 28  1  0
 25 24  1  0
 25 26  1  1
 25 27  2  0
  1  4  1  0
  1 24  1  0
  1  2  1  1
  1  3  2  0
  6 11  1  0
  6 12  1  0
 29 36  1  0
 29 37  1  0
  9  7  1  6
  7 13  1  0
 10  8  1  6
  8 14  1  0
 37 28  1  6
  4  5  1  0
 33 30  1  1
 30 38  1  0
 34 31  1  6
 31 39  1  0
 35 32  1  6
 32 40  1  0
 41 42  1  0
 41 43  1  0
 15 19  2  0
 16 22  2  0
 12 17  1  6
 17 19  1  0
 17 20  1  0
 18 19  1  0
 18 22  1  0
 18 23  1  0
  9 10  1  0
  9 11  1  0
 10 12  1  0
 11  5  1  6
 33 34  1  0
 33 35  1  0
 34 36  1  0
 35 37  1  0
 36 42  1  1
 20 21  2  0
 21 22  1  0
M  CHG  2   2  -1  26  -1
M  END
>  <COMPND>  (26) 
    8629 

>  <AUTHOR>  (26) 
    GENERATED BY OPEN BABEL 3.1.1

>  <MASTER>  (26) 
        0    0    0    0    0    0    0    0   58    0   58    0

>  <minimizedAffinity>  (26) 
-7.14568

>  <CNNscore>  (26) 
0.8512459993

>  <CNNaffinity>  (26) 
4.4897203445

>  <CNN_VS>  (26) 
3.8218564987

>  <CNNaffinity_variance>  (26) 
0.0333991908

$$$$
27
     RDKit          3D

 43 45  0  0  0  0  0  0  0  0999 V2000
   21.4904   71.6656   -3.9069 P   0  0  2  0  0  0  0  0  0  0  0  0
   21.7497   71.7663   -5.5006 O   0  0  0  0  0  0  0  0  0  0  0  0
   22.1033   70.4697   -3.2394 O   0  0  0  0  0  0  0  0  0  0  0  0
   19.8845   71.8032   -3.7651 O   0  0  0  0  0  0  0  0  0  0  0  0
   19.1357   70.6525   -3.4142 C   0  0  0  0  0  0  0  0  0  0  0  0
   17.4684   71.5738   -4.8789 O   0  0  0  0  0  0  0  0  0  0  0  0
   15.4597   70.0883   -3.2208 O   0  0  0  0  0  0  0  0  0  0  0  0
   15.7210   68.4877   -5.4132 O   0  0  0  0  0  0  0  0  0  0  0  0
   16.7818   69.7041   -3.5949 C   0  0  1  0  0  0  0  0  0  0  0  0
   16.8192   69.3012   -5.0543 C   0  0  2  0  0  0  0  0  0  0  0  0
   17.6533   70.9538   -3.5874 C   0  0  1  0  0  0  0  0  0  0  0  0
   16.8013   70.6497   -5.7540 C   0  0  2  0  0  0  0  0  0  0  0  0
   14.8846   69.3065   -3.2181 H   0  0  0  0  0  0  0  0  0  0  0  0
   15.7775   67.6417   -4.9423 H   0  0  0  0  0  0  0  0  0  0  0  0
   15.5188   70.6050   -8.2702 O   0  0  0  0  0  0  0  0  0  0  0  0
   19.5391   70.5426  -10.5228 O   0  0  0  0  0  0  0  0  0  0  0  0
   17.4885   70.6219   -7.0143 N   0  0  0  0  0  0  0  0  0  0  0  0
   17.5217   70.5741   -9.3898 N   0  0  0  0  0  0  0  0  0  0  0  0
   16.7506   70.6000   -8.2207 C   0  0  0  0  0  0  0  0  0  0  0  0
   18.8788   70.6170   -7.0455 C   0  0  0  0  0  0  0  0  0  0  0  0
   19.5991   70.5909   -8.1688 C   0  0  0  0  0  0  0  0  0  0  0  0
   18.9051   70.5669   -9.4725 C   0  0  0  0  0  0  0  0  0  0  0  0
   17.0291   70.5582  -10.2424 H   0  0  0  0  0  0  0  0  0  0  0  0
   22.0266   73.0893   -3.3607 O   0  0  0  0  0  0  0  0  0  0  0  0
   23.5220   73.6963   -3.2692 P   0  0  2  0  0  0  0  0  0  0  0  0
   23.2891   75.2864   -3.4554 O   0  0  0  0  0  0  0  0  0  0  0  0
   24.4913   73.0940   -4.2448 O   0  0  0  0  0  0  0  0  0  0  0  0
   23.9387   73.5241   -1.7195 O   0  0  0  0  0  0  0  0  0  0  0  0
   22.0174   73.2989   -0.3504 O   0  0  0  0  0  0  0  0  0  0  0  0
   24.8904   73.6410    2.5957 O   0  0  0  0  0  0  0  0  0  0  0  0
   23.6520   71.0954    2.1116 O   0  0  0  0  0  0  0  0  0  0  0  0
   25.0990   75.2285    0.1841 O   0  0  0  0  0  0  0  0  0  0  0  0
   24.3665   73.2390    1.3271 C   0  0  1  0  0  0  0  0  0  0  0  0
   23.1667   72.3219    1.5726 C   0  0  1  0  0  0  0  0  0  0  0  0
   23.9426   74.4813    0.5457 C   0  0  2  0  0  0  0  0  0  0  0  0
   22.3909   72.0649    0.2737 C   0  0  1  0  0  0  0  0  0  0  0  0
   23.1358   74.1160   -0.7016 C   0  0  1  0  0  0  0  0  0  0  0  0
   25.1619   72.8569    3.0966 H   0  0  0  0  0  0  0  0  0  0  0  0
   24.1403   71.2718    2.9311 H   0  0  0  0  0  0  0  0  0  0  0  0
   25.6009   75.4539    0.9823 H   0  0  0  0  0  0  0  0  0  0  0  0
   21.4452   69.9825    0.9649 O   0  0  0  0  0  0  0  0  0  0  0  0
   21.1030   71.2828    0.5220 C   0  0  0  0  0  0  0  0  0  0  0  0
   20.6352   69.4733    1.1272 H   0  0  0  0  0  0  0  0  0  0  0  0
 25 28  1  0
 25 24  1  0
 25 26  1  6
 25 27  2  0
  1  4  1  0
  1 24  1  0
  1  2  1  6
  1  3  2  0
  6 11  1  0
  6 12  1  0
 29 36  1  0
 29 37  1  0
  9  7  1  6
  7 13  1  0
 10  8  1  6
  8 14  1  0
 37 28  1  6
  4  5  1  0
 33 30  1  1
 30 38  1  0
 34 31  1  6
 31 39  1  0
 35 32  1  6
 32 40  1  0
 41 42  1  0
 41 43  1  0
 15 19  2  0
 16 22  2  0
 12 17  1  6
 17 19  1  0
 17 20  1  0
 18 19  1  0
 18 22  1  0
 18 23  1  0
  9 10  1  0
  9 11  1  0
 10 12  1  0
 11  5  1  6
 33 34  1  0
 33 35  1  0
 34 36  1  0
 35 37  1  0
 36 42  1  1
 20 21  2  0
 21 22  1  0
M  CHG  2   2  -1  26  -1
M  END
>  <COMPND>  (27) 
    8629 

>  <AUTHOR>  (27) 
    GENERATED BY OPEN BABEL 3.1.1

>  <MASTER>  (27) 
        0    0    0    0    0    0    0    0   58    0   58    0

>  <minimizedAffinity>  (27) 
-7.75529

>  <CNNscore>  (27) 
0.8214293718

>  <CNNaffinity>  (27) 
4.6160736084

>  <CNN_VS>  (27) 
3.7917783260

>  <CNNaffinity_variance>  (27) 
0.0635201186

$$$$
28
     RDKit          3D

 43 45  0  0  0  0  0  0  0  0999 V2000
   22.7422   72.8229   -4.3811 P   0  0  2  0  0  0  0  0  0  0  0  0
   23.1704   73.5416   -5.7659 O   0  0  0  0  0  0  0  0  0  0  0  0
   23.7688   71.8916   -3.8065 O   0  0  0  0  0  0  0  0  0  0  0  0
   21.3032   72.1627   -4.7150 O   0  0  0  0  0  0  0  0  0  0  0  0
   20.8139   71.1414   -3.8633 C   0  0  0  0  0  0  0  0  0  0  0  0
   18.7352   71.8550   -4.8345 O   0  0  0  0  0  0  0  0  0  0  0  0
   17.4011   70.4822   -2.5266 O   0  0  0  0  0  0  0  0  0  0  0  0
   17.0993   68.6763   -4.5476 O   0  0  0  0  0  0  0  0  0  0  0  0
   18.5743   70.1046   -3.2453 C   0  0  1  0  0  0  0  0  0  0  0  0
   18.2029   69.5568   -4.6075 C   0  0  2  0  0  0  0  0  0  0  0  0
   19.3312   71.3758   -3.6092 C   0  0  1  0  0  0  0  0  0  0  0  0
   17.8967   70.8259   -5.3846 C   0  0  2  0  0  0  0  0  0  0  0  0
   16.9013   69.6867   -2.2830 H   0  0  0  0  0  0  0  0  0  0  0  0
   17.3441   67.8847   -4.0433 H   0  0  0  0  0  0  0  0  0  0  0  0
   15.9284   70.5877   -7.3963 O   0  0  0  0  0  0  0  0  0  0  0  0
   19.1030   70.3169  -10.7264 O   0  0  0  0  0  0  0  0  0  0  0  0
   18.1808   70.6922   -6.7856 N   0  0  0  0  0  0  0  0  0  0  0  0
   17.5107   70.4532   -9.0528 N   0  0  0  0  0  0  0  0  0  0  0  0
   17.1196   70.5783   -7.7137 C   0  0  0  0  0  0  0  0  0  0  0  0
   19.4995   70.6753   -7.2268 C   0  0  0  0  0  0  0  0  0  0  0  0
   19.8558   70.5541   -8.5072 C   0  0  0  0  0  0  0  0  0  0  0  0
   18.8077   70.4300   -9.5408 C   0  0  0  0  0  0  0  0  0  0  0  0
   16.7884   70.3721   -9.7173 H   0  0  0  0  0  0  0  0  0  0  0  0
   22.3571   74.0704   -3.4281 O   0  0  0  0  0  0  0  0  0  0  0  0
   23.1043   74.6884   -2.1347 P   0  0  2  0  0  0  0  0  0  0  0  0
   22.4324   76.1522   -1.9822 O   0  0  0  0  0  0  0  0  0  0  0  0
   24.6020   74.7020   -2.2373 O   0  0  0  0  0  0  0  0  0  0  0  0
   22.5270   73.8430   -0.8868 O   0  0  0  0  0  0  0  0  0  0  0  0
   23.4579   73.8026    1.2923 O   0  0  0  0  0  0  0  0  0  0  0  0
   21.7865   70.0274    1.2187 O   0  0  0  0  0  0  0  0  0  0  0  0
   20.5799   72.0813    2.8230 O   0  0  0  0  0  0  0  0  0  0  0  0
   23.0410   71.0978   -1.1604 O   0  0  0  0  0  0  0  0  0  0  0  0
   21.8663   71.4231    0.9170 C   0  0  1  0  0  0  0  0  0  0  0  0
   21.8727   72.1992    2.2355 C   0  0  1  0  0  0  0  0  0  0  0  0
   23.1473   71.6911    0.1292 C   0  0  2  0  0  0  0  0  0  0  0  0
   22.2234   73.6757    2.0076 C   0  0  1  0  0  0  0  0  0  0  0  0
   23.4292   73.1893    0.0020 C   0  0  1  0  0  0  0  0  0  0  0  0
   20.9751   69.8505    1.7185 H   0  0  0  0  0  0  0  0  0  0  0  0
   20.3705   71.1441    2.9612 H   0  0  0  0  0  0  0  0  0  0  0  0
   22.8628   70.1495   -1.0662 H   0  0  0  0  0  0  0  0  0  0  0  0
   21.1297   74.5034    3.9640 O   0  0  0  0  0  0  0  0  0  0  0  0
   22.3900   74.4337    3.3228 C   0  0  0  0  0  0  0  0  0  0  0  0
   21.2204   74.9829    4.8028 H   0  0  0  0  0  0  0  0  0  0  0  0
 25 28  1  0
 25 24  1  0
 25 26  1  1
 25 27  2  0
  1  4  1  0
  1 24  1  0
  1  2  1  6
  1  3  2  0
  6 11  1  0
  6 12  1  0
 29 36  1  0
 29 37  1  0
  9  7  1  1
  7 13  1  0
 10  8  1  1
  8 14  1  0
 37 28  1  6
  4  5  1  0
 33 30  1  1
 30 38  1  0
 34 31  1  6
 31 39  1  0
 35 32  1  6
 32 40  1  0
 41 42  1  0
 41 43  1  0
 15 19  2  0
 16 22  2  0
 12 17  1  6
 17 19  1  0
 17 20  1  0
 18 19  1  0
 18 22  1  0
 18 23  1  0
  9 10  1  0
  9 11  1  0
 10 12  1  0
 11  5  1  6
 33 34  1  0
 33 35  1  0
 34 36  1  0
 35 37  1  0
 36 42  1  1
 20 21  2  0
 21 22  1  0
M  CHG  2   2  -1  26  -1
M  END
>  <COMPND>  (28) 
    8629 

>  <AUTHOR>  (28) 
    GENERATED BY OPEN BABEL 3.1.1

>  <MASTER>  (28) 
        0    0    0    0    0    0    0    0   58    0   58    0

>  <minimizedAffinity>  (28) 
-7.59891

>  <CNNscore>  (28) 
0.8052205443

>  <CNNaffinity>  (28) 
4.6326208115

>  <CNN_VS>  (28) 
3.7302813530

>  <CNNaffinity_variance>  (28) 
0.0450116582

$$$$
29
     RDKit          3D

 43 45  0  0  0  0  0  0  0  0999 V2000
   21.2110   71.7147   -1.4764 P   0  0  2  0  0  0  0  0  0  0  0  0
   22.5926   70.9077   -1.2375 O   0  0  0  0  0  0  0  0  0  0  0  0
   20.6583   72.3990   -0.2608 O   0  0  0  0  0  0  0  0  0  0  0  0
   20.2391   70.6237   -2.1715 O   0  0  0  0  0  0  0  0  0  0  0  0
   19.8350   70.8356   -3.5130 C   0  0  0  0  0  0  0  0  0  0  0  0
   18.0981   71.8651   -4.8157 O   0  0  0  0  0  0  0  0  0  0  0  0
   16.1714   70.6330   -2.8766 O   0  0  0  0  0  0  0  0  0  0  0  0
   16.0248   68.9453   -5.0136 O   0  0  0  0  0  0  0  0  0  0  0  0
   17.3994   70.1120   -3.3825 C   0  0  1  0  0  0  0  0  0  0  0  0
   17.2275   69.6608   -4.8179 C   0  0  2  0  0  0  0  0  0  0  0  0
   18.3764   71.2719   -3.5284 C   0  0  1  0  0  0  0  0  0  0  0  0
   17.2507   70.9817   -5.5683 C   0  0  2  0  0  0  0  0  0  0  0  0
   15.5314   69.9105   -2.7746 H   0  0  0  0  0  0  0  0  0  0  0  0
   16.0588   68.1133   -4.5163 H   0  0  0  0  0  0  0  0  0  0  0  0
   15.7437   70.1544   -7.8094 O   0  0  0  0  0  0  0  0  0  0  0  0
   19.3834   70.5025  -10.6152 O   0  0  0  0  0  0  0  0  0  0  0  0
   17.7792   70.8477   -6.8965 N   0  0  0  0  0  0  0  0  0  0  0  0
   17.5571   70.3286   -9.2047 N   0  0  0  0  0  0  0  0  0  0  0  0
   16.9381   70.4242   -7.9518 C   0  0  0  0  0  0  0  0  0  0  0  0
   19.1174   71.1353   -7.1422 C   0  0  0  0  0  0  0  0  0  0  0  0
   19.6927   71.0379   -8.3425 C   0  0  0  0  0  0  0  0  0  0  0  0
   18.8835   70.6021   -9.4989 C   0  0  0  0  0  0  0  0  0  0  0  0
   16.9908   70.0350   -9.9549 H   0  0  0  0  0  0  0  0  0  0  0  0
   21.5764   72.7069   -2.6991 O   0  0  0  0  0  0  0  0  0  0  0  0
   22.3872   74.1051   -2.7256 P   0  0  2  0  0  0  0  0  0  0  0  0
   23.9355   73.6360   -2.7360 O   0  0  0  0  0  0  0  0  0  0  0  0
   22.0319   75.0437   -1.6090 O   0  0  0  0  0  0  0  0  0  0  0  0
   22.1309   74.6980   -4.2047 O   0  0  0  0  0  0  0  0  0  0  0  0
   20.3140   74.8278   -5.7208 O   0  0  0  0  0  0  0  0  0  0  0  0
   23.2339   73.4687   -8.3050 O   0  0  0  0  0  0  0  0  0  0  0  0
   22.3261   76.1868   -8.4946 O   0  0  0  0  0  0  0  0  0  0  0  0
   23.1311   72.4715   -5.5894 O   0  0  0  0  0  0  0  0  0  0  0  0
   22.7167   74.2142   -7.1995 C   0  0  1  0  0  0  0  0  0  0  0  0
   21.6605   75.1863   -7.7288 C   0  0  1  0  0  0  0  0  0  0  0  0
   22.1000   73.2474   -6.1903 C   0  0  2  0  0  0  0  0  0  0  0  0
   20.8734   75.8291   -6.5789 C   0  0  1  0  0  0  0  0  0  0  0  0
   21.2987   73.9865   -5.1171 C   0  0  1  0  0  0  0  0  0  0  0  0
   23.6274   74.0766   -8.9493 H   0  0  0  0  0  0  0  0  0  0  0  0
   22.8196   75.7676   -9.2170 H   0  0  0  0  0  0  0  0  0  0  0  0
   23.6308   72.0084   -6.2791 H   0  0  0  0  0  0  0  0  0  0  0  0
   18.6685   75.8177   -7.4994 O   0  0  0  0  0  0  0  0  0  0  0  0
   19.7120   76.6808   -7.0867 C   0  0  0  0  0  0  0  0  0  0  0  0
   17.9223   76.3459   -7.8248 H   0  0  0  0  0  0  0  0  0  0  0  0
 25 28  1  0
 25 24  1  0
 25 26  1  6
 25 27  2  0
  1  4  1  0
  1 24  1  0
  1  2  1  1
  1  3  2  0
  6 11  1  0
  6 12  1  0
 29 36  1  0
 29 37  1  0
  9  7  1  6
  7 13  1  0
 10  8  1  1
  8 14  1  0
 37 28  1  6
  4  5  1  0
 33 30  1  6
 30 38  1  0
 34 31  1  1
 31 39  1  0
 35 32  1  1
 32 40  1  0
 41 42  1  0
 41 43  1  0
 15 19  2  0
 16 22  2  0
 12 17  1  6
 17 19  1  0
 17 20  1  0
 18 19  1  0
 18 22  1  0
 18 23  1  0
  9 10  1  0
  9 11  1  0
 10 12  1  0
 11  5  1  6
 33 34  1  0
 33 35  1  0
 34 36  1  0
 35 37  1  0
 36 42  1  6
 20 21  2  0
 21 22  1  0
M  CHG  2   2  -1  26  -1
M  END
>  <COMPND>  (29) 
    8629 

>  <AUTHOR>  (29) 
    GENERATED BY OPEN BABEL 3.1.1

>  <MASTER>  (29) 
        0    0    0    0    0    0    0    0   58    0   58    0

>  <minimizedAffinity>  (29) 
-6.90718

>  <CNNscore>  (29) 
0.8012229204

>  <CNNaffinity>  (29) 
4.4767303467

>  <CNN_VS>  (29) 
3.5868589878

>  <CNNaffinity_variance>  (29) 
0.3736492097

$$$$
30
     RDKit          3D

 43 45  0  0  0  0  0  0  0  0999 V2000
   21.8749   72.4493   -5.6515 P   0  0  2  0  0  0  0  0  0  0  0  0
   21.1558   73.8957   -5.5610 O   0  0  0  0  0  0  0  0  0  0  0  0
   23.2131   72.4482   -6.3302 O   0  0  0  0  0  0  0  0  0  0  0  0
   20.7489   71.4967   -6.3168 O   0  0  0  0  0  0  0  0  0  0  0  0
   20.1352   71.9163   -7.5231 C   0  0  0  0  0  0  0  0  0  0  0  0
   18.8971   69.8912   -7.1487 O   0  0  0  0  0  0  0  0  0  0  0  0
   18.1391   70.0403  -10.0460 O   0  0  0  0  0  0  0  0  0  0  0  0
   15.9088   70.9920   -8.7984 O   0  0  0  0  0  0  0  0  0  0  0  0
   18.3184   71.0973   -9.1048 C   0  0  1  0  0  0  0  0  0  0  0  0
   17.1504   71.1479   -8.1421 C   0  0  2  0  0  0  0  0  0  0  0  0
   19.4721   70.7164   -8.1855 C   0  0  1  0  0  0  0  0  0  0  0  0
   17.4649   69.9947   -7.2043 C   0  0  2  0  0  0  0  0  0  0  0  0
   17.4075   70.2610  -10.6444 H   0  0  0  0  0  0  0  0  0  0  0  0
   15.7544   71.7503   -9.3830 H   0  0  0  0  0  0  0  0  0  0  0  0
   16.2596   68.0033   -5.6045 O   0  0  0  0  0  0  0  0  0  0  0  0
   15.5689   70.9529   -2.1312 O   0  0  0  0  0  0  0  0  0  0  0  0
   16.9615   70.2146   -5.8778 N   0  0  0  0  0  0  0  0  0  0  0  0
   15.9169   69.4736   -3.8763 N   0  0  0  0  0  0  0  0  0  0  0  0
   16.3734   69.1474   -5.1597 C   0  0  0  0  0  0  0  0  0  0  0  0
   17.0537   71.4771   -5.3020 C   0  0  0  0  0  0  0  0  0  0  0  0
   16.6123   71.7720   -4.0775 C   0  0  0  0  0  0  0  0  0  0  0  0
   15.9847   70.7133   -3.2606 C   0  0  0  0  0  0  0  0  0  0  0  0
   15.5031   68.7459   -3.3575 H   0  0  0  0  0  0  0  0  0  0  0  0
   21.9013   71.9595   -4.1113 O   0  0  0  0  0  0  0  0  0  0  0  0
   23.0848   71.9814   -3.0105 P   0  0  2  0  0  0  0  0  0  0  0  0
   23.7029   73.4691   -3.1599 O   0  0  0  0  0  0  0  0  0  0  0  0
   24.0885   70.8755   -3.1640 O   0  0  0  0  0  0  0  0  0  0  0  0
   22.3204   71.9984   -1.5891 O   0  0  0  0  0  0  0  0  0  0  0  0
   23.9913   72.4765    0.0222 O   0  0  0  0  0  0  0  0  0  0  0  0
   20.7322   72.1307    2.5340 O   0  0  0  0  0  0  0  0  0  0  0  0
   21.8571   74.7226    2.0195 O   0  0  0  0  0  0  0  0  0  0  0  0
   21.0000   70.3553    0.2634 O   0  0  0  0  0  0  0  0  0  0  0  0
   21.4153   72.4765    1.3261 C   0  0  1  0  0  0  0  0  0  0  0  0
   22.4997   73.5012    1.6649 C   0  0  1  0  0  0  0  0  0  0  0  0
   22.0353   71.2165    0.7250 C   0  0  2  0  0  0  0  0  0  0  0  0
   23.4455   73.7205    0.4764 C   0  0  1  0  0  0  0  0  0  0  0  0
   22.9965   71.5497   -0.4174 C   0  0  1  0  0  0  0  0  0  0  0  0
   20.3358   72.9263    2.9205 H   0  0  0  0  0  0  0  0  0  0  0  0
   21.2625   74.5702    2.7708 H   0  0  0  0  0  0  0  0  0  0  0  0
   20.3985   70.1515    0.9959 H   0  0  0  0  0  0  0  0  0  0  0  0
   24.2130   75.9683    0.7357 O   0  0  0  0  0  0  0  0  0  0  0  0
   24.6254   74.6182    0.8425 C   0  0  0  0  0  0  0  0  0  0  0  0
   24.9538   76.5512    0.9661 H   0  0  0  0  0  0  0  0  0  0  0  0
 25 28  1  0
 25 24  1  0
 25 26  1  6
 25 27  2  0
  1  4  1  0
  1 24  1  0
  1  2  1  1
  1  3  2  0
  6 11  1  0
  6 12  1  0
 29 36  1  0
 29 37  1  0
  9  7  1  6
  7 13  1  0
 10  8  1  6
  8 14  1  0
 37 28  1  6
  4  5  1  0
 33 30  1  1
 30 38  1  0
 34 31  1  6
 31 39  1  0
 35 32  1  6
 32 40  1  0
 41 42  1  0
 41 43  1  0
 15 19  2  0
 16 22  2  0
 12 17  1  1
 17 19  1  0
 17 20  1  0
 18 19  1  0
 18 22  1  0
 18 23  1  0
  9 10  1  0
  9 11  1  0
 10 12  1  0
 11  5  1  1
 33 34  1  0
 33 35  1  0
 34 36  1  0
 35 37  1  0
 36 42  1  1
 20 21  2  0
 21 22  1  0
M  CHG  2   2  -1  26  -1
M  END
>  <COMPND>  (30) 
    8629 

>  <AUTHOR>  (30) 
    GENERATED BY OPEN BABEL 3.1.1

>  <MASTER>  (30) 
        0    0    0    0    0    0    0    0   58    0   58    0

>  <minimizedAffinity>  (30) 
-8.03104

>  <CNNscore>  (30) 
0.7651649117

>  <CNNaffinity>  (30) 
4.5717811584

>  <CNN_VS>  (30) 
3.4981665611

>  <CNNaffinity_variance>  (30) 
0.1935955286

$$$$
31
     RDKit          3D

 43 45  0  0  0  0  0  0  0  0999 V2000
   20.6536   73.5934   -2.6201 P   0  0  2  0  0  0  0  0  0  0  0  0
   19.9638   75.0568   -2.6078 O   0  0  0  0  0  0  0  0  0  0  0  0
   21.9590   73.5143   -3.3556 O   0  0  0  0  0  0  0  0  0  0  0  0
   19.4824   72.6165   -3.1603 O   0  0  0  0  0  0  0  0  0  0  0  0
   18.6472   73.0774   -4.2081 C   0  0  0  0  0  0  0  0  0  0  0  0
   16.8656   72.1190   -5.5047 O   0  0  0  0  0  0  0  0  0  0  0  0
   16.1506   70.5753   -3.0356 O   0  0  0  0  0  0  0  0  0  0  0  0
   17.4965   68.7278   -4.5229 O   0  0  0  0  0  0  0  0  0  0  0  0
   17.4378   70.9451   -3.5273 C   0  0  1  0  0  0  0  0  0  0  0  0
   17.8097   70.0913   -4.7215 C   0  0  2  0  0  0  0  0  0  0  0  0
   17.3217   72.3305   -4.1506 C   0  0  1  0  0  0  0  0  0  0  0  0
   16.9867   70.7247   -5.8303 C   0  0  2  0  0  0  0  0  0  0  0  0
   16.1996   69.6938   -2.6325 H   0  0  0  0  0  0  0  0  0  0  0  0
   18.0459   68.3704   -3.8079 H   0  0  0  0  0  0  0  0  0  0  0  0
   15.5882   70.6405   -8.2829 O   0  0  0  0  0  0  0  0  0  0  0  0
   19.4893   70.2383  -10.7037 O   0  0  0  0  0  0  0  0  0  0  0  0
   17.6119   70.5989   -7.1167 N   0  0  0  0  0  0  0  0  0  0  0  0
   17.5318   70.4405   -9.4863 N   0  0  0  0  0  0  0  0  0  0  0  0
   16.8186   70.5652   -8.2872 C   0  0  0  0  0  0  0  0  0  0  0  0
   18.9967   70.5107   -7.2085 C   0  0  0  0  0  0  0  0  0  0  0  0
   19.6614   70.3908   -8.3596 C   0  0  0  0  0  0  0  0  0  0  0  0
   18.9072   70.3480   -9.6290 C   0  0  0  0  0  0  0  0  0  0  0  0
   17.0000   70.4146  -10.3147 H   0  0  0  0  0  0  0  0  0  0  0  0
   20.7424   73.2202   -1.0498 O   0  0  0  0  0  0  0  0  0  0  0  0
   21.2895   71.8952   -0.3029 P   0  0  2  0  0  0  0  0  0  0  0  0
   22.8138   71.7739   -0.8315 O   0  0  0  0  0  0  0  0  0  0  0  0
   20.4544   70.6692   -0.5343 O   0  0  0  0  0  0  0  0  0  0  0  0
   21.4284   72.3272    1.2460 O   0  0  0  0  0  0  0  0  0  0  0  0
   20.6325   74.2642    2.3556 O   0  0  0  0  0  0  0  0  0  0  0  0
   24.1874   73.7507    4.3927 O   0  0  0  0  0  0  0  0  0  0  0  0
   21.7026   73.1596    5.7058 O   0  0  0  0  0  0  0  0  0  0  0  0
   24.0666   73.2354    1.5467 O   0  0  0  0  0  0  0  0  0  0  0  0
   23.0057   73.3276    3.7072 C   0  0  1  0  0  0  0  0  0  0  0  0
   21.7917   73.8623    4.4695 C   0  0  1  0  0  0  0  0  0  0  0  0
   23.0311   73.8780    2.2824 C   0  0  2  0  0  0  0  0  0  0  0  0
   20.5028   73.6796    3.6568 C   0  0  1  0  0  0  0  0  0  0  0  0
   21.6855   73.6888    1.5798 C   0  0  1  0  0  0  0  0  0  0  0  0
   24.1778   73.4041    5.2979 H   0  0  0  0  0  0  0  0  0  0  0  0
   22.5229   73.2828    6.2090 H   0  0  0  0  0  0  0  0  0  0  0  0
   24.9131   73.3628    2.0016 H   0  0  0  0  0  0  0  0  0  0  0  0
   19.0501   73.6853    5.5539 O   0  0  0  0  0  0  0  0  0  0  0  0
   19.3041   74.3465    4.3280 C   0  0  0  0  0  0  0  0  0  0  0  0
   18.2898   74.0993    5.9924 H   0  0  0  0  0  0  0  0  0  0  0  0
 25 28  1  0
 25 24  1  0
 25 26  1  6
 25 27  2  0
  1  4  1  0
  1 24  1  0
  1  2  1  1
  1  3  2  0
  6 11  1  0
  6 12  1  0
 29 36  1  0
 29 37  1  0
  9  7  1  6
  7 13  1  0
 10  8  1  1
  8 14  1  0
 37 28  1  1
  4  5  1  0
 33 30  1  1
 30 38  1  0
 34 31  1  1
 31 39  1  0
 35 32  1  6
 32 40  1  0
 41 42  1  0
 41 43  1  0
 15 19  2  0
 16 22  2  0
 12 17  1  6
 17 19  1  0
 17 20  1  0
 18 19  1  0
 18 22  1  0
 18 23  1  0
  9 10  1  0
  9 11  1  0
 10 12  1  0
 11  5  1  6
 33 34  1  0
 33 35  1  0
 34 36  1  0
 35 37  1  0
 36 42  1  1
 20 21  2  0
 21 22  1  0
M  CHG  2   2  -1  26  -1
M  END
>  <COMPND>  (31) 
    8629 

>  <AUTHOR>  (31) 
    GENERATED BY OPEN BABEL 3.1.1

>  <MASTER>  (31) 
        0    0    0    0    0    0    0    0   58    0   58    0

>  <minimizedAffinity>  (31) 
-6.43338

>  <CNNscore>  (31) 
0.7484810352

>  <CNNaffinity>  (31) 
4.2195334435

>  <CNN_VS>  (31) 
3.1582407951

>  <CNNaffinity_variance>  (31) 
0.0336765163

$$$$
32
     RDKit          3D

 43 45  0  0  0  0  0  0  0  0999 V2000
   21.3800   71.5856   -1.2733 P   0  0  2  0  0  0  0  0  0  0  0  0
   22.7220   70.8736   -1.8298 O   0  0  0  0  0  0  0  0  0  0  0  0
   20.2536   70.6490   -0.9486 O   0  0  0  0  0  0  0  0  0  0  0  0
   21.0541   72.7193   -2.3806 O   0  0  0  0  0  0  0  0  0  0  0  0
   20.3917   72.3307   -3.5714 C   0  0  0  0  0  0  0  0  0  0  0  0
   20.7938   70.9012   -5.4605 O   0  0  0  0  0  0  0  0  0  0  0  0
   23.2216   72.5828   -5.9790 O   0  0  0  0  0  0  0  0  0  0  0  0
   21.4270   73.5566   -7.7867 O   0  0  0  0  0  0  0  0  0  0  0  0
   21.9424   72.9739   -5.4832 C   0  0  1  0  0  0  0  0  0  0  0  0
   20.9221   72.9740   -6.6024 C   0  0  2  0  0  0  0  0  0  0  0  0
   21.4268   71.8580   -4.5829 C   0  0  1  0  0  0  0  0  0  0  0  0
   20.6269   71.4920   -6.7597 C   0  0  2  0  0  0  0  0  0  0  0  0
   23.5714   73.2800   -6.5565 H   0  0  0  0  0  0  0  0  0  0  0  0
   21.5989   74.4991   -7.6357 H   0  0  0  0  0  0  0  0  0  0  0  0
   19.9373   69.5946   -8.7351 O   0  0  0  0  0  0  0  0  0  0  0  0
   15.4575   70.6338   -8.4302 O   0  0  0  0  0  0  0  0  0  0  0  0
   19.2879   71.2457   -7.2155 N   0  0  0  0  0  0  0  0  0  0  0  0
   17.7073   70.1134   -8.5816 N   0  0  0  0  0  0  0  0  0  0  0  0
   19.0493   70.2715   -8.2127 C   0  0  0  0  0  0  0  0  0  0  0  0
   18.2283   71.9658   -6.6747 C   0  0  0  0  0  0  0  0  0  0  0  0
   16.9543   71.8041   -7.0382 C   0  0  0  0  0  0  0  0  0  0  0  0
   16.6192   70.8060   -8.0743 C   0  0  0  0  0  0  0  0  0  0  0  0
   17.5170   69.4406   -9.2750 H   0  0  0  0  0  0  0  0  0  0  0  0
   21.9204   72.4486   -0.0178 O   0  0  0  0  0  0  0  0  0  0  0  0
   22.9662   72.0740    1.1565 P   0  0  2  0  0  0  0  0  0  0  0  0
   24.3806   72.6039    0.5767 O   0  0  0  0  0  0  0  0  0  0  0  0
   22.9607   70.6240    1.5458 O   0  0  0  0  0  0  0  0  0  0  0  0
   22.6118   73.0907    2.3588 O   0  0  0  0  0  0  0  0  0  0  0  0
   22.2669   72.7261    4.6750 O   0  0  0  0  0  0  0  0  0  0  0  0
   19.3591   75.5831    4.0166 O   0  0  0  0  0  0  0  0  0  0  0  0
   21.7344   76.2862    5.4696 O   0  0  0  0  0  0  0  0  0  0  0  0
   19.8643   73.5499    2.0190 O   0  0  0  0  0  0  0  0  0  0  0  0
   20.6253   74.9453    3.8286 C   0  0  1  0  0  0  0  0  0  0  0  0
   21.3648   74.9435    5.1680 C   0  0  1  0  0  0  0  0  0  0  0  0
   20.3968   73.5166    3.3387 C   0  0  2  0  0  0  0  0  0  0  0  0
   22.6087   74.0464    5.1128 C   0  0  1  0  0  0  0  0  0  0  0  0
   21.6873   72.6959    3.3692 C   0  0  1  0  0  0  0  0  0  0  0  0
   19.4971   76.4908    4.3272 H   0  0  0  0  0  0  0  0  0  0  0  0
   20.9401   76.8422    5.5011 H   0  0  0  0  0  0  0  0  0  0  0  0
   19.0475   74.0721    2.0131 H   0  0  0  0  0  0  0  0  0  0  0  0
   22.3049   74.1675    7.4796 O   0  0  0  0  0  0  0  0  0  0  0  0
   23.2730   73.9048    6.4805 C   0  0  0  0  0  0  0  0  0  0  0  0
   22.7134   74.0807    8.3556 H   0  0  0  0  0  0  0  0  0  0  0  0
 25 28  1  0
 25 24  1  0
 25 26  1  6
 25 27  2  0
  1  4  1  0
  1 24  1  0
  1  2  1  6
  1  3  2  0
  6 11  1  0
  6 12  1  0
 29 36  1  0
 29 37  1  0
  9  7  1  6
  7 13  1  0
 10  8  1  6
  8 14  1  0
 37 28  1  6
  4  5  1  0
 33 30  1  1
 30 38  1  0
 34 31  1  6
 31 39  1  0
 35 32  1  6
 32 40  1  0
 41 42  1  0
 41 43  1  0
 15 19  2  0
 16 22  2  0
 12 17  1  1
 17 19  1  0
 17 20  1  0
 18 19  1  0
 18 22  1  0
 18 23  1  0
  9 10  1  0
  9 11  1  0
 10 12  1  0
 11  5  1  1
 33 34  1  0
 33 35  1  0
 34 36  1  0
 35 37  1  0
 36 42  1  1
 20 21  2  0
 21 22  1  0
M  CHG  2   2  -1  26  -1
M  END
>  <COMPND>  (32) 
    8629 

>  <AUTHOR>  (32) 
    GENERATED BY OPEN BABEL 3.1.1

>  <MASTER>  (32) 
        0    0    0    0    0    0    0    0   58    0   58    0

>  <minimizedAffinity>  (32) 
-6.65652

>  <CNNscore>  (32) 
0.7090622783

>  <CNNaffinity>  (32) 
4.3231201172

>  <CNN_VS>  (32) 
3.0653614998

>  <CNNaffinity_variance>  (32) 
0.0815564990

$$$$
33
     RDKit          3D

 43 45  0  0  0  0  0  0  0  0999 V2000
   22.5593   73.1428   -4.5018 P   0  0  2  0  0  0  0  0  0  0  0  0
   22.6505   71.5585   -4.8164 O   0  0  0  0  0  0  0  0  0  0  0  0
   23.0506   74.0368   -5.6022 O   0  0  0  0  0  0  0  0  0  0  0  0
   23.3135   73.3003   -3.0790 O   0  0  0  0  0  0  0  0  0  0  0  0
   22.5293   73.3481   -1.8998 C   0  0  0  0  0  0  0  0  0  0  0  0
   23.3856   71.4075   -0.7706 O   0  0  0  0  0  0  0  0  0  0  0  0
   20.5302   70.5305   -0.5093 O   0  0  0  0  0  0  0  0  0  0  0  0
   21.0712   71.5390    1.9660 O   0  0  0  0  0  0  0  0  0  0  0  0
   21.0795   71.8456   -0.4459 C   0  0  1  0  0  0  0  0  0  0  0  0
   21.8009   72.0514    0.8697 C   0  0  2  0  0  0  0  0  0  0  0  0
   22.2217   71.9261   -1.4509 C   0  0  1  0  0  0  0  0  0  0  0  0
   23.1035   71.3058    0.6347 C   0  0  2  0  0  0  0  0  0  0  0  0
   19.7985   70.4550    0.1238 H   0  0  0  0  0  0  0  0  0  0  0  0
   20.2516   72.0461    2.0745 H   0  0  0  0  0  0  0  0  0  0  0  0
   23.4232   74.0633    1.1558 O   0  0  0  0  0  0  0  0  0  0  0  0
   27.3441   73.3577    3.4731 O   0  0  0  0  0  0  0  0  0  0  0  0
   24.1985   71.8703    1.3721 N   0  0  0  0  0  0  0  0  0  0  0  0
   25.3752   73.7097    2.3094 N   0  0  0  0  0  0  0  0  0  0  0  0
   24.2658   73.2682    1.5771 C   0  0  0  0  0  0  0  0  0  0  0  0
   25.1904   71.0407    1.8836 C   0  0  0  0  0  0  0  0  0  0  0  0
   26.2426   71.4777    2.5788 C   0  0  0  0  0  0  0  0  0  0  0  0
   26.3880   72.9248    2.8373 C   0  0  0  0  0  0  0  0  0  0  0  0
   25.4433   74.6799    2.4642 H   0  0  0  0  0  0  0  0  0  0  0  0
   21.0036   73.3472   -4.1130 O   0  0  0  0  0  0  0  0  0  0  0  0
   19.7244   72.3786   -4.3088 P   0  0  2  0  0  0  0  0  0  0  0  0
   18.4781   73.3203   -3.8874 O   0  0  0  0  0  0  0  0  0  0  0  0
   19.8089   71.0865   -3.5491 O   0  0  0  0  0  0  0  0  0  0  0  0
   19.5831   72.2066   -5.9074 O   0  0  0  0  0  0  0  0  0  0  0  0
   18.7130   70.0100   -6.0926 O   0  0  0  0  0  0  0  0  0  0  0  0
   18.5663   71.1153  -10.0685 O   0  0  0  0  0  0  0  0  0  0  0  0
   16.1293   70.9112   -8.5627 O   0  0  0  0  0  0  0  0  0  0  0  0
   20.7998   71.9399   -8.4220 O   0  0  0  0  0  0  0  0  0  0  0  0
   18.4841   71.3198   -8.6554 C   0  0  1  0  0  0  0  0  0  0  0  0
   17.3826   70.4131   -8.1029 C   0  0  1  0  0  0  0  0  0  0  0  0
   19.8312   70.9764   -8.0222 C   0  0  2  0  0  0  0  0  0  0  0  0
   17.4128   70.3765   -6.5690 C   0  0  1  0  0  0  0  0  0  0  0  0
   19.7396   70.9183   -6.4963 C   0  0  1  0  0  0  0  0  0  0  0  0
   17.7143   71.3320  -10.4767 H   0  0  0  0  0  0  0  0  0  0  0  0
   16.1235   70.9297   -9.5326 H   0  0  0  0  0  0  0  0  0  0  0  0
   20.8485   71.9668   -9.3899 H   0  0  0  0  0  0  0  0  0  0  0  0
   17.0563   68.6659   -4.9393 O   0  0  0  0  0  0  0  0  0  0  0  0
   16.4264   69.3579   -6.0017 C   0  0  0  0  0  0  0  0  0  0  0  0
   16.4401   68.0145   -4.5683 H   0  0  0  0  0  0  0  0  0  0  0  0
 25 28  1  0
 25 24  1  0
 25 26  1  1
 25 27  2  0
  1  4  1  0
  1 24  1  0
  1  2  1  6
  1  3  2  0
  6 11  1  0
  6 12  1  0
 29 36  1  0
 29 37  1  0
  9  7  1  1
  7 13  1  0
 10  8  1  1
  8 14  1  0
 37 28  1  6
  4  5  1  0
 33 30  1  6
 30 38  1  0
 34 31  1  1
 31 39  1  0
 35 32  1  1
 32 40  1  0
 41 42  1  0
 41 43  1  0
 15 19  2  0
 16 22  2  0
 12 17  1  1
 17 19  1  0
 17 20  1  0
 18 19  1  0
 18 22  1  0
 18 23  1  0
  9 10  1  0
  9 11  1  0
 10 12  1  0
 11  5  1  1
 33 34  1  0
 33 35  1  0
 34 36  1  0
 35 37  1  0
 36 42  1  6
 20 21  2  0
 21 22  1  0
M  CHG  2   2  -1  26  -1
M  END
>  <COMPND>  (33) 
    8629 

>  <AUTHOR>  (33) 
    GENERATED BY OPEN BABEL 3.1.1

>  <MASTER>  (33) 
        0    0    0    0    0    0    0    0   58    0   58    0

>  <minimizedAffinity>  (33) 
-7.36258

>  <CNNscore>  (33) 
0.6830984354

>  <CNNaffinity>  (33) 
4.3550863266

>  <CNN_VS>  (33) 
2.9749526978

>  <CNNaffinity_variance>  (33) 
0.0674688071

$$$$
34
     RDKit          3D

 43 45  0  0  0  0  0  0  0  0999 V2000
   20.2421   72.0806   -1.1969 P   0  0  2  0  0  0  0  0  0  0  0  0
   20.6147   70.6925   -0.4542 O   0  0  0  0  0  0  0  0  0  0  0  0
   19.0983   72.8377   -0.5888 O   0  0  0  0  0  0  0  0  0  0  0  0
   20.0577   71.6544   -2.7469 O   0  0  0  0  0  0  0  0  0  0  0  0
   20.3909   72.5966   -3.7514 C   0  0  0  0  0  0  0  0  0  0  0  0
   20.7560   70.9658   -5.4779 O   0  0  0  0  0  0  0  0  0  0  0  0
   23.2651   72.4781   -6.1165 O   0  0  0  0  0  0  0  0  0  0  0  0
   21.5438   73.3399   -8.0481 O   0  0  0  0  0  0  0  0  0  0  0  0
   21.9976   72.9732   -5.6878 C   0  0  1  0  0  0  0  0  0  0  0  0
   20.9953   72.9037   -6.8210 C   0  0  2  0  0  0  0  0  0  0  0  0
   21.4186   71.9785   -4.6895 C   0  0  1  0  0  0  0  0  0  0  0  0
   20.6355   71.4277   -6.8333 C   0  0  2  0  0  0  0  0  0  0  0  0
   23.6547   73.0970   -6.7546 H   0  0  0  0  0  0  0  0  0  0  0  0
   21.7560   74.2846   -7.9899 H   0  0  0  0  0  0  0  0  0  0  0  0
   19.9243   69.5329   -8.8035 O   0  0  0  0  0  0  0  0  0  0  0  0
   15.4563   70.6217   -8.4991 O   0  0  0  0  0  0  0  0  0  0  0  0
   19.2937   71.1948   -7.2878 N   0  0  0  0  0  0  0  0  0  0  0  0
   17.7001   70.0765   -8.6502 N   0  0  0  0  0  0  0  0  0  0  0  0
   19.0440   70.2208   -8.2824 C   0  0  0  0  0  0  0  0  0  0  0  0
   18.2423   71.9279   -6.7483 C   0  0  0  0  0  0  0  0  0  0  0  0
   16.9664   71.7791   -7.1108 C   0  0  0  0  0  0  0  0  0  0  0  0
   16.6200   70.7821   -8.1442 C   0  0  0  0  0  0  0  0  0  0  0  0
   17.5022   69.4039   -9.3418 H   0  0  0  0  0  0  0  0  0  0  0  0
   21.6483   72.8777   -1.2042 O   0  0  0  0  0  0  0  0  0  0  0  0
   23.1221   72.4350   -0.7092 P   0  0  2  0  0  0  0  0  0  0  0  0
   24.0149   73.7583   -0.9723 O   0  0  0  0  0  0  0  0  0  0  0  0
   23.6459   71.1930   -1.3702 O   0  0  0  0  0  0  0  0  0  0  0  0
   23.0013   72.3376    0.8973 O   0  0  0  0  0  0  0  0  0  0  0  0
   22.2453   74.4863    1.5518 O   0  0  0  0  0  0  0  0  0  0  0  0
   22.3515   72.6672    5.2573 O   0  0  0  0  0  0  0  0  0  0  0  0
   19.8189   73.2186    4.0204 O   0  0  0  0  0  0  0  0  0  0  0  0
   24.4155   72.0973    3.3093 O   0  0  0  0  0  0  0  0  0  0  0  0
   22.1537   72.7310    3.8423 C   0  0  1  0  0  0  0  0  0  0  0  0
   21.0545   73.7564    3.5574 C   0  0  1  0  0  0  0  0  0  0  0  0
   23.4627   73.1462    3.1735 C   0  0  2  0  0  0  0  0  0  0  0  0
   20.9701   74.0761    2.0589 C   0  0  1  0  0  0  0  0  0  0  0  0
   23.2586   73.4892    1.6967 C   0  0  1  0  0  0  0  0  0  0  0  0
   21.5241   72.4036    5.6879 H   0  0  0  0  0  0  0  0  0  0  0  0
   19.8858   73.0207    4.9678 H   0  0  0  0  0  0  0  0  0  0  0  0
   24.5360   71.8897    4.2485 H   0  0  0  0  0  0  0  0  0  0  0  0
   18.6730   74.6939    1.8336 O   0  0  0  0  0  0  0  0  0  0  0  0
   19.9895   75.2108    1.7705 C   0  0  0  0  0  0  0  0  0  0  0  0
   18.0380   75.4051    1.6525 H   0  0  0  0  0  0  0  0  0  0  0  0
 25 28  1  0
 25 24  1  0
 25 26  1  1
 25 27  2  0
  1  4  1  0
  1 24  1  0
  1  2  1  1
  1  3  2  0
  6 11  1  0
  6 12  1  0
 29 36  1  0
 29 37  1  0
  9  7  1  6
  7 13  1  0
 10  8  1  6
  8 14  1  0
 37 28  1  6
  4  5  1  0
 33 30  1  1
 30 38  1  0
 34 31  1  6
 31 39  1  0
 35 32  1  6
 32 40  1  0
 41 42  1  0
 41 43  1  0
 15 19  2  0
 16 22  2  0
 12 17  1  1
 17 19  1  0
 17 20  1  0
 18 19  1  0
 18 22  1  0
 18 23  1  0
  9 10  1  0
  9 11  1  0
 10 12  1  0
 11  5  1  1
 33 34  1  0
 33 35  1  0
 34 36  1  0
 35 37  1  0
 36 42  1  1
 20 21  2  0
 21 22  1  0
M  CHG  2   2  -1  26  -1
M  END
>  <COMPND>  (34) 
    8629 

>  <AUTHOR>  (34) 
    GENERATED BY OPEN BABEL 3.1.1

>  <MASTER>  (34) 
        0    0    0    0    0    0    0    0   58    0   58    0

>  <minimizedAffinity>  (34) 
-6.61969

>  <CNNscore>  (34) 
0.6616189480

>  <CNNaffinity>  (34) 
4.3379116058

>  <CNN_VS>  (34) 
2.8700444698

>  <CNNaffinity_variance>  (34) 
0.0459223501

$$$$
35
     RDKit          3D

 43 45  0  0  0  0  0  0  0  0999 V2000
   23.3586   71.8420   -3.3456 P   0  0  2  0  0  0  0  0  0  0  0  0
   24.0970   72.9990   -4.2021 O   0  0  0  0  0  0  0  0  0  0  0  0
   24.2492   70.7224   -2.8931 O   0  0  0  0  0  0  0  0  0  0  0  0
   22.1053   71.4115   -4.2739 O   0  0  0  0  0  0  0  0  0  0  0  0
   21.6342   72.3318   -5.2429 C   0  0  0  0  0  0  0  0  0  0  0  0
   20.5440   70.4098   -6.1869 O   0  0  0  0  0  0  0  0  0  0  0  0
   20.6736   71.8574   -8.8096 O   0  0  0  0  0  0  0  0  0  0  0  0
   18.0912   72.2639   -8.0333 O   0  0  0  0  0  0  0  0  0  0  0  0
   20.4604   72.3809   -7.4997 C   0  0  1  0  0  0  0  0  0  0  0  0
   19.0594   72.0559   -7.0252 C   0  0  2  0  0  0  0  0  0  0  0  0
   21.3188   71.5798   -6.5287 C   0  0  1  0  0  0  0  0  0  0  0  0
   19.1906   70.5940   -6.6333 C   0  0  2  0  0  0  0  0  0  0  0  0
   20.1359   72.3534   -9.4473 H   0  0  0  0  0  0  0  0  0  0  0  0
   18.0452   73.2087   -8.2477 H   0  0  0  0  0  0  0  0  0  0  0  0
   16.5114   69.7838   -7.0122 O   0  0  0  0  0  0  0  0  0  0  0  0
   15.8499   69.2190   -2.4862 O   0  0  0  0  0  0  0  0  0  0  0  0
   18.2956   70.2291   -5.5716 N   0  0  0  0  0  0  0  0  0  0  0  0
   16.1843   69.5031   -4.7583 N   0  0  0  0  0  0  0  0  0  0  0  0
   16.9694   69.8378   -5.8689 C   0  0  0  0  0  0  0  0  0  0  0  0
   18.7355   70.2611   -4.2527 C   0  0  0  0  0  0  0  0  0  0  0  0
   17.9739   69.9401   -3.2048 C   0  0  0  0  0  0  0  0  0  0  0  0
   16.5755   69.5203   -3.4288 C   0  0  0  0  0  0  0  0  0  0  0  0
   15.2566   69.2278   -4.9412 H   0  0  0  0  0  0  0  0  0  0  0  0
   22.6562   72.6690   -2.1475 O   0  0  0  0  0  0  0  0  0  0  0  0
   21.2608   72.4287   -1.3675 P   0  0  2  0  0  0  0  0  0  0  0  0
   21.0846   70.8210   -1.4091 O   0  0  0  0  0  0  0  0  0  0  0  0
   20.0998   73.1938   -1.9337 O   0  0  0  0  0  0  0  0  0  0  0  0
   21.5929   72.7626    0.1762 O   0  0  0  0  0  0  0  0  0  0  0  0
   22.9055   74.2239    1.5023 O   0  0  0  0  0  0  0  0  0  0  0  0
   24.2771   70.6080    2.9498 O   0  0  0  0  0  0  0  0  0  0  0  0
   22.5626   72.2314    4.5848 O   0  0  0  0  0  0  0  0  0  0  0  0
   23.6990   70.9086    0.1294 O   0  0  0  0  0  0  0  0  0  0  0  0
   23.3059   71.5180    2.4262 C   0  0  1  0  0  0  0  0  0  0  0  0
   23.1856   72.6988    3.3916 C   0  0  1  0  0  0  0  0  0  0  0  0
   23.7604   71.9944    1.0479 C   0  0  2  0  0  0  0  0  0  0  0  0
   22.3664   73.8393    2.7724 C   0  0  1  0  0  0  0  0  0  0  0  0
   22.9101   73.1626    0.5454 C   0  0  1  0  0  0  0  0  0  0  0  0
   23.9943   70.3013    3.8247 H   0  0  0  0  0  0  0  0  0  0  0  0
   23.0896   71.5113    4.9654 H   0  0  0  0  0  0  0  0  0  0  0  0
   24.2414   70.1757    0.4586 H   0  0  0  0  0  0  0  0  0  0  0  0
   21.4231   74.9027    4.6928 O   0  0  0  0  0  0  0  0  0  0  0  0
   22.3662   75.0868    3.6532 C   0  0  0  0  0  0  0  0  0  0  0  0
   21.4122   75.6889    5.2617 H   0  0  0  0  0  0  0  0  0  0  0  0
 25 28  1  0
 25 24  1  0
 25 26  1  1
 25 27  2  0
  1  4  1  0
  1 24  1  0
  1  2  1  6
  1  3  2  0
  6 11  1  0
  6 12  1  0
 29 36  1  0
 29 37  1  0
  9  7  1  6
  7 13  1  0
 10  8  1  6
  8 14  1  0
 37 28  1  1
  4  5  1  0
 33 30  1  1
 30 38  1  0
 34 31  1  1
 31 39  1  0
 35 32  1  6
 32 40  1  0
 41 42  1  0
 41 43  1  0
 15 19  2  0
 16 22  2  0
 12 17  1  1
 17 19  1  0
 17 20  1  0
 18 19  1  0
 18 22  1  0
 18 23  1  0
  9 10  1  0
  9 11  1  0
 10 12  1  0
 11  5  1  1
 33 34  1  0
 33 35  1  0
 34 36  1  0
 35 37  1  0
 36 42  1  1
 20 21  2  0
 21 22  1  0
M  CHG  2   2  -1  26  -1
M  END
>  <COMPND>  (35) 
    8629 

>  <AUTHOR>  (35) 
    GENERATED BY OPEN BABEL 3.1.1

>  <MASTER>  (35) 
        0    0    0    0    0    0    0    0   58    0   58    0

>  <minimizedAffinity>  (35) 
-7.42662

>  <CNNscore>  (35) 
0.6429599524

>  <CNNaffinity>  (35) 
4.3338880539

>  <CNN_VS>  (35) 
2.7865164280

>  <CNNaffinity_variance>  (35) 
0.1435647905

$$$$
36
     RDKit          3D

 43 45  0  0  0  0  0  0  0  0999 V2000
   23.1776   72.3919   -3.5189 P   0  0  2  0  0  0  0  0  0  0  0  0
   23.3241   70.8924   -2.9295 O   0  0  0  0  0  0  0  0  0  0  0  0
   24.3524   72.8771   -4.3163 O   0  0  0  0  0  0  0  0  0  0  0  0
   22.7912   73.2822   -2.2243 O   0  0  0  0  0  0  0  0  0  0  0  0
   21.7541   74.2399   -2.3474 C   0  0  0  0  0  0  0  0  0  0  0  0
   20.9710   72.6286   -0.7460 O   0  0  0  0  0  0  0  0  0  0  0  0
   18.9213   74.6747    0.0305 O   0  0  0  0  0  0  0  0  0  0  0  0
   20.7862   74.9227    2.0046 O   0  0  0  0  0  0  0  0  0  0  0  0
   20.2769   74.8634   -0.3720 C   0  0  1  0  0  0  0  0  0  0  0  0
   21.2179   74.4562    0.7426 C   0  0  2  0  0  0  0  0  0  0  0  0
   20.5944   73.8331   -1.4487 C   0  0  1  0  0  0  0  0  0  0  0  0
   21.1916   72.9407    0.6392 C   0  0  2  0  0  0  0  0  0  0  0  0
   18.6951   75.3218    0.7176 H   0  0  0  0  0  0  0  0  0  0  0  0
   20.8210   75.8919    2.0204 H   0  0  0  0  0  0  0  0  0  0  0  0
   21.5526   70.1750    1.0848 O   0  0  0  0  0  0  0  0  0  0  0  0
   25.9716   70.7547    2.2585 O   0  0  0  0  0  0  0  0  0  0  0  0
   22.4261   72.3415    1.0613 N   0  0  0  0  0  0  0  0  0  0  0  0
   23.7527   70.4659    1.6687 N   0  0  0  0  0  0  0  0  0  0  0  0
   22.5015   70.9428    1.2575 C   0  0  0  0  0  0  0  0  0  0  0  0
   23.5454   73.1383    1.2760 C   0  0  0  0  0  0  0  0  0  0  0  0
   24.7310   72.6682    1.6693 C   0  0  0  0  0  0  0  0  0  0  0  0
   24.8944   71.2178    1.8967 C   0  0  0  0  0  0  0  0  0  0  0  0
   23.8288   69.4946    1.8120 H   0  0  0  0  0  0  0  0  0  0  0  0
   21.7877   72.3248   -4.3417 O   0  0  0  0  0  0  0  0  0  0  0  0
   21.4085   72.8339   -5.8282 P   0  0  2  0  0  0  0  0  0  0  0  0
   22.4107   71.9892   -6.7766 O   0  0  0  0  0  0  0  0  0  0  0  0
   21.4920   74.3220   -6.0091 O   0  0  0  0  0  0  0  0  0  0  0  0
   19.9496   72.2061   -6.1153 O   0  0  0  0  0  0  0  0  0  0  0  0
   18.9991   70.1218   -5.5080 O   0  0  0  0  0  0  0  0  0  0  0  0
   17.3916   70.5024   -9.2924 O   0  0  0  0  0  0  0  0  0  0  0  0
   15.7036   70.8433   -6.9940 O   0  0  0  0  0  0  0  0  0  0  0  0
   20.1101   71.3581   -8.7856 O   0  0  0  0  0  0  0  0  0  0  0  0
   17.8594   70.9658   -8.0228 C   0  0  1  0  0  0  0  0  0  0  0  0
   17.0197   70.3008   -6.9304 C   0  0  1  0  0  0  0  0  0  0  0  0
   19.3333   70.5954   -7.8684 C   0  0  2  0  0  0  0  0  0  0  0  0
   17.6289   70.5378   -5.5420 C   0  0  1  0  0  0  0  0  0  0  0  0
   19.8261   70.8234   -6.4383 C   0  0  1  0  0  0  0  0  0  0  0  0
   16.4564   70.7349   -9.3970 H   0  0  0  0  0  0  0  0  0  0  0  0
   15.3306   70.6874   -7.8759 H   0  0  0  0  0  0  0  0  0  0  0  0
   19.7884   71.2049   -9.6872 H   0  0  0  0  0  0  0  0  0  0  0  0
   16.0389   68.8158   -5.0780 O   0  0  0  0  0  0  0  0  0  0  0  0
   16.8974   69.7533   -4.4550 C   0  0  0  0  0  0  0  0  0  0  0  0
   15.5669   68.3089   -4.3982 H   0  0  0  0  0  0  0  0  0  0  0  0
 25 28  1  0
 25 24  1  0
 25 26  1  6
 25 27  2  0
  1  4  1  0
  1 24  1  0
  1  2  1  1
  1  3  2  0
  6 11  1  0
  6 12  1  0
 29 36  1  0
 29 37  1  0
  9  7  1  1
  7 13  1  0
 10  8  1  1
  8 14  1  0
 37 28  1  1
  4  5  1  0
 33 30  1  6
 30 38  1  0
 34 31  1  1
 31 39  1  0
 35 32  1  6
 32 40  1  0
 41 42  1  0
 41 43  1  0
 15 19  2  0
 16 22  2  0
 12 17  1  6
 17 19  1  0
 17 20  1  0
 18 19  1  0
 18 22  1  0
 18 23  1  0
  9 10  1  0
  9 11  1  0
 10 12  1  0
 11  5  1  6
 33 34  1  0
 33 35  1  0
 34 36  1  0
 35 37  1  0
 36 42  1  1
 20 21  2  0
 21 22  1  0
M  CHG  2   2  -1  26  -1
M  END
>  <COMPND>  (36) 
    8629 

>  <AUTHOR>  (36) 
    GENERATED BY OPEN BABEL 3.1.1

>  <MASTER>  (36) 
        0    0    0    0    0    0    0    0   58    0   58    0

>  <minimizedAffinity>  (36) 
-7.83781

>  <CNNscore>  (36) 
0.6380998492

>  <CNNaffinity>  (36) 
4.4227318764

>  <CNN_VS>  (36) 
2.8221445084

>  <CNNaffinity_variance>  (36) 
0.0719657764

$$$$
37
     RDKit          3D

 43 45  0  0  0  0  0  0  0  0999 V2000
   22.7077   72.8019   -3.7857 P   0  0  2  0  0  0  0  0  0  0  0  0
   23.8513   71.6585   -3.8303 O   0  0  0  0  0  0  0  0  0  0  0  0
   23.1339   74.1450   -4.3014 O   0  0  0  0  0  0  0  0  0  0  0  0
   22.1863   72.7704   -2.2543 O   0  0  0  0  0  0  0  0  0  0  0  0
   23.1473   72.7568   -1.2131 C   0  0  0  0  0  0  0  0  0  0  0  0
   24.2252   71.2671    0.3338 O   0  0  0  0  0  0  0  0  0  0  0  0
   21.5019   70.1160    0.8333 O   0  0  0  0  0  0  0  0  0  0  0  0
   21.8637   71.7445    2.9905 O   0  0  0  0  0  0  0  0  0  0  0  0
   21.8763   71.4682    0.5750 C   0  0  1  0  0  0  0  0  0  0  0  0
   22.5413   72.0718    1.7945 C   0  0  2  0  0  0  0  0  0  0  0  0
   23.0169   71.4545   -0.4351 C   0  0  1  0  0  0  0  0  0  0  0  0
   23.9330   71.4664    1.7266 C   0  0  2  0  0  0  0  0  0  0  0  0
   20.7745   70.0992    1.4756 H   0  0  0  0  0  0  0  0  0  0  0  0
   20.9838   72.1527    2.9859 H   0  0  0  0  0  0  0  0  0  0  0  0
   26.5177   70.6216    2.4906 O   0  0  0  0  0  0  0  0  0  0  0  0
   27.6847   74.8531    3.8955 O   0  0  0  0  0  0  0  0  0  0  0  0
   24.9327   72.3264    2.2943 N   0  0  0  0  0  0  0  0  0  0  0  0
   27.0967   72.7293    3.1893 N   0  0  0  0  0  0  0  0  0  0  0  0
   26.1989   71.8025    2.6445 C   0  0  0  0  0  0  0  0  0  0  0  0
   24.6533   73.6733    2.4983 C   0  0  0  0  0  0  0  0  0  0  0  0
   25.5200   74.5438    3.0202 C   0  0  0  0  0  0  0  0  0  0  0  0
   26.8655   74.0774    3.4129 C   0  0  0  0  0  0  0  0  0  0  0  0
   27.9851   72.3869    3.4411 H   0  0  0  0  0  0  0  0  0  0  0  0
   21.4856   72.1257   -4.5995 O   0  0  0  0  0  0  0  0  0  0  0  0
   20.3781   71.0403   -4.1431 P   0  0  2  0  0  0  0  0  0  0  0  0
   19.5354   71.8254   -3.0069 O   0  0  0  0  0  0  0  0  0  0  0  0
   20.9517   69.7280   -3.6926 O   0  0  0  0  0  0  0  0  0  0  0  0
   19.3691   70.9337   -5.3983 O   0  0  0  0  0  0  0  0  0  0  0  0
   19.5413   71.3903   -7.7174 O   0  0  0  0  0  0  0  0  0  0  0  0
   15.8461   73.0812   -6.9846 O   0  0  0  0  0  0  0  0  0  0  0  0
   16.0119   70.6142   -8.4454 O   0  0  0  0  0  0  0  0  0  0  0  0
   17.9635   73.3340   -5.0270 O   0  0  0  0  0  0  0  0  0  0  0  0
   16.8983   72.1270   -6.8186 C   0  0  1  0  0  0  0  0  0  0  0  0
   17.1389   71.4395   -8.1640 C   0  0  1  0  0  0  0  0  0  0  0  0
   18.1597   72.8510   -6.3516 C   0  0  2  0  0  0  0  0  0  0  0  0
   18.4227   70.5992   -8.1351 C   0  0  1  0  0  0  0  0  0  0  0  0
   19.3873   71.9399   -6.4074 C   0  0  1  0  0  0  0  0  0  0  0  0
   15.0421   72.6279   -7.2805 H   0  0  0  0  0  0  0  0  0  0  0  0
   15.2079   71.1568   -8.4604 H   0  0  0  0  0  0  0  0  0  0  0  0
   17.1838   73.9096   -5.0050 H   0  0  0  0  0  0  0  0  0  0  0  0
   18.8886   71.1081  -10.4226 O   0  0  0  0  0  0  0  0  0  0  0  0
   18.7662   70.0321   -9.5107 C   0  0  0  0  0  0  0  0  0  0  0  0
   19.1074   70.7622  -11.3025 H   0  0  0  0  0  0  0  0  0  0  0  0
 25 28  1  0
 25 24  1  0
 25 26  1  1
 25 27  2  0
  1  4  1  0
  1 24  1  0
  1  2  1  1
  1  3  2  0
  6 11  1  0
  6 12  1  0
 29 36  1  0
 29 37  1  0
  9  7  1  1
  7 13  1  0
 10  8  1  1
  8 14  1  0
 37 28  1  1
  4  5  1  0
 33 30  1  6
 30 38  1  0
 34 31  1  1
 31 39  1  0
 35 32  1  1
 32 40  1  0
 41 42  1  0
 41 43  1  0
 15 19  2  0
 16 22  2  0
 12 17  1  6
 17 19  1  0
 17 20  1  0
 18 19  1  0
 18 22  1  0
 18 23  1  0
  9 10  1  0
  9 11  1  0
 10 12  1  0
 11  5  1  1
 33 34  1  0
 33 35  1  0
 34 36  1  0
 35 37  1  0
 36 42  1  6
 20 21  2  0
 21 22  1  0
M  CHG  2   2  -1  26  -1
M  END
>  <COMPND>  (37) 
    8629 

>  <AUTHOR>  (37) 
    GENERATED BY OPEN BABEL 3.1.1

>  <MASTER>  (37) 
        0    0    0    0    0    0    0    0   58    0   58    0

>  <minimizedAffinity>  (37) 
-7.48103

>  <CNNscore>  (37) 
0.6355095506

>  <CNNaffinity>  (37) 
4.3324708939

>  <CNN_VS>  (37) 
2.7533266544

>  <CNNaffinity_variance>  (37) 
0.1397033781

$$$$
38
     RDKit          3D

 43 45  0  0  0  0  0  0  0  0999 V2000
   23.1232   71.5509   -2.4519 P   0  0  2  0  0  0  0  0  0  0  0  0
   23.3571   73.1049   -2.0672 O   0  0  0  0  0  0  0  0  0  0  0  0
   24.2961   70.8748   -3.0990 O   0  0  0  0  0  0  0  0  0  0  0  0
   21.7560   71.5665   -3.3170 O   0  0  0  0  0  0  0  0  0  0  0  0
   21.6585   72.4613   -4.4114 C   0  0  0  0  0  0  0  0  0  0  0  0
   20.6579   70.5348   -5.4415 O   0  0  0  0  0  0  0  0  0  0  0  0
   21.2837   71.8452   -8.0649 O   0  0  0  0  0  0  0  0  0  0  0  0
   18.6283   72.3812   -7.7512 O   0  0  0  0  0  0  0  0  0  0  0  0
   20.8789   72.4402   -6.8331 C   0  0  1  0  0  0  0  0  0  0  0  0
   19.4058   72.1892   -6.5870 C   0  0  2  0  0  0  0  0  0  0  0  0
   21.5287   71.6582   -5.6984 C   0  0  1  0  0  0  0  0  0  0  0  0
   19.4066   70.7447   -6.1162 C   0  0  2  0  0  0  0  0  0  0  0  0
   20.8813   72.3278   -8.8046 H   0  0  0  0  0  0  0  0  0  0  0  0
   18.6595   73.3153   -8.0106 H   0  0  0  0  0  0  0  0  0  0  0  0
   16.9529   69.5582   -6.8575 O   0  0  0  0  0  0  0  0  0  0  0  0
   15.3592   69.7202   -2.5360 O   0  0  0  0  0  0  0  0  0  0  0  0
   18.3329   70.4650   -5.2050 N   0  0  0  0  0  0  0  0  0  0  0  0
   16.1614   69.6397   -4.7051 N   0  0  0  0  0  0  0  0  0  0  0  0
   17.1417   69.8679   -5.6793 C   0  0  0  0  0  0  0  0  0  0  0  0
   18.4672   70.7817   -3.8576 C   0  0  0  0  0  0  0  0  0  0  0  0
   17.5225   70.5588   -2.9416 C   0  0  0  0  0  0  0  0  0  0  0  0
   16.2472   69.9379   -3.3544 C   0  0  0  0  0  0  0  0  0  0  0  0
   15.3228   69.2249   -5.0124 H   0  0  0  0  0  0  0  0  0  0  0  0
   22.6583   70.8952   -1.0495 O   0  0  0  0  0  0  0  0  0  0  0  0
   21.4483   71.2777   -0.0482 P   0  0  2  0  0  0  0  0  0  0  0  0
   21.5249   70.1245    1.0839 O   0  0  0  0  0  0  0  0  0  0  0  0
   20.1104   71.3998   -0.7183 O   0  0  0  0  0  0  0  0  0  0  0  0
   21.9461   72.6180    0.7008 O   0  0  0  0  0  0  0  0  0  0  0  0
   24.0842   73.3008    1.4614 O   0  0  0  0  0  0  0  0  0  0  0  0
   21.7877   74.7235    4.5843 O   0  0  0  0  0  0  0  0  0  0  0  0
   22.9345   76.5730    2.7103 O   0  0  0  0  0  0  0  0  0  0  0  0
   21.1374   72.1856    3.3530 O   0  0  0  0  0  0  0  0  0  0  0  0
   22.0767   74.3996    3.2216 C   0  0  1  0  0  0  0  0  0  0  0  0
   23.3069   75.1999    2.7891 C   0  0  1  0  0  0  0  0  0  0  0  0
   22.3448   72.8999    3.1110 C   0  0  2  0  0  0  0  0  0  0  0  0
   23.8373   74.7115    1.4344 C   0  0  1  0  0  0  0  0  0  0  0  0
   22.9157   72.5276    1.7415 C   0  0  1  0  0  0  0  0  0  0  0  0
   21.6160   75.6743    4.6614 H   0  0  0  0  0  0  0  0  0  0  0  0
   22.6010   76.8688    3.5720 H   0  0  0  0  0  0  0  0  0  0  0  0
   20.7863   72.4298    4.2231 H   0  0  0  0  0  0  0  0  0  0  0  0
   25.7936   75.8177    2.2456 O   0  0  0  0  0  0  0  0  0  0  0  0
   25.1538   75.3878    1.0581 C   0  0  0  0  0  0  0  0  0  0  0  0
   26.6331   76.2497    2.0216 H   0  0  0  0  0  0  0  0  0  0  0  0
 25 28  1  0
 25 24  1  0
 25 26  1  1
 25 27  2  0
  1  4  1  0
  1 24  1  0
  1  2  1  1
  1  3  2  0
  6 11  1  0
  6 12  1  0
 29 36  1  0
 29 37  1  0
  9  7  1  6
  7 13  1  0
 10  8  1  6
  8 14  1  0
 37 28  1  6
  4  5  1  0
 33 30  1  1
 30 38  1  0
 34 31  1  6
 31 39  1  0
 35 32  1  6
 32 40  1  0
 41 42  1  0
 41 43  1  0
 15 19  2  0
 16 22  2  0
 12 17  1  1
 17 19  1  0
 17 20  1  0
 18 19  1  0
 18 22  1  0
 18 23  1  0
  9 10  1  0
  9 11  1  0
 10 12  1  0
 11  5  1  1
 33 34  1  0
 33 35  1  0
 34 36  1  0
 35 37  1  0
 36 42  1  1
 20 21  2  0
 21 22  1  0
M  CHG  2   2  -1  26  -1
M  END
>  <COMPND>  (38) 
    8629 

>  <AUTHOR>  (38) 
    GENERATED BY OPEN BABEL 3.1.1

>  <MASTER>  (38) 
        0    0    0    0    0    0    0    0   58    0   58    0

>  <minimizedAffinity>  (38) 
-7.04874

>  <CNNscore>  (38) 
0.6279284954

>  <CNNaffinity>  (38) 
4.2612771988

>  <CNN_VS>  (38) 
2.6757774353

>  <CNNaffinity_variance>  (38) 
0.1538347006

$$$$
39
     RDKit          3D

 43 45  0  0  0  0  0  0  0  0999 V2000
   22.1337   73.1198   -7.4261 P   0  0  2  0  0  0  0  0  0  0  0  0
   21.1322   74.3375   -7.0633 O   0  0  0  0  0  0  0  0  0  0  0  0
   23.3379   73.5084   -8.2325 O   0  0  0  0  0  0  0  0  0  0  0  0
   21.1674   72.0090   -8.0971 O   0  0  0  0  0  0  0  0  0  0  0  0
   20.4363   71.1451   -7.2445 C   0  0  0  0  0  0  0  0  0  0  0  0
   18.5922   69.6057   -7.1867 O   0  0  0  0  0  0  0  0  0  0  0  0
   18.1138   70.3625  -10.0484 O   0  0  0  0  0  0  0  0  0  0  0  0
   16.2300   71.8235   -8.7243 O   0  0  0  0  0  0  0  0  0  0  0  0
   18.5606   71.1737   -8.9632 C   0  0  1  0  0  0  0  0  0  0  0  0
   17.4102   71.4800   -8.0272 C   0  0  2  0  0  0  0  0  0  0  0  0
   19.4682   70.3226   -8.0839 C   0  0  1  0  0  0  0  0  0  0  0  0
   17.2759   70.1778   -7.2563 C   0  0  2  0  0  0  0  0  0  0  0  0
   17.5326   70.8846  -10.6242 H   0  0  0  0  0  0  0  0  0  0  0  0
   16.3658   72.6587   -9.1984 H   0  0  0  0  0  0  0  0  0  0  0  0
   16.3404   68.1124   -5.5719 O   0  0  0  0  0  0  0  0  0  0  0  0
   15.4100   71.0674   -2.1596 O   0  0  0  0  0  0  0  0  0  0  0  0
   16.7838   70.3790   -5.9227 N   0  0  0  0  0  0  0  0  0  0  0  0
   15.8781   69.5854   -3.8742 N   0  0  0  0  0  0  0  0  0  0  0  0
   16.3365   69.2746   -5.1607 C   0  0  0  0  0  0  0  0  0  0  0  0
   16.7485   71.6602   -5.3830 C   0  0  0  0  0  0  0  0  0  0  0  0
   16.3072   71.9400   -4.1549 C   0  0  0  0  0  0  0  0  0  0  0  0
   15.8221   70.8425   -3.2934 C   0  0  0  0  0  0  0  0  0  0  0  0
   15.5611   68.8318   -3.3252 H   0  0  0  0  0  0  0  0  0  0  0  0
   22.4700   72.4824   -5.9792 O   0  0  0  0  0  0  0  0  0  0  0  0
   23.1021   73.1462   -4.6478 P   0  0  2  0  0  0  0  0  0  0  0  0
   23.3586   74.6826   -5.0851 O   0  0  0  0  0  0  0  0  0  0  0  0
   24.3195   72.4393   -4.1262 O   0  0  0  0  0  0  0  0  0  0  0  0
   21.8727   73.2192   -3.6046 O   0  0  0  0  0  0  0  0  0  0  0  0
   19.9083   71.8941   -3.5628 O   0  0  0  0  0  0  0  0  0  0  0  0
   18.3431   75.4392   -2.1372 O   0  0  0  0  0  0  0  0  0  0  0  0
   18.7079   73.2270   -0.3425 O   0  0  0  0  0  0  0  0  0  0  0  0
   20.3368   75.4815   -4.2355 O   0  0  0  0  0  0  0  0  0  0  0  0
   19.3443   74.4324   -2.3079 C   0  0  1  0  0  0  0  0  0  0  0  0
   18.7961   73.1132   -1.7600 C   0  0  1  0  0  0  0  0  0  0  0  0
   19.6729   74.3021   -3.7940 C   0  0  2  0  0  0  0  0  0  0  0  0
   19.6999   71.9347   -2.1463 C   0  0  1  0  0  0  0  0  0  0  0  0
   20.5359   73.0709   -4.0758 C   0  0  1  0  0  0  0  0  0  0  0  0
   18.1302   75.5273   -1.1957 H   0  0  0  0  0  0  0  0  0  0  0  0
   18.1348   73.9751   -0.1120 H   0  0  0  0  0  0  0  0  0  0  0  0
   19.7802   76.2537   -4.0518 H   0  0  0  0  0  0  0  0  0  0  0  0
   18.9977   69.7794   -2.9015 O   0  0  0  0  0  0  0  0  0  0  0  0
   19.0916   70.5923   -1.7462 C   0  0  0  0  0  0  0  0  0  0  0  0
   18.6125   68.9215   -2.6620 H   0  0  0  0  0  0  0  0  0  0  0  0
 25 28  1  0
 25 24  1  0
 25 26  1  6
 25 27  2  0
  1  4  1  0
  1 24  1  0
  1  2  1  1
  1  3  2  0
  6 11  1  0
  6 12  1  0
 29 36  1  0
 29 37  1  0
  9  7  1  6
  7 13  1  0
 10  8  1  6
  8 14  1  0
 37 28  1  1
  4  5  1  0
 33 30  1  6
 30 38  1  0
 34 31  1  1
 31 39  1  0
 35 32  1  1
 32 40  1  0
 41 42  1  0
 41 43  1  0
 15 19  2  0
 16 22  2  0
 12 17  1  1
 17 19  1  0
 17 20  1  0
 18 19  1  0
 18 22  1  0
 18 23  1  0
  9 10  1  0
  9 11  1  0
 10 12  1  0
 11  5  1  1
 33 34  1  0
 33 35  1  0
 34 36  1  0
 35 37  1  0
 36 42  1  6
 20 21  2  0
 21 22  1  0
M  CHG  2   2  -1  26  -1
M  END
>  <COMPND>  (39) 
    8629 

>  <AUTHOR>  (39) 
    GENERATED BY OPEN BABEL 3.1.1

>  <MASTER>  (39) 
        0    0    0    0    0    0    0    0   58    0   58    0

>  <minimizedAffinity>  (39) 
-6.57069

>  <CNNscore>  (39) 
0.5301311612

>  <CNNaffinity>  (39) 
4.0565910339

>  <CNN_VS>  (39) 
2.1505253315

>  <CNNaffinity_variance>  (39) 
0.5520052314

$$$$
40
     RDKit          3D

 43 45  0  0  0  0  0  0  0  0999 V2000
   23.4251   72.2338   -3.5832 P   0  0  2  0  0  0  0  0  0  0  0  0
   23.9514   70.7443   -3.2343 O   0  0  0  0  0  0  0  0  0  0  0  0
   24.4865   73.1894   -4.0434 O   0  0  0  0  0  0  0  0  0  0  0  0
   22.6071   72.6767   -2.2594 O   0  0  0  0  0  0  0  0  0  0  0  0
   23.3130   72.7955   -1.0365 C   0  0  0  0  0  0  0  0  0  0  0  0
   24.3624   71.2913    0.5158 O   0  0  0  0  0  0  0  0  0  0  0  0
   21.6122   70.2231    1.0512 O   0  0  0  0  0  0  0  0  0  0  0  0
   22.0398   71.8620    3.1885 O   0  0  0  0  0  0  0  0  0  0  0  0
   22.0225   71.5615    0.7759 C   0  0  1  0  0  0  0  0  0  0  0  0
   22.7154   72.1580    1.9832 C   0  0  2  0  0  0  0  0  0  0  0  0
   23.1529   71.5053   -0.2442 C   0  0  1  0  0  0  0  0  0  0  0  0
   24.0888   71.5126    1.9090 C   0  0  2  0  0  0  0  0  0  0  0  0
   20.8906   70.2334    1.7001 H   0  0  0  0  0  0  0  0  0  0  0  0
   21.1719   72.2950    3.1875 H   0  0  0  0  0  0  0  0  0  0  0  0
   26.7286   70.6579    2.4369 O   0  0  0  0  0  0  0  0  0  0  0  0
   27.9511   74.8096    4.0214 O   0  0  0  0  0  0  0  0  0  0  0  0
   25.1176   72.3494    2.4591 N   0  0  0  0  0  0  0  0  0  0  0  0
   27.3352   72.7259    3.2252 N   0  0  0  0  0  0  0  0  0  0  0  0
   26.4102   71.8223    2.6867 C   0  0  0  0  0  0  0  0  0  0  0  0
   24.8404   73.6770    2.7666 C   0  0  0  0  0  0  0  0  0  0  0  0
   25.7333   74.5253    3.2808 C   0  0  0  0  0  0  0  0  0  0  0  0
   27.1074   74.0540    3.5489 C   0  0  0  0  0  0  0  0  0  0  0  0
   28.2422   72.3808    3.3926 H   0  0  0  0  0  0  0  0  0  0  0  0
   22.2518   71.9614   -4.6612 O   0  0  0  0  0  0  0  0  0  0  0  0
   21.5622   72.9380   -5.7491 P   0  0  2  0  0  0  0  0  0  0  0  0
   22.4563   72.7043   -7.0770 O   0  0  0  0  0  0  0  0  0  0  0  0
   21.4630   74.3714   -5.3138 O   0  0  0  0  0  0  0  0  0  0  0  0
   20.1454   72.2410   -6.0838 O   0  0  0  0  0  0  0  0  0  0  0  0
   19.3590   70.0595   -5.5947 O   0  0  0  0  0  0  0  0  0  0  0  0
   17.6201   70.5715   -9.3048 O   0  0  0  0  0  0  0  0  0  0  0  0
   15.9800   70.6413   -6.9483 O   0  0  0  0  0  0  0  0  0  0  0  0
   20.2866   71.5827   -8.8080 O   0  0  0  0  0  0  0  0  0  0  0  0
   18.0914   70.9830   -8.0188 C   0  0  1  0  0  0  0  0  0  0  0  0
   17.3316   70.1903   -6.9534 C   0  0  1  0  0  0  0  0  0  0  0  0
   19.5912   70.7086   -7.9255 C   0  0  2  0  0  0  0  0  0  0  0  0
   17.9630   70.3788   -5.5674 C   0  0  1  0  0  0  0  0  0  0  0  0
   20.1084   70.8772   -6.4958 C   0  0  1  0  0  0  0  0  0  0  0  0
   16.6685   70.7435   -9.3708 H   0  0  0  0  0  0  0  0  0  0  0  0
   15.5931   70.5172   -7.8293 H   0  0  0  0  0  0  0  0  0  0  0  0
   19.9503   71.4661   -9.7098 H   0  0  0  0  0  0  0  0  0  0  0  0
   16.0062   69.9418   -4.2678 O   0  0  0  0  0  0  0  0  0  0  0  0
   17.3192   69.4752   -4.5180 C   0  0  0  0  0  0  0  0  0  0  0  0
   15.5840   69.3760   -3.6019 H   0  0  0  0  0  0  0  0  0  0  0  0
 25 28  1  0
 25 24  1  0
 25 26  1  6
 25 27  2  0
  1  4  1  0
  1 24  1  0
  1  2  1  1
  1  3  2  0
  6 11  1  0
  6 12  1  0
 29 36  1  0
 29 37  1  0
  9  7  1  1
  7 13  1  0
 10  8  1  1
  8 14  1  0
 37 28  1  1
  4  5  1  0
 33 30  1  6
 30 38  1  0
 34 31  1  1
 31 39  1  0
 35 32  1  6
 32 40  1  0
 41 42  1  0
 41 43  1  0
 15 19  2  0
 16 22  2  0
 12 17  1  6
 17 19  1  0
 17 20  1  0
 18 19  1  0
 18 22  1  0
 18 23  1  0
  9 10  1  0
  9 11  1  0
 10 12  1  0
 11  5  1  1
 33 34  1  0
 33 35  1  0
 34 36  1  0
 35 37  1  0
 36 42  1  1
 20 21  2  0
 21 22  1  0
M  CHG  2   2  -1  26  -1
M  END
>  <COMPND>  (40) 
    8629 

>  <AUTHOR>  (40) 
    GENERATED BY OPEN BABEL 3.1.1

>  <MASTER>  (40) 
        0    0    0    0    0    0    0    0   58    0   58    0

>  <minimizedAffinity>  (40) 
-8.08522

>  <CNNscore>  (40) 
0.5216841102

>  <CNNaffinity>  (40) 
4.2700815201

>  <CNN_VS>  (40) 
2.2276337147

>  <CNNaffinity_variance>  (40) 
0.1427835971

$$$$
41
     RDKit          3D

 43 45  0  0  0  0  0  0  0  0999 V2000
   22.1590   71.4832   -3.0247 P   0  0  2  0  0  0  0  0  0  0  0  0
   21.6060   72.9953   -2.8665 O   0  0  0  0  0  0  0  0  0  0  0  0
   23.6317   71.3714   -3.2893 O   0  0  0  0  0  0  0  0  0  0  0  0
   21.1922   70.8313   -4.1464 O   0  0  0  0  0  0  0  0  0  0  0  0
   20.2380   69.8665   -3.7385 C   0  0  0  0  0  0  0  0  0  0  0  0
   18.6262   71.3088   -4.7853 O   0  0  0  0  0  0  0  0  0  0  0  0
   16.6486   70.2208   -2.8114 O   0  0  0  0  0  0  0  0  0  0  0  0
   16.0595   68.8209   -5.0763 O   0  0  0  0  0  0  0  0  0  0  0  0
   17.7273   69.5564   -3.4674 C   0  0  1  0  0  0  0  0  0  0  0  0
   17.3805   69.2971   -4.9186 C   0  0  2  0  0  0  0  0  0  0  0  0
   18.8823   70.5428   -3.5878 C   0  0  1  0  0  0  0  0  0  0  0  0
   17.5862   70.6674   -5.5415 C   0  0  2  0  0  0  0  0  0  0  0  0
   15.8992   69.6105   -2.7228 H   0  0  0  0  0  0  0  0  0  0  0  0
   15.9793   67.9468   -4.6637 H   0  0  0  0  0  0  0  0  0  0  0  0
   15.8083   70.3348   -7.7108 O   0  0  0  0  0  0  0  0  0  0  0  0
   19.2501   70.3775  -10.7757 O   0  0  0  0  0  0  0  0  0  0  0  0
   17.9905   70.5888   -6.9169 N   0  0  0  0  0  0  0  0  0  0  0  0
   17.5235   70.3565   -9.2351 N   0  0  0  0  0  0  0  0  0  0  0  0
   17.0183   70.4202   -7.9302 C   0  0  0  0  0  0  0  0  0  0  0  0
   19.3378   70.6791   -7.2494 C   0  0  0  0  0  0  0  0  0  0  0  0
   19.8033   70.6152   -8.4986 C   0  0  0  0  0  0  0  0  0  0  0  0
   18.8534   70.4399   -9.6161 C   0  0  0  0  0  0  0  0  0  0  0  0
   16.8646   70.2389   -9.9575 H   0  0  0  0  0  0  0  0  0  0  0  0
   21.6647   70.7708   -1.6605 O   0  0  0  0  0  0  0  0  0  0  0  0
   21.3367   71.3840   -0.2013 P   0  0  2  0  0  0  0  0  0  0  0  0
   21.5648   70.1258    0.7898 O   0  0  0  0  0  0  0  0  0  0  0  0
   19.9815   72.0208   -0.0919 O   0  0  0  0  0  0  0  0  0  0  0  0
   22.5697   72.3775    0.1108 O   0  0  0  0  0  0  0  0  0  0  0  0
   22.0459   73.4281    2.1696 O   0  0  0  0  0  0  0  0  0  0  0  0
   25.6526   75.2787    1.3834 O   0  0  0  0  0  0  0  0  0  0  0  0
   25.4956   73.3043    3.4631 O   0  0  0  0  0  0  0  0  0  0  0  0
   23.8077   74.7333   -0.7796 O   0  0  0  0  0  0  0  0  0  0  0  0
   24.7160   74.1979    1.3860 C   0  0  1  0  0  0  0  0  0  0  0  0
   24.3526   73.8816    2.8381 C   0  0  1  0  0  0  0  0  0  0  0  0
   23.4740   74.6118    0.5989 C   0  0  2  0  0  0  0  0  0  0  0  0
   23.1593   72.9197    2.9137 C   0  0  1  0  0  0  0  0  0  0  0  0
   22.3305   73.6122    0.7814 C   0  0  1  0  0  0  0  0  0  0  0  0
   26.4438   75.0222    1.8811 H   0  0  0  0  0  0  0  0  0  0  0  0
   26.2421   73.9216    3.4081 H   0  0  0  0  0  0  0  0  0  0  0  0
   24.5325   75.3690   -0.8819 H   0  0  0  0  0  0  0  0  0  0  0  0
   21.3683   73.2342    4.4636 O   0  0  0  0  0  0  0  0  0  0  0  0
   22.6802   72.7145    4.3491 C   0  0  0  0  0  0  0  0  0  0  0  0
   21.0501   73.1102    5.3720 H   0  0  0  0  0  0  0  0  0  0  0  0
 25 28  1  0
 25 24  1  0
 25 26  1  1
 25 27  2  0
  1  4  1  0
  1 24  1  0
  1  2  1  1
  1  3  2  0
  6 11  1  0
  6 12  1  0
 29 36  1  0
 29 37  1  0
  9  7  1  1
  7 13  1  0
 10  8  1  1
  8 14  1  0
 37 28  1  1
  4  5  1  0
 33 30  1  1
 30 38  1  0
 34 31  1  6
 31 39  1  0
 35 32  1  6
 32 40  1  0
 41 42  1  0
 41 43  1  0
 15 19  2  0
 16 22  2  0
 12 17  1  6
 17 19  1  0
 17 20  1  0
 18 19  1  0
 18 22  1  0
 18 23  1  0
  9 10  1  0
  9 11  1  0
 10 12  1  0
 11  5  1  6
 33 34  1  0
 33 35  1  0
 34 36  1  0
 35 37  1  0
 36 42  1  1
 20 21  2  0
 21 22  1  0
M  CHG  2   2  -1  26  -1
M  END
>  <COMPND>  (41) 
    8629 

>  <AUTHOR>  (41) 
    GENERATED BY OPEN BABEL 3.1.1

>  <MASTER>  (41) 
        0    0    0    0    0    0    0    0   58    0   58    0

>  <minimizedAffinity>  (41) 
-7.67735

>  <CNNscore>  (41) 
0.9410547614

>  <CNNaffinity>  (41) 
4.7786073685

>  <CNN_VS>  (41) 
4.4969310760

>  <CNNaffinity_variance>  (41) 
0.0423446968

$$$$
42
     RDKit          3D

 43 45  0  0  0  0  0  0  0  0999 V2000
   20.6678   71.3145   -1.5308 P   0  0  2  0  0  0  0  0  0  0  0  0
   21.3144   70.5363   -0.2684 O   0  0  0  0  0  0  0  0  0  0  0  0
   20.2261   72.7207   -1.2499 O   0  0  0  0  0  0  0  0  0  0  0  0
   19.5159   70.3084   -2.0587 O   0  0  0  0  0  0  0  0  0  0  0  0
   19.1788   70.3293   -3.4349 C   0  0  0  0  0  0  0  0  0  0  0  0
   17.5250   71.3794   -4.8263 O   0  0  0  0  0  0  0  0  0  0  0  0
   15.4920   69.8355   -3.2534 O   0  0  0  0  0  0  0  0  0  0  0  0
   15.7055   68.3736   -5.5456 O   0  0  0  0  0  0  0  0  0  0  0  0
   16.8031   69.4469   -3.6602 C   0  0  1  0  0  0  0  0  0  0  0  0
   16.8237   69.1378   -5.1426 C   0  0  2  0  0  0  0  0  0  0  0  0
   17.7027   70.6738   -3.5785 C   0  0  1  0  0  0  0  0  0  0  0  0
   16.8326   70.5284   -5.7543 C   0  0  2  0  0  0  0  0  0  0  0  0
   14.8994   69.0681   -3.2970 H   0  0  0  0  0  0  0  0  0  0  0  0
   15.7455   67.4980   -5.1302 H   0  0  0  0  0  0  0  0  0  0  0  0
   15.5357   70.5531   -8.2634 O   0  0  0  0  0  0  0  0  0  0  0  0
   19.5422   70.6732  -10.5383 O   0  0  0  0  0  0  0  0  0  0  0  0
   17.5123   70.5664   -7.0184 N   0  0  0  0  0  0  0  0  0  0  0  0
   17.5317   70.6131   -9.3941 N   0  0  0  0  0  0  0  0  0  0  0  0
   16.7676   70.5749   -8.2208 C   0  0  0  0  0  0  0  0  0  0  0  0
   18.9021   70.5951   -7.0573 C   0  0  0  0  0  0  0  0  0  0  0  0
   19.6159   70.6301   -8.1845 C   0  0  0  0  0  0  0  0  0  0  0  0
   18.9144   70.6413   -9.4844 C   0  0  0  0  0  0  0  0  0  0  0  0
   17.0343   70.6193  -10.2440 H   0  0  0  0  0  0  0  0  0  0  0  0
   21.8127   71.1828   -2.6642 O   0  0  0  0  0  0  0  0  0  0  0  0
   23.2324   71.9374   -2.8319 P   0  0  2  0  0  0  0  0  0  0  0  0
   24.2872   70.7180   -2.9659 O   0  0  0  0  0  0  0  0  0  0  0  0
   23.5462   72.9095   -1.7317 O   0  0  0  0  0  0  0  0  0  0  0  0
   23.1758   72.5914   -4.3063 O   0  0  0  0  0  0  0  0  0  0  0  0
   21.0598   73.6582   -4.3382 O   0  0  0  0  0  0  0  0  0  0  0  0
   22.4478   74.8349   -8.0449 O   0  0  0  0  0  0  0  0  0  0  0  0
   22.3003   76.7523   -5.9119 O   0  0  0  0  0  0  0  0  0  0  0  0
   23.0059   72.1652   -7.0749 O   0  0  0  0  0  0  0  0  0  0  0  0
   22.5579   74.4952   -6.6600 C   0  0  1  0  0  0  0  0  0  0  0  0
   21.6896   75.4661   -5.8575 C   0  0  1  0  0  0  0  0  0  0  0  0
   22.0828   73.0573   -6.4595 C   0  0  2  0  0  0  0  0  0  0  0  0
   21.5438   75.0049   -4.4011 C   0  0  1  0  0  0  0  0  0  0  0  0
   21.9243   72.7165   -4.9767 C   0  0  1  0  0  0  0  0  0  0  0  0
   22.7484   75.7466   -8.1791 H   0  0  0  0  0  0  0  0  0  0  0  0
   22.3869   77.0316   -6.8369 H   0  0  0  0  0  0  0  0  0  0  0  0
   23.0972   72.3912   -8.0132 H   0  0  0  0  0  0  0  0  0  0  0  0
   19.6837   76.4976   -4.5461 O   0  0  0  0  0  0  0  0  0  0  0  0
   20.5554   75.8709   -3.6232 C   0  0  0  0  0  0  0  0  0  0  0  0
   19.0488   77.0519   -4.0652 H   0  0  0  0  0  0  0  0  0  0  0  0
 25 28  1  0
 25 24  1  0
 25 26  1  6
 25 27  2  0
  1  4  1  0
  1 24  1  0
  1  2  1  1
  1  3  2  0
  6 11  1  0
  6 12  1  0
 29 36  1  0
 29 37  1  0
  9  7  1  6
  7 13  1  0
 10  8  1  6
  8 14  1  0
 37 28  1  1
  4  5  1  0
 33 30  1  6
 30 38  1  0
 34 31  1  1
 31 39  1  0
 35 32  1  1
 32 40  1  0
 41 42  1  0
 41 43  1  0
 15 19  2  0
 16 22  2  0
 12 17  1  6
 17 19  1  0
 17 20  1  0
 18 19  1  0
 18 22  1  0
 18 23  1  0
  9 10  1  0
  9 11  1  0
 10 12  1  0
 11  5  1  6
 33 34  1  0
 33 35  1  0
 34 36  1  0
 35 37  1  0
 36 42  1  1
 20 21  2  0
 21 22  1  0
M  CHG  2   2  -1  26  -1
M  END
>  <COMPND>  (42) 
    8629 

>  <AUTHOR>  (42) 
    GENERATED BY OPEN BABEL 3.1.1

>  <MASTER>  (42) 
        0    0    0    0    0    0    0    0   58    0   58    0

>  <minimizedAffinity>  (42) 
-7.96435

>  <CNNscore>  (42) 
0.9383667707

>  <CNNaffinity>  (42) 
4.7158617973

>  <CNN_VS>  (42) 
4.4252080917

>  <CNNaffinity_variance>  (42) 
0.5387783051

$$$$
43
     RDKit          3D

 43 45  0  0  0  0  0  0  0  0999 V2000
   22.8345   71.9593   -2.4947 P   0  0  2  0  0  0  0  0  0  0  0  0
   23.2330   73.3972   -1.8694 O   0  0  0  0  0  0  0  0  0  0  0  0
   23.8664   71.3541   -3.4005 O   0  0  0  0  0  0  0  0  0  0  0  0
   21.3803   72.2133   -3.1570 O   0  0  0  0  0  0  0  0  0  0  0  0
   20.6771   71.1045   -3.6899 C   0  0  0  0  0  0  0  0  0  0  0  0
   18.6169   71.8134   -4.7032 O   0  0  0  0  0  0  0  0  0  0  0  0
   17.2374   70.3685   -2.4671 O   0  0  0  0  0  0  0  0  0  0  0  0
   17.0181   68.6073   -4.5375 O   0  0  0  0  0  0  0  0  0  0  0  0
   18.4356   70.0237   -3.1606 C   0  0  1  0  0  0  0  0  0  0  0  0
   18.1105   69.5036   -4.5453 C   0  0  2  0  0  0  0  0  0  0  0  0
   19.1846   71.3131   -3.4729 C   0  0  1  0  0  0  0  0  0  0  0  0
   17.8087   70.7866   -5.3009 C   0  0  2  0  0  0  0  0  0  0  0  0
   16.7421   69.5609   -2.2566 H   0  0  0  0  0  0  0  0  0  0  0  0
   17.2595   67.8073   -4.0451 H   0  0  0  0  0  0  0  0  0  0  0  0
   15.9122   70.4065   -7.3593 O   0  0  0  0  0  0  0  0  0  0  0  0
   19.1720   70.4294  -10.6172 O   0  0  0  0  0  0  0  0  0  0  0  0
   18.1341   70.6900   -6.6960 N   0  0  0  0  0  0  0  0  0  0  0  0
   17.5369   70.4184   -8.9798 N   0  0  0  0  0  0  0  0  0  0  0  0
   17.1069   70.4981   -7.6491 C   0  0  0  0  0  0  0  0  0  0  0  0
   19.4592   70.7858   -7.1067 C   0  0  0  0  0  0  0  0  0  0  0  0
   19.8529   70.7065   -8.3795 C   0  0  0  0  0  0  0  0  0  0  0  0
   18.8419   70.5065   -9.4378 C   0  0  0  0  0  0  0  0  0  0  0  0
   16.8387   70.2845   -9.6613 H   0  0  0  0  0  0  0  0  0  0  0  0
   22.4882   71.0769   -1.1853 O   0  0  0  0  0  0  0  0  0  0  0  0
   21.6712   71.4481    0.1592 P   0  0  2  0  0  0  0  0  0  0  0  0
   21.4851   70.0155    0.8877 O   0  0  0  0  0  0  0  0  0  0  0  0
   20.3890   72.1898   -0.0849 O   0  0  0  0  0  0  0  0  0  0  0  0
   22.7361   72.2380    1.0795 O   0  0  0  0  0  0  0  0  0  0  0  0
   24.3876   71.9989    2.7623 O   0  0  0  0  0  0  0  0  0  0  0  0
   21.6137   74.2154    4.8702 O   0  0  0  0  0  0  0  0  0  0  0  0
   24.0579   75.4526    4.0081 O   0  0  0  0  0  0  0  0  0  0  0  0
   20.7264   72.1589    3.0364 O   0  0  0  0  0  0  0  0  0  0  0  0
   22.3473   73.8073    3.7124 C   0  0  1  0  0  0  0  0  0  0  0  0
   23.8349   74.0456    3.9785 C   0  0  1  0  0  0  0  0  0  0  0  0
   22.0788   72.3270    3.4475 C   0  0  2  0  0  0  0  0  0  0  0  0
   24.7033   73.3896    2.8965 C   0  0  1  0  0  0  0  0  0  0  0  0
   23.0286   71.7611    2.3903 C   0  0  1  0  0  0  0  0  0  0  0  0
   21.7794   75.1546    5.0436 H   0  0  0  0  0  0  0  0  0  0  0  0
   23.5033   75.8547    4.6951 H   0  0  0  0  0  0  0  0  0  0  0  0
   20.1352   72.5208    3.7142 H   0  0  0  0  0  0  0  0  0  0  0  0
   26.6103   74.8208    3.0524 O   0  0  0  0  0  0  0  0  0  0  0  0
   26.1919   73.4794    3.2256 C   0  0  0  0  0  0  0  0  0  0  0  0
   27.5557   74.8931    3.2587 H   0  0  0  0  0  0  0  0  0  0  0  0
 25 28  1  0
 25 24  1  0
 25 26  1  1
 25 27  2  0
  1  4  1  0
  1 24  1  0
  1  2  1  1
  1  3  2  0
  6 11  1  0
  6 12  1  0
 29 36  1  0
 29 37  1  0
  9  7  1  1
  7 13  1  0
 10  8  1  1
  8 14  1  0
 37 28  1  6
  4  5  1  0
 33 30  1  1
 30 38  1  0
 34 31  1  6
 31 39  1  0
 35 32  1  6
 32 40  1  0
 41 42  1  0
 41 43  1  0
 15 19  2  0
 16 22  2  0
 12 17  1  6
 17 19  1  0
 17 20  1  0
 18 19  1  0
 18 22  1  0
 18 23  1  0
  9 10  1  0
  9 11  1  0
 10 12  1  0
 11  5  1  6
 33 34  1  0
 33 35  1  0
 34 36  1  0
 35 37  1  0
 36 42  1  1
 20 21  2  0
 21 22  1  0
M  CHG  2   2  -1  26  -1
M  END
>  <COMPND>  (43) 
    8629 

>  <AUTHOR>  (43) 
    GENERATED BY OPEN BABEL 3.1.1

>  <MASTER>  (43) 
        0    0    0    0    0    0    0    0   58    0   58    0

>  <minimizedAffinity>  (43) 
-7.80553

>  <CNNscore>  (43) 
0.9189189672

>  <CNNaffinity>  (43) 
4.7739791870

>  <CNN_VS>  (43) 
4.3868999481

>  <CNNaffinity_variance>  (43) 
0.0505746529

$$$$
44
     RDKit          3D

 43 45  0  0  0  0  0  0  0  0999 V2000
   22.8711   71.9395   -3.1477 P   0  0  2  0  0  0  0  0  0  0  0  0
   24.1630   72.1783   -4.0919 O   0  0  0  0  0  0  0  0  0  0  0  0
   23.1080   71.0503   -1.9626 O   0  0  0  0  0  0  0  0  0  0  0  0
   21.7235   71.4478   -4.1769 O   0  0  0  0  0  0  0  0  0  0  0  0
   20.8815   70.3762   -3.7888 C   0  0  0  0  0  0  0  0  0  0  0  0
   19.0268   71.5931   -4.7126 O   0  0  0  0  0  0  0  0  0  0  0  0
   17.3872   70.4047   -2.5012 O   0  0  0  0  0  0  0  0  0  0  0  0
   16.7251   68.8437   -4.6370 O   0  0  0  0  0  0  0  0  0  0  0  0
   18.4589   69.8236   -3.2423 C   0  0  1  0  0  0  0  0  0  0  0  0
   17.9967   69.4601   -4.6379 C   0  0  2  0  0  0  0  0  0  0  0  0
   19.4833   70.9163   -3.5210 C   0  0  1  0  0  0  0  0  0  0  0  0
   17.9903   70.8125   -5.3299 C   0  0  2  0  0  0  0  0  0  0  0  0
   16.7203   69.7257   -2.3110 H   0  0  0  0  0  0  0  0  0  0  0  0
   16.7813   67.9870   -4.1858 H   0  0  0  0  0  0  0  0  0  0  0  0
   16.0328   70.2748   -7.2938 O   0  0  0  0  0  0  0  0  0  0  0  0
   19.1379   70.4378  -10.6958 O   0  0  0  0  0  0  0  0  0  0  0  0
   18.2593   70.7094   -6.7365 N   0  0  0  0  0  0  0  0  0  0  0  0
   17.5804   70.3566   -8.9861 N   0  0  0  0  0  0  0  0  0  0  0  0
   17.2053   70.4352   -7.6389 C   0  0  0  0  0  0  0  0  0  0  0  0
   19.5564   70.8797   -7.2082 C   0  0  0  0  0  0  0  0  0  0  0  0
   19.8977   70.8003   -8.4960 C   0  0  0  0  0  0  0  0  0  0  0  0
   18.8558   70.5170   -9.5041 C   0  0  0  0  0  0  0  0  0  0  0  0
   16.8628   70.1661   -9.6330 H   0  0  0  0  0  0  0  0  0  0  0  0
   22.4078   73.4434   -2.7784 O   0  0  0  0  0  0  0  0  0  0  0  0
   21.6651   74.5732   -3.6645 P   0  0  2  0  0  0  0  0  0  0  0  0
   22.2020   75.9588   -3.0248 O   0  0  0  0  0  0  0  0  0  0  0  0
   20.1696   74.4447   -3.6974 O   0  0  0  0  0  0  0  0  0  0  0  0
   22.3755   74.4899   -5.1113 O   0  0  0  0  0  0  0  0  0  0  0  0
   21.0381   75.4330   -6.8256 O   0  0  0  0  0  0  0  0  0  0  0  0
   23.9256   73.6264   -9.1600 O   0  0  0  0  0  0  0  0  0  0  0  0
   23.8972   76.4864   -8.9003 O   0  0  0  0  0  0  0  0  0  0  0  0
   22.9659   72.3047   -6.7701 O   0  0  0  0  0  0  0  0  0  0  0  0
   23.4210   74.3167   -8.0136 C   0  0  1  0  0  0  0  0  0  0  0  0
   22.8258   75.6472   -8.4784 C   0  0  1  0  0  0  0  0  0  0  0  0
   22.3531   73.4552   -7.3422 C   0  0  2  0  0  0  0  0  0  0  0  0
   22.0302   76.3216   -7.3526 C   0  0  1  0  0  0  0  0  0  0  0  0
   21.5882   74.2360   -6.2719 C   0  0  1  0  0  0  0  0  0  0  0  0
   24.6045   74.1678   -9.5907 H   0  0  0  0  0  0  0  0  0  0  0  0
   24.3918   76.0488   -9.6110 H   0  0  0  0  0  0  0  0  0  0  0  0
   23.4466   71.8189   -7.4577 H   0  0  0  0  0  0  0  0  0  0  0  0
   22.2462   78.6051   -8.0219 O   0  0  0  0  0  0  0  0  0  0  0  0
   21.2976   77.5703   -7.8387 C   0  0  0  0  0  0  0  0  0  0  0  0
   21.7943   79.4061   -8.3315 H   0  0  0  0  0  0  0  0  0  0  0  0
 25 28  1  0
 25 24  1  0
 25 26  1  1
 25 27  2  0
  1  4  1  0
  1 24  1  0
  1  2  1  6
  1  3  2  0
  6 11  1  0
  6 12  1  0
 29 36  1  0
 29 37  1  0
  9  7  1  1
  7 13  1  0
 10  8  1  1
  8 14  1  0
 37 28  1  1
  4  5  1  0
 33 30  1  6
 30 38  1  0
 34 31  1  1
 31 39  1  0
 35 32  1  1
 32 40  1  0
 41 42  1  0
 41 43  1  0
 15 19  2  0
 16 22  2  0
 12 17  1  6
 17 19  1  0
 17 20  1  0
 18 19  1  0
 18 22  1  0
 18 23  1  0
  9 10  1  0
  9 11  1  0
 10 12  1  0
 11  5  1  6
 33 34  1  0
 33 35  1  0
 34 36  1  0
 35 37  1  0
 36 42  1  6
 20 21  2  0
 21 22  1  0
M  CHG  2   2  -1  26  -1
M  END
>  <COMPND>  (44) 
    8629 

>  <AUTHOR>  (44) 
    GENERATED BY OPEN BABEL 3.1.1

>  <MASTER>  (44) 
        0    0    0    0    0    0    0    0   58    0   58    0

>  <minimizedAffinity>  (44) 
-6.95178

>  <CNNscore>  (44) 
0.9122847915

>  <CNNaffinity>  (44) 
4.6969790459

>  <CNN_VS>  (44) 
4.2849826813

>  <CNNaffinity_variance>  (44) 
0.1848184168

$$$$
45
     RDKit          3D

 43 45  0  0  0  0  0  0  0  0999 V2000
   23.2604   71.8962   -3.2196 P   0  0  2  0  0  0  0  0  0  0  0  0
   23.9281   73.1598   -3.9780 O   0  0  0  0  0  0  0  0  0  0  0  0
   24.1808   70.7326   -2.9960 O   0  0  0  0  0  0  0  0  0  0  0  0
   21.9294   71.5832   -4.0847 O   0  0  0  0  0  0  0  0  0  0  0  0
   21.1233   70.4798   -3.7096 C   0  0  0  0  0  0  0  0  0  0  0  0
   19.1911   71.6109   -4.5822 O   0  0  0  0  0  0  0  0  0  0  0  0
   17.6836   70.4127   -2.2839 O   0  0  0  0  0  0  0  0  0  0  0  0
   16.9947   68.7844   -4.3601 O   0  0  0  0  0  0  0  0  0  0  0  0
   18.7455   69.8540   -3.0556 C   0  0  1  0  0  0  0  0  0  0  0  0
   18.2422   69.4450   -4.4241 C   0  0  2  0  0  0  0  0  0  0  0  0
   19.7182   70.9760   -3.3967 C   0  0  1  0  0  0  0  0  0  0  0  0
   18.1599   70.7814   -5.1420 C   0  0  2  0  0  0  0  0  0  0  0  0
   17.0496   69.7148   -2.0537 H   0  0  0  0  0  0  0  0  0  0  0  0
   17.0993   67.9399   -3.8946 H   0  0  0  0  0  0  0  0  0  0  0  0
   16.1633   70.0628   -7.0062 O   0  0  0  0  0  0  0  0  0  0  0  0
   19.1075   70.3371  -10.5415 O   0  0  0  0  0  0  0  0  0  0  0  0
   18.3770   70.6579   -6.5559 N   0  0  0  0  0  0  0  0  0  0  0  0
   17.6309   70.2001   -8.7650 N   0  0  0  0  0  0  0  0  0  0  0  0
   17.3073   70.2905   -7.4052 C   0  0  0  0  0  0  0  0  0  0  0  0
   19.6391   70.9003   -7.0870 C   0  0  0  0  0  0  0  0  0  0  0  0
   19.9316   70.8085   -8.3860 C   0  0  0  0  0  0  0  0  0  0  0  0
   18.8702   70.4300   -9.3411 C   0  0  0  0  0  0  0  0  0  0  0  0
   16.9015   69.9453   -9.3756 H   0  0  0  0  0  0  0  0  0  0  0  0
   22.6683   72.5553   -1.8676 O   0  0  0  0  0  0  0  0  0  0  0  0
   22.4847   71.9457   -0.3817 P   0  0  2  0  0  0  0  0  0  0  0  0
   23.9762   72.0272    0.2397 O   0  0  0  0  0  0  0  0  0  0  0  0
   21.8748   70.5742   -0.3503 O   0  0  0  0  0  0  0  0  0  0  0  0
   21.6472   73.0686    0.4199 O   0  0  0  0  0  0  0  0  0  0  0  0
   21.3230   72.1350    2.5739 O   0  0  0  0  0  0  0  0  0  0  0  0
   19.4537   75.7727    3.1432 O   0  0  0  0  0  0  0  0  0  0  0  0
   22.0004   75.2789    4.3756 O   0  0  0  0  0  0  0  0  0  0  0  0
   19.1779   74.3873    0.6165 O   0  0  0  0  0  0  0  0  0  0  0  0
   20.4376   74.8829    2.6088 C   0  0  1  0  0  0  0  0  0  0  0  0
   21.2053   74.2597    3.7763 C   0  0  1  0  0  0  0  0  0  0  0  0
   19.7387   73.8017    1.7866 C   0  0  2  0  0  0  0  0  0  0  0  0
   22.0917   73.1008    3.3007 C   0  0  1  0  0  0  0  0  0  0  0  0
   20.6981   72.6725    1.4066 C   0  0  1  0  0  0  0  0  0  0  0  0
   19.8910   76.4620    3.6660 H   0  0  0  0  0  0  0  0  0  0  0  0
   21.4287   76.0049    4.6710 H   0  0  0  0  0  0  0  0  0  0  0  0
   18.5722   75.1005    0.8705 H   0  0  0  0  0  0  0  0  0  0  0  0
   22.1164   72.7763    5.6678 O   0  0  0  0  0  0  0  0  0  0  0  0
   22.7449   72.3640    4.4680 C   0  0  0  0  0  0  0  0  0  0  0  0
   22.5217   72.3152    6.4194 H   0  0  0  0  0  0  0  0  0  0  0  0
 25 28  1  0
 25 24  1  0
 25 26  1  1
 25 27  2  0
  1  4  1  0
  1 24  1  0
  1  2  1  6
  1  3  2  0
  6 11  1  0
  6 12  1  0
 29 36  1  0
 29 37  1  0
  9  7  1  1
  7 13  1  0
 10  8  1  1
  8 14  1  0
 37 28  1  6
  4  5  1  0
 33 30  1  1
 30 38  1  0
 34 31  1  6
 31 39  1  0
 35 32  1  6
 32 40  1  0
 41 42  1  0
 41 43  1  0
 15 19  2  0
 16 22  2  0
 12 17  1  6
 17 19  1  0
 17 20  1  0
 18 19  1  0
 18 22  1  0
 18 23  1  0
  9 10  1  0
  9 11  1  0
 10 12  1  0
 11  5  1  6
 33 34  1  0
 33 35  1  0
 34 36  1  0
 35 37  1  0
 36 42  1  1
 20 21  2  0
 21 22  1  0
M  CHG  2   2  -1  26  -1
M  END
>  <COMPND>  (45) 
    8629 

>  <AUTHOR>  (45) 
    GENERATED BY OPEN BABEL 3.1.1

>  <MASTER>  (45) 
        0    0    0    0    0    0    0    0   58    0   58    0

>  <minimizedAffinity>  (45) 
-7.29521

>  <CNNscore>  (45) 
0.9077754617

>  <CNNaffinity>  (45) 
4.7276034355

>  <CNN_VS>  (45) 
4.2916026115

>  <CNNaffinity_variance>  (45) 
0.0261162370

$$$$
46
     RDKit          3D

 43 45  0  0  0  0  0  0  0  0999 V2000
   22.9657   71.9465   -3.7395 P   0  0  2  0  0  0  0  0  0  0  0  0
   23.6094   72.9071   -4.8710 O   0  0  0  0  0  0  0  0  0  0  0  0
   23.9275   70.9898   -3.0984 O   0  0  0  0  0  0  0  0  0  0  0  0
   21.6934   71.2740   -4.4789 O   0  0  0  0  0  0  0  0  0  0  0  0
   20.9370   70.3044   -3.7749 C   0  0  0  0  0  0  0  0  0  0  0  0
   19.0898   71.5541   -4.6692 O   0  0  0  0  0  0  0  0  0  0  0  0
   17.4655   70.3969   -2.4301 O   0  0  0  0  0  0  0  0  0  0  0  0
   16.7403   68.8468   -4.5533 O   0  0  0  0  0  0  0  0  0  0  0  0
   18.5141   69.7961   -3.1881 C   0  0  1  0  0  0  0  0  0  0  0  0
   18.0226   69.4401   -4.5757 C   0  0  2  0  0  0  0  0  0  0  0  0
   19.5535   70.8699   -3.4847 C   0  0  1  0  0  0  0  0  0  0  0  0
   18.0293   70.7920   -5.2688 C   0  0  2  0  0  0  0  0  0  0  0  0
   16.7897   69.7302   -2.2283 H   0  0  0  0  0  0  0  0  0  0  0  0
   16.7883   67.9895   -4.1022 H   0  0  0  0  0  0  0  0  0  0  0  0
   16.0235   70.3369   -7.2046 O   0  0  0  0  0  0  0  0  0  0  0  0
   19.0818   70.3905  -10.6521 O   0  0  0  0  0  0  0  0  0  0  0  0
   18.2733   70.6831   -6.6794 N   0  0  0  0  0  0  0  0  0  0  0  0
   17.5479   70.3641   -8.9196 N   0  0  0  0  0  0  0  0  0  0  0  0
   17.1962   70.4528   -7.5667 C   0  0  0  0  0  0  0  0  0  0  0  0
   19.5688   70.8046   -7.1701 C   0  0  0  0  0  0  0  0  0  0  0  0
   19.8877   70.7162   -8.4630 C   0  0  0  0  0  0  0  0  0  0  0  0
   18.8208   70.4768   -9.4562 C   0  0  0  0  0  0  0  0  0  0  0  0
   16.8140   70.2037   -9.5563 H   0  0  0  0  0  0  0  0  0  0  0  0
   22.2800   72.9960   -2.7191 O   0  0  0  0  0  0  0  0  0  0  0  0
   22.9267   74.1481   -1.7877 P   0  0  2  0  0  0  0  0  0  0  0  0
   21.9551   75.4171   -2.0388 O   0  0  0  0  0  0  0  0  0  0  0  0
   24.3786   74.4164   -2.0598 O   0  0  0  0  0  0  0  0  0  0  0  0
   22.6046   73.6807   -0.2768 O   0  0  0  0  0  0  0  0  0  0  0  0
   23.4937   71.6220    0.4897 O   0  0  0  0  0  0  0  0  0  0  0  0
   20.4667   72.1044    3.2565 O   0  0  0  0  0  0  0  0  0  0  0  0
   23.1980   72.4725    4.0643 O   0  0  0  0  0  0  0  0  0  0  0  0
   20.0342   72.8619    0.4963 O   0  0  0  0  0  0  0  0  0  0  0  0
   21.5065   72.5357    2.3744 C   0  0  1  0  0  0  0  0  0  0  0  0
   22.8166   71.8854    2.8233 C   0  0  1  0  0  0  0  0  0  0  0  0
   21.1580   72.1141    0.9482 C   0  0  2  0  0  0  0  0  0  0  0  0
   23.9210   72.0842    1.7764 C   0  0  1  0  0  0  0  0  0  0  0  0
   22.3406   72.3072   -0.0028 C   0  0  1  0  0  0  0  0  0  0  0  0
   20.6816   72.3695    4.1638 H   0  0  0  0  0  0  0  0  0  0  0  0
   22.4919   72.3404    4.7164 H   0  0  0  0  0  0  0  0  0  0  0  0
   19.2923   72.7310    1.1065 H   0  0  0  0  0  0  0  0  0  0  0  0
   24.8157   70.0735    2.7069 O   0  0  0  0  0  0  0  0  0  0  0  0
   25.1896   71.3109    2.1295 C   0  0  0  0  0  0  0  0  0  0  0  0
   25.6131   69.5704    2.9364 H   0  0  0  0  0  0  0  0  0  0  0  0
 25 28  1  0
 25 24  1  0
 25 26  1  6
 25 27  2  0
  1  4  1  0
  1 24  1  0
  1  2  1  6
  1  3  2  0
  6 11  1  0
  6 12  1  0
 29 36  1  0
 29 37  1  0
  9  7  1  1
  7 13  1  0
 10  8  1  1
  8 14  1  0
 37 28  1  1
  4  5  1  0
 33 30  1  1
 30 38  1  0
 34 31  1  1
 31 39  1  0
 35 32  1  6
 32 40  1  0
 41 42  1  0
 41 43  1  0
 15 19  2  0
 16 22  2  0
 12 17  1  6
 17 19  1  0
 17 20  1  0
 18 19  1  0
 18 22  1  0
 18 23  1  0
  9 10  1  0
  9 11  1  0
 10 12  1  0
 11  5  1  6
 33 34  1  0
 33 35  1  0
 34 36  1  0
 35 37  1  0
 36 42  1  1
 20 21  2  0
 21 22  1  0
M  CHG  2   2  -1  26  -1
M  END
>  <COMPND>  (46) 
    8629 

>  <AUTHOR>  (46) 
    GENERATED BY OPEN BABEL 3.1.1

>  <MASTER>  (46) 
        0    0    0    0    0    0    0    0   58    0   58    0

>  <minimizedAffinity>  (46) 
-7.93321

>  <CNNscore>  (46) 
0.8683824539

>  <CNNaffinity>  (46) 
4.7339992523

>  <CNN_VS>  (46) 
4.1109218597

>  <CNNaffinity_variance>  (46) 
0.0476635918

$$$$
47
     RDKit          3D

 43 45  0  0  0  0  0  0  0  0999 V2000
   21.6258   71.6950   -2.8647 P   0  0  2  0  0  0  0  0  0  0  0  0
   22.9216   71.9759   -3.7918 O   0  0  0  0  0  0  0  0  0  0  0  0
   21.8318   70.6809   -1.7781 O   0  0  0  0  0  0  0  0  0  0  0  0
   20.4535   71.3575   -3.9276 O   0  0  0  0  0  0  0  0  0  0  0  0
   19.6018   70.2554   -3.6675 C   0  0  0  0  0  0  0  0  0  0  0  0
   17.9370   71.4094   -4.9599 O   0  0  0  0  0  0  0  0  0  0  0  0
   15.9136   70.1014   -3.1751 O   0  0  0  0  0  0  0  0  0  0  0  0
   15.8084   68.5603   -5.4224 O   0  0  0  0  0  0  0  0  0  0  0  0
   17.1476   69.5846   -3.6706 C   0  0  1  0  0  0  0  0  0  0  0  0
   17.0186   69.2319   -5.1378 C   0  0  2  0  0  0  0  0  0  0  0  0
   18.1547   70.7273   -3.7055 C   0  0  1  0  0  0  0  0  0  0  0  0
   17.0985   70.5978   -5.7983 C   0  0  2  0  0  0  0  0  0  0  0  0
   15.2546   69.3896   -3.1434 H   0  0  0  0  0  0  0  0  0  0  0  0
   15.8057   67.6971   -4.9800 H   0  0  0  0  0  0  0  0  0  0  0  0
   15.6117   70.7342   -8.1960 O   0  0  0  0  0  0  0  0  0  0  0  0
   19.4056   70.3552  -10.7851 O   0  0  0  0  0  0  0  0  0  0  0  0
   17.6722   70.5376   -7.1131 N   0  0  0  0  0  0  0  0  0  0  0  0
   17.5020   70.5456   -9.4832 N   0  0  0  0  0  0  0  0  0  0  0  0
   16.8372   70.6139   -8.2521 C   0  0  0  0  0  0  0  0  0  0  0  0
   19.0483   70.4047   -7.2633 C   0  0  0  0  0  0  0  0  0  0  0  0
   19.6666   70.3397   -8.4443 C   0  0  0  0  0  0  0  0  0  0  0  0
   18.8667   70.4122   -9.6841 C   0  0  0  0  0  0  0  0  0  0  0  0
   16.9406   70.5963  -10.2906 H   0  0  0  0  0  0  0  0  0  0  0  0
   21.2270   73.1711   -2.3404 O   0  0  0  0  0  0  0  0  0  0  0  0
   19.9045   73.7064   -1.5805 P   0  0  2  0  0  0  0  0  0  0  0  0
   20.3865   75.1132   -0.9433 O   0  0  0  0  0  0  0  0  0  0  0  0
   19.3331   72.7390   -0.5847 O   0  0  0  0  0  0  0  0  0  0  0  0
   18.8918   74.1218   -2.7666 O   0  0  0  0  0  0  0  0  0  0  0  0
   20.1469   75.1854   -4.4725 O   0  0  0  0  0  0  0  0  0  0  0  0
   16.3573   75.6778   -6.0369 O   0  0  0  0  0  0  0  0  0  0  0  0
   18.1525   73.7853   -7.2385 O   0  0  0  0  0  0  0  0  0  0  0  0
   16.7860   75.9288   -3.1851 O   0  0  0  0  0  0  0  0  0  0  0  0
   17.3939   74.9994   -5.3224 C   0  0  1  0  0  0  0  0  0  0  0  0
   18.5607   74.7599   -6.2826 C   0  0  1  0  0  0  0  0  0  0  0  0
   17.8364   75.8645   -4.1438 C   0  0  2  0  0  0  0  0  0  0  0  0
   19.8085   74.2796   -5.5292 C   0  0  1  0  0  0  0  0  0  0  0  0
   19.1133   75.3261   -3.4959 C   0  0  1  0  0  0  0  0  0  0  0  0
   16.0715   75.1336   -6.7863 H   0  0  0  0  0  0  0  0  0  0  0  0
   17.3635   74.1006   -7.7068 H   0  0  0  0  0  0  0  0  0  0  0  0
   15.9834   76.2715   -3.6075 H   0  0  0  0  0  0  0  0  0  0  0  0
   20.7716   74.9409   -7.6135 O   0  0  0  0  0  0  0  0  0  0  0  0
   21.0278   74.1856   -6.4438 C   0  0  0  0  0  0  0  0  0  0  0  0
   21.5393   74.8905   -8.2048 H   0  0  0  0  0  0  0  0  0  0  0  0
 25 28  1  0
 25 24  1  0
 25 26  1  1
 25 27  2  0
  1  4  1  0
  1 24  1  0
  1  2  1  6
  1  3  2  0
  6 11  1  0
  6 12  1  0
 29 36  1  0
 29 37  1  0
  9  7  1  6
  7 13  1  0
 10  8  1  1
  8 14  1  0
 37 28  1  6
  4  5  1  0
 33 30  1  6
 30 38  1  0
 34 31  1  6
 31 39  1  0
 35 32  1  1
 32 40  1  0
 41 42  1  0
 41 43  1  0
 15 19  2  0
 16 22  2  0
 12 17  1  6
 17 19  1  0
 17 20  1  0
 18 19  1  0
 18 22  1  0
 18 23  1  0
  9 10  1  0
  9 11  1  0
 10 12  1  0
 11  5  1  6
 33 34  1  0
 33 35  1  0
 34 36  1  0
 35 37  1  0
 36 42  1  6
 20 21  2  0
 21 22  1  0
M  CHG  2   2  -1  26  -1
M  END
>  <COMPND>  (47) 
    8629 

>  <AUTHOR>  (47) 
    GENERATED BY OPEN BABEL 3.1.1

>  <MASTER>  (47) 
        0    0    0    0    0    0    0    0   58    0   58    0

>  <minimizedAffinity>  (47) 
-6.21943

>  <CNNscore>  (47) 
0.8655331135

>  <CNNaffinity>  (47) 
4.5458383560

>  <CNN_VS>  (47) 
3.9345736504

>  <CNNaffinity_variance>  (47) 
0.1983055174

$$$$
48
     RDKit          3D

 43 45  0  0  0  0  0  0  0  0999 V2000
   20.8474   73.3418   -3.1074 P   0  0  2  0  0  0  0  0  0  0  0  0
   20.3856   73.4408   -1.5601 O   0  0  0  0  0  0  0  0  0  0  0  0
   21.4052   74.6095   -3.6847 O   0  0  0  0  0  0  0  0  0  0  0  0
   19.5501   72.7373   -3.8620 O   0  0  0  0  0  0  0  0  0  0  0  0
   19.1330   71.4218   -3.5408 C   0  0  0  0  0  0  0  0  0  0  0  0
   17.2702   71.7463   -5.0235 O   0  0  0  0  0  0  0  0  0  0  0  0
   15.7126   70.0029   -3.1460 O   0  0  0  0  0  0  0  0  0  0  0  0
   16.3302   68.2885   -5.1747 O   0  0  0  0  0  0  0  0  0  0  0  0
   17.0833   69.9146   -3.5316 C   0  0  1  0  0  0  0  0  0  0  0  0
   17.1989   69.3787   -4.9434 C   0  0  2  0  0  0  0  0  0  0  0  0
   17.6199   71.3323   -3.6846 C   0  0  1  0  0  0  0  0  0  0  0  0
   16.8395   70.5990   -5.7740 C   0  0  2  0  0  0  0  0  0  0  0  0
   15.3480   69.1095   -3.0418 H   0  0  0  0  0  0  0  0  0  0  0  0
   16.6001   67.5373   -4.6236 H   0  0  0  0  0  0  0  0  0  0  0  0
   15.4952   70.5510   -8.2576 O   0  0  0  0  0  0  0  0  0  0  0  0
   19.4573   70.6211  -10.6109 O   0  0  0  0  0  0  0  0  0  0  0  0
   17.4950   70.6044   -7.0514 N   0  0  0  0  0  0  0  0  0  0  0  0
   17.4691   70.5861   -9.4274 N   0  0  0  0  0  0  0  0  0  0  0  0
   16.7275   70.5777   -8.2391 C   0  0  0  0  0  0  0  0  0  0  0  0
   18.8837   70.6363   -7.1175 C   0  0  0  0  0  0  0  0  0  0  0  0
   19.5758   70.6426   -8.2587 C   0  0  0  0  0  0  0  0  0  0  0  0
   18.8497   70.6161   -9.5448 C   0  0  0  0  0  0  0  0  0  0  0  0
   16.9557   70.5675  -10.2675 H   0  0  0  0  0  0  0  0  0  0  0  0
   21.8771   72.0958   -3.1004 O   0  0  0  0  0  0  0  0  0  0  0  0
   23.4006   71.9806   -2.5726 P   0  0  2  0  0  0  0  0  0  0  0  0
   24.0844   73.3438   -3.1125 O   0  0  0  0  0  0  0  0  0  0  0  0
   24.1053   70.7244   -2.9961 O   0  0  0  0  0  0  0  0  0  0  0  0
   23.2957   72.1823   -0.9747 O   0  0  0  0  0  0  0  0  0  0  0  0
   24.4117   70.9691    0.7280 O   0  0  0  0  0  0  0  0  0  0  0  0
   20.8703   71.7638    2.6972 O   0  0  0  0  0  0  0  0  0  0  0  0
   23.2627   73.1548    3.4650 O   0  0  0  0  0  0  0  0  0  0  0  0
   20.8404   71.1215   -0.1252 O   0  0  0  0  0  0  0  0  0  0  0  0
   21.9543   72.0357    1.8048 C   0  0  1  0  0  0  0  0  0  0  0  0
   23.2551   72.0151    2.6100 C   0  0  1  0  0  0  0  0  0  0  0  0
   21.9812   70.9683    0.7124 C   0  0  2  0  0  0  0  0  0  0  0  0
   24.4795   72.0328    1.6850 C   0  0  1  0  0  0  0  0  0  0  0  0
   23.2632   71.0430   -0.1189 C   0  0  1  0  0  0  0  0  0  0  0  0
   20.8473   72.4382    3.3930 H   0  0  0  0  0  0  0  0  0  0  0  0
   22.4842   73.1318    4.0435 H   0  0  0  0  0  0  0  0  0  0  0  0
   20.0354   71.0720    0.4128 H   0  0  0  0  0  0  0  0  0  0  0  0
   26.4709   70.7352    1.9293 O   0  0  0  0  0  0  0  0  0  0  0  0
   25.7837   71.8539    2.4591 C   0  0  0  0  0  0  0  0  0  0  0  0
   27.3032   70.6095    2.4122 H   0  0  0  0  0  0  0  0  0  0  0  0
 25 28  1  0
 25 24  1  0
 25 26  1  6
 25 27  2  0
  1  4  1  0
  1 24  1  0
  1  2  1  1
  1  3  2  0
  6 11  1  0
  6 12  1  0
 29 36  1  0
 29 37  1  0
  9  7  1  6
  7 13  1  0
 10  8  1  1
  8 14  1  0
 37 28  1  1
  4  5  1  0
 33 30  1  1
 30 38  1  0
 34 31  1  1
 31 39  1  0
 35 32  1  6
 32 40  1  0
 41 42  1  0
 41 43  1  0
 15 19  2  0
 16 22  2  0
 12 17  1  6
 17 19  1  0
 17 20  1  0
 18 19  1  0
 18 22  1  0
 18 23  1  0
  9 10  1  0
  9 11  1  0
 10 12  1  0
 11  5  1  6
 33 34  1  0
 33 35  1  0
 34 36  1  0
 35 37  1  0
 36 42  1  1
 20 21  2  0
 21 22  1  0
M  CHG  2   2  -1  26  -1
M  END
>  <COMPND>  (48) 
    8629 

>  <AUTHOR>  (48) 
    GENERATED BY OPEN BABEL 3.1.1

>  <MASTER>  (48) 
        0    0    0    0    0    0    0    0   58    0   58    0

>  <minimizedAffinity>  (48) 
-7.98923

>  <CNNscore>  (48) 
0.8607919812

>  <CNNaffinity>  (48) 
4.7360210419

>  <CNN_VS>  (48) 
4.0767288208

>  <CNNaffinity_variance>  (48) 
0.0569423810

$$$$
49
     RDKit          3D

 43 45  0  0  0  0  0  0  0  0999 V2000
   22.9012   71.4903   -2.3061 P   0  0  2  0  0  0  0  0  0  0  0  0
   24.1158   70.7788   -3.1036 O   0  0  0  0  0  0  0  0  0  0  0  0
   23.2035   71.8499   -0.8810 O   0  0  0  0  0  0  0  0  0  0  0  0
   21.6509   70.4875   -2.5276 O   0  0  0  0  0  0  0  0  0  0  0  0
   20.9371   70.5567   -3.7497 C   0  0  0  0  0  0  0  0  0  0  0  0
   18.9720   71.6159   -4.6387 O   0  0  0  0  0  0  0  0  0  0  0  0
   17.4675   70.2547   -2.4309 O   0  0  0  0  0  0  0  0  0  0  0  0
   16.9256   68.6710   -4.5838 O   0  0  0  0  0  0  0  0  0  0  0  0
   18.5791   69.7822   -3.1900 C   0  0  1  0  0  0  0  0  0  0  0  0
   18.1371   69.3985   -4.5867 C   0  0  2  0  0  0  0  0  0  0  0  0
   19.4991   70.9659   -3.4614 C   0  0  1  0  0  0  0  0  0  0  0  0
   18.0030   70.7546   -5.2585 C   0  0  2  0  0  0  0  0  0  0  0  0
   16.8658   69.5162   -2.2449 H   0  0  0  0  0  0  0  0  0  0  0  0
   17.0626   67.8165   -4.1459 H   0  0  0  0  0  0  0  0  0  0  0  0
   16.0779   70.0854   -7.2140 O   0  0  0  0  0  0  0  0  0  0  0  0
   19.1251   70.5586  -10.6391 O   0  0  0  0  0  0  0  0  0  0  0  0
   18.2659   70.6956   -6.6687 N   0  0  0  0  0  0  0  0  0  0  0  0
   17.5967   70.3217   -8.9179 N   0  0  0  0  0  0  0  0  0  0  0  0
   17.2296   70.3483   -7.5664 C   0  0  0  0  0  0  0  0  0  0  0  0
   19.5396   70.9807   -7.1487 C   0  0  0  0  0  0  0  0  0  0  0  0
   19.8737   70.9497   -8.4405 C   0  0  0  0  0  0  0  0  0  0  0  0
   18.8492   70.5959   -9.4440 C   0  0  0  0  0  0  0  0  0  0  0  0
   16.8911   70.0819   -9.5616 H   0  0  0  0  0  0  0  0  0  0  0  0
   22.5313   72.7470   -3.2531 O   0  0  0  0  0  0  0  0  0  0  0  0
   23.3364   73.4248   -4.4800 P   0  0  2  0  0  0  0  0  0  0  0  0
   23.2361   72.3116   -5.6497 O   0  0  0  0  0  0  0  0  0  0  0  0
   24.7382   73.8417   -4.1406 O   0  0  0  0  0  0  0  0  0  0  0  0
   22.3831   74.6277   -4.9792 O   0  0  0  0  0  0  0  0  0  0  0  0
   20.1436   75.0223   -4.3119 O   0  0  0  0  0  0  0  0  0  0  0  0
   19.9645   76.5341   -8.1503 O   0  0  0  0  0  0  0  0  0  0  0  0
   19.9258   78.3353   -5.9137 O   0  0  0  0  0  0  0  0  0  0  0  0
   21.5198   74.1539   -7.6070 O   0  0  0  0  0  0  0  0  0  0  0  0
   20.5759   76.2503   -6.8889 C   0  0  1  0  0  0  0  0  0  0  0  0
   19.7500   76.9264   -5.7928 C   0  0  1  0  0  0  0  0  0  0  0  0
   20.6105   74.7375   -6.6802 C   0  0  2  0  0  0  0  0  0  0  0  0
   20.1841   76.4514   -4.3996 C   0  0  1  0  0  0  0  0  0  0  0  0
   21.0067   74.3738   -5.2481 C   0  0  1  0  0  0  0  0  0  0  0  0
   19.9399   77.4930   -8.2893 H   0  0  0  0  0  0  0  0  0  0  0  0
   19.6485   78.6222   -6.7980 H   0  0  0  0  0  0  0  0  0  0  0  0
   21.2580   74.3912   -8.5097 H   0  0  0  0  0  0  0  0  0  0  0  0
   18.0324   77.3527   -3.8833 O   0  0  0  0  0  0  0  0  0  0  0  0
   19.2713   76.9918   -3.3010 C   0  0  0  0  0  0  0  0  0  0  0  0
   17.4410   77.6981   -3.1957 H   0  0  0  0  0  0  0  0  0  0  0  0
 25 28  1  0
 25 24  1  0
 25 26  1  6
 25 27  2  0
  1  4  1  0
  1 24  1  0
  1  2  1  6
  1  3  2  0
  6 11  1  0
  6 12  1  0
 29 36  1  0
 29 37  1  0
  9  7  1  1
  7 13  1  0
 10  8  1  1
  8 14  1  0
 37 28  1  1
  4  5  1  0
 33 30  1  6
 30 38  1  0
 34 31  1  1
 31 39  1  0
 35 32  1  6
 32 40  1  0
 41 42  1  0
 41 43  1  0
 15 19  2  0
 16 22  2  0
 12 17  1  6
 17 19  1  0
 17 20  1  0
 18 19  1  0
 18 22  1  0
 18 23  1  0
  9 10  1  0
  9 11  1  0
 10 12  1  0
 11  5  1  6
 33 34  1  0
 33 35  1  0
 34 36  1  0
 35 37  1  0
 36 42  1  1
 20 21  2  0
 21 22  1  0
M  CHG  2   2  -1  26  -1
M  END
>  <COMPND>  (49) 
    8629 

>  <AUTHOR>  (49) 
    GENERATED BY OPEN BABEL 3.1.1

>  <MASTER>  (49) 
        0    0    0    0    0    0    0    0   58    0   58    0

>  <minimizedAffinity>  (49) 
-6.95114

>  <CNNscore>  (49) 
0.8495841026

>  <CNNaffinity>  (49) 
4.4636397362

>  <CNN_VS>  (49) 
3.7922372818

>  <CNNaffinity_variance>  (49) 
0.4076413214

$$$$
50
     RDKit          3D

 43 45  0  0  0  0  0  0  0  0999 V2000
   21.3807   72.8791   -5.0492 P   0  0  2  0  0  0  0  0  0  0  0  0
   21.7212   74.4037   -4.6285 O   0  0  0  0  0  0  0  0  0  0  0  0
   21.8178   72.4902   -6.4309 O   0  0  0  0  0  0  0  0  0  0  0  0
   19.7975   72.7372   -4.7471 O   0  0  0  0  0  0  0  0  0  0  0  0
   19.3737   71.7720   -3.8002 C   0  0  0  0  0  0  0  0  0  0  0  0
   17.4612   71.8904   -5.2501 O   0  0  0  0  0  0  0  0  0  0  0  0
   16.0154   70.2934   -3.1643 O   0  0  0  0  0  0  0  0  0  0  0  0
   16.6352   68.4070   -5.0335 O   0  0  0  0  0  0  0  0  0  0  0  0
   17.3773   70.2101   -3.5811 C   0  0  1  0  0  0  0  0  0  0  0  0
   17.4724   69.5413   -4.9365 C   0  0  2  0  0  0  0  0  0  0  0  0
   17.8612   71.6218   -3.8884 C   0  0  1  0  0  0  0  0  0  0  0  0
   17.0493   70.6618   -5.8712 C   0  0  2  0  0  0  0  0  0  0  0  0
   15.6843   69.4038   -2.9621 H   0  0  0  0  0  0  0  0  0  0  0  0
   16.9453   67.7227   -4.4201 H   0  0  0  0  0  0  0  0  0  0  0  0
   15.6444   70.6810   -8.3215 O   0  0  0  0  0  0  0  0  0  0  0  0
   19.5314   70.2690  -10.7635 O   0  0  0  0  0  0  0  0  0  0  0  0
   17.6691   70.5614   -7.1624 N   0  0  0  0  0  0  0  0  0  0  0  0
   17.5810   70.4760   -9.5354 N   0  0  0  0  0  0  0  0  0  0  0  0
   16.8730   70.5798   -8.3313 C   0  0  0  0  0  0  0  0  0  0  0  0
   19.0515   70.4466   -7.2604 C   0  0  0  0  0  0  0  0  0  0  0  0
   19.7113   70.3473   -8.4163 C   0  0  0  0  0  0  0  0  0  0  0  0
   18.9538   70.3587   -9.6844 C   0  0  0  0  0  0  0  0  0  0  0  0
   17.0471   70.4863  -10.3629 H   0  0  0  0  0  0  0  0  0  0  0  0
   22.0560   72.0149   -3.8617 O   0  0  0  0  0  0  0  0  0  0  0  0
   23.5452   72.0552   -3.2343 P   0  0  2  0  0  0  0  0  0  0  0  0
   24.3580   72.9976   -4.2681 O   0  0  0  0  0  0  0  0  0  0  0  0
   24.1581   70.7021   -3.0168 O   0  0  0  0  0  0  0  0  0  0  0  0
   23.4010   72.9470   -1.8968 O   0  0  0  0  0  0  0  0  0  0  0  0
   21.7751   72.3034   -0.2971 O   0  0  0  0  0  0  0  0  0  0  0  0
   22.3616   76.2133    0.8944 O   0  0  0  0  0  0  0  0  0  0  0  0
   23.3883   74.0703    2.5073 O   0  0  0  0  0  0  0  0  0  0  0  0
   22.3497   75.5487   -1.9230 O   0  0  0  0  0  0  0  0  0  0  0  0
   22.7465   74.9384    0.3730 C   0  0  1  0  0  0  0  0  0  0  0  0
   22.4640   73.8788    1.4398 C   0  0  1  0  0  0  0  0  0  0  0  0
   21.9419   74.6537   -0.8939 C   0  0  2  0  0  0  0  0  0  0  0  0
   22.5990   72.4629    0.8637 C   0  0  1  0  0  0  0  0  0  0  0  0
   22.1082   73.2046   -1.3549 C   0  0  1  0  0  0  0  0  0  0  0  0
   22.8692   76.4004    1.6987 H   0  0  0  0  0  0  0  0  0  0  0  0
   23.2931   74.9683    2.8618 H   0  0  0  0  0  0  0  0  0  0  0  0
   22.2393   76.4627   -1.6190 H   0  0  0  0  0  0  0  0  0  0  0  0
   21.6703   70.2800    1.1490 O   0  0  0  0  0  0  0  0  0  0  0  0
   22.1690   71.3941    1.8661 C   0  0  0  0  0  0  0  0  0  0  0  0
   21.3930   69.5915    1.7742 H   0  0  0  0  0  0  0  0  0  0  0  0
 25 28  1  0
 25 24  1  0
 25 26  1  6
 25 27  2  0
  1  4  1  0
  1 24  1  0
  1  2  1  1
  1  3  2  0
  6 11  1  0
  6 12  1  0
 29 36  1  0
 29 37  1  0
  9  7  1  6
  7 13  1  0
 10  8  1  1
  8 14  1  0
 37 28  1  1
  4  5  1  0
 33 30  1  1
 30 38  1  0
 34 31  1  1
 31 39  1  0
 35 32  1  6
 32 40  1  0
 41 42  1  0
 41 43  1  0
 15 19  2  0
 16 22  2  0
 12 17  1  6
 17 19  1  0
 17 20  1  0
 18 19  1  0
 18 22  1  0
 18 23  1  0
  9 10  1  0
  9 11  1  0
 10 12  1  0
 11  5  1  6
 33 34  1  0
 33 35  1  0
 34 36  1  0
 35 37  1  0
 36 42  1  1
 20 21  2  0
 21 22  1  0
M  CHG  2   2  -1  26  -1
M  END
>  <COMPND>  (50) 
    8629 

>  <AUTHOR>  (50) 
    GENERATED BY OPEN BABEL 3.1.1

>  <MASTER>  (50) 
        0    0    0    0    0    0    0    0   58    0   58    0

>  <minimizedAffinity>  (50) 
-7.82475

>  <CNNscore>  (50) 
0.8281539679

>  <CNNaffinity>  (50) 
4.5654101372

>  <CNN_VS>  (50) 
3.7808625698

>  <CNNaffinity_variance>  (50) 
0.0721794143

$$$$
51
     RDKit          3D

 43 45  0  0  0  0  0  0  0  0999 V2000
   23.1095   71.4529   -2.1048 P   0  0  2  0  0  0  0  0  0  0  0  0
   24.1955   70.7401   -3.0692 O   0  0  0  0  0  0  0  0  0  0  0  0
   23.4906   71.5101   -0.6547 O   0  0  0  0  0  0  0  0  0  0  0  0
   21.7276   70.6802   -2.4383 O   0  0  0  0  0  0  0  0  0  0  0  0
   21.0588   70.9835   -3.6501 C   0  0  0  0  0  0  0  0  0  0  0  0
   18.9816   71.7908   -4.5484 O   0  0  0  0  0  0  0  0  0  0  0  0
   17.6615   70.4130   -2.2354 O   0  0  0  0  0  0  0  0  0  0  0  0
   17.2426   68.6650   -4.2862 O   0  0  0  0  0  0  0  0  0  0  0  0
   18.8011   70.0113   -2.9939 C   0  0  1  0  0  0  0  0  0  0  0  0
   18.3746   69.5079   -4.3570 C   0  0  2  0  0  0  0  0  0  0  0  0
   19.5925   71.2634   -3.3505 C   0  0  1  0  0  0  0  0  0  0  0  0
   18.0929   70.8041   -5.0977 C   0  0  2  0  0  0  0  0  0  0  0  0
   17.1405   69.6300   -1.9956 H   0  0  0  0  0  0  0  0  0  0  0  0
   17.4726   67.8542   -3.8061 H   0  0  0  0  0  0  0  0  0  0  0  0
   16.1910   69.8907   -6.9755 O   0  0  0  0  0  0  0  0  0  0  0  0
   19.1325   70.4161  -10.4845 O   0  0  0  0  0  0  0  0  0  0  0  0
   18.3349   70.6925   -6.5085 N   0  0  0  0  0  0  0  0  0  0  0  0
   17.6571   70.1532   -8.7212 N   0  0  0  0  0  0  0  0  0  0  0  0
   17.3128   70.2216   -7.3652 C   0  0  0  0  0  0  0  0  0  0  0  0
   19.5743   71.0482   -7.0293 C   0  0  0  0  0  0  0  0  0  0  0  0
   19.8871   70.9759   -8.3248 C   0  0  0  0  0  0  0  0  0  0  0  0
   18.8754   70.4940   -9.2872 C   0  0  0  0  0  0  0  0  0  0  0  0
   16.9609   69.8276   -9.3369 H   0  0  0  0  0  0  0  0  0  0  0  0
   22.8963   72.8957   -2.8018 O   0  0  0  0  0  0  0  0  0  0  0  0
   22.4076   74.3091   -2.1882 P   0  0  2  0  0  0  0  0  0  0  0  0
   23.5912   74.6940   -1.1546 O   0  0  0  0  0  0  0  0  0  0  0  0
   21.0376   74.2732   -1.5753 O   0  0  0  0  0  0  0  0  0  0  0  0
   22.5696   75.3596   -3.4029 O   0  0  0  0  0  0  0  0  0  0  0  0
   23.2824   74.8498   -5.6048 O   0  0  0  0  0  0  0  0  0  0  0  0
   24.6967   78.7198   -5.3328 O   0  0  0  0  0  0  0  0  0  0  0  0
   22.4135   78.1572   -6.9816 O   0  0  0  0  0  0  0  0  0  0  0  0
   24.8422   76.9644   -3.0356 O   0  0  0  0  0  0  0  0  0  0  0  0
   23.7841   77.6459   -5.0892 C   0  0  1  0  0  0  0  0  0  0  0  0
   23.2590   77.1477   -6.4371 C   0  0  1  0  0  0  0  0  0  0  0  0
   24.5157   76.5270   -4.3503 C   0  0  2  0  0  0  0  0  0  0  0  0
   22.4859   75.8316   -6.2783 C   0  0  1  0  0  0  0  0  0  0  0  0
   23.6787   75.2479   -4.2909 C   0  0  1  0  0  0  0  0  0  0  0  0
   24.2383   79.4338   -5.8013 H   0  0  0  0  0  0  0  0  0  0  0  0
   22.9136   78.9831   -7.0763 H   0  0  0  0  0  0  0  0  0  0  0  0
   25.3723   77.7745   -3.0868 H   0  0  0  0  0  0  0  0  0  0  0  0
   22.9363   75.7753   -8.6241 O   0  0  0  0  0  0  0  0  0  0  0  0
   22.0888   75.2352   -7.6269 C   0  0  0  0  0  0  0  0  0  0  0  0
   22.6953   75.4044   -9.4879 H   0  0  0  0  0  0  0  0  0  0  0  0
 25 28  1  0
 25 24  1  0
 25 26  1  1
 25 27  2  0
  1  4  1  0
  1 24  1  0
  1  2  1  6
  1  3  2  0
  6 11  1  0
  6 12  1  0
 29 36  1  0
 29 37  1  0
  9  7  1  1
  7 13  1  0
 10  8  1  1
  8 14  1  0
 37 28  1  1
  4  5  1  0
 33 30  1  6
 30 38  1  0
 34 31  1  1
 31 39  1  0
 35 32  1  1
 32 40  1  0
 41 42  1  0
 41 43  1  0
 15 19  2  0
 16 22  2  0
 12 17  1  6
 17 19  1  0
 17 20  1  0
 18 19  1  0
 18 22  1  0
 18 23  1  0
  9 10  1  0
  9 11  1  0
 10 12  1  0
 11  5  1  6
 33 34  1  0
 33 35  1  0
 34 36  1  0
 35 37  1  0
 36 42  1  6
 20 21  2  0
 21 22  1  0
M  CHG  2   2  -1  26  -1
M  END
>  <COMPND>  (51) 
    8629 

>  <AUTHOR>  (51) 
    GENERATED BY OPEN BABEL 3.1.1

>  <MASTER>  (51) 
        0    0    0    0    0    0    0    0   58    0   58    0

>  <minimizedAffinity>  (51) 
-6.22317

>  <CNNscore>  (51) 
0.8236811161

>  <CNNaffinity>  (51) 
4.4691948891

>  <CNN_VS>  (51) 
3.6811914444

>  <CNNaffinity_variance>  (51) 
0.1825160086

$$$$
52
     RDKit          3D

 43 45  0  0  0  0  0  0  0  0999 V2000
   22.2899   73.0881   -4.2883 P   0  0  2  0  0  0  0  0  0  0  0  0
   22.0273   74.6291   -4.7050 O   0  0  0  0  0  0  0  0  0  0  0  0
   23.5528   72.4901   -4.8350 O   0  0  0  0  0  0  0  0  0  0  0  0
   20.9192   72.3347   -4.7023 O   0  0  0  0  0  0  0  0  0  0  0  0
   20.3862   71.3656   -3.8165 C   0  0  0  0  0  0  0  0  0  0  0  0
   18.3854   72.0238   -4.9728 O   0  0  0  0  0  0  0  0  0  0  0  0
   16.8839   70.6787   -2.7531 O   0  0  0  0  0  0  0  0  0  0  0  0
   16.7783   68.8253   -4.7507 O   0  0  0  0  0  0  0  0  0  0  0  0
   18.1183   70.3053   -3.3632 C   0  0  1  0  0  0  0  0  0  0  0  0
   17.8699   69.7225   -4.7388 C   0  0  2  0  0  0  0  0  0  0  0  0
   18.8841   71.5808   -3.6917 C   0  0  1  0  0  0  0  0  0  0  0  0
   17.6109   70.9694   -5.5672 C   0  0  2  0  0  0  0  0  0  0  0  0
   16.3773   69.8804   -2.5339 H   0  0  0  0  0  0  0  0  0  0  0  0
   16.9918   68.0488   -4.2100 H   0  0  0  0  0  0  0  0  0  0  0  0
   15.8960   70.1221   -7.6455 O   0  0  0  0  0  0  0  0  0  0  0  0
   19.2622   70.3943  -10.7818 O   0  0  0  0  0  0  0  0  0  0  0  0
   18.0127   70.8105   -6.9364 N   0  0  0  0  0  0  0  0  0  0  0  0
   17.5735   70.2585   -9.2054 N   0  0  0  0  0  0  0  0  0  0  0  0
   17.0741   70.3788   -7.9023 C   0  0  0  0  0  0  0  0  0  0  0  0
   19.3245   71.0821   -7.3095 C   0  0  0  0  0  0  0  0  0  0  0  0
   19.7852   70.9612   -8.5563 C   0  0  0  0  0  0  0  0  0  0  0  0
   18.8689   70.5154   -9.6257 C   0  0  0  0  0  0  0  0  0  0  0  0
   16.9377   69.9588   -9.8951 H   0  0  0  0  0  0  0  0  0  0  0  0
   22.2087   73.1291   -2.6744 O   0  0  0  0  0  0  0  0  0  0  0  0
   23.0178   74.0175   -1.5930 P   0  0  2  0  0  0  0  0  0  0  0  0
   21.9396   75.1414   -1.1551 O   0  0  0  0  0  0  0  0  0  0  0  0
   24.3178   74.5710   -2.1005 O   0  0  0  0  0  0  0  0  0  0  0  0
   23.1572   73.0608   -0.3007 O   0  0  0  0  0  0  0  0  0  0  0  0
   23.7914   74.3868    1.5584 O   0  0  0  0  0  0  0  0  0  0  0  0
   23.9765   70.6548    3.3160 O   0  0  0  0  0  0  0  0  0  0  0  0
   21.8357   72.4415    4.0038 O   0  0  0  0  0  0  0  0  0  0  0  0
   24.8553   71.0078    0.5806 O   0  0  0  0  0  0  0  0  0  0  0  0
   23.4604   71.6556    2.4342 C   0  0  1  0  0  0  0  0  0  0  0  0
   22.9939   72.8437    3.2778 C   0  0  1  0  0  0  0  0  0  0  0  0
   24.5615   72.0833    1.4657 C   0  0  2  0  0  0  0  0  0  0  0  0
   22.6766   74.0588    2.3958 C   0  0  1  0  0  0  0  0  0  0  0  0
   24.1634   73.3292    0.6724 C   0  0  1  0  0  0  0  0  0  0  0  0
   23.2821   70.3786    3.9333 H   0  0  0  0  0  0  0  0  0  0  0  0
   22.0495   71.6733    4.5563 H   0  0  0  0  0  0  0  0  0  0  0  0
   25.1062   70.2252    1.0949 H   0  0  0  0  0  0  0  0  0  0  0  0
   23.5733   75.9819    3.4941 O   0  0  0  0  0  0  0  0  0  0  0  0
   22.3613   75.3013    3.2258 C   0  0  0  0  0  0  0  0  0  0  0  0
   23.3881   76.7752    4.0215 H   0  0  0  0  0  0  0  0  0  0  0  0
 25 28  1  0
 25 24  1  0
 25 26  1  1
 25 27  2  0
  1  4  1  0
  1 24  1  0
  1  2  1  6
  1  3  2  0
  6 11  1  0
  6 12  1  0
 29 36  1  0
 29 37  1  0
  9  7  1  6
  7 13  1  0
 10  8  1  1
  8 14  1  0
 37 28  1  6
  4  5  1  0
 33 30  1  1
 30 38  1  0
 34 31  1  6
 31 39  1  0
 35 32  1  6
 32 40  1  0
 41 42  1  0
 41 43  1  0
 15 19  2  0
 16 22  2  0
 12 17  1  6
 17 19  1  0
 17 20  1  0
 18 19  1  0
 18 22  1  0
 18 23  1  0
  9 10  1  0
  9 11  1  0
 10 12  1  0
 11  5  1  6
 33 34  1  0
 33 35  1  0
 34 36  1  0
 35 37  1  0
 36 42  1  1
 20 21  2  0
 21 22  1  0
M  CHG  2   2  -1  26  -1
M  END
>  <COMPND>  (52) 
    8629 

>  <AUTHOR>  (52) 
    GENERATED BY OPEN BABEL 3.1.1

>  <MASTER>  (52) 
        0    0    0    0    0    0    0    0   58    0   58    0

>  <minimizedAffinity>  (52) 
-6.89950

>  <CNNscore>  (52) 
0.7644909024

>  <CNNaffinity>  (52) 
4.5397834778

>  <CNN_VS>  (52) 
3.4706232548

>  <CNNaffinity_variance>  (52) 
0.0703906119

$$$$
53
     RDKit          3D

 43 45  0  0  0  0  0  0  0  0999 V2000
   21.9372   71.3073    0.2210 P   0  0  2  0  0  0  0  0  0  0  0  0
   20.6200   71.9982   -0.4155 O   0  0  0  0  0  0  0  0  0  0  0  0
   21.6637   70.1975    1.1931 O   0  0  0  0  0  0  0  0  0  0  0  0
   22.7888   72.5551    0.8004 O   0  0  0  0  0  0  0  0  0  0  0  0
   23.4849   72.3888    2.0233 C   0  0  0  0  0  0  0  0  0  0  0  0
   24.4402   73.6079    3.8605 O   0  0  0  0  0  0  0  0  0  0  0  0
   23.4595   76.0842    2.4832 O   0  0  0  0  0  0  0  0  0  0  0  0
   26.1082   76.0529    1.8351 O   0  0  0  0  0  0  0  0  0  0  0  0
   23.9788   74.8823    1.9166 C   0  0  1  0  0  0  0  0  0  0  0  0
   25.4798   74.8168    2.1071 C   0  0  2  0  0  0  0  0  0  0  0  0
   23.4986   73.7154    2.7704 C   0  0  1  0  0  0  0  0  0  0  0  0
   25.5947   74.4113    3.5667 C   0  0  2  0  0  0  0  0  0  0  0  0
   23.7526   76.8436    1.9547 H   0  0  0  0  0  0  0  0  0  0  0  0
   26.0076   76.2668    0.8944 H   0  0  0  0  0  0  0  0  0  0  0  0
   27.3495   74.8714    5.7317 O   0  0  0  0  0  0  0  0  0  0  0  0
   30.1034   71.3956    4.4762 O   0  0  0  0  0  0  0  0  0  0  0  0
   26.7777   73.6414    3.8298 N   0  0  0  0  0  0  0  0  0  0  0  0
   28.7192   73.1402    5.1049 N   0  0  0  0  0  0  0  0  0  0  0  0
   27.5915   73.9552    4.9432 C   0  0  0  0  0  0  0  0  0  0  0  0
   27.1204   72.5883    2.9887 C   0  0  0  0  0  0  0  0  0  0  0  0
   28.1999   71.8215    3.1559 C   0  0  0  0  0  0  0  0  0  0  0  0
   29.1029   72.0828    4.2954 C   0  0  0  0  0  0  0  0  0  0  0  0
   29.3011   73.3404    5.8737 H   0  0  0  0  0  0  0  0  0  0  0  0
   22.7824   70.8654   -1.0842 O   0  0  0  0  0  0  0  0  0  0  0  0
   23.0305   71.6179   -2.4931 P   0  0  2  0  0  0  0  0  0  0  0  0
   24.3366   70.8709   -3.0878 O   0  0  0  0  0  0  0  0  0  0  0  0
   23.1680   73.1085   -2.3787 O   0  0  0  0  0  0  0  0  0  0  0  0
   21.8160   71.1287   -3.4369 O   0  0  0  0  0  0  0  0  0  0  0  0
   20.9103   72.7827   -4.8724 O   0  0  0  0  0  0  0  0  0  0  0  0
   17.9031   69.9650   -5.1324 O   0  0  0  0  0  0  0  0  0  0  0  0
   19.6609   70.3730   -7.3666 O   0  0  0  0  0  0  0  0  0  0  0  0
   19.2289   70.4325   -2.6020 O   0  0  0  0  0  0  0  0  0  0  0  0
   19.2524   70.4230   -5.0104 C   0  0  1  0  0  0  0  0  0  0  0  0
   19.5904   71.2546   -6.2494 C   0  0  1  0  0  0  0  0  0  0  0  0
   19.3801   71.2682   -3.7444 C   0  0  2  0  0  0  0  0  0  0  0  0
   20.9207   71.9987   -6.0711 C   0  0  1  0  0  0  0  0  0  0  0  0
   20.7201   72.0041   -3.6894 C   0  0  1  0  0  0  0  0  0  0  0  0
   17.8153   69.4273   -5.9341 H   0  0  0  0  0  0  0  0  0  0  0  0
   18.8150   69.9090   -7.4678 H   0  0  0  0  0  0  0  0  0  0  0  0
   18.3768   69.9725   -2.6485 H   0  0  0  0  0  0  0  0  0  0  0  0
   21.6531   72.2010   -8.3364 O   0  0  0  0  0  0  0  0  0  0  0  0
   21.2000   72.9559   -7.2278 C   0  0  0  0  0  0  0  0  0  0  0  0
   21.8346   72.7972   -9.0803 H   0  0  0  0  0  0  0  0  0  0  0  0
 25 28  1  0
 25 24  1  0
 25 26  1  6
 25 27  2  0
  1  4  1  0
  1 24  1  0
  1  2  1  6
  1  3  2  0
  6 11  1  0
  6 12  1  0
 29 36  1  0
 29 37  1  0
  9  7  1  1
  7 13  1  0
 10  8  1  1
  8 14  1  0
 37 28  1  6
  4  5  1  0
 33 30  1  6
 30 38  1  0
 34 31  1  6
 31 39  1  0
 35 32  1  1
 32 40  1  0
 41 42  1  0
 41 43  1  0
 15 19  2  0
 16 22  2  0
 12 17  1  6
 17 19  1  0
 17 20  1  0
 18 19  1  0
 18 22  1  0
 18 23  1  0
  9 10  1  0
  9 11  1  0
 10 12  1  0
 11  5  1  6
 33 34  1  0
 33 35  1  0
 34 36  1  0
 35 37  1  0
 36 42  1  6
 20 21  2  0
 21 22  1  0
M  CHG  2   2  -1  26  -1
M  END
>  <COMPND>  (53) 
    8629 

>  <AUTHOR>  (53) 
    GENERATED BY OPEN BABEL 3.1.1

>  <MASTER>  (53) 
        0    0    0    0    0    0    0    0   58    0   58    0

>  <minimizedAffinity>  (53) 
-6.76834

>  <CNNscore>  (53) 
0.7262864113

>  <CNNaffinity>  (53) 
4.2824201584

>  <CNN_VS>  (53) 
3.1102635860

>  <CNNaffinity_variance>  (53) 
0.0248694643

$$$$
54
     RDKit          3D

 43 45  0  0  0  0  0  0  0  0999 V2000
   22.6643   73.0428   -5.3056 P   0  0  2  0  0  0  0  0  0  0  0  0
   23.0110   73.0240   -6.8858 O   0  0  0  0  0  0  0  0  0  0  0  0
   23.7187   72.4491   -4.4183 O   0  0  0  0  0  0  0  0  0  0  0  0
   21.2036   72.3523   -5.2202 O   0  0  0  0  0  0  0  0  0  0  0  0
   20.8386   71.6883   -4.0228 C   0  0  0  0  0  0  0  0  0  0  0  0
   18.7325   72.2384   -5.0403 O   0  0  0  0  0  0  0  0  0  0  0  0
   17.4556   71.0011   -2.6258 O   0  0  0  0  0  0  0  0  0  0  0  0
   17.2262   69.0295   -4.4957 O   0  0  0  0  0  0  0  0  0  0  0  0
   18.6428   70.6149   -3.3163 C   0  0  1  0  0  0  0  0  0  0  0  0
   18.2933   69.9460   -4.6294 C   0  0  2  0  0  0  0  0  0  0  0  0
   19.3477   71.8825   -3.7828 C   0  0  1  0  0  0  0  0  0  0  0  0
   17.9360   71.1359   -5.5038 C   0  0  2  0  0  0  0  0  0  0  0  0
   16.9883   70.2081   -2.3180 H   0  0  0  0  0  0  0  0  0  0  0  0
   17.5028   68.2910   -3.9310 H   0  0  0  0  0  0  0  0  0  0  0  0
   16.0807   70.1082   -7.3692 O   0  0  0  0  0  0  0  0  0  0  0  0
   19.1551   70.2810  -10.7984 O   0  0  0  0  0  0  0  0  0  0  0  0
   18.2247   70.9027   -6.8908 N   0  0  0  0  0  0  0  0  0  0  0  0
   17.6130   70.1952   -9.0752 N   0  0  0  0  0  0  0  0  0  0  0  0
   17.2228   70.3829   -7.7431 C   0  0  0  0  0  0  0  0  0  0  0  0
   19.4896   71.1889   -7.3929 C   0  0  0  0  0  0  0  0  0  0  0  0
   19.8461   71.0030   -8.6656 C   0  0  0  0  0  0  0  0  0  0  0  0
   18.8580   70.4633   -9.6218 C   0  0  0  0  0  0  0  0  0  0  0  0
   16.9315   69.8337   -9.6873 H   0  0  0  0  0  0  0  0  0  0  0  0
   22.3462   74.6021   -5.0219 O   0  0  0  0  0  0  0  0  0  0  0  0
   23.2867   75.9129   -5.1232 P   0  0  2  0  0  0  0  0  0  0  0  0
   24.7698   75.3276   -4.8488 O   0  0  0  0  0  0  0  0  0  0  0  0
   22.8834   77.0319   -4.2072 O   0  0  0  0  0  0  0  0  0  0  0  0
   23.2838   76.2976   -6.6907 O   0  0  0  0  0  0  0  0  0  0  0  0
   25.0284   75.5718   -8.1212 O   0  0  0  0  0  0  0  0  0  0  0  0
   23.6876   78.8091  -10.3058 O   0  0  0  0  0  0  0  0  0  0  0  0
   23.1342   76.1471  -11.2308 O   0  0  0  0  0  0  0  0  0  0  0  0
   23.7921   78.9602   -7.4169 O   0  0  0  0  0  0  0  0  0  0  0  0
   23.5585   77.6768   -9.4417 C   0  0  1  0  0  0  0  0  0  0  0  0
   24.0627   76.4418  -10.1909 C   0  0  1  0  0  0  0  0  0  0  0  0
   24.3856   77.9151   -8.1798 C   0  0  2  0  0  0  0  0  0  0  0  0
   24.2059   75.2410   -9.2462 C   0  0  1  0  0  0  0  0  0  0  0  0
   24.5064   76.6452   -7.3355 C   0  0  1  0  0  0  0  0  0  0  0  0
   23.1643   78.6645  -11.1088 H   0  0  0  0  0  0  0  0  0  0  0  0
   23.0526   76.9136  -11.8199 H   0  0  0  0  0  0  0  0  0  0  0  0
   23.7215   79.7585   -7.9624 H   0  0  0  0  0  0  0  0  0  0  0  0
   23.8322   73.2132  -10.4536 O   0  0  0  0  0  0  0  0  0  0  0  0
   24.8557   74.0441   -9.9372 C   0  0  0  0  0  0  0  0  0  0  0  0
   24.2310   72.4474  -10.8965 H   0  0  0  0  0  0  0  0  0  0  0  0
 25 28  1  0
 25 24  1  0
 25 26  1  1
 25 27  2  0
  1  4  1  0
  1 24  1  0
  1  2  1  6
  1  3  2  0
  6 11  1  0
  6 12  1  0
 29 36  1  0
 29 37  1  0
  9  7  1  6
  7 13  1  0
 10  8  1  1
  8 14  1  0
 37 28  1  6
  4  5  1  0
 33 30  1  6
 30 38  1  0
 34 31  1  6
 31 39  1  0
 35 32  1  1
 32 40  1  0
 41 42  1  0
 41 43  1  0
 15 19  2  0
 16 22  2  0
 12 17  1  6
 17 19  1  0
 17 20  1  0
 18 19  1  0
 18 22  1  0
 18 23  1  0
  9 10  1  0
  9 11  1  0
 10 12  1  0
 11  5  1  6
 33 34  1  0
 33 35  1  0
 34 36  1  0
 35 37  1  0
 36 42  1  6
 20 21  2  0
 21 22  1  0
M  CHG  2   2  -1  26  -1
M  END
>  <COMPND>  (54) 
    8629 

>  <AUTHOR>  (54) 
    GENERATED BY OPEN BABEL 3.1.1

>  <MASTER>  (54) 
        0    0    0    0    0    0    0    0   58    0   58    0

>  <minimizedAffinity>  (54) 
-6.73978

>  <CNNscore>  (54) 
0.7221679091

>  <CNNaffinity>  (54) 
4.4936971664

>  <CNN_VS>  (54) 
3.2452039719

>  <CNNaffinity_variance>  (54) 
0.1403206289

$$$$
55
     RDKit          3D

 43 45  0  0  0  0  0  0  0  0999 V2000
   21.8735   72.4936   -5.7139 P   0  0  2  0  0  0  0  0  0  0  0  0
   21.2356   73.9586   -5.4603 O   0  0  0  0  0  0  0  0  0  0  0  0
   23.1347   72.4835   -6.5267 O   0  0  0  0  0  0  0  0  0  0  0  0
   20.6427   71.6330   -6.3160 O   0  0  0  0  0  0  0  0  0  0  0  0
   20.1374   71.9786   -7.5939 C   0  0  0  0  0  0  0  0  0  0  0  0
   18.9359   69.9454   -7.1509 O   0  0  0  0  0  0  0  0  0  0  0  0
   18.1333   70.0107  -10.0393 O   0  0  0  0  0  0  0  0  0  0  0  0
   15.9073   70.9601   -8.7822 O   0  0  0  0  0  0  0  0  0  0  0  0
   18.3103   71.0935   -9.1273 C   0  0  1  0  0  0  0  0  0  0  0  0
   17.1559   71.1507   -8.1487 C   0  0  2  0  0  0  0  0  0  0  0  0
   19.4830   70.7528   -8.2163 C   0  0  1  0  0  0  0  0  0  0  0  0
   17.5016   70.0262   -7.1875 C   0  0  2  0  0  0  0  0  0  0  0  0
   17.3897   70.2055  -10.6318 H   0  0  0  0  0  0  0  0  0  0  0  0
   15.7329   71.7012   -9.3830 H   0  0  0  0  0  0  0  0  0  0  0  0
   16.2453   68.0856   -5.5646 O   0  0  0  0  0  0  0  0  0  0  0  0
   15.6714   71.0812   -2.1094 O   0  0  0  0  0  0  0  0  0  0  0  0
   17.0144   70.2716   -5.8594 N   0  0  0  0  0  0  0  0  0  0  0  0
   15.9608   69.5787   -3.8455 N   0  0  0  0  0  0  0  0  0  0  0  0
   16.3980   69.2288   -5.1293 C   0  0  0  0  0  0  0  0  0  0  0  0
   17.1502   71.5348   -5.2939 C   0  0  0  0  0  0  0  0  0  0  0  0
   16.7267   71.8525   -4.0688 C   0  0  0  0  0  0  0  0  0  0  0  0
   16.0718   70.8202   -3.2397 C   0  0  0  0  0  0  0  0  0  0  0  0
   15.5279   68.8683   -3.3184 H   0  0  0  0  0  0  0  0  0  0  0  0
   22.0325   71.9025   -4.2178 O   0  0  0  0  0  0  0  0  0  0  0  0
   23.2547   71.9957   -3.1640 P   0  0  2  0  0  0  0  0  0  0  0  0
   23.9510   73.4102   -3.5274 O   0  0  0  0  0  0  0  0  0  0  0  0
   24.1874   70.8197   -3.1978 O   0  0  0  0  0  0  0  0  0  0  0  0
   22.5449   72.2457   -1.7362 O   0  0  0  0  0  0  0  0  0  0  0  0
   22.4490   74.0179   -0.1657 O   0  0  0  0  0  0  0  0  0  0  0  0
   23.1813   70.8832    2.4205 O   0  0  0  0  0  0  0  0  0  0  0  0
   20.5762   72.0903    2.3574 O   0  0  0  0  0  0  0  0  0  0  0  0
   24.4794   70.9547   -0.1659 O   0  0  0  0  0  0  0  0  0  0  0  0
   22.6251   71.5163    1.2650 C   0  0  1  0  0  0  0  0  0  0  0  0
   21.7229   72.6601    1.7325 C   0  0  1  0  0  0  0  0  0  0  0  0
   23.7602   72.0489    0.3926 C   0  0  2  0  0  0  0  0  0  0  0  0
   21.3029   73.5508    0.5554 C   0  0  1  0  0  0  0  0  0  0  0  0
   23.2382   72.9624   -0.7179 C   0  0  1  0  0  0  0  0  0  0  0  0
   22.4658   70.5423    2.9785 H   0  0  0  0  0  0  0  0  0  0  0  0
   20.8552   71.5299    3.0985 H   0  0  0  0  0  0  0  0  0  0  0  0
   24.8049   70.3842    0.5472 H   0  0  0  0  0  0  0  0  0  0  0  0
   19.1609   74.4520    1.1111 O   0  0  0  0  0  0  0  0  0  0  0  0
   20.5336   74.7859    1.0189 C   0  0  0  0  0  0  0  0  0  0  0  0
   18.6589   75.2286    1.4053 H   0  0  0  0  0  0  0  0  0  0  0  0
 25 28  1  0
 25 24  1  0
 25 26  1  6
 25 27  2  0
  1  4  1  0
  1 24  1  0
  1  2  1  1
  1  3  2  0
  6 11  1  0
  6 12  1  0
 29 36  1  0
 29 37  1  0
  9  7  1  6
  7 13  1  0
 10  8  1  6
  8 14  1  0
 37 28  1  6
  4  5  1  0
 33 30  1  1
 30 38  1  0
 34 31  1  6
 31 39  1  0
 35 32  1  6
 32 40  1  0
 41 42  1  0
 41 43  1  0
 15 19  2  0
 16 22  2  0
 12 17  1  1
 17 19  1  0
 17 20  1  0
 18 19  1  0
 18 22  1  0
 18 23  1  0
  9 10  1  0
  9 11  1  0
 10 12  1  0
 11  5  1  1
 33 34  1  0
 33 35  1  0
 34 36  1  0
 35 37  1  0
 36 42  1  1
 20 21  2  0
 21 22  1  0
M  CHG  2   2  -1  26  -1
M  END
>  <COMPND>  (55) 
    8629 

>  <AUTHOR>  (55) 
    GENERATED BY OPEN BABEL 3.1.1

>  <MASTER>  (55) 
        0    0    0    0    0    0    0    0   58    0   58    0

>  <minimizedAffinity>  (55) 
-7.80652

>  <CNNscore>  (55) 
0.7145005465

>  <CNNaffinity>  (55) 
4.5769081116

>  <CNN_VS>  (55) 
3.2702033520

>  <CNNaffinity_variance>  (55) 
0.2316870242

$$$$
56
     RDKit          3D

 43 45  0  0  0  0  0  0  0  0999 V2000
   21.8337   72.5558   -5.6211 P   0  0  2  0  0  0  0  0  0  0  0  0
   21.2032   74.0194   -5.3426 O   0  0  0  0  0  0  0  0  0  0  0  0
   23.0878   72.5523   -6.4450 O   0  0  0  0  0  0  0  0  0  0  0  0
   20.5948   71.7075   -6.2238 O   0  0  0  0  0  0  0  0  0  0  0  0
   20.0859   72.0656   -7.4969 C   0  0  0  0  0  0  0  0  0  0  0  0
   18.9186   70.0034   -7.0986 O   0  0  0  0  0  0  0  0  0  0  0  0
   18.1495   70.0966   -9.9953 O   0  0  0  0  0  0  0  0  0  0  0  0
   15.8907   70.9843   -8.7518 O   0  0  0  0  0  0  0  0  0  0  0  0
   18.2947   71.1688   -9.0654 C   0  0  1  0  0  0  0  0  0  0  0  0
   17.1278   71.1893   -8.1003 C   0  0  2  0  0  0  0  0  0  0  0  0
   19.4628   70.8369   -8.1452 C   0  0  1  0  0  0  0  0  0  0  0  0
   17.4836   70.0573   -7.1516 C   0  0  2  0  0  0  0  0  0  0  0  0
   17.4095   70.2860  -10.5940 H   0  0  0  0  0  0  0  0  0  0  0  0
   15.7093   71.7309   -9.3438 H   0  0  0  0  0  0  0  0  0  0  0  0
   16.3022   68.0540   -5.5488 O   0  0  0  0  0  0  0  0  0  0  0  0
   15.5697   71.0019   -2.0826 O   0  0  0  0  0  0  0  0  0  0  0  0
   16.9759   70.2735   -5.8261 N   0  0  0  0  0  0  0  0  0  0  0  0
   15.9386   69.5234   -3.8241 N   0  0  0  0  0  0  0  0  0  0  0  0
   16.4008   69.2003   -5.1064 C   0  0  0  0  0  0  0  0  0  0  0  0
   17.0512   71.5383   -5.2529 C   0  0  0  0  0  0  0  0  0  0  0  0
   16.6047   71.8302   -4.0295 C   0  0  0  0  0  0  0  0  0  0  0  0
   15.9899   70.7652   -3.2110 C   0  0  0  0  0  0  0  0  0  0  0  0
   15.5337   68.7916   -3.3042 H   0  0  0  0  0  0  0  0  0  0  0  0
   22.0037   71.9443   -4.1345 O   0  0  0  0  0  0  0  0  0  0  0  0
   23.2379   72.0135   -3.0929 P   0  0  2  0  0  0  0  0  0  0  0  0
   23.9137   73.4482   -3.4132 O   0  0  0  0  0  0  0  0  0  0  0  0
   24.1830   70.8504   -3.1806 O   0  0  0  0  0  0  0  0  0  0  0  0
   22.5433   72.2036   -1.6485 O   0  0  0  0  0  0  0  0  0  0  0  0
   23.4452   70.6340   -0.1188 O   0  0  0  0  0  0  0  0  0  0  0  0
   20.4577   72.2212    2.2490 O   0  0  0  0  0  0  0  0  0  0  0  0
   23.1999   72.8738    2.7987 O   0  0  0  0  0  0  0  0  0  0  0  0
   19.9850   71.7856   -0.5735 O   0  0  0  0  0  0  0  0  0  0  0  0
   21.4844   72.2487    1.2537 C   0  0  1  0  0  0  0  0  0  0  0  0
   22.8014   71.8323    1.9117 C   0  0  1  0  0  0  0  0  0  0  0  0
   21.1159   71.2823    0.1296 C   0  0  2  0  0  0  0  0  0  0  0  0
   23.8904   71.5800    0.8603 C   0  0  1  0  0  0  0  0  0  0  0  0
   22.2845   71.0637   -0.8330 C   0  0  1  0  0  0  0  0  0  0  0  0
   20.6853   72.8331    2.9654 H   0  0  0  0  0  0  0  0  0  0  0  0
   22.5034   73.0235    3.4572 H   0  0  0  0  0  0  0  0  0  0  0  0
   19.2521   71.9194    0.0467 H   0  0  0  0  0  0  0  0  0  0  0  0
   24.8073   70.2384    2.6120 O   0  0  0  0  0  0  0  0  0  0  0  0
   25.1647   71.0124    1.4817 C   0  0  0  0  0  0  0  0  0  0  0  0
   25.6085   69.8705    3.0176 H   0  0  0  0  0  0  0  0  0  0  0  0
 25 28  1  0
 25 24  1  0
 25 26  1  6
 25 27  2  0
  1  4  1  0
  1 24  1  0
  1  2  1  1
  1  3  2  0
  6 11  1  0
  6 12  1  0
 29 36  1  0
 29 37  1  0
  9  7  1  6
  7 13  1  0
 10  8  1  6
  8 14  1  0
 37 28  1  1
  4  5  1  0
 33 30  1  1
 30 38  1  0
 34 31  1  1
 31 39  1  0
 35 32  1  6
 32 40  1  0
 41 42  1  0
 41 43  1  0
 15 19  2  0
 16 22  2  0
 12 17  1  1
 17 19  1  0
 17 20  1  0
 18 19  1  0
 18 22  1  0
 18 23  1  0
  9 10  1  0
  9 11  1  0
 10 12  1  0
 11  5  1  1
 33 34  1  0
 33 35  1  0
 34 36  1  0
 35 37  1  0
 36 42  1  1
 20 21  2  0
 21 22  1  0
M  CHG  2   2  -1  26  -1
M  END
>  <COMPND>  (56) 
    8629 

>  <AUTHOR>  (56) 
    GENERATED BY OPEN BABEL 3.1.1

>  <MASTER>  (56) 
        0    0    0    0    0    0    0    0   58    0   58    0

>  <minimizedAffinity>  (56) 
-8.35646

>  <CNNscore>  (56) 
0.7104354501

>  <CNNaffinity>  (56) 
4.4744958878

>  <CNN_VS>  (56) 
3.1788403988

>  <CNNaffinity_variance>  (56) 
0.2537795901

$$$$
57
     RDKit          3D

 43 45  0  0  0  0  0  0  0  0999 V2000
   19.6369   71.1597   -1.5290 P   0  0  2  0  0  0  0  0  0  0  0  0
   18.7062   69.8533   -1.7400 O   0  0  0  0  0  0  0  0  0  0  0  0
   18.8942   72.4612   -1.4515 O   0  0  0  0  0  0  0  0  0  0  0  0
   20.7370   71.0477   -2.7102 O   0  0  0  0  0  0  0  0  0  0  0  0
   20.7595   72.0511   -3.7105 C   0  0  0  0  0  0  0  0  0  0  0  0
   20.9859   70.6444   -5.6454 O   0  0  0  0  0  0  0  0  0  0  0  0
   23.3015   72.3887   -6.4110 O   0  0  0  0  0  0  0  0  0  0  0  0
   21.2969   73.3299   -8.0022 O   0  0  0  0  0  0  0  0  0  0  0  0
   22.0755   72.7449   -5.7745 C   0  0  1  0  0  0  0  0  0  0  0  0
   20.9389   72.7272   -6.7753 C   0  0  2  0  0  0  0  0  0  0  0  0
   21.6884   71.6107   -4.8336 C   0  0  1  0  0  0  0  0  0  0  0  0
   20.6636   71.2395   -6.9131 C   0  0  2  0  0  0  0  0  0  0  0  0
   23.5692   73.0982   -7.0168 H   0  0  0  0  0  0  0  0  0  0  0  0
   21.4618   74.2754   -7.8623 H   0  0  0  0  0  0  0  0  0  0  0  0
   19.6310   71.0112   -9.5321 O   0  0  0  0  0  0  0  0  0  0  0  0
   15.3729   70.1789   -7.9774 O   0  0  0  0  0  0  0  0  0  0  0  0
   19.2889   70.9632   -7.2218 N   0  0  0  0  0  0  0  0  0  0  0  0
   17.5116   70.5968   -8.7559 N   0  0  0  0  0  0  0  0  0  0  0  0
   18.8729   70.8697   -8.5704 C   0  0  0  0  0  0  0  0  0  0  0  0
   18.3694   70.7879   -6.1933 C   0  0  0  0  0  0  0  0  0  0  0  0
   17.0745   70.5294   -6.3870 C   0  0  0  0  0  0  0  0  0  0  0  0
   16.5583   70.4157   -7.7664 C   0  0  0  0  0  0  0  0  0  0  0  0
   17.1989   70.5275   -9.6871 H   0  0  0  0  0  0  0  0  0  0  0  0
   20.4870   70.7904   -0.2046 O   0  0  0  0  0  0  0  0  0  0  0  0
   21.7340   71.5399    0.4996 P   0  0  2  0  0  0  0  0  0  0  0  0
   22.9884   70.5784    0.1536 O   0  0  0  0  0  0  0  0  0  0  0  0
   21.5439   71.8066    1.9648 O   0  0  0  0  0  0  0  0  0  0  0  0
   21.9745   72.8615   -0.3951 O   0  0  0  0  0  0  0  0  0  0  0  0
   23.9793   73.9393   -1.0550 O   0  0  0  0  0  0  0  0  0  0  0  0
   21.6171   77.2674   -0.4266 O   0  0  0  0  0  0  0  0  0  0  0  0
   22.2922   76.4937   -3.1087 O   0  0  0  0  0  0  0  0  0  0  0  0
   21.4005   74.9877    1.3442 O   0  0  0  0  0  0  0  0  0  0  0  0
   21.8922   75.9205   -0.8213 C   0  0  1  0  0  0  0  0  0  0  0  0
   22.9232   75.9530   -1.9512 C   0  0  1  0  0  0  0  0  0  0  0  0
   22.4354   75.1494    0.3802 C   0  0  2  0  0  0  0  0  0  0  0  0
   23.4667   74.5484   -2.2458 C   0  0  1  0  0  0  0  0  0  0  0  0
   22.9957   73.7863   -0.0299 C   0  0  1  0  0  0  0  0  0  0  0  0
   21.2714   77.7624   -1.1849 H   0  0  0  0  0  0  0  0  0  0  0  0
   21.9531   77.3805   -2.9091 H   0  0  0  0  0  0  0  0  0  0  0  0
   21.0545   75.8576    1.5958 H   0  0  0  0  0  0  0  0  0  0  0  0
   24.7026   73.3034   -3.8680 O   0  0  0  0  0  0  0  0  0  0  0  0
   24.6089   74.5780   -3.2590 C   0  0  0  0  0  0  0  0  0  0  0  0
   25.4253   73.3074   -4.5155 H   0  0  0  0  0  0  0  0  0  0  0  0
 25 28  1  0
 25 24  1  0
 25 26  1  1
 25 27  2  0
  1  4  1  0
  1 24  1  0
  1  2  1  6
  1  3  2  0
  6 11  1  0
  6 12  1  0
 29 36  1  0
 29 37  1  0
  9  7  1  6
  7 13  1  0
 10  8  1  6
  8 14  1  0
 37 28  1  6
  4  5  1  0
 33 30  1  1
 30 38  1  0
 34 31  1  6
 31 39  1  0
 35 32  1  1
 32 40  1  0
 41 42  1  0
 41 43  1  0
 15 19  2  0
 16 22  2  0
 12 17  1  1
 17 19  1  0
 17 20  1  0
 18 19  1  0
 18 22  1  0
 18 23  1  0
  9 10  1  0
  9 11  1  0
 10 12  1  0
 11  5  1  1
 33 34  1  0
 33 35  1  0
 34 36  1  0
 35 37  1  0
 36 42  1  6
 20 21  2  0
 21 22  1  0
M  CHG  2   2  -1  26  -1
M  END
>  <COMPND>  (57) 
    8629 

>  <AUTHOR>  (57) 
    GENERATED BY OPEN BABEL 3.1.1

>  <MASTER>  (57) 
        0    0    0    0    0    0    0    0   58    0   58    0

>  <minimizedAffinity>  (57) 
-6.43393

>  <CNNscore>  (57) 
0.6849777102

>  <CNNaffinity>  (57) 
4.4176506996

>  <CNN_VS>  (57) 
3.0259921551

>  <CNNaffinity_variance>  (57) 
0.1433122307

$$$$
58
     RDKit          3D

 43 45  0  0  0  0  0  0  0  0999 V2000
   23.0922   71.6224   -2.6252 P   0  0  2  0  0  0  0  0  0  0  0  0
   23.2024   73.2041   -2.3037 O   0  0  0  0  0  0  0  0  0  0  0  0
   24.3408   70.9992   -3.1765 O   0  0  0  0  0  0  0  0  0  0  0  0
   21.7771   71.5069   -3.5606 O   0  0  0  0  0  0  0  0  0  0  0  0
   21.5603   72.5001   -4.5478 C   0  0  0  0  0  0  0  0  0  0  0  0
   20.6036   70.6320   -5.7179 O   0  0  0  0  0  0  0  0  0  0  0  0
   21.0012   72.2356   -8.2201 O   0  0  0  0  0  0  0  0  0  0  0  0
   18.3446   72.5796   -7.7095 O   0  0  0  0  0  0  0  0  0  0  0  0
   20.6396   72.6781   -6.9129 C   0  0  1  0  0  0  0  0  0  0  0  0
   19.1993   72.3170   -6.6152 C   0  0  2  0  0  0  0  0  0  0  0  0
   21.3967   71.8250   -5.9027 C   0  0  1  0  0  0  0  0  0  0  0  0
   19.3050   70.8349   -6.2985 C   0  0  2  0  0  0  0  0  0  0  0  0
   20.5303   72.7660   -8.8826 H   0  0  0  0  0  0  0  0  0  0  0  0
   18.3106   73.5353   -7.8713 H   0  0  0  0  0  0  0  0  0  0  0  0
   16.6937   70.0326   -7.0167 O   0  0  0  0  0  0  0  0  0  0  0  0
   15.5483   69.1936   -2.6320 O   0  0  0  0  0  0  0  0  0  0  0  0
   18.3039   70.4016   -5.3649 N   0  0  0  0  0  0  0  0  0  0  0  0
   16.1256   69.6153   -4.8329 N   0  0  0  0  0  0  0  0  0  0  0  0
   17.0232   70.0208   -5.8289 C   0  0  0  0  0  0  0  0  0  0  0  0
   18.5965   70.3571   -4.0061 C   0  0  0  0  0  0  0  0  0  0  0  0
   17.7289   69.9693   -3.0691 C   0  0  0  0  0  0  0  0  0  0  0  0
   16.3688   69.5552   -3.4698 C   0  0  0  0  0  0  0  0  0  0  0  0
   15.2271   69.3459   -5.1326 H   0  0  0  0  0  0  0  0  0  0  0  0
   22.5938   70.9996   -1.2192 O   0  0  0  0  0  0  0  0  0  0  0  0
   21.6037   71.5923   -0.0872 P   0  0  2  0  0  0  0  0  0  0  0  0
   21.1216   70.2712    0.7127 O   0  0  0  0  0  0  0  0  0  0  0  0
   20.4829   72.4319   -0.6283 O   0  0  0  0  0  0  0  0  0  0  0  0
   22.5773   72.3612    0.9451 O   0  0  0  0  0  0  0  0  0  0  0  0
   24.2857   71.9041    2.5228 O   0  0  0  0  0  0  0  0  0  0  0  0
   21.7044   74.0321    4.9434 O   0  0  0  0  0  0  0  0  0  0  0  0
   24.1630   75.2416    4.0831 O   0  0  0  0  0  0  0  0  0  0  0  0
   20.6499   72.1875    2.9774 O   0  0  0  0  0  0  0  0  0  0  0  0
   22.3697   73.7007    3.7216 C   0  0  1  0  0  0  0  0  0  0  0  0
   23.8764   73.8533    3.9393 C   0  0  1  0  0  0  0  0  0  0  0  0
   22.0246   72.2626    3.3394 C   0  0  2  0  0  0  0  0  0  0  0  0
   24.6685   73.2630    2.7649 C   0  0  1  0  0  0  0  0  0  0  0  0
   22.9030   71.7563    2.1938 C   0  0  1  0  0  0  0  0  0  0  0  0
   21.9189   74.9442    5.1914 H   0  0  0  0  0  0  0  0  0  0  0  0
   23.6562   75.6023    4.8276 H   0  0  0  0  0  0  0  0  0  0  0  0
   20.1044   72.5105    3.7109 H   0  0  0  0  0  0  0  0  0  0  0  0
   26.6537   74.5862    2.8949 O   0  0  0  0  0  0  0  0  0  0  0  0
   26.1720   73.2620    3.0321 C   0  0  0  0  0  0  0  0  0  0  0  0
   27.6094   74.6009    3.0624 H   0  0  0  0  0  0  0  0  0  0  0  0
 25 28  1  0
 25 24  1  0
 25 26  1  1
 25 27  2  0
  1  4  1  0
  1 24  1  0
  1  2  1  1
  1  3  2  0
  6 11  1  0
  6 12  1  0
 29 36  1  0
 29 37  1  0
  9  7  1  6
  7 13  1  0
 10  8  1  6
  8 14  1  0
 37 28  1  6
  4  5  1  0
 33 30  1  1
 30 38  1  0
 34 31  1  6
 31 39  1  0
 35 32  1  6
 32 40  1  0
 41 42  1  0
 41 43  1  0
 15 19  2  0
 16 22  2  0
 12 17  1  1
 17 19  1  0
 17 20  1  0
 18 19  1  0
 18 22  1  0
 18 23  1  0
  9 10  1  0
  9 11  1  0
 10 12  1  0
 11  5  1  1
 33 34  1  0
 33 35  1  0
 34 36  1  0
 35 37  1  0
 36 42  1  1
 20 21  2  0
 21 22  1  0
M  CHG  2   2  -1  26  -1
M  END
>  <COMPND>  (58) 
    8629 

>  <AUTHOR>  (58) 
    GENERATED BY OPEN BABEL 3.1.1

>  <MASTER>  (58) 
        0    0    0    0    0    0    0    0   58    0   58    0

>  <minimizedAffinity>  (58) 
-7.62405

>  <CNNscore>  (58) 
0.6753335595

>  <CNNaffinity>  (58) 
4.3710803986

>  <CNN_VS>  (58) 
2.9519371986

>  <CNNaffinity_variance>  (58) 
0.1501424760

$$$$
59
     RDKit          3D

 43 45  0  0  0  0  0  0  0  0999 V2000
   22.9576   73.2557   -3.7778 P   0  0  2  0  0  0  0  0  0  0  0  0
   24.2587   72.5222   -4.3994 O   0  0  0  0  0  0  0  0  0  0  0  0
   23.1495   74.7040   -3.4357 O   0  0  0  0  0  0  0  0  0  0  0  0
   22.5197   72.2960   -2.5509 O   0  0  0  0  0  0  0  0  0  0  0  0
   23.0561   72.5550   -1.2652 C   0  0  0  0  0  0  0  0  0  0  0  0
   24.1417   71.1748    0.3750 O   0  0  0  0  0  0  0  0  0  0  0  0
   21.4338   70.0027    0.9079 O   0  0  0  0  0  0  0  0  0  0  0  0
   21.7395   71.7560    2.9740 O   0  0  0  0  0  0  0  0  0  0  0  0
   21.7868   71.3451    0.5782 C   0  0  1  0  0  0  0  0  0  0  0  0
   22.4257   72.0284    1.7692 C   0  0  2  0  0  0  0  0  0  0  0  0
   22.9397   71.2962   -0.4167 C   0  0  1  0  0  0  0  0  0  0  0  0
   23.8289   71.4463    1.7510 C   0  0  2  0  0  0  0  0  0  0  0  0
   20.6990   70.0082    1.5419 H   0  0  0  0  0  0  0  0  0  0  0  0
   20.8526   72.1467    2.9366 H   0  0  0  0  0  0  0  0  0  0  0  0
   26.4742   70.7272    2.4318 O   0  0  0  0  0  0  0  0  0  0  0  0
   27.4891   75.0172    3.7762 O   0  0  0  0  0  0  0  0  0  0  0  0
   24.8058   72.3554    2.2807 N   0  0  0  0  0  0  0  0  0  0  0  0
   26.9774   72.8639    3.1005 N   0  0  0  0  0  0  0  0  0  0  0  0
   26.1061   71.8930    2.5906 C   0  0  0  0  0  0  0  0  0  0  0  0
   24.4710   73.6892    2.4875 C   0  0  0  0  0  0  0  0  0  0  0  0
   25.3132   74.6022    2.9757 C   0  0  0  0  0  0  0  0  0  0  0  0
   26.6912   74.2012    3.3252 C   0  0  0  0  0  0  0  0  0  0  0  0
   27.8886   72.5646    3.3239 H   0  0  0  0  0  0  0  0  0  0  0  0
   21.8160   72.9719   -4.8864 O   0  0  0  0  0  0  0  0  0  0  0  0
   20.2283   73.2754   -4.8770 P   0  0  2  0  0  0  0  0  0  0  0  0
   20.1544   74.8724   -5.1257 O   0  0  0  0  0  0  0  0  0  0  0  0
   19.5198   72.8081   -3.6387 O   0  0  0  0  0  0  0  0  0  0  0  0
   19.6797   72.6236   -6.2479 O   0  0  0  0  0  0  0  0  0  0  0  0
   19.0704   70.3341   -6.1909 O   0  0  0  0  0  0  0  0  0  0  0  0
   19.4135   70.8242  -10.2766 O   0  0  0  0  0  0  0  0  0  0  0  0
   16.8105   70.5461   -9.0955 O   0  0  0  0  0  0  0  0  0  0  0  0
   21.2809   72.1445   -8.5021 O   0  0  0  0  0  0  0  0  0  0  0  0
   19.1000   71.2202   -8.9386 C   0  0  1  0  0  0  0  0  0  0  0  0
   18.0238   70.2762   -8.3988 C   0  0  1  0  0  0  0  0  0  0  0  0
   20.3640   71.1387   -8.0848 C   0  0  2  0  0  0  0  0  0  0  0  0
   17.8266   70.4666   -6.8889 C   0  0  1  0  0  0  0  0  0  0  0  0
   20.0504   71.2921   -6.5954 C   0  0  1  0  0  0  0  0  0  0  0  0
   18.6152   70.8741  -10.8242 H   0  0  0  0  0  0  0  0  0  0  0  0
   16.9487   70.4227  -10.0478 H   0  0  0  0  0  0  0  0  0  0  0  0
   21.4715   72.0364   -9.4465 H   0  0  0  0  0  0  0  0  0  0  0  0
   15.5790   69.6582   -6.8287 O   0  0  0  0  0  0  0  0  0  0  0  0
   16.8726   69.4289   -6.3013 C   0  0  0  0  0  0  0  0  0  0  0  0
   14.9612   69.0048   -6.4638 H   0  0  0  0  0  0  0  0  0  0  0  0
 25 28  1  0
 25 24  1  0
 25 26  1  6
 25 27  2  0
  1  4  1  0
  1 24  1  0
  1  2  1  6
  1  3  2  0
  6 11  1  0
  6 12  1  0
 29 36  1  0
 29 37  1  0
  9  7  1  1
  7 13  1  0
 10  8  1  1
  8 14  1  0
 37 28  1  6
  4  5  1  0
 33 30  1  6
 30 38  1  0
 34 31  1  6
 31 39  1  0
 35 32  1  6
 32 40  1  0
 41 42  1  0
 41 43  1  0
 15 19  2  0
 16 22  2  0
 12 17  1  6
 17 19  1  0
 17 20  1  0
 18 19  1  0
 18 22  1  0
 18 23  1  0
  9 10  1  0
  9 11  1  0
 10 12  1  0
 11  5  1  1
 33 34  1  0
 33 35  1  0
 34 36  1  0
 35 37  1  0
 36 42  1  1
 20 21  2  0
 21 22  1  0
M  CHG  2   2  -1  26  -1
M  END
>  <COMPND>  (59) 
    8629 

>  <AUTHOR>  (59) 
    GENERATED BY OPEN BABEL 3.1.1

>  <MASTER>  (59) 
        0    0    0    0    0    0    0    0   58    0   58    0

>  <minimizedAffinity>  (59) 
-8.05837

>  <CNNscore>  (59) 
0.6216733456

>  <CNNaffinity>  (59) 
4.2816114426

>  <CNN_VS>  (59) 
2.6617636681

>  <CNNaffinity_variance>  (59) 
0.2289145291

$$$$
60
     RDKit          3D

 43 45  0  0  0  0  0  0  0  0999 V2000
   21.1925   71.8404   -5.2416 P   0  0  2  0  0  0  0  0  0  0  0  0
   20.2765   73.1692   -5.3543 O   0  0  0  0  0  0  0  0  0  0  0  0
   22.6078   72.0814   -4.8055 O   0  0  0  0  0  0  0  0  0  0  0  0
   21.0131   71.1219   -6.6802 O   0  0  0  0  0  0  0  0  0  0  0  0
   20.0673   71.6567   -7.5898 C   0  0  0  0  0  0  0  0  0  0  0  0
   18.6333   69.7755   -7.1670 O   0  0  0  0  0  0  0  0  0  0  0  0
   17.8911   69.9274  -10.0682 O   0  0  0  0  0  0  0  0  0  0  0  0
   15.7684   71.1281   -8.8479 O   0  0  0  0  0  0  0  0  0  0  0  0
   18.1762   70.9844   -9.1533 C   0  0  1  0  0  0  0  0  0  0  0  0
   17.0201   71.1754   -8.1938 C   0  0  2  0  0  0  0  0  0  0  0  0
   19.2870   70.5130   -8.2231 C   0  0  1  0  0  0  0  0  0  0  0  0
   17.2187   70.0203   -7.2272 C   0  0  2  0  0  0  0  0  0  0  0  0
   17.1846   70.2053  -10.6729 H   0  0  0  0  0  0  0  0  0  0  0  0
   15.6901   71.8833   -9.4514 H   0  0  0  0  0  0  0  0  0  0  0  0
   16.5557   68.0779   -5.2867 O   0  0  0  0  0  0  0  0  0  0  0  0
   15.3951   71.2951   -2.1974 O   0  0  0  0  0  0  0  0  0  0  0  0
   16.7411   70.3223   -5.9073 N   0  0  0  0  0  0  0  0  0  0  0  0
   15.9785   69.6814   -3.7500 N   0  0  0  0  0  0  0  0  0  0  0  0
   16.4357   69.2730   -5.0094 C   0  0  0  0  0  0  0  0  0  0  0  0
   16.5802   71.6467   -5.5148 C   0  0  0  0  0  0  0  0  0  0  0  0
   16.1419   72.0193   -4.3105 C   0  0  0  0  0  0  0  0  0  0  0  0
   15.8007   70.9845   -3.3132 C   0  0  0  0  0  0  0  0  0  0  0  0
   15.7592   68.9675   -3.1080 H   0  0  0  0  0  0  0  0  0  0  0  0
   20.3360   70.8914   -4.2522 O   0  0  0  0  0  0  0  0  0  0  0  0
   19.7552   71.1558   -2.7671 P   0  0  2  0  0  0  0  0  0  0  0  0
   18.8545   69.8425   -2.4817 O   0  0  0  0  0  0  0  0  0  0  0  0
   19.0197   72.4559   -2.6164 O   0  0  0  0  0  0  0  0  0  0  0  0
   21.0326   70.9933   -1.7940 O   0  0  0  0  0  0  0  0  0  0  0  0
   21.2547   72.8736   -0.3685 O   0  0  0  0  0  0  0  0  0  0  0  0
   24.8140   70.9667    0.4952 O   0  0  0  0  0  0  0  0  0  0  0  0
   22.6966   70.9637    2.4354 O   0  0  0  0  0  0  0  0  0  0  0  0
   23.8065   70.9838   -2.2185 O   0  0  0  0  0  0  0  0  0  0  0  0
   23.4261   71.0453    0.1590 C   0  0  1  0  0  0  0  0  0  0  0  0
   22.7032   71.7962    1.2791 C   0  0  1  0  0  0  0  0  0  0  0  0
   23.2753   71.7852   -1.1688 C   0  0  2  0  0  0  0  0  0  0  0  0
   21.2681   72.1537    0.8698 C   0  0  1  0  0  0  0  0  0  0  0  0
   21.8145   72.1363   -1.4570 C   0  0  1  0  0  0  0  0  0  0  0  0
   24.9168   70.4975    1.3371 H   0  0  0  0  0  0  0  0  0  0  0  0
   23.6088   70.7449    2.6830 H   0  0  0  0  0  0  0  0  0  0  0  0
   24.7316   70.7687   -2.0244 H   0  0  0  0  0  0  0  0  0  0  0  0
   21.5304   73.3909    2.8970 O   0  0  0  0  0  0  0  0  0  0  0  0
   20.5810   73.0386    1.9076 C   0  0  0  0  0  0  0  0  0  0  0  0
   21.1073   73.9545    3.5641 H   0  0  0  0  0  0  0  0  0  0  0  0
 25 28  1  0
 25 24  1  0
 25 26  1  1
 25 27  2  0
  1  4  1  0
  1 24  1  0
  1  2  1  6
  1  3  2  0
  6 11  1  0
  6 12  1  0
 29 36  1  0
 29 37  1  0
  9  7  1  6
  7 13  1  0
 10  8  1  6
  8 14  1  0
 37 28  1  1
  4  5  1  0
 33 30  1  1
 30 38  1  0
 34 31  1  1
 31 39  1  0
 35 32  1  6
 32 40  1  0
 41 42  1  0
 41 43  1  0
 15 19  2  0
 16 22  2  0
 12 17  1  1
 17 19  1  0
 17 20  1  0
 18 19  1  0
 18 22  1  0
 18 23  1  0
  9 10  1  0
  9 11  1  0
 10 12  1  0
 11  5  1  1
 33 34  1  0
 33 35  1  0
 34 36  1  0
 35 37  1  0
 36 42  1  1
 20 21  2  0
 21 22  1  0
M  CHG  2   2  -1  26  -1
M  END
>  <COMPND>  (60) 
    8629 

>  <AUTHOR>  (60) 
    GENERATED BY OPEN BABEL 3.1.1

>  <MASTER>  (60) 
        0    0    0    0    0    0    0    0   58    0   58    0

>  <minimizedAffinity>  (60) 
-7.27693

>  <CNNscore>  (60) 
0.6195377707

>  <CNNaffinity>  (60) 
4.4326200485

>  <CNN_VS>  (60) 
2.7461755276

>  <CNNaffinity_variance>  (60) 
0.3811311424

$$$$
61
     RDKit          3D

 43 45  0  0  0  0  0  0  0  0999 V2000
   20.5409   71.1983   -1.3457 P   0  0  2  0  0  0  0  0  0  0  0  0
   20.6923   70.6563    0.1711 O   0  0  0  0  0  0  0  0  0  0  0  0
   20.2203   72.6590   -1.4678 O   0  0  0  0  0  0  0  0  0  0  0  0
   19.4709   70.1858   -2.0149 O   0  0  0  0  0  0  0  0  0  0  0  0
   19.1638   70.3386   -3.3898 C   0  0  0  0  0  0  0  0  0  0  0  0
   17.5045   71.3797   -4.7814 O   0  0  0  0  0  0  0  0  0  0  0  0
   15.4795   69.8271   -3.2066 O   0  0  0  0  0  0  0  0  0  0  0  0
   15.6993   68.3646   -5.4978 O   0  0  0  0  0  0  0  0  0  0  0  0
   16.7923   69.4446   -3.6136 C   0  0  1  0  0  0  0  0  0  0  0  0
   16.8139   69.1345   -5.0958 C   0  0  2  0  0  0  0  0  0  0  0  0
   17.6860   70.6759   -3.5332 C   0  0  1  0  0  0  0  0  0  0  0  0
   16.8158   70.5247   -5.7085 C   0  0  2  0  0  0  0  0  0  0  0  0
   14.8906   69.0569   -3.2494 H   0  0  0  0  0  0  0  0  0  0  0  0
   15.7436   67.4895   -5.0818 H   0  0  0  0  0  0  0  0  0  0  0  0
   15.5176   70.5585   -8.2168 O   0  0  0  0  0  0  0  0  0  0  0  0
   19.5230   70.6783  -10.4936 O   0  0  0  0  0  0  0  0  0  0  0  0
   17.4949   70.5651   -6.9729 N   0  0  0  0  0  0  0  0  0  0  0  0
   17.5130   70.6183   -9.3484 N   0  0  0  0  0  0  0  0  0  0  0  0
   16.7495   70.5781   -8.1748 C   0  0  0  0  0  0  0  0  0  0  0  0
   18.8847   70.5916   -7.0125 C   0  0  0  0  0  0  0  0  0  0  0  0
   19.5979   70.6285   -8.1400 C   0  0  0  0  0  0  0  0  0  0  0  0
   18.8957   70.6445   -9.4395 C   0  0  0  0  0  0  0  0  0  0  0  0
   17.0152   70.6277  -10.1980 H   0  0  0  0  0  0  0  0  0  0  0  0
   21.9368   70.7564   -2.0306 O   0  0  0  0  0  0  0  0  0  0  0  0
   22.9583   71.5728   -2.9809 P   0  0  2  0  0  0  0  0  0  0  0  0
   22.1132   71.7766   -4.3454 O   0  0  0  0  0  0  0  0  0  0  0  0
   24.2893   70.9049   -3.1708 O   0  0  0  0  0  0  0  0  0  0  0  0
   23.0365   73.0459   -2.3260 O   0  0  0  0  0  0  0  0  0  0  0  0
   21.9990   75.1617   -2.5783 O   0  0  0  0  0  0  0  0  0  0  0  0
   25.9526   76.3395   -2.7609 O   0  0  0  0  0  0  0  0  0  0  0  0
   24.4009   76.9399   -0.4200 O   0  0  0  0  0  0  0  0  0  0  0  0
   25.1238   73.8649   -4.0135 O   0  0  0  0  0  0  0  0  0  0  0  0
   24.8479   75.5489   -2.3137 C   0  0  1  0  0  0  0  0  0  0  0  0
   23.8339   76.4776   -1.6428 C   0  0  1  0  0  0  0  0  0  0  0  0
   24.2195   74.8447   -3.5147 C   0  0  2  0  0  0  0  0  0  0  0  0
   22.5088   75.7509   -1.3763 C   0  0  1  0  0  0  0  0  0  0  0  0
   22.8819   74.1963   -3.1531 C   0  0  1  0  0  0  0  0  0  0  0  0
   26.3564   76.7889   -2.0030 H   0  0  0  0  0  0  0  0  0  0  0  0
   25.2373   77.3964   -0.6022 H   0  0  0  0  0  0  0  0  0  0  0  0
   25.9664   74.2879   -4.2391 H   0  0  0  0  0  0  0  0  0  0  0  0
   21.6166   76.8625    0.5414 O   0  0  0  0  0  0  0  0  0  0  0  0
   21.4320   76.6988   -0.8527 C   0  0  0  0  0  0  0  0  0  0  0  0
   20.9384   77.4637    0.8883 H   0  0  0  0  0  0  0  0  0  0  0  0
 25 28  1  0
 25 24  1  0
 25 26  1  6
 25 27  2  0
  1  4  1  0
  1 24  1  0
  1  2  1  1
  1  3  2  0
  6 11  1  0
  6 12  1  0
 29 36  1  0
 29 37  1  0
  9  7  1  6
  7 13  1  0
 10  8  1  6
  8 14  1  0
 37 28  1  1
  4  5  1  0
 33 30  1  6
 30 38  1  0
 34 31  1  1
 31 39  1  0
 35 32  1  1
 32 40  1  0
 41 42  1  0
 41 43  1  0
 15 19  2  0
 16 22  2  0
 12 17  1  6
 17 19  1  0
 17 20  1  0
 18 19  1  0
 18 22  1  0
 18 23  1  0
  9 10  1  0
  9 11  1  0
 10 12  1  0
 11  5  1  6
 33 34  1  0
 33 35  1  0
 34 36  1  0
 35 37  1  0
 36 42  1  6
 20 21  2  0
 21 22  1  0
M  CHG  2   2  -1  26  -1
M  END
>  <COMPND>  (61) 
    8629 

>  <AUTHOR>  (61) 
    GENERATED BY OPEN BABEL 3.1.1

>  <MASTER>  (61) 
        0    0    0    0    0    0    0    0   58    0   58    0

>  <minimizedAffinity>  (61) 
-7.55118

>  <CNNscore>  (61) 
0.9607471824

>  <CNNaffinity>  (61) 
5.0123081207

>  <CNN_VS>  (61) 
4.8155608177

>  <CNNaffinity_variance>  (61) 
0.0883911848

$$$$
62
     RDKit          3D

 43 45  0  0  0  0  0  0  0  0999 V2000
   20.4093   71.1699   -1.3603 P   0  0  2  0  0  0  0  0  0  0  0  0
   20.7233   70.5013    0.0791 O   0  0  0  0  0  0  0  0  0  0  0  0
   19.8443   72.5588   -1.3042 O   0  0  0  0  0  0  0  0  0  0  0  0
   19.4911   70.0676   -2.1085 O   0  0  0  0  0  0  0  0  0  0  0  0
   19.1863   70.2593   -3.4790 C   0  0  0  0  0  0  0  0  0  0  0  0
   17.5414   71.3412   -4.8565 O   0  0  0  0  0  0  0  0  0  0  0  0
   15.4935   69.8215   -3.2794 O   0  0  0  0  0  0  0  0  0  0  0  0
   15.6719   68.3671   -5.5793 O   0  0  0  0  0  0  0  0  0  0  0  0
   16.7962   69.4146   -3.6952 C   0  0  1  0  0  0  0  0  0  0  0  0
   16.8039   69.1122   -5.1791 C   0  0  2  0  0  0  0  0  0  0  0  0
   17.7150   70.6272   -3.6129 C   0  0  1  0  0  0  0  0  0  0  0  0
   16.8309   70.5053   -5.7845 C   0  0  2  0  0  0  0  0  0  0  0  0
   14.8889   69.0635   -3.3232 H   0  0  0  0  0  0  0  0  0  0  0  0
   15.7006   67.4891   -5.1682 H   0  0  0  0  0  0  0  0  0  0  0  0
   15.5209   70.5876   -8.2855 O   0  0  0  0  0  0  0  0  0  0  0  0
   19.5162   70.6294  -10.5827 O   0  0  0  0  0  0  0  0  0  0  0  0
   17.5042   70.5387   -7.0521 N   0  0  0  0  0  0  0  0  0  0  0  0
   17.5113   70.6085   -9.4273 N   0  0  0  0  0  0  0  0  0  0  0  0
   16.7531   70.5779   -8.2500 C   0  0  0  0  0  0  0  0  0  0  0  0
   18.8940   70.5328   -7.0989 C   0  0  0  0  0  0  0  0  0  0  0  0
   19.6021   70.5611   -8.2299 C   0  0  0  0  0  0  0  0  0  0  0  0
   18.8937   70.6029   -9.5255 C   0  0  0  0  0  0  0  0  0  0  0  0
   17.0095   70.6357  -10.2742 H   0  0  0  0  0  0  0  0  0  0  0  0
   21.8238   71.0497   -2.1333 O   0  0  0  0  0  0  0  0  0  0  0  0
   22.9715   72.1502   -2.4240 P   0  0  2  0  0  0  0  0  0  0  0  0
   22.1341   73.4275   -2.9577 O   0  0  0  0  0  0  0  0  0  0  0  0
   24.0500   71.6826   -3.3579 O   0  0  0  0  0  0  0  0  0  0  0  0
   23.4965   72.5889   -0.9622 O   0  0  0  0  0  0  0  0  0  0  0  0
   22.1900   73.4514    0.8171 O   0  0  0  0  0  0  0  0  0  0  0  0
   25.7397   75.4127    1.5941 O   0  0  0  0  0  0  0  0  0  0  0  0
   24.9020   73.2650    3.3069 O   0  0  0  0  0  0  0  0  0  0  0  0
   24.8703   75.0294   -1.1403 O   0  0  0  0  0  0  0  0  0  0  0  0
   24.9209   74.3227    1.1617 C   0  0  1  0  0  0  0  0  0  0  0  0
   24.0530   73.8779    2.3405 C   0  0  1  0  0  0  0  0  0  0  0  0
   24.0486   74.7853   -0.0038 C   0  0  2  0  0  0  0  0  0  0  0  0
   22.9637   72.8965    1.8872 C   0  0  1  0  0  0  0  0  0  0  0  0
   22.9670   73.7579   -0.3423 C   0  0  1  0  0  0  0  0  0  0  0  0
   26.2965   75.1254    2.3337 H   0  0  0  0  0  0  0  0  0  0  0  0
   25.5855   73.8950    3.5844 H   0  0  0  0  0  0  0  0  0  0  0  0
   25.5507   75.6816   -0.9132 H   0  0  0  0  0  0  0  0  0  0  0  0
   20.8290   71.9820    2.4491 O   0  0  0  0  0  0  0  0  0  0  0  0
   21.9898   72.5621    3.0150 C   0  0  0  0  0  0  0  0  0  0  0  0
   20.2003   71.7637    3.1553 H   0  0  0  0  0  0  0  0  0  0  0  0
 25 28  1  0
 25 24  1  0
 25 26  1  6
 25 27  2  0
  1  4  1  0
  1 24  1  0
  1  2  1  1
  1  3  2  0
  6 11  1  0
  6 12  1  0
 29 36  1  0
 29 37  1  0
  9  7  1  6
  7 13  1  0
 10  8  1  6
  8 14  1  0
 37 28  1  1
  4  5  1  0
 33 30  1  1
 30 38  1  0
 34 31  1  1
 31 39  1  0
 35 32  1  6
 32 40  1  0
 41 42  1  0
 41 43  1  0
 15 19  2  0
 16 22  2  0
 12 17  1  6
 17 19  1  0
 17 20  1  0
 18 19  1  0
 18 22  1  0
 18 23  1  0
  9 10  1  0
  9 11  1  0
 10 12  1  0
 11  5  1  6
 33 34  1  0
 33 35  1  0
 34 36  1  0
 35 37  1  0
 36 42  1  1
 20 21  2  0
 21 22  1  0
M  CHG  2   2  -1  26  -1
M  END
>  <COMPND>  (62) 
    8629 

>  <AUTHOR>  (62) 
    GENERATED BY OPEN BABEL 3.1.1

>  <MASTER>  (62) 
        0    0    0    0    0    0    0    0   58    0   58    0

>  <minimizedAffinity>  (62) 
-7.87002

>  <CNNscore>  (62) 
0.9366309047

>  <CNNaffinity>  (62) 
4.8113059998

>  <CNN_VS>  (62) 
4.5064177513

>  <CNNaffinity_variance>  (62) 
0.0892917439

$$$$
63
     RDKit          3D

 43 45  0  0  0  0  0  0  0  0999 V2000
   23.0915   71.6336   -2.4216 P   0  0  2  0  0  0  0  0  0  0  0  0
   23.4336   73.1177   -1.8757 O   0  0  0  0  0  0  0  0  0  0  0  0
   24.2139   70.9505   -3.1462 O   0  0  0  0  0  0  0  0  0  0  0  0
   21.7283   71.8363   -3.2692 O   0  0  0  0  0  0  0  0  0  0  0  0
   20.9436   70.6955   -3.5706 C   0  0  0  0  0  0  0  0  0  0  0  0
   18.9143   71.6043   -4.4816 O   0  0  0  0  0  0  0  0  0  0  0  0
   17.4985   70.1850   -2.2518 O   0  0  0  0  0  0  0  0  0  0  0  0
   17.0700   68.5301   -4.3765 O   0  0  0  0  0  0  0  0  0  0  0  0
   18.6414   69.7746   -3.0005 C   0  0  1  0  0  0  0  0  0  0  0  0
   18.2299   69.3371   -4.3908 C   0  0  2  0  0  0  0  0  0  0  0  0
   19.4807   71.0124   -3.2919 C   0  0  1  0  0  0  0  0  0  0  0  0
   18.0070   70.6689   -5.0871 C   0  0  2  0  0  0  0  0  0  0  0  0
   16.9473   69.4112   -2.0534 H   0  0  0  0  0  0  0  0  0  0  0  0
   17.2628   67.6947   -3.9230 H   0  0  0  0  0  0  0  0  0  0  0  0
   16.1379   69.8327   -7.0326 O   0  0  0  0  0  0  0  0  0  0  0  0
   19.1542   70.4524  -10.4617 O   0  0  0  0  0  0  0  0  0  0  0  0
   18.2771   70.6024   -6.4956 N   0  0  0  0  0  0  0  0  0  0  0  0
   17.6412   70.1421   -8.7385 N   0  0  0  0  0  0  0  0  0  0  0  0
   17.2696   70.1679   -7.3882 C   0  0  0  0  0  0  0  0  0  0  0  0
   19.5293   70.9660   -6.9791 C   0  0  0  0  0  0  0  0  0  0  0  0
   19.8682   70.9345   -8.2696 C   0  0  0  0  0  0  0  0  0  0  0  0
   18.8732   70.4924   -9.2678 C   0  0  0  0  0  0  0  0  0  0  0  0
   16.9556   69.8424   -9.3786 H   0  0  0  0  0  0  0  0  0  0  0  0
   22.5826   70.8661   -1.0931 O   0  0  0  0  0  0  0  0  0  0  0  0
   21.7280   71.3911    0.1745 P   0  0  2  0  0  0  0  0  0  0  0  0
   21.4082   70.0335    0.9944 O   0  0  0  0  0  0  0  0  0  0  0  0
   20.5134   72.1938   -0.1921 O   0  0  0  0  0  0  0  0  0  0  0  0
   22.7983   72.1782    1.0910 O   0  0  0  0  0  0  0  0  0  0  0  0
   24.4648   71.9010    2.7530 O   0  0  0  0  0  0  0  0  0  0  0  0
   21.7836   74.2066    4.8853 O   0  0  0  0  0  0  0  0  0  0  0  0
   24.2501   75.3692    3.9837 O   0  0  0  0  0  0  0  0  0  0  0  0
   20.8136   72.1666    3.0749 O   0  0  0  0  0  0  0  0  0  0  0  0
   22.4896   73.7717    3.7200 C   0  0  1  0  0  0  0  0  0  0  0  0
   23.9869   73.9689    3.9650 C   0  0  1  0  0  0  0  0  0  0  0  0
   22.1757   72.2983    3.4671 C   0  0  2  0  0  0  0  0  0  0  0  0
   24.8216   73.2829    2.8752 C   0  0  1  0  0  0  0  0  0  0  0  0
   23.0947   71.7000    2.4005 C   0  0  1  0  0  0  0  0  0  0  0  0
   21.9782   75.1415    5.0512 H   0  0  0  0  0  0  0  0  0  0  0  0
   23.7164   75.7905    4.6758 H   0  0  0  0  0  0  0  0  0  0  0  0
   20.2421   72.5487    3.7585 H   0  0  0  0  0  0  0  0  0  0  0  0
   26.7524   74.6750    3.0822 O   0  0  0  0  0  0  0  0  0  0  0  0
   26.3164   73.3320    3.1839 C   0  0  0  0  0  0  0  0  0  0  0  0
   27.7020   74.7217    3.2764 H   0  0  0  0  0  0  0  0  0  0  0  0
 25 28  1  0
 25 24  1  0
 25 26  1  1
 25 27  2  0
  1  4  1  0
  1 24  1  0
  1  2  1  1
  1  3  2  0
  6 11  1  0
  6 12  1  0
 29 36  1  0
 29 37  1  0
  9  7  1  1
  7 13  1  0
 10  8  1  1
  8 14  1  0
 37 28  1  6
  4  5  1  0
 33 30  1  1
 30 38  1  0
 34 31  1  6
 31 39  1  0
 35 32  1  6
 32 40  1  0
 41 42  1  0
 41 43  1  0
 15 19  2  0
 16 22  2  0
 12 17  1  6
 17 19  1  0
 17 20  1  0
 18 19  1  0
 18 22  1  0
 18 23  1  0
  9 10  1  0
  9 11  1  0
 10 12  1  0
 11  5  1  6
 33 34  1  0
 33 35  1  0
 34 36  1  0
 35 37  1  0
 36 42  1  1
 20 21  2  0
 21 22  1  0
M  CHG  2   2  -1  26  -1
M  END
>  <COMPND>  (63) 
    8629 

>  <AUTHOR>  (63) 
    GENERATED BY OPEN BABEL 3.1.1

>  <MASTER>  (63) 
        0    0    0    0    0    0    0    0   58    0   58    0

>  <minimizedAffinity>  (63) 
-7.99026

>  <CNNscore>  (63) 
0.9308079481

>  <CNNaffinity>  (63) 
4.7409772873

>  <CNN_VS>  (63) 
4.4129395485

>  <CNNaffinity_variance>  (63) 
0.0570211485

$$$$
64
     RDKit          3D

 43 45  0  0  0  0  0  0  0  0999 V2000
   20.4108   71.2271   -1.3056 P   0  0  2  0  0  0  0  0  0  0  0  0
   20.9137   70.5208    0.0602 O   0  0  0  0  0  0  0  0  0  0  0  0
   19.8580   72.6118   -1.1367 O   0  0  0  0  0  0  0  0  0  0  0  0
   19.4016   70.1421   -1.9552 O   0  0  0  0  0  0  0  0  0  0  0  0
   19.0977   70.2429   -3.3356 C   0  0  0  0  0  0  0  0  0  0  0  0
   17.4717   71.3310   -4.7306 O   0  0  0  0  0  0  0  0  0  0  0  0
   15.4057   69.7693   -3.2194 O   0  0  0  0  0  0  0  0  0  0  0  0
   15.6449   68.3517   -5.5367 O   0  0  0  0  0  0  0  0  0  0  0  0
   16.7204   69.3804   -3.6140 C   0  0  1  0  0  0  0  0  0  0  0  0
   16.7616   69.1006   -5.1019 C   0  0  2  0  0  0  0  0  0  0  0  0
   17.6261   70.5997   -3.4945 C   0  0  1  0  0  0  0  0  0  0  0  0
   16.7882   70.5030   -5.6856 C   0  0  2  0  0  0  0  0  0  0  0  0
   14.8091   69.0068   -3.2871 H   0  0  0  0  0  0  0  0  0  0  0  0
   15.6732   67.4679   -5.1383 H   0  0  0  0  0  0  0  0  0  0  0  0
   15.5306   70.5453   -8.2143 O   0  0  0  0  0  0  0  0  0  0  0  0
   19.5708   70.7271  -10.4244 O   0  0  0  0  0  0  0  0  0  0  0  0
   17.4872   70.5616   -6.9383 N   0  0  0  0  0  0  0  0  0  0  0  0
   17.5433   70.6360   -9.3127 N   0  0  0  0  0  0  0  0  0  0  0  0
   16.7613   70.5774   -8.1521 C   0  0  0  0  0  0  0  0  0  0  0  0
   18.8772   70.6030   -6.9550 C   0  0  0  0  0  0  0  0  0  0  0  0
   19.6081   70.6574   -8.0704 C   0  0  0  0  0  0  0  0  0  0  0  0
   18.9269   70.6775   -9.3810 C   0  0  0  0  0  0  0  0  0  0  0  0
   17.0592   70.6476  -10.1702 H   0  0  0  0  0  0  0  0  0  0  0  0
   21.7100   71.1336   -2.2629 O   0  0  0  0  0  0  0  0  0  0  0  0
   22.9083   72.1846   -2.5319 P   0  0  2  0  0  0  0  0  0  0  0  0
   23.9916   71.3094   -3.3553 O   0  0  0  0  0  0  0  0  0  0  0  0
   23.4499   72.8313   -1.2900 O   0  0  0  0  0  0  0  0  0  0  0  0
   22.3093   73.2180   -3.6173 O   0  0  0  0  0  0  0  0  0  0  0  0
   20.0997   73.3685   -4.4609 O   0  0  0  0  0  0  0  0  0  0  0  0
   22.1782   74.4680   -7.8553 O   0  0  0  0  0  0  0  0  0  0  0  0
   20.7151   76.4531   -6.3833 O   0  0  0  0  0  0  0  0  0  0  0  0
   23.2178   72.3828   -6.1377 O   0  0  0  0  0  0  0  0  0  0  0  0
   21.9258   74.3914   -6.4497 C   0  0  1  0  0  0  0  0  0  0  0  0
   20.5745   75.0515   -6.1684 C   0  0  1  0  0  0  0  0  0  0  0  0
   21.9060   72.9241   -6.0254 C   0  0  2  0  0  0  0  0  0  0  0  0
   20.1112   74.7750   -4.7317 C   0  0  1  0  0  0  0  0  0  0  0  0
   21.3835   72.7560   -4.5975 C   0  0  1  0  0  0  0  0  0  0  0  0
   22.1925   75.3972   -8.1311 H   0  0  0  0  0  0  0  0  0  0  0  0
   21.0085   76.6140   -7.2939 H   0  0  0  0  0  0  0  0  0  0  0  0
   23.5371   72.4950   -7.0461 H   0  0  0  0  0  0  0  0  0  0  0  0
   18.7781   76.6344   -4.0431 O   0  0  0  0  0  0  0  0  0  0  0  0
   18.6960   75.2897   -4.4781 C   0  0  0  0  0  0  0  0  0  0  0  0
   17.8847   76.9753   -3.8781 H   0  0  0  0  0  0  0  0  0  0  0  0
 25 28  1  0
 25 24  1  0
 25 26  1  6
 25 27  2  0
  1  4  1  0
  1 24  1  0
  1  2  1  1
  1  3  2  0
  6 11  1  0
  6 12  1  0
 29 36  1  0
 29 37  1  0
  9  7  1  6
  7 13  1  0
 10  8  1  6
  8 14  1  0
 37 28  1  1
  4  5  1  0
 33 30  1  6
 30 38  1  0
 34 31  1  1
 31 39  1  0
 35 32  1  1
 32 40  1  0
 41 42  1  0
 41 43  1  0
 15 19  2  0
 16 22  2  0
 12 17  1  6
 17 19  1  0
 17 20  1  0
 18 19  1  0
 18 22  1  0
 18 23  1  0
  9 10  1  0
  9 11  1  0
 10 12  1  0
 11  5  1  6
 33 34  1  0
 33 35  1  0
 34 36  1  0
 35 37  1  0
 36 42  1  6
 20 21  2  0
 21 22  1  0
M  CHG  2   2  -1  26  -1
M  END
>  <COMPND>  (64) 
    8629 

>  <AUTHOR>  (64) 
    GENERATED BY OPEN BABEL 3.1.1

>  <MASTER>  (64) 
        0    0    0    0    0    0    0    0   58    0   58    0

>  <minimizedAffinity>  (64) 
-7.69020

>  <CNNscore>  (64) 
0.8969736099

>  <CNNaffinity>  (64) 
4.5976891518

>  <CNN_VS>  (64) 
4.1240057945

>  <CNNaffinity_variance>  (64) 
0.6927975416

$$$$
65
     RDKit          3D

 43 45  0  0  0  0  0  0  0  0999 V2000
   22.8430   71.3923   -2.3534 P   0  0  2  0  0  0  0  0  0  0  0  0
   22.3652   72.8207   -2.9442 O   0  0  0  0  0  0  0  0  0  0  0  0
   24.1241   70.8647   -2.9295 O   0  0  0  0  0  0  0  0  0  0  0  0
   21.5461   70.4425   -2.5373 O   0  0  0  0  0  0  0  0  0  0  0  0
   20.8411   70.4912   -3.7655 C   0  0  0  0  0  0  0  0  0  0  0  0
   18.9456   71.6329   -4.7021 O   0  0  0  0  0  0  0  0  0  0  0  0
   17.3454   70.4029   -2.4846 O   0  0  0  0  0  0  0  0  0  0  0  0
   16.7449   68.8024   -4.6093 O   0  0  0  0  0  0  0  0  0  0  0  0
   18.4390   69.8553   -3.2191 C   0  0  1  0  0  0  0  0  0  0  0  0
   17.9933   69.4645   -4.6127 C   0  0  2  0  0  0  0  0  0  0  0  0
   19.4238   70.9823   -3.5044 C   0  0  1  0  0  0  0  0  0  0  0  0
   17.9393   70.8104   -5.3153 C   0  0  2  0  0  0  0  0  0  0  0  0
   16.7032   69.7016   -2.2903 H   0  0  0  0  0  0  0  0  0  0  0  0
   16.8311   67.9518   -4.1513 H   0  0  0  0  0  0  0  0  0  0  0  0
   15.9856   70.3046   -7.2914 O   0  0  0  0  0  0  0  0  0  0  0  0
   19.1122   70.4299  -10.6752 O   0  0  0  0  0  0  0  0  0  0  0  0
   18.2150   70.7062   -6.7205 N   0  0  0  0  0  0  0  0  0  0  0  0
   17.5440   70.3676   -8.9747 N   0  0  0  0  0  0  0  0  0  0  0  0
   17.1623   70.4489   -7.6294 C   0  0  0  0  0  0  0  0  0  0  0  0
   19.5170   70.8589   -7.1845 C   0  0  0  0  0  0  0  0  0  0  0  0
   19.8645   70.7772   -8.4705 C   0  0  0  0  0  0  0  0  0  0  0  0
   18.8245   70.5108   -9.4850 C   0  0  0  0  0  0  0  0  0  0  0  0
   16.8274   70.1886   -9.6261 H   0  0  0  0  0  0  0  0  0  0  0  0
   22.8795   71.6526   -0.7584 O   0  0  0  0  0  0  0  0  0  0  0  0
   21.6993   71.6427    0.3461 P   0  0  2  0  0  0  0  0  0  0  0  0
   21.5266   70.0713    0.6904 O   0  0  0  0  0  0  0  0  0  0  0  0
   20.4360   72.3220   -0.0972 O   0  0  0  0  0  0  0  0  0  0  0  0
   22.3720   72.2782    1.6684 O   0  0  0  0  0  0  0  0  0  0  0  0
   21.5173   74.3351    2.4778 O   0  0  0  0  0  0  0  0  0  0  0  0
   25.1811   74.3478    4.3824 O   0  0  0  0  0  0  0  0  0  0  0  0
   22.7932   73.8698    5.9048 O   0  0  0  0  0  0  0  0  0  0  0  0
   24.9653   73.3503    1.6735 O   0  0  0  0  0  0  0  0  0  0  0  0
   23.9963   73.7578    3.8406 C   0  0  1  0  0  0  0  0  0  0  0  0
   22.7885   74.3553    4.5652 C   0  0  1  0  0  0  0  0  0  0  0  0
   23.9284   74.0582    2.3444 C   0  0  2  0  0  0  0  0  0  0  0  0
   21.4777   73.9750    3.8636 C   0  0  1  0  0  0  0  0  0  0  0  0
   22.5662   73.6874    1.7552 C   0  0  1  0  0  0  0  0  0  0  0  0
   25.2305   74.1603    5.3321 H   0  0  0  0  0  0  0  0  0  0  0  0
   23.6264   74.1163    6.3364 H   0  0  0  0  0  0  0  0  0  0  0  0
   25.8224   73.5939    2.0555 H   0  0  0  0  0  0  0  0  0  0  0  0
   19.3342   73.7116    4.8859 O   0  0  0  0  0  0  0  0  0  0  0  0
   20.2738   74.6879    4.4755 C   0  0  0  0  0  0  0  0  0  0  0  0
   18.5626   74.1508    5.2776 H   0  0  0  0  0  0  0  0  0  0  0  0
 25 28  1  0
 25 24  1  0
 25 26  1  1
 25 27  2  0
  1  4  1  0
  1 24  1  0
  1  2  1  6
  1  3  2  0
  6 11  1  0
  6 12  1  0
 29 36  1  0
 29 37  1  0
  9  7  1  1
  7 13  1  0
 10  8  1  1
  8 14  1  0
 37 28  1  1
  4  5  1  0
 33 30  1  1
 30 38  1  0
 34 31  1  1
 31 39  1  0
 35 32  1  6
 32 40  1  0
 41 42  1  0
 41 43  1  0
 15 19  2  0
 16 22  2  0
 12 17  1  6
 17 19  1  0
 17 20  1  0
 18 19  1  0
 18 22  1  0
 18 23  1  0
  9 10  1  0
  9 11  1  0
 10 12  1  0
 11  5  1  6
 33 34  1  0
 33 35  1  0
 34 36  1  0
 35 37  1  0
 36 42  1  1
 20 21  2  0
 21 22  1  0
M  CHG  2   2  -1  26  -1
M  END
>  <COMPND>  (65) 
    8629 

>  <AUTHOR>  (65) 
    GENERATED BY OPEN BABEL 3.1.1

>  <MASTER>  (65) 
        0    0    0    0    0    0    0    0   58    0   58    0

>  <minimizedAffinity>  (65) 
-7.42956

>  <CNNscore>  (65) 
0.8940238953

>  <CNNaffinity>  (65) 
4.6550450325

>  <CNN_VS>  (65) 
4.1617217064

>  <CNNaffinity_variance>  (65) 
0.0607870817

$$$$
66
     RDKit          3D

 43 45  0  0  0  0  0  0  0  0999 V2000
   21.0388   72.6999   -4.4496 P   0  0  2  0  0  0  0  0  0  0  0  0
   20.0790   73.8831   -4.9939 O   0  0  0  0  0  0  0  0  0  0  0  0
   21.5974   71.7982   -5.5109 O   0  0  0  0  0  0  0  0  0  0  0  0
   20.1517   71.9748   -3.3071 O   0  0  0  0  0  0  0  0  0  0  0  0
   19.4701   70.7775   -3.6386 C   0  0  0  0  0  0  0  0  0  0  0  0
   17.6975   71.6234   -5.0229 O   0  0  0  0  0  0  0  0  0  0  0  0
   15.8211   70.2052   -3.1631 O   0  0  0  0  0  0  0  0  0  0  0  0
   15.9414   68.5080   -5.2942 O   0  0  0  0  0  0  0  0  0  0  0  0
   17.1169   69.8108   -3.6112 C   0  0  1  0  0  0  0  0  0  0  0  0
   17.0556   69.3422   -5.0500 C   0  0  2  0  0  0  0  0  0  0  0  0
   17.9769   71.0636   -3.7210 C   0  0  1  0  0  0  0  0  0  0  0  0
   16.9783   70.6574   -5.8067 C   0  0  2  0  0  0  0  0  0  0  0  0
   15.2538   69.4217   -3.0850 H   0  0  0  0  0  0  0  0  0  0  0  0
   16.0374   67.6845   -4.7909 H   0  0  0  0  0  0  0  0  0  0  0  0
   15.5329   70.7220   -8.2325 O   0  0  0  0  0  0  0  0  0  0  0  0
   19.3769   70.3349  -10.7455 O   0  0  0  0  0  0  0  0  0  0  0  0
   17.5761   70.5757   -7.1095 N   0  0  0  0  0  0  0  0  0  0  0  0
   17.4481   70.5294   -9.4818 N   0  0  0  0  0  0  0  0  0  0  0  0
   16.7607   70.6162   -8.2645 C   0  0  0  0  0  0  0  0  0  0  0  0
   18.9562   70.4571   -7.2325 C   0  0  0  0  0  0  0  0  0  0  0  0
   19.5962   70.3741   -8.4007 C   0  0  0  0  0  0  0  0  0  0  0  0
   18.8178   70.4092   -9.6557 C   0  0  0  0  0  0  0  0  0  0  0  0
   16.9006   70.5552  -10.3000 H   0  0  0  0  0  0  0  0  0  0  0  0
   22.1515   73.4998   -3.5924 O   0  0  0  0  0  0  0  0  0  0  0  0
   23.4532   72.9749   -2.7905 P   0  0  2  0  0  0  0  0  0  0  0  0
   24.4244   74.2687   -2.7722 O   0  0  0  0  0  0  0  0  0  0  0  0
   24.0778   71.7399   -3.3723 O   0  0  0  0  0  0  0  0  0  0  0  0
   22.9558   72.8170   -1.2632 O   0  0  0  0  0  0  0  0  0  0  0  0
   23.7981   70.9620   -0.0523 O   0  0  0  0  0  0  0  0  0  0  0  0
   20.6001   71.9352    2.3718 O   0  0  0  0  0  0  0  0  0  0  0  0
   23.2738   72.4941    3.2593 O   0  0  0  0  0  0  0  0  0  0  0  0
   20.3430   72.1293   -0.5049 O   0  0  0  0  0  0  0  0  0  0  0  0
   21.6933   72.1996    1.4883 C   0  0  1  0  0  0  0  0  0  0  0  0
   22.9733   71.6691    2.1370 C   0  0  1  0  0  0  0  0  0  0  0  0
   21.4371   71.5010    0.1543 C   0  0  2  0  0  0  0  0  0  0  0  0
   24.1417   71.6741    1.1421 C   0  0  1  0  0  0  0  0  0  0  0  0
   22.6775   71.5205   -0.7408 C   0  0  1  0  0  0  0  0  0  0  0  0
   20.7563   72.3764    3.2206 H   0  0  0  0  0  0  0  0  0  0  0  0
   22.5278   72.4825    3.8795 H   0  0  0  0  0  0  0  0  0  0  0  0
   19.5640   72.1102    0.0718 H   0  0  0  0  0  0  0  0  0  0  0  0
   24.9778   70.0424    2.6742 O   0  0  0  0  0  0  0  0  0  0  0  0
   25.3867   71.0036    1.7187 C   0  0  0  0  0  0  0  0  0  0  0  0
   25.7598   69.6073    3.0494 H   0  0  0  0  0  0  0  0  0  0  0  0
 25 28  1  0
 25 24  1  0
 25 26  1  1
 25 27  2  0
  1  4  1  0
  1 24  1  0
  1  2  1  6
  1  3  2  0
  6 11  1  0
  6 12  1  0
 29 36  1  0
 29 37  1  0
  9  7  1  6
  7 13  1  0
 10  8  1  1
  8 14  1  0
 37 28  1  1
  4  5  1  0
 33 30  1  1
 30 38  1  0
 34 31  1  1
 31 39  1  0
 35 32  1  6
 32 40  1  0
 41 42  1  0
 41 43  1  0
 15 19  2  0
 16 22  2  0
 12 17  1  6
 17 19  1  0
 17 20  1  0
 18 19  1  0
 18 22  1  0
 18 23  1  0
  9 10  1  0
  9 11  1  0
 10 12  1  0
 11  5  1  6
 33 34  1  0
 33 35  1  0
 34 36  1  0
 35 37  1  0
 36 42  1  1
 20 21  2  0
 21 22  1  0
M  CHG  2   2  -1  26  -1
M  END
>  <COMPND>  (66) 
    8629 

>  <AUTHOR>  (66) 
    GENERATED BY OPEN BABEL 3.1.1

>  <MASTER>  (66) 
        0    0    0    0    0    0    0    0   58    0   58    0

>  <minimizedAffinity>  (66) 
-7.99273

>  <CNNscore>  (66) 
0.8767504692

>  <CNNaffinity>  (66) 
4.6961731911

>  <CNN_VS>  (66) 
4.1173720360

>  <CNNaffinity_variance>  (66) 
0.0728406087

$$$$
67
     RDKit          3D

 43 45  0  0  0  0  0  0  0  0999 V2000
   20.5339   71.2520   -1.5180 P   0  0  2  0  0  0  0  0  0  0  0  0
   21.2352   70.5648   -0.2322 O   0  0  0  0  0  0  0  0  0  0  0  0
   19.9545   72.6139   -1.2714 O   0  0  0  0  0  0  0  0  0  0  0  0
   19.4921   70.1289   -2.0388 O   0  0  0  0  0  0  0  0  0  0  0  0
   19.1394   70.1184   -3.4111 C   0  0  0  0  0  0  0  0  0  0  0  0
   17.5292   71.2675   -4.7751 O   0  0  0  0  0  0  0  0  0  0  0  0
   15.4374   69.7421   -3.2623 O   0  0  0  0  0  0  0  0  0  0  0  0
   15.6150   68.3488   -5.5997 O   0  0  0  0  0  0  0  0  0  0  0  0
   16.7371   69.3234   -3.6756 C   0  0  1  0  0  0  0  0  0  0  0  0
   16.7557   69.0619   -5.1672 C   0  0  2  0  0  0  0  0  0  0  0  0
   17.6764   70.5164   -3.5501 C   0  0  1  0  0  0  0  0  0  0  0  0
   16.8140   70.4705   -5.7333 C   0  0  2  0  0  0  0  0  0  0  0  0
   14.8199   68.9967   -3.3334 H   0  0  0  0  0  0  0  0  0  0  0  0
   15.6236   67.4594   -5.2128 H   0  0  0  0  0  0  0  0  0  0  0  0
   15.5324   70.5679   -8.2485 O   0  0  0  0  0  0  0  0  0  0  0  0
   19.5535   70.6821  -10.4978 O   0  0  0  0  0  0  0  0  0  0  0  0
   17.5016   70.5266   -6.9925 N   0  0  0  0  0  0  0  0  0  0  0  0
   17.5356   70.6249   -9.3664 N   0  0  0  0  0  0  0  0  0  0  0  0
   16.7642   70.5717   -8.1985 C   0  0  0  0  0  0  0  0  0  0  0  0
   18.8919   70.5369   -7.0229 C   0  0  0  0  0  0  0  0  0  0  0  0
   19.6127   70.5866   -8.1451 C   0  0  0  0  0  0  0  0  0  0  0  0
   18.9191   70.6360   -9.4484 C   0  0  0  0  0  0  0  0  0  0  0  0
   17.0434   70.6565  -10.2187 H   0  0  0  0  0  0  0  0  0  0  0  0
   21.7018   71.2099   -2.6348 O   0  0  0  0  0  0  0  0  0  0  0  0
   23.0711   72.0581   -2.7713 P   0  0  2  0  0  0  0  0  0  0  0  0
   24.1797   70.9239   -3.0908 O   0  0  0  0  0  0  0  0  0  0  0  0
   23.3864   72.9137   -1.5787 O   0  0  0  0  0  0  0  0  0  0  0  0
   22.9108   72.8727   -4.1554 O   0  0  0  0  0  0  0  0  0  0  0  0
   22.9371   75.2147   -4.5169 O   0  0  0  0  0  0  0  0  0  0  0  0
   20.1844   74.1332   -7.3986 O   0  0  0  0  0  0  0  0  0  0  0  0
   22.8181   74.9588   -8.1924 O   0  0  0  0  0  0  0  0  0  0  0  0
   20.1882   72.7960   -4.8312 O   0  0  0  0  0  0  0  0  0  0  0  0
   21.3485   73.9729   -6.5833 C   0  0  1  0  0  0  0  0  0  0  0  0
   22.3022   75.1330   -6.8757 C   0  0  1  0  0  0  0  0  0  0  0  0
   20.9328   73.9760   -5.1134 C   0  0  2  0  0  0  0  0  0  0  0  0
   23.4472   75.1795   -5.8549 C   0  0  1  0  0  0  0  0  0  0  0  0
   22.1439   74.0737   -4.1841 C   0  0  1  0  0  0  0  0  0  0  0  0
   20.4414   74.1316   -8.3332 H   0  0  0  0  0  0  0  0  0  0  0  0
   22.0850   74.9306   -8.8271 H   0  0  0  0  0  0  0  0  0  0  0  0
   19.4241   72.7460   -5.4258 H   0  0  0  0  0  0  0  0  0  0  0  0
   25.2432   76.1736   -7.0777 O   0  0  0  0  0  0  0  0  0  0  0  0
   24.3211   76.4193   -6.0319 C   0  0  0  0  0  0  0  0  0  0  0  0
   25.8060   76.9544   -7.2018 H   0  0  0  0  0  0  0  0  0  0  0  0
 25 28  1  0
 25 24  1  0
 25 26  1  6
 25 27  2  0
  1  4  1  0
  1 24  1  0
  1  2  1  1
  1  3  2  0
  6 11  1  0
  6 12  1  0
 29 36  1  0
 29 37  1  0
  9  7  1  6
  7 13  1  0
 10  8  1  6
  8 14  1  0
 37 28  1  6
  4  5  1  0
 33 30  1  6
 30 38  1  0
 34 31  1  6
 31 39  1  0
 35 32  1  1
 32 40  1  0
 41 42  1  0
 41 43  1  0
 15 19  2  0
 16 22  2  0
 12 17  1  6
 17 19  1  0
 17 20  1  0
 18 19  1  0
 18 22  1  0
 18 23  1  0
  9 10  1  0
  9 11  1  0
 10 12  1  0
 11  5  1  6
 33 34  1  0
 33 35  1  0
 34 36  1  0
 35 37  1  0
 36 42  1  6
 20 21  2  0
 21 22  1  0
M  CHG  2   2  -1  26  -1
M  END
>  <COMPND>  (67) 
    8629 

>  <AUTHOR>  (67) 
    GENERATED BY OPEN BABEL 3.1.1

>  <MASTER>  (67) 
        0    0    0    0    0    0    0    0   58    0   58    0

>  <minimizedAffinity>  (67) 
-7.78259

>  <CNNscore>  (67) 
0.8576852679

>  <CNNaffinity>  (67) 
4.6545882225

>  <CNN_VS>  (67) 
3.9921717644

>  <CNNaffinity_variance>  (67) 
0.5321043134

$$$$
68
     RDKit          3D

 43 45  0  0  0  0  0  0  0  0999 V2000
   22.8549   72.0941   -3.8966 P   0  0  2  0  0  0  0  0  0  0  0  0
   23.4280   72.9894   -5.1162 O   0  0  0  0  0  0  0  0  0  0  0  0
   23.8672   71.2105   -3.2287 O   0  0  0  0  0  0  0  0  0  0  0  0
   21.5762   71.3378   -4.5375 O   0  0  0  0  0  0  0  0  0  0  0  0
   20.8972   70.3736   -3.7519 C   0  0  0  0  0  0  0  0  0  0  0  0
   19.0029   71.5433   -4.6560 O   0  0  0  0  0  0  0  0  0  0  0  0
   17.4077   70.2782   -2.4547 O   0  0  0  0  0  0  0  0  0  0  0  0
   16.7878   68.7230   -4.6074 O   0  0  0  0  0  0  0  0  0  0  0  0
   18.4946   69.7395   -3.2056 C   0  0  1  0  0  0  0  0  0  0  0  0
   18.0397   69.3785   -4.6043 C   0  0  2  0  0  0  0  0  0  0  0  0
   19.4838   70.8668   -3.4739 C   0  0  1  0  0  0  0  0  0  0  0  0
   17.9892   70.7383   -5.2799 C   0  0  2  0  0  0  0  0  0  0  0  0
   16.7628   69.5765   -2.2709 H   0  0  0  0  0  0  0  0  0  0  0  0
   16.8719   67.8631   -4.1666 H   0  0  0  0  0  0  0  0  0  0  0  0
   16.0282   70.2466   -7.2524 O   0  0  0  0  0  0  0  0  0  0  0  0
   19.1323   70.4591  -10.6525 O   0  0  0  0  0  0  0  0  0  0  0  0
   18.2571   70.6603   -6.6883 N   0  0  0  0  0  0  0  0  0  0  0  0
   17.5754   70.3530   -8.9438 N   0  0  0  0  0  0  0  0  0  0  0  0
   17.2014   70.4080   -7.5951 C   0  0  0  0  0  0  0  0  0  0  0  0
   19.5547   70.8335   -7.1576 C   0  0  0  0  0  0  0  0  0  0  0  0
   19.8950   70.7768   -8.4469 C   0  0  0  0  0  0  0  0  0  0  0  0
   18.8513   70.5173   -9.4594 C   0  0  0  0  0  0  0  0  0  0  0  0
   16.8566   70.1780   -9.5938 H   0  0  0  0  0  0  0  0  0  0  0  0
   22.1771   73.1942   -2.9253 O   0  0  0  0  0  0  0  0  0  0  0  0
   22.8386   74.2862   -1.9340 P   0  0  2  0  0  0  0  0  0  0  0  0
   21.9087   75.5928   -2.1477 O   0  0  0  0  0  0  0  0  0  0  0  0
   24.3025   74.5230   -2.1682 O   0  0  0  0  0  0  0  0  0  0  0  0
   22.4744   73.7648   -0.4505 O   0  0  0  0  0  0  0  0  0  0  0  0
   23.1601   71.5534    0.0552 O   0  0  0  0  0  0  0  0  0  0  0  0
   20.5002   72.1453    3.1577 O   0  0  0  0  0  0  0  0  0  0  0  0
   23.3209   72.1075    3.6961 O   0  0  0  0  0  0  0  0  0  0  0  0
   19.9061   73.1951    0.5263 O   0  0  0  0  0  0  0  0  0  0  0  0
   21.4974   72.5260    2.2059 C   0  0  1  0  0  0  0  0  0  0  0  0
   22.7497   71.6849    2.4610 C   0  0  1  0  0  0  0  0  0  0  0  0
   20.9622   72.2797    0.7966 C   0  0  2  0  0  0  0  0  0  0  0  0
   23.7649   71.8428    1.3210 C   0  0  1  0  0  0  0  0  0  0  0  0
   22.0630   72.4141   -0.2571 C   0  0  1  0  0  0  0  0  0  0  0  0
   20.8335   72.2997    4.0547 H   0  0  0  0  0  0  0  0  0  0  0  0
   22.6696   72.0031    4.4075 H   0  0  0  0  0  0  0  0  0  0  0  0
   19.2155   73.1000    1.2000 H   0  0  0  0  0  0  0  0  0  0  0  0
   24.7457   70.1026    2.6318 O   0  0  0  0  0  0  0  0  0  0  0  0
   24.9512   70.8938    1.4760 C   0  0  0  0  0  0  0  0  0  0  0  0
   25.4929   69.4934    2.7430 H   0  0  0  0  0  0  0  0  0  0  0  0
 25 28  1  0
 25 24  1  0
 25 26  1  6
 25 27  2  0
  1  4  1  0
  1 24  1  0
  1  2  1  6
  1  3  2  0
  6 11  1  0
  6 12  1  0
 29 36  1  0
 29 37  1  0
  9  7  1  1
  7 13  1  0
 10  8  1  1
  8 14  1  0
 37 28  1  1
  4  5  1  0
 33 30  1  1
 30 38  1  0
 34 31  1  1
 31 39  1  0
 35 32  1  6
 32 40  1  0
 41 42  1  0
 41 43  1  0
 15 19  2  0
 16 22  2  0
 12 17  1  6
 17 19  1  0
 17 20  1  0
 18 19  1  0
 18 22  1  0
 18 23  1  0
  9 10  1  0
  9 11  1  0
 10 12  1  0
 11  5  1  6
 33 34  1  0
 33 35  1  0
 34 36  1  0
 35 37  1  0
 36 42  1  1
 20 21  2  0
 21 22  1  0
M  CHG  2   2  -1  26  -1
M  END
>  <COMPND>  (68) 
    8629 

>  <AUTHOR>  (68) 
    GENERATED BY OPEN BABEL 3.1.1

>  <MASTER>  (68) 
        0    0    0    0    0    0    0    0   58    0   58    0

>  <minimizedAffinity>  (68) 
-7.95424

>  <CNNscore>  (68) 
0.8406591415

>  <CNNaffinity>  (68) 
4.6920785904

>  <CNN_VS>  (68) 
3.9444386959

>  <CNNaffinity_variance>  (68) 
0.0511905141

$$$$
69
     RDKit          3D

 43 45  0  0  0  0  0  0  0  0999 V2000
   20.4642   72.9798   -1.6081 P   0  0  2  0  0  0  0  0  0  0  0  0
   19.3088   72.8042   -0.4894 O   0  0  0  0  0  0  0  0  0  0  0  0
   20.5864   74.3609   -2.1816 O   0  0  0  0  0  0  0  0  0  0  0  0
   20.1559   71.8015   -2.6732 O   0  0  0  0  0  0  0  0  0  0  0  0
   19.6271   72.1558   -3.9392 C   0  0  0  0  0  0  0  0  0  0  0  0
   17.6196   72.1533   -5.2596 O   0  0  0  0  0  0  0  0  0  0  0  0
   16.3596   70.6350   -3.0017 O   0  0  0  0  0  0  0  0  0  0  0  0
   16.9035   68.6678   -4.8103 O   0  0  0  0  0  0  0  0  0  0  0  0
   17.6923   70.5616   -3.5054 C   0  0  1  0  0  0  0  0  0  0  0  0
   17.7146   69.8248   -4.8284 C   0  0  2  0  0  0  0  0  0  0  0  0
   18.1166   71.9661   -3.9164 C   0  0  1  0  0  0  0  0  0  0  0  0
   17.2002   70.8845   -5.7879 C   0  0  2  0  0  0  0  0  0  0  0  0
   16.0667   69.7498   -2.7324 H   0  0  0  0  0  0  0  0  0  0  0  0
   17.2721   68.0241   -4.1853 H   0  0  0  0  0  0  0  0  0  0  0  0
   15.6320   70.6647   -8.1268 O   0  0  0  0  0  0  0  0  0  0  0  0
   19.3597   70.2968  -10.8118 O   0  0  0  0  0  0  0  0  0  0  0  0
   17.7348   70.7308   -7.1115 N   0  0  0  0  0  0  0  0  0  0  0  0
   17.4894   70.4819   -9.4618 N   0  0  0  0  0  0  0  0  0  0  0  0
   16.8607   70.6284   -8.2187 C   0  0  0  0  0  0  0  0  0  0  0  0
   19.1116   70.6832   -7.3015 C   0  0  0  0  0  0  0  0  0  0  0  0
   19.6952   70.5417   -8.4934 C   0  0  0  0  0  0  0  0  0  0  0  0
   18.8533   70.4279   -9.7018 C   0  0  0  0  0  0  0  0  0  0  0  0
   16.9004   70.4083  -10.2476 H   0  0  0  0  0  0  0  0  0  0  0  0
   21.7885   72.4466   -0.8498 O   0  0  0  0  0  0  0  0  0  0  0  0
   21.9591   71.5230    0.4658 P   0  0  2  0  0  0  0  0  0  0  0  0
   23.5567   71.2804    0.5442 O   0  0  0  0  0  0  0  0  0  0  0  0
   21.1418   70.2638    0.4438 O   0  0  0  0  0  0  0  0  0  0  0  0
   21.6354   72.5090    1.7019 O   0  0  0  0  0  0  0  0  0  0  0  0
   22.3657   74.6575    2.3854 O   0  0  0  0  0  0  0  0  0  0  0  0
   22.5817   72.7015    6.0156 O   0  0  0  0  0  0  0  0  0  0  0  0
   20.4946   74.6213    5.5613 O   0  0  0  0  0  0  0  0  0  0  0  0
   23.3452   71.3252    3.5861 O   0  0  0  0  0  0  0  0  0  0  0  0
   22.0400   72.9983    4.7256 C   0  0  1  0  0  0  0  0  0  0  0  0
   21.6250   74.4708    4.7070 C   0  0  1  0  0  0  0  0  0  0  0  0
   23.1032   72.7259    3.6631 C   0  0  2  0  0  0  0  0  0  0  0  0
   21.2844   74.9324    3.2836 C   0  0  1  0  0  0  0  0  0  0  0  0
   22.6860   73.2679    2.2948 C   0  0  1  0  0  0  0  0  0  0  0  0
   21.9115   72.8719    6.6948 H   0  0  0  0  0  0  0  0  0  0  0  0
   20.7229   74.3259    6.4567 H   0  0  0  0  0  0  0  0  0  0  0  0
   23.6087   70.9943    4.4584 H   0  0  0  0  0  0  0  0  0  0  0  0
   21.9093   77.0064    2.2752 O   0  0  0  0  0  0  0  0  0  0  0  0
   21.0204   76.4351    3.2175 C   0  0  0  0  0  0  0  0  0  0  0  0
   21.7526   77.9626    2.2223 H   0  0  0  0  0  0  0  0  0  0  0  0
 25 28  1  0
 25 24  1  0
 25 26  1  1
 25 27  2  0
  1  4  1  0
  1 24  1  0
  1  2  1  1
  1  3  2  0
  6 11  1  0
  6 12  1  0
 29 36  1  0
 29 37  1  0
  9  7  1  6
  7 13  1  0
 10  8  1  1
  8 14  1  0
 37 28  1  1
  4  5  1  0
 33 30  1  1
 30 38  1  0
 34 31  1  1
 31 39  1  0
 35 32  1  6
 32 40  1  0
 41 42  1  0
 41 43  1  0
 15 19  2  0
 16 22  2  0
 12 17  1  6
 17 19  1  0
 17 20  1  0
 18 19  1  0
 18 22  1  0
 18 23  1  0
  9 10  1  0
  9 11  1  0
 10 12  1  0
 11  5  1  6
 33 34  1  0
 33 35  1  0
 34 36  1  0
 35 37  1  0
 36 42  1  1
 20 21  2  0
 21 22  1  0
M  CHG  2   2  -1  26  -1
M  END
>  <COMPND>  (69) 
    8629 

>  <AUTHOR>  (69) 
    GENERATED BY OPEN BABEL 3.1.1

>  <MASTER>  (69) 
        0    0    0    0    0    0    0    0   58    0   58    0

>  <minimizedAffinity>  (69) 
-6.74645

>  <CNNscore>  (69) 
0.7621251345

>  <CNNaffinity>  (69) 
4.2953577042

>  <CNN_VS>  (69) 
3.2736001015

>  <CNNaffinity_variance>  (69) 
0.0383770578

$$$$
70
     RDKit          3D

 43 45  0  0  0  0  0  0  0  0999 V2000
   22.6681   72.4904   -4.3556 P   0  0  2  0  0  0  0  0  0  0  0  0
   22.9965   72.5614   -5.9382 O   0  0  0  0  0  0  0  0  0  0  0  0
   23.3959   71.4142   -3.6050 O   0  0  0  0  0  0  0  0  0  0  0  0
   21.0528   72.4187   -4.2969 O   0  0  0  0  0  0  0  0  0  0  0  0
   20.4461   71.2392   -3.7984 C   0  0  0  0  0  0  0  0  0  0  0  0
   18.4504   71.9463   -4.9347 O   0  0  0  0  0  0  0  0  0  0  0  0
   16.9385   70.5762   -2.7375 O   0  0  0  0  0  0  0  0  0  0  0  0
   16.8028   68.7648   -4.7715 O   0  0  0  0  0  0  0  0  0  0  0  0
   18.1661   70.1992   -3.3590 C   0  0  1  0  0  0  0  0  0  0  0  0
   17.9059   69.6475   -4.7452 C   0  0  2  0  0  0  0  0  0  0  0  0
   18.9473   71.4711   -3.6644 C   0  0  1  0  0  0  0  0  0  0  0  0
   17.6606   70.9141   -5.5475 C   0  0  2  0  0  0  0  0  0  0  0  0
   16.4222   69.7802   -2.5327 H   0  0  0  0  0  0  0  0  0  0  0  0
   17.0079   67.9750   -4.2472 H   0  0  0  0  0  0  0  0  0  0  0  0
   15.9045   70.2394   -7.6544 O   0  0  0  0  0  0  0  0  0  0  0  0
   19.2895   70.4172  -10.7771 O   0  0  0  0  0  0  0  0  0  0  0  0
   18.0561   70.7776   -6.9209 N   0  0  0  0  0  0  0  0  0  0  0  0
   17.5914   70.3286   -9.2076 N   0  0  0  0  0  0  0  0  0  0  0  0
   17.0963   70.4345   -7.9015 C   0  0  0  0  0  0  0  0  0  0  0  0
   19.3827   70.9837   -7.2838 C   0  0  0  0  0  0  0  0  0  0  0  0
   19.8389   70.8775   -8.5335 C   0  0  0  0  0  0  0  0  0  0  0  0
   18.9008   70.5225   -9.6179 C   0  0  0  0  0  0  0  0  0  0  0  0
   16.9409   70.0902   -9.9075 H   0  0  0  0  0  0  0  0  0  0  0  0
   22.9836   73.9934   -3.8512 O   0  0  0  0  0  0  0  0  0  0  0  0
   24.2451   74.5986   -3.0416 P   0  0  2  0  0  0  0  0  0  0  0  0
   23.7215   76.0565   -2.5748 O   0  0  0  0  0  0  0  0  0  0  0  0
   25.5253   74.6222   -3.8254 O   0  0  0  0  0  0  0  0  0  0  0  0
   24.3100   73.7337   -1.6804 O   0  0  0  0  0  0  0  0  0  0  0  0
   22.3317   73.0474   -0.5705 O   0  0  0  0  0  0  0  0  0  0  0  0
   24.9607   72.8915    2.6099 O   0  0  0  0  0  0  0  0  0  0  0  0
   23.9972   70.4493    1.4456 O   0  0  0  0  0  0  0  0  0  0  0  0
   25.1800   75.0179    0.6581 O   0  0  0  0  0  0  0  0  0  0  0  0
   24.5607   72.7649    1.2427 C   0  0  1  0  0  0  0  0  0  0  0  0
   23.4372   71.7292    1.1655 C   0  0  1  0  0  0  0  0  0  0  0  0
   24.0763   74.1223    0.7366 C   0  0  2  0  0  0  0  0  0  0  0  0
   22.7757   71.7316   -0.2192 C   0  0  1  0  0  0  0  0  0  0  0  0
   23.3906   74.0053   -0.6258 C   0  0  1  0  0  0  0  0  0  0  0  0
   25.2698   72.0331    2.9372 H   0  0  0  0  0  0  0  0  0  0  0  0
   24.4122   70.4614    2.3225 H   0  0  0  0  0  0  0  0  0  0  0  0
   25.6054   75.0836    1.5268 H   0  0  0  0  0  0  0  0  0  0  0  0
   21.3556   70.2590    1.0152 O   0  0  0  0  0  0  0  0  0  0  0  0
   21.5519   70.8195   -0.2700 C   0  0  0  0  0  0  0  0  0  0  0  0
   20.5798   69.6763    0.9980 H   0  0  0  0  0  0  0  0  0  0  0  0
 25 28  1  0
 25 24  1  0
 25 26  1  1
 25 27  2  0
  1  4  1  0
  1 24  1  0
  1  2  1  6
  1  3  2  0
  6 11  1  0
  6 12  1  0
 29 36  1  0
 29 37  1  0
  9  7  1  6
  7 13  1  0
 10  8  1  1
  8 14  1  0
 37 28  1  6
  4  5  1  0
 33 30  1  1
 30 38  1  0
 34 31  1  6
 31 39  1  0
 35 32  1  6
 32 40  1  0
 41 42  1  0
 41 43  1  0
 15 19  2  0
 16 22  2  0
 12 17  1  6
 17 19  1  0
 17 20  1  0
 18 19  1  0
 18 22  1  0
 18 23  1  0
  9 10  1  0
  9 11  1  0
 10 12  1  0
 11  5  1  6
 33 34  1  0
 33 35  1  0
 34 36  1  0
 35 37  1  0
 36 42  1  1
 20 21  2  0
 21 22  1  0
M  CHG  2   2  -1  26  -1
M  END
>  <COMPND>  (70) 
    8629 

>  <AUTHOR>  (70) 
    GENERATED BY OPEN BABEL 3.1.1

>  <MASTER>  (70) 
        0    0    0    0    0    0    0    0   58    0   58    0

>  <minimizedAffinity>  (70) 
-7.83991

>  <CNNscore>  (70) 
0.7613747716

>  <CNNaffinity>  (70) 
4.5618610382

>  <CNN_VS>  (70) 
3.4732859135

>  <CNNaffinity_variance>  (70) 
0.0533917136

$$$$
71
     RDKit          3D

 43 45  0  0  0  0  0  0  0  0999 V2000
   16.3000   70.4861   -2.7840 P   0  0  2  0  0  0  0  0  0  0  0  0
   15.9351   69.1503   -3.6207 O   0  0  0  0  0  0  0  0  0  0  0  0
   16.0650   71.7755   -3.5145 O   0  0  0  0  0  0  0  0  0  0  0  0
   17.8169   70.2285   -2.2834 O   0  0  0  0  0  0  0  0  0  0  0  0
   18.7121   69.5599   -3.1549 C   0  0  0  0  0  0  0  0  0  0  0  0
   20.5023   70.1999   -4.6244 O   0  0  0  0  0  0  0  0  0  0  0  0
   20.9784   72.4862   -2.7437 O   0  0  0  0  0  0  0  0  0  0  0  0
   19.6082   73.6696   -4.7830 O   0  0  0  0  0  0  0  0  0  0  0  0
   19.7467   71.8842   -3.1384 C   0  0  1  0  0  0  0  0  0  0  0  0
   19.3915   72.2923   -4.5530 C   0  0  2  0  0  0  0  0  0  0  0  0
   19.9835   70.3867   -3.2894 C   0  0  1  0  0  0  0  0  0  0  0  0
   20.3141   71.4098   -5.3765 C   0  0  2  0  0  0  0  0  0  0  0  0
   20.8521   73.4430   -2.6407 H   0  0  0  0  0  0  0  0  0  0  0  0
   18.9977   74.1887   -4.2366 H   0  0  0  0  0  0  0  0  0  0  0  0
   21.4221   72.2038   -7.8504 O   0  0  0  0  0  0  0  0  0  0  0  0
   18.0895   70.0890  -10.2300 O   0  0  0  0  0  0  0  0  0  0  0  0
   19.7568   71.0803   -6.6580 N   0  0  0  0  0  0  0  0  0  0  0  0
   19.7619   71.1500   -9.0332 N   0  0  0  0  0  0  0  0  0  0  0  0
   20.3904   71.5291   -7.8402 C   0  0  0  0  0  0  0  0  0  0  0  0
   18.5949   70.3199   -6.7336 C   0  0  0  0  0  0  0  0  0  0  0  0
   18.0075   69.9679   -7.8792 C   0  0  0  0  0  0  0  0  0  0  0  0
   18.6058   70.3964   -9.1600 C   0  0  0  0  0  0  0  0  0  0  0  0
   20.1853   71.4517   -9.8696 H   0  0  0  0  0  0  0  0  0  0  0  0
   15.4360   70.3135   -1.4288 O   0  0  0  0  0  0  0  0  0  0  0  0
   14.2653   71.2286   -0.7924 P   0  0  2  0  0  0  0  0  0  0  0  0
   13.3281   71.5707   -2.0661 O   0  0  0  0  0  0  0  0  0  0  0  0
   14.7624   72.4338   -0.0479 O   0  0  0  0  0  0  0  0  0  0  0  0
   13.3871   70.2079    0.0974 O   0  0  0  0  0  0  0  0  0  0  0  0
   13.8419   67.9304    0.5694 O   0  0  0  0  0  0  0  0  0  0  0  0
    9.7160   67.7788    0.5008 O   0  0  0  0  0  0  0  0  0  0  0  0
   11.1011   67.5695    3.0079 O   0  0  0  0  0  0  0  0  0  0  0  0
   11.1310   69.4521   -1.3906 O   0  0  0  0  0  0  0  0  0  0  0  0
   10.9941   68.3677    0.7558 C   0  0  1  0  0  0  0  0  0  0  0  0
   11.7469   67.4719    1.7415 C   0  0  1  0  0  0  0  0  0  0  0  0
   11.7618   68.4834   -0.5598 C   0  0  2  0  0  0  0  0  0  0  0  0
   13.2185   67.8910    1.8584 C   0  0  1  0  0  0  0  0  0  0  0  0
   13.2269   68.8571   -0.3278 C   0  0  1  0  0  0  0  0  0  0  0  0
    9.2233   67.7030    1.3321 H   0  0  0  0  0  0  0  0  0  0  0  0
   10.1725   67.3026    2.9202 H   0  0  0  0  0  0  0  0  0  0  0  0
   10.2043   69.2040   -1.5301 H   0  0  0  0  0  0  0  0  0  0  0  0
   13.2945   65.7085    2.8280 O   0  0  0  0  0  0  0  0  0  0  0  0
   14.0246   66.9162    2.7140 C   0  0  0  0  0  0  0  0  0  0  0  0
   13.7956   65.0784    3.3698 H   0  0  0  0  0  0  0  0  0  0  0  0
 25 28  1  0
 25 24  1  0
 25 26  1  6
 25 27  2  0
  1  4  1  0
  1 24  1  0
  1  2  1  6
  1  3  2  0
  6 11  1  0
  6 12  1  0
 29 36  1  0
 29 37  1  0
  9  7  1  6
  7 13  1  0
 10  8  1  1
  8 14  1  0
 37 28  1  1
  4  5  1  0
 33 30  1  6
 30 38  1  0
 34 31  1  1
 31 39  1  0
 35 32  1  6
 32 40  1  0
 41 42  1  0
 41 43  1  0
 15 19  2  0
 16 22  2  0
 12 17  1  6
 17 19  1  0
 17 20  1  0
 18 19  1  0
 18 22  1  0
 18 23  1  0
  9 10  1  0
  9 11  1  0
 10 12  1  0
 11  5  1  6
 33 34  1  0
 33 35  1  0
 34 36  1  0
 35 37  1  0
 36 42  1  1
 20 21  2  0
 21 22  1  0
M  CHG  2   2  -1  26  -1
M  END
>  <COMPND>  (71) 
    8629 

>  <AUTHOR>  (71) 
    GENERATED BY OPEN BABEL 3.1.1

>  <MASTER>  (71) 
        0    0    0    0    0    0    0    0   58    0   58    0

>  <minimizedAffinity>  (71) 
-6.59720

>  <CNNscore>  (71) 
0.7361551523

>  <CNNaffinity>  (71) 
4.3731517792

>  <CNN_VS>  (71) 
3.2193181515

>  <CNNaffinity_variance>  (71) 
0.0381764546

$$$$
72
     RDKit          3D

 43 45  0  0  0  0  0  0  0  0999 V2000
   21.8547   72.5373   -5.6415 P   0  0  2  0  0  0  0  0  0  0  0  0
   21.2117   74.0098   -5.4527 O   0  0  0  0  0  0  0  0  0  0  0  0
   23.1297   72.4990   -6.4317 O   0  0  0  0  0  0  0  0  0  0  0  0
   20.6350   71.6537   -6.2328 O   0  0  0  0  0  0  0  0  0  0  0  0
   20.0657   72.0320   -7.4739 C   0  0  0  0  0  0  0  0  0  0  0  0
   18.8660   69.9874   -7.0819 O   0  0  0  0  0  0  0  0  0  0  0  0
   18.1428   70.0730   -9.9906 O   0  0  0  0  0  0  0  0  0  0  0  0
   15.8768   70.9969   -8.7872 O   0  0  0  0  0  0  0  0  0  0  0  0
   18.2874   71.1488   -9.0648 C   0  0  1  0  0  0  0  0  0  0  0  0
   17.1062   71.1901   -8.1179 C   0  0  2  0  0  0  0  0  0  0  0  0
   19.4369   70.8076   -8.1247 C   0  0  1  0  0  0  0  0  0  0  0  0
   17.4328   70.0593   -7.1573 C   0  0  2  0  0  0  0  0  0  0  0  0
   17.4146   70.2683  -10.6017 H   0  0  0  0  0  0  0  0  0  0  0  0
   15.7140   71.7422   -9.3862 H   0  0  0  0  0  0  0  0  0  0  0  0
   16.3638   68.0452   -5.4903 O   0  0  0  0  0  0  0  0  0  0  0  0
   15.4451   71.0602   -2.1277 O   0  0  0  0  0  0  0  0  0  0  0  0
   16.9076   70.2899   -5.8411 N   0  0  0  0  0  0  0  0  0  0  0  0
   15.9074   69.5481   -3.8173 N   0  0  0  0  0  0  0  0  0  0  0  0
   16.3932   69.2097   -5.0867 C   0  0  0  0  0  0  0  0  0  0  0  0
   16.9063   71.5755   -5.3109 C   0  0  0  0  0  0  0  0  0  0  0  0
   16.4382   71.8817   -4.0991 C   0  0  0  0  0  0  0  0  0  0  0  0
   15.8832   70.8107   -3.2465 C   0  0  0  0  0  0  0  0  0  0  0  0
   15.5438   68.8117   -3.2738 H   0  0  0  0  0  0  0  0  0  0  0  0
   21.9884   72.0015   -4.1223 O   0  0  0  0  0  0  0  0  0  0  0  0
   23.2187   72.0719   -3.0762 P   0  0  2  0  0  0  0  0  0  0  0  0
   23.8813   73.5165   -3.3794 O   0  0  0  0  0  0  0  0  0  0  0  0
   24.1756   70.9192   -3.1731 O   0  0  0  0  0  0  0  0  0  0  0  0
   22.5179   72.2399   -1.6321 O   0  0  0  0  0  0  0  0  0  0  0  0
   23.4286   70.6516   -0.1273 O   0  0  0  0  0  0  0  0  0  0  0  0
   20.4475   72.2010    2.2733 O   0  0  0  0  0  0  0  0  0  0  0  0
   23.1907   72.8513    2.8212 O   0  0  0  0  0  0  0  0  0  0  0  0
   19.9646   71.8027   -0.5529 O   0  0  0  0  0  0  0  0  0  0  0  0
   21.4703   72.2439    1.2745 C   0  0  1  0  0  0  0  0  0  0  0  0
   22.7906   71.8212    1.9217 C   0  0  1  0  0  0  0  0  0  0  0  0
   21.0991   71.2921    0.1389 C   0  0  2  0  0  0  0  0  0  0  0  0
   23.8759   71.5850    0.8628 C   0  0  1  0  0  0  0  0  0  0  0  0
   22.2644   71.0886   -0.8311 C   0  0  1  0  0  0  0  0  0  0  0  0
   20.6768   72.8036    2.9971 H   0  0  0  0  0  0  0  0  0  0  0  0
   22.4964   72.9908    3.4843 H   0  0  0  0  0  0  0  0  0  0  0  0
   19.2339   71.9267    0.0719 H   0  0  0  0  0  0  0  0  0  0  0  0
   24.8043   70.2422    2.6075 O   0  0  0  0  0  0  0  0  0  0  0  0
   25.1537   71.0115    1.4716 C   0  0  0  0  0  0  0  0  0  0  0  0
   25.6077   69.8706    3.0052 H   0  0  0  0  0  0  0  0  0  0  0  0
 25 28  1  0
 25 24  1  0
 25 26  1  6
 25 27  2  0
  1  4  1  0
  1 24  1  0
  1  2  1  1
  1  3  2  0
  6 11  1  0
  6 12  1  0
 29 36  1  0
 29 37  1  0
  9  7  1  6
  7 13  1  0
 10  8  1  6
  8 14  1  0
 37 28  1  1
  4  5  1  0
 33 30  1  1
 30 38  1  0
 34 31  1  1
 31 39  1  0
 35 32  1  6
 32 40  1  0
 41 42  1  0
 41 43  1  0
 15 19  2  0
 16 22  2  0
 12 17  1  1
 17 19  1  0
 17 20  1  0
 18 19  1  0
 18 22  1  0
 18 23  1  0
  9 10  1  0
  9 11  1  0
 10 12  1  0
 11  5  1  1
 33 34  1  0
 33 35  1  0
 34 36  1  0
 35 37  1  0
 36 42  1  1
 20 21  2  0
 21 22  1  0
M  CHG  2   2  -1  26  -1
M  END
>  <COMPND>  (72) 
    8629 

>  <AUTHOR>  (72) 
    GENERATED BY OPEN BABEL 3.1.1

>  <MASTER>  (72) 
        0    0    0    0    0    0    0    0   58    0   58    0

>  <minimizedAffinity>  (72) 
-8.37559

>  <CNNscore>  (72) 
0.6971789002

>  <CNNaffinity>  (72) 
4.4598822594

>  <CNN_VS>  (72) 
3.1093358994

>  <CNNaffinity_variance>  (72) 
0.2776686549

$$$$
73
     RDKit          3D

 43 45  0  0  0  0  0  0  0  0999 V2000
   21.5914   72.5924   -5.5345 P   0  0  2  0  0  0  0  0  0  0  0  0
   20.9877   74.0787   -5.7435 O   0  0  0  0  0  0  0  0  0  0  0  0
   23.0208   72.4235   -5.9583 O   0  0  0  0  0  0  0  0  0  0  0  0
   20.5209   71.6308   -6.2743 O   0  0  0  0  0  0  0  0  0  0  0  0
   20.1203   71.9547   -7.5943 C   0  0  0  0  0  0  0  0  0  0  0  0
   18.9127   69.9222   -7.1646 O   0  0  0  0  0  0  0  0  0  0  0  0
   18.1016   70.0146  -10.0498 O   0  0  0  0  0  0  0  0  0  0  0  0
   15.8829   70.9615   -8.7780 O   0  0  0  0  0  0  0  0  0  0  0  0
   18.2853   71.0891   -9.1294 C   0  0  1  0  0  0  0  0  0  0  0  0
   17.1342   71.1424   -8.1468 C   0  0  2  0  0  0  0  0  0  0  0  0
   19.4596   70.7365   -8.2249 C   0  0  1  0  0  0  0  0  0  0  0  0
   17.4787   70.0085   -7.1961 C   0  0  2  0  0  0  0  0  0  0  0  0
   17.3569   70.2171  -10.6384 H   0  0  0  0  0  0  0  0  0  0  0  0
   15.7094   71.7083   -9.3721 H   0  0  0  0  0  0  0  0  0  0  0  0
   16.2050   68.0637   -5.5919 O   0  0  0  0  0  0  0  0  0  0  0  0
   15.6687   71.0276   -2.1035 O   0  0  0  0  0  0  0  0  0  0  0  0
   16.9965   70.2447   -5.8645 N   0  0  0  0  0  0  0  0  0  0  0  0
   15.9392   69.5410   -3.8562 N   0  0  0  0  0  0  0  0  0  0  0  0
   16.3705   69.2005   -5.1446 C   0  0  0  0  0  0  0  0  0  0  0  0
   17.1465   71.5001   -5.2856 C   0  0  0  0  0  0  0  0  0  0  0  0
   16.7285   71.8091   -4.0563 C   0  0  0  0  0  0  0  0  0  0  0  0
   16.0642   70.7747   -3.2372 C   0  0  0  0  0  0  0  0  0  0  0  0
   15.4998   68.8296   -3.3360 H   0  0  0  0  0  0  0  0  0  0  0  0
   21.3158   72.3051   -3.9678 O   0  0  0  0  0  0  0  0  0  0  0  0
   21.6732   71.0278   -3.0439 P   0  0  2  0  0  0  0  0  0  0  0  0
   23.2906   71.0378   -3.0065 O   0  0  0  0  0  0  0  0  0  0  0  0
   21.0728   69.7368   -3.5198 O   0  0  0  0  0  0  0  0  0  0  0  0
   21.2284   71.4635   -1.5548 O   0  0  0  0  0  0  0  0  0  0  0  0
   22.4694   73.2939   -0.7026 O   0  0  0  0  0  0  0  0  0  0  0  0
   20.5973   72.0895    2.7753 O   0  0  0  0  0  0  0  0  0  0  0  0
   19.7595   74.5118    1.4797 O   0  0  0  0  0  0  0  0  0  0  0  0
   21.5417   70.1116    0.8843 O   0  0  0  0  0  0  0  0  0  0  0  0
   20.7092   72.3194    1.3682 C   0  0  1  0  0  0  0  0  0  0  0  0
   20.9550   73.8128    1.1443 C   0  0  1  0  0  0  0  0  0  0  0  0
   21.8717   71.4948    0.8186 C   0  0  2  0  0  0  0  0  0  0  0  0
   21.3499   74.0972   -0.3111 C   0  0  1  0  0  0  0  0  0  0  0  0
   22.2148   71.8903   -0.6188 C   0  0  1  0  0  0  0  0  0  0  0  0
   19.8607   72.6098    3.1305 H   0  0  0  0  0  0  0  0  0  0  0  0
   19.5210   74.3233    2.4010 H   0  0  0  0  0  0  0  0  0  0  0  0
   21.3268   69.8738    1.7993 H   0  0  0  0  0  0  0  0  0  0  0  0
   20.5762   76.3305   -0.6612 O   0  0  0  0  0  0  0  0  0  0  0  0
   21.7524   75.5554   -0.5200 C   0  0  0  0  0  0  0  0  0  0  0  0
   20.8169   77.2611   -0.7945 H   0  0  0  0  0  0  0  0  0  0  0  0
 25 28  1  0
 25 24  1  0
 25 26  1  1
 25 27  2  0
  1  4  1  0
  1 24  1  0
  1  2  1  1
  1  3  2  0
  6 11  1  0
  6 12  1  0
 29 36  1  0
 29 37  1  0
  9  7  1  6
  7 13  1  0
 10  8  1  6
  8 14  1  0
 37 28  1  6
  4  5  1  0
 33 30  1  1
 30 38  1  0
 34 31  1  6
 31 39  1  0
 35 32  1  6
 32 40  1  0
 41 42  1  0
 41 43  1  0
 15 19  2  0
 16 22  2  0
 12 17  1  1
 17 19  1  0
 17 20  1  0
 18 19  1  0
 18 22  1  0
 18 23  1  0
  9 10  1  0
  9 11  1  0
 10 12  1  0
 11  5  1  1
 33 34  1  0
 33 35  1  0
 34 36  1  0
 35 37  1  0
 36 42  1  1
 20 21  2  0
 21 22  1  0
M  CHG  2   2  -1  26  -1
M  END
>  <COMPND>  (73) 
    8629 

>  <AUTHOR>  (73) 
    GENERATED BY OPEN BABEL 3.1.1

>  <MASTER>  (73) 
        0    0    0    0    0    0    0    0   58    0   58    0

>  <minimizedAffinity>  (73) 
-7.67332

>  <CNNscore>  (73) 
0.6926499605

>  <CNNaffinity>  (73) 
4.5540695190

>  <CNN_VS>  (73) 
3.1543760300

>  <CNNaffinity_variance>  (73) 
0.1111631617

$$$$
74
     RDKit          3D

 43 45  0  0  0  0  0  0  0  0999 V2000
   23.4526   71.9353   -3.2638 P   0  0  2  0  0  0  0  0  0  0  0  0
   24.1679   72.9621   -4.2892 O   0  0  0  0  0  0  0  0  0  0  0  0
   24.2171   70.6724   -2.9952 O   0  0  0  0  0  0  0  0  0  0  0  0
   21.9693   71.7411   -3.8803 O   0  0  0  0  0  0  0  0  0  0  0  0
   21.5575   72.5954   -4.9331 C   0  0  0  0  0  0  0  0  0  0  0  0
   20.6929   70.5846   -5.9246 O   0  0  0  0  0  0  0  0  0  0  0  0
   21.0801   71.9448   -8.5687 O   0  0  0  0  0  0  0  0  0  0  0  0
   18.4032   72.2356   -8.1369 O   0  0  0  0  0  0  0  0  0  0  0  0
   20.6771   72.5012   -7.3183 C   0  0  1  0  0  0  0  0  0  0  0  0
   19.2455   72.1165   -7.0085 C   0  0  2  0  0  0  0  0  0  0  0  0
   21.4451   71.7828   -6.2158 C   0  0  1  0  0  0  0  0  0  0  0  0
   19.3993   70.6785   -6.5430 C   0  0  2  0  0  0  0  0  0  0  0  0
   20.6030   72.3880   -9.2883 H   0  0  0  0  0  0  0  0  0  0  0  0
   18.3374   73.1684   -8.3943 H   0  0  0  0  0  0  0  0  0  0  0  0
   16.8022   69.7956   -7.2168 O   0  0  0  0  0  0  0  0  0  0  0  0
   15.6363   69.2633   -2.7898 O   0  0  0  0  0  0  0  0  0  0  0  0
   18.3968   70.3023   -5.5865 N   0  0  0  0  0  0  0  0  0  0  0  0
   16.2239   69.5311   -5.0119 N   0  0  0  0  0  0  0  0  0  0  0  0
   17.1237   69.8738   -6.0292 C   0  0  0  0  0  0  0  0  0  0  0  0
   18.6805   70.3599   -4.2263 C   0  0  0  0  0  0  0  0  0  0  0  0
   17.8110   70.0309   -3.2688 C   0  0  0  0  0  0  0  0  0  0  0  0
   16.4584   69.5729   -3.6466 C   0  0  0  0  0  0  0  0  0  0  0  0
   15.3305   69.2301   -5.2966 H   0  0  0  0  0  0  0  0  0  0  0  0
   23.1866   72.8512   -1.9587 O   0  0  0  0  0  0  0  0  0  0  0  0
   21.8599   73.0564   -1.0584 P   0  0  2  0  0  0  0  0  0  0  0  0
   21.2426   71.5641   -0.9617 O   0  0  0  0  0  0  0  0  0  0  0  0
   20.9075   74.0871   -1.5919 O   0  0  0  0  0  0  0  0  0  0  0  0
   22.4164   73.3642    0.4250 O   0  0  0  0  0  0  0  0  0  0  0  0
   24.5876   73.0156    1.3087 O   0  0  0  0  0  0  0  0  0  0  0  0
   22.3608   72.2021    4.6896 O   0  0  0  0  0  0  0  0  0  0  0  0
   23.8688   74.6415    4.5381 O   0  0  0  0  0  0  0  0  0  0  0  0
   21.4099   71.3447    2.0934 O   0  0  0  0  0  0  0  0  0  0  0  0
   22.6723   72.8706    3.4643 C   0  0  1  0  0  0  0  0  0  0  0  0
   24.0290   73.5593    3.6252 C   0  0  1  0  0  0  0  0  0  0  0  0
   22.7211   71.8442    2.3340 C   0  0  2  0  0  0  0  0  0  0  0  0
   24.5540   74.0708    2.2769 C   0  0  1  0  0  0  0  0  0  0  0  0
   23.3040   72.4424    1.0525 C   0  0  1  0  0  0  0  0  0  0  0  0
   22.3278   72.8483    5.4112 H   0  0  0  0  0  0  0  0  0  0  0  0
   23.5364   74.3051    5.3851 H   0  0  0  0  0  0  0  0  0  0  0  0
   21.0521   70.9684    2.9121 H   0  0  0  0  0  0  0  0  0  0  0  0
   26.5888   74.0512    3.5291 O   0  0  0  0  0  0  0  0  0  0  0  0
   25.9745   74.6201    2.3875 C   0  0  0  0  0  0  0  0  0  0  0  0
   27.4938   74.3916    3.6120 H   0  0  0  0  0  0  0  0  0  0  0  0
 25 28  1  0
 25 24  1  0
 25 26  1  1
 25 27  2  0
  1  4  1  0
  1 24  1  0
  1  2  1  6
  1  3  2  0
  6 11  1  0
  6 12  1  0
 29 36  1  0
 29 37  1  0
  9  7  1  6
  7 13  1  0
 10  8  1  6
  8 14  1  0
 37 28  1  1
  4  5  1  0
 33 30  1  1
 30 38  1  0
 34 31  1  1
 31 39  1  0
 35 32  1  6
 32 40  1  0
 41 42  1  0
 41 43  1  0
 15 19  2  0
 16 22  2  0
 12 17  1  1
 17 19  1  0
 17 20  1  0
 18 19  1  0
 18 22  1  0
 18 23  1  0
  9 10  1  0
  9 11  1  0
 10 12  1  0
 11  5  1  1
 33 34  1  0
 33 35  1  0
 34 36  1  0
 35 37  1  0
 36 42  1  1
 20 21  2  0
 21 22  1  0
M  CHG  2   2  -1  26  -1
M  END
>  <COMPND>  (74) 
    8629 

>  <AUTHOR>  (74) 
    GENERATED BY OPEN BABEL 3.1.1

>  <MASTER>  (74) 
        0    0    0    0    0    0    0    0   58    0   58    0

>  <minimizedAffinity>  (74) 
-7.57517

>  <CNNscore>  (74) 
0.6390079856

>  <CNNaffinity>  (74) 
4.3459348679

>  <CNN_VS>  (74) 
2.7770869732

>  <CNNaffinity_variance>  (74) 
0.1068140119

$$$$
75
     RDKit          3D

 43 45  0  0  0  0  0  0  0  0999 V2000
   23.4566   73.5443   -4.1497 P   0  0  2  0  0  0  0  0  0  0  0  0
   22.6735   74.9490   -4.3257 O   0  0  0  0  0  0  0  0  0  0  0  0
   24.9493   73.6591   -4.0498 O   0  0  0  0  0  0  0  0  0  0  0  0
   22.9018   72.6351   -5.3677 O   0  0  0  0  0  0  0  0  0  0  0  0
   21.5099   72.3804   -5.4417 C   0  0  0  0  0  0  0  0  0  0  0  0
   20.4837   70.3714   -6.2692 O   0  0  0  0  0  0  0  0  0  0  0  0
   20.5836   71.6581   -8.9757 O   0  0  0  0  0  0  0  0  0  0  0  0
   17.9859   72.0323   -8.2351 O   0  0  0  0  0  0  0  0  0  0  0  0
   20.3474   72.2545   -7.7014 C   0  0  1  0  0  0  0  0  0  0  0  0
   18.9544   71.9166   -7.2127 C   0  0  2  0  0  0  0  0  0  0  0  0
   21.2245   71.5414   -6.6798 C   0  0  1  0  0  0  0  0  0  0  0  0
   19.1278   70.4862   -6.7309 C   0  0  2  0  0  0  0  0  0  0  0  0
   20.0345   72.0973   -9.6447 H   0  0  0  0  0  0  0  0  0  0  0  0
   17.9123   72.9603   -8.5075 H   0  0  0  0  0  0  0  0  0  0  0  0
   16.4256   69.7336   -7.0619 O   0  0  0  0  0  0  0  0  0  0  0  0
   15.8107   69.2592   -2.5190 O   0  0  0  0  0  0  0  0  0  0  0  0
   18.2386   70.1602   -5.6518 N   0  0  0  0  0  0  0  0  0  0  0  0
   16.1217   69.4978   -4.7996 N   0  0  0  0  0  0  0  0  0  0  0  0
   16.8997   69.7956   -5.9257 C   0  0  0  0  0  0  0  0  0  0  0  0
   18.6964   70.2034   -4.3394 C   0  0  0  0  0  0  0  0  0  0  0  0
   17.9413   69.9178   -3.2766 C   0  0  0  0  0  0  0  0  0  0  0  0
   16.5306   69.5277   -3.4758 C   0  0  0  0  0  0  0  0  0  0  0  0
   15.1855   69.2416   -4.9660 H   0  0  0  0  0  0  0  0  0  0  0  0
   22.7439   72.8906   -2.8545 O   0  0  0  0  0  0  0  0  0  0  0  0
   22.8937   71.4264   -2.1862 P   0  0  2  0  0  0  0  0  0  0  0  0
   24.2260   70.8334   -2.8868 O   0  0  0  0  0  0  0  0  0  0  0  0
   21.6785   70.5568   -2.3307 O   0  0  0  0  0  0  0  0  0  0  0  0
   23.3307   71.7169   -0.6598 O   0  0  0  0  0  0  0  0  0  0  0  0
   24.3709   70.5776    1.1393 O   0  0  0  0  0  0  0  0  0  0  0  0
   21.0154   71.9777    3.0967 O   0  0  0  0  0  0  0  0  0  0  0  0
   23.5734   73.1641    3.6418 O   0  0  0  0  0  0  0  0  0  0  0  0
   20.8080   71.0397    0.3660 O   0  0  0  0  0  0  0  0  0  0  0  0
   22.0880   72.0264    2.1519 C   0  0  1  0  0  0  0  0  0  0  0  0
   23.4083   71.9463    2.9208 C   0  0  1  0  0  0  0  0  0  0  0  0
   21.9561   70.8503    1.1860 C   0  0  2  0  0  0  0  0  0  0  0  0
   24.5912   71.7245    1.9686 C   0  0  1  0  0  0  0  0  0  0  0  0
   23.2060   70.6885    0.3191 C   0  0  1  0  0  0  0  0  0  0  0  0
   21.0930   72.7221    3.7127 H   0  0  0  0  0  0  0  0  0  0  0  0
   22.8197   73.2924    4.2390 H   0  0  0  0  0  0  0  0  0  0  0  0
   20.0235   71.1405    0.9266 H   0  0  0  0  0  0  0  0  0  0  0  0
   26.7929   70.8018    1.8671 O   0  0  0  0  0  0  0  0  0  0  0  0
   25.8964   71.4844    2.7243 C   0  0  0  0  0  0  0  0  0  0  0  0
   27.6282   70.6424    2.3346 H   0  0  0  0  0  0  0  0  0  0  0  0
 25 28  1  0
 25 24  1  0
 25 26  1  6
 25 27  2  0
  1  4  1  0
  1 24  1  0
  1  2  1  6
  1  3  2  0
  6 11  1  0
  6 12  1  0
 29 36  1  0
 29 37  1  0
  9  7  1  6
  7 13  1  0
 10  8  1  6
  8 14  1  0
 37 28  1  6
  4  5  1  0
 33 30  1  1
 30 38  1  0
 34 31  1  6
 31 39  1  0
 35 32  1  6
 32 40  1  0
 41 42  1  0
 41 43  1  0
 15 19  2  0
 16 22  2  0
 12 17  1  1
 17 19  1  0
 17 20  1  0
 18 19  1  0
 18 22  1  0
 18 23  1  0
  9 10  1  0
  9 11  1  0
 10 12  1  0
 11  5  1  1
 33 34  1  0
 33 35  1  0
 34 36  1  0
 35 37  1  0
 36 42  1  1
 20 21  2  0
 21 22  1  0
M  CHG  2   2  -1  26  -1
M  END
>  <COMPND>  (75) 
    8629 

>  <AUTHOR>  (75) 
    GENERATED BY OPEN BABEL 3.1.1

>  <MASTER>  (75) 
        0    0    0    0    0    0    0    0   58    0   58    0

>  <minimizedAffinity>  (75) 
-8.25212

>  <CNNscore>  (75) 
0.6361608505

>  <CNNaffinity>  (75) 
4.3397035599

>  <CNN_VS>  (75) 
2.7607495785

>  <CNNaffinity_variance>  (75) 
0.2527757287

$$$$
76
     RDKit          3D

 43 45  0  0  0  0  0  0  0  0999 V2000
   23.5585   72.1609   -3.3897 P   0  0  2  0  0  0  0  0  0  0  0  0
   24.2098   70.7009   -3.1421 O   0  0  0  0  0  0  0  0  0  0  0  0
   24.4080   73.1070   -4.1865 O   0  0  0  0  0  0  0  0  0  0  0  0
   23.1516   72.6615   -1.9059 O   0  0  0  0  0  0  0  0  0  0  0  0
   22.9898   71.6915   -0.8858 C   0  0  0  0  0  0  0  0  0  0  0  0
   24.1437   73.1291    0.6555 O   0  0  0  0  0  0  0  0  0  0  0  0
   25.3510   70.6305    1.7915 O   0  0  0  0  0  0  0  0  0  0  0  0
   23.3748   71.2027    3.5814 O   0  0  0  0  0  0  0  0  0  0  0  0
   24.0399   70.8429    1.2707 C   0  0  1  0  0  0  0  0  0  0  0  0
   23.2088   71.6455    2.2498 C   0  0  2  0  0  0  0  0  0  0  0  0
   24.1531   71.7998    0.0905 C   0  0  1  0  0  0  0  0  0  0  0  0
   23.7371   73.0531    2.0317 C   0  0  2  0  0  0  0  0  0  0  0  0
   25.3043   70.0221    2.5462 H   0  0  0  0  0  0  0  0  0  0  0  0
   23.0236   70.3028    3.6692 H   0  0  0  0  0  0  0  0  0  0  0  0
   24.2035   75.4482    3.4543 O   0  0  0  0  0  0  0  0  0  0  0  0
   19.8387   76.8292    2.9226 O   0  0  0  0  0  0  0  0  0  0  0  0
   22.7406   74.0566    2.2795 N   0  0  0  0  0  0  0  0  0  0  0  0
   22.0299   76.1340    3.1883 N   0  0  0  0  0  0  0  0  0  0  0  0
   23.0778   75.2227    3.0055 C   0  0  0  0  0  0  0  0  0  0  0  0
   21.4456   73.8795    1.8045 C   0  0  0  0  0  0  0  0  0  0  0  0
   20.4574   74.7574    1.9884 C   0  0  0  0  0  0  0  0  0  0  0  0
   20.7262   76.0023    2.7367 C   0  0  0  0  0  0  0  0  0  0  0  0
   22.2413   76.9536    3.6915 H   0  0  0  0  0  0  0  0  0  0  0  0
   22.1295   71.8125   -4.0602 O   0  0  0  0  0  0  0  0  0  0  0  0
   20.6859   72.5248   -3.9128 P   0  0  2  0  0  0  0  0  0  0  0  0
   21.0399   74.1013   -3.9947 O   0  0  0  0  0  0  0  0  0  0  0  0
   19.9247   72.1241   -2.6824 O   0  0  0  0  0  0  0  0  0  0  0  0
   19.9287   72.2044   -5.3017 O   0  0  0  0  0  0  0  0  0  0  0  0
   18.7644   70.2633   -6.0039 O   0  0  0  0  0  0  0  0  0  0  0  0
   20.5104   71.3200   -9.5935 O   0  0  0  0  0  0  0  0  0  0  0  0
   17.6878   71.6995   -9.2236 O   0  0  0  0  0  0  0  0  0  0  0  0
   21.9859   71.6328   -7.1227 O   0  0  0  0  0  0  0  0  0  0  0  0
   19.8988   71.5566   -8.3225 C   0  0  1  0  0  0  0  0  0  0  0  0
   18.5014   70.9337   -8.3394 C   0  0  1  0  0  0  0  0  0  0  0  0
   20.7571   70.9222   -7.2297 C   0  0  2  0  0  0  0  0  0  0  0  0
   17.8878   70.9115   -6.9330 C   0  0  1  0  0  0  0  0  0  0  0  0
   20.0344   70.9068   -5.8816 C   0  0  1  0  0  0  0  0  0  0  0  0
   19.9706   71.7207  -10.2918 H   0  0  0  0  0  0  0  0  0  0  0  0
   18.0866   71.7060  -10.1080 H   0  0  0  0  0  0  0  0  0  0  0  0
   22.4339   71.6351   -7.9825 H   0  0  0  0  0  0  0  0  0  0  0  0
   15.5348   71.0609   -6.5463 O   0  0  0  0  0  0  0  0  0  0  0  0
   16.5625   70.1535   -6.8991 C   0  0  0  0  0  0  0  0  0  0  0  0
   14.6853   70.5925   -6.5211 H   0  0  0  0  0  0  0  0  0  0  0  0
 25 28  1  0
 25 24  1  0
 25 26  1  1
 25 27  2  0
  1  4  1  0
  1 24  1  0
  1  2  1  1
  1  3  2  0
  6 11  1  0
  6 12  1  0
 29 36  1  0
 29 37  1  0
  9  7  1  1
  7 13  1  0
 10  8  1  1
  8 14  1  0
 37 28  1  6
  4  5  1  0
 33 30  1  6
 30 38  1  0
 34 31  1  6
 31 39  1  0
 35 32  1  1
 32 40  1  0
 41 42  1  0
 41 43  1  0
 15 19  2  0
 16 22  2  0
 12 17  1  6
 17 19  1  0
 17 20  1  0
 18 19  1  0
 18 22  1  0
 18 23  1  0
  9 10  1  0
  9 11  1  0
 10 12  1  0
 11  5  1  6
 33 34  1  0
 33 35  1  0
 34 36  1  0
 35 37  1  0
 36 42  1  6
 20 21  2  0
 21 22  1  0
M  CHG  2   2  -1  26  -1
M  END
>  <COMPND>  (76) 
    8629 

>  <AUTHOR>  (76) 
    GENERATED BY OPEN BABEL 3.1.1

>  <MASTER>  (76) 
        0    0    0    0    0    0    0    0   58    0   58    0

>  <minimizedAffinity>  (76) 
-6.68165

>  <CNNscore>  (76) 
0.5913207531

>  <CNNaffinity>  (76) 
4.3471803665

>  <CNN_VS>  (76) 
2.5705778599

>  <CNNaffinity_variance>  (76) 
0.0553100593

$$$$
77
     RDKit          3D

 43 45  0  0  0  0  0  0  0  0999 V2000
   23.2604   72.1347   -3.5980 P   0  0  2  0  0  0  0  0  0  0  0  0
   23.7111   70.6227   -3.2400 O   0  0  0  0  0  0  0  0  0  0  0  0
   24.3574   73.0167   -4.1176 O   0  0  0  0  0  0  0  0  0  0  0  0
   22.5230   72.6489   -2.2528 O   0  0  0  0  0  0  0  0  0  0  0  0
   23.2871   72.7653   -1.0652 C   0  0  0  0  0  0  0  0  0  0  0  0
   24.3332   71.3018    0.5279 O   0  0  0  0  0  0  0  0  0  0  0  0
   21.5860   70.2255    1.0618 O   0  0  0  0  0  0  0  0  0  0  0  0
   21.9831   71.9124    3.1674 O   0  0  0  0  0  0  0  0  0  0  0  0
   21.9893   71.5607    0.7617 C   0  0  1  0  0  0  0  0  0  0  0  0
   22.6673   72.1876    1.9621 C   0  0  2  0  0  0  0  0  0  0  0  0
   23.1290   71.4910   -0.2470 C   0  0  1  0  0  0  0  0  0  0  0  0
   24.0457   71.5506    1.9136 C   0  0  2  0  0  0  0  0  0  0  0  0
   20.8586   70.2443    1.7041 H   0  0  0  0  0  0  0  0  0  0  0  0
   21.1122   72.3390    3.1497 H   0  0  0  0  0  0  0  0  0  0  0  0
   26.6912   70.7304    2.4676 O   0  0  0  0  0  0  0  0  0  0  0  0
   27.8658   74.9190    3.9898 O   0  0  0  0  0  0  0  0  0  0  0  0
   25.0638   72.4063    2.4547 N   0  0  0  0  0  0  0  0  0  0  0  0
   27.2739   72.8167    3.2249 N   0  0  0  0  0  0  0  0  0  0  0  0
   26.3603   71.8956    2.6969 C   0  0  0  0  0  0  0  0  0  0  0  0
   24.7723   73.7359    2.7392 C   0  0  0  0  0  0  0  0  0  0  0  0
   25.6544   74.6011    3.2437 C   0  0  0  0  0  0  0  0  0  0  0  0
   27.0317   74.1477    3.5258 C   0  0  0  0  0  0  0  0  0  0  0  0
   28.1834   72.4833    3.4021 H   0  0  0  0  0  0  0  0  0  0  0  0
   22.0313   71.9142   -4.6245 O   0  0  0  0  0  0  0  0  0  0  0  0
   21.3416   72.9192   -5.6862 P   0  0  2  0  0  0  0  0  0  0  0  0
   22.2251   72.7080   -7.0250 O   0  0  0  0  0  0  0  0  0  0  0  0
   21.2559   74.3435   -5.2191 O   0  0  0  0  0  0  0  0  0  0  0  0
   19.9175   72.2399   -6.0261 O   0  0  0  0  0  0  0  0  0  0  0  0
   19.0563   70.1067   -5.4568 O   0  0  0  0  0  0  0  0  0  0  0  0
   17.4588   70.4731   -9.2469 O   0  0  0  0  0  0  0  0  0  0  0  0
   15.7421   70.7042   -6.9561 O   0  0  0  0  0  0  0  0  0  0  0  0
   20.1333   71.4405   -8.7074 O   0  0  0  0  0  0  0  0  0  0  0  0
   17.8972   70.9375   -7.9671 C   0  0  1  0  0  0  0  0  0  0  0  0
   17.0804   70.2195   -6.8909 C   0  0  1  0  0  0  0  0  0  0  0  0
   19.3849   70.6303   -7.8074 C   0  0  2  0  0  0  0  0  0  0  0  0
   17.6692   70.4622   -5.4947 C   0  0  1  0  0  0  0  0  0  0  0  0
   19.8576   70.8582   -6.3705 C   0  0  1  0  0  0  0  0  0  0  0  0
   16.5150   70.6656   -9.3549 H   0  0  0  0  0  0  0  0  0  0  0  0
   15.3822   70.5452   -7.8429 H   0  0  0  0  0  0  0  0  0  0  0  0
   19.8248   71.2868   -9.6135 H   0  0  0  0  0  0  0  0  0  0  0  0
   16.0235   68.7855   -5.0598 O   0  0  0  0  0  0  0  0  0  0  0  0
   16.9660   69.6297   -4.4248 C   0  0  0  0  0  0  0  0  0  0  0  0
   15.5684   68.2494   -4.3911 H   0  0  0  0  0  0  0  0  0  0  0  0
 25 28  1  0
 25 24  1  0
 25 26  1  6
 25 27  2  0
  1  4  1  0
  1 24  1  0
  1  2  1  1
  1  3  2  0
  6 11  1  0
  6 12  1  0
 29 36  1  0
 29 37  1  0
  9  7  1  1
  7 13  1  0
 10  8  1  1
  8 14  1  0
 37 28  1  1
  4  5  1  0
 33 30  1  6
 30 38  1  0
 34 31  1  1
 31 39  1  0
 35 32  1  6
 32 40  1  0
 41 42  1  0
 41 43  1  0
 15 19  2  0
 16 22  2  0
 12 17  1  6
 17 19  1  0
 17 20  1  0
 18 19  1  0
 18 22  1  0
 18 23  1  0
  9 10  1  0
  9 11  1  0
 10 12  1  0
 11  5  1  1
 33 34  1  0
 33 35  1  0
 34 36  1  0
 35 37  1  0
 36 42  1  1
 20 21  2  0
 21 22  1  0
M  CHG  2   2  -1  26  -1
M  END
>  <COMPND>  (77) 
    8629 

>  <AUTHOR>  (77) 
    GENERATED BY OPEN BABEL 3.1.1

>  <MASTER>  (77) 
        0    0    0    0    0    0    0    0   58    0   58    0

>  <minimizedAffinity>  (77) 
-8.12802

>  <CNNscore>  (77) 
0.5195003748

>  <CNNaffinity>  (77) 
4.2428741455

>  <CNN_VS>  (77) 
2.2041747570

>  <CNNaffinity_variance>  (77) 
0.1447787285

$$$$
78
     RDKit          3D

 43 45  0  0  0  0  0  0  0  0999 V2000
   23.4511   72.4203   -3.6674 P   0  0  2  0  0  0  0  0  0  0  0  0
   24.1600   73.8377   -3.3422 O   0  0  0  0  0  0  0  0  0  0  0  0
   24.1856   71.2135   -3.1618 O   0  0  0  0  0  0  0  0  0  0  0  0
   23.1974   72.4703   -5.2646 O   0  0  0  0  0  0  0  0  0  0  0  0
   22.1082   71.7386   -5.7994 C   0  0  0  0  0  0  0  0  0  0  0  0
   20.3892   71.7709   -7.4781 O   0  0  0  0  0  0  0  0  0  0  0  0
   20.6963   74.7536   -7.4682 O   0  0  0  0  0  0  0  0  0  0  0  0
   18.4567   74.3816   -5.9573 O   0  0  0  0  0  0  0  0  0  0  0  0
   20.7872   73.8337   -6.3816 C   0  0  1  0  0  0  0  0  0  0  0  0
   19.4092   73.3384   -5.9952 C   0  0  2  0  0  0  0  0  0  0  0  0
   21.4491   72.5620   -6.8975 C   0  0  1  0  0  0  0  0  0  0  0  0
   19.1213   72.3233   -7.0882 C   0  0  2  0  0  0  0  0  0  0  0  0
   20.2770   75.5740   -7.1629 H   0  0  0  0  0  0  0  0  0  0  0  0
   18.6834   75.0009   -5.2461 H   0  0  0  0  0  0  0  0  0  0  0  0
   17.4196   70.8207   -8.7688 O   0  0  0  0  0  0  0  0  0  0  0  0
   15.8927   68.2687   -5.2478 O   0  0  0  0  0  0  0  0  0  0  0  0
   18.2684   71.2600   -6.6372 N   0  0  0  0  0  0  0  0  0  0  0  0
   16.6608   69.5511   -7.0143 N   0  0  0  0  0  0  0  0  0  0  0  0
   17.4518   70.5690   -7.5625 C   0  0  0  0  0  0  0  0  0  0  0  0
   18.2476   70.9118   -5.2910 C   0  0  0  0  0  0  0  0  0  0  0  0
   17.4867   69.9396   -4.7840 C   0  0  0  0  0  0  0  0  0  0  0  0
   16.6043   69.1686   -5.6834 C   0  0  0  0  0  0  0  0  0  0  0  0
   16.0835   69.0563   -7.6400 H   0  0  0  0  0  0  0  0  0  0  0  0
   21.9660   72.6083   -3.0575 O   0  0  0  0  0  0  0  0  0  0  0  0
   21.4231   73.5397   -1.8530 P   0  0  2  0  0  0  0  0  0  0  0  0
   19.8268   73.2771   -1.8715 O   0  0  0  0  0  0  0  0  0  0  0  0
   21.8144   74.9845   -1.9680 O   0  0  0  0  0  0  0  0  0  0  0  0
   21.9404   72.8116   -0.5087 O   0  0  0  0  0  0  0  0  0  0  0  0
   22.9143   74.2999    1.0575 O   0  0  0  0  0  0  0  0  0  0  0  0
   24.1010   70.7150    2.7281 O   0  0  0  0  0  0  0  0  0  0  0  0
   22.0423   72.2602    4.0017 O   0  0  0  0  0  0  0  0  0  0  0  0
   24.0786   71.0299   -0.1494 O   0  0  0  0  0  0  0  0  0  0  0  0
   23.2202   71.5980    2.0281 C   0  0  1  0  0  0  0  0  0  0  0  0
   22.8709   72.7625    2.9570 C   0  0  1  0  0  0  0  0  0  0  0  0
   23.9198   72.1060    0.7688 C   0  0  2  0  0  0  0  0  0  0  0  0
   22.1498   73.8822    2.1946 C   0  0  1  0  0  0  0  0  0  0  0  0
   23.1444   73.2510    0.1148 C   0  0  1  0  0  0  0  0  0  0  0  0
   23.6626   70.3884    3.5285 H   0  0  0  0  0  0  0  0  0  0  0  0
   22.5092   71.5536    4.4749 H   0  0  0  0  0  0  0  0  0  0  0  0
   24.5712   70.3116    0.2764 H   0  0  0  0  0  0  0  0  0  0  0  0
   21.1795   76.0618    2.3245 O   0  0  0  0  0  0  0  0  0  0  0  0
   21.9324   75.1184    3.0645 C   0  0  0  0  0  0  0  0  0  0  0  0
   21.0332   76.8538    2.8658 H   0  0  0  0  0  0  0  0  0  0  0  0
 25 28  1  0
 25 24  1  0
 25 26  1  1
 25 27  2  0
  1  4  1  0
  1 24  1  0
  1  2  1  1
  1  3  2  0
  6 11  1  0
  6 12  1  0
 29 36  1  0
 29 37  1  0
  9  7  1  6
  7 13  1  0
 10  8  1  6
  8 14  1  0
 37 28  1  1
  4  5  1  0
 33 30  1  1
 30 38  1  0
 34 31  1  1
 31 39  1  0
 35 32  1  6
 32 40  1  0
 41 42  1  0
 41 43  1  0
 15 19  2  0
 16 22  2  0
 12 17  1  1
 17 19  1  0
 17 20  1  0
 18 19  1  0
 18 22  1  0
 18 23  1  0
  9 10  1  0
  9 11  1  0
 10 12  1  0
 11  5  1  1
 33 34  1  0
 33 35  1  0
 34 36  1  0
 35 37  1  0
 36 42  1  1
 20 21  2  0
 21 22  1  0
M  CHG  2   2  -1  26  -1
M  END
>  <COMPND>  (78) 
    8629 

>  <AUTHOR>  (78) 
    GENERATED BY OPEN BABEL 3.1.1

>  <MASTER>  (78) 
        0    0    0    0    0    0    0    0   58    0   58    0

>  <minimizedAffinity>  (78) 
-6.52392

>  <CNNscore>  (78) 
0.5172248483

>  <CNNaffinity>  (78) 
4.1633877754

>  <CNN_VS>  (78) 
2.1534075737

>  <CNNaffinity_variance>  (78) 
0.0472557098

$$$$
79
     RDKit          3D

 43 45  0  0  0  0  0  0  0  0999 V2000
   21.8738   72.3754   -5.8430 P   0  0  2  0  0  0  0  0  0  0  0  0
   21.1092   73.6860   -5.2817 O   0  0  0  0  0  0  0  0  0  0  0  0
   23.0362   72.6589   -6.7485 O   0  0  0  0  0  0  0  0  0  0  0  0
   20.6885   71.4779   -6.4814 O   0  0  0  0  0  0  0  0  0  0  0  0
   20.2281   71.7934   -7.7838 C   0  0  0  0  0  0  0  0  0  0  0  0
   18.8668   69.8950   -7.2209 O   0  0  0  0  0  0  0  0  0  0  0  0
   17.9797   69.9179  -10.0851 O   0  0  0  0  0  0  0  0  0  0  0  0
   15.8883   71.1116   -8.8055 O   0  0  0  0  0  0  0  0  0  0  0  0
   18.2812   71.0156   -9.2252 C   0  0  1  0  0  0  0  0  0  0  0  0
   17.1688   71.2146   -8.2169 C   0  0  2  0  0  0  0  0  0  0  0  0
   19.4482   70.6075   -8.3348 C   0  0  1  0  0  0  0  0  0  0  0  0
   17.4449   70.1024   -7.2195 C   0  0  2  0  0  0  0  0  0  0  0  0
   17.2375   70.1549  -10.6637 H   0  0  0  0  0  0  0  0  0  0  0  0
   15.7605   71.8411   -9.4319 H   0  0  0  0  0  0  0  0  0  0  0  0
   16.5407   68.2335   -5.3044 O   0  0  0  0  0  0  0  0  0  0  0  0
   15.8567   71.5223   -2.1489 O   0  0  0  0  0  0  0  0  0  0  0  0
   17.0247   70.4427   -5.8895 N   0  0  0  0  0  0  0  0  0  0  0  0
   16.2011   69.8726   -3.7347 N   0  0  0  0  0  0  0  0  0  0  0  0
   16.5872   69.4286   -5.0058 C   0  0  0  0  0  0  0  0  0  0  0  0
   17.0492   71.7693   -5.4731 C   0  0  0  0  0  0  0  0  0  0  0  0
   16.6765   72.1763   -4.2579 C   0  0  0  0  0  0  0  0  0  0  0  0
   16.2063   71.1797   -3.2742 C   0  0  0  0  0  0  0  0  0  0  0  0
   15.8923   69.1837   -3.1023 H   0  0  0  0  0  0  0  0  0  0  0  0
   22.2529   71.5700   -4.4937 O   0  0  0  0  0  0  0  0  0  0  0  0
   23.3077   71.9082   -3.3165 P   0  0  2  0  0  0  0  0  0  0  0  0
   24.0010   73.2797   -3.8223 O   0  0  0  0  0  0  0  0  0  0  0  0
   24.2744   70.7988   -3.0189 O   0  0  0  0  0  0  0  0  0  0  0  0
   22.3926   72.3521   -2.0632 O   0  0  0  0  0  0  0  0  0  0  0  0
   21.8177   71.2279   -0.0577 O   0  0  0  0  0  0  0  0  0  0  0  0
   18.2015   73.0579   -0.8481 O   0  0  0  0  0  0  0  0  0  0  0  0
   19.8389   74.0239    1.3045 O   0  0  0  0  0  0  0  0  0  0  0  0
   19.7814   71.9826   -3.0224 O   0  0  0  0  0  0  0  0  0  0  0  0
   19.6271   72.9469   -0.8206 C   0  0  1  0  0  0  0  0  0  0  0  0
   20.0676   72.7866    0.6358 C   0  0  1  0  0  0  0  0  0  0  0  0
   20.0493   71.7333   -1.6467 C   0  0  2  0  0  0  0  0  0  0  0  0
   21.5489   72.3959    0.7267 C   0  0  1  0  0  0  0  0  0  0  0  0
   21.5290   71.4008   -1.4464 C   0  0  1  0  0  0  0  0  0  0  0  0
   17.9269   73.8269   -0.3259 H   0  0  0  0  0  0  0  0  0  0  0  0
   18.9001   74.2594    1.2392 H   0  0  0  0  0  0  0  0  0  0  0  0
   18.8415   72.1915   -3.1359 H   0  0  0  0  0  0  0  0  0  0  0  0
   20.8081   72.0253    2.9679 O   0  0  0  0  0  0  0  0  0  0  0  0
   21.9694   72.0772    2.1598 C   0  0  0  0  0  0  0  0  0  0  0  0
   21.0603   71.8231    3.8828 H   0  0  0  0  0  0  0  0  0  0  0  0
 25 28  1  0
 25 24  1  0
 25 26  1  6
 25 27  2  0
  1  4  1  0
  1 24  1  0
  1  2  1  1
  1  3  2  0
  6 11  1  0
  6 12  1  0
 29 36  1  0
 29 37  1  0
  9  7  1  6
  7 13  1  0
 10  8  1  6
  8 14  1  0
 37 28  1  1
  4  5  1  0
 33 30  1  1
 30 38  1  0
 34 31  1  1
 31 39  1  0
 35 32  1  6
 32 40  1  0
 41 42  1  0
 41 43  1  0
 15 19  2  0
 16 22  2  0
 12 17  1  1
 17 19  1  0
 17 20  1  0
 18 19  1  0
 18 22  1  0
 18 23  1  0
  9 10  1  0
  9 11  1  0
 10 12  1  0
 11  5  1  1
 33 34  1  0
 33 35  1  0
 34 36  1  0
 35 37  1  0
 36 42  1  1
 20 21  2  0
 21 22  1  0
M  CHG  2   2  -1  26  -1
M  END
>  <COMPND>  (79) 
    8629 

>  <AUTHOR>  (79) 
    GENERATED BY OPEN BABEL 3.1.1

>  <MASTER>  (79) 
        0    0    0    0    0    0    0    0   58    0   58    0

>  <minimizedAffinity>  (79) 
-7.67212

>  <CNNscore>  (79) 
0.4942644536

>  <CNNaffinity>  (79) 
4.1798548698

>  <CNN_VS>  (79) 
2.0659537315

>  <CNNaffinity_variance>  (79) 
0.5226276517

$$$$
80
     RDKit          3D

 43 45  0  0  0  0  0  0  0  0999 V2000
   23.3368   72.2366   -3.5986 P   0  0  2  0  0  0  0  0  0  0  0  0
   23.9514   70.8016   -3.1739 O   0  0  0  0  0  0  0  0  0  0  0  0
   24.3095   73.1747   -4.2508 O   0  0  0  0  0  0  0  0  0  0  0  0
   22.6405   72.7778   -2.2421 O   0  0  0  0  0  0  0  0  0  0  0  0
   22.6517   71.9433   -1.0970 C   0  0  0  0  0  0  0  0  0  0  0  0
   21.9676   73.8705    0.1647 O   0  0  0  0  0  0  0  0  0  0  0  0
   23.5246   72.6988    2.4436 O   0  0  0  0  0  0  0  0  0  0  0  0
   20.9550   72.0447    3.0808 O   0  0  0  0  0  0  0  0  0  0  0  0
   22.7524   72.0363    1.4436 C   0  0  1  0  0  0  0  0  0  0  0  0
   21.2736   72.2178    1.7151 C   0  0  2  0  0  0  0  0  0  0  0  0
   22.9308   72.7945    0.1341 C   0  0  1  0  0  0  0  0  0  0  0  0
   21.0374   73.6399    1.2354 C   0  0  2  0  0  0  0  0  0  0  0  0
   23.4268   72.2323    3.2891 H   0  0  0  0  0  0  0  0  0  0  0  0
   21.1220   71.1244    3.3378 H   0  0  0  0  0  0  0  0  0  0  0  0
   19.1212   75.3194    2.4541 O   0  0  0  0  0  0  0  0  0  0  0  0
   15.9482   74.3207   -0.7359 O   0  0  0  0  0  0  0  0  0  0  0  0
   19.7028   73.8377    0.7443 N   0  0  0  0  0  0  0  0  0  0  0  0
   17.5429   74.8209    0.8646 N   0  0  0  0  0  0  0  0  0  0  0  0
   18.8184   74.7018    1.4311 C   0  0  0  0  0  0  0  0  0  0  0  0
   19.2830   73.1790   -0.4063 C   0  0  0  0  0  0  0  0  0  0  0  0
   18.0629   73.3024   -0.9328 C   0  0  0  0  0  0  0  0  0  0  0  0
   17.0781   74.1862   -0.2763 C   0  0  0  0  0  0  0  0  0  0  0  0
   16.9096   75.4173    1.3262 H   0  0  0  0  0  0  0  0  0  0  0  0
   22.0717   71.8319   -4.5199 O   0  0  0  0  0  0  0  0  0  0  0  0
   20.5652   72.4157   -4.5701 P   0  0  2  0  0  0  0  0  0  0  0  0
   20.7826   74.0144   -4.4500 O   0  0  0  0  0  0  0  0  0  0  0  0
   19.6458   71.8362   -3.5344 O   0  0  0  0  0  0  0  0  0  0  0  0
   20.0874   72.1827   -6.0941 O   0  0  0  0  0  0  0  0  0  0  0  0
   19.1911   69.9917   -6.2063 O   0  0  0  0  0  0  0  0  0  0  0  0
   18.8126   71.0635  -10.1761 O   0  0  0  0  0  0  0  0  0  0  0  0
   16.4697   70.8923   -8.5240 O   0  0  0  0  0  0  0  0  0  0  0  0
   21.1478   71.8843   -8.6751 O   0  0  0  0  0  0  0  0  0  0  0  0
   18.8176   71.2810   -8.7625 C   0  0  1  0  0  0  0  0  0  0  0  0
   17.7447   70.3881   -8.1362 C   0  0  1  0  0  0  0  0  0  0  0  0
   20.1979   70.9322   -8.2087 C   0  0  2  0  0  0  0  0  0  0  0  0
   17.8673   70.3645   -6.6066 C   0  0  1  0  0  0  0  0  0  0  0  0
   20.1983   70.8881   -6.6796 C   0  0  1  0  0  0  0  0  0  0  0  0
   17.9392   71.2836  -10.5340 H   0  0  0  0  0  0  0  0  0  0  0  0
   16.4054   70.9024   -9.4920 H   0  0  0  0  0  0  0  0  0  0  0  0
   21.1381   71.9025   -9.6444 H   0  0  0  0  0  0  0  0  0  0  0  0
   16.0960   70.0423   -5.0357 O   0  0  0  0  0  0  0  0  0  0  0  0
   16.9094   69.3589   -5.9715 C   0  0  0  0  0  0  0  0  0  0  0  0
   15.4811   69.4147   -4.6237 H   0  0  0  0  0  0  0  0  0  0  0  0
 25 28  1  0
 25 24  1  0
 25 26  1  1
 25 27  2  0
  1  4  1  0
  1 24  1  0
  1  2  1  1
  1  3  2  0
  6 11  1  0
  6 12  1  0
 29 36  1  0
 29 37  1  0
  9  7  1  1
  7 13  1  0
 10  8  1  1
  8 14  1  0
 37 28  1  1
  4  5  1  0
 33 30  1  6
 30 38  1  0
 34 31  1  1
 31 39  1  0
 35 32  1  1
 32 40  1  0
 41 42  1  0
 41 43  1  0
 15 19  2  0
 16 22  2  0
 12 17  1  6
 17 19  1  0
 17 20  1  0
 18 19  1  0
 18 22  1  0
 18 23  1  0
  9 10  1  0
  9 11  1  0
 10 12  1  0
 11  5  1  6
 33 34  1  0
 33 35  1  0
 34 36  1  0
 35 37  1  0
 36 42  1  1
 20 21  2  0
 21 22  1  0
M  CHG  2   2  -1  26  -1
M  END
>  <COMPND>  (80) 
    8629 

>  <AUTHOR>  (80) 
    GENERATED BY OPEN BABEL 3.1.1

>  <MASTER>  (80) 
        0    0    0    0    0    0    0    0   58    0   58    0

>  <minimizedAffinity>  (80) 
-6.98994

>  <CNNscore>  (80) 
0.4839213192

>  <CNNaffinity>  (80) 
4.0760488510

>  <CNN_VS>  (80) 
1.9724869728

>  <CNNaffinity_variance>  (80) 
0.1458826214

$$$$
81
     RDKit          3D

 43 45  0  0  0  0  0  0  0  0999 V2000
   22.7384   71.4405   -2.8488 P   0  0  2  0  0  0  0  0  0  0  0  0
   22.6554   73.0353   -2.5897 O   0  0  0  0  0  0  0  0  0  0  0  0
   24.1062   70.9235   -3.1853 O   0  0  0  0  0  0  0  0  0  0  0  0
   21.5916   71.1667   -3.9568 O   0  0  0  0  0  0  0  0  0  0  0  0
   20.6734   70.1109   -3.7329 C   0  0  0  0  0  0  0  0  0  0  0  0
   18.8963   71.4235   -4.6779 O   0  0  0  0  0  0  0  0  0  0  0  0
   17.1460   70.2469   -2.5465 O   0  0  0  0  0  0  0  0  0  0  0  0
   16.4875   68.7671   -4.7403 O   0  0  0  0  0  0  0  0  0  0  0  0
   18.2158   69.6420   -3.2711 C   0  0  1  0  0  0  0  0  0  0  0  0
   17.7817   69.3320   -4.6885 C   0  0  2  0  0  0  0  0  0  0  0  0
   19.2902   70.6996   -3.4916 C   0  0  1  0  0  0  0  0  0  0  0  0
   17.8490   70.7005   -5.3450 C   0  0  2  0  0  0  0  0  0  0  0  0
   16.4477   69.5905   -2.3933 H   0  0  0  0  0  0  0  0  0  0  0  0
   16.4965   67.8979   -4.3101 H   0  0  0  0  0  0  0  0  0  0  0  0
   15.9304   70.2993   -7.3787 O   0  0  0  0  0  0  0  0  0  0  0  0
   19.1410   70.4130  -10.6833 O   0  0  0  0  0  0  0  0  0  0  0  0
   18.1557   70.6216   -6.7454 N   0  0  0  0  0  0  0  0  0  0  0  0
   17.5305   70.3564   -9.0225 N   0  0  0  0  0  0  0  0  0  0  0  0
   17.1186   70.4169   -7.6851 C   0  0  0  0  0  0  0  0  0  0  0  0
   19.4725   70.7470   -7.1745 C   0  0  0  0  0  0  0  0  0  0  0  0
   19.8489   70.6856   -8.4535 C   0  0  0  0  0  0  0  0  0  0  0  0
   18.8267   70.4741   -9.4987 C   0  0  0  0  0  0  0  0  0  0  0  0
   16.8253   70.2141   -9.6949 H   0  0  0  0  0  0  0  0  0  0  0  0
   22.0973   70.8195   -1.5011 O   0  0  0  0  0  0  0  0  0  0  0  0
   21.4371   71.5365   -0.2115 P   0  0  2  0  0  0  0  0  0  0  0  0
   21.1864   70.3065    0.8091 O   0  0  0  0  0  0  0  0  0  0  0  0
   20.2109   72.3465   -0.5182 O   0  0  0  0  0  0  0  0  0  0  0  0
   22.6451   72.3767    0.4517 O   0  0  0  0  0  0  0  0  0  0  0  0
   21.8862   73.9002    2.1009 O   0  0  0  0  0  0  0  0  0  0  0  0
   25.7876   75.2047    1.7430 O   0  0  0  0  0  0  0  0  0  0  0  0
   24.9846   73.7631    4.0935 O   0  0  0  0  0  0  0  0  0  0  0  0
   24.3269   74.3574   -0.6082 O   0  0  0  0  0  0  0  0  0  0  0  0
   24.7336   74.2383    1.7628 C   0  0  1  0  0  0  0  0  0  0  0  0
   24.0654   74.2857    3.1384 C   0  0  1  0  0  0  0  0  0  0  0  0
   23.7270   74.5749    0.6643 C   0  0  2  0  0  0  0  0  0  0  0  0
   22.7633   73.4735    3.1500 C   0  0  1  0  0  0  0  0  0  0  0  0
   22.4484   73.7456    0.7963 C   0  0  1  0  0  0  0  0  0  0  0  0
   26.4305   74.9964    2.4379 H   0  0  0  0  0  0  0  0  0  0  0  0
   25.8026   74.2844    4.0757 H   0  0  0  0  0  0  0  0  0  0  0  0
   25.1351   74.8881   -0.6795 H   0  0  0  0  0  0  0  0  0  0  0  0
   22.3914   72.5959    5.3410 O   0  0  0  0  0  0  0  0  0  0  0  0
   22.0001   73.6352    4.4628 C   0  0  0  0  0  0  0  0  0  0  0  0
   21.9138   72.6862    6.1809 H   0  0  0  0  0  0  0  0  0  0  0  0
 25 28  1  0
 25 24  1  0
 25 26  1  1
 25 27  2  0
  1  4  1  0
  1 24  1  0
  1  2  1  1
  1  3  2  0
  6 11  1  0
  6 12  1  0
 29 36  1  0
 29 37  1  0
  9  7  1  1
  7 13  1  0
 10  8  1  1
  8 14  1  0
 37 28  1  1
  4  5  1  0
 33 30  1  1
 30 38  1  0
 34 31  1  1
 31 39  1  0
 35 32  1  6
 32 40  1  0
 41 42  1  0
 41 43  1  0
 15 19  2  0
 16 22  2  0
 12 17  1  6
 17 19  1  0
 17 20  1  0
 18 19  1  0
 18 22  1  0
 18 23  1  0
  9 10  1  0
  9 11  1  0
 10 12  1  0
 11  5  1  6
 33 34  1  0
 33 35  1  0
 34 36  1  0
 35 37  1  0
 36 42  1  1
 20 21  2  0
 21 22  1  0
M  CHG  2   2  -1  26  -1
M  END
>  <COMPND>  (81) 
    8629 

>  <AUTHOR>  (81) 
    GENERATED BY OPEN BABEL 3.1.1

>  <MASTER>  (81) 
        0    0    0    0    0    0    0    0   58    0   58    0

>  <minimizedAffinity>  (81) 
-7.72620

>  <CNNscore>  (81) 
0.9302219748

>  <CNNaffinity>  (81) 
4.7723770142

>  <CNN_VS>  (81) 
4.4393701553

>  <CNNaffinity_variance>  (81) 
0.0421877764

$$$$
82
     RDKit          3D

 43 45  0  0  0  0  0  0  0  0999 V2000
   23.1196   71.5892   -2.4795 P   0  0  2  0  0  0  0  0  0  0  0  0
   23.3874   73.1193   -2.0271 O   0  0  0  0  0  0  0  0  0  0  0  0
   24.2869   70.9071   -3.1301 O   0  0  0  0  0  0  0  0  0  0  0  0
   21.7717   71.6778   -3.3702 O   0  0  0  0  0  0  0  0  0  0  0  0
   20.9794   70.5120   -3.5153 C   0  0  0  0  0  0  0  0  0  0  0  0
   18.9754   71.4926   -4.4076 O   0  0  0  0  0  0  0  0  0  0  0  0
   17.5215   70.0674   -2.2063 O   0  0  0  0  0  0  0  0  0  0  0  0
   17.0497   68.4673   -4.3636 O   0  0  0  0  0  0  0  0  0  0  0  0
   18.6533   69.6417   -2.9633 C   0  0  1  0  0  0  0  0  0  0  0  0
   18.2307   69.2432   -4.3620 C   0  0  2  0  0  0  0  0  0  0  0  0
   19.5254   70.8622   -3.2301 C   0  0  1  0  0  0  0  0  0  0  0  0
   18.0436   70.5941   -5.0315 C   0  0  2  0  0  0  0  0  0  0  0  0
   16.9497   69.3048   -2.0233 H   0  0  0  0  0  0  0  0  0  0  0  0
   17.2199   67.6181   -3.9269 H   0  0  0  0  0  0  0  0  0  0  0  0
   16.1643   69.8123   -6.9898 O   0  0  0  0  0  0  0  0  0  0  0  0
   19.1859   70.4562  -10.4097 O   0  0  0  0  0  0  0  0  0  0  0  0
   18.3123   70.5486   -6.4412 N   0  0  0  0  0  0  0  0  0  0  0  0
   17.6703   70.1337   -8.6911 N   0  0  0  0  0  0  0  0  0  0  0  0
   17.2996   70.1408   -7.3403 C   0  0  0  0  0  0  0  0  0  0  0  0
   19.5683   70.9061   -6.9191 C   0  0  0  0  0  0  0  0  0  0  0  0
   19.9063   70.8928   -8.2102 C   0  0  0  0  0  0  0  0  0  0  0  0
   18.9059   70.4791   -9.2152 C   0  0  0  0  0  0  0  0  0  0  0  0
   16.9810   69.8527   -9.3358 H   0  0  0  0  0  0  0  0  0  0  0  0
   22.6077   70.8910   -1.1144 O   0  0  0  0  0  0  0  0  0  0  0  0
   21.7084   71.4659    0.0995 P   0  0  2  0  0  0  0  0  0  0  0  0
   21.2833   70.1320    0.9104 O   0  0  0  0  0  0  0  0  0  0  0  0
   20.5530   72.3177   -0.3404 O   0  0  0  0  0  0  0  0  0  0  0  0
   22.7603   72.2141    1.0684 O   0  0  0  0  0  0  0  0  0  0  0  0
   24.5098   71.7079    2.5848 O   0  0  0  0  0  0  0  0  0  0  0  0
   22.1612   74.0496    5.0448 O   0  0  0  0  0  0  0  0  0  0  0  0
   24.6418   75.0919    4.0409 O   0  0  0  0  0  0  0  0  0  0  0  0
   20.9193   72.2102    3.1864 O   0  0  0  0  0  0  0  0  0  0  0  0
   22.7517   73.6450    3.8067 C   0  0  1  0  0  0  0  0  0  0  0  0
   24.2728   73.7184    3.9543 C   0  0  1  0  0  0  0  0  0  0  0  0
   22.3109   72.2180    3.4862 C   0  0  2  0  0  0  0  0  0  0  0  0
   24.9775   73.0496    2.7664 C   0  0  1  0  0  0  0  0  0  0  0  0
   23.1077   71.6290    2.3207 C   0  0  1  0  0  0  0  0  0  0  0  0
   22.4367   74.9550    5.2539 H   0  0  0  0  0  0  0  0  0  0  0  0
   24.1897   75.5026    4.7946 H   0  0  0  0  0  0  0  0  0  0  0  0
   20.4259   72.5851    3.9319 H   0  0  0  0  0  0  0  0  0  0  0  0
   26.8983   71.6286    2.7847 O   0  0  0  0  0  0  0  0  0  0  0  0
   26.4892   72.9714    2.9684 C   0  0  0  0  0  0  0  0  0  0  0  0
   27.8584   71.5637    2.9100 H   0  0  0  0  0  0  0  0  0  0  0  0
 25 28  1  0
 25 24  1  0
 25 26  1  1
 25 27  2  0
  1  4  1  0
  1 24  1  0
  1  2  1  1
  1  3  2  0
  6 11  1  0
  6 12  1  0
 29 36  1  0
 29 37  1  0
  9  7  1  1
  7 13  1  0
 10  8  1  1
  8 14  1  0
 37 28  1  6
  4  5  1  0
 33 30  1  1
 30 38  1  0
 34 31  1  6
 31 39  1  0
 35 32  1  6
 32 40  1  0
 41 42  1  0
 41 43  1  0
 15 19  2  0
 16 22  2  0
 12 17  1  6
 17 19  1  0
 17 20  1  0
 18 19  1  0
 18 22  1  0
 18 23  1  0
  9 10  1  0
  9 11  1  0
 10 12  1  0
 11  5  1  6
 33 34  1  0
 33 35  1  0
 34 36  1  0
 35 37  1  0
 36 42  1  1
 20 21  2  0
 21 22  1  0
M  CHG  2   2  -1  26  -1
M  END
>  <COMPND>  (82) 
    8629 

>  <AUTHOR>  (82) 
    GENERATED BY OPEN BABEL 3.1.1

>  <MASTER>  (82) 
        0    0    0    0    0    0    0    0   58    0   58    0

>  <minimizedAffinity>  (82) 
-8.12637

>  <CNNscore>  (82) 
0.9127715826

>  <CNNaffinity>  (82) 
4.7516617775

>  <CNN_VS>  (82) 
4.3371820450

>  <CNNaffinity_variance>  (82) 
0.0632663667

$$$$
83
     RDKit          3D

 43 45  0  0  0  0  0  0  0  0999 V2000
   20.4240   71.3188   -1.3351 P   0  0  2  0  0  0  0  0  0  0  0  0
   20.9790   70.6124    0.0104 O   0  0  0  0  0  0  0  0  0  0  0  0
   19.8531   72.6927   -1.1404 O   0  0  0  0  0  0  0  0  0  0  0  0
   19.4144   70.2208   -1.9621 O   0  0  0  0  0  0  0  0  0  0  0  0
   19.1024   70.2993   -3.3420 C   0  0  0  0  0  0  0  0  0  0  0  0
   17.4514   71.3447   -4.7404 O   0  0  0  0  0  0  0  0  0  0  0  0
   15.4200   69.7607   -3.2058 O   0  0  0  0  0  0  0  0  0  0  0  0
   15.6752   68.3257   -5.5106 O   0  0  0  0  0  0  0  0  0  0  0  0
   16.7398   69.3918   -3.6023 C   0  0  1  0  0  0  0  0  0  0  0  0
   16.7800   69.0986   -5.0876 C   0  0  2  0  0  0  0  0  0  0  0  0
   17.6240   70.6282   -3.4981 C   0  0  1  0  0  0  0  0  0  0  0  0
   16.7790   70.4956   -5.6846 C   0  0  2  0  0  0  0  0  0  0  0  0
   14.8369   68.9870   -3.2637 H   0  0  0  0  0  0  0  0  0  0  0  0
   15.7210   67.4463   -5.1039 H   0  0  0  0  0  0  0  0  0  0  0  0
   15.5080   70.5733   -8.2058 O   0  0  0  0  0  0  0  0  0  0  0  0
   19.5380   70.7202  -10.4372 O   0  0  0  0  0  0  0  0  0  0  0  0
   17.4718   70.5548   -6.9408 N   0  0  0  0  0  0  0  0  0  0  0  0
   17.5157   70.6466   -9.3148 N   0  0  0  0  0  0  0  0  0  0  0  0
   16.7394   70.5892   -8.1503 C   0  0  0  0  0  0  0  0  0  0  0  0
   18.8620   70.5786   -6.9650 C   0  0  0  0  0  0  0  0  0  0  0  0
   19.5874   70.6321   -8.0840 C   0  0  0  0  0  0  0  0  0  0  0  0
   18.8993   70.6709   -9.3906 C   0  0  0  0  0  0  0  0  0  0  0  0
   17.0270   70.6709  -10.1695 H   0  0  0  0  0  0  0  0  0  0  0  0
   21.6956   71.2536   -2.3310 O   0  0  0  0  0  0  0  0  0  0  0  0
   22.8144   72.3611   -2.6979 P   0  0  2  0  0  0  0  0  0  0  0  0
   23.9238   71.5117   -3.5136 O   0  0  0  0  0  0  0  0  0  0  0  0
   23.3543   73.1068   -1.5120 O   0  0  0  0  0  0  0  0  0  0  0  0
   22.1147   73.2947   -3.8132 O   0  0  0  0  0  0  0  0  0  0  0  0
   20.0049   73.1918   -4.8878 O   0  0  0  0  0  0  0  0  0  0  0  0
   22.3333   74.3070   -8.1106 O   0  0  0  0  0  0  0  0  0  0  0  0
   20.5491   76.2178   -6.9216 O   0  0  0  0  0  0  0  0  0  0  0  0
   23.3613   72.4205   -6.1705 O   0  0  0  0  0  0  0  0  0  0  0  0
   21.9378   74.2792   -6.7364 C   0  0  1  0  0  0  0  0  0  0  0  0
   20.5109   74.8222   -6.6370 C   0  0  1  0  0  0  0  0  0  0  0  0
   22.0023   72.8404   -6.2274 C   0  0  2  0  0  0  0  0  0  0  0  0
   19.9210   74.5773   -5.2415 C   0  0  1  0  0  0  0  0  0  0  0  0
   21.3452   72.6973   -4.8535 C   0  0  1  0  0  0  0  0  0  0  0  0
   22.2950   75.2179   -8.4398 H   0  0  0  0  0  0  0  0  0  0  0  0
   20.9240   76.3587   -7.8052 H   0  0  0  0  0  0  0  0  0  0  0  0
   23.7660   72.5157   -7.0463 H   0  0  0  0  0  0  0  0  0  0  0  0
   17.7042   74.0777   -5.9798 O   0  0  0  0  0  0  0  0  0  0  0  0
   18.4466   74.9681   -5.1672 C   0  0  0  0  0  0  0  0  0  0  0  0
   16.7638   74.3142   -5.9420 H   0  0  0  0  0  0  0  0  0  0  0  0
 25 28  1  0
 25 24  1  0
 25 26  1  6
 25 27  2  0
  1  4  1  0
  1 24  1  0
  1  2  1  1
  1  3  2  0
  6 11  1  0
  6 12  1  0
 29 36  1  0
 29 37  1  0
  9  7  1  6
  7 13  1  0
 10  8  1  6
  8 14  1  0
 37 28  1  1
  4  5  1  0
 33 30  1  6
 30 38  1  0
 34 31  1  1
 31 39  1  0
 35 32  1  1
 32 40  1  0
 41 42  1  0
 41 43  1  0
 15 19  2  0
 16 22  2  0
 12 17  1  6
 17 19  1  0
 17 20  1  0
 18 19  1  0
 18 22  1  0
 18 23  1  0
  9 10  1  0
  9 11  1  0
 10 12  1  0
 11  5  1  6
 33 34  1  0
 33 35  1  0
 34 36  1  0
 35 37  1  0
 36 42  1  6
 20 21  2  0
 21 22  1  0
M  CHG  2   2  -1  26  -1
M  END
>  <COMPND>  (83) 
    8629 

>  <AUTHOR>  (83) 
    GENERATED BY OPEN BABEL 3.1.1

>  <MASTER>  (83) 
        0    0    0    0    0    0    0    0   58    0   58    0

>  <minimizedAffinity>  (83) 
-7.67354

>  <CNNscore>  (83) 
0.9123518467

>  <CNNaffinity>  (83) 
4.6664080620

>  <CNN_VS>  (83) 
4.2574062347

>  <CNNaffinity_variance>  (83) 
0.6859695911

$$$$
84
     RDKit          3D

 43 45  0  0  0  0  0  0  0  0999 V2000
   21.7123   72.1976   -5.7341 P   0  0  2  0  0  0  0  0  0  0  0  0
   20.7265   73.4585   -5.4975 O   0  0  0  0  0  0  0  0  0  0  0  0
   23.0529   72.5413   -6.3139 O   0  0  0  0  0  0  0  0  0  0  0  0
   20.8179   71.1620   -6.5976 O   0  0  0  0  0  0  0  0  0  0  0  0
   20.2792   71.6007   -7.8326 C   0  0  0  0  0  0  0  0  0  0  0  0
   18.8860   69.6991   -7.3669 O   0  0  0  0  0  0  0  0  0  0  0  0
   17.9327   69.9394  -10.1996 O   0  0  0  0  0  0  0  0  0  0  0  0
   15.9013   71.0888   -8.7893 O   0  0  0  0  0  0  0  0  0  0  0  0
   18.2807   70.9681   -9.2744 C   0  0  1  0  0  0  0  0  0  0  0  0
   17.1974   71.1221   -8.2273 C   0  0  2  0  0  0  0  0  0  0  0  0
   19.4582   70.4734   -8.4436 C   0  0  1  0  0  0  0  0  0  0  0  0
   17.4700   69.9378   -7.3156 C   0  0  2  0  0  0  0  0  0  0  0  0
   17.1830   70.2324  -10.7418 H   0  0  0  0  0  0  0  0  0  0  0  0
   15.7766   71.8624   -9.3609 H   0  0  0  0  0  0  0  0  0  0  0  0
   16.0713   68.1109   -5.6772 O   0  0  0  0  0  0  0  0  0  0  0  0
   16.0618   71.0327   -2.1129 O   0  0  0  0  0  0  0  0  0  0  0  0
   17.0894   70.1950   -5.9552 N   0  0  0  0  0  0  0  0  0  0  0  0
   16.0679   69.5672   -3.9037 N   0  0  0  0  0  0  0  0  0  0  0  0
   16.3883   69.2110   -5.2200 C   0  0  0  0  0  0  0  0  0  0  0  0
   17.4117   71.4116   -5.3637 C   0  0  0  0  0  0  0  0  0  0  0  0
   17.0977   71.7363   -4.1078 C   0  0  0  0  0  0  0  0  0  0  0  0
   16.3650   70.7640   -3.2712 C   0  0  0  0  0  0  0  0  0  0  0  0
   15.5790   68.8974   -3.3725 H   0  0  0  0  0  0  0  0  0  0  0  0
   21.7683   71.5014   -4.2763 O   0  0  0  0  0  0  0  0  0  0  0  0
   22.6876   71.8158   -2.9844 P   0  0  2  0  0  0  0  0  0  0  0  0
   24.1408   71.2514   -3.4170 O   0  0  0  0  0  0  0  0  0  0  0  0
   22.1593   71.2459   -1.6999 O   0  0  0  0  0  0  0  0  0  0  0  0
   22.8571   73.4208   -2.9844 O   0  0  0  0  0  0  0  0  0  0  0  0
   24.4051   74.5958   -4.3406 O   0  0  0  0  0  0  0  0  0  0  0  0
   24.1188   77.2644   -1.2025 O   0  0  0  0  0  0  0  0  0  0  0  0
   22.9026   77.9051   -3.7241 O   0  0  0  0  0  0  0  0  0  0  0  0
   24.1140   74.4169   -0.6815 O   0  0  0  0  0  0  0  0  0  0  0  0
   23.6397   76.2842   -2.1271 C   0  0  1  0  0  0  0  0  0  0  0  0
   23.8223   76.8317   -3.5440 C   0  0  1  0  0  0  0  0  0  0  0  0
   24.4352   74.9932   -1.9429 C   0  0  2  0  0  0  0  0  0  0  0  0
   23.5816   75.7399   -4.5952 C   0  0  1  0  0  0  0  0  0  0  0  0
   24.1592   73.9942   -3.0681 C   0  0  1  0  0  0  0  0  0  0  0  0
   23.6174   78.0864   -1.3139 H   0  0  0  0  0  0  0  0  0  0  0  0
   23.0649   78.5874   -3.0538 H   0  0  0  0  0  0  0  0  0  0  0  0
   24.2934   75.0590    0.0223 H   0  0  0  0  0  0  0  0  0  0  0  0
   22.8543   77.0483   -6.4574 O   0  0  0  0  0  0  0  0  0  0  0  0
   23.9115   76.2218   -6.0063 C   0  0  0  0  0  0  0  0  0  0  0  0
   23.0506   77.3626   -7.3543 H   0  0  0  0  0  0  0  0  0  0  0  0
 25 28  1  0
 25 24  1  0
 25 26  1  6
 25 27  2  0
  1  4  1  0
  1 24  1  0
  1  2  1  1
  1  3  2  0
  6 11  1  0
  6 12  1  0
 29 36  1  0
 29 37  1  0
  9  7  1  6
  7 13  1  0
 10  8  1  6
  8 14  1  0
 37 28  1  6
  4  5  1  0
 33 30  1  1
 30 38  1  0
 34 31  1  6
 31 39  1  0
 35 32  1  1
 32 40  1  0
 41 42  1  0
 41 43  1  0
 15 19  2  0
 16 22  2  0
 12 17  1  1
 17 19  1  0
 17 20  1  0
 18 19  1  0
 18 22  1  0
 18 23  1  0
  9 10  1  0
  9 11  1  0
 10 12  1  0
 11  5  1  1
 33 34  1  0
 33 35  1  0
 34 36  1  0
 35 37  1  0
 36 42  1  6
 20 21  2  0
 21 22  1  0
M  CHG  2   2  -1  26  -1
M  END
>  <COMPND>  (84) 
    8629 

>  <AUTHOR>  (84) 
    GENERATED BY OPEN BABEL 3.1.1

>  <MASTER>  (84) 
        0    0    0    0    0    0    0    0   58    0   58    0

>  <minimizedAffinity>  (84) 
-6.88171

>  <CNNscore>  (84) 
0.9086617231

>  <CNNaffinity>  (84) 
4.6694850922

>  <CNN_VS>  (84) 
4.2429823875

>  <CNNaffinity_variance>  (84) 
0.2314461172

$$$$
85
     RDKit          3D

 43 45  0  0  0  0  0  0  0  0999 V2000
   20.4676   71.2370   -1.3424 P   0  0  2  0  0  0  0  0  0  0  0  0
   20.7784   70.5502    0.0891 O   0  0  0  0  0  0  0  0  0  0  0  0
   20.0349   72.6722   -1.2760 O   0  0  0  0  0  0  0  0  0  0  0  0
   19.4223   70.2197   -2.0425 O   0  0  0  0  0  0  0  0  0  0  0  0
   19.1278   70.3934   -3.4176 C   0  0  0  0  0  0  0  0  0  0  0  0
   17.4584   71.3931   -4.8274 O   0  0  0  0  0  0  0  0  0  0  0  0
   15.4519   69.8206   -3.2489 O   0  0  0  0  0  0  0  0  0  0  0  0
   15.7088   68.3411   -5.5252 O   0  0  0  0  0  0  0  0  0  0  0  0
   16.7732   69.4569   -3.6454 C   0  0  1  0  0  0  0  0  0  0  0  0
   16.8080   69.1336   -5.1246 C   0  0  2  0  0  0  0  0  0  0  0  0
   17.6453   70.7040   -3.5718 C   0  0  1  0  0  0  0  0  0  0  0  0
   16.7894   70.5180   -5.7502 C   0  0  2  0  0  0  0  0  0  0  0  0
   14.8765   69.0400   -3.2875 H   0  0  0  0  0  0  0  0  0  0  0  0
   15.7658   67.4708   -5.1009 H   0  0  0  0  0  0  0  0  0  0  0  0
   15.5031   70.5493   -8.2646 O   0  0  0  0  0  0  0  0  0  0  0  0
   19.5191   70.6717  -10.5224 O   0  0  0  0  0  0  0  0  0  0  0  0
   17.4745   70.5583   -7.0113 N   0  0  0  0  0  0  0  0  0  0  0  0
   17.5038   70.6104   -9.3868 N   0  0  0  0  0  0  0  0  0  0  0  0
   16.7347   70.5700   -8.2168 C   0  0  0  0  0  0  0  0  0  0  0  0
   18.8644   70.5861   -7.0443 C   0  0  0  0  0  0  0  0  0  0  0  0
   19.5829   70.6232   -8.1684 C   0  0  0  0  0  0  0  0  0  0  0  0
   18.8868   70.6378   -9.4712 C   0  0  0  0  0  0  0  0  0  0  0  0
   17.0100   70.6188  -10.2387 H   0  0  0  0  0  0  0  0  0  0  0  0
   21.8320   70.9834   -2.1712 O   0  0  0  0  0  0  0  0  0  0  0  0
   23.3267   71.5606   -1.9576 P   0  0  2  0  0  0  0  0  0  0  0  0
   24.2009   70.7370   -3.0415 O   0  0  0  0  0  0  0  0  0  0  0  0
   23.8309   71.4563   -0.5473 O   0  0  0  0  0  0  0  0  0  0  0  0
   23.2703   73.0655   -2.5381 O   0  0  0  0  0  0  0  0  0  0  0  0
   23.8341   73.1562   -4.8382 O   0  0  0  0  0  0  0  0  0  0  0  0
   23.8398   77.1990   -3.9977 O   0  0  0  0  0  0  0  0  0  0  0  0
   21.7065   76.0786   -5.5603 O   0  0  0  0  0  0  0  0  0  0  0  0
   24.8717   75.3185   -2.0538 O   0  0  0  0  0  0  0  0  0  0  0  0
   23.3946   75.8448   -3.8821 C   0  0  1  0  0  0  0  0  0  0  0  0
   22.9108   75.3800   -5.2571 C   0  0  1  0  0  0  0  0  0  0  0  0
   24.5555   74.9772   -3.3991 C   0  0  2  0  0  0  0  0  0  0  0  0
   22.6688   73.8647   -5.2762 C   0  0  1  0  0  0  0  0  0  0  0  0
   24.2288   73.4865   -3.5052 C   0  0  1  0  0  0  0  0  0  0  0  0
   23.1073   77.7552   -4.3035 H   0  0  0  0  0  0  0  0  0  0  0  0
   21.8729   77.0343   -5.5445 H   0  0  0  0  0  0  0  0  0  0  0  0
   25.0768   76.2645   -2.0000 H   0  0  0  0  0  0  0  0  0  0  0  0
   22.9649   72.0998   -6.8594 O   0  0  0  0  0  0  0  0  0  0  0  0
   22.3379   73.3560   -6.6776 C   0  0  0  0  0  0  0  0  0  0  0  0
   22.7628   71.7636   -7.7470 H   0  0  0  0  0  0  0  0  0  0  0  0
 25 28  1  0
 25 24  1  0
 25 26  1  6
 25 27  2  0
  1  4  1  0
  1 24  1  0
  1  2  1  1
  1  3  2  0
  6 11  1  0
  6 12  1  0
 29 36  1  0
 29 37  1  0
  9  7  1  6
  7 13  1  0
 10  8  1  6
  8 14  1  0
 37 28  1  1
  4  5  1  0
 33 30  1  6
 30 38  1  0
 34 31  1  1
 31 39  1  0
 35 32  1  1
 32 40  1  0
 41 42  1  0
 41 43  1  0
 15 19  2  0
 16 22  2  0
 12 17  1  6
 17 19  1  0
 17 20  1  0
 18 19  1  0
 18 22  1  0
 18 23  1  0
  9 10  1  0
  9 11  1  0
 10 12  1  0
 11  5  1  6
 33 34  1  0
 33 35  1  0
 34 36  1  0
 35 37  1  0
 36 42  1  6
 20 21  2  0
 21 22  1  0
M  CHG  2   2  -1  26  -1
M  END
>  <COMPND>  (85) 
    8629 

>  <AUTHOR>  (85) 
    GENERATED BY OPEN BABEL 3.1.1

>  <MASTER>  (85) 
        0    0    0    0    0    0    0    0   58    0   58    0

>  <minimizedAffinity>  (85) 
-8.45818

>  <CNNscore>  (85) 
0.8779535294

>  <CNNaffinity>  (85) 
4.6892862320

>  <CNN_VS>  (85) 
4.1169753075

>  <CNNaffinity_variance>  (85) 
0.2738008499

$$$$
86
     RDKit          3D

 43 45  0  0  0  0  0  0  0  0999 V2000
   20.4916   73.1782   -3.6771 P   0  0  2  0  0  0  0  0  0  0  0  0
   19.9506   74.6679   -3.3524 O   0  0  0  0  0  0  0  0  0  0  0  0
   20.6330   72.8594   -5.1365 O   0  0  0  0  0  0  0  0  0  0  0  0
   19.4986   72.2132   -2.8401 O   0  0  0  0  0  0  0  0  0  0  0  0
   19.0108   71.0390   -3.4656 C   0  0  0  0  0  0  0  0  0  0  0  0
   17.2750   71.6959   -4.9918 O   0  0  0  0  0  0  0  0  0  0  0  0
   15.4121   70.1017   -3.2657 O   0  0  0  0  0  0  0  0  0  0  0  0
   15.8680   68.4177   -5.3616 O   0  0  0  0  0  0  0  0  0  0  0  0
   16.7719   69.8389   -3.6082 C   0  0  1  0  0  0  0  0  0  0  0  0
   16.8701   69.3613   -5.0420 C   0  0  2  0  0  0  0  0  0  0  0  0
   17.5073   71.1720   -3.6659 C   0  0  1  0  0  0  0  0  0  0  0  0
   16.7198   70.6591   -5.8174 C   0  0  2  0  0  0  0  0  0  0  0  0
   14.9223   69.2650   -3.2225 H   0  0  0  0  0  0  0  0  0  0  0  0
   16.0071   67.6100   -4.8429 H   0  0  0  0  0  0  0  0  0  0  0  0
   15.4681   70.6421   -8.3494 O   0  0  0  0  0  0  0  0  0  0  0  0
   19.5152   70.5594  -10.5529 O   0  0  0  0  0  0  0  0  0  0  0  0
   17.4222   70.6336   -7.0693 N   0  0  0  0  0  0  0  0  0  0  0  0
   17.4842   70.6011   -9.4445 N   0  0  0  0  0  0  0  0  0  0  0  0
   16.6990   70.6261   -8.2849 C   0  0  0  0  0  0  0  0  0  0  0  0
   18.8126   70.6168   -7.0836 C   0  0  0  0  0  0  0  0  0  0  0  0
   19.5466   70.5918   -8.1980 C   0  0  0  0  0  0  0  0  0  0  0  0
   18.8684   70.5824   -9.5103 C   0  0  0  0  0  0  0  0  0  0  0  0
   17.0021   70.5951  -10.3032 H   0  0  0  0  0  0  0  0  0  0  0  0
   21.8692   73.1002   -2.8349 O   0  0  0  0  0  0  0  0  0  0  0  0
   22.9450   71.9053   -2.6677 P   0  0  2  0  0  0  0  0  0  0  0  0
   24.1692   72.3727   -3.6166 O   0  0  0  0  0  0  0  0  0  0  0  0
   22.4033   70.5410   -2.9828 O   0  0  0  0  0  0  0  0  0  0  0  0
   23.5085   72.0704   -1.1643 O   0  0  0  0  0  0  0  0  0  0  0  0
   24.4857   70.9596    0.6871 O   0  0  0  0  0  0  0  0  0  0  0  0
   20.8104   71.8749    2.3317 O   0  0  0  0  0  0  0  0  0  0  0  0
   23.1460   73.3063    3.1944 O   0  0  0  0  0  0  0  0  0  0  0  0
   20.9900   71.0653   -0.4417 O   0  0  0  0  0  0  0  0  0  0  0  0
   21.9602   72.0917    1.5093 C   0  0  1  0  0  0  0  0  0  0  0  0
   23.1964   72.1175    2.4105 C   0  0  1  0  0  0  0  0  0  0  0  0
   22.0634   70.9609    0.4875 C   0  0  2  0  0  0  0  0  0  0  0  0
   24.4872   72.0784    1.5815 C   0  0  1  0  0  0  0  0  0  0  0  0
   23.4049   70.9843   -0.2473 C   0  0  1  0  0  0  0  0  0  0  0  0
   20.7388   72.5897    2.9824 H   0  0  0  0  0  0  0  0  0  0  0  0
   22.3259   73.3188    3.7126 H   0  0  0  0  0  0  0  0  0  0  0  0
   20.1464   71.0491    0.0358 H   0  0  0  0  0  0  0  0  0  0  0  0
   26.2784   70.6542    2.2688 O   0  0  0  0  0  0  0  0  0  0  0  0
   25.7282   71.9444    2.4614 C   0  0  0  0  0  0  0  0  0  0  0  0
   27.0692   70.5547    2.8224 H   0  0  0  0  0  0  0  0  0  0  0  0
 25 28  1  0
 25 24  1  0
 25 26  1  6
 25 27  2  0
  1  4  1  0
  1 24  1  0
  1  2  1  6
  1  3  2  0
  6 11  1  0
  6 12  1  0
 29 36  1  0
 29 37  1  0
  9  7  1  6
  7 13  1  0
 10  8  1  6
  8 14  1  0
 37 28  1  1
  4  5  1  0
 33 30  1  1
 30 38  1  0
 34 31  1  6
 31 39  1  0
 35 32  1  6
 32 40  1  0
 41 42  1  0
 41 43  1  0
 15 19  2  0
 16 22  2  0
 12 17  1  6
 17 19  1  0
 17 20  1  0
 18 19  1  0
 18 22  1  0
 18 23  1  0
  9 10  1  0
  9 11  1  0
 10 12  1  0
 11  5  1  6
 33 34  1  0
 33 35  1  0
 34 36  1  0
 35 37  1  0
 36 42  1  1
 20 21  2  0
 21 22  1  0
M  CHG  2   2  -1  26  -1
M  END
>  <COMPND>  (86) 
    8629 

>  <AUTHOR>  (86) 
    GENERATED BY OPEN BABEL 3.1.1

>  <MASTER>  (86) 
        0    0    0    0    0    0    0    0   58    0   58    0

>  <minimizedAffinity>  (86) 
-7.91601

>  <CNNscore>  (86) 
0.8308968544

>  <CNNaffinity>  (86) 
4.6503248215

>  <CNN_VS>  (86) 
3.8639402390

>  <CNNaffinity_variance>  (86) 
0.1015229002

$$$$
87
     RDKit          3D

 43 45  0  0  0  0  0  0  0  0999 V2000
   22.7945   72.7180   -4.2604 P   0  0  2  0  0  0  0  0  0  0  0  0
   23.1472   73.7139   -5.4856 O   0  0  0  0  0  0  0  0  0  0  0  0
   23.9174   71.8209   -3.8295 O   0  0  0  0  0  0  0  0  0  0  0  0
   21.4438   71.9702   -4.7443 O   0  0  0  0  0  0  0  0  0  0  0  0
   20.8615   71.0042   -3.8866 C   0  0  0  0  0  0  0  0  0  0  0  0
   18.8637   71.8883   -4.8871 O   0  0  0  0  0  0  0  0  0  0  0  0
   17.3881   70.6435   -2.5927 O   0  0  0  0  0  0  0  0  0  0  0  0
   16.9594   68.8615   -4.6120 O   0  0  0  0  0  0  0  0  0  0  0  0
   18.5339   70.1644   -3.2948 C   0  0  1  0  0  0  0  0  0  0  0  0
   18.1347   69.6447   -4.6601 C   0  0  2  0  0  0  0  0  0  0  0  0
   19.4010   71.3651   -3.6526 C   0  0  1  0  0  0  0  0  0  0  0  0
   17.9477   70.9320   -5.4450 C   0  0  2  0  0  0  0  0  0  0  0  0
   16.8192   69.8945   -2.3533 H   0  0  0  0  0  0  0  0  0  0  0  0
   17.1294   68.0541   -4.1021 H   0  0  0  0  0  0  0  0  0  0  0  0
   16.0495   70.1591   -7.3885 O   0  0  0  0  0  0  0  0  0  0  0  0
   19.1720   70.3363  -10.7737 O   0  0  0  0  0  0  0  0  0  0  0  0
   18.2373   70.7688   -6.8417 N   0  0  0  0  0  0  0  0  0  0  0  0
   17.6058   70.2481   -9.0725 N   0  0  0  0  0  0  0  0  0  0  0  0
   17.2126   70.3765   -7.7343 C   0  0  0  0  0  0  0  0  0  0  0  0
   19.5252   70.9973   -7.3137 C   0  0  0  0  0  0  0  0  0  0  0  0
   19.8842   70.8692   -8.5928 C   0  0  0  0  0  0  0  0  0  0  0  0
   18.8733   70.4628   -9.5903 C   0  0  0  0  0  0  0  0  0  0  0  0
   16.9087   69.9754   -9.7125 H   0  0  0  0  0  0  0  0  0  0  0  0
   22.2612   73.7260   -3.1147 O   0  0  0  0  0  0  0  0  0  0  0  0
   23.0596   74.5960   -2.0108 P   0  0  2  0  0  0  0  0  0  0  0  0
   22.3692   76.0552   -2.1183 O   0  0  0  0  0  0  0  0  0  0  0  0
   24.5500   74.6013   -2.1918 O   0  0  0  0  0  0  0  0  0  0  0  0
   22.5603   74.0123   -0.5914 O   0  0  0  0  0  0  0  0  0  0  0  0
   23.5531   73.7457    1.5440 O   0  0  0  0  0  0  0  0  0  0  0  0
   21.6827   70.0783    1.2234 O   0  0  0  0  0  0  0  0  0  0  0  0
   20.6356   72.0510    3.0290 O   0  0  0  0  0  0  0  0  0  0  0  0
   22.9196   71.2766   -1.1033 O   0  0  0  0  0  0  0  0  0  0  0  0
   21.8271   71.4883    1.0328 C   0  0  1  0  0  0  0  0  0  0  0  0
   21.9145   72.1518    2.4087 C   0  0  1  0  0  0  0  0  0  0  0  0
   23.0961   71.7555    0.2256 C   0  0  2  0  0  0  0  0  0  0  0  0
   22.3358   73.6225    2.2888 C   0  0  1  0  0  0  0  0  0  0  0  0
   23.4530   73.2430    0.2101 C   0  0  1  0  0  0  0  0  0  0  0  0
   20.8785   69.9018    1.7349 H   0  0  0  0  0  0  0  0  0  0  0  0
   20.3811   71.1174    3.0982 H   0  0  0  0  0  0  0  0  0  0  0  0
   22.6943   70.3340   -1.0799 H   0  0  0  0  0  0  0  0  0  0  0  0
   22.7280   73.2280    4.6125 O   0  0  0  0  0  0  0  0  0  0  0  0
   22.5821   74.2601    3.6544 C   0  0  0  0  0  0  0  0  0  0  0  0
   22.8856   73.6190    5.4865 H   0  0  0  0  0  0  0  0  0  0  0  0
 25 28  1  0
 25 24  1  0
 25 26  1  1
 25 27  2  0
  1  4  1  0
  1 24  1  0
  1  2  1  6
  1  3  2  0
  6 11  1  0
  6 12  1  0
 29 36  1  0
 29 37  1  0
  9  7  1  1
  7 13  1  0
 10  8  1  1
  8 14  1  0
 37 28  1  6
  4  5  1  0
 33 30  1  1
 30 38  1  0
 34 31  1  6
 31 39  1  0
 35 32  1  6
 32 40  1  0
 41 42  1  0
 41 43  1  0
 15 19  2  0
 16 22  2  0
 12 17  1  6
 17 19  1  0
 17 20  1  0
 18 19  1  0
 18 22  1  0
 18 23  1  0
  9 10  1  0
  9 11  1  0
 10 12  1  0
 11  5  1  6
 33 34  1  0
 33 35  1  0
 34 36  1  0
 35 37  1  0
 36 42  1  1
 20 21  2  0
 21 22  1  0
M  CHG  2   2  -1  26  -1
M  END
>  <COMPND>  (87) 
    8629 

>  <AUTHOR>  (87) 
    GENERATED BY OPEN BABEL 3.1.1

>  <MASTER>  (87) 
        0    0    0    0    0    0    0    0   58    0   58    0

>  <minimizedAffinity>  (87) 
-7.74640

>  <CNNscore>  (87) 
0.8157176971

>  <CNNaffinity>  (87) 
4.6293129921

>  <CNN_VS>  (87) 
3.7762124538

>  <CNNaffinity_variance>  (87) 
0.0397309810

$$$$
88
     RDKit          3D

 43 45  0  0  0  0  0  0  0  0999 V2000
   20.1512   72.2050   -1.1578 P   0  0  2  0  0  0  0  0  0  0  0  0
   18.7748   72.9375   -0.7262 O   0  0  0  0  0  0  0  0  0  0  0  0
   21.0613   73.0256   -2.0238 O   0  0  0  0  0  0  0  0  0  0  0  0
   19.6612   70.7980   -1.7886 O   0  0  0  0  0  0  0  0  0  0  0  0
   19.2944   70.7616   -3.1568 C   0  0  0  0  0  0  0  0  0  0  0  0
   17.5756   71.6952   -4.5524 O   0  0  0  0  0  0  0  0  0  0  0  0
   15.6306   70.1636   -2.8606 O   0  0  0  0  0  0  0  0  0  0  0  0
   15.8362   68.6049   -5.0888 O   0  0  0  0  0  0  0  0  0  0  0  0
   16.9434   69.7972   -3.2822 C   0  0  1  0  0  0  0  0  0  0  0  0
   16.9387   69.4209   -4.7491 C   0  0  2  0  0  0  0  0  0  0  0  0
   17.8051   71.0537   -3.2788 C   0  0  1  0  0  0  0  0  0  0  0  0
   16.8888   70.7815   -5.4232 C   0  0  2  0  0  0  0  0  0  0  0  0
   15.0619   69.3772   -2.8544 H   0  0  0  0  0  0  0  0  0  0  0  0
   15.9139   67.7510   -4.6354 H   0  0  0  0  0  0  0  0  0  0  0  0
   15.6128   70.1291   -7.8572 O   0  0  0  0  0  0  0  0  0  0  0  0
   19.4744   70.8161  -10.2774 O   0  0  0  0  0  0  0  0  0  0  0  0
   17.5368   70.7821   -6.7044 N   0  0  0  0  0  0  0  0  0  0  0  0
   17.5366   70.4719   -9.0603 N   0  0  0  0  0  0  0  0  0  0  0  0
   16.8062   70.4380   -7.8656 C   0  0  0  0  0  0  0  0  0  0  0  0
   18.8820   71.1215   -6.8004 C   0  0  0  0  0  0  0  0  0  0  0  0
   19.5643   71.1477   -7.9472 C   0  0  0  0  0  0  0  0  0  0  0  0
   18.8748   70.8014   -9.2068 C   0  0  0  0  0  0  0  0  0  0  0  0
   17.0484   70.2355   -9.8822 H   0  0  0  0  0  0  0  0  0  0  0  0
   20.7889   71.7647    0.2608 O   0  0  0  0  0  0  0  0  0  0  0  0
   21.2473   72.6442    1.5373 P   0  0  2  0  0  0  0  0  0  0  0  0
   20.2880   72.1049    2.7232 O   0  0  0  0  0  0  0  0  0  0  0  0
   21.1850   74.1279    1.3167 O   0  0  0  0  0  0  0  0  0  0  0  0
   22.7139   72.0849    1.9132 O   0  0  0  0  0  0  0  0  0  0  0  0
   24.2338   73.6339    0.9609 O   0  0  0  0  0  0  0  0  0  0  0  0
   26.9377   71.0128    2.6548 O   0  0  0  0  0  0  0  0  0  0  0  0
   26.5440   73.6020    3.8333 O   0  0  0  0  0  0  0  0  0  0  0  0
   24.5248   69.9991    1.4180 O   0  0  0  0  0  0  0  0  0  0  0  0
   25.7142   71.7483    2.5699 C   0  0  1  0  0  0  0  0  0  0  0  0
   26.0522   73.2403    2.5458 C   0  0  1  0  0  0  0  0  0  0  0  0
   24.9759   71.3437    1.2953 C   0  0  2  0  0  0  0  0  0  0  0  0
   24.8196   74.0819    2.1889 C   0  0  1  0  0  0  0  0  0  0  0  0
   23.7967   72.2742    1.0060 C   0  0  1  0  0  0  0  0  0  0  0  0
   27.4112   71.2647    3.4622 H   0  0  0  0  0  0  0  0  0  0  0  0
   27.3219   73.0630    4.0468 H   0  0  0  0  0  0  0  0  0  0  0  0
   25.2805   69.4200    1.6007 H   0  0  0  0  0  0  0  0  0  0  0  0
   26.5689   75.7088    2.1439 O   0  0  0  0  0  0  0  0  0  0  0  0
   25.1682   75.5572    2.0047 C   0  0  0  0  0  0  0  0  0  0  0  0
   26.8054   76.6429    2.0288 H   0  0  0  0  0  0  0  0  0  0  0  0
 25 28  1  0
 25 24  1  0
 25 26  1  1
 25 27  2  0
  1  4  1  0
  1 24  1  0
  1  2  1  1
  1  3  2  0
  6 11  1  0
  6 12  1  0
 29 36  1  0
 29 37  1  0
  9  7  1  6
  7 13  1  0
 10  8  1  1
  8 14  1  0
 37 28  1  1
  4  5  1  0
 33 30  1  6
 30 38  1  0
 34 31  1  1
 31 39  1  0
 35 32  1  1
 32 40  1  0
 41 42  1  0
 41 43  1  0
 15 19  2  0
 16 22  2  0
 12 17  1  6
 17 19  1  0
 17 20  1  0
 18 19  1  0
 18 22  1  0
 18 23  1  0
  9 10  1  0
  9 11  1  0
 10 12  1  0
 11  5  1  6
 33 34  1  0
 33 35  1  0
 34 36  1  0
 35 37  1  0
 36 42  1  6
 20 21  2  0
 21 22  1  0
M  CHG  2   2  -1  26  -1
M  END
>  <COMPND>  (88) 
    8629 

>  <AUTHOR>  (88) 
    GENERATED BY OPEN BABEL 3.1.1

>  <MASTER>  (88) 
        0    0    0    0    0    0    0    0   58    0   58    0

>  <minimizedAffinity>  (88) 
-7.06691

>  <CNNscore>  (88) 
0.7790411711

>  <CNNaffinity>  (88) 
4.5216155052

>  <CNN_VS>  (88) 
3.5225245953

>  <CNNaffinity_variance>  (88) 
0.1203846782

$$$$
89
     RDKit          3D

 43 45  0  0  0  0  0  0  0  0999 V2000
   23.4080   71.7524   -3.2598 P   0  0  2  0  0  0  0  0  0  0  0  0
   24.1103   72.9290   -4.1199 O   0  0  0  0  0  0  0  0  0  0  0  0
   24.2922   70.5807   -2.9485 O   0  0  0  0  0  0  0  0  0  0  0  0
   22.0611   71.4151   -4.0903 O   0  0  0  0  0  0  0  0  0  0  0  0
   21.6111   72.3485   -5.0568 C   0  0  0  0  0  0  0  0  0  0  0  0
   20.5447   70.4448   -6.0630 O   0  0  0  0  0  0  0  0  0  0  0  0
   20.7662   71.9283   -8.6593 O   0  0  0  0  0  0  0  0  0  0  0  0
   18.1614   72.3355   -7.9623 O   0  0  0  0  0  0  0  0  0  0  0  0
   20.5122   72.4344   -7.3499 C   0  0  1  0  0  0  0  0  0  0  0  0
   19.0951   72.1092   -6.9261 C   0  0  2  0  0  0  0  0  0  0  0  0
   21.3351   71.6160   -6.3627 C   0  0  1  0  0  0  0  0  0  0  0  0
   19.2075   70.6413   -6.5508 C   0  0  2  0  0  0  0  0  0  0  0  0
   20.2517   72.4356   -9.3073 H   0  0  0  0  0  0  0  0  0  0  0  0
   18.1263   73.2835   -8.1647 H   0  0  0  0  0  0  0  0  0  0  0  0
   16.5502   69.8131   -7.0313 O   0  0  0  0  0  0  0  0  0  0  0  0
   15.7264   69.2256   -2.5349 O   0  0  0  0  0  0  0  0  0  0  0  0
   18.2767   70.2657   -5.5242 N   0  0  0  0  0  0  0  0  0  0  0  0
   16.1422   69.5211   -4.7921 N   0  0  0  0  0  0  0  0  0  0  0  0
   16.9653   69.8660   -5.8717 C   0  0  0  0  0  0  0  0  0  0  0  0
   18.6674   70.2956   -4.1899 C   0  0  0  0  0  0  0  0  0  0  0  0
   17.8701   69.9649   -3.1720 C   0  0  0  0  0  0  0  0  0  0  0  0
   16.4840   69.5359   -3.4490 C   0  0  0  0  0  0  0  0  0  0  0  0
   15.2240   69.2398   -5.0101 H   0  0  0  0  0  0  0  0  0  0  0  0
   22.8478   72.5359   -1.9616 O   0  0  0  0  0  0  0  0  0  0  0  0
   21.4516   72.3976   -1.1588 P   0  0  2  0  0  0  0  0  0  0  0  0
   21.2150   70.7982   -1.0988 O   0  0  0  0  0  0  0  0  0  0  0  0
   20.3148   73.1694   -1.7638 O   0  0  0  0  0  0  0  0  0  0  0  0
   21.8100   72.8139    0.3588 O   0  0  0  0  0  0  0  0  0  0  0  0
   23.0034   71.1758    1.5872 O   0  0  0  0  0  0  0  0  0  0  0  0
   21.8476   73.6256    4.7039 O   0  0  0  0  0  0  0  0  0  0  0  0
   24.5941   73.5990    3.8646 O   0  0  0  0  0  0  0  0  0  0  0  0
   20.0306   73.1315    2.5053 O   0  0  0  0  0  0  0  0  0  0  0  0
   22.2699   73.3241    3.3711 C   0  0  1  0  0  0  0  0  0  0  0  0
   23.6334   72.6341    3.4446 C   0  0  1  0  0  0  0  0  0  0  0  0
   21.2382   72.4078    2.7159 C   0  0  2  0  0  0  0  0  0  0  0  0
   24.0291   72.0430    2.0848 C   0  0  1  0  0  0  0  0  0  0  0  0
   21.7506   71.8352    1.3931 C   0  0  1  0  0  0  0  0  0  0  0  0
   22.4982   74.2075    5.1254 H   0  0  0  0  0  0  0  0  0  0  0  0
   24.3322   73.9649    4.7241 H   0  0  0  0  0  0  0  0  0  0  0  0
   19.7163   73.4886    3.3501 H   0  0  0  0  0  0  0  0  0  0  0  0
   24.9804   69.9282    2.6607 O   0  0  0  0  0  0  0  0  0  0  0  0
   25.3096   71.2153    2.1717 C   0  0  0  0  0  0  0  0  0  0  0  0
   25.7857   69.3902    2.7210 H   0  0  0  0  0  0  0  0  0  0  0  0
 25 28  1  0
 25 24  1  0
 25 26  1  1
 25 27  2  0
  1  4  1  0
  1 24  1  0
  1  2  1  6
  1  3  2  0
  6 11  1  0
  6 12  1  0
 29 36  1  0
 29 37  1  0
  9  7  1  6
  7 13  1  0
 10  8  1  6
  8 14  1  0
 37 28  1  6
  4  5  1  0
 33 30  1  1
 30 38  1  0
 34 31  1  6
 31 39  1  0
 35 32  1  6
 32 40  1  0
 41 42  1  0
 41 43  1  0
 15 19  2  0
 16 22  2  0
 12 17  1  1
 17 19  1  0
 17 20  1  0
 18 19  1  0
 18 22  1  0
 18 23  1  0
  9 10  1  0
  9 11  1  0
 10 12  1  0
 11  5  1  1
 33 34  1  0
 33 35  1  0
 34 36  1  0
 35 37  1  0
 36 42  1  1
 20 21  2  0
 21 22  1  0
M  CHG  2   2  -1  26  -1
M  END
>  <COMPND>  (89) 
    8629 

>  <AUTHOR>  (89) 
    GENERATED BY OPEN BABEL 3.1.1

>  <MASTER>  (89) 
        0    0    0    0    0    0    0    0   58    0   58    0

>  <minimizedAffinity>  (89) 
-7.73320

>  <CNNscore>  (89) 
0.7307189703

>  <CNNaffinity>  (89) 
4.4469833374

>  <CNN_VS>  (89) 
3.2494950294

>  <CNNaffinity_variance>  (89) 
0.1879668534

$$$$
90
     RDKit          3D

 43 45  0  0  0  0  0  0  0  0999 V2000
   21.7773   72.4499   -5.5670 P   0  0  2  0  0  0  0  0  0  0  0  0
   21.1917   73.9176   -5.2201 O   0  0  0  0  0  0  0  0  0  0  0  0
   23.0006   72.4448   -6.4358 O   0  0  0  0  0  0  0  0  0  0  0  0
   20.4980   71.6492   -6.1502 O   0  0  0  0  0  0  0  0  0  0  0  0
   20.0037   72.0045   -7.4297 C   0  0  0  0  0  0  0  0  0  0  0  0
   18.7639   69.9879   -7.0179 O   0  0  0  0  0  0  0  0  0  0  0  0
   18.0610   70.0470   -9.9322 O   0  0  0  0  0  0  0  0  0  0  0  0
   15.8048   71.0290   -8.7566 O   0  0  0  0  0  0  0  0  0  0  0  0
   18.2196   71.1326   -9.0202 C   0  0  1  0  0  0  0  0  0  0  0  0
   17.0333   71.2085   -8.0818 C   0  0  2  0  0  0  0  0  0  0  0  0
   19.3565   70.7831   -8.0680 C   0  0  1  0  0  0  0  0  0  0  0  0
   17.3328   70.0852   -7.1038 C   0  0  2  0  0  0  0  0  0  0  0  0
   17.3404   70.2473  -10.5508 H   0  0  0  0  0  0  0  0  0  0  0  0
   15.6598   71.7689   -9.3668 H   0  0  0  0  0  0  0  0  0  0  0  0
   16.3913   68.0892   -5.3410 O   0  0  0  0  0  0  0  0  0  0  0  0
   15.3228   71.1926   -2.1055 O   0  0  0  0  0  0  0  0  0  0  0  0
   16.8035   70.3434   -5.7944 N   0  0  0  0  0  0  0  0  0  0  0  0
   15.8602   69.6361   -3.7313 N   0  0  0  0  0  0  0  0  0  0  0  0
   16.3565   69.2701   -4.9890 C   0  0  0  0  0  0  0  0  0  0  0  0
   16.7321   71.6490   -5.3209 C   0  0  0  0  0  0  0  0  0  0  0  0
   16.2549   71.9814   -4.1196 C   0  0  0  0  0  0  0  0  0  0  0  0
   15.7674   70.9193   -3.2161 C   0  0  0  0  0  0  0  0  0  0  0  0
   15.5427   68.9049   -3.1530 H   0  0  0  0  0  0  0  0  0  0  0  0
   21.9860   71.7875   -4.1073 O   0  0  0  0  0  0  0  0  0  0  0  0
   23.2164   71.8849   -3.0635 P   0  0  2  0  0  0  0  0  0  0  0  0
   23.8940   73.3100   -3.4206 O   0  0  0  0  0  0  0  0  0  0  0  0
   24.1614   70.7195   -3.1157 O   0  0  0  0  0  0  0  0  0  0  0  0
   22.5165   72.1148   -1.6274 O   0  0  0  0  0  0  0  0  0  0  0  0
   22.3144   73.9777   -0.1765 O   0  0  0  0  0  0  0  0  0  0  0  0
   23.1518   71.0539    2.6165 O   0  0  0  0  0  0  0  0  0  0  0  0
   20.4946   72.1298    2.4432 O   0  0  0  0  0  0  0  0  0  0  0  0
   24.4846   71.0204    0.0471 O   0  0  0  0  0  0  0  0  0  0  0  0
   22.5845   71.5844    1.4156 C   0  0  1  0  0  0  0  0  0  0  0  0
   21.6231   72.7119    1.7967 C   0  0  1  0  0  0  0  0  0  0  0  0
   23.7069   72.1130    0.5245 C   0  0  2  0  0  0  0  0  0  0  0  0
   21.1803   73.5042    0.5593 C   0  0  1  0  0  0  0  0  0  0  0  0
   23.1601   72.9274   -0.6493 C   0  0  1  0  0  0  0  0  0  0  0  0
   22.4444   70.7161    3.1866 H   0  0  0  0  0  0  0  0  0  0  0  0
   20.7880   71.6320    3.2225 H   0  0  0  0  0  0  0  0  0  0  0  0
   24.8252   70.5129    0.7996 H   0  0  0  0  0  0  0  0  0  0  0  0
   18.9907   74.3368    1.0298 O   0  0  0  0  0  0  0  0  0  0  0  0
   20.3475   74.7288    0.9321 C   0  0  0  0  0  0  0  0  0  0  0  0
   18.4487   75.1061    1.2668 H   0  0  0  0  0  0  0  0  0  0  0  0
 25 28  1  0
 25 24  1  0
 25 26  1  6
 25 27  2  0
  1  4  1  0
  1 24  1  0
  1  2  1  1
  1  3  2  0
  6 11  1  0
  6 12  1  0
 29 36  1  0
 29 37  1  0
  9  7  1  6
  7 13  1  0
 10  8  1  6
  8 14  1  0
 37 28  1  6
  4  5  1  0
 33 30  1  1
 30 38  1  0
 34 31  1  6
 31 39  1  0
 35 32  1  6
 32 40  1  0
 41 42  1  0
 41 43  1  0
 15 19  2  0
 16 22  2  0
 12 17  1  1
 17 19  1  0
 17 20  1  0
 18 19  1  0
 18 22  1  0
 18 23  1  0
  9 10  1  0
  9 11  1  0
 10 12  1  0
 11  5  1  1
 33 34  1  0
 33 35  1  0
 34 36  1  0
 35 37  1  0
 36 42  1  1
 20 21  2  0
 21 22  1  0
M  CHG  2   2  -1  26  -1
M  END
>  <COMPND>  (90) 
    8629 

>  <AUTHOR>  (90) 
    GENERATED BY OPEN BABEL 3.1.1

>  <MASTER>  (90) 
        0    0    0    0    0    0    0    0   58    0   58    0

>  <minimizedAffinity>  (90) 
-7.77638

>  <CNNscore>  (90) 
0.7214691043

>  <CNNaffinity>  (90) 
4.5321493149

>  <CNN_VS>  (90) 
3.2698056698

>  <CNNaffinity_variance>  (90) 
0.2338224649

$$$$
91
     RDKit          3D

 43 45  0  0  0  0  0  0  0  0999 V2000
   21.8519   72.4932   -5.6489 P   0  0  2  0  0  0  0  0  0  0  0  0
   21.1524   73.9270   -5.3797 O   0  0  0  0  0  0  0  0  0  0  0  0
   23.1165   72.5463   -6.4547 O   0  0  0  0  0  0  0  0  0  0  0  0
   20.6610   71.5905   -6.2690 O   0  0  0  0  0  0  0  0  0  0  0  0
   20.0921   71.9796   -7.5071 C   0  0  0  0  0  0  0  0  0  0  0  0
   18.8653   69.9514   -7.1132 O   0  0  0  0  0  0  0  0  0  0  0  0
   18.1272   70.0547  -10.0176 O   0  0  0  0  0  0  0  0  0  0  0  0
   15.8815   71.0082   -8.7994 O   0  0  0  0  0  0  0  0  0  0  0  0
   18.2925   71.1260   -9.0901 C   0  0  1  0  0  0  0  0  0  0  0  0
   17.1173   71.1819   -8.1365 C   0  0  2  0  0  0  0  0  0  0  0  0
   19.4421   70.7659   -8.1573 C   0  0  1  0  0  0  0  0  0  0  0  0
   17.4329   70.0442   -7.1804 C   0  0  2  0  0  0  0  0  0  0  0  0
   17.3985   70.2619  -10.6242 H   0  0  0  0  0  0  0  0  0  0  0  0
   15.7262   71.7572   -9.3957 H   0  0  0  0  0  0  0  0  0  0  0  0
   16.3206   68.0463   -5.5224 O   0  0  0  0  0  0  0  0  0  0  0  0
   15.4891   71.0610   -2.1369 O   0  0  0  0  0  0  0  0  0  0  0  0
   16.9184   70.2790   -5.8608 N   0  0  0  0  0  0  0  0  0  0  0  0
   15.9076   69.5490   -3.8380 N   0  0  0  0  0  0  0  0  0  0  0  0
   16.3802   69.2070   -5.1114 C   0  0  0  0  0  0  0  0  0  0  0  0
   16.9508   71.5608   -5.3223 C   0  0  0  0  0  0  0  0  0  0  0  0
   16.4949   71.8706   -4.1068 C   0  0  0  0  0  0  0  0  0  0  0  0
   15.9168   70.8081   -3.2590 C   0  0  0  0  0  0  0  0  0  0  0  0
   15.5279   68.8183   -3.2979 H   0  0  0  0  0  0  0  0  0  0  0  0
   22.0278   71.8894   -4.1598 O   0  0  0  0  0  0  0  0  0  0  0  0
   23.2437   72.0115   -3.1016 P   0  0  2  0  0  0  0  0  0  0  0  0
   23.8832   73.4593   -3.4368 O   0  0  0  0  0  0  0  0  0  0  0  0
   24.2227   70.8746   -3.1552 O   0  0  0  0  0  0  0  0  0  0  0  0
   22.5221   72.2059   -1.6710 O   0  0  0  0  0  0  0  0  0  0  0  0
   23.4243   70.6462   -0.1316 O   0  0  0  0  0  0  0  0  0  0  0  0
   20.4325   72.2432    2.2241 O   0  0  0  0  0  0  0  0  0  0  0  0
   23.1734   72.9022    2.7730 O   0  0  0  0  0  0  0  0  0  0  0  0
   19.9632   71.7910   -0.5963 O   0  0  0  0  0  0  0  0  0  0  0  0
   21.4602   72.2663    1.2298 C   0  0  1  0  0  0  0  0  0  0  0  0
   22.7770   71.8552    1.8915 C   0  0  1  0  0  0  0  0  0  0  0  0
   21.0940   71.2931    0.1108 C   0  0  2  0  0  0  0  0  0  0  0  0
   23.8674   71.5982    0.8427 C   0  0  1  0  0  0  0  0  0  0  0  0
   22.2638   71.0704   -0.8494 C   0  0  1  0  0  0  0  0  0  0  0  0
   20.6586   72.8594    2.9373 H   0  0  0  0  0  0  0  0  0  0  0  0
   22.4760   73.0548    3.4299 H   0  0  0  0  0  0  0  0  0  0  0  0
   19.2295   71.9275    0.0224 H   0  0  0  0  0  0  0  0  0  0  0  0
   24.7821   70.2444    2.5861 O   0  0  0  0  0  0  0  0  0  0  0  0
   25.1417   71.0357    1.4686 C   0  0  0  0  0  0  0  0  0  0  0  0
   25.5832   69.8795    2.9944 H   0  0  0  0  0  0  0  0  0  0  0  0
 25 28  1  0
 25 24  1  0
 25 26  1  6
 25 27  2  0
  1  4  1  0
  1 24  1  0
  1  2  1  1
  1  3  2  0
  6 11  1  0
  6 12  1  0
 29 36  1  0
 29 37  1  0
  9  7  1  6
  7 13  1  0
 10  8  1  6
  8 14  1  0
 37 28  1  1
  4  5  1  0
 33 30  1  1
 30 38  1  0
 34 31  1  1
 31 39  1  0
 35 32  1  6
 32 40  1  0
 41 42  1  0
 41 43  1  0
 15 19  2  0
 16 22  2  0
 12 17  1  1
 17 19  1  0
 17 20  1  0
 18 19  1  0
 18 22  1  0
 18 23  1  0
  9 10  1  0
  9 11  1  0
 10 12  1  0
 11  5  1  1
 33 34  1  0
 33 35  1  0
 34 36  1  0
 35 37  1  0
 36 42  1  1
 20 21  2  0
 21 22  1  0
M  CHG  2   2  -1  26  -1
M  END
>  <COMPND>  (91) 
    8629 

>  <AUTHOR>  (91) 
    GENERATED BY OPEN BABEL 3.1.1

>  <MASTER>  (91) 
        0    0    0    0    0    0    0    0   58    0   58    0

>  <minimizedAffinity>  (91) 
-8.41721

>  <CNNscore>  (91) 
0.7114841938

>  <CNNaffinity>  (91) 
4.4744277000

>  <CNN_VS>  (91) 
3.1834845543

>  <CNNaffinity_variance>  (91) 
0.2807032466

$$$$
92
     RDKit          3D

 43 45  0  0  0  0  0  0  0  0999 V2000
   17.9414   73.7264   -0.8304 P   0  0  2  0  0  0  0  0  0  0  0  0
   16.9132   74.0886    0.3650 O   0  0  0  0  0  0  0  0  0  0  0  0
   18.2517   74.8591   -1.7644 O   0  0  0  0  0  0  0  0  0  0  0  0
   17.2949   72.4097   -1.5132 O   0  0  0  0  0  0  0  0  0  0  0  0
   16.8989   72.4779   -2.8720 C   0  0  0  0  0  0  0  0  0  0  0  0
   15.9660   71.1215   -4.6223 O   0  0  0  0  0  0  0  0  0  0  0  0
   15.4285   69.0772   -2.4955 O   0  0  0  0  0  0  0  0  0  0  0  0
   17.6812   68.1123   -3.6918 O   0  0  0  0  0  0  0  0  0  0  0  0
   16.5316   69.9721   -2.6285 C   0  0  1  0  0  0  0  0  0  0  0  0
   17.4560   69.5066   -3.7341 C   0  0  2  0  0  0  0  0  0  0  0  0
   16.0039   71.2874   -3.1879 C   0  0  1  0  0  0  0  0  0  0  0  0
   16.7009   69.9394   -4.9793 C   0  0  2  0  0  0  0  0  0  0  0  0
   15.7409   68.2300   -2.1396 H   0  0  0  0  0  0  0  0  0  0  0  0
   18.1644   67.8871   -2.8815 H   0  0  0  0  0  0  0  0  0  0  0  0
   15.9040   70.0385   -7.6873 O   0  0  0  0  0  0  0  0  0  0  0  0
   20.1556   71.1350   -9.0885 O   0  0  0  0  0  0  0  0  0  0  0  0
   17.5789   70.2487   -6.0725 N   0  0  0  0  0  0  0  0  0  0  0  0
   18.0216   70.5846   -8.3828 N   0  0  0  0  0  0  0  0  0  0  0  0
   17.0789   70.2712   -7.3953 C   0  0  0  0  0  0  0  0  0  0  0  0
   18.9195   70.5258   -5.8275 C   0  0  0  0  0  0  0  0  0  0  0  0
   19.8058   70.8216   -6.7805 C   0  0  0  0  0  0  0  0  0  0  0  0
   19.3647   70.8662   -8.1896 C   0  0  0  0  0  0  0  0  0  0  0  0
   17.6961   70.6058   -9.3120 H   0  0  0  0  0  0  0  0  0  0  0  0
   19.2223   73.1349   -0.0415 O   0  0  0  0  0  0  0  0  0  0  0  0
   20.4679   72.2433   -0.5574 P   0  0  2  0  0  0  0  0  0  0  0  0
   20.9724   73.0370   -1.8738 O   0  0  0  0  0  0  0  0  0  0  0  0
   20.1342   70.7990   -0.7951 O   0  0  0  0  0  0  0  0  0  0  0  0
   21.6282   72.4903    0.5371 O   0  0  0  0  0  0  0  0  0  0  0  0
   22.8695   71.0772    1.9789 O   0  0  0  0  0  0  0  0  0  0  0  0
   22.0571   74.1545    4.6097 O   0  0  0  0  0  0  0  0  0  0  0  0
   24.7209   73.8298    3.5864 O   0  0  0  0  0  0  0  0  0  0  0  0
   20.0467   73.3161    2.7032 O   0  0  0  0  0  0  0  0  0  0  0  0
   22.3560   73.5721    3.3381 C   0  0  1  0  0  0  0  0  0  0  0  0
   23.6988   72.8470    3.4464 C   0  0  1  0  0  0  0  0  0  0  0  0
   21.2448   72.5929    2.9640 C   0  0  2  0  0  0  0  0  0  0  0  0
   23.9599   71.9769    2.2095 C   0  0  1  0  0  0  0  0  0  0  0  0
   21.6259   71.7429    1.7506 C   0  0  1  0  0  0  0  0  0  0  0  0
   22.7586   74.7776    4.8529 H   0  0  0  0  0  0  0  0  0  0  0  0
   24.5439   74.3727    4.3707 H   0  0  0  0  0  0  0  0  0  0  0  0
   19.8160   73.8500    3.4789 H   0  0  0  0  0  0  0  0  0  0  0  0
   24.8481   69.7598    2.2764 O   0  0  0  0  0  0  0  0  0  0  0  0
   25.2169   71.1238    2.3654 C   0  0  0  0  0  0  0  0  0  0  0  0
   25.6382   69.2049    2.3735 H   0  0  0  0  0  0  0  0  0  0  0  0
 25 28  1  0
 25 24  1  0
 25 26  1  6
 25 27  2  0
  1  4  1  0
  1 24  1  0
  1  2  1  1
  1  3  2  0
  6 11  1  0
  6 12  1  0
 29 36  1  0
 29 37  1  0
  9  7  1  6
  7 13  1  0
 10  8  1  6
  8 14  1  0
 37 28  1  6
  4  5  1  0
 33 30  1  1
 30 38  1  0
 34 31  1  6
 31 39  1  0
 35 32  1  6
 32 40  1  0
 41 42  1  0
 41 43  1  0
 15 19  2  0
 16 22  2  0
 12 17  1  6
 17 19  1  0
 17 20  1  0
 18 19  1  0
 18 22  1  0
 18 23  1  0
  9 10  1  0
  9 11  1  0
 10 12  1  0
 11  5  1  6
 33 34  1  0
 33 35  1  0
 34 36  1  0
 35 37  1  0
 36 42  1  1
 20 21  2  0
 21 22  1  0
M  CHG  2   2  -1  26  -1
M  END
>  <COMPND>  (92) 
    8629 

>  <AUTHOR>  (92) 
    GENERATED BY OPEN BABEL 3.1.1

>  <MASTER>  (92) 
        0    0    0    0    0    0    0    0   58    0   58    0

>  <minimizedAffinity>  (92) 
-6.61686

>  <CNNscore>  (92) 
0.6503883600

>  <CNNaffinity>  (92) 
4.3022794724

>  <CNN_VS>  (92) 
2.7981524467

>  <CNNaffinity_variance>  (92) 
0.0558901019

$$$$
93
     RDKit          3D

 43 45  0  0  0  0  0  0  0  0999 V2000
   22.2897   72.8670   -6.6996 P   0  0  2  0  0  0  0  0  0  0  0  0
   23.1801   73.6051   -7.8309 O   0  0  0  0  0  0  0  0  0  0  0  0
   23.0709   72.2833   -5.5592 O   0  0  0  0  0  0  0  0  0  0  0  0
   21.3843   71.8212   -7.5390 O   0  0  0  0  0  0  0  0  0  0  0  0
   19.9755   71.9692   -7.5070 C   0  0  0  0  0  0  0  0  0  0  0  0
   18.7402   69.9407   -7.1420 O   0  0  0  0  0  0  0  0  0  0  0  0
   18.0489   70.0580  -10.0573 O   0  0  0  0  0  0  0  0  0  0  0  0
   15.7850   71.0086   -8.8709 O   0  0  0  0  0  0  0  0  0  0  0  0
   18.2005   71.1249   -9.1224 C   0  0  1  0  0  0  0  0  0  0  0  0
   17.0102   71.1779   -8.1875 C   0  0  2  0  0  0  0  0  0  0  0  0
   19.3346   70.7593   -8.1730 C   0  0  1  0  0  0  0  0  0  0  0  0
   17.3092   70.0354   -7.2317 C   0  0  2  0  0  0  0  0  0  0  0  0
   17.3302   70.2688  -10.6746 H   0  0  0  0  0  0  0  0  0  0  0  0
   15.6401   71.7605   -9.4662 H   0  0  0  0  0  0  0  0  0  0  0  0
   16.6218   67.9905   -5.4086 O   0  0  0  0  0  0  0  0  0  0  0  0
   15.2624   71.0336   -2.2253 O   0  0  0  0  0  0  0  0  0  0  0  0
   16.7739   70.2650   -5.9194 N   0  0  0  0  0  0  0  0  0  0  0  0
   15.9456   69.5074   -3.8250 N   0  0  0  0  0  0  0  0  0  0  0  0
   16.4610   69.1685   -5.0826 C   0  0  0  0  0  0  0  0  0  0  0  0
   16.5646   71.5656   -5.4741 C   0  0  0  0  0  0  0  0  0  0  0  0
   16.0711   71.8719   -4.2725 C   0  0  0  0  0  0  0  0  0  0  0  0
   15.7183   70.7845   -3.3371 C   0  0  0  0  0  0  0  0  0  0  0  0
   15.7201   68.7598   -3.2250 H   0  0  0  0  0  0  0  0  0  0  0  0
   21.2263   74.0072   -6.2728 O   0  0  0  0  0  0  0  0  0  0  0  0
   21.2607   75.0977   -5.0801 P   0  0  2  0  0  0  0  0  0  0  0  0
   19.8830   75.9197   -5.2892 O   0  0  0  0  0  0  0  0  0  0  0  0
   22.4950   75.9521   -5.0629 O   0  0  0  0  0  0  0  0  0  0  0  0
   21.0229   74.2390   -3.7344 O   0  0  0  0  0  0  0  0  0  0  0  0
   19.4128   72.5017   -3.8133 O   0  0  0  0  0  0  0  0  0  0  0  0
   19.6971   72.9523    0.2814 O   0  0  0  0  0  0  0  0  0  0  0  0
   20.8378   70.6340   -0.9726 O   0  0  0  0  0  0  0  0  0  0  0  0
   19.7918   75.2796   -1.4373 O   0  0  0  0  0  0  0  0  0  0  0  0
   20.1818   72.9323   -1.0639 C   0  0  1  0  0  0  0  0  0  0  0  0
   19.9522   71.5319   -1.6357 C   0  0  1  0  0  0  0  0  0  0  0  0
   19.4263   73.9777   -1.8823 C   0  0  2  0  0  0  0  0  0  0  0  0
   20.1987   71.5046   -3.1502 C   0  0  1  0  0  0  0  0  0  0  0  0
   19.7040   73.8317   -3.3795 C   0  0  1  0  0  0  0  0  0  0  0  0
   20.1731   72.2910    0.8065 H   0  0  0  0  0  0  0  0  0  0  0  0
   20.6721   70.6612   -0.0171 H   0  0  0  0  0  0  0  0  0  0  0  0
   19.6108   75.3594   -0.4882 H   0  0  0  0  0  0  0  0  0  0  0  0
   18.9452   69.4883   -2.8815 O   0  0  0  0  0  0  0  0  0  0  0  0
   19.8238   70.1585   -3.7664 C   0  0  0  0  0  0  0  0  0  0  0  0
   18.6979   68.6300   -3.2609 H   0  0  0  0  0  0  0  0  0  0  0  0
 25 28  1  0
 25 24  1  0
 25 26  1  6
 25 27  2  0
  1  4  1  0
  1 24  1  0
  1  2  1  6
  1  3  2  0
  6 11  1  0
  6 12  1  0
 29 36  1  0
 29 37  1  0
  9  7  1  6
  7 13  1  0
 10  8  1  6
  8 14  1  0
 37 28  1  1
  4  5  1  0
 33 30  1  1
 30 38  1  0
 34 31  1  1
 31 39  1  0
 35 32  1  1
 32 40  1  0
 41 42  1  0
 41 43  1  0
 15 19  2  0
 16 22  2  0
 12 17  1  1
 17 19  1  0
 17 20  1  0
 18 19  1  0
 18 22  1  0
 18 23  1  0
  9 10  1  0
  9 11  1  0
 10 12  1  0
 11  5  1  1
 33 34  1  0
 33 35  1  0
 34 36  1  0
 35 37  1  0
 36 42  1  6
 20 21  2  0
 21 22  1  0
M  CHG  2   2  -1  26  -1
M  END
>  <COMPND>  (93) 
    8629 

>  <AUTHOR>  (93) 
    GENERATED BY OPEN BABEL 3.1.1

>  <MASTER>  (93) 
        0    0    0    0    0    0    0    0   58    0   58    0

>  <minimizedAffinity>  (93) 
-6.75827

>  <CNNscore>  (93) 
0.6350418329

>  <CNNaffinity>  (93) 
4.2764310837

>  <CNN_VS>  (93) 
2.7157125473

>  <CNNaffinity_variance>  (93) 
0.5939482450

$$$$
94
     RDKit          3D

 43 45  0  0  0  0  0  0  0  0999 V2000
   23.1524   71.6082   -2.8876 P   0  0  2  0  0  0  0  0  0  0  0  0
   23.3948   73.2040   -2.9982 O   0  0  0  0  0  0  0  0  0  0  0  0
   24.3734   70.7648   -3.1101 O   0  0  0  0  0  0  0  0  0  0  0  0
   21.9153   71.3326   -3.8933 O   0  0  0  0  0  0  0  0  0  0  0  0
   21.6047   72.3132   -4.8678 C   0  0  0  0  0  0  0  0  0  0  0  0
   20.5485   70.4605   -5.9748 O   0  0  0  0  0  0  0  0  0  0  0  0
   20.9016   72.0176   -8.5129 O   0  0  0  0  0  0  0  0  0  0  0  0
   18.2777   72.4510   -7.9099 O   0  0  0  0  0  0  0  0  0  0  0  0
   20.6027   72.4884   -7.1998 C   0  0  1  0  0  0  0  0  0  0  0  0
   19.1640   72.1764   -6.8442 C   0  0  2  0  0  0  0  0  0  0  0  0
   21.3703   71.6257   -6.2059 C   0  0  1  0  0  0  0  0  0  0  0  0
   19.2359   70.6960   -6.5102 C   0  0  2  0  0  0  0  0  0  0  0  0
   20.4229   72.5536   -9.1652 H   0  0  0  0  0  0  0  0  0  0  0  0
   18.2670   73.4050   -8.0842 H   0  0  0  0  0  0  0  0  0  0  0  0
   16.6046   69.8761   -7.1280 O   0  0  0  0  0  0  0  0  0  0  0  0
   15.5682   69.2260   -2.6845 O   0  0  0  0  0  0  0  0  0  0  0  0
   18.2575   70.3066   -5.5343 N   0  0  0  0  0  0  0  0  0  0  0  0
   16.0907   69.5529   -4.9150 N   0  0  0  0  0  0  0  0  0  0  0  0
   16.9641   69.9125   -5.9494 C   0  0  0  0  0  0  0  0  0  0  0  0
   18.5843   70.3176   -4.1827 C   0  0  0  0  0  0  0  0  0  0  0  0
   17.7396   69.9731   -3.2086 C   0  0  0  0  0  0  0  0  0  0  0  0
   16.3683   69.5487   -3.5572 C   0  0  0  0  0  0  0  0  0  0  0  0
   15.1840   69.2752   -5.1803 H   0  0  0  0  0  0  0  0  0  0  0  0
   22.4778   71.4433   -1.4279 O   0  0  0  0  0  0  0  0  0  0  0  0
   21.0416   71.9230   -0.8620 P   0  0  2  0  0  0  0  0  0  0  0  0
   20.1735   70.5578   -0.8480 O   0  0  0  0  0  0  0  0  0  0  0  0
   20.4177   73.0457   -1.6393 O   0  0  0  0  0  0  0  0  0  0  0  0
   21.3061   72.2538    0.6955 O   0  0  0  0  0  0  0  0  0  0  0  0
   20.7535   74.1446    2.0131 O   0  0  0  0  0  0  0  0  0  0  0  0
   24.4790   73.3101    3.5863 O   0  0  0  0  0  0  0  0  0  0  0  0
   22.1273   72.7527    5.1378 O   0  0  0  0  0  0  0  0  0  0  0  0
   24.0095   73.0048    0.7463 O   0  0  0  0  0  0  0  0  0  0  0  0
   23.2052   72.9966    3.0166 C   0  0  1  0  0  0  0  0  0  0  0  0
   22.1175   73.5360    3.9476 C   0  0  1  0  0  0  0  0  0  0  0  0
   23.1022   73.6447    1.6372 C   0  0  2  0  0  0  0  0  0  0  0  0
   20.7371   73.4763    3.2799 C   0  0  1  0  0  0  0  0  0  0  0  0
   21.6775   73.5736    1.0847 C   0  0  1  0  0  0  0  0  0  0  0  0
   24.5510   72.9011    4.4621 H   0  0  0  0  0  0  0  0  0  0  0  0
   23.0047   72.7985    5.5493 H   0  0  0  0  0  0  0  0  0  0  0  0
   24.9078   73.0570    1.1072 H   0  0  0  0  0  0  0  0  0  0  0  0
   20.0511   75.4945    4.3593 O   0  0  0  0  0  0  0  0  0  0  0  0
   19.6621   74.1532    4.1274 C   0  0  0  0  0  0  0  0  0  0  0  0
   19.3760   75.9379    4.8973 H   0  0  0  0  0  0  0  0  0  0  0  0
 25 28  1  0
 25 24  1  0
 25 26  1  1
 25 27  2  0
  1  4  1  0
  1 24  1  0
  1  2  1  1
  1  3  2  0
  6 11  1  0
  6 12  1  0
 29 36  1  0
 29 37  1  0
  9  7  1  6
  7 13  1  0
 10  8  1  6
  8 14  1  0
 37 28  1  1
  4  5  1  0
 33 30  1  1
 30 38  1  0
 34 31  1  1
 31 39  1  0
 35 32  1  6
 32 40  1  0
 41 42  1  0
 41 43  1  0
 15 19  2  0
 16 22  2  0
 12 17  1  1
 17 19  1  0
 17 20  1  0
 18 19  1  0
 18 22  1  0
 18 23  1  0
  9 10  1  0
  9 11  1  0
 10 12  1  0
 11  5  1  1
 33 34  1  0
 33 35  1  0
 34 36  1  0
 35 37  1  0
 36 42  1  1
 20 21  2  0
 21 22  1  0
M  CHG  2   2  -1  26  -1
M  END
>  <COMPND>  (94) 
    8629 

>  <AUTHOR>  (94) 
    GENERATED BY OPEN BABEL 3.1.1

>  <MASTER>  (94) 
        0    0    0    0    0    0    0    0   58    0   58    0

>  <minimizedAffinity>  (94) 
-7.04339

>  <CNNscore>  (94) 
0.6061427593

>  <CNNaffinity>  (94) 
4.1821680069

>  <CNN_VS>  (94) 
2.5349907875

>  <CNNaffinity_variance>  (94) 
0.2750654817

$$$$
95
     RDKit          3D

 43 45  0  0  0  0  0  0  0  0999 V2000
   23.0696   72.3924   -3.3966 P   0  0  2  0  0  0  0  0  0  0  0  0
   22.7569   71.1832   -2.3682 O   0  0  0  0  0  0  0  0  0  0  0  0
   24.4294   72.3504   -4.0295 O   0  0  0  0  0  0  0  0  0  0  0  0
   22.7327   73.7251   -2.5431 O   0  0  0  0  0  0  0  0  0  0  0  0
   21.7882   73.6332   -1.4909 C   0  0  0  0  0  0  0  0  0  0  0  0
   19.6469   73.9112   -2.5451 O   0  0  0  0  0  0  0  0  0  0  0  0
   19.3017   76.3144   -0.7855 O   0  0  0  0  0  0  0  0  0  0  0  0
   17.8168   74.4205    0.4970 O   0  0  0  0  0  0  0  0  0  0  0  0
   19.9377   75.0700   -0.4986 C   0  0  1  0  0  0  0  0  0  0  0  0
   18.9015   73.9842   -0.2966 C   0  0  2  0  0  0  0  0  0  0  0  0
   20.6460   74.6023   -1.7639 C   0  0  1  0  0  0  0  0  0  0  0  0
   18.4915   73.6702   -1.7254 C   0  0  2  0  0  0  0  0  0  0  0  0
   18.8428   76.6333    0.0080 H   0  0  0  0  0  0  0  0  0  0  0  0
   18.1285   74.6075    1.3963 H   0  0  0  0  0  0  0  0  0  0  0  0
   15.8061   72.7961   -1.6785 O   0  0  0  0  0  0  0  0  0  0  0  0
   17.0310   68.4063   -2.3643 O   0  0  0  0  0  0  0  0  0  0  0  0
   18.0800   72.3045   -1.8895 N   0  0  0  0  0  0  0  0  0  0  0  0
   16.4182   70.6111   -2.0202 N   0  0  0  0  0  0  0  0  0  0  0  0
   16.7061   71.9711   -1.8486 C   0  0  0  0  0  0  0  0  0  0  0  0
   19.0340   71.3124   -2.0886 C   0  0  0  0  0  0  0  0  0  0  0  0
   18.7430   70.0198   -2.2492 C   0  0  0  0  0  0  0  0  0  0  0  0
   17.3309   69.5875   -2.2198 C   0  0  0  0  0  0  0  0  0  0  0  0
   15.4675   70.3553   -1.9950 H   0  0  0  0  0  0  0  0  0  0  0  0
   21.8386   72.3089   -4.4409 O   0  0  0  0  0  0  0  0  0  0  0  0
   21.4574   73.2362   -5.7089 P   0  0  2  0  0  0  0  0  0  0  0  0
   22.6716   72.9671   -6.7437 O   0  0  0  0  0  0  0  0  0  0  0  0
   21.2414   74.6828   -5.3704 O   0  0  0  0  0  0  0  0  0  0  0  0
   20.1821   72.5083   -6.3786 O   0  0  0  0  0  0  0  0  0  0  0  0
   19.3180   70.3115   -6.1683 O   0  0  0  0  0  0  0  0  0  0  0  0
   18.7190   70.8715  -10.2153 O   0  0  0  0  0  0  0  0  0  0  0  0
   16.4669   70.8856   -8.4333 O   0  0  0  0  0  0  0  0  0  0  0  0
   21.1139   71.8983   -8.9544 O   0  0  0  0  0  0  0  0  0  0  0  0
   18.7927   71.2651   -8.8424 C   0  0  1  0  0  0  0  0  0  0  0  0
   17.7683   70.4472   -8.0534 C   0  0  1  0  0  0  0  0  0  0  0  0
   20.2051   71.0028   -8.3230 C   0  0  2  0  0  0  0  0  0  0  0  0
   17.9693   70.6175   -6.5415 C   0  0  1  0  0  0  0  0  0  0  0  0
   20.2845   71.1514   -6.8026 C   0  0  1  0  0  0  0  0  0  0  0  0
   17.8248   71.0359  -10.5514 H   0  0  0  0  0  0  0  0  0  0  0  0
   16.3530   70.7732   -9.3902 H   0  0  0  0  0  0  0  0  0  0  0  0
   21.0543   71.7943   -9.9164 H   0  0  0  0  0  0  0  0  0  0  0  0
   15.9178   70.4197   -5.3328 O   0  0  0  0  0  0  0  0  0  0  0  0
   17.0622   69.6901   -5.7359 C   0  0  0  0  0  0  0  0  0  0  0  0
   15.3311   69.8420   -4.8192 H   0  0  0  0  0  0  0  0  0  0  0  0
 25 28  1  0
 25 24  1  0
 25 26  1  6
 25 27  2  0
  1  4  1  0
  1 24  1  0
  1  2  1  1
  1  3  2  0
  6 11  1  0
  6 12  1  0
 29 36  1  0
 29 37  1  0
  9  7  1  6
  7 13  1  0
 10  8  1  1
  8 14  1  0
 37 28  1  6
  4  5  1  0
 33 30  1  6
 30 38  1  0
 34 31  1  6
 31 39  1  0
 35 32  1  6
 32 40  1  0
 41 42  1  0
 41 43  1  0
 15 19  2  0
 16 22  2  0
 12 17  1  1
 17 19  1  0
 17 20  1  0
 18 19  1  0
 18 22  1  0
 18 23  1  0
  9 10  1  0
  9 11  1  0
 10 12  1  0
 11  5  1  1
 33 34  1  0
 33 35  1  0
 34 36  1  0
 35 37  1  0
 36 42  1  1
 20 21  2  0
 21 22  1  0
M  CHG  2   2  -1  26  -1
M  END
>  <COMPND>  (95) 
    8629 

>  <AUTHOR>  (95) 
    GENERATED BY OPEN BABEL 3.1.1

>  <MASTER>  (95) 
        0    0    0    0    0    0    0    0   58    0   58    0

>  <minimizedAffinity>  (95) 
-6.71264

>  <CNNscore>  (95) 
0.6044808030

>  <CNNaffinity>  (95) 
4.2058763504

>  <CNN_VS>  (95) 
2.5423715115

>  <CNNaffinity_variance>  (95) 
0.4453202188

$$$$
96
     RDKit          3D

 43 45  0  0  0  0  0  0  0  0999 V2000
   20.0604   73.3209   -0.4834 P   0  0  2  0  0  0  0  0  0  0  0  0
   18.7696   73.1605   -1.4454 O   0  0  0  0  0  0  0  0  0  0  0  0
   19.8040   74.0441    0.8060 O   0  0  0  0  0  0  0  0  0  0  0  0
   21.1830   73.9776   -1.4461 O   0  0  0  0  0  0  0  0  0  0  0  0
   21.0762   73.7758   -2.8446 C   0  0  0  0  0  0  0  0  0  0  0  0
   21.2917   71.5832   -3.8037 O   0  0  0  0  0  0  0  0  0  0  0  0
   24.1603   72.2922   -4.3130 O   0  0  0  0  0  0  0  0  0  0  0  0
   23.0143   72.6567   -6.7605 O   0  0  0  0  0  0  0  0  0  0  0  0
   23.0013   73.1219   -4.3741 C   0  0  1  0  0  0  0  0  0  0  0  0
   22.1964   72.8099   -5.6184 C   0  0  2  0  0  0  0  0  0  0  0  0
   22.0530   72.6858   -3.2642 C   0  0  1  0  0  0  0  0  0  0  0  0
   21.4946   71.5212   -5.2249 C   0  0  2  0  0  0  0  0  0  0  0  0
   24.7810   72.5520   -5.0123 H   0  0  0  0  0  0  0  0  0  0  0  0
   23.4385   73.5033   -6.9705 H   0  0  0  0  0  0  0  0  0  0  0  0
   21.0627   69.9990   -7.5646 O   0  0  0  0  0  0  0  0  0  0  0  0
   16.5684   71.0185   -7.6184 O   0  0  0  0  0  0  0  0  0  0  0  0
   20.2215   71.3713   -5.8716 N   0  0  0  0  0  0  0  0  0  0  0  0
   18.8252   70.5077   -7.5894 N   0  0  0  0  0  0  0  0  0  0  0  0
   20.1124   70.5856   -7.0425 C   0  0  0  0  0  0  0  0  0  0  0  0
   19.0982   71.9991   -5.3443 C   0  0  0  0  0  0  0  0  0  0  0  0
   17.8780   71.9159   -5.8786 C   0  0  0  0  0  0  0  0  0  0  0  0
   17.6780   71.1144   -7.1031 C   0  0  0  0  0  0  0  0  0  0  0  0
   18.7252   69.9661   -8.4057 H   0  0  0  0  0  0  0  0  0  0  0  0
   20.5759   71.7987   -0.3100 O   0  0  0  0  0  0  0  0  0  0  0  0
   21.8967   71.2001    0.4041 P   0  0  2  0  0  0  0  0  0  0  0  0
   22.9834   71.1664   -0.7940 O   0  0  0  0  0  0  0  0  0  0  0  0
   21.6834   69.8786    1.0840 O   0  0  0  0  0  0  0  0  0  0  0  0
   22.4036   72.3807    1.3810 O   0  0  0  0  0  0  0  0  0  0  0  0
   24.0071   72.4825    3.1231 O   0  0  0  0  0  0  0  0  0  0  0  0
   21.0034   74.7215    4.8595 O   0  0  0  0  0  0  0  0  0  0  0  0
   23.3785   76.0283    3.9113 O   0  0  0  0  0  0  0  0  0  0  0  0
   20.3366   72.3897    3.2791 O   0  0  0  0  0  0  0  0  0  0  0  0
   21.8060   74.2307    3.7824 C   0  0  1  0  0  0  0  0  0  0  0  0
   23.2615   74.6155    4.0548 C   0  0  1  0  0  0  0  0  0  0  0  0
   21.6574   72.7126    3.7007 C   0  0  2  0  0  0  0  0  0  0  0  0
   24.2140   73.8995    3.0878 C   0  0  1  0  0  0  0  0  0  0  0  0
   22.6836   72.0951    2.7490 C   0  0  1  0  0  0  0  0  0  0  0  0
   21.0928   75.6849    4.9166 H   0  0  0  0  0  0  0  0  0  0  0  0
   22.7715   76.4684    4.5270 H   0  0  0  0  0  0  0  0  0  0  0  0
   19.6965   72.7861    3.8898 H   0  0  0  0  0  0  0  0  0  0  0  0
   26.2564   74.9512    2.4307 O   0  0  0  0  0  0  0  0  0  0  0  0
   25.6792   74.1453    3.4415 C   0  0  0  0  0  0  0  0  0  0  0  0
   27.1889   75.1161    2.6427 H   0  0  0  0  0  0  0  0  0  0  0  0
 25 28  1  0
 25 24  1  0
 25 26  1  6
 25 27  2  0
  1  4  1  0
  1 24  1  0
  1  2  1  6
  1  3  2  0
  6 11  1  0
  6 12  1  0
 29 36  1  0
 29 37  1  0
  9  7  1  6
  7 13  1  0
 10  8  1  6
  8 14  1  0
 37 28  1  6
  4  5  1  0
 33 30  1  1
 30 38  1  0
 34 31  1  6
 31 39  1  0
 35 32  1  6
 32 40  1  0
 41 42  1  0
 41 43  1  0
 15 19  2  0
 16 22  2  0
 12 17  1  6
 17 19  1  0
 17 20  1  0
 18 19  1  0
 18 22  1  0
 18 23  1  0
  9 10  1  0
  9 11  1  0
 10 12  1  0
 11  5  1  6
 33 34  1  0
 33 35  1  0
 34 36  1  0
 35 37  1  0
 36 42  1  1
 20 21  2  0
 21 22  1  0
M  CHG  2   2  -1  26  -1
M  END
>  <COMPND>  (96) 
    8629 

>  <AUTHOR>  (96) 
    GENERATED BY OPEN BABEL 3.1.1

>  <MASTER>  (96) 
        0    0    0    0    0    0    0    0   58    0   58    0

>  <minimizedAffinity>  (96) 
-6.66738

>  <CNNscore>  (96) 
0.5594428778

>  <CNNaffinity>  (96) 
4.1900062561

>  <CNN_VS>  (96) 
2.3440692425

>  <CNNaffinity_variance>  (96) 
0.0308269169

$$$$
97
     RDKit          3D

 43 45  0  0  0  0  0  0  0  0999 V2000
   22.2704   71.7052   -2.6711 P   0  0  2  0  0  0  0  0  0  0  0  0
   23.5748   70.9510   -3.2603 O   0  0  0  0  0  0  0  0  0  0  0  0
   22.2550   73.1925   -2.8689 O   0  0  0  0  0  0  0  0  0  0  0  0
   22.1896   71.1997   -1.1362 O   0  0  0  0  0  0  0  0  0  0  0  0
   22.0858   72.1704   -0.1092 C   0  0  0  0  0  0  0  0  0  0  0  0
   20.3536   72.1616    1.5561 O   0  0  0  0  0  0  0  0  0  0  0  0
   18.8239   73.9575   -0.2947 O   0  0  0  0  0  0  0  0  0  0  0  0
   19.8268   75.7092    1.5390 O   0  0  0  0  0  0  0  0  0  0  0  0
   20.2271   73.9064   -0.0425 C   0  0  1  0  0  0  0  0  0  0  0  0
   20.5406   74.5114    1.3100 C   0  0  2  0  0  0  0  0  0  0  0  0
   20.6139   72.4473    0.1643 C   0  0  1  0  0  0  0  0  0  0  0  0
   20.1303   73.3962    2.2567 C   0  0  2  0  0  0  0  0  0  0  0  0
   18.5533   74.8797   -0.4304 H   0  0  0  0  0  0  0  0  0  0  0  0
   20.1235   76.3874    0.9123 H   0  0  0  0  0  0  0  0  0  0  0  0
   19.5008   74.9080    4.5581 O   0  0  0  0  0  0  0  0  0  0  0  0
   23.1703   73.3041    6.8392 O   0  0  0  0  0  0  0  0  0  0  0  0
   20.9038   73.3924    3.4663 N   0  0  0  0  0  0  0  0  0  0  0  0
   21.3284   74.1080    5.6921 N   0  0  0  0  0  0  0  0  0  0  0  0
   20.5017   74.1884    4.5641 C   0  0  0  0  0  0  0  0  0  0  0  0
   22.0467   72.6052    3.5556 C   0  0  0  0  0  0  0  0  0  0  0  0
   22.8249   72.5407    4.6379 C   0  0  0  0  0  0  0  0  0  0  0  0
   22.4750   73.3417    5.8288 C   0  0  0  0  0  0  0  0  0  0  0  0
   21.0682   74.6543    6.4690 H   0  0  0  0  0  0  0  0  0  0  0  0
   21.0466   70.9199   -3.3771 O   0  0  0  0  0  0  0  0  0  0  0  0
   19.4634   70.9091   -3.0512 P   0  0  2  0  0  0  0  0  0  0  0  0
   19.1194   72.4744   -2.8299 O   0  0  0  0  0  0  0  0  0  0  0  0
   19.0774   70.0219   -1.9032 O   0  0  0  0  0  0  0  0  0  0  0  0
   18.7601   70.5317   -4.4541 O   0  0  0  0  0  0  0  0  0  0  0  0
   19.1267   71.9407   -6.3240 O   0  0  0  0  0  0  0  0  0  0  0  0
   15.7032   70.0205   -7.6059 O   0  0  0  0  0  0  0  0  0  0  0  0
   18.2267   69.3800   -8.8183 O   0  0  0  0  0  0  0  0  0  0  0  0
   15.9874   70.7602   -4.8217 O   0  0  0  0  0  0  0  0  0  0  0  0
   16.9605   70.1318   -6.9335 C   0  0  1  0  0  0  0  0  0  0  0  0
   18.0255   70.5046   -7.9667 C   0  0  1  0  0  0  0  0  0  0  0  0
   16.8565   71.2094   -5.8558 C   0  0  2  0  0  0  0  0  0  0  0  0
   19.3425   70.9018   -7.2863 C   0  0  1  0  0  0  0  0  0  0  0  0
   18.2278   71.5651   -5.2786 C   0  0  1  0  0  0  0  0  0  0  0  0
   15.7623   69.3376   -8.2912 H   0  0  0  0  0  0  0  0  0  0  0  0
   17.3875   69.1391   -9.2414 H   0  0  0  0  0  0  0  0  0  0  0  0
   15.1227   70.5385   -5.1999 H   0  0  0  0  0  0  0  0  0  0  0  0
   21.6527   71.3514   -7.6983 O   0  0  0  0  0  0  0  0  0  0  0  0
   20.3680   71.4278   -8.2882 C   0  0  0  0  0  0  0  0  0  0  0  0
   22.3157   71.6826   -8.3247 H   0  0  0  0  0  0  0  0  0  0  0  0
 25 28  1  0
 25 24  1  0
 25 26  1  1
 25 27  2  0
  1  4  1  0
  1 24  1  0
  1  2  1  6
  1  3  2  0
  6 11  1  0
  6 12  1  0
 29 36  1  0
 29 37  1  0
  9  7  1  1
  7 13  1  0
 10  8  1  1
  8 14  1  0
 37 28  1  6
  4  5  1  0
 33 30  1  6
 30 38  1  0
 34 31  1  6
 31 39  1  0
 35 32  1  1
 32 40  1  0
 41 42  1  0
 41 43  1  0
 15 19  2  0
 16 22  2  0
 12 17  1  1
 17 19  1  0
 17 20  1  0
 18 19  1  0
 18 22  1  0
 18 23  1  0
  9 10  1  0
  9 11  1  0
 10 12  1  0
 11  5  1  1
 33 34  1  0
 33 35  1  0
 34 36  1  0
 35 37  1  0
 36 42  1  6
 20 21  2  0
 21 22  1  0
M  CHG  2   2  -1  26  -1
M  END
>  <COMPND>  (97) 
    8629 

>  <AUTHOR>  (97) 
    GENERATED BY OPEN BABEL 3.1.1

>  <MASTER>  (97) 
        0    0    0    0    0    0    0    0   58    0   58    0

>  <minimizedAffinity>  (97) 
-6.45044

>  <CNNscore>  (97) 
0.5391041040

>  <CNNaffinity>  (97) 
4.0012693405

>  <CNN_VS>  (97) 
2.1571006775

>  <CNNaffinity_variance>  (97) 
0.0505013689

$$$$
98
     RDKit          3D

 43 45  0  0  0  0  0  0  0  0999 V2000
   23.3941   71.8720   -3.1681 P   0  0  2  0  0  0  0  0  0  0  0  0
   24.1001   73.0481   -4.0259 O   0  0  0  0  0  0  0  0  0  0  0  0
   24.2380   70.6500   -2.9537 O   0  0  0  0  0  0  0  0  0  0  0  0
   21.9860   71.6292   -3.9271 O   0  0  0  0  0  0  0  0  0  0  0  0
   21.6103   72.5258   -4.9581 C   0  0  0  0  0  0  0  0  0  0  0  0
   20.6651   70.5407   -5.9274 O   0  0  0  0  0  0  0  0  0  0  0  0
   20.8730   71.9545   -8.5634 O   0  0  0  0  0  0  0  0  0  0  0  0
   18.2353   72.2492   -7.9373 O   0  0  0  0  0  0  0  0  0  0  0  0
   20.5630   72.4863   -7.2764 C   0  0  1  0  0  0  0  0  0  0  0  0
   19.1544   72.1021   -6.8741 C   0  0  2  0  0  0  0  0  0  0  0  0
   21.4025   71.7411   -6.2462 C   0  0  1  0  0  0  0  0  0  0  0  0
   19.3316   70.6539   -6.4506 C   0  0  2  0  0  0  0  0  0  0  0  0
   20.3492   72.4152   -9.2382 H   0  0  0  0  0  0  0  0  0  0  0  0
   18.1573   73.1876   -8.1700 H   0  0  0  0  0  0  0  0  0  0  0  0
   16.6701   69.8525   -6.9525 O   0  0  0  0  0  0  0  0  0  0  0  0
   15.8354   69.1751   -2.4708 O   0  0  0  0  0  0  0  0  0  0  0  0
   18.3969   70.2625   -5.4335 N   0  0  0  0  0  0  0  0  0  0  0  0
   16.2567   69.5157   -4.7205 N   0  0  0  0  0  0  0  0  0  0  0  0
   17.0836   69.8782   -5.7914 C   0  0  0  0  0  0  0  0  0  0  0  0
   18.7856   70.2618   -4.0983 C   0  0  0  0  0  0  0  0  0  0  0  0
   17.9846   69.9146   -3.0888 C   0  0  0  0  0  0  0  0  0  0  0  0
   16.5963   69.5000   -3.3770 C   0  0  0  0  0  0  0  0  0  0  0  0
   15.3371   69.2447   -4.9458 H   0  0  0  0  0  0  0  0  0  0  0  0
   22.9494   72.6290   -1.8108 O   0  0  0  0  0  0  0  0  0  0  0  0
   21.9324   72.1885   -0.6341 P   0  0  2  0  0  0  0  0  0  0  0  0
   22.7708   72.4955    0.7151 O   0  0  0  0  0  0  0  0  0  0  0  0
   21.4357   70.7762   -0.7467 O   0  0  0  0  0  0  0  0  0  0  0  0
   20.7715   73.3096   -0.6566 O   0  0  0  0  0  0  0  0  0  0  0  0
   18.6174   73.2113   -1.6397 O   0  0  0  0  0  0  0  0  0  0  0  0
   19.4515   77.2051   -2.2763 O   0  0  0  0  0  0  0  0  0  0  0  0
   17.5159   76.4599   -0.2898 O   0  0  0  0  0  0  0  0  0  0  0  0
   21.5505   75.2303   -2.5485 O   0  0  0  0  0  0  0  0  0  0  0  0
   19.4795   75.9658   -1.5630 C   0  0  1  0  0  0  0  0  0  0  0  0
   18.0374   75.5549   -1.2589 C   0  0  1  0  0  0  0  0  0  0  0  0
   20.1692   74.9095   -2.4245 C   0  0  2  0  0  0  0  0  0  0  0  0
   17.9707   74.1140   -0.7349 C   0  0  1  0  0  0  0  0  0  0  0  0
   20.0012   73.5060   -1.8396 C   0  0  1  0  0  0  0  0  0  0  0  0
   19.0153   77.8802   -1.7346 H   0  0  0  0  0  0  0  0  0  0  0  0
   17.5643   77.3661   -0.6328 H   0  0  0  0  0  0  0  0  0  0  0  0
   21.6434   76.1209   -2.9201 H   0  0  0  0  0  0  0  0  0  0  0  0
   15.8978   73.6764   -1.8397 O   0  0  0  0  0  0  0  0  0  0  0  0
   16.5313   73.6299   -0.5744 C   0  0  0  0  0  0  0  0  0  0  0  0
   14.9809   73.3707   -1.7530 H   0  0  0  0  0  0  0  0  0  0  0  0
 25 28  1  0
 25 24  1  0
 25 26  1  1
 25 27  2  0
  1  4  1  0
  1 24  1  0
  1  2  1  6
  1  3  2  0
  6 11  1  0
  6 12  1  0
 29 36  1  0
 29 37  1  0
  9  7  1  6
  7 13  1  0
 10  8  1  6
  8 14  1  0
 37 28  1  1
  4  5  1  0
 33 30  1  6
 30 38  1  0
 34 31  1  1
 31 39  1  0
 35 32  1  1
 32 40  1  0
 41 42  1  0
 41 43  1  0
 15 19  2  0
 16 22  2  0
 12 17  1  1
 17 19  1  0
 17 20  1  0
 18 19  1  0
 18 22  1  0
 18 23  1  0
  9 10  1  0
  9 11  1  0
 10 12  1  0
 11  5  1  1
 33 34  1  0
 33 35  1  0
 34 36  1  0
 35 37  1  0
 36 42  1  6
 20 21  2  0
 21 22  1  0
M  CHG  2   2  -1  26  -1
M  END
>  <COMPND>  (98) 
    8629 

>  <AUTHOR>  (98) 
    GENERATED BY OPEN BABEL 3.1.1

>  <MASTER>  (98) 
        0    0    0    0    0    0    0    0   58    0   58    0

>  <minimizedAffinity>  (98) 
-6.13268

>  <CNNscore>  (98) 
0.5349557996

>  <CNNaffinity>  (98) 
3.9050052166

>  <CNN_VS>  (98) 
2.0890052319

>  <CNNaffinity_variance>  (98) 
0.5174421072

$$$$
99
     RDKit          3D

 43 45  0  0  0  0  0  0  0  0999 V2000
   21.9083   72.3663   -5.8089 P   0  0  2  0  0  0  0  0  0  0  0  0
   21.1994   73.6734   -5.1713 O   0  0  0  0  0  0  0  0  0  0  0  0
   23.0407   72.6551   -6.7500 O   0  0  0  0  0  0  0  0  0  0  0  0
   20.6767   71.5207   -6.4302 O   0  0  0  0  0  0  0  0  0  0  0  0
   20.2457   71.8215   -7.7461 C   0  0  0  0  0  0  0  0  0  0  0  0
   18.8925   69.9155   -7.1895 O   0  0  0  0  0  0  0  0  0  0  0  0
   18.0243   69.9289  -10.0595 O   0  0  0  0  0  0  0  0  0  0  0  0
   15.9170   71.1114   -8.7955 O   0  0  0  0  0  0  0  0  0  0  0  0
   18.3132   71.0297   -9.1992 C   0  0  1  0  0  0  0  0  0  0  0  0
   17.1930   71.2231   -8.1986 C   0  0  2  0  0  0  0  0  0  0  0  0
   19.4769   70.6300   -8.3006 C   0  0  1  0  0  0  0  0  0  0  0  0
   17.4694   70.1141   -7.1978 C   0  0  2  0  0  0  0  0  0  0  0  0
   17.2844   70.1605  -10.6433 H   0  0  0  0  0  0  0  0  0  0  0  0
   15.7889   71.8392   -9.4237 H   0  0  0  0  0  0  0  0  0  0  0  0
   16.5237   68.2475   -5.3005 O   0  0  0  0  0  0  0  0  0  0  0  0
   15.8411   71.5309   -2.1391 O   0  0  0  0  0  0  0  0  0  0  0  0
   17.0383   70.4536   -5.8710 N   0  0  0  0  0  0  0  0  0  0  0  0
   16.1847   69.8839   -3.7279 N   0  0  0  0  0  0  0  0  0  0  0  0
   16.5800   69.4409   -4.9965 C   0  0  0  0  0  0  0  0  0  0  0  0
   17.0728   71.7782   -5.4489 C   0  0  0  0  0  0  0  0  0  0  0  0
   16.6912   72.1843   -4.2362 C   0  0  0  0  0  0  0  0  0  0  0  0
   16.1993   71.1890   -3.2619 C   0  0  0  0  0  0  0  0  0  0  0  0
   15.8614   69.1959   -3.1018 H   0  0  0  0  0  0  0  0  0  0  0  0
   22.3201   71.5039   -4.5053 O   0  0  0  0  0  0  0  0  0  0  0  0
   23.3639   71.8173   -3.3115 P   0  0  2  0  0  0  0  0  0  0  0  0
   24.0964   73.1727   -3.8053 O   0  0  0  0  0  0  0  0  0  0  0  0
   24.3001   70.6857   -2.9997 O   0  0  0  0  0  0  0  0  0  0  0  0
   22.4398   72.2815   -2.0723 O   0  0  0  0  0  0  0  0  0  0  0  0
   21.8582   71.1874   -0.0521 O   0  0  0  0  0  0  0  0  0  0  0  0
   18.2448   73.0056   -0.8816 O   0  0  0  0  0  0  0  0  0  0  0  0
   19.8753   74.0035    1.2618 O   0  0  0  0  0  0  0  0  0  0  0  0
   19.8317   71.8980   -3.0344 O   0  0  0  0  0  0  0  0  0  0  0  0
   19.6703   72.8949   -0.8477 C   0  0  1  0  0  0  0  0  0  0  0  0
   20.1060   72.7564    0.6123 C   0  0  1  0  0  0  0  0  0  0  0  0
   20.0951   71.6692   -1.6542 C   0  0  2  0  0  0  0  0  0  0  0  0
   21.5869   72.3669    0.7139 C   0  0  1  0  0  0  0  0  0  0  0  0
   21.5741   71.3396   -1.4442 C   0  0  1  0  0  0  0  0  0  0  0  0
   17.9686   73.7823   -0.3717 H   0  0  0  0  0  0  0  0  0  0  0  0
   18.9367   74.2380    1.1899 H   0  0  0  0  0  0  0  0  0  0  0  0
   18.8922   72.1052   -3.1541 H   0  0  0  0  0  0  0  0  0  0  0  0
   20.8381   72.0231    2.9567 O   0  0  0  0  0  0  0  0  0  0  0  0
   22.0027   72.0696    2.1530 C   0  0  0  0  0  0  0  0  0  0  0  0
   21.0874   71.8344    3.8754 H   0  0  0  0  0  0  0  0  0  0  0  0
 25 28  1  0
 25 24  1  0
 25 26  1  6
 25 27  2  0
  1  4  1  0
  1 24  1  0
  1  2  1  1
  1  3  2  0
  6 11  1  0
  6 12  1  0
 29 36  1  0
 29 37  1  0
  9  7  1  6
  7 13  1  0
 10  8  1  6
  8 14  1  0
 37 28  1  1
  4  5  1  0
 33 30  1  1
 30 38  1  0
 34 31  1  1
 31 39  1  0
 35 32  1  6
 32 40  1  0
 41 42  1  0
 41 43  1  0
 15 19  2  0
 16 22  2  0
 12 17  1  1
 17 19  1  0
 17 20  1  0
 18 19  1  0
 18 22  1  0
 18 23  1  0
  9 10  1  0
  9 11  1  0
 10 12  1  0
 11  5  1  1
 33 34  1  0
 33 35  1  0
 34 36  1  0
 35 37  1  0
 36 42  1  1
 20 21  2  0
 21 22  1  0
M  CHG  2   2  -1  26  -1
M  END
>  <COMPND>  (99) 
    8629 

>  <AUTHOR>  (99) 
    GENERATED BY OPEN BABEL 3.1.1

>  <MASTER>  (99) 
        0    0    0    0    0    0    0    0   58    0   58    0

>  <minimizedAffinity>  (99) 
-7.63223

>  <CNNscore>  (99) 
0.5058736205

>  <CNNaffinity>  (99) 
4.1966009140

>  <CNN_VS>  (99) 
2.1229496002

>  <CNNaffinity_variance>  (99) 
0.5033051968

$$$$
100
     RDKit          3D

 43 45  0  0  0  0  0  0  0  0999 V2000
   15.3659   71.6635   -1.9993 P   0  0  2  0  0  0  0  0  0  0  0  0
   16.1783   72.6761   -1.0339 O   0  0  0  0  0  0  0  0  0  0  0  0
   14.1069   72.2254   -2.5912 O   0  0  0  0  0  0  0  0  0  0  0  0
   15.1855   70.3304   -1.1001 O   0  0  0  0  0  0  0  0  0  0  0  0
   14.0248   70.2088   -0.2966 C   0  0  0  0  0  0  0  0  0  0  0  0
   13.4374   67.9738    0.3617 O   0  0  0  0  0  0  0  0  0  0  0  0
   11.2697   68.1356   -1.7037 O   0  0  0  0  0  0  0  0  0  0  0  0
    9.9142   68.5934    0.6179 O   0  0  0  0  0  0  0  0  0  0  0  0
   11.7742   69.1558   -0.8434 C   0  0  1  0  0  0  0  0  0  0  0  0
   11.2835   68.9395    0.5729 C   0  0  2  0  0  0  0  0  0  0  0  0
   13.2758   68.9447   -0.6955 C   0  0  1  0  0  0  0  0  0  0  0  0
   12.1866   67.8153    1.0510 C   0  0  2  0  0  0  0  0  0  0  0  0
   10.3122   68.2499   -1.8136 H   0  0  0  0  0  0  0  0  0  0  0  0
    9.3812   69.3406    0.3043 H   0  0  0  0  0  0  0  0  0  0  0  0
   13.0619   65.6247    2.6045 O   0  0  0  0  0  0  0  0  0  0  0  0
   13.0631   68.1323    6.4714 O   0  0  0  0  0  0  0  0  0  0  0  0
   12.4241   67.8677    2.4660 N   0  0  0  0  0  0  0  0  0  0  0  0
   13.0620   66.8751    4.5286 N   0  0  0  0  0  0  0  0  0  0  0  0
   12.8614   66.7108    3.1521 C   0  0  0  0  0  0  0  0  0  0  0  0
   12.2238   69.0568    3.1587 C   0  0  0  0  0  0  0  0  0  0  0  0
   12.4183   69.1966    4.4717 C   0  0  0  0  0  0  0  0  0  0  0  0
   12.8753   68.0358    5.2626 C   0  0  0  0  0  0  0  0  0  0  0  0
   13.3663   66.0824    5.0274 H   0  0  0  0  0  0  0  0  0  0  0  0
   16.4806   71.2223   -3.0836 O   0  0  0  0  0  0  0  0  0  0  0  0
   17.2138   69.8038   -3.3352 P   0  0  2  0  0  0  0  0  0  0  0  0
   16.0088   68.8465   -3.8343 O   0  0  0  0  0  0  0  0  0  0  0  0
   17.9678   69.2815   -2.1466 O   0  0  0  0  0  0  0  0  0  0  0  0
   18.1188   70.0394   -4.6506 O   0  0  0  0  0  0  0  0  0  0  0  0
   19.2970   71.7479   -5.7949 O   0  0  0  0  0  0  0  0  0  0  0  0
   16.8079   70.5055   -8.8464 O   0  0  0  0  0  0  0  0  0  0  0  0
   19.6033   69.8537   -8.9424 O   0  0  0  0  0  0  0  0  0  0  0  0
   15.8109   70.6349   -6.1319 O   0  0  0  0  0  0  0  0  0  0  0  0
   17.6278   70.3430   -7.6859 C   0  0  1  0  0  0  0  0  0  0  0  0
   19.0464   70.7989   -8.0332 C   0  0  1  0  0  0  0  0  0  0  0  0
   17.0554   71.1865   -6.5482 C   0  0  2  0  0  0  0  0  0  0  0  0
   19.9174   70.9068   -6.7744 C   0  0  1  0  0  0  0  0  0  0  0  0
   18.0213   71.2689   -5.3649 C   0  0  1  0  0  0  0  0  0  0  0  0
   17.1657   69.9721   -9.5724 H   0  0  0  0  0  0  0  0  0  0  0  0
   19.0436   69.7948   -9.7327 H   0  0  0  0  0  0  0  0  0  0  0  0
   15.2082   70.5883   -6.8898 H   0  0  0  0  0  0  0  0  0  0  0  0
   21.2977   71.9498   -8.4224 O   0  0  0  0  0  0  0  0  0  0  0  0
   21.2875   71.5098   -7.0768 C   0  0  0  0  0  0  0  0  0  0  0  0
   22.1635   72.3363   -8.6290 H   0  0  0  0  0  0  0  0  0  0  0  0
 25 28  1  0
 25 24  1  0
 25 26  1  6
 25 27  2  0
  1  4  1  0
  1 24  1  0
  1  2  1  1
  1  3  2  0
  6 11  1  0
  6 12  1  0
 29 36  1  0
 29 37  1  0
  9  7  1  6
  7 13  1  0
 10  8  1  6
  8 14  1  0
 37 28  1  6
  4  5  1  0
 33 30  1  6
 30 38  1  0
 34 31  1  6
 31 39  1  0
 35 32  1  1
 32 40  1  0
 41 42  1  0
 41 43  1  0
 15 19  2  0
 16 22  2  0
 12 17  1  1
 17 19  1  0
 17 20  1  0
 18 19  1  0
 18 22  1  0
 18 23  1  0
  9 10  1  0
  9 11  1  0
 10 12  1  0
 11  5  1  1
 33 34  1  0
 33 35  1  0
 34 36  1  0
 35 37  1  0
 36 42  1  6
 20 21  2  0
 21 22  1  0
M  CHG  2   2  -1  26  -1
M  END
>  <COMPND>  (100) 
    8629 

>  <AUTHOR>  (100) 
    GENERATED BY OPEN BABEL 3.1.1

>  <MASTER>  (100) 
        0    0    0    0    0    0    0    0   58    0   58    0

>  <minimizedAffinity>  (100) 
-6.88012

>  <CNNscore>  (100) 
0.4957934916

>  <CNNaffinity>  (100) 
4.1311082840

>  <CNN_VS>  (100) 
2.0481765270

>  <CNNaffinity_variance>  (100) 
0.1598789692

$$$$
101
     RDKit          3D

 43 45  0  0  0  0  0  0  0  0999 V2000
   20.5902   71.2658   -1.4817 P   0  0  2  0  0  0  0  0  0  0  0  0
   21.2247   70.5152   -0.1966 O   0  0  0  0  0  0  0  0  0  0  0  0
   20.0905   72.6563   -1.2205 O   0  0  0  0  0  0  0  0  0  0  0  0
   19.4915   70.2177   -2.0405 O   0  0  0  0  0  0  0  0  0  0  0  0
   19.1580   70.2575   -3.4170 C   0  0  0  0  0  0  0  0  0  0  0  0
   17.5203   71.3447   -4.7989 O   0  0  0  0  0  0  0  0  0  0  0  0
   15.4656   69.8019   -3.2533 O   0  0  0  0  0  0  0  0  0  0  0  0
   15.6701   68.3692   -5.5646 O   0  0  0  0  0  0  0  0  0  0  0  0
   16.7735   69.4045   -3.6615 C   0  0  1  0  0  0  0  0  0  0  0  0
   16.7954   69.1155   -5.1480 C   0  0  2  0  0  0  0  0  0  0  0  0
   17.6863   70.6202   -3.5604 C   0  0  1  0  0  0  0  0  0  0  0  0
   16.8214   70.5142   -5.7405 C   0  0  2  0  0  0  0  0  0  0  0  0
   14.8647   69.0418   -3.3091 H   0  0  0  0  0  0  0  0  0  0  0  0
   15.6992   67.4877   -5.1612 H   0  0  0  0  0  0  0  0  0  0  0  0
   15.5328   70.5798   -8.2531 O   0  0  0  0  0  0  0  0  0  0  0  0
   19.5473   70.6950  -10.5140 O   0  0  0  0  0  0  0  0  0  0  0  0
   17.5054   70.5620   -7.0019 N   0  0  0  0  0  0  0  0  0  0  0  0
   17.5328   70.6373   -9.3768 N   0  0  0  0  0  0  0  0  0  0  0  0
   16.7646   70.5910   -8.2064 C   0  0  0  0  0  0  0  0  0  0  0  0
   18.8955   70.5799   -7.0362 C   0  0  0  0  0  0  0  0  0  0  0  0
   19.6131   70.6227   -8.1607 C   0  0  0  0  0  0  0  0  0  0  0  0
   18.9159   70.6554   -9.4625 C   0  0  0  0  0  0  0  0  0  0  0  0
   17.0382   70.6578  -10.2281 H   0  0  0  0  0  0  0  0  0  0  0  0
   21.7735   71.1712   -2.5788 O   0  0  0  0  0  0  0  0  0  0  0  0
   23.1606   71.9896   -2.7174 P   0  0  2  0  0  0  0  0  0  0  0  0
   24.2456   70.8307   -3.0290 O   0  0  0  0  0  0  0  0  0  0  0  0
   23.4919   72.8447   -1.5287 O   0  0  0  0  0  0  0  0  0  0  0  0
   23.0197   72.8001   -4.1060 O   0  0  0  0  0  0  0  0  0  0  0  0
   20.7921   73.5773   -4.3305 O   0  0  0  0  0  0  0  0  0  0  0  0
   22.2558   74.6928   -8.0270 O   0  0  0  0  0  0  0  0  0  0  0  0
   21.7295   76.7032   -6.0448 O   0  0  0  0  0  0  0  0  0  0  0  0
   23.0839   72.1844   -6.8431 O   0  0  0  0  0  0  0  0  0  0  0  0
   22.3186   74.4570   -6.6178 C   0  0  1  0  0  0  0  0  0  0  0  0
   21.2844   75.3541   -5.9349 C   0  0  1  0  0  0  0  0  0  0  0  0
   22.0176   72.9846   -6.3441 C   0  0  2  0  0  0  0  0  0  0  0  0
   21.1046   74.9691   -4.4603 C   0  0  1  0  0  0  0  0  0  0  0  0
   21.8083   72.7187   -4.8523 C   0  0  1  0  0  0  0  0  0  0  0  0
   22.4465   75.6258   -8.2076 H   0  0  0  0  0  0  0  0  0  0  0  0
   21.8395   76.9335   -6.9808 H   0  0  0  0  0  0  0  0  0  0  0  0
   23.2062   72.3617   -7.7883 H   0  0  0  0  0  0  0  0  0  0  0  0
   19.0122   76.0733   -4.7943 O   0  0  0  0  0  0  0  0  0  0  0  0
   19.9664   75.7452   -3.8012 C   0  0  0  0  0  0  0  0  0  0  0  0
   18.2817   76.5673   -4.3892 H   0  0  0  0  0  0  0  0  0  0  0  0
 25 28  1  0
 25 24  1  0
 25 26  1  6
 25 27  2  0
  1  4  1  0
  1 24  1  0
  1  2  1  1
  1  3  2  0
  6 11  1  0
  6 12  1  0
 29 36  1  0
 29 37  1  0
  9  7  1  6
  7 13  1  0
 10  8  1  6
  8 14  1  0
 37 28  1  1
  4  5  1  0
 33 30  1  6
 30 38  1  0
 34 31  1  1
 31 39  1  0
 35 32  1  1
 32 40  1  0
 41 42  1  0
 41 43  1  0
 15 19  2  0
 16 22  2  0
 12 17  1  6
 17 19  1  0
 17 20  1  0
 18 19  1  0
 18 22  1  0
 18 23  1  0
  9 10  1  0
  9 11  1  0
 10 12  1  0
 11  5  1  6
 33 34  1  0
 33 35  1  0
 34 36  1  0
 35 37  1  0
 36 42  1  6
 20 21  2  0
 21 22  1  0
M  CHG  2   2  -1  26  -1
M  END
>  <COMPND>  (101) 
    8629 

>  <AUTHOR>  (101) 
    GENERATED BY OPEN BABEL 3.1.1

>  <MASTER>  (101) 
        0    0    0    0    0    0    0    0   58    0   58    0

>  <minimizedAffinity>  (101) 
-7.98500

>  <CNNscore>  (101) 
0.9350138903

>  <CNNaffinity>  (101) 
4.6856980324

>  <CNN_VS>  (101) 
4.3811926842

>  <CNNaffinity_variance>  (101) 
0.6052731276

$$$$
102
     RDKit          3D

 43 45  0  0  0  0  0  0  0  0999 V2000
   22.8886   71.4987   -2.6922 P   0  0  2  0  0  0  0  0  0  0  0  0
   22.9987   73.0673   -2.3121 O   0  0  0  0  0  0  0  0  0  0  0  0
   24.1593   70.8770   -3.1923 O   0  0  0  0  0  0  0  0  0  0  0  0
   21.6280   71.4318   -3.7043 O   0  0  0  0  0  0  0  0  0  0  0  0
   20.7772   70.2999   -3.6508 C   0  0  0  0  0  0  0  0  0  0  0  0
   18.8835   71.4608   -4.5674 O   0  0  0  0  0  0  0  0  0  0  0  0
   17.2632   70.1184   -2.4312 O   0  0  0  0  0  0  0  0  0  0  0  0
   16.7142   68.6056   -4.6327 O   0  0  0  0  0  0  0  0  0  0  0  0
   18.3743   69.6151   -3.1711 C   0  0  1  0  0  0  0  0  0  0  0  0
   17.9548   69.2805   -4.5873 C   0  0  2  0  0  0  0  0  0  0  0  0
   19.3504   70.7640   -3.3915 C   0  0  1  0  0  0  0  0  0  0  0  0
   17.8965   70.6551   -5.2317 C   0  0  2  0  0  0  0  0  0  0  0  0
   16.6261   69.4025   -2.2779 H   0  0  0  0  0  0  0  0  0  0  0  0
   16.8030   67.7368   -4.2107 H   0  0  0  0  0  0  0  0  0  0  0  0
   15.9903   70.1543   -7.2550 O   0  0  0  0  0  0  0  0  0  0  0  0
   19.1565   70.5239  -10.5838 O   0  0  0  0  0  0  0  0  0  0  0  0
   18.1951   70.6151   -6.6355 N   0  0  0  0  0  0  0  0  0  0  0  0
   17.5683   70.3389   -8.9109 N   0  0  0  0  0  0  0  0  0  0  0  0
   17.1654   70.3545   -7.5694 C   0  0  0  0  0  0  0  0  0  0  0  0
   19.4968   70.8331   -7.0735 C   0  0  0  0  0  0  0  0  0  0  0  0
   19.8649   70.8136   -8.3563 C   0  0  0  0  0  0  0  0  0  0  0  0
   18.8496   70.5485   -9.3959 C   0  0  0  0  0  0  0  0  0  0  0  0
   16.8680   70.1590   -9.5794 H   0  0  0  0  0  0  0  0  0  0  0  0
   22.3032   70.8369   -1.3386 O   0  0  0  0  0  0  0  0  0  0  0  0
   21.5791   71.5053   -0.0573 P   0  0  2  0  0  0  0  0  0  0  0  0
   21.3276   70.2454    0.9261 O   0  0  0  0  0  0  0  0  0  0  0  0
   20.3420   72.2886   -0.3887 O   0  0  0  0  0  0  0  0  0  0  0  0
   22.7394   72.3623    0.6668 O   0  0  0  0  0  0  0  0  0  0  0  0
   21.8932   73.8812    2.2772 O   0  0  0  0  0  0  0  0  0  0  0  0
   25.7841   75.2471    2.0624 O   0  0  0  0  0  0  0  0  0  0  0  0
   24.9142   73.8042    4.3882 O   0  0  0  0  0  0  0  0  0  0  0  0
   24.4289   74.3648   -0.3385 O   0  0  0  0  0  0  0  0  0  0  0  0
   24.7456   74.2639    2.0470 C   0  0  1  0  0  0  0  0  0  0  0  0
   24.0242   74.3071    3.3955 C   0  0  1  0  0  0  0  0  0  0  0  0
   23.7769   74.5788    0.9087 C   0  0  2  0  0  0  0  0  0  0  0  0
   22.7359   73.4740    3.3615 C   0  0  1  0  0  0  0  0  0  0  0  0
   22.5076   73.7294    0.9960 C   0  0  1  0  0  0  0  0  0  0  0  0
   26.4029   75.0527    2.7826 H   0  0  0  0  0  0  0  0  0  0  0  0
   25.7238   74.3386    4.3990 H   0  0  0  0  0  0  0  0  0  0  0  0
   25.2305   74.9082   -0.3816 H   0  0  0  0  0  0  0  0  0  0  0  0
   22.3826   72.6822    5.5880 O   0  0  0  0  0  0  0  0  0  0  0  0
   21.9202   73.6296    4.6431 C   0  0  0  0  0  0  0  0  0  0  0  0
   21.8726   72.7698    6.4090 H   0  0  0  0  0  0  0  0  0  0  0  0
 25 28  1  0
 25 24  1  0
 25 26  1  1
 25 27  2  0
  1  4  1  0
  1 24  1  0
  1  2  1  1
  1  3  2  0
  6 11  1  0
  6 12  1  0
 29 36  1  0
 29 37  1  0
  9  7  1  1
  7 13  1  0
 10  8  1  1
  8 14  1  0
 37 28  1  1
  4  5  1  0
 33 30  1  1
 30 38  1  0
 34 31  1  1
 31 39  1  0
 35 32  1  6
 32 40  1  0
 41 42  1  0
 41 43  1  0
 15 19  2  0
 16 22  2  0
 12 17  1  6
 17 19  1  0
 17 20  1  0
 18 19  1  0
 18 22  1  0
 18 23  1  0
  9 10  1  0
  9 11  1  0
 10 12  1  0
 11  5  1  6
 33 34  1  0
 33 35  1  0
 34 36  1  0
 35 37  1  0
 36 42  1  1
 20 21  2  0
 21 22  1  0
M  CHG  2   2  -1  26  -1
M  END
>  <COMPND>  (102) 
    8629 

>  <AUTHOR>  (102) 
    GENERATED BY OPEN BABEL 3.1.1

>  <MASTER>  (102) 
        0    0    0    0    0    0    0    0   58    0   58    0

>  <minimizedAffinity>  (102) 
-7.72910

>  <CNNscore>  (102) 
0.9176532626

>  <CNNaffinity>  (102) 
4.7570948601

>  <CNN_VS>  (102) 
4.3653635979

>  <CNNaffinity_variance>  (102) 
0.0481786318

$$$$
103
     RDKit          3D

 43 45  0  0  0  0  0  0  0  0999 V2000
   23.4121   71.9560   -3.2806 P   0  0  2  0  0  0  0  0  0  0  0  0
   24.2385   72.9777   -4.2242 O   0  0  0  0  0  0  0  0  0  0  0  0
   24.0996   70.6511   -3.0047 O   0  0  0  0  0  0  0  0  0  0  0  0
   21.9650   71.8501   -3.9967 O   0  0  0  0  0  0  0  0  0  0  0  0
   21.2036   70.6696   -3.8112 C   0  0  0  0  0  0  0  0  0  0  0  0
   19.1719   71.6508   -4.6377 O   0  0  0  0  0  0  0  0  0  0  0  0
   17.8091   70.3260   -2.3186 O   0  0  0  0  0  0  0  0  0  0  0  0
   17.2076   68.6602   -4.3922 O   0  0  0  0  0  0  0  0  0  0  0  0
   18.8956   69.8563   -3.1149 C   0  0  1  0  0  0  0  0  0  0  0  0
   18.3983   69.4166   -4.4761 C   0  0  2  0  0  0  0  0  0  0  0  0
   19.7708   71.0527   -3.4673 C   0  0  1  0  0  0  0  0  0  0  0  0
   18.1975   70.7463   -5.1829 C   0  0  2  0  0  0  0  0  0  0  0  0
   17.2363   69.5795   -2.0808 H   0  0  0  0  0  0  0  0  0  0  0  0
   17.3872   67.8240   -3.9347 H   0  0  0  0  0  0  0  0  0  0  0  0
   16.2133   69.9234   -7.0170 O   0  0  0  0  0  0  0  0  0  0  0  0
   19.0686   70.4047  -10.6027 O   0  0  0  0  0  0  0  0  0  0  0  0
   18.3950   70.6478   -6.6016 N   0  0  0  0  0  0  0  0  0  0  0  0
   17.6366   70.1639   -8.8009 N   0  0  0  0  0  0  0  0  0  0  0  0
   17.3337   70.2233   -7.4346 C   0  0  0  0  0  0  0  0  0  0  0  0
   19.6300   70.9707   -7.1534 C   0  0  0  0  0  0  0  0  0  0  0  0
   19.9030   70.9075   -8.4583 C   0  0  0  0  0  0  0  0  0  0  0  0
   18.8487   70.4732   -9.3973 C   0  0  0  0  0  0  0  0  0  0  0  0
   16.9126   69.8703   -9.4004 H   0  0  0  0  0  0  0  0  0  0  0  0
   23.1028   72.8446   -1.9662 O   0  0  0  0  0  0  0  0  0  0  0  0
   22.1100   72.5832   -0.7176 P   0  0  2  0  0  0  0  0  0  0  0  0
   22.1382   70.9741   -0.5516 O   0  0  0  0  0  0  0  0  0  0  0  0
   20.7365   73.1638   -0.8915 O   0  0  0  0  0  0  0  0  0  0  0  0
   22.9137   73.1396    0.5668 O   0  0  0  0  0  0  0  0  0  0  0  0
   24.8930   72.6819    1.7871 O   0  0  0  0  0  0  0  0  0  0  0  0
   22.1760   72.6375    4.8962 O   0  0  0  0  0  0  0  0  0  0  0  0
   24.0007   74.8403    4.6391 O   0  0  0  0  0  0  0  0  0  0  0  0
   21.4495   71.5176    2.3276 O   0  0  0  0  0  0  0  0  0  0  0  0
   22.7228   73.0769    3.6499 C   0  0  1  0  0  0  0  0  0  0  0  0
   24.1282   73.6234    3.9089 C   0  0  1  0  0  0  0  0  0  0  0  0
   22.7751   71.8952    2.6834 C   0  0  2  0  0  0  0  0  0  0  0  0
   24.8795   73.8660    2.5930 C   0  0  1  0  0  0  0  0  0  0  0  0
   23.5866   72.2264    1.4296 C   0  0  1  0  0  0  0  0  0  0  0  0
   22.1395   73.3833    5.5143 H   0  0  0  0  0  0  0  0  0  0  0  0
   23.5241   74.6733    5.4675 H   0  0  0  0  0  0  0  0  0  0  0  0
   20.9462   71.3102    3.1298 H   0  0  0  0  0  0  0  0  0  0  0  0
   26.7474   73.7315    4.0768 O   0  0  0  0  0  0  0  0  0  0  0  0
   26.3355   74.2609    2.8301 C   0  0  0  0  0  0  0  0  0  0  0  0
   27.6724   73.9747    4.2409 H   0  0  0  0  0  0  0  0  0  0  0  0
 25 28  1  0
 25 24  1  0
 25 26  1  1
 25 27  2  0
  1  4  1  0
  1 24  1  0
  1  2  1  6
  1  3  2  0
  6 11  1  0
  6 12  1  0
 29 36  1  0
 29 37  1  0
  9  7  1  1
  7 13  1  0
 10  8  1  1
  8 14  1  0
 37 28  1  1
  4  5  1  0
 33 30  1  1
 30 38  1  0
 34 31  1  6
 31 39  1  0
 35 32  1  6
 32 40  1  0
 41 42  1  0
 41 43  1  0
 15 19  2  0
 16 22  2  0
 12 17  1  6
 17 19  1  0
 17 20  1  0
 18 19  1  0
 18 22  1  0
 18 23  1  0
  9 10  1  0
  9 11  1  0
 10 12  1  0
 11  5  1  6
 33 34  1  0
 33 35  1  0
 34 36  1  0
 35 37  1  0
 36 42  1  1
 20 21  2  0
 21 22  1  0
M  CHG  2   2  -1  26  -1
M  END
>  <COMPND>  (103) 
    8629 

>  <AUTHOR>  (103) 
    GENERATED BY OPEN BABEL 3.1.1

>  <MASTER>  (103) 
        0    0    0    0    0    0    0    0   58    0   58    0

>  <minimizedAffinity>  (103) 
-7.72565

>  <CNNscore>  (103) 
0.8975914717

>  <CNNaffinity>  (103) 
4.6475496292

>  <CNN_VS>  (103) 
4.1716008186

>  <CNNaffinity_variance>  (103) 
0.0410663411

$$$$
104
     RDKit          3D

 43 45  0  0  0  0  0  0  0  0999 V2000
   21.1118   71.9777   -2.3604 P   0  0  2  0  0  0  0  0  0  0  0  0
   20.1144   73.0046   -1.6067 O   0  0  0  0  0  0  0  0  0  0  0  0
   21.5725   72.4226   -3.7174 O   0  0  0  0  0  0  0  0  0  0  0  0
   20.3230   70.5657   -2.3142 O   0  0  0  0  0  0  0  0  0  0  0  0
   19.6763   70.1137   -3.4911 C   0  0  0  0  0  0  0  0  0  0  0  0
   18.0139   71.3572   -4.7010 O   0  0  0  0  0  0  0  0  0  0  0  0
   15.9924   69.9873   -2.9610 O   0  0  0  0  0  0  0  0  0  0  0  0
   15.8374   68.5668   -5.2837 O   0  0  0  0  0  0  0  0  0  0  0  0
   17.2125   69.4793   -3.4982 C   0  0  1  0  0  0  0  0  0  0  0  0
   17.0609   69.2053   -4.9799 C   0  0  2  0  0  0  0  0  0  0  0  0
   18.2362   70.6077   -3.4864 C   0  0  1  0  0  0  0  0  0  0  0  0
   17.1535   70.6024   -5.5697 C   0  0  2  0  0  0  0  0  0  0  0  0
   15.3231   69.2844   -2.9580 H   0  0  0  0  0  0  0  0  0  0  0  0
   15.8271   67.6819   -4.8867 H   0  0  0  0  0  0  0  0  0  0  0  0
   15.6399   70.3274   -7.9385 O   0  0  0  0  0  0  0  0  0  0  0  0
   19.3981   70.6153  -10.5908 O   0  0  0  0  0  0  0  0  0  0  0  0
   17.7107   70.6024   -6.8929 N   0  0  0  0  0  0  0  0  0  0  0  0
   17.5124   70.4712   -9.2572 N   0  0  0  0  0  0  0  0  0  0  0  0
   16.8633   70.4568   -8.0160 C   0  0  0  0  0  0  0  0  0  0  0  0
   19.0829   70.7460   -7.0670 C   0  0  0  0  0  0  0  0  0  0  0  0
   19.6863   70.7563   -8.2574 C   0  0  0  0  0  0  0  0  0  0  0  0
   18.8729   70.6098   -9.4817 C   0  0  0  0  0  0  0  0  0  0  0  0
   16.9422   70.3709  -10.0539 H   0  0  0  0  0  0  0  0  0  0  0  0
   22.2982   71.7666   -1.2830 O   0  0  0  0  0  0  0  0  0  0  0  0
   22.2591   71.2741    0.2561 P   0  0  2  0  0  0  0  0  0  0  0  0
   23.7291   70.6361    0.4790 O   0  0  0  0  0  0  0  0  0  0  0  0
   21.1252   70.3436    0.5759 O   0  0  0  0  0  0  0  0  0  0  0  0
   22.2707   72.6365    1.1214 O   0  0  0  0  0  0  0  0  0  0  0  0
   22.8717   74.8534    0.5378 O   0  0  0  0  0  0  0  0  0  0  0  0
   24.3961   74.7447    4.3738 O   0  0  0  0  0  0  0  0  0  0  0  0
   22.0283   76.2769    3.8319 O   0  0  0  0  0  0  0  0  0  0  0  0
   24.5980   72.4109    2.6731 O   0  0  0  0  0  0  0  0  0  0  0  0
   23.4678   74.4334    3.3314 C   0  0  1  0  0  0  0  0  0  0  0  0
   22.8708   75.7437    2.8140 C   0  0  1  0  0  0  0  0  0  0  0  0
   24.2023   73.6982    2.2119 C   0  0  2  0  0  0  0  0  0  0  0  0
   22.0718   75.5169    1.5235 C   0  0  1  0  0  0  0  0  0  0  0  0
   23.3361   73.5689    0.9577 C   0  0  1  0  0  0  0  0  0  0  0  0
   23.9359   75.2112    5.0880 H   0  0  0  0  0  0  0  0  0  0  0  0
   22.5448   76.4149    4.6414 H   0  0  0  0  0  0  0  0  0  0  0  0
   25.1460   72.5064    3.4671 H   0  0  0  0  0  0  0  0  0  0  0  0
   20.2972   77.1106    1.3827 O   0  0  0  0  0  0  0  0  0  0  0  0
   21.6000   76.8308    0.9045 C   0  0  0  0  0  0  0  0  0  0  0  0
   19.9841   77.9444    0.9973 H   0  0  0  0  0  0  0  0  0  0  0  0
 25 28  1  0
 25 24  1  0
 25 26  1  1
 25 27  2  0
  1  4  1  0
  1 24  1  0
  1  2  1  1
  1  3  2  0
  6 11  1  0
  6 12  1  0
 29 36  1  0
 29 37  1  0
  9  7  1  6
  7 13  1  0
 10  8  1  1
  8 14  1  0
 37 28  1  1
  4  5  1  0
 33 30  1  1
 30 38  1  0
 34 31  1  1
 31 39  1  0
 35 32  1  1
 32 40  1  0
 41 42  1  0
 41 43  1  0
 15 19  2  0
 16 22  2  0
 12 17  1  6
 17 19  1  0
 17 20  1  0
 18 19  1  0
 18 22  1  0
 18 23  1  0
  9 10  1  0
  9 11  1  0
 10 12  1  0
 11  5  1  6
 33 34  1  0
 33 35  1  0
 34 36  1  0
 35 37  1  0
 36 42  1  6
 20 21  2  0
 21 22  1  0
M  CHG  2   2  -1  26  -1
M  END
>  <COMPND>  (104) 
    8629 

>  <AUTHOR>  (104) 
    GENERATED BY OPEN BABEL 3.1.1

>  <MASTER>  (104) 
        0    0    0    0    0    0    0    0   58    0   58    0

>  <minimizedAffinity>  (104) 
-6.82673

>  <CNNscore>  (104) 
0.8949809670

>  <CNNaffinity>  (104) 
4.6628580093

>  <CNN_VS>  (104) 
4.1731691360

>  <CNNaffinity_variance>  (104) 
0.0883127600

$$$$
105
     RDKit          3D

 43 45  0  0  0  0  0  0  0  0999 V2000
   21.0960   72.0431   -2.3073 P   0  0  2  0  0  0  0  0  0  0  0  0
   20.0068   73.0015   -1.5913 O   0  0  0  0  0  0  0  0  0  0  0  0
   21.5844   72.5253   -3.6416 O   0  0  0  0  0  0  0  0  0  0  0  0
   20.3943   70.5852   -2.3009 O   0  0  0  0  0  0  0  0  0  0  0  0
   19.7434   70.1430   -3.4793 C   0  0  0  0  0  0  0  0  0  0  0  0
   18.0640   71.3743   -4.6780 O   0  0  0  0  0  0  0  0  0  0  0  0
   16.0655   70.0047   -2.9113 O   0  0  0  0  0  0  0  0  0  0  0  0
   15.8928   68.5727   -5.2256 O   0  0  0  0  0  0  0  0  0  0  0  0
   17.2821   69.4989   -3.4584 C   0  0  1  0  0  0  0  0  0  0  0  0
   17.1167   69.2174   -4.9373 C   0  0  2  0  0  0  0  0  0  0  0  0
   18.3014   70.6313   -3.4623 C   0  0  1  0  0  0  0  0  0  0  0  0
   17.1978   70.6120   -5.5345 C   0  0  2  0  0  0  0  0  0  0  0  0
   15.3992   69.2992   -2.8982 H   0  0  0  0  0  0  0  0  0  0  0  0
   15.8899   67.6896   -4.8244 H   0  0  0  0  0  0  0  0  0  0  0  0
   15.6625   70.3102   -7.8861 O   0  0  0  0  0  0  0  0  0  0  0  0
   19.3914   70.6105  -10.5780 O   0  0  0  0  0  0  0  0  0  0  0  0
   17.7416   70.6080   -6.8632 N   0  0  0  0  0  0  0  0  0  0  0  0
   17.5205   70.4602   -9.2245 N   0  0  0  0  0  0  0  0  0  0  0  0
   16.8841   70.4487   -7.9767 C   0  0  0  0  0  0  0  0  0  0  0  0
   19.1108   70.7612   -7.0521 C   0  0  0  0  0  0  0  0  0  0  0  0
   19.7021   70.7686   -8.2486 C   0  0  0  0  0  0  0  0  0  0  0  0
   18.8775   70.6080   -9.4637 C   0  0  0  0  0  0  0  0  0  0  0  0
   16.9431   70.3504  -10.0147 H   0  0  0  0  0  0  0  0  0  0  0  0
   22.2472   71.8972   -1.1820 O   0  0  0  0  0  0  0  0  0  0  0  0
   22.1938   71.3037    0.3206 P   0  0  2  0  0  0  0  0  0  0  0  0
   23.6954   70.7483    0.5538 O   0  0  0  0  0  0  0  0  0  0  0  0
   21.1149   70.2832    0.5411 O   0  0  0  0  0  0  0  0  0  0  0  0
   22.0883   72.6045    1.2701 O   0  0  0  0  0  0  0  0  0  0  0  0
   21.8971   72.6712    3.6314 O   0  0  0  0  0  0  0  0  0  0  0  0
   19.6760   76.0238    2.6946 O   0  0  0  0  0  0  0  0  0  0  0  0
   22.2800   76.3300    3.8666 O   0  0  0  0  0  0  0  0  0  0  0  0
   19.5009   73.6637    1.0278 O   0  0  0  0  0  0  0  0  0  0  0  0
   20.7365   75.0774    2.5364 C   0  0  1  0  0  0  0  0  0  0  0  0
   21.5832   75.0884    3.8107 C   0  0  1  0  0  0  0  0  0  0  0  0
   20.1380   73.6919    2.3005 C   0  0  2  0  0  0  0  0  0  0  0  0
   22.5753   73.9177    3.8267 C   0  0  1  0  0  0  0  0  0  0  0  0
   21.2012   72.5954    2.3856 C   0  0  1  0  0  0  0  0  0  0  0  0
   20.0492   76.9058    2.8443 H   0  0  0  0  0  0  0  0  0  0  0  0
   21.6422   77.0610    3.8553 H   0  0  0  0  0  0  0  0  0  0  0  0
   18.8299   74.3622    0.9866 H   0  0  0  0  0  0  0  0  0  0  0  0
   24.5283   74.5466    5.0511 O   0  0  0  0  0  0  0  0  0  0  0  0
   23.3196   73.8170    5.1563 C   0  0  0  0  0  0  0  0  0  0  0  0
   25.0125   74.4917    5.8902 H   0  0  0  0  0  0  0  0  0  0  0  0
 25 28  1  0
 25 24  1  0
 25 26  1  1
 25 27  2  0
  1  4  1  0
  1 24  1  0
  1  2  1  1
  1  3  2  0
  6 11  1  0
  6 12  1  0
 29 36  1  0
 29 37  1  0
  9  7  1  6
  7 13  1  0
 10  8  1  1
  8 14  1  0
 37 28  1  6
  4  5  1  0
 33 30  1  1
 30 38  1  0
 34 31  1  6
 31 39  1  0
 35 32  1  6
 32 40  1  0
 41 42  1  0
 41 43  1  0
 15 19  2  0
 16 22  2  0
 12 17  1  6
 17 19  1  0
 17 20  1  0
 18 19  1  0
 18 22  1  0
 18 23  1  0
  9 10  1  0
  9 11  1  0
 10 12  1  0
 11  5  1  6
 33 34  1  0
 33 35  1  0
 34 36  1  0
 35 37  1  0
 36 42  1  1
 20 21  2  0
 21 22  1  0
M  CHG  2   2  -1  26  -1
M  END
>  <COMPND>  (105) 
    8629 

>  <AUTHOR>  (105) 
    GENERATED BY OPEN BABEL 3.1.1

>  <MASTER>  (105) 
        0    0    0    0    0    0    0    0   58    0   58    0

>  <minimizedAffinity>  (105) 
-7.06817

>  <CNNscore>  (105) 
0.8844609261

>  <CNNaffinity>  (105) 
4.5610709190

>  <CNN_VS>  (105) 
4.0340890884

>  <CNNaffinity_variance>  (105) 
0.0599475503

$$$$
106
     RDKit          3D

 43 45  0  0  0  0  0  0  0  0999 V2000
   21.5119   72.6234   -4.8419 P   0  0  2  0  0  0  0  0  0  0  0  0
   21.3664   74.2325   -4.7592 O   0  0  0  0  0  0  0  0  0  0  0  0
   22.4238   72.1242   -5.9239 O   0  0  0  0  0  0  0  0  0  0  0  0
   19.9831   72.0984   -4.9138 O   0  0  0  0  0  0  0  0  0  0  0  0
   19.4491   71.4163   -3.7924 C   0  0  0  0  0  0  0  0  0  0  0  0
   17.5663   71.7797   -5.2405 O   0  0  0  0  0  0  0  0  0  0  0  0
   15.9626   70.2321   -3.2345 O   0  0  0  0  0  0  0  0  0  0  0  0
   16.4163   68.3830   -5.1868 O   0  0  0  0  0  0  0  0  0  0  0  0
   17.3136   70.0404   -3.6509 C   0  0  1  0  0  0  0  0  0  0  0  0
   17.3553   69.4281   -5.0354 C   0  0  2  0  0  0  0  0  0  0  0  0
   17.9297   71.4130   -3.8915 C   0  0  1  0  0  0  0  0  0  0  0  0
   17.0456   70.6248   -5.9187 C   0  0  2  0  0  0  0  0  0  0  0  0
   15.5483   69.3692   -3.0744 H   0  0  0  0  0  0  0  0  0  0  0  0
   16.6566   67.6454   -4.6047 H   0  0  0  0  0  0  0  0  0  0  0  0
   15.6448   70.7437   -8.3685 O   0  0  0  0  0  0  0  0  0  0  0  0
   19.5157   70.2314  -10.8170 O   0  0  0  0  0  0  0  0  0  0  0  0
   17.6624   70.5255   -7.2114 N   0  0  0  0  0  0  0  0  0  0  0  0
   17.5734   70.4887   -9.5857 N   0  0  0  0  0  0  0  0  0  0  0  0
   16.8687   70.5963   -8.3799 C   0  0  0  0  0  0  0  0  0  0  0  0
   19.0396   70.3604   -7.3113 C   0  0  0  0  0  0  0  0  0  0  0  0
   19.6962   70.2581   -8.4687 C   0  0  0  0  0  0  0  0  0  0  0  0
   18.9409   70.3223   -9.7366 C   0  0  0  0  0  0  0  0  0  0  0  0
   17.0411   70.5349  -10.4129 H   0  0  0  0  0  0  0  0  0  0  0  0
   21.9638   72.2218   -3.3427 O   0  0  0  0  0  0  0  0  0  0  0  0
   23.4303   72.0898   -2.6756 P   0  0  2  0  0  0  0  0  0  0  0  0
   24.1531   73.4763   -3.0912 O   0  0  0  0  0  0  0  0  0  0  0  0
   24.1814   70.8544   -3.0799 O   0  0  0  0  0  0  0  0  0  0  0  0
   23.1707   72.2254   -1.0884 O   0  0  0  0  0  0  0  0  0  0  0  0
   23.9160   70.6950    0.5606 O   0  0  0  0  0  0  0  0  0  0  0  0
   20.5187   72.0934    2.4457 O   0  0  0  0  0  0  0  0  0  0  0  0
   23.1044   72.8922    3.4070 O   0  0  0  0  0  0  0  0  0  0  0  0
   20.5062   71.6568   -0.4159 O   0  0  0  0  0  0  0  0  0  0  0  0
   21.6817   72.1864    1.6186 C   0  0  1  0  0  0  0  0  0  0  0  0
   22.9046   71.8380    2.4695 C   0  0  1  0  0  0  0  0  0  0  0  0
   21.5434   71.2109    0.4513 C   0  0  2  0  0  0  0  0  0  0  0  0
   24.1533   71.6556    1.5963 C   0  0  1  0  0  0  0  0  0  0  0  0
   22.8552   71.0658   -0.3221 C   0  0  1  0  0  0  0  0  0  0  0  0
   20.6000   72.7107    3.1886 H   0  0  0  0  0  0  0  0  0  0  0  0
   22.3086   72.9973    3.9517 H   0  0  0  0  0  0  0  0  0  0  0  0
   19.6810   71.7444    0.0855 H   0  0  0  0  0  0  0  0  0  0  0  0
   25.1023   69.8127    2.7847 O   0  0  0  0  0  0  0  0  0  0  0  0
   25.3481   71.1542    2.4045 C   0  0  0  0  0  0  0  0  0  0  0  0
   25.8547   69.4802    3.2996 H   0  0  0  0  0  0  0  0  0  0  0  0
 25 28  1  0
 25 24  1  0
 25 26  1  6
 25 27  2  0
  1  4  1  0
  1 24  1  0
  1  2  1  1
  1  3  2  0
  6 11  1  0
  6 12  1  0
 29 36  1  0
 29 37  1  0
  9  7  1  6
  7 13  1  0
 10  8  1  1
  8 14  1  0
 37 28  1  1
  4  5  1  0
 33 30  1  1
 30 38  1  0
 34 31  1  1
 31 39  1  0
 35 32  1  6
 32 40  1  0
 41 42  1  0
 41 43  1  0
 15 19  2  0
 16 22  2  0
 12 17  1  6
 17 19  1  0
 17 20  1  0
 18 19  1  0
 18 22  1  0
 18 23  1  0
  9 10  1  0
  9 11  1  0
 10 12  1  0
 11  5  1  6
 33 34  1  0
 33 35  1  0
 34 36  1  0
 35 37  1  0
 36 42  1  1
 20 21  2  0
 21 22  1  0
M  CHG  2   2  -1  26  -1
M  END
>  <COMPND>  (106) 
    8629 

>  <AUTHOR>  (106) 
    GENERATED BY OPEN BABEL 3.1.1

>  <MASTER>  (106) 
        0    0    0    0    0    0    0    0   58    0   58    0

>  <minimizedAffinity>  (106) 
-8.35550

>  <CNNscore>  (106) 
0.8755292296

>  <CNNaffinity>  (106) 
4.7586898804

>  <CNN_VS>  (106) 
4.1663722992

>  <CNNaffinity_variance>  (106) 
0.0501772538

$$$$
107
     RDKit          3D

 43 45  0  0  0  0  0  0  0  0999 V2000
   22.1147   71.3187   -2.4286 P   0  0  2  0  0  0  0  0  0  0  0  0
   23.5759   70.7841   -2.8718 O   0  0  0  0  0  0  0  0  0  0  0  0
   21.5782   70.7198   -1.1617 O   0  0  0  0  0  0  0  0  0  0  0  0
   21.2048   71.1017   -3.7487 O   0  0  0  0  0  0  0  0  0  0  0  0
   20.2336   70.0699   -3.7384 C   0  0  0  0  0  0  0  0  0  0  0  0
   18.5687   71.4202   -4.8239 O   0  0  0  0  0  0  0  0  0  0  0  0
   16.6281   70.2951   -2.8341 O   0  0  0  0  0  0  0  0  0  0  0  0
   16.1089   68.8218   -5.0693 O   0  0  0  0  0  0  0  0  0  0  0  0
   17.7367   69.6617   -3.4706 C   0  0  1  0  0  0  0  0  0  0  0  0
   17.4082   69.3559   -4.9170 C   0  0  2  0  0  0  0  0  0  0  0  0
   18.8503   70.6924   -3.6084 C   0  0  1  0  0  0  0  0  0  0  0  0
   17.5599   70.7194   -5.5697 C   0  0  2  0  0  0  0  0  0  0  0  0
   15.9042   69.6563   -2.7348 H   0  0  0  0  0  0  0  0  0  0  0  0
   16.0630   67.9545   -4.6375 H   0  0  0  0  0  0  0  0  0  0  0  0
   15.8017   70.3205   -7.7440 O   0  0  0  0  0  0  0  0  0  0  0  0
   19.2609   70.3795  -10.7889 O   0  0  0  0  0  0  0  0  0  0  0  0
   17.9740   70.6271   -6.9413 N   0  0  0  0  0  0  0  0  0  0  0  0
   17.5255   70.3504   -9.2584 N   0  0  0  0  0  0  0  0  0  0  0  0
   17.0113   70.4248   -7.9576 C   0  0  0  0  0  0  0  0  0  0  0  0
   19.3214   70.7371   -7.2673 C   0  0  0  0  0  0  0  0  0  0  0  0
   19.7957   70.6625   -8.5127 C   0  0  0  0  0  0  0  0  0  0  0  0
   18.8560   70.4524   -9.6328 C   0  0  0  0  0  0  0  0  0  0  0  0
   16.8734   70.2094   -9.9827 H   0  0  0  0  0  0  0  0  0  0  0  0
   22.3127   72.9224   -2.3834 O   0  0  0  0  0  0  0  0  0  0  0  0
   21.9193   74.0091   -1.2532 P   0  0  2  0  0  0  0  0  0  0  0  0
   20.3023   74.0275   -1.3030 O   0  0  0  0  0  0  0  0  0  0  0  0
   22.5601   75.3535   -1.4428 O   0  0  0  0  0  0  0  0  0  0  0  0
   22.2759   73.2897    0.1469 O   0  0  0  0  0  0  0  0  0  0  0  0
   23.4845   74.4331    1.8347 O   0  0  0  0  0  0  0  0  0  0  0  0
   24.3266   70.5446    2.9396 O   0  0  0  0  0  0  0  0  0  0  0  0
   22.5191   72.1107    4.5297 O   0  0  0  0  0  0  0  0  0  0  0  0
   24.2095   71.2559    0.1361 O   0  0  0  0  0  0  0  0  0  0  0  0
   23.5221   71.6057    2.4179 C   0  0  1  0  0  0  0  0  0  0  0  0
   23.3515   72.6609    3.5125 C   0  0  1  0  0  0  0  0  0  0  0  0
   24.2173   72.2051    1.1969 C   0  0  2  0  0  0  0  0  0  0  0  0
   22.7297   73.9465    2.9506 C   0  0  1  0  0  0  0  0  0  0  0  0
   23.5495   73.5064    0.7489 C   0  0  1  0  0  0  0  0  0  0  0  0
   23.8905   70.1593    3.7148 H   0  0  0  0  0  0  0  0  0  0  0  0
   22.9228   71.2992    4.8757 H   0  0  0  0  0  0  0  0  0  0  0  0
   24.6352   70.4368    0.4322 H   0  0  0  0  0  0  0  0  0  0  0  0
   24.0232   75.4913    4.2348 O   0  0  0  0  0  0  0  0  0  0  0  0
   22.6955   75.0663    3.9883 C   0  0  0  0  0  0  0  0  0  0  0  0
   24.0169   76.2041    4.8933 H   0  0  0  0  0  0  0  0  0  0  0  0
 25 28  1  0
 25 24  1  0
 25 26  1  1
 25 27  2  0
  1  4  1  0
  1 24  1  0
  1  2  1  6
  1  3  2  0
  6 11  1  0
  6 12  1  0
 29 36  1  0
 29 37  1  0
  9  7  1  6
  7 13  1  0
 10  8  1  1
  8 14  1  0
 37 28  1  1
  4  5  1  0
 33 30  1  1
 30 38  1  0
 34 31  1  1
 31 39  1  0
 35 32  1  6
 32 40  1  0
 41 42  1  0
 41 43  1  0
 15 19  2  0
 16 22  2  0
 12 17  1  6
 17 19  1  0
 17 20  1  0
 18 19  1  0
 18 22  1  0
 18 23  1  0
  9 10  1  0
  9 11  1  0
 10 12  1  0
 11  5  1  6
 33 34  1  0
 33 35  1  0
 34 36  1  0
 35 37  1  0
 36 42  1  1
 20 21  2  0
 21 22  1  0
M  CHG  2   2  -1  26  -1
M  END
>  <COMPND>  (107) 
    8629 

>  <AUTHOR>  (107) 
    GENERATED BY OPEN BABEL 3.1.1

>  <MASTER>  (107) 
        0    0    0    0    0    0    0    0   58    0   58    0

>  <minimizedAffinity>  (107) 
-7.33100

>  <CNNscore>  (107) 
0.8529183269

>  <CNNaffinity>  (107) 
4.6563644409

>  <CNN_VS>  (107) 
3.9714984894

>  <CNNaffinity_variance>  (107) 
0.0209768917

$$$$
108
     RDKit          3D

 43 45  0  0  0  0  0  0  0  0999 V2000
   23.1908   72.0584   -3.0757 P   0  0  2  0  0  0  0  0  0  0  0  0
   24.2273   70.8166   -3.1041 O   0  0  0  0  0  0  0  0  0  0  0  0
   22.7304   72.4685   -1.7078 O   0  0  0  0  0  0  0  0  0  0  0  0
   22.0247   71.6146   -4.1059 O   0  0  0  0  0  0  0  0  0  0  0  0
   21.2102   70.5054   -3.7680 C   0  0  0  0  0  0  0  0  0  0  0  0
   19.2570   71.6290   -4.6023 O   0  0  0  0  0  0  0  0  0  0  0  0
   17.8053   70.4455   -2.2608 O   0  0  0  0  0  0  0  0  0  0  0  0
   17.0689   68.8025   -4.3090 O   0  0  0  0  0  0  0  0  0  0  0  0
   18.8492   69.8823   -3.0536 C   0  0  1  0  0  0  0  0  0  0  0  0
   18.3140   69.4635   -4.4070 C   0  0  2  0  0  0  0  0  0  0  0  0
   19.8126   71.0026   -3.4253 C   0  0  1  0  0  0  0  0  0  0  0  0
   18.2135   70.7949   -5.1319 C   0  0  2  0  0  0  0  0  0  0  0  0
   17.1776   69.7487   -2.0109 H   0  0  0  0  0  0  0  0  0  0  0  0
   17.1853   67.9613   -3.8403 H   0  0  0  0  0  0  0  0  0  0  0  0
   16.1801   70.0382   -6.9403 O   0  0  0  0  0  0  0  0  0  0  0  0
   19.0332   70.3156  -10.5492 O   0  0  0  0  0  0  0  0  0  0  0  0
   18.3972   70.6619   -6.5496 N   0  0  0  0  0  0  0  0  0  0  0  0
   17.6024   70.1771   -8.7358 N   0  0  0  0  0  0  0  0  0  0  0  0
   17.3113   70.2753   -7.3692 C   0  0  0  0  0  0  0  0  0  0  0  0
   19.6431   70.9140   -7.1136 C   0  0  0  0  0  0  0  0  0  0  0  0
   19.9045   70.8145   -8.4186 C   0  0  0  0  0  0  0  0  0  0  0  0
   18.8245   70.4160   -9.3441 C   0  0  0  0  0  0  0  0  0  0  0  0
   16.8612   69.9089   -9.3261 H   0  0  0  0  0  0  0  0  0  0  0  0
   23.9792   73.2087   -3.8932 O   0  0  0  0  0  0  0  0  0  0  0  0
   24.5023   74.6678   -3.4346 P   0  0  2  0  0  0  0  0  0  0  0  0
   25.9417   74.7917   -4.1628 O   0  0  0  0  0  0  0  0  0  0  0  0
   24.5415   74.8680   -1.9472 O   0  0  0  0  0  0  0  0  0  0  0  0
   23.5547   75.7084   -4.2248 O   0  0  0  0  0  0  0  0  0  0  0  0
   23.7698   74.9836   -6.4709 O   0  0  0  0  0  0  0  0  0  0  0  0
   20.9292   77.9336   -6.9987 O   0  0  0  0  0  0  0  0  0  0  0  0
   20.1616   75.1736   -7.2011 O   0  0  0  0  0  0  0  0  0  0  0  0
   23.0887   78.3295   -5.1122 O   0  0  0  0  0  0  0  0  0  0  0  0
   21.5908   76.8706   -6.3076 C   0  0  1  0  0  0  0  0  0  0  0  0
   21.5165   75.6139   -7.1770 C   0  0  1  0  0  0  0  0  0  0  0  0
   23.0449   77.2664   -6.0579 C   0  0  2  0  0  0  0  0  0  0  0  0
   22.4284   74.5073   -6.6303 C   0  0  1  0  0  0  0  0  0  0  0  0
   23.8757   76.0814   -5.5624 C   0  0  1  0  0  0  0  0  0  0  0  0
   20.0053   77.6889   -7.1600 H   0  0  0  0  0  0  0  0  0  0  0  0
   19.5963   75.8817   -7.5478 H   0  0  0  0  0  0  0  0  0  0  0  0
   22.5593   79.0737   -5.4376 H   0  0  0  0  0  0  0  0  0  0  0  0
   23.0364   72.2076   -6.8550 O   0  0  0  0  0  0  0  0  0  0  0  0
   22.4910   73.3029   -7.5671 C   0  0  0  0  0  0  0  0  0  0  0  0
   23.0820   71.4337   -7.4387 H   0  0  0  0  0  0  0  0  0  0  0  0
 25 28  1  0
 25 24  1  0
 25 26  1  6
 25 27  2  0
  1  4  1  0
  1 24  1  0
  1  2  1  1
  1  3  2  0
  6 11  1  0
  6 12  1  0
 29 36  1  0
 29 37  1  0
  9  7  1  1
  7 13  1  0
 10  8  1  1
  8 14  1  0
 37 28  1  1
  4  5  1  0
 33 30  1  6
 30 38  1  0
 34 31  1  1
 31 39  1  0
 35 32  1  1
 32 40  1  0
 41 42  1  0
 41 43  1  0
 15 19  2  0
 16 22  2  0
 12 17  1  6
 17 19  1  0
 17 20  1  0
 18 19  1  0
 18 22  1  0
 18 23  1  0
  9 10  1  0
  9 11  1  0
 10 12  1  0
 11  5  1  6
 33 34  1  0
 33 35  1  0
 34 36  1  0
 35 37  1  0
 36 42  1  6
 20 21  2  0
 21 22  1  0
M  CHG  2   2  -1  26  -1
M  END
>  <COMPND>  (108) 
    8629 

>  <AUTHOR>  (108) 
    GENERATED BY OPEN BABEL 3.1.1

>  <MASTER>  (108) 
        0    0    0    0    0    0    0    0   58    0   58    0

>  <minimizedAffinity>  (108) 
-7.39850

>  <CNNscore>  (108) 
0.8022700548

>  <CNNaffinity>  (108) 
4.5023636818

>  <CNN_VS>  (108) 
3.6121115685

>  <CNNaffinity_variance>  (108) 
0.2622493207

$$$$
109
     RDKit          3D

 43 45  0  0  0  0  0  0  0  0999 V2000
   21.6687   72.4492   -4.8758 P   0  0  2  0  0  0  0  0  0  0  0  0
   20.8365   73.8231   -5.0685 O   0  0  0  0  0  0  0  0  0  0  0  0
   22.8474   72.2886   -5.7903 O   0  0  0  0  0  0  0  0  0  0  0  0
   20.5399   71.2942   -4.9751 O   0  0  0  0  0  0  0  0  0  0  0  0
   19.9330   70.8374   -3.7790 C   0  0  0  0  0  0  0  0  0  0  0  0
   18.1633   71.8366   -5.0610 O   0  0  0  0  0  0  0  0  0  0  0  0
   16.2830   70.6019   -3.0784 O   0  0  0  0  0  0  0  0  0  0  0  0
   16.1182   68.8935   -5.1975 O   0  0  0  0  0  0  0  0  0  0  0  0
   17.5077   70.0894   -3.6005 C   0  0  1  0  0  0  0  0  0  0  0  0
   17.3163   69.6234   -5.0287 C   0  0  2  0  0  0  0  0  0  0  0  0
   18.4697   71.2581   -3.7734 C   0  0  1  0  0  0  0  0  0  0  0  0
   17.3127   70.9375   -5.7911 C   0  0  2  0  0  0  0  0  0  0  0  0
   15.6526   69.8736   -2.9590 H   0  0  0  0  0  0  0  0  0  0  0  0
   16.1696   68.0664   -4.6935 H   0  0  0  0  0  0  0  0  0  0  0  0
   16.3416   72.3671   -8.0251 O   0  0  0  0  0  0  0  0  0  0  0  0
   19.3337   70.3168  -10.8684 O   0  0  0  0  0  0  0  0  0  0  0  0
   17.8199   70.7972   -7.1269 N   0  0  0  0  0  0  0  0  0  0  0  0
   17.8323   71.3452   -9.4390 N   0  0  0  0  0  0  0  0  0  0  0  0
   17.2617   71.5611   -8.1782 C   0  0  0  0  0  0  0  0  0  0  0  0
   18.8597   69.9101   -7.3837 C   0  0  0  0  0  0  0  0  0  0  0  0
   19.3918   69.7149   -8.5920 C   0  0  0  0  0  0  0  0  0  0  0  0
   18.8658   70.4739   -9.7449 C   0  0  0  0  0  0  0  0  0  0  0  0
   17.4592   71.8662  -10.1868 H   0  0  0  0  0  0  0  0  0  0  0  0
   22.0356   72.4642   -3.3016 O   0  0  0  0  0  0  0  0  0  0  0  0
   23.4132   72.1194   -2.5294 P   0  0  2  0  0  0  0  0  0  0  0  0
   24.2414   73.5069   -2.6107 O   0  0  0  0  0  0  0  0  0  0  0  0
   24.1446   70.9285   -3.0778 O   0  0  0  0  0  0  0  0  0  0  0  0
   22.9897   71.9879   -0.9775 O   0  0  0  0  0  0  0  0  0  0  0  0
   22.6828   73.8963    0.3937 O   0  0  0  0  0  0  0  0  0  0  0  0
   23.5023   71.1040    3.3232 O   0  0  0  0  0  0  0  0  0  0  0  0
   20.8235   72.0932    3.0168 O   0  0  0  0  0  0  0  0  0  0  0  0
   24.9268   71.0152    0.8048 O   0  0  0  0  0  0  0  0  0  0  0  0
   22.9636   71.5726    2.0840 C   0  0  1  0  0  0  0  0  0  0  0  0
   21.9575   72.6844    2.3883 C   0  0  1  0  0  0  0  0  0  0  0  0
   24.1017   72.1011    1.2130 C   0  0  2  0  0  0  0  0  0  0  0  0
   21.5369   73.4168    1.1070 C   0  0  1  0  0  0  0  0  0  0  0  0
   23.5744   72.8549   -0.0092 C   0  0  1  0  0  0  0  0  0  0  0  0
   22.7848   70.7667    3.8808 H   0  0  0  0  0  0  0  0  0  0  0  0
   21.1029   71.6336    3.8242 H   0  0  0  0  0  0  0  0  0  0  0  0
   25.2546   70.5463    1.5875 H   0  0  0  0  0  0  0  0  0  0  0  0
   20.8449   75.0003    2.7570 O   0  0  0  0  0  0  0  0  0  0  0  0
   20.6568   74.6290    1.4038 C   0  0  0  0  0  0  0  0  0  0  0  0
   20.2911   75.7709    2.9602 H   0  0  0  0  0  0  0  0  0  0  0  0
 25 28  1  0
 25 24  1  0
 25 26  1  1
 25 27  2  0
  1  4  1  0
  1 24  1  0
  1  2  1  6
  1  3  2  0
  6 11  1  0
  6 12  1  0
 29 36  1  0
 29 37  1  0
  9  7  1  6
  7 13  1  0
 10  8  1  1
  8 14  1  0
 37 28  1  6
  4  5  1  0
 33 30  1  1
 30 38  1  0
 34 31  1  6
 31 39  1  0
 35 32  1  6
 32 40  1  0
 41 42  1  0
 41 43  1  0
 15 19  2  0
 16 22  2  0
 12 17  1  6
 17 19  1  0
 17 20  1  0
 18 19  1  0
 18 22  1  0
 18 23  1  0
  9 10  1  0
  9 11  1  0
 10 12  1  0
 11  5  1  6
 33 34  1  0
 33 35  1  0
 34 36  1  0
 35 37  1  0
 36 42  1  1
 20 21  2  0
 21 22  1  0
M  CHG  2   2  -1  26  -1
M  END
>  <COMPND>  (109) 
    8629 

>  <AUTHOR>  (109) 
    GENERATED BY OPEN BABEL 3.1.1

>  <MASTER>  (109) 
        0    0    0    0    0    0    0    0   58    0   58    0

>  <minimizedAffinity>  (109) 
-7.38179

>  <CNNscore>  (109) 
0.7946527600

>  <CNNaffinity>  (109) 
4.5199913979

>  <CNN_VS>  (109) 
3.5918235779

>  <CNNaffinity_variance>  (109) 
0.0312274098

$$$$
110
     RDKit          3D

 43 45  0  0  0  0  0  0  0  0999 V2000
   22.0019   71.2745    0.1068 P   0  0  2  0  0  0  0  0  0  0  0  0
   20.9084   72.4467   -0.1115 O   0  0  0  0  0  0  0  0  0  0  0  0
   21.5723   70.1705    1.0276 O   0  0  0  0  0  0  0  0  0  0  0  0
   23.3424   72.0699    0.5409 O   0  0  0  0  0  0  0  0  0  0  0  0
   23.7862   71.9651    1.8825 C   0  0  0  0  0  0  0  0  0  0  0  0
   24.4812   73.3440    3.7235 O   0  0  0  0  0  0  0  0  0  0  0  0
   23.3630   75.6536    2.1724 O   0  0  0  0  0  0  0  0  0  0  0  0
   26.0417   75.8670    1.7080 O   0  0  0  0  0  0  0  0  0  0  0  0
   24.0379   74.4900    1.6972 C   0  0  1  0  0  0  0  0  0  0  0  0
   25.5204   74.5848    1.9922 C   0  0  2  0  0  0  0  0  0  0  0  0
   23.6148   73.3137    2.5682 C   0  0  1  0  0  0  0  0  0  0  0  0
   25.5690   74.2489    3.4731 C   0  0  2  0  0  0  0  0  0  0  0  0
   23.6171   76.4182    1.6313 H   0  0  0  0  0  0  0  0  0  0  0  0
   25.9886   76.0337    0.7540 H   0  0  0  0  0  0  0  0  0  0  0  0
   27.1080   74.9660    5.7303 O   0  0  0  0  0  0  0  0  0  0  0  0
   30.2758   71.7439    4.8223 O   0  0  0  0  0  0  0  0  0  0  0  0
   26.8001   73.6138    3.8505 N   0  0  0  0  0  0  0  0  0  0  0  0
   28.6840   73.3610    5.2765 N   0  0  0  0  0  0  0  0  0  0  0  0
   27.4960   74.0503    5.0019 C   0  0  0  0  0  0  0  0  0  0  0  0
   27.3054   72.5703    3.0826 C   0  0  0  0  0  0  0  0  0  0  0  0
   28.4404   71.9241    3.3573 C   0  0  0  0  0  0  0  0  0  0  0  0
   29.2281   72.3185    4.5431 C   0  0  0  0  0  0  0  0  0  0  0  0
   29.1860   73.6480    6.0736 H   0  0  0  0  0  0  0  0  0  0  0  0
   22.3333   70.8008   -1.4027 O   0  0  0  0  0  0  0  0  0  0  0  0
   22.9001   71.6238   -2.6733 P   0  0  2  0  0  0  0  0  0  0  0  0
   24.2491   70.8205   -3.0639 O   0  0  0  0  0  0  0  0  0  0  0  0
   23.1043   73.0888   -2.4162 O   0  0  0  0  0  0  0  0  0  0  0  0
   21.8676   71.2921   -3.8686 O   0  0  0  0  0  0  0  0  0  0  0  0
   21.3778   71.9827   -6.0821 O   0  0  0  0  0  0  0  0  0  0  0  0
   17.6347   72.4488   -4.4019 O   0  0  0  0  0  0  0  0  0  0  0  0
   18.1125   70.2774   -6.2197 O   0  0  0  0  0  0  0  0  0  0  0  0
   19.9976   73.1345   -2.8768 O   0  0  0  0  0  0  0  0  0  0  0  0
   18.9118   71.8327   -4.5879 C   0  0  1  0  0  0  0  0  0  0  0  0
   19.0127   71.3675   -6.0419 C   0  0  1  0  0  0  0  0  0  0  0  0
   20.0073   72.8492   -4.2714 C   0  0  2  0  0  0  0  0  0  0  0  0
   20.4452   70.9396   -6.3885 C   0  0  1  0  0  0  0  0  0  0  0  0
   21.3865   72.3451   -4.6999 C   0  0  1  0  0  0  0  0  0  0  0  0
   16.9347   71.8086   -4.6008 H   0  0  0  0  0  0  0  0  0  0  0  0
   17.2118   70.5607   -5.9971 H   0  0  0  0  0  0  0  0  0  0  0  0
   19.1192   73.4530   -2.6181 H   0  0  0  0  0  0  0  0  0  0  0  0
   19.6942   71.4240   -8.6045 O   0  0  0  0  0  0  0  0  0  0  0  0
   20.6035   70.6218   -7.8738 C   0  0  0  0  0  0  0  0  0  0  0  0
   19.7840   71.2327   -9.5516 H   0  0  0  0  0  0  0  0  0  0  0  0
 25 28  1  0
 25 24  1  0
 25 26  1  6
 25 27  2  0
  1  4  1  0
  1 24  1  0
  1  2  1  6
  1  3  2  0
  6 11  1  0
  6 12  1  0
 29 36  1  0
 29 37  1  0
  9  7  1  1
  7 13  1  0
 10  8  1  1
  8 14  1  0
 37 28  1  1
  4  5  1  0
 33 30  1  6
 30 38  1  0
 34 31  1  1
 31 39  1  0
 35 32  1  1
 32 40  1  0
 41 42  1  0
 41 43  1  0
 15 19  2  0
 16 22  2  0
 12 17  1  6
 17 19  1  0
 17 20  1  0
 18 19  1  0
 18 22  1  0
 18 23  1  0
  9 10  1  0
  9 11  1  0
 10 12  1  0
 11  5  1  6
 33 34  1  0
 33 35  1  0
 34 36  1  0
 35 37  1  0
 36 42  1  6
 20 21  2  0
 21 22  1  0
M  CHG  2   2  -1  26  -1
M  END
>  <COMPND>  (110) 
    8629 

>  <AUTHOR>  (110) 
    GENERATED BY OPEN BABEL 3.1.1

>  <MASTER>  (110) 
        0    0    0    0    0    0    0    0   58    0   58    0

>  <minimizedAffinity>  (110) 
-6.60393

>  <CNNscore>  (110) 
0.7894383073

>  <CNNaffinity>  (110) 
4.3322792053

>  <CNN_VS>  (110) 
3.4200670719

>  <CNNaffinity_variance>  (110) 
0.0220202506

$$$$
111
     RDKit          3D

 43 45  0  0  0  0  0  0  0  0999 V2000
   21.8864   72.5150   -5.6710 P   0  0  2  0  0  0  0  0  0  0  0  0
   21.1668   73.9559   -5.5190 O   0  0  0  0  0  0  0  0  0  0  0  0
   23.1871   72.5319   -6.4188 O   0  0  0  0  0  0  0  0  0  0  0  0
   20.7312   71.5675   -6.2921 O   0  0  0  0  0  0  0  0  0  0  0  0
   20.0757   71.9881   -7.4759 C   0  0  0  0  0  0  0  0  0  0  0  0
   18.8508   69.9539   -7.1079 O   0  0  0  0  0  0  0  0  0  0  0  0
   18.1242   70.0860  -10.0140 O   0  0  0  0  0  0  0  0  0  0  0  0
   15.8719   71.0230   -8.7950 O   0  0  0  0  0  0  0  0  0  0  0  0
   18.2839   71.1479   -9.0748 C   0  0  1  0  0  0  0  0  0  0  0  0
   17.1048   71.1920   -8.1254 C   0  0  2  0  0  0  0  0  0  0  0  0
   19.4304   70.7802   -8.1412 C   0  0  1  0  0  0  0  0  0  0  0  0
   17.4185   70.0449   -7.1799 C   0  0  2  0  0  0  0  0  0  0  0  0
   17.3975   70.2983  -10.6214 H   0  0  0  0  0  0  0  0  0  0  0  0
   15.7177   71.7779   -9.3842 H   0  0  0  0  0  0  0  0  0  0  0  0
   16.3180   68.0250   -5.5407 O   0  0  0  0  0  0  0  0  0  0  0  0
   15.4521   71.0063   -2.1343 O   0  0  0  0  0  0  0  0  0  0  0  0
   16.8984   70.2652   -5.8600 N   0  0  0  0  0  0  0  0  0  0  0  0
   15.8879   69.5111   -3.8459 N   0  0  0  0  0  0  0  0  0  0  0  0
   16.3669   69.1829   -5.1206 C   0  0  0  0  0  0  0  0  0  0  0  0
   16.9188   71.5429   -5.3114 C   0  0  0  0  0  0  0  0  0  0  0  0
   16.4569   71.8395   -4.0949 C   0  0  0  0  0  0  0  0  0  0  0  0
   15.8850   70.7657   -3.2570 C   0  0  0  0  0  0  0  0  0  0  0  0
   15.5127   68.7731   -3.3126 H   0  0  0  0  0  0  0  0  0  0  0  0
   21.9957   72.0002   -4.1426 O   0  0  0  0  0  0  0  0  0  0  0  0
   23.2119   72.0779   -3.0807 P   0  0  2  0  0  0  0  0  0  0  0  0
   23.8712   73.5254   -3.3769 O   0  0  0  0  0  0  0  0  0  0  0  0
   24.1757   70.9298   -3.1639 O   0  0  0  0  0  0  0  0  0  0  0  0
   22.4916   72.2439   -1.6460 O   0  0  0  0  0  0  0  0  0  0  0  0
   23.4206   70.6577   -0.1501 O   0  0  0  0  0  0  0  0  0  0  0  0
   20.4698   72.2117    2.2849 O   0  0  0  0  0  0  0  0  0  0  0  0
   23.2197   72.8622    2.7976 O   0  0  0  0  0  0  0  0  0  0  0  0
   19.9518   71.8089   -0.5345 O   0  0  0  0  0  0  0  0  0  0  0  0
   21.4801   72.2527    1.2734 C   0  0  1  0  0  0  0  0  0  0  0  0
   22.8083   71.8307    1.9048 C   0  0  1  0  0  0  0  0  0  0  0  0
   21.0947   71.2991    0.1440 C   0  0  2  0  0  0  0  0  0  0  0  0
   23.8804   71.5926    0.8329 C   0  0  1  0  0  0  0  0  0  0  0  0
   22.2478   71.0939   -0.8401 C   0  0  1  0  0  0  0  0  0  0  0  0
   20.7082   72.8153    3.0048 H   0  0  0  0  0  0  0  0  0  0  0  0
   22.5338   73.0029    3.4691 H   0  0  0  0  0  0  0  0  0  0  0  0
   19.2289   71.9341    0.0992 H   0  0  0  0  0  0  0  0  0  0  0  0
   24.8307   70.2580    2.5720 O   0  0  0  0  0  0  0  0  0  0  0  0
   25.1655   71.0198    1.4267 C   0  0  0  0  0  0  0  0  0  0  0  0
   25.6390   69.8869    2.9603 H   0  0  0  0  0  0  0  0  0  0  0  0
 25 28  1  0
 25 24  1  0
 25 26  1  6
 25 27  2  0
  1  4  1  0
  1 24  1  0
  1  2  1  1
  1  3  2  0
  6 11  1  0
  6 12  1  0
 29 36  1  0
 29 37  1  0
  9  7  1  6
  7 13  1  0
 10  8  1  6
  8 14  1  0
 37 28  1  1
  4  5  1  0
 33 30  1  1
 30 38  1  0
 34 31  1  1
 31 39  1  0
 35 32  1  6
 32 40  1  0
 41 42  1  0
 41 43  1  0
 15 19  2  0
 16 22  2  0
 12 17  1  1
 17 19  1  0
 17 20  1  0
 18 19  1  0
 18 22  1  0
 18 23  1  0
  9 10  1  0
  9 11  1  0
 10 12  1  0
 11  5  1  1
 33 34  1  0
 33 35  1  0
 34 36  1  0
 35 37  1  0
 36 42  1  1
 20 21  2  0
 21 22  1  0
M  CHG  2   2  -1  26  -1
M  END
>  <COMPND>  (111) 
    8629 

>  <AUTHOR>  (111) 
    GENERATED BY OPEN BABEL 3.1.1

>  <MASTER>  (111) 
        0    0    0    0    0    0    0    0   58    0   58    0

>  <minimizedAffinity>  (111) 
-8.38955

>  <CNNscore>  (111) 
0.7080856562

>  <CNNaffinity>  (111) 
4.4745006561

>  <CNN_VS>  (111) 
3.1683297157

>  <CNNaffinity_variance>  (111) 
0.2740819156

$$$$
112
     RDKit          3D

 43 45  0  0  0  0  0  0  0  0999 V2000
   23.0739   72.4710   -2.6470 P   0  0  2  0  0  0  0  0  0  0  0  0
   23.9791   71.2566   -3.2154 O   0  0  0  0  0  0  0  0  0  0  0  0
   23.7603   73.8045   -2.5992 O   0  0  0  0  0  0  0  0  0  0  0  0
   22.5213   71.9142   -1.2319 O   0  0  0  0  0  0  0  0  0  0  0  0
   22.1406   72.8507   -0.2390 C   0  0  0  0  0  0  0  0  0  0  0  0
   22.6846   71.3166    1.5286 O   0  0  0  0  0  0  0  0  0  0  0  0
   20.1994   72.2964    2.8904 O   0  0  0  0  0  0  0  0  0  0  0  0
   22.1690   73.6546    4.1990 O   0  0  0  0  0  0  0  0  0  0  0  0
   21.1354   73.0190    2.0921 C   0  0  1  0  0  0  0  0  0  0  0  0
   22.4155   73.2543    2.8664 C   0  0  2  0  0  0  0  0  0  0  0  0
   21.6056   72.0992    0.9722 C   0  0  1  0  0  0  0  0  0  0  0  0
   23.0906   71.8960    2.7793 C   0  0  2  0  0  0  0  0  0  0  0  0
   19.8846   72.8636    3.6123 H   0  0  0  0  0  0  0  0  0  0  0  0
   21.7389   74.5239    4.2013 H   0  0  0  0  0  0  0  0  0  0  0  0
   24.8461   69.7375    2.2926 O   0  0  0  0  0  0  0  0  0  0  0  0
   28.5671   72.3870    2.9056 O   0  0  0  0  0  0  0  0  0  0  0  0
   24.5228   71.9937    2.8050 N   0  0  0  0  0  0  0  0  0  0  0  0
   26.6975   71.0586    2.5981 N   0  0  0  0  0  0  0  0  0  0  0  0
   25.3134   70.8494    2.5476 C   0  0  0  0  0  0  0  0  0  0  0  0
   25.1294   73.2139    3.0825 C   0  0  0  0  0  0  0  0  0  0  0  0
   26.4507   73.3964    3.1281 C   0  0  0  0  0  0  0  0  0  0  0  0
   27.3480   72.2515    2.8709 C   0  0  0  0  0  0  0  0  0  0  0  0
   27.2682   70.2755    2.4224 H   0  0  0  0  0  0  0  0  0  0  0  0
   21.7643   72.4220   -3.5932 O   0  0  0  0  0  0  0  0  0  0  0  0
   20.5478   71.3601   -3.6679 P   0  0  2  0  0  0  0  0  0  0  0  0
   19.6159   71.7746   -2.4120 O   0  0  0  0  0  0  0  0  0  0  0  0
   20.9840   69.9236   -3.6679 O   0  0  0  0  0  0  0  0  0  0  0  0
   19.6995   71.8016   -4.9681 O   0  0  0  0  0  0  0  0  0  0  0  0
   18.6846   69.8275   -5.7985 O   0  0  0  0  0  0  0  0  0  0  0  0
   17.3346   72.5070   -8.6355 O   0  0  0  0  0  0  0  0  0  0  0  0
   15.5035   71.4669   -6.6826 O   0  0  0  0  0  0  0  0  0  0  0  0
   20.0245   72.7418   -7.5921 O   0  0  0  0  0  0  0  0  0  0  0  0
   17.7237   72.0805   -7.3270 C   0  0  1  0  0  0  0  0  0  0  0  0
   16.8055   70.9321   -6.9041 C   0  0  1  0  0  0  0  0  0  0  0  0
   19.1794   71.6190   -7.3647 C   0  0  2  0  0  0  0  0  0  0  0  0
   17.3250   70.2468   -5.6330 C   0  0  1  0  0  0  0  0  0  0  0  0
   19.5799   70.9072   -6.0713 C   0  0  1  0  0  0  0  0  0  0  0  0
   16.4114   72.8018   -8.6183 H   0  0  0  0  0  0  0  0  0  0  0  0
   15.1873   71.8972   -7.4926 H   0  0  0  0  0  0  0  0  0  0  0  0
   19.7610   73.1836   -8.4138 H   0  0  0  0  0  0  0  0  0  0  0  0
   15.8575   69.2255   -4.0480 O   0  0  0  0  0  0  0  0  0  0  0  0
   16.5136   69.0015   -5.2823 C   0  0  0  0  0  0  0  0  0  0  0  0
   15.3369   68.4412   -3.8122 H   0  0  0  0  0  0  0  0  0  0  0  0
 25 28  1  0
 25 24  1  0
 25 26  1  1
 25 27  2  0
  1  4  1  0
  1 24  1  0
  1  2  1  6
  1  3  2  0
  6 11  1  0
  6 12  1  0
 29 36  1  0
 29 37  1  0
  9  7  1  1
  7 13  1  0
 10  8  1  1
  8 14  1  0
 37 28  1  1
  4  5  1  0
 33 30  1  6
 30 38  1  0
 34 31  1  1
 31 39  1  0
 35 32  1  1
 32 40  1  0
 41 42  1  0
 41 43  1  0
 15 19  2  0
 16 22  2  0
 12 17  1  6
 17 19  1  0
 17 20  1  0
 18 19  1  0
 18 22  1  0
 18 23  1  0
  9 10  1  0
  9 11  1  0
 10 12  1  0
 11  5  1  6
 33 34  1  0
 33 35  1  0
 34 36  1  0
 35 37  1  0
 36 42  1  6
 20 21  2  0
 21 22  1  0
M  CHG  2   2  -1  26  -1
M  END
>  <COMPND>  (112) 
    8629 

>  <AUTHOR>  (112) 
    GENERATED BY OPEN BABEL 3.1.1

>  <MASTER>  (112) 
        0    0    0    0    0    0    0    0   58    0   58    0

>  <minimizedAffinity>  (112) 
-7.41928

>  <CNNscore>  (112) 
0.6883531213

>  <CNNaffinity>  (112) 
4.4759178162

>  <CNN_VS>  (112) 
3.0810120106

>  <CNNaffinity_variance>  (112) 
0.1066127568

$$$$
113
     RDKit          3D

 43 45  0  0  0  0  0  0  0  0999 V2000
   15.0548   70.7484   -2.1216 P   0  0  2  0  0  0  0  0  0  0  0  0
   15.9531   71.3345   -0.9104 O   0  0  0  0  0  0  0  0  0  0  0  0
   14.5896   71.7699   -3.1174 O   0  0  0  0  0  0  0  0  0  0  0  0
   13.8876   69.9157   -1.3718 O   0  0  0  0  0  0  0  0  0  0  0  0
   14.2527   68.7834   -0.6021 C   0  0  0  0  0  0  0  0  0  0  0  0
   12.1272   68.8259    0.5180 O   0  0  0  0  0  0  0  0  0  0  0  0
   13.6298   68.0633    2.9982 O   0  0  0  0  0  0  0  0  0  0  0  0
   12.5510   65.6884    2.2029 O   0  0  0  0  0  0  0  0  0  0  0  0
   13.8558   67.6633    1.6476 C   0  0  1  0  0  0  0  0  0  0  0  0
   12.8047   66.6636    1.2123 C   0  0  2  0  0  0  0  0  0  0  0  0
   13.5529   68.8552    0.7482 C   0  0  1  0  0  0  0  0  0  0  0  0
   11.6056   67.5598    0.9535 C   0  0  2  0  0  0  0  0  0  0  0  0
   13.8171   67.3184    3.5915 H   0  0  0  0  0  0  0  0  0  0  0  0
   13.3433   65.1438    2.3312 H   0  0  0  0  0  0  0  0  0  0  0  0
    9.0952   68.6602    0.2713 O   0  0  0  0  0  0  0  0  0  0  0  0
    8.3720   65.4672   -2.9726 O   0  0  0  0  0  0  0  0  0  0  0  0
   10.7405   67.0364   -0.0658 N   0  0  0  0  0  0  0  0  0  0  0  0
    8.7373   67.0695   -1.3435 N   0  0  0  0  0  0  0  0  0  0  0  0
    9.5001   67.6628   -0.3295 C   0  0  0  0  0  0  0  0  0  0  0  0
   11.1248   65.9143   -0.7919 C   0  0  0  0  0  0  0  0  0  0  0  0
   10.3852   65.3601   -1.7547 C   0  0  0  0  0  0  0  0  0  0  0  0
    9.0753   65.9535   -2.0924 C   0  0  0  0  0  0  0  0  0  0  0  0
    7.8690   67.4886   -1.5443 H   0  0  0  0  0  0  0  0  0  0  0  0
   15.9918   69.5850   -2.7391 O   0  0  0  0  0  0  0  0  0  0  0  0
   17.4088   69.6621   -3.5131 P   0  0  2  0  0  0  0  0  0  0  0  0
   17.8465   68.1098   -3.6414 O   0  0  0  0  0  0  0  0  0  0  0  0
   18.4277   70.5397   -2.8455 O   0  0  0  0  0  0  0  0  0  0  0  0
   17.0286   70.1041   -5.0181 O   0  0  0  0  0  0  0  0  0  0  0  0
   18.7194   71.2970   -6.1735 O   0  0  0  0  0  0  0  0  0  0  0  0
   15.5228   72.1111   -8.6574 O   0  0  0  0  0  0  0  0  0  0  0  0
   17.5668   70.2909   -9.5274 O   0  0  0  0  0  0  0  0  0  0  0  0
   15.1388   72.0299   -5.7894 O   0  0  0  0  0  0  0  0  0  0  0  0
   16.3126   71.3169   -7.7681 C   0  0  1  0  0  0  0  0  0  0  0  0
   17.6994   71.1374   -8.3888 C   0  0  1  0  0  0  0  0  0  0  0  0
   16.4148   72.0288   -6.4204 C   0  0  2  0  0  0  0  0  0  0  0  0
   18.6827   70.5272   -7.3809 C   0  0  1  0  0  0  0  0  0  0  0  0
   17.4551   71.3713   -5.5118 C   0  0  1  0  0  0  0  0  0  0  0  0
   15.4535   71.6645   -9.5149 H   0  0  0  0  0  0  0  0  0  0  0  0
   16.9429   70.6874  -10.1557 H   0  0  0  0  0  0  0  0  0  0  0  0
   14.4892   72.4490   -6.3744 H   0  0  0  0  0  0  0  0  0  0  0  0
   20.4641   71.7864   -8.3553 O   0  0  0  0  0  0  0  0  0  0  0  0
   20.1084   70.4850   -7.9266 C   0  0  0  0  0  0  0  0  0  0  0  0
   21.3694   71.7749   -8.7049 H   0  0  0  0  0  0  0  0  0  0  0  0
 25 28  1  0
 25 24  1  0
 25 26  1  6
 25 27  2  0
  1  4  1  0
  1 24  1  0
  1  2  1  1
  1  3  2  0
  6 11  1  0
  6 12  1  0
 29 36  1  0
 29 37  1  0
  9  7  1  1
  7 13  1  0
 10  8  1  1
  8 14  1  0
 37 28  1  6
  4  5  1  0
 33 30  1  6
 30 38  1  0
 34 31  1  6
 31 39  1  0
 35 32  1  1
 32 40  1  0
 41 42  1  0
 41 43  1  0
 15 19  2  0
 16 22  2  0
 12 17  1  6
 17 19  1  0
 17 20  1  0
 18 19  1  0
 18 22  1  0
 18 23  1  0
  9 10  1  0
  9 11  1  0
 10 12  1  0
 11  5  1  6
 33 34  1  0
 33 35  1  0
 34 36  1  0
 35 37  1  0
 36 42  1  6
 20 21  2  0
 21 22  1  0
M  CHG  2   2  -1  26  -1
M  END
>  <COMPND>  (113) 
    8629 

>  <AUTHOR>  (113) 
    GENERATED BY OPEN BABEL 3.1.1

>  <MASTER>  (113) 
        0    0    0    0    0    0    0    0   58    0   58    0

>  <minimizedAffinity>  (113) 
-6.94675

>  <CNNscore>  (113) 
0.6444449425

>  <CNNaffinity>  (113) 
4.4086647034

>  <CNN_VS>  (113) 
2.8411417007

>  <CNNaffinity_variance>  (113) 
0.1146855131

$$$$
114
     RDKit          3D

 43 45  0  0  0  0  0  0  0  0999 V2000
   23.3505   71.8638   -3.3333 P   0  0  2  0  0  0  0  0  0  0  0  0
   24.1098   72.9417   -4.2708 O   0  0  0  0  0  0  0  0  0  0  0  0
   24.1931   70.7037   -2.8911 O   0  0  0  0  0  0  0  0  0  0  0  0
   22.0207   71.4863   -4.1740 O   0  0  0  0  0  0  0  0  0  0  0  0
   21.5679   72.3917   -5.1655 C   0  0  0  0  0  0  0  0  0  0  0  0
   20.5425   70.4502   -6.1417 O   0  0  0  0  0  0  0  0  0  0  0  0
   20.7699   71.8809   -8.7670 O   0  0  0  0  0  0  0  0  0  0  0  0
   18.1515   72.2619   -8.1074 O   0  0  0  0  0  0  0  0  0  0  0  0
   20.4935   72.4109   -7.4717 C   0  0  1  0  0  0  0  0  0  0  0  0
   19.0769   72.0726   -7.0564 C   0  0  2  0  0  0  0  0  0  0  0  0
   21.3179   71.6270   -6.4582 C   0  0  1  0  0  0  0  0  0  0  0  0
   19.2079   70.6151   -6.6482 C   0  0  2  0  0  0  0  0  0  0  0  0
   20.2549   72.3660   -9.4314 H   0  0  0  0  0  0  0  0  0  0  0  0
   18.1039   73.2046   -8.3306 H   0  0  0  0  0  0  0  0  0  0  0  0
   16.5361   69.8375   -7.1330 O   0  0  0  0  0  0  0  0  0  0  0  0
   15.7062   69.2260   -2.6409 O   0  0  0  0  0  0  0  0  0  0  0  0
   18.2716   70.2470   -5.6238 N   0  0  0  0  0  0  0  0  0  0  0  0
   16.1251   69.5335   -4.8959 N   0  0  0  0  0  0  0  0  0  0  0  0
   16.9531   69.8732   -5.9734 C   0  0  0  0  0  0  0  0  0  0  0  0
   18.6639   70.2588   -4.2897 C   0  0  0  0  0  0  0  0  0  0  0  0
   17.8618   69.9333   -3.2738 C   0  0  0  0  0  0  0  0  0  0  0  0
   16.4683   69.5309   -3.5531 C   0  0  0  0  0  0  0  0  0  0  0  0
   15.2020   69.2701   -5.1153 H   0  0  0  0  0  0  0  0  0  0  0  0
   22.7726   72.7733   -2.1284 O   0  0  0  0  0  0  0  0  0  0  0  0
   21.3417   72.7549   -1.3767 P   0  0  2  0  0  0  0  0  0  0  0  0
   20.7964   71.2570   -1.6534 O   0  0  0  0  0  0  0  0  0  0  0  0
   20.4048   73.8450   -1.8101 O   0  0  0  0  0  0  0  0  0  0  0  0
   21.7060   72.7720    0.1956 O   0  0  0  0  0  0  0  0  0  0  0  0
   22.9204   74.2352    1.6102 O   0  0  0  0  0  0  0  0  0  0  0  0
   24.3935   70.6263    2.9729 O   0  0  0  0  0  0  0  0  0  0  0  0
   22.5691   72.1223    4.6104 O   0  0  0  0  0  0  0  0  0  0  0  0
   23.8851   71.0044    0.1483 O   0  0  0  0  0  0  0  0  0  0  0  0
   23.4021   71.5157    2.4519 C   0  0  1  0  0  0  0  0  0  0  0  0
   23.2069   72.6559    3.4534 C   0  0  1  0  0  0  0  0  0  0  0  0
   23.8765   72.0584    1.1052 C   0  0  2  0  0  0  0  0  0  0  0  0
   22.3608   73.7848    2.8495 C   0  0  1  0  0  0  0  0  0  0  0  0
   22.9950   73.2097    0.6179 C   0  0  1  0  0  0  0  0  0  0  0  0
   24.0982   70.2778    3.8278 H   0  0  0  0  0  0  0  0  0  0  0  0
   23.1133   71.4101    4.9817 H   0  0  0  0  0  0  0  0  0  0  0  0
   24.4468   70.2820    0.4683 H   0  0  0  0  0  0  0  0  0  0  0  0
   23.4068   74.9777    4.6360 O   0  0  0  0  0  0  0  0  0  0  0  0
   22.2853   74.9992    3.7723 C   0  0  0  0  0  0  0  0  0  0  0  0
   23.3723   75.7451    5.2290 H   0  0  0  0  0  0  0  0  0  0  0  0
 25 28  1  0
 25 24  1  0
 25 26  1  1
 25 27  2  0
  1  4  1  0
  1 24  1  0
  1  2  1  6
  1  3  2  0
  6 11  1  0
  6 12  1  0
 29 36  1  0
 29 37  1  0
  9  7  1  6
  7 13  1  0
 10  8  1  6
  8 14  1  0
 37 28  1  1
  4  5  1  0
 33 30  1  1
 30 38  1  0
 34 31  1  1
 31 39  1  0
 35 32  1  6
 32 40  1  0
 41 42  1  0
 41 43  1  0
 15 19  2  0
 16 22  2  0
 12 17  1  1
 17 19  1  0
 17 20  1  0
 18 19  1  0
 18 22  1  0
 18 23  1  0
  9 10  1  0
  9 11  1  0
 10 12  1  0
 11  5  1  1
 33 34  1  0
 33 35  1  0
 34 36  1  0
 35 37  1  0
 36 42  1  1
 20 21  2  0
 21 22  1  0
M  CHG  2   2  -1  26  -1
M  END
>  <COMPND>  (114) 
    8629 

>  <AUTHOR>  (114) 
    GENERATED BY OPEN BABEL 3.1.1

>  <MASTER>  (114) 
        0    0    0    0    0    0    0    0   58    0   58    0

>  <minimizedAffinity>  (114) 
-7.51585

>  <CNNscore>  (114) 
0.6176189184

>  <CNNaffinity>  (114) 
4.3031749725

>  <CNN_VS>  (114) 
2.6577222347

>  <CNNaffinity_variance>  (114) 
0.1360928416

$$$$
115
     RDKit          3D

 43 45  0  0  0  0  0  0  0  0999 V2000
   20.0160   74.2994   -5.0652 P   0  0  2  0  0  0  0  0  0  0  0  0
   19.9313   75.3939   -3.8768 O   0  0  0  0  0  0  0  0  0  0  0  0
   20.3151   74.8610   -6.4240 O   0  0  0  0  0  0  0  0  0  0  0  0
   18.6291   73.4763   -4.9348 O   0  0  0  0  0  0  0  0  0  0  0  0
   18.4324   72.6594   -3.7938 C   0  0  0  0  0  0  0  0  0  0  0  0
   16.6789   71.9640   -5.2823 O   0  0  0  0  0  0  0  0  0  0  0  0
   15.7416   70.1946   -3.0504 O   0  0  0  0  0  0  0  0  0  0  0  0
   17.0689   68.4511   -4.6737 O   0  0  0  0  0  0  0  0  0  0  0  0
   17.0729   70.5399   -3.4295 C   0  0  1  0  0  0  0  0  0  0  0  0
   17.4661   69.8070   -4.6952 C   0  0  2  0  0  0  0  0  0  0  0  0
   17.0675   71.9919   -3.8914 C   0  0  1  0  0  0  0  0  0  0  0  0
   16.7432   70.6111   -5.7624 C   0  0  2  0  0  0  0  0  0  0  0  0
   15.7199   69.2715   -2.7513 H   0  0  0  0  0  0  0  0  0  0  0  0
   17.5565   67.9822   -3.9786 H   0  0  0  0  0  0  0  0  0  0  0  0
   15.4668   70.6170   -8.2821 O   0  0  0  0  0  0  0  0  0  0  0  0
   19.4920   70.5481  -10.5257 O   0  0  0  0  0  0  0  0  0  0  0  0
   17.4333   70.5954   -7.0213 N   0  0  0  0  0  0  0  0  0  0  0  0
   17.4721   70.5829   -9.3972 N   0  0  0  0  0  0  0  0  0  0  0  0
   16.6983   70.5989   -8.2297 C   0  0  0  0  0  0  0  0  0  0  0  0
   18.8235   70.5770   -7.0493 C   0  0  0  0  0  0  0  0  0  0  0  0
   19.5465   70.5606   -8.1711 C   0  0  0  0  0  0  0  0  0  0  0  0
   18.8555   70.5631   -9.4767 C   0  0  0  0  0  0  0  0  0  0  0  0
   16.9815   70.5846  -10.2511 H   0  0  0  0  0  0  0  0  0  0  0  0
   21.1148   73.2493   -4.5145 O   0  0  0  0  0  0  0  0  0  0  0  0
   22.7238   73.3570   -4.4036 P   0  0  2  0  0  0  0  0  0  0  0  0
   23.0062   74.9347   -4.6242 O   0  0  0  0  0  0  0  0  0  0  0  0
   23.4673   72.4569   -5.3475 O   0  0  0  0  0  0  0  0  0  0  0  0
   23.0438   73.0999   -2.8427 O   0  0  0  0  0  0  0  0  0  0  0  0
   21.4919   73.1239   -1.0517 O   0  0  0  0  0  0  0  0  0  0  0  0
   24.8390   74.4696    0.9575 O   0  0  0  0  0  0  0  0  0  0  0  0
   23.8735   71.8073    1.4350 O   0  0  0  0  0  0  0  0  0  0  0  0
   24.3363   75.3416   -1.7566 O   0  0  0  0  0  0  0  0  0  0  0  0
   24.1228   73.6971   -0.0098 C   0  0  1  0  0  0  0  0  0  0  0  0
   23.1306   72.7997    0.7325 C   0  0  1  0  0  0  0  0  0  0  0  0
   23.3876   74.6422   -0.9582 C   0  0  2  0  0  0  0  0  0  0  0  0
   22.1449   72.1398   -0.2412 C   0  0  1  0  0  0  0  0  0  0  0  0
   22.3967   73.8905   -1.8489 C   0  0  1  0  0  0  0  0  0  0  0  0
   25.3085   73.8755    1.5626 H   0  0  0  0  0  0  0  0  0  0  0  0
   24.4924   72.2372    2.0460 H   0  0  0  0  0  0  0  0  0  0  0  0
   24.9576   75.8136   -1.1811 H   0  0  0  0  0  0  0  0  0  0  0  0
   21.6123   70.1764    1.0119 O   0  0  0  0  0  0  0  0  0  0  0  0
   21.0499   71.3663    0.4901 C   0  0  0  0  0  0  0  0  0  0  0  0
   20.9268   69.6739    1.4804 H   0  0  0  0  0  0  0  0  0  0  0  0
 25 28  1  0
 25 24  1  0
 25 26  1  6
 25 27  2  0
  1  4  1  0
  1 24  1  0
  1  2  1  1
  1  3  2  0
  6 11  1  0
  6 12  1  0
 29 36  1  0
 29 37  1  0
  9  7  1  6
  7 13  1  0
 10  8  1  1
  8 14  1  0
 37 28  1  6
  4  5  1  0
 33 30  1  1
 30 38  1  0
 34 31  1  6
 31 39  1  0
 35 32  1  6
 32 40  1  0
 41 42  1  0
 41 43  1  0
 15 19  2  0
 16 22  2  0
 12 17  1  6
 17 19  1  0
 17 20  1  0
 18 19  1  0
 18 22  1  0
 18 23  1  0
  9 10  1  0
  9 11  1  0
 10 12  1  0
 11  5  1  6
 33 34  1  0
 33 35  1  0
 34 36  1  0
 35 37  1  0
 36 42  1  1
 20 21  2  0
 21 22  1  0
M  CHG  2   2  -1  26  -1
M  END
>  <COMPND>  (115) 
    8629 

>  <AUTHOR>  (115) 
    GENERATED BY OPEN BABEL 3.1.1

>  <MASTER>  (115) 
        0    0    0    0    0    0    0    0   58    0   58    0

>  <minimizedAffinity>  (115) 
-6.88780

>  <CNNscore>  (115) 
0.6040138602

>  <CNNaffinity>  (115) 
4.3660135269

>  <CNN_VS>  (115) 
2.6371326447

>  <CNNaffinity_variance>  (115) 
0.0576747879

$$$$
116
     RDKit          3D

 43 45  0  0  0  0  0  0  0  0999 V2000
   20.4141   71.1633   -1.3430 P   0  0  2  0  0  0  0  0  0  0  0  0
   21.6216   70.6535   -2.2914 O   0  0  0  0  0  0  0  0  0  0  0  0
   20.1250   72.6337   -1.4204 O   0  0  0  0  0  0  0  0  0  0  0  0
   20.8070   70.6007    0.1223 O   0  0  0  0  0  0  0  0  0  0  0  0
   21.3827   71.4955    1.0581 C   0  0  0  0  0  0  0  0  0  0  0  0
   23.6265   71.9818    0.3490 O   0  0  0  0  0  0  0  0  0  0  0  0
   24.5182   70.6119    2.8627 O   0  0  0  0  0  0  0  0  0  0  0  0
   24.7325   73.2509    3.5158 O   0  0  0  0  0  0  0  0  0  0  0  0
   23.3738   71.4344    2.6407 C   0  0  1  0  0  0  0  0  0  0  0  0
   23.7842   72.8882    2.5330 C   0  0  2  0  0  0  0  0  0  0  0  0
   22.8536   71.1460    1.2380 C   0  0  1  0  0  0  0  0  0  0  0  0
   24.3485   72.9528    1.1240 C   0  0  2  0  0  0  0  0  0  0  0  0
   24.8680   70.7783    3.7526 H   0  0  0  0  0  0  0  0  0  0  0  0
   24.3257   73.1940    4.3945 H   0  0  0  0  0  0  0  0  0  0  0  0
   25.9493   75.2046    1.7113 O   0  0  0  0  0  0  0  0  0  0  0  0
   23.6075   77.8662   -1.2337 O   0  0  0  0  0  0  0  0  0  0  0  0
   24.1795   74.2467    0.5250 N   0  0  0  0  0  0  0  0  0  0  0  0
   24.7821   76.5280    0.2443 N   0  0  0  0  0  0  0  0  0  0  0  0
   25.0362   75.3112    0.8900 C   0  0  0  0  0  0  0  0  0  0  0  0
   23.1734   74.4498   -0.4133 C   0  0  0  0  0  0  0  0  0  0  0  0
   22.9434   75.6167   -1.0189 C   0  0  0  0  0  0  0  0  0  0  0  0
   23.7937   76.7800   -0.6940 C   0  0  0  0  0  0  0  0  0  0  0  0
   25.3661   77.2840    0.4831 H   0  0  0  0  0  0  0  0  0  0  0  0
   19.1826   70.2117   -1.7794 O   0  0  0  0  0  0  0  0  0  0  0  0
   17.8558   70.5241   -2.6484 P   0  0  2  0  0  0  0  0  0  0  0  0
   17.1253   71.6939   -1.8026 O   0  0  0  0  0  0  0  0  0  0  0  0
   16.9962   69.3220   -2.9127 O   0  0  0  0  0  0  0  0  0  0  0  0
   18.4015   71.2612   -3.9765 O   0  0  0  0  0  0  0  0  0  0  0  0
   17.8974   69.9852   -5.9089 O   0  0  0  0  0  0  0  0  0  0  0  0
   20.3283   72.8485   -7.6245 O   0  0  0  0  0  0  0  0  0  0  0  0
   17.4990   72.9125   -8.1137 O   0  0  0  0  0  0  0  0  0  0  0  0
   20.9577   71.8050   -4.9988 O   0  0  0  0  0  0  0  0  0  0  0  0
   19.3505   72.3485   -6.7083 C   0  0  1  0  0  0  0  0  0  0  0  0
   18.1695   71.8064   -7.5160 C   0  0  1  0  0  0  0  0  0  0  0  0
   19.9779   71.2411   -5.8638 C   0  0  2  0  0  0  0  0  0  0  0  0
   17.2042   71.0155   -6.6229 C   0  0  1  0  0  0  0  0  0  0  0  0
   18.9251   70.4853   -5.0512 C   0  0  1  0  0  0  0  0  0  0  0  0
   19.9364   73.5524   -8.1634 H   0  0  0  0  0  0  0  0  0  0  0  0
   18.1198   73.4038   -8.6745 H   0  0  0  0  0  0  0  0  0  0  0  0
   21.6185   72.2804   -5.5253 H   0  0  0  0  0  0  0  0  0  0  0  0
   15.5660   69.2766   -6.6604 O   0  0  0  0  0  0  0  0  0  0  0  0
   16.1039   70.3337   -7.4333 C   0  0  0  0  0  0  0  0  0  0  0  0
   14.8642   68.8337   -7.1634 H   0  0  0  0  0  0  0  0  0  0  0  0
 25 28  1  0
 25 24  1  0
 25 26  1  1
 25 27  2  0
  1  4  1  0
  1 24  1  0
  1  2  1  6
  1  3  2  0
  6 11  1  0
  6 12  1  0
 29 36  1  0
 29 37  1  0
  9  7  1  6
  7 13  1  0
 10  8  1  1
  8 14  1  0
 37 28  1  1
  4  5  1  0
 33 30  1  6
 30 38  1  0
 34 31  1  1
 31 39  1  0
 35 32  1  1
 32 40  1  0
 41 42  1  0
 41 43  1  0
 15 19  2  0
 16 22  2  0
 12 17  1  6
 17 19  1  0
 17 20  1  0
 18 19  1  0
 18 22  1  0
 18 23  1  0
  9 10  1  0
  9 11  1  0
 10 12  1  0
 11  5  1  1
 33 34  1  0
 33 35  1  0
 34 36  1  0
 35 37  1  0
 36 42  1  6
 20 21  2  0
 21 22  1  0
M  CHG  2   2  -1  26  -1
M  END
>  <COMPND>  (116) 
    8629 

>  <AUTHOR>  (116) 
    GENERATED BY OPEN BABEL 3.1.1

>  <MASTER>  (116) 
        0    0    0    0    0    0    0    0   58    0   58    0

>  <minimizedAffinity>  (116) 
-6.35963

>  <CNNscore>  (116) 
0.5598481894

>  <CNNaffinity>  (116) 
4.0141172409

>  <CNN_VS>  (116) 
2.2472963333

>  <CNNaffinity_variance>  (116) 
0.0347363241

$$$$
117
     RDKit          3D

 43 45  0  0  0  0  0  0  0  0999 V2000
   23.4421   71.8610   -3.2914 P   0  0  2  0  0  0  0  0  0  0  0  0
   24.1367   72.9535   -4.2616 O   0  0  0  0  0  0  0  0  0  0  0  0
   24.2994   70.6766   -2.9546 O   0  0  0  0  0  0  0  0  0  0  0  0
   22.0389   71.5270   -4.0244 O   0  0  0  0  0  0  0  0  0  0  0  0
   21.5569   72.4290   -5.0052 C   0  0  0  0  0  0  0  0  0  0  0  0
   20.5582   70.4911   -6.0154 O   0  0  0  0  0  0  0  0  0  0  0  0
   20.8322   71.9415   -8.6254 O   0  0  0  0  0  0  0  0  0  0  0  0
   18.1999   72.3085   -8.0150 O   0  0  0  0  0  0  0  0  0  0  0  0
   20.5283   72.4612   -7.3320 C   0  0  1  0  0  0  0  0  0  0  0  0
   19.1050   72.1149   -6.9473 C   0  0  2  0  0  0  0  0  0  0  0  0
   21.3354   71.6729   -6.3080 C   0  0  1  0  0  0  0  0  0  0  0  0
   19.2332   70.6549   -6.5470 C   0  0  2  0  0  0  0  0  0  0  0  0
   20.3287   72.4297   -9.2963 H   0  0  0  0  0  0  0  0  0  0  0  0
   18.1533   73.2526   -8.2324 H   0  0  0  0  0  0  0  0  0  0  0  0
   16.5960   69.8047   -7.0948 O   0  0  0  0  0  0  0  0  0  0  0  0
   15.6570   69.2279   -2.6197 O   0  0  0  0  0  0  0  0  0  0  0  0
   18.2783   70.2761   -5.5441 N   0  0  0  0  0  0  0  0  0  0  0  0
   16.1307   69.5180   -4.8661 N   0  0  0  0  0  0  0  0  0  0  0  0
   16.9796   69.8651   -5.9249 C   0  0  0  0  0  0  0  0  0  0  0  0
   18.6330   70.3141   -4.2000 C   0  0  0  0  0  0  0  0  0  0  0  0
   17.8113   69.9812   -3.2024 C   0  0  0  0  0  0  0  0  0  0  0  0
   16.4364   69.5405   -3.5146 C   0  0  0  0  0  0  0  0  0  0  0  0
   15.2208   69.2289   -5.1074 H   0  0  0  0  0  0  0  0  0  0  0  0
   22.9851   72.7448   -2.0174 O   0  0  0  0  0  0  0  0  0  0  0  0
   21.7526   72.5641   -0.9872 P   0  0  2  0  0  0  0  0  0  0  0  0
   21.8320   70.9992   -0.5845 O   0  0  0  0  0  0  0  0  0  0  0  0
   20.4235   72.9956   -1.5361 O   0  0  0  0  0  0  0  0  0  0  0  0
   22.2140   73.3515    0.3440 O   0  0  0  0  0  0  0  0  0  0  0  0
   21.6137   73.2388    2.6339 O   0  0  0  0  0  0  0  0  0  0  0  0
   21.6872   77.3415    2.1720 O   0  0  0  0  0  0  0  0  0  0  0  0
   23.7759   76.0441    3.6558 O   0  0  0  0  0  0  0  0  0  0  0  0
   20.6575   75.6675    0.0468 O   0  0  0  0  0  0  0  0  0  0  0  0
   22.1123   75.9962    1.9380 C   0  0  1  0  0  0  0  0  0  0  0  0
   22.5657   75.3978    3.2711 C   0  0  1  0  0  0  0  0  0  0  0  0
   20.9458   75.1976    1.3593 C   0  0  2  0  0  0  0  0  0  0  0  0
   22.7829   73.8832    3.1531 C   0  0  1  0  0  0  0  0  0  0  0  0
   21.2466   73.6980    1.3315 C   0  0  1  0  0  0  0  0  0  0  0  0
   22.4234   77.8541    2.5391 H   0  0  0  0  0  0  0  0  0  0  0  0
   23.6253   76.9999    3.7262 H   0  0  0  0  0  0  0  0  0  0  0  0
   20.4685   76.6178    0.0779 H   0  0  0  0  0  0  0  0  0  0  0  0
   21.8540   72.9550    5.1493 O   0  0  0  0  0  0  0  0  0  0  0  0
   23.0823   73.2413    4.5061 C   0  0  0  0  0  0  0  0  0  0  0  0
   22.0290   72.5458    6.0116 H   0  0  0  0  0  0  0  0  0  0  0  0
 25 28  1  0
 25 24  1  0
 25 26  1  1
 25 27  2  0
  1  4  1  0
  1 24  1  0
  1  2  1  6
  1  3  2  0
  6 11  1  0
  6 12  1  0
 29 36  1  0
 29 37  1  0
  9  7  1  6
  7 13  1  0
 10  8  1  6
  8 14  1  0
 37 28  1  6
  4  5  1  0
 33 30  1  1
 30 38  1  0
 34 31  1  6
 31 39  1  0
 35 32  1  6
 32 40  1  0
 41 42  1  0
 41 43  1  0
 15 19  2  0
 16 22  2  0
 12 17  1  1
 17 19  1  0
 17 20  1  0
 18 19  1  0
 18 22  1  0
 18 23  1  0
  9 10  1  0
  9 11  1  0
 10 12  1  0
 11  5  1  1
 33 34  1  0
 33 35  1  0
 34 36  1  0
 35 37  1  0
 36 42  1  1
 20 21  2  0
 21 22  1  0
M  CHG  2   2  -1  26  -1
M  END
>  <COMPND>  (117) 
    8629 

>  <AUTHOR>  (117) 
    GENERATED BY OPEN BABEL 3.1.1

>  <MASTER>  (117) 
        0    0    0    0    0    0    0    0   58    0   58    0

>  <minimizedAffinity>  (117) 
-6.77437

>  <CNNscore>  (117) 
0.5422997475

>  <CNNaffinity>  (117) 
4.1609997749

>  <CNN_VS>  (117) 
2.2565090656

>  <CNNaffinity_variance>  (117) 
0.1426466703

$$$$
118
     RDKit          3D

 43 45  0  0  0  0  0  0  0  0999 V2000
   22.9038   73.4859   -4.0373 P   0  0  2  0  0  0  0  0  0  0  0  0
   22.5058   73.3925   -2.4720 O   0  0  0  0  0  0  0  0  0  0  0  0
   24.0724   72.6380   -4.4458 O   0  0  0  0  0  0  0  0  0  0  0  0
   23.0607   75.0740   -4.3042 O   0  0  0  0  0  0  0  0  0  0  0  0
   24.3023   75.5596   -4.7840 C   0  0  0  0  0  0  0  0  0  0  0  0
   26.4778   75.0327   -3.9102 O   0  0  0  0  0  0  0  0  0  0  0  0
   26.0605   77.3134   -2.0089 O   0  0  0  0  0  0  0  0  0  0  0  0
   27.6856   78.4097   -3.9047 O   0  0  0  0  0  0  0  0  0  0  0  0
   25.6528   77.1876   -3.3702 C   0  0  1  0  0  0  0  0  0  0  0  0
   26.8441   77.3428   -4.2924 C   0  0  2  0  0  0  0  0  0  0  0  0
   25.2533   75.7367   -3.6082 C   0  0  1  0  0  0  0  0  0  0  0  0
   27.5204   75.9884   -4.1641 C   0  0  2  0  0  0  0  0  0  0  0  0
   26.3202   78.2319   -1.8329 H   0  0  0  0  0  0  0  0  0  0  0  0
   27.2102   79.2493   -4.0042 H   0  0  0  0  0  0  0  0  0  0  0  0
   29.8759   74.4304   -4.2103 O   0  0  0  0  0  0  0  0  0  0  0  0
   30.1153   74.5981   -8.8099 O   0  0  0  0  0  0  0  0  0  0  0  0
   28.2191   75.6097   -5.3598 N   0  0  0  0  0  0  0  0  0  0  0  0
   29.9931   74.5150   -6.5005 N   0  0  0  0  0  0  0  0  0  0  0  0
   29.3936   74.8263   -5.2734 C   0  0  0  0  0  0  0  0  0  0  0  0
   27.7387   76.0140   -6.6007 C   0  0  0  0  0  0  0  0  0  0  0  0
   28.3229   75.7098   -7.7615 C   0  0  0  0  0  0  0  0  0  0  0  0
   29.5546   74.8944   -7.7593 C   0  0  0  0  0  0  0  0  0  0  0  0
   30.8128   73.9705   -6.4649 H   0  0  0  0  0  0  0  0  0  0  0  0
   21.5174   73.1267   -4.7869 O   0  0  0  0  0  0  0  0  0  0  0  0
   21.0859   73.2548   -6.3394 P   0  0  2  0  0  0  0  0  0  0  0  0
   22.2078   72.3798   -7.1097 O   0  0  0  0  0  0  0  0  0  0  0  0
   20.9598   74.6686   -6.8285 O   0  0  0  0  0  0  0  0  0  0  0  0
   19.7338   72.3819   -6.4610 O   0  0  0  0  0  0  0  0  0  0  0  0
   19.0788   70.2032   -5.7969 O   0  0  0  0  0  0  0  0  0  0  0  0
   17.5108   70.2279   -9.6168 O   0  0  0  0  0  0  0  0  0  0  0  0
   15.7450   70.3962   -7.3581 O   0  0  0  0  0  0  0  0  0  0  0  0
   20.0682   71.4808   -9.0975 O   0  0  0  0  0  0  0  0  0  0  0  0
   17.8816   70.7940   -8.3568 C   0  0  1  0  0  0  0  0  0  0  0  0
   17.1235   70.0506   -7.2553 C   0  0  1  0  0  0  0  0  0  0  0  0
   19.3899   70.6441   -8.1668 C   0  0  2  0  0  0  0  0  0  0  0  0
   17.6642   70.4169   -5.8666 C   0  0  1  0  0  0  0  0  0  0  0  0
   19.8158   70.9862   -6.7379 C   0  0  1  0  0  0  0  0  0  0  0  0
   16.5543   70.3203   -9.7438 H   0  0  0  0  0  0  0  0  0  0  0  0
   15.4161   70.1602   -8.2397 H   0  0  0  0  0  0  0  0  0  0  0  0
   19.7902   71.2542   -9.9982 H   0  0  0  0  0  0  0  0  0  0  0  0
   16.4911   68.4003   -5.3508 O   0  0  0  0  0  0  0  0  0  0  0  0
   17.0304   69.5707   -4.7646 C   0  0  0  0  0  0  0  0  0  0  0  0
   16.0846   67.8518   -4.6611 H   0  0  0  0  0  0  0  0  0  0  0  0
 25 28  1  0
 25 24  1  0
 25 26  1  6
 25 27  2  0
  1  4  1  0
  1 24  1  0
  1  2  1  1
  1  3  2  0
  6 11  1  0
  6 12  1  0
 29 36  1  0
 29 37  1  0
  9  7  1  1
  7 13  1  0
 10  8  1  1
  8 14  1  0
 37 28  1  1
  4  5  1  0
 33 30  1  6
 30 38  1  0
 34 31  1  1
 31 39  1  0
 35 32  1  6
 32 40  1  0
 41 42  1  0
 41 43  1  0
 15 19  2  0
 16 22  2  0
 12 17  1  6
 17 19  1  0
 17 20  1  0
 18 19  1  0
 18 22  1  0
 18 23  1  0
  9 10  1  0
  9 11  1  0
 10 12  1  0
 11  5  1  6
 33 34  1  0
 33 35  1  0
 34 36  1  0
 35 37  1  0
 36 42  1  1
 20 21  2  0
 21 22  1  0
M  CHG  2   2  -1  26  -1
M  END
>  <COMPND>  (118) 
    8629 

>  <AUTHOR>  (118) 
    GENERATED BY OPEN BABEL 3.1.1

>  <MASTER>  (118) 
        0    0    0    0    0    0    0    0   58    0   58    0

>  <minimizedAffinity>  (118) 
-6.52298

>  <CNNscore>  (118) 
0.5364619493

>  <CNNaffinity>  (118) 
4.2081499100

>  <CNN_VS>  (118) 
2.2575123310

>  <CNNaffinity_variance>  (118) 
0.0451753996

$$$$
119
     RDKit          3D

 43 45  0  0  0  0  0  0  0  0999 V2000
   23.7216   72.7757   -3.9360 P   0  0  2  0  0  0  0  0  0  0  0  0
   24.1798   71.3043   -3.4434 O   0  0  0  0  0  0  0  0  0  0  0  0
   24.7950   73.8230   -3.8878 O   0  0  0  0  0  0  0  0  0  0  0  0
   22.3985   73.0848   -3.0575 O   0  0  0  0  0  0  0  0  0  0  0  0
   22.5261   73.1664   -1.6486 C   0  0  0  0  0  0  0  0  0  0  0  0
   23.3781   71.3350   -0.3472 O   0  0  0  0  0  0  0  0  0  0  0  0
   20.5150   70.5617    0.0948 O   0  0  0  0  0  0  0  0  0  0  0  0
   21.1605   71.8116    2.4309 O   0  0  0  0  0  0  0  0  0  0  0  0
   21.0941   71.8621    0.0010 C   0  0  1  0  0  0  0  0  0  0  0  0
   21.8636   72.1873    1.2642 C   0  0  2  0  0  0  0  0  0  0  0  0
   22.2034   71.8077   -1.0420 C   0  0  1  0  0  0  0  0  0  0  0  0
   23.1414   71.3889    1.0691 C   0  0  2  0  0  0  0  0  0  0  0  0
   19.8035   70.5716    0.7548 H   0  0  0  0  0  0  0  0  0  0  0  0
   20.3560   72.3476    2.5104 H   0  0  0  0  0  0  0  0  0  0  0  0
   25.1292   69.9736    2.4917 O   0  0  0  0  0  0  0  0  0  0  0  0
   27.4341   73.8404    3.4801 O   0  0  0  0  0  0  0  0  0  0  0  0
   24.2724   72.0006    1.7080 N   0  0  0  0  0  0  0  0  0  0  0  0
   26.2753   71.9001    2.9825 N   0  0  0  0  0  0  0  0  0  0  0  0
   25.2124   71.2000    2.3977 C   0  0  0  0  0  0  0  0  0  0  0  0
   24.4409   73.3797    1.6466 C   0  0  0  0  0  0  0  0  0  0  0  0
   25.4594   74.0321    2.2107 C   0  0  0  0  0  0  0  0  0  0  0  0
   26.4858   73.2695    2.9503 C   0  0  0  0  0  0  0  0  0  0  0  0
   26.9424   71.3630    3.4687 H   0  0  0  0  0  0  0  0  0  0  0  0
   23.1213   72.4948   -5.4104 O   0  0  0  0  0  0  0  0  0  0  0  0
   22.1680   73.3934   -6.3572 P   0  0  2  0  0  0  0  0  0  0  0  0
   22.8233   73.2096   -7.8250 O   0  0  0  0  0  0  0  0  0  0  0  0
   22.0310   74.8215   -5.9147 O   0  0  0  0  0  0  0  0  0  0  0  0
   20.7766   72.5785   -6.4271 O   0  0  0  0  0  0  0  0  0  0  0  0
   20.3848   70.4238   -5.5212 O   0  0  0  0  0  0  0  0  0  0  0  0
   17.7352   70.3007   -8.6859 O   0  0  0  0  0  0  0  0  0  0  0  0
   16.7326   70.5471   -6.0060 O   0  0  0  0  0  0  0  0  0  0  0  0
   20.3114   71.5809   -9.0085 O   0  0  0  0  0  0  0  0  0  0  0  0
   18.4613   70.9147   -7.6176 C   0  0  1  0  0  0  0  0  0  0  0  0
   18.0825   70.2103   -6.3134 C   0  0  1  0  0  0  0  0  0  0  0  0
   19.9584   70.7772   -7.8878 C   0  0  2  0  0  0  0  0  0  0  0  0
   19.0123   70.6299   -5.1669 C   0  0  1  0  0  0  0  0  0  0  0  0
   20.7914   71.1737   -6.6676 C   0  0  1  0  0  0  0  0  0  0  0  0
   16.7839   70.3850   -8.5207 H   0  0  0  0  0  0  0  0  0  0  0  0
   16.1560   70.2772   -6.7381 H   0  0  0  0  0  0  0  0  0  0  0  0
   19.7775   71.3199   -9.7744 H   0  0  0  0  0  0  0  0  0  0  0  0
   19.4595   70.4280   -2.8285 O   0  0  0  0  0  0  0  0  0  0  0  0
   18.7537   69.8232   -3.8963 C   0  0  0  0  0  0  0  0  0  0  0  0
   19.3040   69.9253   -2.0131 H   0  0  0  0  0  0  0  0  0  0  0  0
 25 28  1  0
 25 24  1  0
 25 26  1  6
 25 27  2  0
  1  4  1  0
  1 24  1  0
  1  2  1  1
  1  3  2  0
  6 11  1  0
  6 12  1  0
 29 36  1  0
 29 37  1  0
  9  7  1  1
  7 13  1  0
 10  8  1  1
  8 14  1  0
 37 28  1  1
  4  5  1  0
 33 30  1  6
 30 38  1  0
 34 31  1  1
 31 39  1  0
 35 32  1  6
 32 40  1  0
 41 42  1  0
 41 43  1  0
 15 19  2  0
 16 22  2  0
 12 17  1  1
 17 19  1  0
 17 20  1  0
 18 19  1  0
 18 22  1  0
 18 23  1  0
  9 10  1  0
  9 11  1  0
 10 12  1  0
 11  5  1  1
 33 34  1  0
 33 35  1  0
 34 36  1  0
 35 37  1  0
 36 42  1  1
 20 21  2  0
 21 22  1  0
M  CHG  2   2  -1  26  -1
M  END
>  <COMPND>  (119) 
    8629 

>  <AUTHOR>  (119) 
    GENERATED BY OPEN BABEL 3.1.1

>  <MASTER>  (119) 
        0    0    0    0    0    0    0    0   58    0   58    0

>  <minimizedAffinity>  (119) 
-7.68909

>  <CNNscore>  (119) 
0.5305337310

>  <CNNaffinity>  (119) 
4.2932901382

>  <CNN_VS>  (119) 
2.2777352333

>  <CNNaffinity_variance>  (119) 
0.0965085998

$$$$
120
     RDKit          3D

 43 45  0  0  0  0  0  0  0  0999 V2000
   21.8752   72.3680   -5.8203 P   0  0  2  0  0  0  0  0  0  0  0  0
   21.0423   73.6384   -5.2635 O   0  0  0  0  0  0  0  0  0  0  0  0
   23.0412   72.7110   -6.7001 O   0  0  0  0  0  0  0  0  0  0  0  0
   20.7437   71.4247   -6.4893 O   0  0  0  0  0  0  0  0  0  0  0  0
   20.1979   71.8067   -7.7399 C   0  0  0  0  0  0  0  0  0  0  0  0
   18.8632   69.8696   -7.2501 O   0  0  0  0  0  0  0  0  0  0  0  0
   18.0139   69.9592  -10.1244 O   0  0  0  0  0  0  0  0  0  0  0  0
   15.8848   71.0792   -8.8402 O   0  0  0  0  0  0  0  0  0  0  0  0
   18.2843   71.0369   -9.2295 C   0  0  1  0  0  0  0  0  0  0  0  0
   17.1553   71.1875   -8.2314 C   0  0  2  0  0  0  0  0  0  0  0  0
   19.4466   70.6237   -8.3351 C   0  0  1  0  0  0  0  0  0  0  0  0
   17.4379   70.0521   -7.2623 C   0  0  2  0  0  0  0  0  0  0  0  0
   17.2752   70.1999  -10.7061 H   0  0  0  0  0  0  0  0  0  0  0  0
   15.7524   71.8240   -9.4472 H   0  0  0  0  0  0  0  0  0  0  0  0
   16.3331   68.1494   -5.4912 O   0  0  0  0  0  0  0  0  0  0  0  0
   15.7685   71.2964   -2.1717 O   0  0  0  0  0  0  0  0  0  0  0  0
   16.9941   70.3467   -5.9290 N   0  0  0  0  0  0  0  0  0  0  0  0
   16.0531   69.7178   -3.8397 N   0  0  0  0  0  0  0  0  0  0  0  0
   16.4534   69.3192   -5.1215 C   0  0  0  0  0  0  0  0  0  0  0  0
   17.0975   71.6424   -5.4347 C   0  0  0  0  0  0  0  0  0  0  0  0
   16.7100   72.0065   -4.2106 C   0  0  0  0  0  0  0  0  0  0  0  0
   16.1342   70.9931   -3.3031 C   0  0  0  0  0  0  0  0  0  0  0  0
   15.6730   69.0189   -3.2594 H   0  0  0  0  0  0  0  0  0  0  0  0
   22.2635   71.5681   -4.4703 O   0  0  0  0  0  0  0  0  0  0  0  0
   23.3216   71.9142   -3.2984 P   0  0  2  0  0  0  0  0  0  0  0  0
   24.0169   73.2796   -3.8177 O   0  0  0  0  0  0  0  0  0  0  0  0
   24.2864   70.8052   -2.9933 O   0  0  0  0  0  0  0  0  0  0  0  0
   22.4103   72.3711   -2.0471 O   0  0  0  0  0  0  0  0  0  0  0  0
   21.8527   71.3402    0.0127 O   0  0  0  0  0  0  0  0  0  0  0  0
   18.1659   72.9330   -0.9473 O   0  0  0  0  0  0  0  0  0  0  0  0
   19.7101   74.1076    1.1703 O   0  0  0  0  0  0  0  0  0  0  0  0
   19.8403   71.8124   -3.0258 O   0  0  0  0  0  0  0  0  0  0  0  0
   19.5945   72.8967   -0.8892 C   0  0  1  0  0  0  0  0  0  0  0  0
   20.0135   72.8460    0.5814 C   0  0  1  0  0  0  0  0  0  0  0  0
   20.0930   71.6593   -1.6333 C   0  0  2  0  0  0  0  0  0  0  0  0
   21.5104   72.5375    0.7206 C   0  0  1  0  0  0  0  0  0  0  0  0
   21.5832   71.4154   -1.3886 C   0  0  1  0  0  0  0  0  0  0  0  0
   17.8429   73.7166   -0.4770 H   0  0  0  0  0  0  0  0  0  0  0  0
   18.7621   74.2906    1.0752 H   0  0  0  0  0  0  0  0  0  0  0  0
   18.8936   71.9660   -3.1675 H   0  0  0  0  0  0  0  0  0  0  0  0
   20.7563   72.0294    2.9301 O   0  0  0  0  0  0  0  0  0  0  0  0
   21.9178   72.3265    2.1771 C   0  0  0  0  0  0  0  0  0  0  0  0
   21.0004   71.8923    3.8593 H   0  0  0  0  0  0  0  0  0  0  0  0
 25 28  1  0
 25 24  1  0
 25 26  1  6
 25 27  2  0
  1  4  1  0
  1 24  1  0
  1  2  1  1
  1  3  2  0
  6 11  1  0
  6 12  1  0
 29 36  1  0
 29 37  1  0
  9  7  1  6
  7 13  1  0
 10  8  1  6
  8 14  1  0
 37 28  1  1
  4  5  1  0
 33 30  1  1
 30 38  1  0
 34 31  1  6
 31 39  1  0
 35 32  1  6
 32 40  1  0
 41 42  1  0
 41 43  1  0
 15 19  2  0
 16 22  2  0
 12 17  1  1
 17 19  1  0
 17 20  1  0
 18 19  1  0
 18 22  1  0
 18 23  1  0
  9 10  1  0
  9 11  1  0
 10 12  1  0
 11  5  1  1
 33 34  1  0
 33 35  1  0
 34 36  1  0
 35 37  1  0
 36 42  1  1
 20 21  2  0
 21 22  1  0
M  CHG  2   2  -1  26  -1
M  END
>  <COMPND>  (120) 
    8629 

>  <AUTHOR>  (120) 
    GENERATED BY OPEN BABEL 3.1.1

>  <MASTER>  (120) 
        0    0    0    0    0    0    0    0   58    0   58    0

>  <minimizedAffinity>  (120) 
-7.76264

>  <CNNscore>  (120) 
0.5199320912

>  <CNNaffinity>  (120) 
4.2149324417

>  <CNN_VS>  (120) 
2.1914787292

>  <CNNaffinity_variance>  (120) 
0.5019658804

$$$$
121
     RDKit          3D

 43 45  0  0  0  0  0  0  0  0999 V2000
   22.1621   71.6399   -3.1915 P   0  0  2  0  0  0  0  0  0  0  0  0
   21.5815   73.1403   -3.0207 O   0  0  0  0  0  0  0  0  0  0  0  0
   23.6156   71.5604   -3.5552 O   0  0  0  0  0  0  0  0  0  0  0  0
   21.1381   70.9434   -4.2328 O   0  0  0  0  0  0  0  0  0  0  0  0
   20.2254   69.9780   -3.7401 C   0  0  0  0  0  0  0  0  0  0  0  0
   18.5808   71.3641   -4.8115 O   0  0  0  0  0  0  0  0  0  0  0  0
   16.6230   70.2455   -2.8350 O   0  0  0  0  0  0  0  0  0  0  0  0
   16.0838   68.8044   -5.0864 O   0  0  0  0  0  0  0  0  0  0  0  0
   17.7227   69.6032   -3.4779 C   0  0  1  0  0  0  0  0  0  0  0  0
   17.3906   69.3180   -4.9277 C   0  0  2  0  0  0  0  0  0  0  0  0
   18.8512   70.6190   -3.6039 C   0  0  1  0  0  0  0  0  0  0  0  0
   17.5625   70.6862   -5.5653 C   0  0  2  0  0  0  0  0  0  0  0  0
   15.8899   69.6162   -2.7430 H   0  0  0  0  0  0  0  0  0  0  0  0
   16.0251   67.9332   -4.6642 H   0  0  0  0  0  0  0  0  0  0  0  0
   15.8102   70.2427   -7.7358 O   0  0  0  0  0  0  0  0  0  0  0  0
   19.2609   70.3837  -10.7877 O   0  0  0  0  0  0  0  0  0  0  0  0
   17.9760   70.6029   -6.9377 N   0  0  0  0  0  0  0  0  0  0  0  0
   17.5298   70.3134   -9.2537 N   0  0  0  0  0  0  0  0  0  0  0  0
   17.0165   70.3764   -7.9519 C   0  0  0  0  0  0  0  0  0  0  0  0
   19.3197   70.7455   -7.2665 C   0  0  0  0  0  0  0  0  0  0  0  0
   19.7931   70.6816   -8.5127 C   0  0  0  0  0  0  0  0  0  0  0  0
   18.8566   70.4477   -9.6309 C   0  0  0  0  0  0  0  0  0  0  0  0
   16.8799   70.1560   -9.9766 H   0  0  0  0  0  0  0  0  0  0  0  0
   21.7813   70.9405   -1.7848 O   0  0  0  0  0  0  0  0  0  0  0  0
   21.0686   71.5361   -0.4618 P   0  0  2  0  0  0  0  0  0  0  0  0
   21.1130   70.2944    0.5744 O   0  0  0  0  0  0  0  0  0  0  0  0
   19.6956   72.0943   -0.7009 O   0  0  0  0  0  0  0  0  0  0  0  0
   22.1291   72.5991    0.1301 O   0  0  0  0  0  0  0  0  0  0  0  0
   24.1651   73.4496   -0.7348 O   0  0  0  0  0  0  0  0  0  0  0  0
   25.2378   73.0808    3.2356 O   0  0  0  0  0  0  0  0  0  0  0  0
   24.7989   75.6914    2.1220 O   0  0  0  0  0  0  0  0  0  0  0  0
   23.5584   71.0721    2.0011 O   0  0  0  0  0  0  0  0  0  0  0  0
   24.3510   73.3420    2.1444 C   0  0  1  0  0  0  0  0  0  0  0  0
   24.9179   74.5098    1.3346 C   0  0  1  0  0  0  0  0  0  0  0  0
   24.2435   72.0888    1.2776 C   0  0  2  0  0  0  0  0  0  0  0  0
   24.1705   74.6763    0.0047 C   0  0  1  0  0  0  0  0  0  0  0  0
   23.5260   72.3751   -0.0428 C   0  0  1  0  0  0  0  0  0  0  0  0
   25.3101   73.8725    3.7902 H   0  0  0  0  0  0  0  0  0  0  0  0
   25.2747   75.5730    2.9590 H   0  0  0  0  0  0  0  0  0  0  0  0
   24.0226   70.8998    2.8346 H   0  0  0  0  0  0  0  0  0  0  0  0
   23.8311   76.2549   -1.7564 O   0  0  0  0  0  0  0  0  0  0  0  0
   24.8192   75.7322   -0.8876 C   0  0  0  0  0  0  0  0  0  0  0  0
   24.2295   76.9285   -2.3302 H   0  0  0  0  0  0  0  0  0  0  0  0
 25 28  1  0
 25 24  1  0
 25 26  1  1
 25 27  2  0
  1  4  1  0
  1 24  1  0
  1  2  1  1
  1  3  2  0
  6 11  1  0
  6 12  1  0
 29 36  1  0
 29 37  1  0
  9  7  1  1
  7 13  1  0
 10  8  1  1
  8 14  1  0
 37 28  1  1
  4  5  1  0
 33 30  1  1
 30 38  1  0
 34 31  1  1
 31 39  1  0
 35 32  1  1
 32 40  1  0
 41 42  1  0
 41 43  1  0
 15 19  2  0
 16 22  2  0
 12 17  1  6
 17 19  1  0
 17 20  1  0
 18 19  1  0
 18 22  1  0
 18 23  1  0
  9 10  1  0
  9 11  1  0
 10 12  1  0
 11  5  1  6
 33 34  1  0
 33 35  1  0
 34 36  1  0
 35 37  1  0
 36 42  1  6
 20 21  2  0
 21 22  1  0
M  CHG  2   2  -1  26  -1
M  END
>  <COMPND>  (121) 
    8629 

>  <AUTHOR>  (121) 
    GENERATED BY OPEN BABEL 3.1.1

>  <MASTER>  (121) 
        0    0    0    0    0    0    0    0   58    0   58    0

>  <minimizedAffinity>  (121) 
-7.49826

>  <CNNscore>  (121) 
0.9466274381

>  <CNNaffinity>  (121) 
4.8983273506

>  <CNN_VS>  (121) 
4.6368908882

>  <CNNaffinity_variance>  (121) 
0.1022678763

$$$$
122
     RDKit          3D

 43 45  0  0  0  0  0  0  0  0999 V2000
   22.1346   71.7320   -2.9176 P   0  0  2  0  0  0  0  0  0  0  0  0
   23.0861   72.7962   -3.6790 O   0  0  0  0  0  0  0  0  0  0  0  0
   22.8574   70.5960   -2.2555 O   0  0  0  0  0  0  0  0  0  0  0  0
   21.0452   71.3138   -4.0383 O   0  0  0  0  0  0  0  0  0  0  0  0
   20.1390   70.2654   -3.7422 C   0  0  0  0  0  0  0  0  0  0  0  0
   18.4489   71.5264   -4.8942 O   0  0  0  0  0  0  0  0  0  0  0  0
   16.5080   70.3719   -2.9217 O   0  0  0  0  0  0  0  0  0  0  0  0
   16.0956   68.8306   -5.1332 O   0  0  0  0  0  0  0  0  0  0  0  0
   17.6539   69.7677   -3.5193 C   0  0  1  0  0  0  0  0  0  0  0  0
   17.3699   69.4175   -4.9651 C   0  0  2  0  0  0  0  0  0  0  0  0
   18.7304   70.8371   -3.6566 C   0  0  1  0  0  0  0  0  0  0  0  0
   17.4845   70.7711   -5.6455 C   0  0  2  0  0  0  0  0  0  0  0  0
   15.8068   69.7081   -2.8235 H   0  0  0  0  0  0  0  0  0  0  0  0
   16.0729   67.9719   -4.6827 H   0  0  0  0  0  0  0  0  0  0  0  0
   15.7807   70.3516   -7.8588 O   0  0  0  0  0  0  0  0  0  0  0  0
   19.3149   70.3763  -10.8169 O   0  0  0  0  0  0  0  0  0  0  0  0
   17.9326   70.6643   -7.0053 N   0  0  0  0  0  0  0  0  0  0  0  0
   17.5418   70.3644   -9.3299 N   0  0  0  0  0  0  0  0  0  0  0  0
   16.9954   70.4526   -8.0432 C   0  0  0  0  0  0  0  0  0  0  0  0
   19.2879   70.7697   -7.2987 C   0  0  0  0  0  0  0  0  0  0  0  0
   19.7930   70.6821   -8.5309 C   0  0  0  0  0  0  0  0  0  0  0  0
   18.8813   70.4615   -9.6720 C   0  0  0  0  0  0  0  0  0  0  0  0
   16.9078   70.2167  -10.0688 H   0  0  0  0  0  0  0  0  0  0  0  0
   21.2803   72.6640   -1.9103 O   0  0  0  0  0  0  0  0  0  0  0  0
   20.4433   72.2970   -0.5771 P   0  0  2  0  0  0  0  0  0  0  0  0
   20.3703   70.6813   -0.6178 O   0  0  0  0  0  0  0  0  0  0  0  0
   19.1071   72.9751   -0.4832 O   0  0  0  0  0  0  0  0  0  0  0  0
   21.4489   72.6291    0.6409 O   0  0  0  0  0  0  0  0  0  0  0  0
   22.9163   70.9490    1.4414 O   0  0  0  0  0  0  0  0  0  0  0  0
   22.8800   73.4230    4.7472 O   0  0  0  0  0  0  0  0  0  0  0  0
   25.2195   73.3116    3.0852 O   0  0  0  0  0  0  0  0  0  0  0  0
   20.4478   72.9956    3.2368 O   0  0  0  0  0  0  0  0  0  0  0  0
   22.8508   73.1131    3.3513 C   0  0  1  0  0  0  0  0  0  0  0  0
   24.1455   72.3795    2.9958 C   0  0  1  0  0  0  0  0  0  0  0  0
   21.6368   72.2328    3.0607 C   0  0  2  0  0  0  0  0  0  0  0  0
   24.0734   71.7810    1.5845 C   0  0  1  0  0  0  0  0  0  0  0  0
   21.6877   71.6489    1.6477 C   0  0  1  0  0  0  0  0  0  0  0  0
   23.6483   73.9822    4.9384 H   0  0  0  0  0  0  0  0  0  0  0  0
   25.2537   73.6824    3.9810 H   0  0  0  0  0  0  0  0  0  0  0  0
   20.4273   73.3595    4.1352 H   0  0  0  0  0  0  0  0  0  0  0  0
   25.9990   70.6790    2.4713 O   0  0  0  0  0  0  0  0  0  0  0  0
   25.2892   70.9124    1.2688 C   0  0  0  0  0  0  0  0  0  0  0  0
   26.7754   70.1271    2.2858 H   0  0  0  0  0  0  0  0  0  0  0  0
 25 28  1  0
 25 24  1  0
 25 26  1  6
 25 27  2  0
  1  4  1  0
  1 24  1  0
  1  2  1  6
  1  3  2  0
  6 11  1  0
  6 12  1  0
 29 36  1  0
 29 37  1  0
  9  7  1  6
  7 13  1  0
 10  8  1  1
  8 14  1  0
 37 28  1  6
  4  5  1  0
 33 30  1  1
 30 38  1  0
 34 31  1  6
 31 39  1  0
 35 32  1  6
 32 40  1  0
 41 42  1  0
 41 43  1  0
 15 19  2  0
 16 22  2  0
 12 17  1  6
 17 19  1  0
 17 20  1  0
 18 19  1  0
 18 22  1  0
 18 23  1  0
  9 10  1  0
  9 11  1  0
 10 12  1  0
 11  5  1  6
 33 34  1  0
 33 35  1  0
 34 36  1  0
 35 37  1  0
 36 42  1  1
 20 21  2  0
 21 22  1  0
M  CHG  2   2  -1  26  -1
M  END
>  <COMPND>  (122) 
    8629 

>  <AUTHOR>  (122) 
    GENERATED BY OPEN BABEL 3.1.1

>  <MASTER>  (122) 
        0    0    0    0    0    0    0    0   58    0   58    0

>  <minimizedAffinity>  (122) 
-7.52770

>  <CNNscore>  (122) 
0.9286524653

>  <CNNaffinity>  (122) 
4.8222928047

>  <CNN_VS>  (122) 
4.4782342911

>  <CNNaffinity_variance>  (122) 
0.0496785566

$$$$
123
     RDKit          3D

 43 45  0  0  0  0  0  0  0  0999 V2000
   20.3929   71.2360   -1.3034 P   0  0  2  0  0  0  0  0  0  0  0  0
   20.8884   70.5469    0.0740 O   0  0  0  0  0  0  0  0  0  0  0  0
   19.8449   72.6250   -1.1557 O   0  0  0  0  0  0  0  0  0  0  0  0
   19.3816   70.1459   -1.9412 O   0  0  0  0  0  0  0  0  0  0  0  0
   19.0726   70.2364   -3.3211 C   0  0  0  0  0  0  0  0  0  0  0  0
   17.4364   71.3167   -4.7102 O   0  0  0  0  0  0  0  0  0  0  0  0
   15.3848   69.7317   -3.2036 O   0  0  0  0  0  0  0  0  0  0  0  0
   15.6337   68.3257   -5.5269 O   0  0  0  0  0  0  0  0  0  0  0  0
   16.7023   69.3554   -3.6010 C   0  0  1  0  0  0  0  0  0  0  0  0
   16.7444   69.0820   -5.0900 C   0  0  2  0  0  0  0  0  0  0  0  0
   17.5980   70.5817   -3.4773 C   0  0  1  0  0  0  0  0  0  0  0  0
   16.7589   70.4869   -5.6680 C   0  0  2  0  0  0  0  0  0  0  0  0
   14.7945   68.9645   -3.2739 H   0  0  0  0  0  0  0  0  0  0  0  0
   15.6696   67.4404   -5.1321 H   0  0  0  0  0  0  0  0  0  0  0  0
   15.4993   70.5125   -8.1960 O   0  0  0  0  0  0  0  0  0  0  0  0
   19.5352   70.7544  -10.4083 O   0  0  0  0  0  0  0  0  0  0  0  0
   17.4563   70.5565   -6.9211 N   0  0  0  0  0  0  0  0  0  0  0  0
   17.5098   70.6331   -9.2955 N   0  0  0  0  0  0  0  0  0  0  0  0
   16.7295   70.5625   -8.1344 C   0  0  0  0  0  0  0  0  0  0  0  0
   18.8454   70.6182   -6.9386 C   0  0  0  0  0  0  0  0  0  0  0  0
   19.5748   70.6838   -8.0543 C   0  0  0  0  0  0  0  0  0  0  0  0
   18.8926   70.6948   -9.3645 C   0  0  0  0  0  0  0  0  0  0  0  0
   17.0251   70.6382  -10.1527 H   0  0  0  0  0  0  0  0  0  0  0  0
   21.6949   71.1241   -2.2547 O   0  0  0  0  0  0  0  0  0  0  0  0
   22.8646   72.1905   -2.5830 P   0  0  2  0  0  0  0  0  0  0  0  0
   23.9589   71.3065   -3.3822 O   0  0  0  0  0  0  0  0  0  0  0  0
   23.4049   72.9020   -1.3766 O   0  0  0  0  0  0  0  0  0  0  0  0
   22.2285   73.1623   -3.7037 O   0  0  0  0  0  0  0  0  0  0  0  0
   20.0512   73.1096   -4.6381 O   0  0  0  0  0  0  0  0  0  0  0  0
   22.1593   74.3918   -7.9491 O   0  0  0  0  0  0  0  0  0  0  0  0
   20.4615   76.2361   -6.5476 O   0  0  0  0  0  0  0  0  0  0  0  0
   23.3129   72.4116   -6.1807 O   0  0  0  0  0  0  0  0  0  0  0  0
   21.8570   74.2935   -6.5547 C   0  0  1  0  0  0  0  0  0  0  0  0
   20.4407   74.8277   -6.3322 C   0  0  1  0  0  0  0  0  0  0  0  0
   21.9536   72.8309   -6.1249 C   0  0  2  0  0  0  0  0  0  0  0  0
   19.9455   74.5111   -4.9146 C   0  0  1  0  0  0  0  0  0  0  0  0
   21.3901   72.6169   -4.7190 C   0  0  1  0  0  0  0  0  0  0  0  0
   22.1001   75.3181   -8.2283 H   0  0  0  0  0  0  0  0  0  0  0  0
   20.7764   76.4224   -7.4461 H   0  0  0  0  0  0  0  0  0  0  0  0
   23.6579   72.5518   -7.0758 H   0  0  0  0  0  0  0  0  0  0  0  0
   17.6896   74.0975   -5.5845 O   0  0  0  0  0  0  0  0  0  0  0  0
   18.4799   74.8946   -4.7217 C   0  0  0  0  0  0  0  0  0  0  0  0
   16.7542   74.3304   -5.4723 H   0  0  0  0  0  0  0  0  0  0  0  0
 25 28  1  0
 25 24  1  0
 25 26  1  6
 25 27  2  0
  1  4  1  0
  1 24  1  0
  1  2  1  1
  1  3  2  0
  6 11  1  0
  6 12  1  0
 29 36  1  0
 29 37  1  0
  9  7  1  6
  7 13  1  0
 10  8  1  6
  8 14  1  0
 37 28  1  1
  4  5  1  0
 33 30  1  6
 30 38  1  0
 34 31  1  1
 31 39  1  0
 35 32  1  1
 32 40  1  0
 41 42  1  0
 41 43  1  0
 15 19  2  0
 16 22  2  0
 12 17  1  6
 17 19  1  0
 17 20  1  0
 18 19  1  0
 18 22  1  0
 18 23  1  0
  9 10  1  0
  9 11  1  0
 10 12  1  0
 11  5  1  6
 33 34  1  0
 33 35  1  0
 34 36  1  0
 35 37  1  0
 36 42  1  6
 20 21  2  0
 21 22  1  0
M  CHG  2   2  -1  26  -1
M  END
>  <COMPND>  (123) 
    8629 

>  <AUTHOR>  (123) 
    GENERATED BY OPEN BABEL 3.1.1

>  <MASTER>  (123) 
        0    0    0    0    0    0    0    0   58    0   58    0

>  <minimizedAffinity>  (123) 
-7.73535

>  <CNNscore>  (123) 
0.9206310511

>  <CNNaffinity>  (123) 
4.6784653664

>  <CNN_VS>  (123) 
4.3071403503

>  <CNNaffinity_variance>  (123) 
0.6263800859

$$$$
124
     RDKit          3D

 43 45  0  0  0  0  0  0  0  0999 V2000
   23.4572   71.9124   -3.1305 P   0  0  2  0  0  0  0  0  0  0  0  0
   24.2566   73.0665   -3.9346 O   0  0  0  0  0  0  0  0  0  0  0  0
   24.1804   70.6027   -3.0161 O   0  0  0  0  0  0  0  0  0  0  0  0
   22.0151   71.8572   -3.8619 O   0  0  0  0  0  0  0  0  0  0  0  0
   21.2353   70.6813   -3.7313 C   0  0  0  0  0  0  0  0  0  0  0  0
   19.1989   71.6637   -4.5448 O   0  0  0  0  0  0  0  0  0  0  0  0
   17.8537   70.3564   -2.2056 O   0  0  0  0  0  0  0  0  0  0  0  0
   17.2284   68.6802   -4.2638 O   0  0  0  0  0  0  0  0  0  0  0  0
   18.9315   69.8788   -3.0091 C   0  0  1  0  0  0  0  0  0  0  0  0
   18.4204   69.4326   -4.3631 C   0  0  2  0  0  0  0  0  0  0  0  0
   19.8068   71.0706   -3.3765 C   0  0  1  0  0  0  0  0  0  0  0  0
   18.2169   70.7589   -5.0758 C   0  0  2  0  0  0  0  0  0  0  0  0
   17.2809   69.6129   -1.9583 H   0  0  0  0  0  0  0  0  0  0  0  0
   17.4098   67.8462   -3.8032 H   0  0  0  0  0  0  0  0  0  0  0  0
   16.2295   69.8817   -6.8809 O   0  0  0  0  0  0  0  0  0  0  0  0
   19.0364   70.3857  -10.5015 O   0  0  0  0  0  0  0  0  0  0  0  0
   18.4011   70.6516   -6.4956 N   0  0  0  0  0  0  0  0  0  0  0  0
   17.6287   70.1336   -8.6822 N   0  0  0  0  0  0  0  0  0  0  0  0
   17.3394   70.1993   -7.3133 C   0  0  0  0  0  0  0  0  0  0  0  0
   19.6237   70.9931   -7.0636 C   0  0  0  0  0  0  0  0  0  0  0  0
   19.8839   70.9236   -8.3708 C   0  0  0  0  0  0  0  0  0  0  0  0
   18.8282   70.4607   -9.2945 C   0  0  0  0  0  0  0  0  0  0  0  0
   16.9041   69.8209   -9.2713 H   0  0  0  0  0  0  0  0  0  0  0  0
   23.1208   72.6208   -1.7170 O   0  0  0  0  0  0  0  0  0  0  0  0
   22.7778   71.9902   -0.2686 P   0  0  2  0  0  0  0  0  0  0  0  0
   24.2144   71.9660    0.4752 O   0  0  0  0  0  0  0  0  0  0  0  0
   22.0873   70.6584   -0.3253 O   0  0  0  0  0  0  0  0  0  0  0  0
   21.9443   73.1440    0.4922 O   0  0  0  0  0  0  0  0  0  0  0  0
   21.4313   72.2782    2.6379 O   0  0  0  0  0  0  0  0  0  0  0  0
   19.5540   75.9436    2.9395 O   0  0  0  0  0  0  0  0  0  0  0  0
   21.9832   75.4706    4.3965 O   0  0  0  0  0  0  0  0  0  0  0  0
   19.4793   74.4843    0.4406 O   0  0  0  0  0  0  0  0  0  0  0  0
   20.5712   75.0316    2.5165 C   0  0  1  0  0  0  0  0  0  0  0  0
   21.2321   74.4389    3.7626 C   0  0  1  0  0  0  0  0  0  0  0  0
   19.9342   73.9307    1.6706 C   0  0  2  0  0  0  0  0  0  0  0  0
   22.1449   73.2603    3.3981 C   0  0  1  0  0  0  0  0  0  0  0  0
   20.9119   72.7842    1.4066 C   0  0  1  0  0  0  0  0  0  0  0  0
   19.9519   76.6455    3.4767 H   0  0  0  0  0  0  0  0  0  0  0  0
   21.3953   76.2089    4.6211 H   0  0  0  0  0  0  0  0  0  0  0  0
   18.8609   75.2088    0.6213 H   0  0  0  0  0  0  0  0  0  0  0  0
   21.9381   72.9741    5.7612 O   0  0  0  0  0  0  0  0  0  0  0  0
   22.6907   72.5549    4.6377 C   0  0  0  0  0  0  0  0  0  0  0  0
   22.2741   72.5329    6.5575 H   0  0  0  0  0  0  0  0  0  0  0  0
 25 28  1  0
 25 24  1  0
 25 26  1  1
 25 27  2  0
  1  4  1  0
  1 24  1  0
  1  2  1  6
  1  3  2  0
  6 11  1  0
  6 12  1  0
 29 36  1  0
 29 37  1  0
  9  7  1  1
  7 13  1  0
 10  8  1  1
  8 14  1  0
 37 28  1  6
  4  5  1  0
 33 30  1  1
 30 38  1  0
 34 31  1  6
 31 39  1  0
 35 32  1  6
 32 40  1  0
 41 42  1  0
 41 43  1  0
 15 19  2  0
 16 22  2  0
 12 17  1  6
 17 19  1  0
 17 20  1  0
 18 19  1  0
 18 22  1  0
 18 23  1  0
  9 10  1  0
  9 11  1  0
 10 12  1  0
 11  5  1  6
 33 34  1  0
 33 35  1  0
 34 36  1  0
 35 37  1  0
 36 42  1  1
 20 21  2  0
 21 22  1  0
M  CHG  2   2  -1  26  -1
M  END
>  <COMPND>  (124) 
    8629 

>  <AUTHOR>  (124) 
    GENERATED BY OPEN BABEL 3.1.1

>  <MASTER>  (124) 
        0    0    0    0    0    0    0    0   58    0   58    0

>  <minimizedAffinity>  (124) 
-7.25778

>  <CNNscore>  (124) 
0.8914355040

>  <CNNaffinity>  (124) 
4.6833381653

>  <CNN_VS>  (124) 
4.1748938560

>  <CNNaffinity_variance>  (124) 
0.0284494404

$$$$
125
     RDKit          3D

 43 45  0  0  0  0  0  0  0  0999 V2000
   23.4555   71.9193   -3.1320 P   0  0  2  0  0  0  0  0  0  0  0  0
   24.2113   73.1668   -3.8319 O   0  0  0  0  0  0  0  0  0  0  0  0
   24.2312   70.6350   -3.1184 O   0  0  0  0  0  0  0  0  0  0  0  0
   22.0210   71.8658   -3.8786 O   0  0  0  0  0  0  0  0  0  0  0  0
   21.2264   70.7016   -3.7337 C   0  0  0  0  0  0  0  0  0  0  0  0
   19.2053   71.7001   -4.5656 O   0  0  0  0  0  0  0  0  0  0  0  0
   17.8362   70.4387   -2.2151 O   0  0  0  0  0  0  0  0  0  0  0  0
   17.1957   68.7459   -4.2549 O   0  0  0  0  0  0  0  0  0  0  0  0
   18.9102   69.9376   -3.0093 C   0  0  1  0  0  0  0  0  0  0  0  0
   18.3975   69.4816   -4.3594 C   0  0  2  0  0  0  0  0  0  0  0  0
   19.8019   71.1135   -3.3882 C   0  0  1  0  0  0  0  0  0  0  0  0
   18.2134   70.8016   -5.0887 C   0  0  2  0  0  0  0  0  0  0  0  0
   17.2531   69.7057   -1.9606 H   0  0  0  0  0  0  0  0  0  0  0  0
   17.3649   67.9152   -3.7836 H   0  0  0  0  0  0  0  0  0  0  0  0
   16.2109   69.9585   -6.8935 O   0  0  0  0  0  0  0  0  0  0  0  0
   19.0450   70.3506  -10.5067 O   0  0  0  0  0  0  0  0  0  0  0  0
   18.4005   70.6747   -6.5066 N   0  0  0  0  0  0  0  0  0  0  0  0
   17.6236   70.1546   -8.6911 N   0  0  0  0  0  0  0  0  0  0  0  0
   17.3306   70.2422   -7.3242 C   0  0  0  0  0  0  0  0  0  0  0  0
   19.6340   70.9780   -7.0726 C   0  0  0  0  0  0  0  0  0  0  0  0
   19.8976   70.8880   -8.3779 C   0  0  0  0  0  0  0  0  0  0  0  0
   18.8339   70.4436   -9.3014 C   0  0  0  0  0  0  0  0  0  0  0  0
   16.8935   69.8550   -9.2801 H   0  0  0  0  0  0  0  0  0  0  0  0
   23.0821   72.4952   -1.6685 O   0  0  0  0  0  0  0  0  0  0  0  0
   22.8282   71.7383   -0.2630 P   0  0  2  0  0  0  0  0  0  0  0  0
   24.2848   71.1365    0.1027 O   0  0  0  0  0  0  0  0  0  0  0  0
   21.7287   70.7170   -0.3038 O   0  0  0  0  0  0  0  0  0  0  0  0
   22.5982   72.9264    0.8050 O   0  0  0  0  0  0  0  0  0  0  0  0
   23.7503   74.6581    1.9410 O   0  0  0  0  0  0  0  0  0  0  0  0
   22.3284   72.5620    5.2021 O   0  0  0  0  0  0  0  0  0  0  0  0
   21.1638   75.0998    4.5301 O   0  0  0  0  0  0  0  0  0  0  0  0
   23.2578   71.1346    2.8616 O   0  0  0  0  0  0  0  0  0  0  0  0
   22.2859   73.0919    3.8744 C   0  0  1  0  0  0  0  0  0  0  0  0
   22.3784   74.6164    3.9633 C   0  0  1  0  0  0  0  0  0  0  0  0
   23.4584   72.5278    3.0742 C   0  0  2  0  0  0  0  0  0  0  0  0
   22.6073   75.2392    2.5795 C   0  0  1  0  0  0  0  0  0  0  0  0
   23.6280   73.2493    1.7359 C   0  0  1  0  0  0  0  0  0  0  0  0
   21.5862   72.9159    5.7154 H   0  0  0  0  0  0  0  0  0  0  0  0
   21.0309   74.6986    5.4034 H   0  0  0  0  0  0  0  0  0  0  0  0
   23.1522   70.6892    3.7162 H   0  0  0  0  0  0  0  0  0  0  0  0
   21.6110   77.4037    2.7552 O   0  0  0  0  0  0  0  0  0  0  0  0
   22.8596   76.7429    2.6637 C   0  0  0  0  0  0  0  0  0  0  0  0
   21.7560   78.3617    2.8098 H   0  0  0  0  0  0  0  0  0  0  0  0
 25 28  1  0
 25 24  1  0
 25 26  1  1
 25 27  2  0
  1  4  1  0
  1 24  1  0
  1  2  1  6
  1  3  2  0
  6 11  1  0
  6 12  1  0
 29 36  1  0
 29 37  1  0
  9  7  1  1
  7 13  1  0
 10  8  1  1
  8 14  1  0
 37 28  1  6
  4  5  1  0
 33 30  1  1
 30 38  1  0
 34 31  1  6
 31 39  1  0
 35 32  1  6
 32 40  1  0
 41 42  1  0
 41 43  1  0
 15 19  2  0
 16 22  2  0
 12 17  1  6
 17 19  1  0
 17 20  1  0
 18 19  1  0
 18 22  1  0
 18 23  1  0
  9 10  1  0
  9 11  1  0
 10 12  1  0
 11  5  1  6
 33 34  1  0
 33 35  1  0
 34 36  1  0
 35 37  1  0
 36 42  1  1
 20 21  2  0
 21 22  1  0
M  CHG  2   2  -1  26  -1
M  END
>  <COMPND>  (125) 
    8629 

>  <AUTHOR>  (125) 
    GENERATED BY OPEN BABEL 3.1.1

>  <MASTER>  (125) 
        0    0    0    0    0    0    0    0   58    0   58    0

>  <minimizedAffinity>  (125) 
-7.28815

>  <CNNscore>  (125) 
0.8772906065

>  <CNNaffinity>  (125) 
4.6802053452

>  <CNN_VS>  (125) 
4.1059002876

>  <CNNaffinity_variance>  (125) 
0.0342997499

$$$$
126
     RDKit          3D

 43 45  0  0  0  0  0  0  0  0999 V2000
   23.4142   71.8790   -3.3011 P   0  0  2  0  0  0  0  0  0  0  0  0
   24.1754   72.9599   -4.2337 O   0  0  0  0  0  0  0  0  0  0  0  0
   24.2161   70.6564   -2.9642 O   0  0  0  0  0  0  0  0  0  0  0  0
   22.0186   71.6126   -4.0752 O   0  0  0  0  0  0  0  0  0  0  0  0
   21.2351   70.4960   -3.6917 C   0  0  0  0  0  0  0  0  0  0  0  0
   19.2673   71.6123   -4.5014 O   0  0  0  0  0  0  0  0  0  0  0  0
   17.8357   70.3745   -2.1756 O   0  0  0  0  0  0  0  0  0  0  0  0
   17.1105   68.7580   -4.2487 O   0  0  0  0  0  0  0  0  0  0  0  0
   18.8830   69.8358   -2.9808 C   0  0  1  0  0  0  0  0  0  0  0  0
   18.3481   69.4339   -4.3394 C   0  0  2  0  0  0  0  0  0  0  0  0
   19.8332   70.9725   -3.3366 C   0  0  1  0  0  0  0  0  0  0  0  0
   18.2312   70.7760   -5.0417 C   0  0  2  0  0  0  0  0  0  0  0  0
   17.2162   69.6670   -1.9355 H   0  0  0  0  0  0  0  0  0  0  0  0
   17.2373   67.9104   -3.7945 H   0  0  0  0  0  0  0  0  0  0  0  0
   16.1876   70.0771   -6.8618 O   0  0  0  0  0  0  0  0  0  0  0  0
   19.0396   70.3930  -10.4684 O   0  0  0  0  0  0  0  0  0  0  0  0
   18.4118   70.6685   -6.4620 N   0  0  0  0  0  0  0  0  0  0  0  0
   17.6093   70.2351   -8.6562 N   0  0  0  0  0  0  0  0  0  0  0  0
   17.3208   70.3100   -7.2875 C   0  0  0  0  0  0  0  0  0  0  0  0
   19.6598   70.9177   -7.0226 C   0  0  0  0  0  0  0  0  0  0  0  0
   19.9187   70.8408   -8.3296 C   0  0  0  0  0  0  0  0  0  0  0  0
   18.8333   70.4723   -9.2613 C   0  0  0  0  0  0  0  0  0  0  0  0
   16.8645   69.9867   -9.2506 H   0  0  0  0  0  0  0  0  0  0  0  0
   22.9588   72.7581   -2.0233 O   0  0  0  0  0  0  0  0  0  0  0  0
   22.7315   72.3448   -0.4772 P   0  0  2  0  0  0  0  0  0  0  0  0
   23.8953   73.1575    0.2991 O   0  0  0  0  0  0  0  0  0  0  0  0
   22.7386   70.8643   -0.2285 O   0  0  0  0  0  0  0  0  0  0  0  0
   21.3629   73.0878   -0.0527 O   0  0  0  0  0  0  0  0  0  0  0  0
   19.8335   74.2330   -1.4548 O   0  0  0  0  0  0  0  0  0  0  0  0
   19.4202   76.5058    1.9678 O   0  0  0  0  0  0  0  0  0  0  0  0
   17.3075   74.7250    1.1845 O   0  0  0  0  0  0  0  0  0  0  0  0
   22.0276   75.5074    1.2037 O   0  0  0  0  0  0  0  0  0  0  0  0
   19.6275   75.3059    1.2177 C   0  0  1  0  0  0  0  0  0  0  0  0
   18.3986   75.0728    0.3366 C   0  0  1  0  0  0  0  0  0  0  0  0
   20.8817   75.4638    0.3601 C   0  0  2  0  0  0  0  0  0  0  0  0
   18.6549   73.9596   -0.6882 C   0  0  1  0  0  0  0  0  0  0  0  0
   21.0159   74.3304   -0.6584 C   0  0  1  0  0  0  0  0  0  0  0  0
   18.6255   76.4120    2.5148 H   0  0  0  0  0  0  0  0  0  0  0  0
   17.1565   75.4359    1.8271 H   0  0  0  0  0  0  0  0  0  0  0  0
   21.9306   76.2291    1.8436 H   0  0  0  0  0  0  0  0  0  0  0  0
   16.7606   75.0241   -1.6819 O   0  0  0  0  0  0  0  0  0  0  0  0
   17.5014   73.8177   -1.6789 C   0  0  0  0  0  0  0  0  0  0  0  0
   16.0232   74.9485   -2.3082 H   0  0  0  0  0  0  0  0  0  0  0  0
 25 28  1  0
 25 24  1  0
 25 26  1  1
 25 27  2  0
  1  4  1  0
  1 24  1  0
  1  2  1  6
  1  3  2  0
  6 11  1  0
  6 12  1  0
 29 36  1  0
 29 37  1  0
  9  7  1  1
  7 13  1  0
 10  8  1  1
  8 14  1  0
 37 28  1  1
  4  5  1  0
 33 30  1  6
 30 38  1  0
 34 31  1  1
 31 39  1  0
 35 32  1  1
 32 40  1  0
 41 42  1  0
 41 43  1  0
 15 19  2  0
 16 22  2  0
 12 17  1  6
 17 19  1  0
 17 20  1  0
 18 19  1  0
 18 22  1  0
 18 23  1  0
  9 10  1  0
  9 11  1  0
 10 12  1  0
 11  5  1  6
 33 34  1  0
 33 35  1  0
 34 36  1  0
 35 37  1  0
 36 42  1  6
 20 21  2  0
 21 22  1  0
M  CHG  2   2  -1  26  -1
M  END
>  <COMPND>  (126) 
    8629 

>  <AUTHOR>  (126) 
    GENERATED BY OPEN BABEL 3.1.1

>  <MASTER>  (126) 
        0    0    0    0    0    0    0    0   58    0   58    0

>  <minimizedAffinity>  (126) 
-6.44019

>  <CNNscore>  (126) 
0.8664348125

>  <CNNaffinity>  (126) 
4.5988159180

>  <CNN_VS>  (126) 
3.9845743179

>  <CNNaffinity_variance>  (126) 
0.0420682393

$$$$
127
     RDKit          3D

 43 45  0  0  0  0  0  0  0  0999 V2000
   21.5027   72.9383   -4.9345 P   0  0  2  0  0  0  0  0  0  0  0  0
   21.4437   74.5513   -5.0455 O   0  0  0  0  0  0  0  0  0  0  0  0
   22.3446   72.2617   -5.9760 O   0  0  0  0  0  0  0  0  0  0  0  0
   19.9472   72.4949   -4.8915 O   0  0  0  0  0  0  0  0  0  0  0  0
   19.5082   71.6715   -3.8251 C   0  0  0  0  0  0  0  0  0  0  0  0
   17.5553   71.8870   -5.2084 O   0  0  0  0  0  0  0  0  0  0  0  0
   16.1232   70.2929   -3.1110 O   0  0  0  0  0  0  0  0  0  0  0  0
   16.6174   68.4294   -5.0397 O   0  0  0  0  0  0  0  0  0  0  0  0
   17.4673   70.1732   -3.5741 C   0  0  1  0  0  0  0  0  0  0  0  0
   17.4957   69.5324   -4.9459 C   0  0  2  0  0  0  0  0  0  0  0  0
   17.9893   71.5744   -3.8666 C   0  0  1  0  0  0  0  0  0  0  0  0
   17.0816   70.6873   -5.8419 C   0  0  2  0  0  0  0  0  0  0  0  0
   15.7684   69.4106   -2.9173 H   0  0  0  0  0  0  0  0  0  0  0  0
   16.9233   67.7214   -4.4516 H   0  0  0  0  0  0  0  0  0  0  0  0
   15.5872   70.6530   -8.2385 O   0  0  0  0  0  0  0  0  0  0  0  0
   19.3911   70.3299  -10.8206 O   0  0  0  0  0  0  0  0  0  0  0  0
   17.6558   70.5953   -7.1546 N   0  0  0  0  0  0  0  0  0  0  0  0
   17.4825   70.4923   -9.5222 N   0  0  0  0  0  0  0  0  0  0  0  0
   16.8169   70.5848   -8.2932 C   0  0  0  0  0  0  0  0  0  0  0  0
   19.0363   70.5171   -7.3032 C   0  0  0  0  0  0  0  0  0  0  0  0
   19.6553   70.4281   -8.4822 C   0  0  0  0  0  0  0  0  0  0  0  0
   18.8516   70.4110   -9.7215 C   0  0  0  0  0  0  0  0  0  0  0  0
   16.9184   70.4829  -10.3294 H   0  0  0  0  0  0  0  0  0  0  0  0
   21.9917   72.6963   -3.4129 O   0  0  0  0  0  0  0  0  0  0  0  0
   23.4714   72.5036   -2.7914 P   0  0  2  0  0  0  0  0  0  0  0  0
   24.1788   73.9321   -3.0676 O   0  0  0  0  0  0  0  0  0  0  0  0
   24.2210   71.3247   -3.3411 O   0  0  0  0  0  0  0  0  0  0  0  0
   23.2417   72.4645   -1.1943 O   0  0  0  0  0  0  0  0  0  0  0  0
   24.0175   70.7663    0.2655 O   0  0  0  0  0  0  0  0  0  0  0  0
   20.6518   71.9409    2.3495 O   0  0  0  0  0  0  0  0  0  0  0  0
   23.2528   72.6386    3.3475 O   0  0  0  0  0  0  0  0  0  0  0  0
   20.5900   71.8179   -0.5420 O   0  0  0  0  0  0  0  0  0  0  0  0
   21.8001   72.1269    1.5175 C   0  0  1  0  0  0  0  0  0  0  0  0
   23.0380   71.6919    2.3044 C   0  0  1  0  0  0  0  0  0  0  0  0
   21.6427   71.2837    0.2536 C   0  0  2  0  0  0  0  0  0  0  0  0
   24.2716   71.6094    1.3953 C   0  0  1  0  0  0  0  0  0  0  0  0
   22.9411   71.2276   -0.5533 C   0  0  1  0  0  0  0  0  0  0  0  0
   20.7452   72.4740    3.1536 H   0  0  0  0  0  0  0  0  0  0  0  0
   22.4664   72.6814    3.9139 H   0  0  0  0  0  0  0  0  0  0  0  0
   19.7736   71.8479   -0.0200 H   0  0  0  0  0  0  0  0  0  0  0  0
   25.0442   69.9446    2.9251 O   0  0  0  0  0  0  0  0  0  0  0  0
   25.4808   71.0268    2.1236 C   0  0  0  0  0  0  0  0  0  0  0  0
   25.8034   69.5637    3.3944 H   0  0  0  0  0  0  0  0  0  0  0  0
 25 28  1  0
 25 24  1  0
 25 26  1  1
 25 27  2  0
  1  4  1  0
  1 24  1  0
  1  2  1  6
  1  3  2  0
  6 11  1  0
  6 12  1  0
 29 36  1  0
 29 37  1  0
  9  7  1  6
  7 13  1  0
 10  8  1  1
  8 14  1  0
 37 28  1  1
  4  5  1  0
 33 30  1  1
 30 38  1  0
 34 31  1  1
 31 39  1  0
 35 32  1  6
 32 40  1  0
 41 42  1  0
 41 43  1  0
 15 19  2  0
 16 22  2  0
 12 17  1  6
 17 19  1  0
 17 20  1  0
 18 19  1  0
 18 22  1  0
 18 23  1  0
  9 10  1  0
  9 11  1  0
 10 12  1  0
 11  5  1  6
 33 34  1  0
 33 35  1  0
 34 36  1  0
 35 37  1  0
 36 42  1  1
 20 21  2  0
 21 22  1  0
M  CHG  2   2  -1  26  -1
M  END
>  <COMPND>  (127) 
    8629 

>  <AUTHOR>  (127) 
    GENERATED BY OPEN BABEL 3.1.1

>  <MASTER>  (127) 
        0    0    0    0    0    0    0    0   58    0   58    0

>  <minimizedAffinity>  (127) 
-7.95419

>  <CNNscore>  (127) 
0.8504870534

>  <CNNaffinity>  (127) 
4.6746568680

>  <CNN_VS>  (127) 
3.9757351875

>  <CNNaffinity_variance>  (127) 
0.0480677262

$$$$
128
     RDKit          3D

 43 45  0  0  0  0  0  0  0  0999 V2000
   20.4634   71.2074   -1.5180 P   0  0  2  0  0  0  0  0  0  0  0  0
   21.0386   70.6268   -0.1218 O   0  0  0  0  0  0  0  0  0  0  0  0
   19.8867   72.5904   -1.4396 O   0  0  0  0  0  0  0  0  0  0  0  0
   19.4531   70.0529   -2.0319 O   0  0  0  0  0  0  0  0  0  0  0  0
   19.0968   70.0277   -3.4032 C   0  0  0  0  0  0  0  0  0  0  0  0
   17.5062   71.2192   -4.7538 O   0  0  0  0  0  0  0  0  0  0  0  0
   15.3907   69.6802   -3.2886 O   0  0  0  0  0  0  0  0  0  0  0  0
   15.5735   68.3352   -5.6538 O   0  0  0  0  0  0  0  0  0  0  0  0
   16.6898   69.2592   -3.7015 C   0  0  1  0  0  0  0  0  0  0  0  0
   16.7170   69.0291   -5.1981 C   0  0  2  0  0  0  0  0  0  0  0  0
   17.6382   70.4412   -3.5441 C   0  0  1  0  0  0  0  0  0  0  0  0
   16.7914   70.4489   -5.7338 C   0  0  2  0  0  0  0  0  0  0  0  0
   14.7675   68.9418   -3.3799 H   0  0  0  0  0  0  0  0  0  0  0  0
   15.5718   67.4378   -5.2859 H   0  0  0  0  0  0  0  0  0  0  0  0
   15.5294   70.5581   -8.2584 O   0  0  0  0  0  0  0  0  0  0  0  0
   19.5672   70.7405  -10.4730 O   0  0  0  0  0  0  0  0  0  0  0  0
   17.4886   70.5257   -6.9866 N   0  0  0  0  0  0  0  0  0  0  0  0
   17.5409   70.6490   -9.3590 N   0  0  0  0  0  0  0  0  0  0  0  0
   16.7606   70.5751   -8.1982 C   0  0  0  0  0  0  0  0  0  0  0  0
   18.8789   70.5519   -7.0054 C   0  0  0  0  0  0  0  0  0  0  0  0
   19.6082   70.6213   -8.1210 C   0  0  0  0  0  0  0  0  0  0  0  0
   18.9248   70.6764   -9.4294 C   0  0  0  0  0  0  0  0  0  0  0  0
   17.0553   70.6840  -10.2150 H   0  0  0  0  0  0  0  0  0  0  0  0
   21.7235   71.0598   -2.5196 O   0  0  0  0  0  0  0  0  0  0  0  0
   23.0201   71.9997   -2.7402 P   0  0  2  0  0  0  0  0  0  0  0  0
   24.1769   70.9456   -3.1503 O   0  0  0  0  0  0  0  0  0  0  0  0
   23.3604   72.8651   -1.5616 O   0  0  0  0  0  0  0  0  0  0  0  0
   22.7089   72.8126   -4.0993 O   0  0  0  0  0  0  0  0  0  0  0  0
   22.8040   75.1608   -4.4049 O   0  0  0  0  0  0  0  0  0  0  0  0
   19.7944   74.2677   -7.0874 O   0  0  0  0  0  0  0  0  0  0  0  0
   22.3907   75.0105   -8.0649 O   0  0  0  0  0  0  0  0  0  0  0  0
   19.9414   72.8616   -4.5614 O   0  0  0  0  0  0  0  0  0  0  0  0
   21.0104   74.0395   -6.3700 C   0  0  1  0  0  0  0  0  0  0  0  0
   21.9858   75.1687   -6.7080 C   0  0  1  0  0  0  0  0  0  0  0  0
   20.7100   74.0187   -4.8724 C   0  0  2  0  0  0  0  0  0  0  0  0
   23.2072   75.1422   -5.7793 C   0  0  1  0  0  0  0  0  0  0  0  0
   21.9924   74.0432   -4.0388 C   0  0  1  0  0  0  0  0  0  0  0  0
   19.9781   74.2816   -8.0390 H   0  0  0  0  0  0  0  0  0  0  0  0
   21.6101   75.0285   -8.6407 H   0  0  0  0  0  0  0  0  0  0  0  0
   19.1322   72.8579   -5.0953 H   0  0  0  0  0  0  0  0  0  0  0  0
   25.0854   76.0166   -6.9695 O   0  0  0  0  0  0  0  0  0  0  0  0
   24.1153   76.3511   -5.9941 C   0  0  0  0  0  0  0  0  0  0  0  0
   25.6704   76.7768   -7.1167 H   0  0  0  0  0  0  0  0  0  0  0  0
 25 28  1  0
 25 24  1  0
 25 26  1  6
 25 27  2  0
  1  4  1  0
  1 24  1  0
  1  2  1  1
  1  3  2  0
  6 11  1  0
  6 12  1  0
 29 36  1  0
 29 37  1  0
  9  7  1  6
  7 13  1  0
 10  8  1  6
  8 14  1  0
 37 28  1  6
  4  5  1  0
 33 30  1  6
 30 38  1  0
 34 31  1  6
 31 39  1  0
 35 32  1  6
 32 40  1  0
 41 42  1  0
 41 43  1  0
 15 19  2  0
 16 22  2  0
 12 17  1  6
 17 19  1  0
 17 20  1  0
 18 19  1  0
 18 22  1  0
 18 23  1  0
  9 10  1  0
  9 11  1  0
 10 12  1  0
 11  5  1  6
 33 34  1  0
 33 35  1  0
 34 36  1  0
 35 37  1  0
 36 42  1  6
 20 21  2  0
 21 22  1  0
M  CHG  2   2  -1  26  -1
M  END
>  <COMPND>  (128) 
    8629 

>  <AUTHOR>  (128) 
    GENERATED BY OPEN BABEL 3.1.1

>  <MASTER>  (128) 
        0    0    0    0    0    0    0    0   58    0   58    0

>  <minimizedAffinity>  (128) 
-7.82838

>  <CNNscore>  (128) 
0.8461062312

>  <CNNaffinity>  (128) 
4.6241927147

>  <CNN_VS>  (128) 
3.9125583172

>  <CNNaffinity_variance>  (128) 
0.5637490153

$$$$
129
     RDKit          3D

 43 45  0  0  0  0  0  0  0  0999 V2000
   21.7968   72.4218   -5.5847 P   0  0  2  0  0  0  0  0  0  0  0  0
   21.0353   73.8063   -5.2374 O   0  0  0  0  0  0  0  0  0  0  0  0
   23.0713   72.5771   -6.3613 O   0  0  0  0  0  0  0  0  0  0  0  0
   20.6540   71.5148   -6.2841 O   0  0  0  0  0  0  0  0  0  0  0  0
   20.1635   71.9062   -7.5545 C   0  0  0  0  0  0  0  0  0  0  0  0
   18.9026   69.8974   -7.1696 O   0  0  0  0  0  0  0  0  0  0  0  0
   18.1257   70.0538  -10.0614 O   0  0  0  0  0  0  0  0  0  0  0  0
   15.9167   71.0347   -8.7986 O   0  0  0  0  0  0  0  0  0  0  0  0
   18.3252   71.1092   -9.1224 C   0  0  1  0  0  0  0  0  0  0  0  0
   17.1649   71.1754   -8.1514 C   0  0  2  0  0  0  0  0  0  0  0  0
   19.4805   70.7143   -8.2111 C   0  0  1  0  0  0  0  0  0  0  0  0
   17.4715   70.0190   -7.2149 C   0  0  2  0  0  0  0  0  0  0  0  0
   17.3927   70.2834  -10.6547 H   0  0  0  0  0  0  0  0  0  0  0  0
   15.7678   71.7945   -9.3828 H   0  0  0  0  0  0  0  0  0  0  0  0
   16.2782   68.0373   -5.5941 O   0  0  0  0  0  0  0  0  0  0  0  0
   15.6231   71.0054   -2.1297 O   0  0  0  0  0  0  0  0  0  0  0  0
   16.9804   70.2463   -5.8850 N   0  0  0  0  0  0  0  0  0  0  0  0
   15.9532   69.5168   -3.8703 N   0  0  0  0  0  0  0  0  0  0  0  0
   16.3975   69.1835   -5.1562 C   0  0  0  0  0  0  0  0  0  0  0  0
   17.0796   71.5115   -5.3165 C   0  0  0  0  0  0  0  0  0  0  0  0
   16.6498   71.8132   -4.0895 C   0  0  0  0  0  0  0  0  0  0  0  0
   16.0282   70.7595   -3.2616 C   0  0  0  0  0  0  0  0  0  0  0  0
   15.5432   68.7923   -3.3441 H   0  0  0  0  0  0  0  0  0  0  0  0
   21.9728   71.7300   -4.1344 O   0  0  0  0  0  0  0  0  0  0  0  0
   23.1312   71.8852   -3.0178 P   0  0  2  0  0  0  0  0  0  0  0  0
   23.6360   73.4095   -3.2162 O   0  0  0  0  0  0  0  0  0  0  0  0
   24.2193   70.8552   -3.1126 O   0  0  0  0  0  0  0  0  0  0  0  0
   22.3423   71.8971   -1.6097 O   0  0  0  0  0  0  0  0  0  0  0  0
   24.0165   72.4258   -0.0178 O   0  0  0  0  0  0  0  0  0  0  0  0
   20.7527   72.2134    2.5028 O   0  0  0  0  0  0  0  0  0  0  0  0
   21.9018   74.7715    1.8833 O   0  0  0  0  0  0  0  0  0  0  0  0
   21.0057   70.3437    0.3074 O   0  0  0  0  0  0  0  0  0  0  0  0
   21.4398   72.5030    1.2824 C   0  0  1  0  0  0  0  0  0  0  0  0
   22.5333   73.5308    1.5799 C   0  0  1  0  0  0  0  0  0  0  0  0
   22.0485   71.2137    0.7343 C   0  0  2  0  0  0  0  0  0  0  0  0
   23.4818   73.6923    0.3844 C   0  0  1  0  0  0  0  0  0  0  0  0
   23.0135   71.4908   -0.4199 C   0  0  1  0  0  0  0  0  0  0  0  0
   20.3634   73.0279    2.8559 H   0  0  0  0  0  0  0  0  0  0  0  0
   21.3053   74.6557    2.6396 H   0  0  0  0  0  0  0  0  0  0  0  0
   20.4018   70.1758    1.0470 H   0  0  0  0  0  0  0  0  0  0  0  0
   24.8372   74.6194    2.1200 O   0  0  0  0  0  0  0  0  0  0  0  0
   24.6698   74.5935    0.7144 C   0  0  0  0  0  0  0  0  0  0  0  0
   25.5901   75.1889    2.3448 H   0  0  0  0  0  0  0  0  0  0  0  0
 25 28  1  0
 25 24  1  0
 25 26  1  6
 25 27  2  0
  1  4  1  0
  1 24  1  0
  1  2  1  1
  1  3  2  0
  6 11  1  0
  6 12  1  0
 29 36  1  0
 29 37  1  0
  9  7  1  6
  7 13  1  0
 10  8  1  6
  8 14  1  0
 37 28  1  6
  4  5  1  0
 33 30  1  1
 30 38  1  0
 34 31  1  6
 31 39  1  0
 35 32  1  6
 32 40  1  0
 41 42  1  0
 41 43  1  0
 15 19  2  0
 16 22  2  0
 12 17  1  1
 17 19  1  0
 17 20  1  0
 18 19  1  0
 18 22  1  0
 18 23  1  0
  9 10  1  0
  9 11  1  0
 10 12  1  0
 11  5  1  1
 33 34  1  0
 33 35  1  0
 34 36  1  0
 35 37  1  0
 36 42  1  1
 20 21  2  0
 21 22  1  0
M  CHG  2   2  -1  26  -1
M  END
>  <COMPND>  (129) 
    8629 

>  <AUTHOR>  (129) 
    GENERATED BY OPEN BABEL 3.1.1

>  <MASTER>  (129) 
        0    0    0    0    0    0    0    0   58    0   58    0

>  <minimizedAffinity>  (129) 
-8.14977

>  <CNNscore>  (129) 
0.8141650558

>  <CNNaffinity>  (129) 
4.5815973282

>  <CNN_VS>  (129) 
3.7301764488

>  <CNNaffinity_variance>  (129) 
0.1828910559

$$$$
130
     RDKit          3D

 43 45  0  0  0  0  0  0  0  0999 V2000
   20.4250   72.2434   -2.4766 P   0  0  2  0  0  0  0  0  0  0  0  0
   20.4667   70.6308   -2.5998 O   0  0  0  0  0  0  0  0  0  0  0  0
   19.0492   72.8388   -2.4132 O   0  0  0  0  0  0  0  0  0  0  0  0
   21.3544   72.7505   -3.7002 O   0  0  0  0  0  0  0  0  0  0  0  0
   21.9443   71.7806   -4.5482 C   0  0  0  0  0  0  0  0  0  0  0  0
   21.0021   71.2707   -6.6990 O   0  0  0  0  0  0  0  0  0  0  0  0
   21.4777   74.1514   -7.3820 O   0  0  0  0  0  0  0  0  0  0  0  0
   18.8119   74.1086   -6.8091 O   0  0  0  0  0  0  0  0  0  0  0  0
   21.0864   73.5717   -6.1385 C   0  0  1  0  0  0  0  0  0  0  0  0
   19.6358   73.1399   -6.1930 C   0  0  2  0  0  0  0  0  0  0  0  0
   21.8099   72.2386   -5.9940 C   0  0  1  0  0  0  0  0  0  0  0  0
   19.7206   71.8508   -6.9925 C   0  0  2  0  0  0  0  0  0  0  0  0
   21.0286   75.0041   -7.4965 H   0  0  0  0  0  0  0  0  0  0  0  0
   18.7902   74.9096   -6.2626 H   0  0  0  0  0  0  0  0  0  0  0  0
   17.8854   70.7196   -8.8174 O   0  0  0  0  0  0  0  0  0  0  0  0
   15.8169   68.2739   -5.5037 O   0  0  0  0  0  0  0  0  0  0  0  0
   18.6922   70.9153   -6.6339 N   0  0  0  0  0  0  0  0  0  0  0  0
   16.8571   69.5026   -7.1660 N   0  0  0  0  0  0  0  0  0  0  0  0
   17.8218   70.4078   -7.6265 C   0  0  0  0  0  0  0  0  0  0  0  0
   18.5547   70.5100   -5.3107 C   0  0  0  0  0  0  0  0  0  0  0  0
   17.6287   69.6470   -4.8877 C   0  0  0  0  0  0  0  0  0  0  0  0
   16.6797   69.0699   -5.8614 C   0  0  0  0  0  0  0  0  0  0  0  0
   16.2393   69.1362   -7.8397 H   0  0  0  0  0  0  0  0  0  0  0  0
   21.3438   72.5326   -1.1785 O   0  0  0  0  0  0  0  0  0  0  0  0
   22.0198   71.5248   -0.1106 P   0  0  2  0  0  0  0  0  0  0  0  0
   23.3189   70.9674   -0.8974 O   0  0  0  0  0  0  0  0  0  0  0  0
   21.0963   70.4550    0.3960 O   0  0  0  0  0  0  0  0  0  0  0  0
   22.6204   72.4882    1.0367 O   0  0  0  0  0  0  0  0  0  0  0  0
   24.3873   72.2476    2.5977 O   0  0  0  0  0  0  0  0  0  0  0  0
   21.5925   74.0590    5.0387 O   0  0  0  0  0  0  0  0  0  0  0  0
   23.8782   75.5527    4.1487 O   0  0  0  0  0  0  0  0  0  0  0  0
   20.7487   72.0920    3.0897 O   0  0  0  0  0  0  0  0  0  0  0  0
   22.2806   73.8050    3.8110 C   0  0  1  0  0  0  0  0  0  0  0  0
   23.7600   74.1393    4.0123 C   0  0  1  0  0  0  0  0  0  0  0  0
   22.1078   72.3341    3.4369 C   0  0  2  0  0  0  0  0  0  0  0  0
   24.6056   73.6438    2.8315 C   0  0  1  0  0  0  0  0  0  0  0  0
   23.0293   71.9325    2.2838 C   0  0  1  0  0  0  0  0  0  0  0  0
   21.6978   74.9914    5.2816 H   0  0  0  0  0  0  0  0  0  0  0  0
   23.3392   75.8528    4.8974 H   0  0  0  0  0  0  0  0  0  0  0  0
   20.1756   72.3500    3.8279 H   0  0  0  0  0  0  0  0  0  0  0  0
   26.4330   75.1829    2.8557 O   0  0  0  0  0  0  0  0  0  0  0  0
   26.1009   73.8255    3.0828 C   0  0  0  0  0  0  0  0  0  0  0  0
   27.3818   75.3135    3.0122 H   0  0  0  0  0  0  0  0  0  0  0  0
 25 28  1  0
 25 24  1  0
 25 26  1  6
 25 27  2  0
  1  4  1  0
  1 24  1  0
  1  2  1  6
  1  3  2  0
  6 11  1  0
  6 12  1  0
 29 36  1  0
 29 37  1  0
  9  7  1  6
  7 13  1  0
 10  8  1  6
  8 14  1  0
 37 28  1  6
  4  5  1  0
 33 30  1  1
 30 38  1  0
 34 31  1  6
 31 39  1  0
 35 32  1  6
 32 40  1  0
 41 42  1  0
 41 43  1  0
 15 19  2  0
 16 22  2  0
 12 17  1  1
 17 19  1  0
 17 20  1  0
 18 19  1  0
 18 22  1  0
 18 23  1  0
  9 10  1  0
  9 11  1  0
 10 12  1  0
 11  5  1  1
 33 34  1  0
 33 35  1  0
 34 36  1  0
 35 37  1  0
 36 42  1  1
 20 21  2  0
 21 22  1  0
M  CHG  2   2  -1  26  -1
M  END
>  <COMPND>  (130) 
    8629 

>  <AUTHOR>  (130) 
    GENERATED BY OPEN BABEL 3.1.1

>  <MASTER>  (130) 
        0    0    0    0    0    0    0    0   58    0   58    0

>  <minimizedAffinity>  (130) 
-6.63071

>  <CNNscore>  (130) 
0.8011055589

>  <CNNaffinity>  (130) 
4.3465204239

>  <CNN_VS>  (130) 
3.4820215702

>  <CNNaffinity_variance>  (130) 
0.1098571569

$$$$
131
     RDKit          3D

 43 45  0  0  0  0  0  0  0  0999 V2000
   19.5188   75.1984   -2.4820 P   0  0  2  0  0  0  0  0  0  0  0  0
   19.3806   75.3870   -0.8811 O   0  0  0  0  0  0  0  0  0  0  0  0
   18.6479   76.1024   -3.3041 O   0  0  0  0  0  0  0  0  0  0  0  0
   19.2949   73.6119   -2.7069 O   0  0  0  0  0  0  0  0  0  0  0  0
   18.9162   73.1585   -3.9949 C   0  0  0  0  0  0  0  0  0  0  0  0
   17.0560   72.2660   -5.2264 O   0  0  0  0  0  0  0  0  0  0  0  0
   16.4436   70.6569   -2.7715 O   0  0  0  0  0  0  0  0  0  0  0  0
   17.6826   68.8373   -4.3810 O   0  0  0  0  0  0  0  0  0  0  0  0
   17.7097   71.0235   -3.3173 C   0  0  1  0  0  0  0  0  0  0  0  0
   18.0068   70.2018   -4.5543 C   0  0  2  0  0  0  0  0  0  0  0  0
   17.5838   72.4290   -3.8918 C   0  0  1  0  0  0  0  0  0  0  0  0
   17.1383   70.8808   -5.5997 C   0  0  2  0  0  0  0  0  0  0  0  0
   16.4993   69.7628   -2.3982 H   0  0  0  0  0  0  0  0  0  0  0  0
   18.2621   68.4503   -3.7064 H   0  0  0  0  0  0  0  0  0  0  0  0
   15.6332   70.3621   -7.9328 O   0  0  0  0  0  0  0  0  0  0  0  0
   19.3806   70.5374  -10.6101 O   0  0  0  0  0  0  0  0  0  0  0  0
   17.6950   70.7859   -6.9197 N   0  0  0  0  0  0  0  0  0  0  0  0
   17.5003   70.4500   -9.2640 N   0  0  0  0  0  0  0  0  0  0  0  0
   16.8522   70.5210   -8.0243 C   0  0  0  0  0  0  0  0  0  0  0  0
   19.0623   70.9552   -7.1090 C   0  0  0  0  0  0  0  0  0  0  0  0
   19.6649   70.8831   -8.2977 C   0  0  0  0  0  0  0  0  0  0  0  0
   18.8560   70.6097   -9.5031 C   0  0  0  0  0  0  0  0  0  0  0  0
   16.9333   70.2660  -10.0478 H   0  0  0  0  0  0  0  0  0  0  0  0
   21.1050   75.3809   -2.7338 O   0  0  0  0  0  0  0  0  0  0  0  0
   22.3410   74.3663   -2.4971 P   0  0  2  0  0  0  0  0  0  0  0  0
   23.6131   75.3567   -2.3611 O   0  0  0  0  0  0  0  0  0  0  0  0
   22.4857   73.3146   -3.5586 O   0  0  0  0  0  0  0  0  0  0  0  0
   22.1145   73.7869   -1.0079 O   0  0  0  0  0  0  0  0  0  0  0  0
   23.5298   73.5868    0.8824 O   0  0  0  0  0  0  0  0  0  0  0  0
   21.5945   69.9468    1.1190 O   0  0  0  0  0  0  0  0  0  0  0  0
   20.9703   72.0106    3.0162 O   0  0  0  0  0  0  0  0  0  0  0  0
   22.3291   71.0263   -1.4645 O   0  0  0  0  0  0  0  0  0  0  0  0
   21.7109   71.3450    0.8415 C   0  0  1  0  0  0  0  0  0  0  0  0
   22.0917   72.0613    2.1387 C   0  0  1  0  0  0  0  0  0  0  0  0
   22.7854   71.5546   -0.2238 C   0  0  2  0  0  0  0  0  0  0  0  0
   22.4944   73.5175    1.8697 C   0  0  1  0  0  0  0  0  0  0  0  0
   23.1470   73.0330   -0.3780 C   0  0  1  0  0  0  0  0  0  0  0  0
   20.9135   69.8068    1.7944 H   0  0  0  0  0  0  0  0  0  0  0  0
   20.7259   71.0856    3.1775 H   0  0  0  0  0  0  0  0  0  0  0  0
   22.1037   70.0900   -1.3537 H   0  0  0  0  0  0  0  0  0  0  0  0
   23.4121   73.2076    4.0539 O   0  0  0  0  0  0  0  0  0  0  0  0
   23.0281   74.2044    3.1249 C   0  0  0  0  0  0  0  0  0  0  0  0
   23.7542   73.6302    4.8578 H   0  0  0  0  0  0  0  0  0  0  0  0
 25 28  1  0
 25 24  1  0
 25 26  1  1
 25 27  2  0
  1  4  1  0
  1 24  1  0
  1  2  1  1
  1  3  2  0
  6 11  1  0
  6 12  1  0
 29 36  1  0
 29 37  1  0
  9  7  1  6
  7 13  1  0
 10  8  1  1
  8 14  1  0
 37 28  1  1
  4  5  1  0
 33 30  1  1
 30 38  1  0
 34 31  1  1
 31 39  1  0
 35 32  1  6
 32 40  1  0
 41 42  1  0
 41 43  1  0
 15 19  2  0
 16 22  2  0
 12 17  1  6
 17 19  1  0
 17 20  1  0
 18 19  1  0
 18 22  1  0
 18 23  1  0
  9 10  1  0
  9 11  1  0
 10 12  1  0
 11  5  1  6
 33 34  1  0
 33 35  1  0
 34 36  1  0
 35 37  1  0
 36 42  1  1
 20 21  2  0
 21 22  1  0
M  CHG  2   2  -1  26  -1
M  END
>  <COMPND>  (131) 
    8629 

>  <AUTHOR>  (131) 
    GENERATED BY OPEN BABEL 3.1.1

>  <MASTER>  (131) 
        0    0    0    0    0    0    0    0   58    0   58    0

>  <minimizedAffinity>  (131) 
-6.56231

>  <CNNscore>  (131) 
0.6449860930

>  <CNNaffinity>  (131) 
4.3138427734

>  <CNN_VS>  (131) 
2.7823686600

>  <CNNaffinity_variance>  (131) 
0.0960480720

$$$$
132
     RDKit          3D

 43 45  0  0  0  0  0  0  0  0999 V2000
   20.8666   71.8189   -5.1002 P   0  0  2  0  0  0  0  0  0  0  0  0
   19.8757   73.0663   -5.3819 O   0  0  0  0  0  0  0  0  0  0  0  0
   22.2419   72.1950   -4.6328 O   0  0  0  0  0  0  0  0  0  0  0  0
   20.8007   70.9544   -6.4662 O   0  0  0  0  0  0  0  0  0  0  0  0
   20.1200   71.5029   -7.5814 C   0  0  0  0  0  0  0  0  0  0  0  0
   18.5970   69.6856   -7.1917 O   0  0  0  0  0  0  0  0  0  0  0  0
   17.8490   69.9387  -10.0843 O   0  0  0  0  0  0  0  0  0  0  0  0
   15.7941   71.2149   -8.8252 O   0  0  0  0  0  0  0  0  0  0  0  0
   18.1904   70.9596   -9.1481 C   0  0  1  0  0  0  0  0  0  0  0  0
   17.0498   71.1858   -8.1777 C   0  0  2  0  0  0  0  0  0  0  0  0
   19.2810   70.4134   -8.2351 C   0  0  1  0  0  0  0  0  0  0  0  0
   17.1958   70.0010   -7.2381 C   0  0  2  0  0  0  0  0  0  0  0  0
   17.1542   70.2644  -10.6786 H   0  0  0  0  0  0  0  0  0  0  0  0
   15.7502   71.9863   -9.4115 H   0  0  0  0  0  0  0  0  0  0  0  0
   16.4573   68.0503   -5.3335 O   0  0  0  0  0  0  0  0  0  0  0  0
   15.4613   71.2512   -2.1707 O   0  0  0  0  0  0  0  0  0  0  0  0
   16.7402   70.2966   -5.9090 N   0  0  0  0  0  0  0  0  0  0  0  0
   15.9622   69.6457   -3.7602 N   0  0  0  0  0  0  0  0  0  0  0  0
   16.3931   69.2436   -5.0309 C   0  0  0  0  0  0  0  0  0  0  0  0
   16.6416   71.6184   -5.4882 C   0  0  0  0  0  0  0  0  0  0  0  0
   16.2276   71.9852   -4.2735 C   0  0  0  0  0  0  0  0  0  0  0  0
   15.8459   70.9461   -3.2954 C   0  0  0  0  0  0  0  0  0  0  0  0
   15.7147   68.9292   -3.1316 H   0  0  0  0  0  0  0  0  0  0  0  0
   20.0254   70.9148   -4.0571 O   0  0  0  0  0  0  0  0  0  0  0  0
   19.6401   71.1636   -2.5071 P   0  0  2  0  0  0  0  0  0  0  0  0
   18.7801   69.8482   -2.1228 O   0  0  0  0  0  0  0  0  0  0  0  0
   18.9331   72.4627   -2.2496 O   0  0  0  0  0  0  0  0  0  0  0  0
   21.0311   70.9892   -1.7073 O   0  0  0  0  0  0  0  0  0  0  0  0
   21.2686   72.8604   -0.2725 O   0  0  0  0  0  0  0  0  0  0  0  0
   24.8716   70.9894    0.4815 O   0  0  0  0  0  0  0  0  0  0  0  0
   22.8062   70.9454    2.4766 O   0  0  0  0  0  0  0  0  0  0  0  0
   23.7929   71.0163   -2.2046 O   0  0  0  0  0  0  0  0  0  0  0  0
   23.4745   71.0541    0.1825 C   0  0  1  0  0  0  0  0  0  0  0  0
   22.7726   71.7872    1.3274 C   0  0  1  0  0  0  0  0  0  0  0  0
   23.2801   71.8028   -1.1346 C   0  0  2  0  0  0  0  0  0  0  0  0
   21.3230   72.1308    0.9590 C   0  0  1  0  0  0  0  0  0  0  0  0
   21.8082   72.1386   -1.3815 C   0  0  1  0  0  0  0  0  0  0  0  0
   25.0020   70.5147    1.3165 H   0  0  0  0  0  0  0  0  0  0  0  0
   23.7271   70.7355    2.6983 H   0  0  0  0  0  0  0  0  0  0  0  0
   24.7253   70.8107   -2.0367 H   0  0  0  0  0  0  0  0  0  0  0  0
   20.3954   72.1974    3.1598 O   0  0  0  0  0  0  0  0  0  0  0  0
   20.6532   72.9990    2.0218 C   0  0  0  0  0  0  0  0  0  0  0  0
   19.9694   72.7369    3.8448 H   0  0  0  0  0  0  0  0  0  0  0  0
 25 28  1  0
 25 24  1  0
 25 26  1  1
 25 27  2  0
  1  4  1  0
  1 24  1  0
  1  2  1  6
  1  3  2  0
  6 11  1  0
  6 12  1  0
 29 36  1  0
 29 37  1  0
  9  7  1  6
  7 13  1  0
 10  8  1  6
  8 14  1  0
 37 28  1  1
  4  5  1  0
 33 30  1  1
 30 38  1  0
 34 31  1  1
 31 39  1  0
 35 32  1  6
 32 40  1  0
 41 42  1  0
 41 43  1  0
 15 19  2  0
 16 22  2  0
 12 17  1  1
 17 19  1  0
 17 20  1  0
 18 19  1  0
 18 22  1  0
 18 23  1  0
  9 10  1  0
  9 11  1  0
 10 12  1  0
 11  5  1  1
 33 34  1  0
 33 35  1  0
 34 36  1  0
 35 37  1  0
 36 42  1  1
 20 21  2  0
 21 22  1  0
M  CHG  2   2  -1  26  -1
M  END
>  <COMPND>  (132) 
    8629 

>  <AUTHOR>  (132) 
    GENERATED BY OPEN BABEL 3.1.1

>  <MASTER>  (132) 
        0    0    0    0    0    0    0    0   58    0   58    0

>  <minimizedAffinity>  (132) 
-7.64596

>  <CNNscore>  (132) 
0.6382471919

>  <CNNaffinity>  (132) 
4.4440789223

>  <CNN_VS>  (132) 
2.8364207745

>  <CNNaffinity_variance>  (132) 
0.4811820984

$$$$
133
     RDKit          3D

 43 45  0  0  0  0  0  0  0  0999 V2000
   23.5132   72.4751   -3.5464 P   0  0  2  0  0  0  0  0  0  0  0  0
   24.0517   70.9989   -3.1614 O   0  0  0  0  0  0  0  0  0  0  0  0
   24.5386   73.3843   -4.1576 O   0  0  0  0  0  0  0  0  0  0  0  0
   22.8276   73.0068   -2.1807 O   0  0  0  0  0  0  0  0  0  0  0  0
   21.8832   74.0600   -2.2639 C   0  0  0  0  0  0  0  0  0  0  0  0
   21.0691   72.5943   -0.5426 O   0  0  0  0  0  0  0  0  0  0  0  0
   19.1431   74.7850    0.1516 O   0  0  0  0  0  0  0  0  0  0  0  0
   21.0730   75.0641    2.0580 O   0  0  0  0  0  0  0  0  0  0  0  0
   20.4943   74.8800   -0.2963 C   0  0  1  0  0  0  0  0  0  0  0  0
   21.4458   74.4977    0.8182 C   0  0  2  0  0  0  0  0  0  0  0  0
   20.7312   73.7692   -1.3118 C   0  0  1  0  0  0  0  0  0  0  0  0
   21.3436   72.9819    0.8136 C   0  0  2  0  0  0  0  0  0  0  0  0
   18.9679   75.4847    0.8010 H   0  0  0  0  0  0  0  0  0  0  0  0
   21.1548   76.0294    2.0103 H   0  0  0  0  0  0  0  0  0  0  0  0
   21.6602   70.1956    1.1516 O   0  0  0  0  0  0  0  0  0  0  0  0
   26.0528   70.6690    2.4639 O   0  0  0  0  0  0  0  0  0  0  0  0
   22.5594   72.3498    1.2423 N   0  0  0  0  0  0  0  0  0  0  0  0
   23.8472   70.4336    1.8046 N   0  0  0  0  0  0  0  0  0  0  0  0
   22.6131   70.9433    1.3813 C   0  0  0  0  0  0  0  0  0  0  0  0
   23.6818   73.1225    1.5195 C   0  0  0  0  0  0  0  0  0  0  0  0
   24.8509   72.6212    1.9235 C   0  0  0  0  0  0  0  0  0  0  0  0
   24.9911   71.1606    2.0938 C   0  0  0  0  0  0  0  0  0  0  0  0
   23.9080   69.4562    1.9089 H   0  0  0  0  0  0  0  0  0  0  0  0
   22.2413   72.1625   -4.4937 O   0  0  0  0  0  0  0  0  0  0  0  0
   21.7292   72.8734   -5.8521 P   0  0  2  0  0  0  0  0  0  0  0  0
   22.6839   72.2313   -6.9896 O   0  0  0  0  0  0  0  0  0  0  0  0
   21.7450   74.3739   -5.8051 O   0  0  0  0  0  0  0  0  0  0  0  0
   20.2758   72.2281   -6.1280 O   0  0  0  0  0  0  0  0  0  0  0  0
   19.4000   70.0878   -5.6096 O   0  0  0  0  0  0  0  0  0  0  0  0
   17.6332   70.6476   -9.2996 O   0  0  0  0  0  0  0  0  0  0  0  0
   16.0314   70.8092   -6.9213 O   0  0  0  0  0  0  0  0  0  0  0  0
   20.3489   71.5426   -8.8482 O   0  0  0  0  0  0  0  0  0  0  0  0
   18.1405   71.0478   -8.0237 C   0  0  1  0  0  0  0  0  0  0  0  0
   17.3614   70.2983   -6.9412 C   0  0  1  0  0  0  0  0  0  0  0  0
   19.6278   70.7074   -7.9488 C   0  0  2  0  0  0  0  0  0  0  0  0
   18.0201   70.4694   -5.5657 C   0  0  1  0  0  0  0  0  0  0  0  0
   20.1722   70.8641   -6.5278 C   0  0  1  0  0  0  0  0  0  0  0  0
   16.6894   70.8614   -9.3539 H   0  0  0  0  0  0  0  0  0  0  0  0
   15.6270   70.6955   -7.7958 H   0  0  0  0  0  0  0  0  0  0  0  0
   19.9950   71.4341   -9.7443 H   0  0  0  0  0  0  0  0  0  0  0  0
   16.0454   70.1000   -4.2722 O   0  0  0  0  0  0  0  0  0  0  0  0
   17.3516   69.6037   -4.4999 C   0  0  0  0  0  0  0  0  0  0  0  0
   15.6077   69.5585   -3.5962 H   0  0  0  0  0  0  0  0  0  0  0  0
 25 28  1  0
 25 24  1  0
 25 26  1  6
 25 27  2  0
  1  4  1  0
  1 24  1  0
  1  2  1  1
  1  3  2  0
  6 11  1  0
  6 12  1  0
 29 36  1  0
 29 37  1  0
  9  7  1  1
  7 13  1  0
 10  8  1  1
  8 14  1  0
 37 28  1  1
  4  5  1  0
 33 30  1  6
 30 38  1  0
 34 31  1  1
 31 39  1  0
 35 32  1  6
 32 40  1  0
 41 42  1  0
 41 43  1  0
 15 19  2  0
 16 22  2  0
 12 17  1  6
 17 19  1  0
 17 20  1  0
 18 19  1  0
 18 22  1  0
 18 23  1  0
  9 10  1  0
  9 11  1  0
 10 12  1  0
 11  5  1  6
 33 34  1  0
 33 35  1  0
 34 36  1  0
 35 37  1  0
 36 42  1  1
 20 21  2  0
 21 22  1  0
M  CHG  2   2  -1  26  -1
M  END
>  <COMPND>  (133) 
    8629 

>  <AUTHOR>  (133) 
    GENERATED BY OPEN BABEL 3.1.1

>  <MASTER>  (133) 
        0    0    0    0    0    0    0    0   58    0   58    0

>  <minimizedAffinity>  (133) 
-7.74084

>  <CNNscore>  (133) 
0.6354058981

>  <CNNaffinity>  (133) 
4.4476308823

>  <CNN_VS>  (133) 
2.8260509968

>  <CNNaffinity_variance>  (133) 
0.0824074373

$$$$
134
     RDKit          3D

 43 45  0  0  0  0  0  0  0  0999 V2000
   22.3472   73.5930   -3.6344 P   0  0  2  0  0  0  0  0  0  0  0  0
   23.2762   73.3627   -4.9387 O   0  0  0  0  0  0  0  0  0  0  0  0
   22.2038   75.0229   -3.2028 O   0  0  0  0  0  0  0  0  0  0  0  0
   22.9690   72.5852   -2.5318 O   0  0  0  0  0  0  0  0  0  0  0  0
   22.7226   72.8472   -1.1612 C   0  0  0  0  0  0  0  0  0  0  0  0
   23.9782   71.4147    0.3035 O   0  0  0  0  0  0  0  0  0  0  0  0
   21.3676   70.0791    0.9293 O   0  0  0  0  0  0  0  0  0  0  0  0
   21.7372   71.7028    3.0888 O   0  0  0  0  0  0  0  0  0  0  0  0
   21.6376   71.4561    0.6720 C   0  0  1  0  0  0  0  0  0  0  0  0
   22.3262   72.0884    1.8636 C   0  0  2  0  0  0  0  0  0  0  0  0
   22.7204   71.5302   -0.3973 C   0  0  1  0  0  0  0  0  0  0  0  0
   23.7491   71.5779    1.7127 C   0  0  2  0  0  0  0  0  0  0  0  0
   20.6786   70.0063    1.6090 H   0  0  0  0  0  0  0  0  0  0  0  0
   20.8334   72.0515    3.1371 H   0  0  0  0  0  0  0  0  0  0  0  0
   26.3640   70.8579    2.5012 O   0  0  0  0  0  0  0  0  0  0  0  0
   27.3840   75.1836    3.7216 O   0  0  0  0  0  0  0  0  0  0  0  0
   24.7191   72.4959    2.2396 N   0  0  0  0  0  0  0  0  0  0  0  0
   26.8698   73.0124    3.1081 N   0  0  0  0  0  0  0  0  0  0  0  0
   26.0040   72.0322    2.6064 C   0  0  0  0  0  0  0  0  0  0  0  0
   24.3927   73.8395    2.3877 C   0  0  0  0  0  0  0  0  0  0  0  0
   25.2294   74.7613    2.8689 C   0  0  0  0  0  0  0  0  0  0  0  0
   26.5915   74.3597    3.2755 C   0  0  0  0  0  0  0  0  0  0  0  0
   27.7703   72.7125    3.3705 H   0  0  0  0  0  0  0  0  0  0  0  0
   20.9599   72.8717   -4.0444 O   0  0  0  0  0  0  0  0  0  0  0  0
   20.3879   71.3988   -3.7031 P   0  0  2  0  0  0  0  0  0  0  0  0
   19.4665   71.6519   -2.3975 O   0  0  0  0  0  0  0  0  0  0  0  0
   21.4499   70.3538   -3.5184 O   0  0  0  0  0  0  0  0  0  0  0  0
   19.3382   71.0836   -4.8879 O   0  0  0  0  0  0  0  0  0  0  0  0
   19.2754   71.5841   -7.2035 O   0  0  0  0  0  0  0  0  0  0  0  0
   15.3356   72.3726   -6.2510 O   0  0  0  0  0  0  0  0  0  0  0  0
   15.9848   70.0206   -7.7659 O   0  0  0  0  0  0  0  0  0  0  0  0
   17.4408   73.0926   -4.3992 O   0  0  0  0  0  0  0  0  0  0  0  0
   16.5864   71.6854   -6.1573 C   0  0  1  0  0  0  0  0  0  0  0  0
   16.9055   71.0814   -7.5263 C   0  0  1  0  0  0  0  0  0  0  0  0
   17.6710   72.6773   -5.7412 C   0  0  2  0  0  0  0  0  0  0  0  0
   18.3476   70.5594   -7.5789 C   0  0  1  0  0  0  0  0  0  0  0  0
   19.0702   72.0741   -5.8770 C   0  0  1  0  0  0  0  0  0  0  0  0
   14.6425   71.7482   -6.5144 H   0  0  0  0  0  0  0  0  0  0  0  0
   15.0780   70.3634   -7.7294 H   0  0  0  0  0  0  0  0  0  0  0  0
   16.5520   73.4729   -4.3265 H   0  0  0  0  0  0  0  0  0  0  0  0
   17.7329   70.5131   -9.8874 O   0  0  0  0  0  0  0  0  0  0  0  0
   18.7375   70.0966   -8.9810 C   0  0  0  0  0  0  0  0  0  0  0  0
   17.9678   70.2257  -10.7840 H   0  0  0  0  0  0  0  0  0  0  0  0
 25 28  1  0
 25 24  1  0
 25 26  1  1
 25 27  2  0
  1  4  1  0
  1 24  1  0
  1  2  1  6
  1  3  2  0
  6 11  1  0
  6 12  1  0
 29 36  1  0
 29 37  1  0
  9  7  1  1
  7 13  1  0
 10  8  1  1
  8 14  1  0
 37 28  1  1
  4  5  1  0
 33 30  1  6
 30 38  1  0
 34 31  1  1
 31 39  1  0
 35 32  1  1
 32 40  1  0
 41 42  1  0
 41 43  1  0
 15 19  2  0
 16 22  2  0
 12 17  1  6
 17 19  1  0
 17 20  1  0
 18 19  1  0
 18 22  1  0
 18 23  1  0
  9 10  1  0
  9 11  1  0
 10 12  1  0
 11  5  1  1
 33 34  1  0
 33 35  1  0
 34 36  1  0
 35 37  1  0
 36 42  1  6
 20 21  2  0
 21 22  1  0
M  CHG  2   2  -1  26  -1
M  END
>  <COMPND>  (134) 
    8629 

>  <AUTHOR>  (134) 
    GENERATED BY OPEN BABEL 3.1.1

>  <MASTER>  (134) 
        0    0    0    0    0    0    0    0   58    0   58    0

>  <minimizedAffinity>  (134) 
-6.91801

>  <CNNscore>  (134) 
0.5349712372

>  <CNNaffinity>  (134) 
4.2437829971

>  <CNN_VS>  (134) 
2.2703018188

>  <CNNaffinity_variance>  (134) 
0.1559978724

$$$$
135
     RDKit          3D

 43 45  0  0  0  0  0  0  0  0999 V2000
   22.8078   71.4865   -2.6463 P   0  0  2  0  0  0  0  0  0  0  0  0
   22.8303   73.0820   -2.3792 O   0  0  0  0  0  0  0  0  0  0  0  0
   24.1503   70.8682   -2.9051 O   0  0  0  0  0  0  0  0  0  0  0  0
   21.7121   71.3050   -3.8229 O   0  0  0  0  0  0  0  0  0  0  0  0
   21.6223   72.3047   -4.8231 C   0  0  0  0  0  0  0  0  0  0  0  0
   20.5566   70.4733   -5.9563 O   0  0  0  0  0  0  0  0  0  0  0  0
   20.9167   72.0649   -8.4718 O   0  0  0  0  0  0  0  0  0  0  0  0
   18.2951   72.5023   -7.8618 O   0  0  0  0  0  0  0  0  0  0  0  0
   20.6204   72.5183   -7.1520 C   0  0  1  0  0  0  0  0  0  0  0  0
   19.1803   72.2082   -6.8004 C   0  0  2  0  0  0  0  0  0  0  0  0
   21.3841   71.6376   -6.1708 C   0  0  1  0  0  0  0  0  0  0  0  0
   19.2451   70.7229   -6.4877 C   0  0  2  0  0  0  0  0  0  0  0  0
   20.4404   72.6125   -9.1162 H   0  0  0  0  0  0  0  0  0  0  0  0
   18.2890   73.4589   -8.0223 H   0  0  0  0  0  0  0  0  0  0  0  0
   16.6137   69.9123   -7.1173 O   0  0  0  0  0  0  0  0  0  0  0  0
   15.5712   69.2166   -2.6821 O   0  0  0  0  0  0  0  0  0  0  0  0
   18.2651   70.3242   -5.5172 N   0  0  0  0  0  0  0  0  0  0  0  0
   16.0968   69.5664   -4.9084 N   0  0  0  0  0  0  0  0  0  0  0  0
   16.9718   69.9358   -5.9379 C   0  0  0  0  0  0  0  0  0  0  0  0
   18.5903   70.3207   -4.1651 C   0  0  0  0  0  0  0  0  0  0  0  0
   17.7440   69.9669   -3.1957 C   0  0  0  0  0  0  0  0  0  0  0  0
   16.3727   69.5476   -3.5504 C   0  0  0  0  0  0  0  0  0  0  0  0
   15.1900   69.2924   -5.1778 H   0  0  0  0  0  0  0  0  0  0  0  0
   22.0417   70.9108   -1.3445 O   0  0  0  0  0  0  0  0  0  0  0  0
   22.3666   71.0619    0.2317 P   0  0  2  0  0  0  0  0  0  0  0  0
   23.9607   71.3376    0.2572 O   0  0  0  0  0  0  0  0  0  0  0  0
   21.9269   69.8934    1.0655 O   0  0  0  0  0  0  0  0  0  0  0  0
   21.7024   72.4715    0.6524 O   0  0  0  0  0  0  0  0  0  0  0  0
   21.4751   72.4166    3.0108 O   0  0  0  0  0  0  0  0  0  0  0  0
   19.8083   76.1218    2.2732 O   0  0  0  0  0  0  0  0  0  0  0  0
   22.4039   75.9516    3.4904 O   0  0  0  0  0  0  0  0  0  0  0  0
   19.3113   73.9267    0.4528 O   0  0  0  0  0  0  0  0  0  0  0  0
   20.7159   75.0365    2.0643 C   0  0  1  0  0  0  0  0  0  0  0  0
   21.5280   74.8371    3.3455 C   0  0  1  0  0  0  0  0  0  0  0  0
   19.9190   73.7765    1.7313 C   0  0  2  0  0  0  0  0  0  0  0  0
   22.3304   73.5299    3.2950 C   0  0  1  0  0  0  0  0  0  0  0  0
   20.8016   72.5272    1.7554 C   0  0  1  0  0  0  0  0  0  0  0  0
   20.3079   76.9251    2.4846 H   0  0  0  0  0  0  0  0  0  0  0  0
   21.8848   76.7706    3.5205 H   0  0  0  0  0  0  0  0  0  0  0  0
   18.7551   74.7207    0.4506 H   0  0  0  0  0  0  0  0  0  0  0  0
   22.0410   72.8437    5.5653 O   0  0  0  0  0  0  0  0  0  0  0  0
   23.0234   73.2325    4.6229 C   0  0  0  0  0  0  0  0  0  0  0  0
   22.4676   72.6510    6.4153 H   0  0  0  0  0  0  0  0  0  0  0  0
 25 28  1  0
 25 24  1  0
 25 26  1  6
 25 27  2  0
  1  4  1  0
  1 24  1  0
  1  2  1  1
  1  3  2  0
  6 11  1  0
  6 12  1  0
 29 36  1  0
 29 37  1  0
  9  7  1  6
  7 13  1  0
 10  8  1  6
  8 14  1  0
 37 28  1  6
  4  5  1  0
 33 30  1  1
 30 38  1  0
 34 31  1  6
 31 39  1  0
 35 32  1  6
 32 40  1  0
 41 42  1  0
 41 43  1  0
 15 19  2  0
 16 22  2  0
 12 17  1  1
 17 19  1  0
 17 20  1  0
 18 19  1  0
 18 22  1  0
 18 23  1  0
  9 10  1  0
  9 11  1  0
 10 12  1  0
 11  5  1  1
 33 34  1  0
 33 35  1  0
 34 36  1  0
 35 37  1  0
 36 42  1  1
 20 21  2  0
 21 22  1  0
M  CHG  2   2  -1  26  -1
M  END
>  <COMPND>  (135) 
    8629 

>  <AUTHOR>  (135) 
    GENERATED BY OPEN BABEL 3.1.1

>  <MASTER>  (135) 
        0    0    0    0    0    0    0    0   58    0   58    0

>  <minimizedAffinity>  (135) 
-7.43702

>  <CNNscore>  (135) 
0.5187155008

>  <CNNaffinity>  (135) 
4.1126928329

>  <CNN_VS>  (135) 
2.1333174706

>  <CNNaffinity_variance>  (135) 
0.2316724509

$$$$
136
     RDKit          3D

 43 45  0  0  0  0  0  0  0  0999 V2000
   22.5191   71.9822   -3.4504 P   0  0  2  0  0  0  0  0  0  0  0  0
   21.9775   70.4632   -3.3207 O   0  0  0  0  0  0  0  0  0  0  0  0
   23.9143   72.1140   -3.9867 O   0  0  0  0  0  0  0  0  0  0  0  0
   22.2690   72.6106   -1.9806 O   0  0  0  0  0  0  0  0  0  0  0  0
   23.3175   72.5446   -1.0297 C   0  0  0  0  0  0  0  0  0  0  0  0
   24.3204   71.1375    0.6400 O   0  0  0  0  0  0  0  0  0  0  0  0
   21.5761   70.0079    1.0682 O   0  0  0  0  0  0  0  0  0  0  0  0
   21.8363   71.7445    3.1546 O   0  0  0  0  0  0  0  0  0  0  0  0
   21.9629   71.3460    0.7595 C   0  0  1  0  0  0  0  0  0  0  0  0
   22.5698   72.0120    1.9768 C   0  0  2  0  0  0  0  0  0  0  0  0
   23.1499   71.2832   -0.1936 C   0  0  1  0  0  0  0  0  0  0  0  0
   23.9629   71.4066    2.0055 C   0  0  2  0  0  0  0  0  0  0  0  0
   20.8192   70.0223    1.6755 H   0  0  0  0  0  0  0  0  0  0  0  0
   20.9578   72.1502    3.0878 H   0  0  0  0  0  0  0  0  0  0  0  0
   26.6889   70.7662    2.3754 O   0  0  0  0  0  0  0  0  0  0  0  0
   27.6004   74.8977    4.2032 O   0  0  0  0  0  0  0  0  0  0  0  0
   24.9350   72.2963    2.5754 N   0  0  0  0  0  0  0  0  0  0  0  0
   27.1406   72.8240    3.2850 N   0  0  0  0  0  0  0  0  0  0  0  0
   26.2782   71.8769    2.7181 C   0  0  0  0  0  0  0  0  0  0  0  0
   24.5532   73.5690    2.9856 C   0  0  0  0  0  0  0  0  0  0  0  0
   25.3875   74.4598    3.5256 C   0  0  0  0  0  0  0  0  0  0  0  0
   26.8085   74.1008    3.7096 C   0  0  0  0  0  0  0  0  0  0  0  0
   28.0812   72.5538    3.3945 H   0  0  0  0  0  0  0  0  0  0  0  0
   21.3824   72.6978   -4.3497 O   0  0  0  0  0  0  0  0  0  0  0  0
   21.3373   73.0394   -5.9290 P   0  0  2  0  0  0  0  0  0  0  0  0
   22.5317   72.1343   -6.5387 O   0  0  0  0  0  0  0  0  0  0  0  0
   21.4460   74.5029   -6.2454 O   0  0  0  0  0  0  0  0  0  0  0  0
   19.9835   72.3391   -6.4600 O   0  0  0  0  0  0  0  0  0  0  0  0
   19.2531   70.1922   -5.7716 O   0  0  0  0  0  0  0  0  0  0  0  0
   17.4746   70.3315   -9.4956 O   0  0  0  0  0  0  0  0  0  0  0  0
   15.8510   70.5730   -7.1389 O   0  0  0  0  0  0  0  0  0  0  0  0
   20.1199   71.4442   -9.1162 O   0  0  0  0  0  0  0  0  0  0  0  0
   17.9456   70.8667   -8.2558 C   0  0  1  0  0  0  0  0  0  0  0  0
   17.2129   70.1547   -7.1169 C   0  0  1  0  0  0  0  0  0  0  0  0
   19.4522   70.6363   -8.1529 C   0  0  2  0  0  0  0  0  0  0  0  0
   17.8500   70.4803   -5.7593 C   0  0  1  0  0  0  0  0  0  0  0  0
   19.9759   70.9435   -6.7488 C   0  0  1  0  0  0  0  0  0  0  0  0
   16.5187   70.4749   -9.5674 H   0  0  0  0  0  0  0  0  0  0  0  0
   15.4606   70.3620   -8.0017 H   0  0  0  0  0  0  0  0  0  0  0  0
   19.7797   71.2401  -10.0008 H   0  0  0  0  0  0  0  0  0  0  0  0
   16.4996   68.5916   -5.1954 O   0  0  0  0  0  0  0  0  0  0  0  0
   17.2359   69.6592   -4.6276 C   0  0  0  0  0  0  0  0  0  0  0  0
   16.1032   68.0601   -4.4868 H   0  0  0  0  0  0  0  0  0  0  0  0
 25 28  1  0
 25 24  1  0
 25 26  1  6
 25 27  2  0
  1  4  1  0
  1 24  1  0
  1  2  1  1
  1  3  2  0
  6 11  1  0
  6 12  1  0
 29 36  1  0
 29 37  1  0
  9  7  1  1
  7 13  1  0
 10  8  1  1
  8 14  1  0
 37 28  1  1
  4  5  1  0
 33 30  1  6
 30 38  1  0
 34 31  1  1
 31 39  1  0
 35 32  1  6
 32 40  1  0
 41 42  1  0
 41 43  1  0
 15 19  2  0
 16 22  2  0
 12 17  1  6
 17 19  1  0
 17 20  1  0
 18 19  1  0
 18 22  1  0
 18 23  1  0
  9 10  1  0
  9 11  1  0
 10 12  1  0
 11  5  1  1
 33 34  1  0
 33 35  1  0
 34 36  1  0
 35 37  1  0
 36 42  1  1
 20 21  2  0
 21 22  1  0
M  CHG  2   2  -1  26  -1
M  END
>  <COMPND>  (136) 
    8629 

>  <AUTHOR>  (136) 
    GENERATED BY OPEN BABEL 3.1.1

>  <MASTER>  (136) 
        0    0    0    0    0    0    0    0   58    0   58    0

>  <minimizedAffinity>  (136) 
-8.13707

>  <CNNscore>  (136) 
0.5123952031

>  <CNNaffinity>  (136) 
4.2320051193

>  <CNN_VS>  (136) 
2.1684591770

>  <CNNaffinity_variance>  (136) 
0.1524267197

$$$$
137
     RDKit          3D

 43 45  0  0  0  0  0  0  0  0999 V2000
   21.8733   72.3606   -5.8387 P   0  0  2  0  0  0  0  0  0  0  0  0
   21.0764   73.6609   -5.2987 O   0  0  0  0  0  0  0  0  0  0  0  0
   23.0466   72.6592   -6.7250 O   0  0  0  0  0  0  0  0  0  0  0  0
   20.7152   71.4392   -6.4928 O   0  0  0  0  0  0  0  0  0  0  0  0
   20.2325   71.7741   -7.7822 C   0  0  0  0  0  0  0  0  0  0  0  0
   18.8652   69.8767   -7.2306 O   0  0  0  0  0  0  0  0  0  0  0  0
   17.9786   69.9190  -10.0947 O   0  0  0  0  0  0  0  0  0  0  0  0
   15.8907   71.1118   -8.8085 O   0  0  0  0  0  0  0  0  0  0  0  0
   18.2833   71.0108   -9.2284 C   0  0  1  0  0  0  0  0  0  0  0  0
   17.1714   71.2073   -8.2191 C   0  0  2  0  0  0  0  0  0  0  0  0
   19.4490   70.5939   -8.3403 C   0  0  1  0  0  0  0  0  0  0  0  0
   17.4439   70.0885   -7.2282 C   0  0  2  0  0  0  0  0  0  0  0  0
   17.2372   70.1618  -10.6720 H   0  0  0  0  0  0  0  0  0  0  0  0
   15.7653   71.8453   -9.4306 H   0  0  0  0  0  0  0  0  0  0  0  0
   16.5315   68.2115   -5.3249 O   0  0  0  0  0  0  0  0  0  0  0  0
   15.8595   71.4836   -2.1495 O   0  0  0  0  0  0  0  0  0  0  0  0
   17.0246   70.4223   -5.8962 N   0  0  0  0  0  0  0  0  0  0  0  0
   16.1978   69.8423   -3.7453 N   0  0  0  0  0  0  0  0  0  0  0  0
   16.5826   69.4046   -5.0190 C   0  0  0  0  0  0  0  0  0  0  0  0
   17.0543   71.7462   -5.4717 C   0  0  0  0  0  0  0  0  0  0  0  0
   16.6827   72.1473   -4.2542 C   0  0  0  0  0  0  0  0  0  0  0  0
   16.2082   71.1465   -3.2768 C   0  0  0  0  0  0  0  0  0  0  0  0
   15.8860   69.1508   -3.1173 H   0  0  0  0  0  0  0  0  0  0  0  0
   22.2420   71.5693   -4.4782 O   0  0  0  0  0  0  0  0  0  0  0  0
   23.3083   71.9051   -3.3106 P   0  0  2  0  0  0  0  0  0  0  0  0
   23.9927   73.2806   -3.8176 O   0  0  0  0  0  0  0  0  0  0  0  0
   24.2808   70.7968   -3.0282 O   0  0  0  0  0  0  0  0  0  0  0  0
   22.4053   72.3411   -2.0459 O   0  0  0  0  0  0  0  0  0  0  0  0
   21.8244   71.2290   -0.0353 O   0  0  0  0  0  0  0  0  0  0  0  0
   18.1966   73.0142   -0.8738 O   0  0  0  0  0  0  0  0  0  0  0  0
   19.8049   74.0164    1.2841 O   0  0  0  0  0  0  0  0  0  0  0  0
   19.8066   71.9358   -3.0243 O   0  0  0  0  0  0  0  0  0  0  0  0
   19.6230   72.9182   -0.8329 C   0  0  1  0  0  0  0  0  0  0  0  0
   20.0522   72.7757    0.6287 C   0  0  1  0  0  0  0  0  0  0  0  0
   20.0649   71.7017   -1.6442 C   0  0  2  0  0  0  0  0  0  0  0  0
   21.5366   72.4011    0.7361 C   0  0  1  0  0  0  0  0  0  0  0  0
   21.5461   71.3865   -1.4280 C   0  0  1  0  0  0  0  0  0  0  0  0
   17.9094   73.7849   -0.3610 H   0  0  0  0  0  0  0  0  0  0  0  0
   18.8643   74.2416    1.2085 H   0  0  0  0  0  0  0  0  0  0  0  0
   18.8657   72.1339   -3.1480 H   0  0  0  0  0  0  0  0  0  0  0  0
   20.7800   72.0438    2.9741 O   0  0  0  0  0  0  0  0  0  0  0  0
   21.9477   72.0998    2.1756 C   0  0  0  0  0  0  0  0  0  0  0  0
   21.0263   71.8524    3.8930 H   0  0  0  0  0  0  0  0  0  0  0  0
 25 28  1  0
 25 24  1  0
 25 26  1  6
 25 27  2  0
  1  4  1  0
  1 24  1  0
  1  2  1  1
  1  3  2  0
  6 11  1  0
  6 12  1  0
 29 36  1  0
 29 37  1  0
  9  7  1  6
  7 13  1  0
 10  8  1  6
  8 14  1  0
 37 28  1  1
  4  5  1  0
 33 30  1  1
 30 38  1  0
 34 31  1  1
 31 39  1  0
 35 32  1  6
 32 40  1  0
 41 42  1  0
 41 43  1  0
 15 19  2  0
 16 22  2  0
 12 17  1  1
 17 19  1  0
 17 20  1  0
 18 19  1  0
 18 22  1  0
 18 23  1  0
  9 10  1  0
  9 11  1  0
 10 12  1  0
 11  5  1  1
 33 34  1  0
 33 35  1  0
 34 36  1  0
 35 37  1  0
 36 42  1  1
 20 21  2  0
 21 22  1  0
M  CHG  2   2  -1  26  -1
M  END
>  <COMPND>  (137) 
    8629 

>  <AUTHOR>  (137) 
    GENERATED BY OPEN BABEL 3.1.1

>  <MASTER>  (137) 
        0    0    0    0    0    0    0    0   58    0   58    0

>  <minimizedAffinity>  (137) 
-7.69504

>  <CNNscore>  (137) 
0.4948292673

>  <CNNaffinity>  (137) 
4.1798257828

>  <CNN_VS>  (137) 
2.0683002472

>  <CNNaffinity_variance>  (137) 
0.5272410512

$$$$
138
     RDKit          3D

 43 45  0  0  0  0  0  0  0  0999 V2000
   22.2517   72.7186   -3.2763 P   0  0  2  0  0  0  0  0  0  0  0  0
   23.0554   71.3508   -3.5935 O   0  0  0  0  0  0  0  0  0  0  0  0
   22.7024   73.9151   -4.0614 O   0  0  0  0  0  0  0  0  0  0  0  0
   22.3436   72.8588   -1.6670 O   0  0  0  0  0  0  0  0  0  0  0  0
   23.5631   72.5243   -1.0277 C   0  0  0  0  0  0  0  0  0  0  0  0
   24.5166   71.1134    0.6676 O   0  0  0  0  0  0  0  0  0  0  0  0
   21.7282   70.1192    1.1441 O   0  0  0  0  0  0  0  0  0  0  0  0
   22.0844   71.8913    3.1860 O   0  0  0  0  0  0  0  0  0  0  0  0
   22.1719   71.4307    0.8003 C   0  0  1  0  0  0  0  0  0  0  0  0
   22.8187   72.0974    1.9965 C   0  0  2  0  0  0  0  0  0  0  0  0
   23.3464   71.2920   -0.1602 C   0  0  1  0  0  0  0  0  0  0  0  0
   24.1835   71.4307    2.0290 C   0  0  2  0  0  0  0  0  0  0  0  0
   20.9780   70.1820    1.7567 H   0  0  0  0  0  0  0  0  0  0  0  0
   21.2244   72.3344    3.1162 H   0  0  0  0  0  0  0  0  0  0  0  0
   26.8655   70.6552    2.4571 O   0  0  0  0  0  0  0  0  0  0  0  0
   27.9940   74.8067    4.1104 O   0  0  0  0  0  0  0  0  0  0  0  0
   25.1996   72.2889    2.5697 N   0  0  0  0  0  0  0  0  0  0  0  0
   27.4253   72.7230    3.2798 N   0  0  0  0  0  0  0  0  0  0  0  0
   26.5156   71.8015    2.7458 C   0  0  0  0  0  0  0  0  0  0  0  0
   24.8870   73.5982    2.9190 C   0  0  0  0  0  0  0  0  0  0  0  0
   25.7658   74.4640    3.4282 C   0  0  0  0  0  0  0  0  0  0  0  0
   27.1625   74.0342    3.6438 C   0  0  0  0  0  0  0  0  0  0  0  0
   28.3481   72.4056    3.4116 H   0  0  0  0  0  0  0  0  0  0  0  0
   20.7095   72.2981   -3.5168 O   0  0  0  0  0  0  0  0  0  0  0  0
   19.7272   71.3347   -2.6684 P   0  0  2  0  0  0  0  0  0  0  0  0
   18.7526   72.3771   -1.9062 O   0  0  0  0  0  0  0  0  0  0  0  0
   20.4401   70.3755   -1.7597 O   0  0  0  0  0  0  0  0  0  0  0  0
   18.7865   70.6327   -3.7764 O   0  0  0  0  0  0  0  0  0  0  0  0
   17.2109   72.0133   -4.8845 O   0  0  0  0  0  0  0  0  0  0  0  0
   15.6022   68.3192   -5.7883 O   0  0  0  0  0  0  0  0  0  0  0  0
   16.9200   69.8330   -7.8426 O   0  0  0  0  0  0  0  0  0  0  0  0
   16.7555   68.7918   -3.1756 O   0  0  0  0  0  0  0  0  0  0  0  0
   16.6526   69.2567   -5.5367 C   0  0  1  0  0  0  0  0  0  0  0  0
   16.5563   70.3752   -6.5761 C   0  0  1  0  0  0  0  0  0  0  0  0
   16.4923   69.8190   -4.1255 C   0  0  2  0  0  0  0  0  0  0  0  0
   17.4757   71.5492   -6.2135 C   0  0  1  0  0  0  0  0  0  0  0  0
   17.4173   71.0133   -3.8849 C   0  0  1  0  0  0  0  0  0  0  0  0
   15.6985   67.9581   -6.6827 H   0  0  0  0  0  0  0  0  0  0  0  0
   16.3322   69.0923   -8.0595 H   0  0  0  0  0  0  0  0  0  0  0  0
   16.1633   68.0417   -3.3383 H   0  0  0  0  0  0  0  0  0  0  0  0
   18.4524   73.5316   -7.1217 O   0  0  0  0  0  0  0  0  0  0  0  0
   17.2791   72.7399   -7.1493 C   0  0  0  0  0  0  0  0  0  0  0  0
   18.3419   74.2931   -7.7130 H   0  0  0  0  0  0  0  0  0  0  0  0
 25 28  1  0
 25 24  1  0
 25 26  1  1
 25 27  2  0
  1  4  1  0
  1 24  1  0
  1  2  1  6
  1  3  2  0
  6 11  1  0
  6 12  1  0
 29 36  1  0
 29 37  1  0
  9  7  1  1
  7 13  1  0
 10  8  1  1
  8 14  1  0
 37 28  1  6
  4  5  1  0
 33 30  1  6
 30 38  1  0
 34 31  1  6
 31 39  1  0
 35 32  1  1
 32 40  1  0
 41 42  1  0
 41 43  1  0
 15 19  2  0
 16 22  2  0
 12 17  1  6
 17 19  1  0
 17 20  1  0
 18 19  1  0
 18 22  1  0
 18 23  1  0
  9 10  1  0
  9 11  1  0
 10 12  1  0
 11  5  1  1
 33 34  1  0
 33 35  1  0
 34 36  1  0
 35 37  1  0
 36 42  1  6
 20 21  2  0
 21 22  1  0
M  CHG  2   2  -1  26  -1
M  END
>  <COMPND>  (138) 
    8629 

>  <AUTHOR>  (138) 
    GENERATED BY OPEN BABEL 3.1.1

>  <MASTER>  (138) 
        0    0    0    0    0    0    0    0   58    0   58    0

>  <minimizedAffinity>  (138) 
-6.92877

>  <CNNscore>  (138) 
0.4919725358

>  <CNNaffinity>  (138) 
4.1650977135

>  <CNN_VS>  (138) 
2.0491137505

>  <CNNaffinity_variance>  (138) 
0.1344087571

$$$$
139
     RDKit          3D

 43 45  0  0  0  0  0  0  0  0999 V2000
   22.5676   72.2612   -2.7071 P   0  0  2  0  0  0  0  0  0  0  0  0
   23.5882   71.1863   -2.0589 O   0  0  0  0  0  0  0  0  0  0  0  0
   21.3369   72.5367   -1.8942 O   0  0  0  0  0  0  0  0  0  0  0  0
   22.3108   71.7001   -4.2028 O   0  0  0  0  0  0  0  0  0  0  0  0
   21.5058   72.4650   -5.0829 C   0  0  0  0  0  0  0  0  0  0  0  0
   20.5304   70.4895   -6.0418 O   0  0  0  0  0  0  0  0  0  0  0  0
   20.7639   71.8842   -8.6858 O   0  0  0  0  0  0  0  0  0  0  0  0
   18.1304   72.2245   -8.0649 O   0  0  0  0  0  0  0  0  0  0  0  0
   20.4608   72.4284   -7.4024 C   0  0  1  0  0  0  0  0  0  0  0  0
   19.0458   72.0691   -6.9997 C   0  0  2  0  0  0  0  0  0  0  0  0
   21.2871   71.6761   -6.3667 C   0  0  1  0  0  0  0  0  0  0  0  0
   19.1994   70.6208   -6.5673 C   0  0  2  0  0  0  0  0  0  0  0  0
   20.2482   72.3491   -9.3640 H   0  0  0  0  0  0  0  0  0  0  0  0
   18.0677   73.1626   -8.3032 H   0  0  0  0  0  0  0  0  0  0  0  0
   16.5568   69.7623   -7.0746 O   0  0  0  0  0  0  0  0  0  0  0  0
   15.6737   69.2264   -2.5831 O   0  0  0  0  0  0  0  0  0  0  0  0
   18.2574   70.2503   -5.5492 N   0  0  0  0  0  0  0  0  0  0  0  0
   16.1193   69.4960   -4.8378 N   0  0  0  0  0  0  0  0  0  0  0  0
   16.9547   69.8341   -5.9101 C   0  0  0  0  0  0  0  0  0  0  0  0
   18.6286   70.3013   -4.2100 C   0  0  0  0  0  0  0  0  0  0  0  0
   17.8196   69.9767   -3.1993 C   0  0  0  0  0  0  0  0  0  0  0  0
   16.4416   69.5315   -3.4903 C   0  0  0  0  0  0  0  0  0  0  0  0
   15.2069   69.2035   -5.0651 H   0  0  0  0  0  0  0  0  0  0  0  0
   23.5096   73.5504   -2.9595 O   0  0  0  0  0  0  0  0  0  0  0  0
   23.9706   74.7391   -1.9659 P   0  0  2  0  0  0  0  0  0  0  0  0
   22.5975   75.5514   -1.6969 O   0  0  0  0  0  0  0  0  0  0  0  0
   25.0952   75.5817   -2.4946 O   0  0  0  0  0  0  0  0  0  0  0  0
   24.2886   74.0013   -0.5661 O   0  0  0  0  0  0  0  0  0  0  0  0
   22.4966   73.6272    0.9390 O   0  0  0  0  0  0  0  0  0  0  0  0
   25.6576   73.2381    3.5671 O   0  0  0  0  0  0  0  0  0  0  0  0
   24.1891   70.9056    2.7603 O   0  0  0  0  0  0  0  0  0  0  0  0
   25.7526   75.2428    1.4810 O   0  0  0  0  0  0  0  0  0  0  0  0
   24.9850   73.1160    2.3109 C   0  0  1  0  0  0  0  0  0  0  0  0
   23.7484   72.2378    2.5125 C   0  0  1  0  0  0  0  0  0  0  0  0
   24.5832   74.5064    1.8226 C   0  0  2  0  0  0  0  0  0  0  0  0
   22.8339   72.2777    1.2808 C   0  0  1  0  0  0  0  0  0  0  0  0
   23.6347   74.4321    0.6247 C   0  0  1  0  0  0  0  0  0  0  0  0
   25.9159   72.3588    3.8826 H   0  0  0  0  0  0  0  0  0  0  0  0
   24.7660   70.8944    3.5402 H   0  0  0  0  0  0  0  0  0  0  0  0
   26.3447   75.2829    2.2476 H   0  0  0  0  0  0  0  0  0  0  0  0
   21.6773   70.1954    1.0933 O   0  0  0  0  0  0  0  0  0  0  0  0
   21.5203   71.5363    1.5195 C   0  0  0  0  0  0  0  0  0  0  0  0
   20.8490   69.7113    1.2395 H   0  0  0  0  0  0  0  0  0  0  0  0
 25 28  1  0
 25 24  1  0
 25 26  1  1
 25 27  2  0
  1  4  1  0
  1 24  1  0
  1  2  1  1
  1  3  2  0
  6 11  1  0
  6 12  1  0
 29 36  1  0
 29 37  1  0
  9  7  1  6
  7 13  1  0
 10  8  1  6
  8 14  1  0
 37 28  1  6
  4  5  1  0
 33 30  1  1
 30 38  1  0
 34 31  1  6
 31 39  1  0
 35 32  1  6
 32 40  1  0
 41 42  1  0
 41 43  1  0
 15 19  2  0
 16 22  2  0
 12 17  1  1
 17 19  1  0
 17 20  1  0
 18 19  1  0
 18 22  1  0
 18 23  1  0
  9 10  1  0
  9 11  1  0
 10 12  1  0
 11  5  1  1
 33 34  1  0
 33 35  1  0
 34 36  1  0
 35 37  1  0
 36 42  1  1
 20 21  2  0
 21 22  1  0
M  CHG  2   2  -1  26  -1
M  END
>  <COMPND>  (139) 
    8629 

>  <AUTHOR>  (139) 
    GENERATED BY OPEN BABEL 3.1.1

>  <MASTER>  (139) 
        0    0    0    0    0    0    0    0   58    0   58    0

>  <minimizedAffinity>  (139) 
-6.81434

>  <CNNscore>  (139) 
0.4902731180

>  <CNNaffinity>  (139) 
4.0774002075

>  <CNN_VS>  (139) 
1.9990397692

>  <CNNaffinity_variance>  (139) 
0.2051863968

$$$$
140
     RDKit          3D

 43 45  0  0  0  0  0  0  0  0999 V2000
   22.2837   73.0898   -5.9448 P   0  0  2  0  0  0  0  0  0  0  0  0
   21.2758   74.0089   -5.0749 O   0  0  0  0  0  0  0  0  0  0  0  0
   23.0044   73.8082   -7.0475 O   0  0  0  0  0  0  0  0  0  0  0  0
   21.3687   71.8365   -6.4031 O   0  0  0  0  0  0  0  0  0  0  0  0
   20.4520   72.0222   -7.4675 C   0  0  0  0  0  0  0  0  0  0  0  0
   19.3389   70.3172   -6.1917 O   0  0  0  0  0  0  0  0  0  0  0  0
   17.5389   69.9787   -8.5658 O   0  0  0  0  0  0  0  0  0  0  0  0
   16.0144   71.4774   -6.8728 O   0  0  0  0  0  0  0  0  0  0  0  0
   18.1247   71.1685   -8.0401 C   0  0  1  0  0  0  0  0  0  0  0  0
   17.4194   71.5831   -6.7656 C   0  0  2  0  0  0  0  0  0  0  0  0
   19.5189   70.8209   -7.5334 C   0  0  1  0  0  0  0  0  0  0  0  0
   18.0031   70.6130   -5.7526 C   0  0  2  0  0  0  0  0  0  0  0  0
   16.6477   70.1757   -8.8958 H   0  0  0  0  0  0  0  0  0  0  0  0
   15.6912   72.1144   -7.5290 H   0  0  0  0  0  0  0  0  0  0  0  0
   17.8567   69.0958   -3.3746 O   0  0  0  0  0  0  0  0  0  0  0  0
   18.2282   72.8563   -0.7360 O   0  0  0  0  0  0  0  0  0  0  0  0
   18.0594   71.1698   -4.4304 N   0  0  0  0  0  0  0  0  0  0  0  0
   18.0420   70.9694   -2.0627 N   0  0  0  0  0  0  0  0  0  0  0  0
   17.9763   70.3206   -3.3024 C   0  0  0  0  0  0  0  0  0  0  0  0
   18.1961   72.5434   -4.2622 C   0  0  0  0  0  0  0  0  0  0  0  0
   18.2559   73.1467   -3.0732 C   0  0  0  0  0  0  0  0  0  0  0  0
   18.1762   72.3314   -1.8440 C   0  0  0  0  0  0  0  0  0  0  0  0
   17.9857   70.3980   -1.2627 H   0  0  0  0  0  0  0  0  0  0  0  0
   23.2483   72.4434   -4.8202 O   0  0  0  0  0  0  0  0  0  0  0  0
   22.9045   71.7052   -3.4238 P   0  0  2  0  0  0  0  0  0  0  0  0
   24.2519   70.8683   -3.1050 O   0  0  0  0  0  0  0  0  0  0  0  0
   21.6537   70.8755   -3.4580 O   0  0  0  0  0  0  0  0  0  0  0  0
   22.8915   72.8899   -2.3278 O   0  0  0  0  0  0  0  0  0  0  0  0
   21.5639   72.3947   -0.4281 O   0  0  0  0  0  0  0  0  0  0  0  0
   22.1867   76.4227    0.2340 O   0  0  0  0  0  0  0  0  0  0  0  0
   23.5339   74.4907    1.8772 O   0  0  0  0  0  0  0  0  0  0  0  0
   21.7539   75.4519   -2.4586 O   0  0  0  0  0  0  0  0  0  0  0  0
   22.5311   75.1059   -0.2052 C   0  0  1  0  0  0  0  0  0  0  0  0
   22.4603   74.1649    0.9990 C   0  0  1  0  0  0  0  0  0  0  0  0
   21.5473   74.6678   -1.2886 C   0  0  2  0  0  0  0  0  0  0  0  0
   22.5546   72.6970    0.5613 C   0  0  1  0  0  0  0  0  0  0  0  0
   21.6921   73.1803   -1.6148 C   0  0  1  0  0  0  0  0  0  0  0  0
   22.8078   76.7071    0.9216 H   0  0  0  0  0  0  0  0  0  0  0  0
   23.4629   75.4203    2.1457 H   0  0  0  0  0  0  0  0  0  0  0  0
   21.6593   76.3914   -2.2389 H   0  0  0  0  0  0  0  0  0  0  0  0
   20.9516   71.7475    2.0572 O   0  0  0  0  0  0  0  0  0  0  0  0
   22.3283   71.7369    1.7271 C   0  0  0  0  0  0  0  0  0  0  0  0
   20.7926   71.1406    2.7976 H   0  0  0  0  0  0  0  0  0  0  0  0
 25 28  1  0
 25 24  1  0
 25 26  1  1
 25 27  2  0
  1  4  1  0
  1 24  1  0
  1  2  1  1
  1  3  2  0
  6 11  1  0
  6 12  1  0
 29 36  1  0
 29 37  1  0
  9  7  1  1
  7 13  1  0
 10  8  1  6
  8 14  1  0
 37 28  1  1
  4  5  1  0
 33 30  1  1
 30 38  1  0
 34 31  1  1
 31 39  1  0
 35 32  1  6
 32 40  1  0
 41 42  1  0
 41 43  1  0
 15 19  2  0
 16 22  2  0
 12 17  1  1
 17 19  1  0
 17 20  1  0
 18 19  1  0
 18 22  1  0
 18 23  1  0
  9 10  1  0
  9 11  1  0
 10 12  1  0
 11  5  1  1
 33 34  1  0
 33 35  1  0
 34 36  1  0
 35 37  1  0
 36 42  1  1
 20 21  2  0
 21 22  1  0
M  CHG  2   2  -1  26  -1
M  END
>  <COMPND>  (140) 
    8629 

>  <AUTHOR>  (140) 
    GENERATED BY OPEN BABEL 3.1.1

>  <MASTER>  (140) 
        0    0    0    0    0    0    0    0   58    0   58    0

>  <minimizedAffinity>  (140) 
-6.05917

>  <CNNscore>  (140) 
0.4842447639

>  <CNNaffinity>  (140) 
4.2168927193

>  <CNN_VS>  (140) 
2.0420081615

>  <CNNaffinity_variance>  (140) 
0.0690835863

$$$$
141
     RDKit          3D

 43 45  0  0  0  0  0  0  0  0999 V2000
   22.4022   71.4559   -2.9450 P   0  0  2  0  0  0  0  0  0  0  0  0
   22.1195   73.0291   -2.6949 O   0  0  0  0  0  0  0  0  0  0  0  0
   23.8243   71.1127   -3.2784 O   0  0  0  0  0  0  0  0  0  0  0  0
   21.2997   71.0343   -4.0516 O   0  0  0  0  0  0  0  0  0  0  0  0
   20.3500   70.0382   -3.7144 C   0  0  0  0  0  0  0  0  0  0  0  0
   18.6920   71.4224   -4.7676 O   0  0  0  0  0  0  0  0  0  0  0  0
   16.7688   70.3395   -2.7380 O   0  0  0  0  0  0  0  0  0  0  0  0
   16.1740   68.8758   -4.9607 O   0  0  0  0  0  0  0  0  0  0  0  0
   17.8509   69.6826   -3.3959 C   0  0  1  0  0  0  0  0  0  0  0  0
   17.4870   69.3828   -4.8351 C   0  0  2  0  0  0  0  0  0  0  0  0
   18.9828   70.6897   -3.5572 C   0  0  1  0  0  0  0  0  0  0  0  0
   17.6541   70.7424   -5.4922 C   0  0  2  0  0  0  0  0  0  0  0  0
   16.0339   69.7160   -2.6234 H   0  0  0  0  0  0  0  0  0  0  0  0
   16.1187   68.0100   -4.5271 H   0  0  0  0  0  0  0  0  0  0  0  0
   15.8589   70.2502   -7.6166 O   0  0  0  0  0  0  0  0  0  0  0  0
   19.2413   70.3701  -10.7449 O   0  0  0  0  0  0  0  0  0  0  0  0
   18.0384   70.6404   -6.8718 N   0  0  0  0  0  0  0  0  0  0  0  0
   17.5445   70.3105   -9.1726 N   0  0  0  0  0  0  0  0  0  0  0  0
   17.0591   70.3901   -7.8611 C   0  0  0  0  0  0  0  0  0  0  0  0
   19.3734   70.7886   -7.2320 C   0  0  0  0  0  0  0  0  0  0  0  0
   19.8202   70.7086   -8.4871 C   0  0  0  0  0  0  0  0  0  0  0  0
   18.8617   70.4493   -9.5807 C   0  0  0  0  0  0  0  0  0  0  0  0
   16.8804   70.1363   -9.8785 H   0  0  0  0  0  0  0  0  0  0  0  0
   21.8429   70.7669   -1.5939 O   0  0  0  0  0  0  0  0  0  0  0  0
   21.3831   71.4122   -0.1850 P   0  0  2  0  0  0  0  0  0  0  0  0
   21.4365   70.1563    0.8334 O   0  0  0  0  0  0  0  0  0  0  0  0
   20.0570   72.1144   -0.2334 O   0  0  0  0  0  0  0  0  0  0  0  0
   22.6203   72.3492    0.2581 O   0  0  0  0  0  0  0  0  0  0  0  0
   21.9699   73.7824    2.0300 O   0  0  0  0  0  0  0  0  0  0  0  0
   25.7070   75.3549    1.2473 O   0  0  0  0  0  0  0  0  0  0  0  0
   25.2890   73.8127    3.6337 O   0  0  0  0  0  0  0  0  0  0  0  0
   24.0302   74.4611   -0.9365 O   0  0  0  0  0  0  0  0  0  0  0  0
   24.7276   74.3193    1.3645 C   0  0  1  0  0  0  0  0  0  0  0  0
   24.2292   74.2921    2.8108 C   0  0  1  0  0  0  0  0  0  0  0  0
   23.5759   74.6105    0.4043 C   0  0  2  0  0  0  0  0  0  0  0  0
   22.9932   73.3938    2.9540 C   0  0  1  0  0  0  0  0  0  0  0  0
   22.3788   73.6940    0.6637 C   0  0  1  0  0  0  0  0  0  0  0  0
   26.4413   75.1758    1.8541 H   0  0  0  0  0  0  0  0  0  0  0  0
   26.0635   74.3884    3.5336 H   0  0  0  0  0  0  0  0  0  0  0  0
   24.7879   75.0466   -1.0882 H   0  0  0  0  0  0  0  0  0  0  0  0
   22.4212   72.1853    4.9341 O   0  0  0  0  0  0  0  0  0  0  0  0
   22.3857   73.4756    4.3527 C   0  0  0  0  0  0  0  0  0  0  0  0
   22.0380   72.2221    5.8249 H   0  0  0  0  0  0  0  0  0  0  0  0
 25 28  1  0
 25 24  1  0
 25 26  1  1
 25 27  2  0
  1  4  1  0
  1 24  1  0
  1  2  1  1
  1  3  2  0
  6 11  1  0
  6 12  1  0
 29 36  1  0
 29 37  1  0
  9  7  1  1
  7 13  1  0
 10  8  1  1
  8 14  1  0
 37 28  1  1
  4  5  1  0
 33 30  1  1
 30 38  1  0
 34 31  1  1
 31 39  1  0
 35 32  1  6
 32 40  1  0
 41 42  1  0
 41 43  1  0
 15 19  2  0
 16 22  2  0
 12 17  1  6
 17 19  1  0
 17 20  1  0
 18 19  1  0
 18 22  1  0
 18 23  1  0
  9 10  1  0
  9 11  1  0
 10 12  1  0
 11  5  1  6
 33 34  1  0
 33 35  1  0
 34 36  1  0
 35 37  1  0
 36 42  1  1
 20 21  2  0
 21 22  1  0
M  CHG  2   2  -1  26  -1
M  END
>  <COMPND>  (141) 
    8629 

>  <AUTHOR>  (141) 
    GENERATED BY OPEN BABEL 3.1.1

>  <MASTER>  (141) 
        0    0    0    0    0    0    0    0   58    0   58    0

>  <minimizedAffinity>  (141) 
-7.77979

>  <CNNscore>  (141) 
0.9280945063

>  <CNNaffinity>  (141) 
4.7671432495

>  <CNN_VS>  (141) 
4.4243593216

>  <CNNaffinity_variance>  (141) 
0.0437438227

$$$$
142
     RDKit          3D

 43 45  0  0  0  0  0  0  0  0999 V2000
   23.0992   71.6292   -2.3930 P   0  0  2  0  0  0  0  0  0  0  0  0
   23.4753   73.1243   -1.9025 O   0  0  0  0  0  0  0  0  0  0  0  0
   24.1951   70.9059   -3.1191 O   0  0  0  0  0  0  0  0  0  0  0  0
   21.7209   71.8260   -3.2174 O   0  0  0  0  0  0  0  0  0  0  0  0
   20.9516   70.6785   -3.5322 C   0  0  0  0  0  0  0  0  0  0  0  0
   18.9085   71.5684   -4.4308 O   0  0  0  0  0  0  0  0  0  0  0  0
   17.5158   70.1054   -2.2148 O   0  0  0  0  0  0  0  0  0  0  0  0
   17.1077   68.4677   -4.3567 O   0  0  0  0  0  0  0  0  0  0  0  0
   18.6634   69.7192   -2.9693 C   0  0  1  0  0  0  0  0  0  0  0  0
   18.2561   69.2910   -4.3637 C   0  0  2  0  0  0  0  0  0  0  0  0
   19.4848   70.9717   -3.2484 C   0  0  1  0  0  0  0  0  0  0  0  0
   18.0136   70.6270   -5.0453 C   0  0  2  0  0  0  0  0  0  0  0  0
   16.9758   69.3219   -2.0241 H   0  0  0  0  0  0  0  0  0  0  0  0
   17.3128   67.6302   -3.9125 H   0  0  0  0  0  0  0  0  0  0  0  0
   16.1535   69.7860   -6.9975 O   0  0  0  0  0  0  0  0  0  0  0  0
   19.1563   70.4846  -10.4234 O   0  0  0  0  0  0  0  0  0  0  0  0
   18.2826   70.5795   -6.4548 N   0  0  0  0  0  0  0  0  0  0  0  0
   17.6501   70.1347   -8.7017 N   0  0  0  0  0  0  0  0  0  0  0  0
   17.2800   70.1408   -7.3508 C   0  0  0  0  0  0  0  0  0  0  0  0
   19.5290   70.9656   -6.9358 C   0  0  0  0  0  0  0  0  0  0  0  0
   19.8665   70.9528   -8.2270 C   0  0  0  0  0  0  0  0  0  0  0  0
   18.8764   70.5078   -9.2288 C   0  0  0  0  0  0  0  0  0  0  0  0
   16.9678   69.8325   -9.3443 H   0  0  0  0  0  0  0  0  0  0  0  0
   22.6080   70.9123   -1.0300 O   0  0  0  0  0  0  0  0  0  0  0  0
   21.6802   71.4521    0.1786 P   0  0  2  0  0  0  0  0  0  0  0  0
   21.3779   70.1161    1.0395 O   0  0  0  0  0  0  0  0  0  0  0  0
   20.4526   72.1904   -0.2706 O   0  0  0  0  0  0  0  0  0  0  0  0
   22.6792   72.3170    1.1055 O   0  0  0  0  0  0  0  0  0  0  0  0
   24.4978   72.0225    2.5963 O   0  0  0  0  0  0  0  0  0  0  0  0
   21.9674   74.1653    5.0573 O   0  0  0  0  0  0  0  0  0  0  0  0
   24.3110   75.4322    3.9847 O   0  0  0  0  0  0  0  0  0  0  0  0
   20.8861   72.1710    3.2592 O   0  0  0  0  0  0  0  0  0  0  0  0
   22.5739   73.7967    3.8157 C   0  0  1  0  0  0  0  0  0  0  0  0
   24.0820   74.0269    3.9317 C   0  0  1  0  0  0  0  0  0  0  0  0
   22.2748   72.3260    3.5312 C   0  0  2  0  0  0  0  0  0  0  0  0
   24.8299   73.4081    2.7430 C   0  0  1  0  0  0  0  0  0  0  0  0
   23.1065   71.7965    2.3616 C   0  0  1  0  0  0  0  0  0  0  0  0
   22.1531   75.0982    5.2437 H   0  0  0  0  0  0  0  0  0  0  0  0
   23.8329   75.8107    4.7393 H   0  0  0  0  0  0  0  0  0  0  0  0
   20.3705   72.5096    4.0072 H   0  0  0  0  0  0  0  0  0  0  0  0
   26.6260   73.8313    4.2608 O   0  0  0  0  0  0  0  0  0  0  0  0
   26.3450   73.4877    2.9165 C   0  0  0  0  0  0  0  0  0  0  0  0
   27.5868   73.8853    4.3860 H   0  0  0  0  0  0  0  0  0  0  0  0
 25 28  1  0
 25 24  1  0
 25 26  1  1
 25 27  2  0
  1  4  1  0
  1 24  1  0
  1  2  1  1
  1  3  2  0
  6 11  1  0
  6 12  1  0
 29 36  1  0
 29 37  1  0
  9  7  1  1
  7 13  1  0
 10  8  1  1
  8 14  1  0
 37 28  1  6
  4  5  1  0
 33 30  1  1
 30 38  1  0
 34 31  1  6
 31 39  1  0
 35 32  1  6
 32 40  1  0
 41 42  1  0
 41 43  1  0
 15 19  2  0
 16 22  2  0
 12 17  1  6
 17 19  1  0
 17 20  1  0
 18 19  1  0
 18 22  1  0
 18 23  1  0
  9 10  1  0
  9 11  1  0
 10 12  1  0
 11  5  1  6
 33 34  1  0
 33 35  1  0
 34 36  1  0
 35 37  1  0
 36 42  1  1
 20 21  2  0
 21 22  1  0
M  CHG  2   2  -1  26  -1
M  END
>  <COMPND>  (142) 
    8629 

>  <AUTHOR>  (142) 
    GENERATED BY OPEN BABEL 3.1.1

>  <MASTER>  (142) 
        0    0    0    0    0    0    0    0   58    0   58    0

>  <minimizedAffinity>  (142) 
-7.99436

>  <CNNscore>  (142) 
0.9232736230

>  <CNNaffinity>  (142) 
4.7098445892

>  <CNN_VS>  (142) 
4.3484754562

>  <CNNaffinity_variance>  (142) 
0.0603135228

$$$$
143
     RDKit          3D

 43 45  0  0  0  0  0  0  0  0999 V2000
   20.4346   71.1991   -1.3430 P   0  0  2  0  0  0  0  0  0  0  0  0
   20.9410   70.5111    0.0309 O   0  0  0  0  0  0  0  0  0  0  0  0
   19.9419   72.6093   -1.2015 O   0  0  0  0  0  0  0  0  0  0  0  0
   19.3676   70.1384   -1.9382 O   0  0  0  0  0  0  0  0  0  0  0  0
   19.0570   70.1948   -3.3196 C   0  0  0  0  0  0  0  0  0  0  0  0
   17.4448   71.3046   -4.7135 O   0  0  0  0  0  0  0  0  0  0  0  0
   15.3616   69.7430   -3.2261 O   0  0  0  0  0  0  0  0  0  0  0  0
   15.6039   68.3437   -5.5541 O   0  0  0  0  0  0  0  0  0  0  0  0
   16.6758   69.3494   -3.6174 C   0  0  1  0  0  0  0  0  0  0  0  0
   16.7229   69.0819   -5.1073 C   0  0  2  0  0  0  0  0  0  0  0  0
   17.5884   70.5620   -3.4829 C   0  0  1  0  0  0  0  0  0  0  0  0
   16.7611   70.4890   -5.6790 C   0  0  2  0  0  0  0  0  0  0  0  0
   14.7607   68.9848   -3.3033 H   0  0  0  0  0  0  0  0  0  0  0  0
   15.6248   67.4563   -5.1631 H   0  0  0  0  0  0  0  0  0  0  0  0
   15.5168   70.5570   -8.2137 O   0  0  0  0  0  0  0  0  0  0  0  0
   19.5692   70.7362  -10.4015 O   0  0  0  0  0  0  0  0  0  0  0  0
   17.4669   70.5539   -6.9276 N   0  0  0  0  0  0  0  0  0  0  0  0
   17.5356   70.6463   -9.3010 N   0  0  0  0  0  0  0  0  0  0  0  0
   16.7473   70.5826   -8.1449 C   0  0  0  0  0  0  0  0  0  0  0  0
   18.8571   70.5887   -6.9368 C   0  0  0  0  0  0  0  0  0  0  0  0
   19.5940   70.6481   -8.0480 C   0  0  0  0  0  0  0  0  0  0  0  0
   18.9197   70.6817   -9.3618 C   0  0  0  0  0  0  0  0  0  0  0  0
   17.0560   70.6670  -10.1609 H   0  0  0  0  0  0  0  0  0  0  0  0
   21.7059   71.0262   -2.3262 O   0  0  0  0  0  0  0  0  0  0  0  0
   23.0118   71.9532   -2.5459 P   0  0  2  0  0  0  0  0  0  0  0  0
   24.1062   70.9185   -3.1368 O   0  0  0  0  0  0  0  0  0  0  0  0
   23.4572   72.6903   -1.3162 O   0  0  0  0  0  0  0  0  0  0  0  0
   22.6331   72.9031   -3.7946 O   0  0  0  0  0  0  0  0  0  0  0  0
   20.3438   73.0880   -4.3789 O   0  0  0  0  0  0  0  0  0  0  0  0
   22.0331   74.4676   -7.8851 O   0  0  0  0  0  0  0  0  0  0  0  0
   20.7305   76.3166   -6.1153 O   0  0  0  0  0  0  0  0  0  0  0  0
   23.2643   72.2724   -6.4553 O   0  0  0  0  0  0  0  0  0  0  0  0
   21.9364   74.2818   -6.4704 C   0  0  1  0  0  0  0  0  0  0  0  0
   20.6209   74.9011   -5.9942 C   0  0  1  0  0  0  0  0  0  0  0  0
   21.9701   72.7865   -6.1599 C   0  0  2  0  0  0  0  0  0  0  0  0
   20.3190   74.5109   -4.5410 C   0  0  1  0  0  0  0  0  0  0  0  0
   21.6078   72.5043   -4.7007 C   0  0  1  0  0  0  0  0  0  0  0  0
   22.0127   75.4150   -8.0890 H   0  0  0  0  0  0  0  0  0  0  0  0
   20.9217   76.5496   -7.0374 H   0  0  0  0  0  0  0  0  0  0  0  0
   23.4817   72.4571   -7.3818 H   0  0  0  0  0  0  0  0  0  0  0  0
   18.3209   73.9478   -3.3580 O   0  0  0  0  0  0  0  0  0  0  0  0
   18.9376   74.9865   -4.0964 C   0  0  0  0  0  0  0  0  0  0  0  0
   17.4409   74.2365   -3.0682 H   0  0  0  0  0  0  0  0  0  0  0  0
 25 28  1  0
 25 24  1  0
 25 26  1  6
 25 27  2  0
  1  4  1  0
  1 24  1  0
  1  2  1  1
  1  3  2  0
  6 11  1  0
  6 12  1  0
 29 36  1  0
 29 37  1  0
  9  7  1  6
  7 13  1  0
 10  8  1  6
  8 14  1  0
 37 28  1  1
  4  5  1  0
 33 30  1  6
 30 38  1  0
 34 31  1  1
 31 39  1  0
 35 32  1  1
 32 40  1  0
 41 42  1  0
 41 43  1  0
 15 19  2  0
 16 22  2  0
 12 17  1  6
 17 19  1  0
 17 20  1  0
 18 19  1  0
 18 22  1  0
 18 23  1  0
  9 10  1  0
  9 11  1  0
 10 12  1  0
 11  5  1  6
 33 34  1  0
 33 35  1  0
 34 36  1  0
 35 37  1  0
 36 42  1  6
 20 21  2  0
 21 22  1  0
M  CHG  2   2  -1  26  -1
M  END
>  <COMPND>  (143) 
    8629 

>  <AUTHOR>  (143) 
    GENERATED BY OPEN BABEL 3.1.1

>  <MASTER>  (143) 
        0    0    0    0    0    0    0    0   58    0   58    0

>  <minimizedAffinity>  (143) 
-7.95259

>  <CNNscore>  (143) 
0.9209184051

>  <CNNaffinity>  (143) 
4.6802330017

>  <CNN_VS>  (143) 
4.3101124763

>  <CNNaffinity_variance>  (143) 
0.5761076212

$$$$
144
     RDKit          3D

 43 45  0  0  0  0  0  0  0  0999 V2000
   22.2826   71.4363   -2.7458 P   0  0  2  0  0  0  0  0  0  0  0  0
   23.6527   70.6539   -3.1037 O   0  0  0  0  0  0  0  0  0  0  0  0
   21.7524   71.1865   -1.3645 O   0  0  0  0  0  0  0  0  0  0  0  0
   21.2864   71.0509   -3.9612 O   0  0  0  0  0  0  0  0  0  0  0  0
   20.3130   70.0444   -3.7442 C   0  0  0  0  0  0  0  0  0  0  0  0
   18.6658   71.4332   -4.8080 O   0  0  0  0  0  0  0  0  0  0  0  0
   16.7266   70.3560   -2.7906 O   0  0  0  0  0  0  0  0  0  0  0  0
   16.1417   68.8939   -5.0170 O   0  0  0  0  0  0  0  0  0  0  0  0
   17.8109   69.6960   -3.4417 C   0  0  1  0  0  0  0  0  0  0  0  0
   17.4553   69.3971   -4.8831 C   0  0  2  0  0  0  0  0  0  0  0  0
   18.9467   70.6997   -3.5958 C   0  0  1  0  0  0  0  0  0  0  0  0
   17.6305   70.7562   -5.5392 C   0  0  2  0  0  0  0  0  0  0  0  0
   15.9892   69.7346   -2.6807 H   0  0  0  0  0  0  0  0  0  0  0  0
   16.0812   68.0282   -4.5838 H   0  0  0  0  0  0  0  0  0  0  0  0
   15.8457   70.2831   -7.6766 O   0  0  0  0  0  0  0  0  0  0  0  0
   19.2502   70.3783  -10.7816 O   0  0  0  0  0  0  0  0  0  0  0  0
   18.0233   70.6530   -6.9163 N   0  0  0  0  0  0  0  0  0  0  0  0
   17.5423   70.3311   -9.2209 N   0  0  0  0  0  0  0  0  0  0  0  0
   17.0486   70.4129   -7.9126 C   0  0  0  0  0  0  0  0  0  0  0  0
   19.3620   70.7900   -7.2672 C   0  0  0  0  0  0  0  0  0  0  0  0
   19.8167   70.7080   -8.5193 C   0  0  0  0  0  0  0  0  0  0  0  0
   18.8634   70.4590   -9.6198 C   0  0  0  0  0  0  0  0  0  0  0  0
   16.8815   70.1639   -9.9317 H   0  0  0  0  0  0  0  0  0  0  0  0
   22.6535   72.9789   -3.0553 O   0  0  0  0  0  0  0  0  0  0  0  0
   23.1145   73.7060   -4.4234 P   0  0  2  0  0  0  0  0  0  0  0  0
   23.4354   72.4664   -5.4124 O   0  0  0  0  0  0  0  0  0  0  0  0
   24.2503   74.6730   -4.2539 O   0  0  0  0  0  0  0  0  0  0  0  0
   21.7622   74.3595   -5.0145 O   0  0  0  0  0  0  0  0  0  0  0  0
   19.9224   74.0656   -6.4791 O   0  0  0  0  0  0  0  0  0  0  0  0
   21.8993   77.0761   -8.4989 O   0  0  0  0  0  0  0  0  0  0  0  0
   19.4555   77.6672   -7.1110 O   0  0  0  0  0  0  0  0  0  0  0  0
   23.4091   74.9742   -7.2019 O   0  0  0  0  0  0  0  0  0  0  0  0
   21.4446   76.3601   -7.3474 C   0  0  1  0  0  0  0  0  0  0  0  0
   19.9148   76.3428   -7.3666 C   0  0  1  0  0  0  0  0  0  0  0  0
   21.9990   74.9375   -7.3931 C   0  0  2  0  0  0  0  0  0  0  0  0
   19.3585   75.3722   -6.3161 C   0  0  1  0  0  0  0  0  0  0  0  0
   21.3443   74.0421   -6.3396 C   0  0  1  0  0  0  0  0  0  0  0  0
   21.5512   77.9804   -8.4758 H   0  0  0  0  0  0  0  0  0  0  0  0
   19.8142   78.2702   -7.7810 H   0  0  0  0  0  0  0  0  0  0  0  0
   23.8118   75.5439   -7.8751 H   0  0  0  0  0  0  0  0  0  0  0  0
   17.4226   74.2383   -5.4945 O   0  0  0  0  0  0  0  0  0  0  0  0
   17.8428   75.2206   -6.4234 C   0  0  0  0  0  0  0  0  0  0  0  0
   16.4597   74.1313   -5.5514 H   0  0  0  0  0  0  0  0  0  0  0  0
 25 28  1  0
 25 24  1  0
 25 26  1  6
 25 27  2  0
  1  4  1  0
  1 24  1  0
  1  2  1  6
  1  3  2  0
  6 11  1  0
  6 12  1  0
 29 36  1  0
 29 37  1  0
  9  7  1  1
  7 13  1  0
 10  8  1  1
  8 14  1  0
 37 28  1  1
  4  5  1  0
 33 30  1  6
 30 38  1  0
 34 31  1  1
 31 39  1  0
 35 32  1  1
 32 40  1  0
 41 42  1  0
 41 43  1  0
 15 19  2  0
 16 22  2  0
 12 17  1  6
 17 19  1  0
 17 20  1  0
 18 19  1  0
 18 22  1  0
 18 23  1  0
  9 10  1  0
  9 11  1  0
 10 12  1  0
 11  5  1  6
 33 34  1  0
 33 35  1  0
 34 36  1  0
 35 37  1  0
 36 42  1  6
 20 21  2  0
 21 22  1  0
M  CHG  2   2  -1  26  -1
M  END
>  <COMPND>  (144) 
    8629 

>  <AUTHOR>  (144) 
    GENERATED BY OPEN BABEL 3.1.1

>  <MASTER>  (144) 
        0    0    0    0    0    0    0    0   58    0   58    0

>  <minimizedAffinity>  (144) 
-6.87806

>  <CNNscore>  (144) 
0.8848305345

>  <CNNaffinity>  (144) 
4.5216202736

>  <CNN_VS>  (144) 
4.0008678436

>  <CNNaffinity_variance>  (144) 
0.3567049801

$$$$
145
     RDKit          3D

 43 45  0  0  0  0  0  0  0  0999 V2000
   20.7335   73.0842   -3.3945 P   0  0  2  0  0  0  0  0  0  0  0  0
   21.1505   74.0511   -2.1662 O   0  0  0  0  0  0  0  0  0  0  0  0
   20.2434   73.7945   -4.6220 O   0  0  0  0  0  0  0  0  0  0  0  0
   19.6969   72.0354   -2.7286 O   0  0  0  0  0  0  0  0  0  0  0  0
   19.1790   70.9920   -3.5354 C   0  0  0  0  0  0  0  0  0  0  0  0
   17.4428   71.7294   -5.0238 O   0  0  0  0  0  0  0  0  0  0  0  0
   15.5467   70.2181   -3.2599 O   0  0  0  0  0  0  0  0  0  0  0  0
   15.8814   68.5189   -5.3663 O   0  0  0  0  0  0  0  0  0  0  0  0
   16.8856   69.8947   -3.6314 C   0  0  1  0  0  0  0  0  0  0  0  0
   16.9317   69.4157   -5.0673 C   0  0  2  0  0  0  0  0  0  0  0  0
   17.6792   71.1933   -3.7036 C   0  0  1  0  0  0  0  0  0  0  0  0
   16.8239   70.7203   -5.8383 C   0  0  2  0  0  0  0  0  0  0  0  0
   15.0205   69.4044   -3.2069 H   0  0  0  0  0  0  0  0  0  0  0  0
   15.9947   67.7048   -4.8514 H   0  0  0  0  0  0  0  0  0  0  0  0
   15.5152   70.5739   -8.3371 O   0  0  0  0  0  0  0  0  0  0  0  0
   19.5113   70.5126  -10.6325 O   0  0  0  0  0  0  0  0  0  0  0  0
   17.4978   70.6653   -7.1049 N   0  0  0  0  0  0  0  0  0  0  0  0
   17.5060   70.5436   -9.4780 N   0  0  0  0  0  0  0  0  0  0  0  0
   16.7473   70.5924   -8.3016 C   0  0  0  0  0  0  0  0  0  0  0  0
   18.8875   70.6842   -7.1519 C   0  0  0  0  0  0  0  0  0  0  0  0
   19.5960   70.6358   -8.2819 C   0  0  0  0  0  0  0  0  0  0  0  0
   18.8884   70.5585   -9.5762 C   0  0  0  0  0  0  0  0  0  0  0  0
   17.0046   70.4921  -10.3240 H   0  0  0  0  0  0  0  0  0  0  0  0
   22.0610   72.1897   -3.6197 O   0  0  0  0  0  0  0  0  0  0  0  0
   23.3979   72.0301   -2.7252 P   0  0  2  0  0  0  0  0  0  0  0  0
   24.2157   73.3915   -3.0341 O   0  0  0  0  0  0  0  0  0  0  0  0
   24.1696   70.7702   -2.9914 O   0  0  0  0  0  0  0  0  0  0  0  0
   22.8920   72.1953   -1.2015 O   0  0  0  0  0  0  0  0  0  0  0  0
   24.0922   70.9879    0.4473 O   0  0  0  0  0  0  0  0  0  0  0  0
   20.6890   71.8622    2.6164 O   0  0  0  0  0  0  0  0  0  0  0  0
   23.1435   73.2267    3.2179 O   0  0  0  0  0  0  0  0  0  0  0  0
   20.4781   71.1832   -0.1897 O   0  0  0  0  0  0  0  0  0  0  0  0
   21.7205   72.1058    1.6561 C   0  0  1  0  0  0  0  0  0  0  0  0
   23.0674   72.0760    2.3810 C   0  0  1  0  0  0  0  0  0  0  0  0
   21.6655   71.0238    0.5792 C   0  0  2  0  0  0  0  0  0  0  0  0
   24.2334   72.0629    1.3833 C   0  0  1  0  0  0  0  0  0  0  0  0
   22.8954   71.0681   -0.3294 C   0  0  1  0  0  0  0  0  0  0  0  0
   20.7182   72.5460    3.3027 H   0  0  0  0  0  0  0  0  0  0  0  0
   22.4014   73.2232    3.8428 H   0  0  0  0  0  0  0  0  0  0  0  0
   19.7067   71.1531    0.3968 H   0  0  0  0  0  0  0  0  0  0  0  0
   25.7496   70.4981    2.3637 O   0  0  0  0  0  0  0  0  0  0  0  0
   25.5796   71.8745    2.0792 C   0  0  0  0  0  0  0  0  0  0  0  0
   26.6025   70.3631    2.8065 H   0  0  0  0  0  0  0  0  0  0  0  0
 25 28  1  0
 25 24  1  0
 25 26  1  6
 25 27  2  0
  1  4  1  0
  1 24  1  0
  1  2  1  1
  1  3  2  0
  6 11  1  0
  6 12  1  0
 29 36  1  0
 29 37  1  0
  9  7  1  6
  7 13  1  0
 10  8  1  6
  8 14  1  0
 37 28  1  1
  4  5  1  0
 33 30  1  1
 30 38  1  0
 34 31  1  1
 31 39  1  0
 35 32  1  6
 32 40  1  0
 41 42  1  0
 41 43  1  0
 15 19  2  0
 16 22  2  0
 12 17  1  6
 17 19  1  0
 17 20  1  0
 18 19  1  0
 18 22  1  0
 18 23  1  0
  9 10  1  0
  9 11  1  0
 10 12  1  0
 11  5  1  6
 33 34  1  0
 33 35  1  0
 34 36  1  0
 35 37  1  0
 36 42  1  1
 20 21  2  0
 21 22  1  0
M  CHG  2   2  -1  26  -1
M  END
>  <COMPND>  (145) 
    8629 

>  <AUTHOR>  (145) 
    GENERATED BY OPEN BABEL 3.1.1

>  <MASTER>  (145) 
        0    0    0    0    0    0    0    0   58    0   58    0

>  <minimizedAffinity>  (145) 
-8.08173

>  <CNNscore>  (145) 
0.8835917115

>  <CNNaffinity>  (145) 
4.6752829552

>  <CNN_VS>  (145) 
4.1310410500

>  <CNNaffinity_variance>  (145) 
0.0944220722

$$$$
146
     RDKit          3D

 43 45  0  0  0  0  0  0  0  0999 V2000
   20.6069   72.0855   -5.2131 P   0  0  2  0  0  0  0  0  0  0  0  0
   20.0017   71.2610   -3.9596 O   0  0  0  0  0  0  0  0  0  0  0  0
   19.9414   73.4022   -5.4863 O   0  0  0  0  0  0  0  0  0  0  0  0
   20.5796   71.0187   -6.4293 O   0  0  0  0  0  0  0  0  0  0  0  0
   20.1515   71.4597   -7.7060 C   0  0  0  0  0  0  0  0  0  0  0  0
   18.6494   69.6303   -7.2928 O   0  0  0  0  0  0  0  0  0  0  0  0
   17.8242   69.9046  -10.1624 O   0  0  0  0  0  0  0  0  0  0  0  0
   15.7961   71.1577   -8.8383 O   0  0  0  0  0  0  0  0  0  0  0  0
   18.1844   70.9192   -9.2263 C   0  0  1  0  0  0  0  0  0  0  0  0
   17.0685   71.1302   -8.2243 C   0  0  2  0  0  0  0  0  0  0  0  0
   19.3017   70.3712   -8.3473 C   0  0  1  0  0  0  0  0  0  0  0  0
   17.2458   69.9379   -7.2995 C   0  0  2  0  0  0  0  0  0  0  0  0
   17.1122   70.2316  -10.7352 H   0  0  0  0  0  0  0  0  0  0  0  0
   15.7325   71.9340   -9.4162 H   0  0  0  0  0  0  0  0  0  0  0  0
   16.3284   67.9877   -5.4738 O   0  0  0  0  0  0  0  0  0  0  0  0
   15.6509   71.1322   -2.1732 O   0  0  0  0  0  0  0  0  0  0  0  0
   16.8236   70.2191   -5.9563 N   0  0  0  0  0  0  0  0  0  0  0  0
   15.9919   69.5550   -3.8318 N   0  0  0  0  0  0  0  0  0  0  0  0
   16.3794   69.1678   -5.1210 C   0  0  0  0  0  0  0  0  0  0  0  0
   16.8530   71.5252   -5.4798 C   0  0  0  0  0  0  0  0  0  0  0  0
   16.4790   71.8781   -4.2482 C   0  0  0  0  0  0  0  0  0  0  0  0
   16.0018   70.8397   -3.3121 C   0  0  0  0  0  0  0  0  0  0  0  0
   15.6785   68.8395   -3.2322 H   0  0  0  0  0  0  0  0  0  0  0  0
   22.1799   72.1882   -4.8551 O   0  0  0  0  0  0  0  0  0  0  0  0
   23.0870   73.4498   -4.4095 P   0  0  2  0  0  0  0  0  0  0  0  0
   24.5206   72.7773   -4.0779 O   0  0  0  0  0  0  0  0  0  0  0  0
   22.5071   74.2579   -3.2849 O   0  0  0  0  0  0  0  0  0  0  0  0
   23.3312   74.2791   -5.7724 O   0  0  0  0  0  0  0  0  0  0  0  0
   23.6830   76.6136   -5.5654 O   0  0  0  0  0  0  0  0  0  0  0  0
   22.7575   76.4399   -9.5858 O   0  0  0  0  0  0  0  0  0  0  0  0
   25.4666   76.9406   -8.7748 O   0  0  0  0  0  0  0  0  0  0  0  0
   21.3517   74.7460   -7.7060 O   0  0  0  0  0  0  0  0  0  0  0  0
   23.3199   75.9722   -8.3569 C   0  0  1  0  0  0  0  0  0  0  0  0
   24.3558   76.9940   -7.8840 C   0  0  1  0  0  0  0  0  0  0  0  0
   22.2050   75.8194   -7.3239 C   0  0  2  0  0  0  0  0  0  0  0  0
   24.8083   76.6999   -6.4474 C   0  0  1  0  0  0  0  0  0  0  0  0
   22.7644   75.5784   -5.9206 C   0  0  1  0  0  0  0  0  0  0  0  0
   23.4601   76.5386  -10.2462 H   0  0  0  0  0  0  0  0  0  0  0  0
   25.1673   77.1276   -9.6785 H   0  0  0  0  0  0  0  0  0  0  0  0
   21.0038   74.9106   -8.5958 H   0  0  0  0  0  0  0  0  0  0  0  0
   27.0655   77.4209   -6.1402 O   0  0  0  0  0  0  0  0  0  0  0  0
   25.7213   77.7948   -5.8999 C   0  0  0  0  0  0  0  0  0  0  0  0
   27.6580   78.1086   -5.7973 H   0  0  0  0  0  0  0  0  0  0  0  0
 25 28  1  0
 25 24  1  0
 25 26  1  1
 25 27  2  0
  1  4  1  0
  1 24  1  0
  1  2  1  1
  1  3  2  0
  6 11  1  0
  6 12  1  0
 29 36  1  0
 29 37  1  0
  9  7  1  6
  7 13  1  0
 10  8  1  6
  8 14  1  0
 37 28  1  6
  4  5  1  0
 33 30  1  6
 30 38  1  0
 34 31  1  6
 31 39  1  0
 35 32  1  6
 32 40  1  0
 41 42  1  0
 41 43  1  0
 15 19  2  0
 16 22  2  0
 12 17  1  1
 17 19  1  0
 17 20  1  0
 18 19  1  0
 18 22  1  0
 18 23  1  0
  9 10  1  0
  9 11  1  0
 10 12  1  0
 11  5  1  1
 33 34  1  0
 33 35  1  0
 34 36  1  0
 35 37  1  0
 36 42  1  1
 20 21  2  0
 21 22  1  0
M  CHG  2   2  -1  26  -1
M  END
>  <COMPND>  (146) 
    8629 

>  <AUTHOR>  (146) 
    GENERATED BY OPEN BABEL 3.1.1

>  <MASTER>  (146) 
        0    0    0    0    0    0    0    0   58    0   58    0

>  <minimizedAffinity>  (146) 
-6.87251

>  <CNNscore>  (146) 
0.8604925275

>  <CNNaffinity>  (146) 
4.5461378098

>  <CNN_VS>  (146) 
3.9119176865

>  <CNNaffinity_variance>  (146) 
0.2293118238

$$$$
147
     RDKit          3D

 43 45  0  0  0  0  0  0  0  0999 V2000
   20.5191   71.2305   -1.2554 P   0  0  2  0  0  0  0  0  0  0  0  0
   20.8021   70.5641    0.1914 O   0  0  0  0  0  0  0  0  0  0  0  0
   20.1254   72.6780   -1.2204 O   0  0  0  0  0  0  0  0  0  0  0  0
   19.4509   70.2282   -1.9425 O   0  0  0  0  0  0  0  0  0  0  0  0
   19.1475   70.4015   -3.3157 C   0  0  0  0  0  0  0  0  0  0  0  0
   17.4885   71.4433   -4.7071 O   0  0  0  0  0  0  0  0  0  0  0  0
   15.4626   69.8965   -3.1280 O   0  0  0  0  0  0  0  0  0  0  0  0
   15.6775   68.4302   -5.4173 O   0  0  0  0  0  0  0  0  0  0  0  0
   16.7743   69.5111   -3.5358 C   0  0  1  0  0  0  0  0  0  0  0  0
   16.7939   69.1989   -5.0176 C   0  0  2  0  0  0  0  0  0  0  0  0
   17.6702   70.7411   -3.4581 C   0  0  1  0  0  0  0  0  0  0  0  0
   16.7975   70.5882   -5.6323 C   0  0  2  0  0  0  0  0  0  0  0  0
   14.8724   69.1271   -3.1690 H   0  0  0  0  0  0  0  0  0  0  0  0
   15.7208   67.5557   -5.0000 H   0  0  0  0  0  0  0  0  0  0  0  0
   15.5213   70.2999   -8.1356 O   0  0  0  0  0  0  0  0  0  0  0  0
   19.4988   70.7468  -10.4205 O   0  0  0  0  0  0  0  0  0  0  0  0
   17.4753   70.6255   -6.8974 N   0  0  0  0  0  0  0  0  0  0  0  0
   17.5028   70.5229   -9.2713 N   0  0  0  0  0  0  0  0  0  0  0  0
   16.7417   70.4695   -8.0966 C   0  0  0  0  0  0  0  0  0  0  0  0
   18.8523   70.8154   -6.9405 C   0  0  0  0  0  0  0  0  0  0  0  0
   19.5634   70.8626   -8.0689 C   0  0  0  0  0  0  0  0  0  0  0  0
   18.8730   70.7082   -9.3656 C   0  0  0  0  0  0  0  0  0  0  0  0
   17.0131   70.4162  -10.1189 H   0  0  0  0  0  0  0  0  0  0  0  0
   21.8813   70.9234   -2.0697 O   0  0  0  0  0  0  0  0  0  0  0  0
   23.3651   71.5497   -1.9311 P   0  0  2  0  0  0  0  0  0  0  0  0
   24.2251   70.7096   -3.0138 O   0  0  0  0  0  0  0  0  0  0  0  0
   23.9204   71.5137   -0.5367 O   0  0  0  0  0  0  0  0  0  0  0  0
   23.2449   73.0290   -2.5652 O   0  0  0  0  0  0  0  0  0  0  0  0
   23.6874   73.0538   -4.8934 O   0  0  0  0  0  0  0  0  0  0  0  0
   23.6719   77.1212   -4.1812 O   0  0  0  0  0  0  0  0  0  0  0  0
   21.4787   75.9208   -5.5944 O   0  0  0  0  0  0  0  0  0  0  0  0
   24.8330   75.3191   -2.2360 O   0  0  0  0  0  0  0  0  0  0  0  0
   23.2550   75.7652   -4.0002 C   0  0  1  0  0  0  0  0  0  0  0  0
   22.7081   75.2496   -5.3328 C   0  0  1  0  0  0  0  0  0  0  0  0
   24.4530   74.9303   -3.5516 C   0  0  2  0  0  0  0  0  0  0  0  0
   22.4898   73.7312   -5.2918 C   0  0  1  0  0  0  0  0  0  0  0  0
   24.1452   73.4325   -3.5938 C   0  0  1  0  0  0  0  0  0  0  0  0
   22.9157   77.6568   -4.4656 H   0  0  0  0  0  0  0  0  0  0  0  0
   21.6304   76.8787   -5.6172 H   0  0  0  0  0  0  0  0  0  0  0  0
   25.0255   76.2692   -2.2226 H   0  0  0  0  0  0  0  0  0  0  0  0
   23.1288   72.3180   -7.1094 O   0  0  0  0  0  0  0  0  0  0  0  0
   22.0950   73.1730   -6.6574 C   0  0  0  0  0  0  0  0  0  0  0  0
   22.8911   71.9552   -7.9775 H   0  0  0  0  0  0  0  0  0  0  0  0
 25 28  1  0
 25 24  1  0
 25 26  1  6
 25 27  2  0
  1  4  1  0
  1 24  1  0
  1  2  1  1
  1  3  2  0
  6 11  1  0
  6 12  1  0
 29 36  1  0
 29 37  1  0
  9  7  1  6
  7 13  1  0
 10  8  1  6
  8 14  1  0
 37 28  1  1
  4  5  1  0
 33 30  1  6
 30 38  1  0
 34 31  1  1
 31 39  1  0
 35 32  1  1
 32 40  1  0
 41 42  1  0
 41 43  1  0
 15 19  2  0
 16 22  2  0
 12 17  1  6
 17 19  1  0
 17 20  1  0
 18 19  1  0
 18 22  1  0
 18 23  1  0
  9 10  1  0
  9 11  1  0
 10 12  1  0
 11  5  1  6
 33 34  1  0
 33 35  1  0
 34 36  1  0
 35 37  1  0
 36 42  1  6
 20 21  2  0
 21 22  1  0
M  CHG  2   2  -1  26  -1
M  END
>  <COMPND>  (147) 
    8629 

>  <AUTHOR>  (147) 
    GENERATED BY OPEN BABEL 3.1.1

>  <MASTER>  (147) 
        0    0    0    0    0    0    0    0   58    0   58    0

>  <minimizedAffinity>  (147) 
-8.34925

>  <CNNscore>  (147) 
0.8563487530

>  <CNNaffinity>  (147) 
4.6686925888

>  <CNN_VS>  (147) 
3.9980289936

>  <CNNaffinity_variance>  (147) 
0.3125645220

$$$$
148
     RDKit          3D

 43 45  0  0  0  0  0  0  0  0999 V2000
   21.8280   71.7154   -2.5911 P   0  0  2  0  0  0  0  0  0  0  0  0
   22.0673   73.2767   -2.2412 O   0  0  0  0  0  0  0  0  0  0  0  0
   23.0002   71.0196   -3.2181 O   0  0  0  0  0  0  0  0  0  0  0  0
   20.4641   71.7170   -3.4614 O   0  0  0  0  0  0  0  0  0  0  0  0
   19.6742   70.5407   -3.4826 C   0  0  0  0  0  0  0  0  0  0  0  0
   17.9260   71.5962   -4.7490 O   0  0  0  0  0  0  0  0  0  0  0  0
   16.0093   70.1850   -2.9255 O   0  0  0  0  0  0  0  0  0  0  0  0
   15.9506   68.6320   -5.1663 O   0  0  0  0  0  0  0  0  0  0  0  0
   17.2612   69.7353   -3.4410 C   0  0  1  0  0  0  0  0  0  0  0  0
   17.1266   69.3706   -4.9048 C   0  0  2  0  0  0  0  0  0  0  0  0
   18.2028   70.9318   -3.4967 C   0  0  1  0  0  0  0  0  0  0  0  0
   17.1194   70.7363   -5.5704 C   0  0  2  0  0  0  0  0  0  0  0  0
   15.3913   69.4380   -2.8803 H   0  0  0  0  0  0  0  0  0  0  0  0
   16.0034   67.7716   -4.7216 H   0  0  0  0  0  0  0  0  0  0  0  0
   15.6193   70.2558   -7.9150 O   0  0  0  0  0  0  0  0  0  0  0  0
   19.3485   70.6302  -10.5972 O   0  0  0  0  0  0  0  0  0  0  0  0
   17.6727   70.7029   -6.8948 N   0  0  0  0  0  0  0  0  0  0  0  0
   17.4774   70.4428   -9.2486 N   0  0  0  0  0  0  0  0  0  0  0  0
   16.8330   70.4524   -8.0050 C   0  0  0  0  0  0  0  0  0  0  0  0
   19.0338   70.9176   -7.0827 C   0  0  0  0  0  0  0  0  0  0  0  0
   19.6330   70.9038   -8.2752 C   0  0  0  0  0  0  0  0  0  0  0  0
   18.8270   70.6493   -9.4866 C   0  0  0  0  0  0  0  0  0  0  0  0
   16.9124   70.2699  -10.0364 H   0  0  0  0  0  0  0  0  0  0  0  0
   21.3551   71.0941   -1.1757 O   0  0  0  0  0  0  0  0  0  0  0  0
   22.0643   71.1017    0.2769 P   0  0  2  0  0  0  0  0  0  0  0  0
   23.6409   71.1670   -0.0803 O   0  0  0  0  0  0  0  0  0  0  0  0
   21.6760   69.9492    1.1572 O   0  0  0  0  0  0  0  0  0  0  0  0
   21.7246   72.5556    0.8898 O   0  0  0  0  0  0  0  0  0  0  0  0
   20.6439   72.9871    2.9544 O   0  0  0  0  0  0  0  0  0  0  0  0
   19.3727   76.2981    0.8396 O   0  0  0  0  0  0  0  0  0  0  0  0
   21.3367   76.6075    2.9121 O   0  0  0  0  0  0  0  0  0  0  0  0
   19.5779   73.7313   -0.4829 O   0  0  0  0  0  0  0  0  0  0  0  0
   20.2915   75.2722    1.2252 C   0  0  1  0  0  0  0  0  0  0  0  0
   20.5740   75.4191    2.7217 C   0  0  1  0  0  0  0  0  0  0  0  0
   19.6713   73.9086    0.9264 C   0  0  2  0  0  0  0  0  0  0  0  0
   21.3362   74.2024    3.2636 C   0  0  1  0  0  0  0  0  0  0  0  0
   20.4807   72.7708    1.5514 C   0  0  1  0  0  0  0  0  0  0  0  0
   19.7606   77.1665    1.0263 H   0  0  0  0  0  0  0  0  0  0  0  0
   20.8444   77.3681    2.5652 H   0  0  0  0  0  0  0  0  0  0  0  0
   19.0630   74.4577   -0.8666 H   0  0  0  0  0  0  0  0  0  0  0  0
   21.8527   72.9646    5.2410 O   0  0  0  0  0  0  0  0  0  0  0  0
   21.4904   74.2539    4.7821 C   0  0  0  0  0  0  0  0  0  0  0  0
   21.9546   72.9823    6.2059 H   0  0  0  0  0  0  0  0  0  0  0  0
 25 28  1  0
 25 24  1  0
 25 26  1  6
 25 27  2  0
  1  4  1  0
  1 24  1  0
  1  2  1  1
  1  3  2  0
  6 11  1  0
  6 12  1  0
 29 36  1  0
 29 37  1  0
  9  7  1  6
  7 13  1  0
 10  8  1  1
  8 14  1  0
 37 28  1  6
  4  5  1  0
 33 30  1  1
 30 38  1  0
 34 31  1  6
 31 39  1  0
 35 32  1  6
 32 40  1  0
 41 42  1  0
 41 43  1  0
 15 19  2  0
 16 22  2  0
 12 17  1  6
 17 19  1  0
 17 20  1  0
 18 19  1  0
 18 22  1  0
 18 23  1  0
  9 10  1  0
  9 11  1  0
 10 12  1  0
 11  5  1  6
 33 34  1  0
 33 35  1  0
 34 36  1  0
 35 37  1  0
 36 42  1  1
 20 21  2  0
 21 22  1  0
M  CHG  2   2  -1  26  -1
M  END
>  <COMPND>  (148) 
    8629 

>  <AUTHOR>  (148) 
    GENERATED BY OPEN BABEL 3.1.1

>  <MASTER>  (148) 
        0    0    0    0    0    0    0    0   58    0   58    0

>  <minimizedAffinity>  (148) 
-7.23905

>  <CNNscore>  (148) 
0.8504350781

>  <CNNaffinity>  (148) 
4.5979814529

>  <CNN_VS>  (148) 
3.9102847576

>  <CNNaffinity_variance>  (148) 
0.0441611633

$$$$
149
     RDKit          3D

 43 45  0  0  0  0  0  0  0  0999 V2000
   20.4661   71.2177   -1.4987 P   0  0  2  0  0  0  0  0  0  0  0  0
   21.0643   70.6150   -0.1216 O   0  0  0  0  0  0  0  0  0  0  0  0
   19.8967   72.6017   -1.3902 O   0  0  0  0  0  0  0  0  0  0  0  0
   19.4418   70.0746   -2.0104 O   0  0  0  0  0  0  0  0  0  0  0  0
   19.0897   70.0474   -3.3827 C   0  0  0  0  0  0  0  0  0  0  0  0
   17.4986   71.2302   -4.7403 O   0  0  0  0  0  0  0  0  0  0  0  0
   15.3845   69.6879   -3.2764 O   0  0  0  0  0  0  0  0  0  0  0  0
   15.5777   68.3375   -5.6377 O   0  0  0  0  0  0  0  0  0  0  0  0
   16.6860   69.2701   -3.6850 C   0  0  1  0  0  0  0  0  0  0  0  0
   16.7177   69.0364   -5.1809 C   0  0  2  0  0  0  0  0  0  0  0  0
   17.6301   70.4556   -3.5282 C   0  0  1  0  0  0  0  0  0  0  0  0
   16.7887   70.4550   -5.7201 C   0  0  2  0  0  0  0  0  0  0  0  0
   14.7640   68.9472   -3.3673 H   0  0  0  0  0  0  0  0  0  0  0  0
   15.5780   67.4410   -5.2674 H   0  0  0  0  0  0  0  0  0  0  0  0
   15.5326   70.5511   -8.2481 O   0  0  0  0  0  0  0  0  0  0  0  0
   19.5752   70.7439  -10.4531 O   0  0  0  0  0  0  0  0  0  0  0  0
   17.4887   70.5310   -6.9713 N   0  0  0  0  0  0  0  0  0  0  0  0
   17.5465   70.6472   -9.3440 N   0  0  0  0  0  0  0  0  0  0  0  0
   16.7635   70.5734   -8.1849 C   0  0  0  0  0  0  0  0  0  0  0  0
   18.8789   70.5629   -6.9867 C   0  0  0  0  0  0  0  0  0  0  0  0
   19.6108   70.6320   -8.1007 C   0  0  0  0  0  0  0  0  0  0  0  0
   18.9304   70.6802   -9.4110 C   0  0  0  0  0  0  0  0  0  0  0  0
   17.0629   70.6774  -10.2013 H   0  0  0  0  0  0  0  0  0  0  0  0
   21.7071   71.0795   -2.5253 O   0  0  0  0  0  0  0  0  0  0  0  0
   23.0174   72.0021   -2.7371 P   0  0  2  0  0  0  0  0  0  0  0  0
   24.1628   70.9329   -3.1401 O   0  0  0  0  0  0  0  0  0  0  0  0
   23.3616   72.8626   -1.5560 O   0  0  0  0  0  0  0  0  0  0  0  0
   22.7258   72.8195   -4.0979 O   0  0  0  0  0  0  0  0  0  0  0  0
   22.8386   75.1635   -4.4286 O   0  0  0  0  0  0  0  0  0  0  0  0
   19.7912   74.2707   -7.0680 O   0  0  0  0  0  0  0  0  0  0  0  0
   22.3829   74.9798   -8.0820 O   0  0  0  0  0  0  0  0  0  0  0  0
   19.9538   72.8890   -4.5295 O   0  0  0  0  0  0  0  0  0  0  0  0
   21.0131   74.0387   -6.3619 C   0  0  1  0  0  0  0  0  0  0  0  0
   21.9947   75.1555   -6.7223 C   0  0  1  0  0  0  0  0  0  0  0  0
   20.7294   74.0359   -4.8610 C   0  0  2  0  0  0  0  0  0  0  0  0
   23.2262   75.1273   -5.8071 C   0  0  1  0  0  0  0  0  0  0  0  0
   22.0212   74.0571   -4.0419 C   0  0  1  0  0  0  0  0  0  0  0  0
   19.9643   74.2733   -8.0217 H   0  0  0  0  0  0  0  0  0  0  0  0
   21.5961   74.9991   -8.6492 H   0  0  0  0  0  0  0  0  0  0  0  0
   19.1387   72.8874   -5.0544 H   0  0  0  0  0  0  0  0  0  0  0  0
   24.9617   76.0498   -7.1658 O   0  0  0  0  0  0  0  0  0  0  0  0
   24.1427   76.3255   -6.0444 C   0  0  0  0  0  0  0  0  0  0  0  0
   25.5502   76.8039   -7.3289 H   0  0  0  0  0  0  0  0  0  0  0  0
 25 28  1  0
 25 24  1  0
 25 26  1  6
 25 27  2  0
  1  4  1  0
  1 24  1  0
  1  2  1  1
  1  3  2  0
  6 11  1  0
  6 12  1  0
 29 36  1  0
 29 37  1  0
  9  7  1  6
  7 13  1  0
 10  8  1  6
  8 14  1  0
 37 28  1  6
  4  5  1  0
 33 30  1  6
 30 38  1  0
 34 31  1  6
 31 39  1  0
 35 32  1  1
 32 40  1  0
 41 42  1  0
 41 43  1  0
 15 19  2  0
 16 22  2  0
 12 17  1  6
 17 19  1  0
 17 20  1  0
 18 19  1  0
 18 22  1  0
 18 23  1  0
  9 10  1  0
  9 11  1  0
 10 12  1  0
 11  5  1  6
 33 34  1  0
 33 35  1  0
 34 36  1  0
 35 37  1  0
 36 42  1  6
 20 21  2  0
 21 22  1  0
M  CHG  2   2  -1  26  -1
M  END
>  <COMPND>  (149) 
    8629 

>  <AUTHOR>  (149) 
    GENERATED BY OPEN BABEL 3.1.1

>  <MASTER>  (149) 
        0    0    0    0    0    0    0    0   58    0   58    0

>  <minimizedAffinity>  (149) 
-7.80852

>  <CNNscore>  (149) 
0.8420970440

>  <CNNaffinity>  (149) 
4.6182413101

>  <CNN_VS>  (149) 
3.8890073299

>  <CNNaffinity_variance>  (149) 
0.5684850812

$$$$
150
     RDKit          3D

 43 45  0  0  0  0  0  0  0  0999 V2000
   21.4705   71.6116   -3.8138 P   0  0  2  0  0  0  0  0  0  0  0  0
   21.6525   71.3000   -5.3909 O   0  0  0  0  0  0  0  0  0  0  0  0
   22.1733   70.6569   -2.8940 O   0  0  0  0  0  0  0  0  0  0  0  0
   19.8677   71.7209   -3.6219 O   0  0  0  0  0  0  0  0  0  0  0  0
   19.1208   70.5254   -3.4786 C   0  0  0  0  0  0  0  0  0  0  0  0
   17.4808   71.4561   -4.9679 O   0  0  0  0  0  0  0  0  0  0  0  0
   15.4383   69.9895   -3.3345 O   0  0  0  0  0  0  0  0  0  0  0  0
   15.7173   68.3823   -5.5198 O   0  0  0  0  0  0  0  0  0  0  0  0
   16.7624   69.5945   -3.6896 C   0  0  1  0  0  0  0  0  0  0  0  0
   16.8167   69.1882   -5.1475 C   0  0  2  0  0  0  0  0  0  0  0  0
   17.6433   70.8375   -3.6728 C   0  0  1  0  0  0  0  0  0  0  0  0
   16.8187   70.5351   -5.8502 C   0  0  2  0  0  0  0  0  0  0  0  0
   14.8572   69.2122   -3.3381 H   0  0  0  0  0  0  0  0  0  0  0  0
   15.7609   67.5368   -5.0464 H   0  0  0  0  0  0  0  0  0  0  0  0
   15.5780   70.6652   -8.3843 O   0  0  0  0  0  0  0  0  0  0  0  0
   19.6202   70.3879  -10.5808 O   0  0  0  0  0  0  0  0  0  0  0  0
   17.5228   70.4994   -7.1009 N   0  0  0  0  0  0  0  0  0  0  0  0
   17.5917   70.5272   -9.4759 N   0  0  0  0  0  0  0  0  0  0  0  0
   16.8052   70.5701   -8.3176 C   0  0  0  0  0  0  0  0  0  0  0  0
   18.9096   70.3957   -7.1127 C   0  0  0  0  0  0  0  0  0  0  0  0
   19.6447   70.3547   -8.2259 C   0  0  0  0  0  0  0  0  0  0  0  0
   18.9723   70.4233   -9.5393 C   0  0  0  0  0  0  0  0  0  0  0  0
   17.1134   70.5746  -10.3354 H   0  0  0  0  0  0  0  0  0  0  0  0
   21.9572   73.1479   -3.6884 O   0  0  0  0  0  0  0  0  0  0  0  0
   23.4346   73.8013   -3.7433 P   0  0  2  0  0  0  0  0  0  0  0  0
   24.3846   72.5412   -4.1002 O   0  0  0  0  0  0  0  0  0  0  0  0
   23.8277   74.5397   -2.4966 O   0  0  0  0  0  0  0  0  0  0  0  0
   23.4331   74.7027   -5.0822 O   0  0  0  0  0  0  0  0  0  0  0  0
   21.7394   75.9348   -6.1912 O   0  0  0  0  0  0  0  0  0  0  0  0
   23.6392   74.3160   -9.4808 O   0  0  0  0  0  0  0  0  0  0  0  0
   23.9424   77.1126   -8.9020 O   0  0  0  0  0  0  0  0  0  0  0  0
   23.3126   72.7342   -7.0786 O   0  0  0  0  0  0  0  0  0  0  0  0
   23.5579   74.8699   -8.1648 C   0  0  1  0  0  0  0  0  0  0  0  0
   22.9727   76.2794   -8.2730 C   0  0  1  0  0  0  0  0  0  0  0  0
   22.6631   73.9809   -7.3033 C   0  0  2  0  0  0  0  0  0  0  0  0
   22.6071   76.8351   -6.8900 C   0  0  1  0  0  0  0  0  0  0  0  0
   22.3197   74.6478   -5.9701 C   0  0  1  0  0  0  0  0  0  0  0  0
   24.2064   74.8755  -10.0328 H   0  0  0  0  0  0  0  0  0  0  0  0
   24.1649   76.7504   -9.7740 H   0  0  0  0  0  0  0  0  0  0  0  0
   23.5244   72.3220   -7.9300 H   0  0  0  0  0  0  0  0  0  0  0  0
   21.5568   78.4139   -8.3437 O   0  0  0  0  0  0  0  0  0  0  0  0
   21.8776   78.1733   -6.9860 C   0  0  0  0  0  0  0  0  0  0  0  0
   21.0918   79.2622   -8.4200 H   0  0  0  0  0  0  0  0  0  0  0  0
 25 28  1  0
 25 24  1  0
 25 26  1  6
 25 27  2  0
  1  4  1  0
  1 24  1  0
  1  2  1  6
  1  3  2  0
  6 11  1  0
  6 12  1  0
 29 36  1  0
 29 37  1  0
  9  7  1  6
  7 13  1  0
 10  8  1  6
  8 14  1  0
 37 28  1  1
  4  5  1  0
 33 30  1  6
 30 38  1  0
 34 31  1  1
 31 39  1  0
 35 32  1  1
 32 40  1  0
 41 42  1  0
 41 43  1  0
 15 19  2  0
 16 22  2  0
 12 17  1  6
 17 19  1  0
 17 20  1  0
 18 19  1  0
 18 22  1  0
 18 23  1  0
  9 10  1  0
  9 11  1  0
 10 12  1  0
 11  5  1  6
 33 34  1  0
 33 35  1  0
 34 36  1  0
 35 37  1  0
 36 42  1  6
 20 21  2  0
 21 22  1  0
M  CHG  2   2  -1  26  -1
M  END
>  <COMPND>  (150) 
    8629 

>  <AUTHOR>  (150) 
    GENERATED BY OPEN BABEL 3.1.1

>  <MASTER>  (150) 
        0    0    0    0    0    0    0    0   58    0   58    0

>  <minimizedAffinity>  (150) 
-7.27893

>  <CNNscore>  (150) 
0.8380088806

>  <CNNaffinity>  (150) 
4.6671552658

>  <CNN_VS>  (150) 
3.9111175537

>  <CNNaffinity_variance>  (150) 
0.1825052053

$$$$
151
     RDKit          3D

 43 45  0  0  0  0  0  0  0  0999 V2000
   22.7032   72.4044   -4.1239 P   0  0  2  0  0  0  0  0  0  0  0  0
   23.0687   73.4199   -5.3291 O   0  0  0  0  0  0  0  0  0  0  0  0
   23.8473   71.5682   -3.6307 O   0  0  0  0  0  0  0  0  0  0  0  0
   21.4233   71.5858   -4.6804 O   0  0  0  0  0  0  0  0  0  0  0  0
   20.7982   70.6451   -3.8247 C   0  0  0  0  0  0  0  0  0  0  0  0
   18.8583   71.6778   -4.7962 O   0  0  0  0  0  0  0  0  0  0  0  0
   17.3021   70.4233   -2.5611 O   0  0  0  0  0  0  0  0  0  0  0  0
   16.7894   68.7517   -4.6538 O   0  0  0  0  0  0  0  0  0  0  0  0
   18.4244   69.9110   -3.2776 C   0  0  1  0  0  0  0  0  0  0  0  0
   18.0060   69.4703   -4.6648 C   0  0  2  0  0  0  0  0  0  0  0  0
   19.3582   71.0758   -3.5821 C   0  0  1  0  0  0  0  0  0  0  0  0
   17.8948   70.7970   -5.3967 C   0  0  2  0  0  0  0  0  0  0  0  0
   16.6916   69.6975   -2.3551 H   0  0  0  0  0  0  0  0  0  0  0  0
   16.9116   67.9160   -4.1769 H   0  0  0  0  0  0  0  0  0  0  0  0
   15.9662   70.2290   -7.3806 O   0  0  0  0  0  0  0  0  0  0  0  0
   19.1187   70.3523  -10.7403 O   0  0  0  0  0  0  0  0  0  0  0  0
   18.1839   70.6754   -6.7978 N   0  0  0  0  0  0  0  0  0  0  0  0
   17.5374   70.2910   -9.0519 N   0  0  0  0  0  0  0  0  0  0  0  0
   17.1432   70.3870   -7.7112 C   0  0  0  0  0  0  0  0  0  0  0  0
   19.4871   70.8419   -7.2535 C   0  0  0  0  0  0  0  0  0  0  0  0
   19.8468   70.7459   -8.5352 C   0  0  0  0  0  0  0  0  0  0  0  0
   18.8197   70.4470   -9.5539 C   0  0  0  0  0  0  0  0  0  0  0  0
   16.8293   70.0904   -9.7062 H   0  0  0  0  0  0  0  0  0  0  0  0
   22.0542   73.3802   -3.0105 O   0  0  0  0  0  0  0  0  0  0  0  0
   22.7441   74.3698   -1.9345 P   0  0  2  0  0  0  0  0  0  0  0  0
   21.9733   75.7722   -2.1727 O   0  0  0  0  0  0  0  0  0  0  0  0
   24.2385   74.4574   -2.0488 O   0  0  0  0  0  0  0  0  0  0  0  0
   22.2121   73.8504   -0.5020 O   0  0  0  0  0  0  0  0  0  0  0  0
   22.9917   71.6464   -0.1129 O   0  0  0  0  0  0  0  0  0  0  0  0
   20.4882   72.0458    3.1465 O   0  0  0  0  0  0  0  0  0  0  0  0
   23.3340   72.0815    3.5316 O   0  0  0  0  0  0  0  0  0  0  0  0
   19.7196   73.1646    0.5898 O   0  0  0  0  0  0  0  0  0  0  0  0
   21.4199   72.4909    2.1570 C   0  0  1  0  0  0  0  0  0  0  0  0
   22.7095   71.6827    2.3146 C   0  0  1  0  0  0  0  0  0  0  0  0
   20.8164   72.2753    0.7704 C   0  0  2  0  0  0  0  0  0  0  0  0
   23.6555   71.9123    1.1282 C   0  0  1  0  0  0  0  0  0  0  0  0
   21.8534   72.4811   -0.3352 C   0  0  1  0  0  0  0  0  0  0  0  0
   20.8652   72.1804    4.0293 H   0  0  0  0  0  0  0  0  0  0  0  0
   22.7260   71.9319    4.2726 H   0  0  0  0  0  0  0  0  0  0  0  0
   19.0700   73.0242    1.2957 H   0  0  0  0  0  0  0  0  0  0  0  0
   24.5712   69.8907    2.0136 O   0  0  0  0  0  0  0  0  0  0  0  0
   24.8771   70.9976    1.1856 C   0  0  0  0  0  0  0  0  0  0  0  0
   25.3395   69.2997    2.0592 H   0  0  0  0  0  0  0  0  0  0  0  0
 25 28  1  0
 25 24  1  0
 25 26  1  6
 25 27  2  0
  1  4  1  0
  1 24  1  0
  1  2  1  6
  1  3  2  0
  6 11  1  0
  6 12  1  0
 29 36  1  0
 29 37  1  0
  9  7  1  1
  7 13  1  0
 10  8  1  1
  8 14  1  0
 37 28  1  1
  4  5  1  0
 33 30  1  1
 30 38  1  0
 34 31  1  1
 31 39  1  0
 35 32  1  6
 32 40  1  0
 41 42  1  0
 41 43  1  0
 15 19  2  0
 16 22  2  0
 12 17  1  6
 17 19  1  0
 17 20  1  0
 18 19  1  0
 18 22  1  0
 18 23  1  0
  9 10  1  0
  9 11  1  0
 10 12  1  0
 11  5  1  6
 33 34  1  0
 33 35  1  0
 34 36  1  0
 35 37  1  0
 36 42  1  1
 20 21  2  0
 21 22  1  0
M  CHG  2   2  -1  26  -1
M  END
>  <COMPND>  (151) 
    8629 

>  <AUTHOR>  (151) 
    GENERATED BY OPEN BABEL 3.1.1

>  <MASTER>  (151) 
        0    0    0    0    0    0    0    0   58    0   58    0

>  <minimizedAffinity>  (151) 
-7.81652

>  <CNNscore>  (151) 
0.8371983767

>  <CNNaffinity>  (151) 
4.6660518646

>  <CNN_VS>  (151) 
3.9064109325

>  <CNNaffinity_variance>  (151) 
0.0402221978

$$$$
152
     RDKit          3D

 43 45  0  0  0  0  0  0  0  0999 V2000
   20.7124   72.0151   -5.2066 P   0  0  2  0  0  0  0  0  0  0  0  0
   20.1884   71.0049   -4.0567 O   0  0  0  0  0  0  0  0  0  0  0  0
   19.9420   73.2975   -5.3228 O   0  0  0  0  0  0  0  0  0  0  0  0
   20.7555   71.0982   -6.5390 O   0  0  0  0  0  0  0  0  0  0  0  0
   20.1368   71.5869   -7.7164 C   0  0  0  0  0  0  0  0  0  0  0  0
   18.7074   69.7013   -7.2977 O   0  0  0  0  0  0  0  0  0  0  0  0
   17.8690   69.9374  -10.1669 O   0  0  0  0  0  0  0  0  0  0  0  0
   15.7952   71.1133   -8.8430 O   0  0  0  0  0  0  0  0  0  0  0  0
   18.1905   70.9671   -9.2333 C   0  0  1  0  0  0  0  0  0  0  0  0
   17.0684   71.1366   -8.2304 C   0  0  2  0  0  0  0  0  0  0  0  0
   19.3293   70.4648   -8.3544 C   0  0  1  0  0  0  0  0  0  0  0  0
   17.2929   69.9541   -7.3034 C   0  0  2  0  0  0  0  0  0  0  0  0
   17.1443   70.2351  -10.7396 H   0  0  0  0  0  0  0  0  0  0  0  0
   15.7008   71.8854   -9.4224 H   0  0  0  0  0  0  0  0  0  0  0  0
   16.2996   67.9959   -5.5267 O   0  0  0  0  0  0  0  0  0  0  0  0
   15.6663   71.0952   -2.1749 O   0  0  0  0  0  0  0  0  0  0  0  0
   16.8616   70.2215   -5.9603 N   0  0  0  0  0  0  0  0  0  0  0  0
   15.9852   69.5406   -3.8592 N   0  0  0  0  0  0  0  0  0  0  0  0
   16.3783   69.1673   -5.1507 C   0  0  0  0  0  0  0  0  0  0  0  0
   16.9205   71.5171   -5.4585 C   0  0  0  0  0  0  0  0  0  0  0  0
   16.5406   71.8568   -4.2250 C   0  0  0  0  0  0  0  0  0  0  0  0
   16.0236   70.8146   -3.3149 C   0  0  0  0  0  0  0  0  0  0  0  0
   15.6448   68.8228   -3.2773 H   0  0  0  0  0  0  0  0  0  0  0  0
   22.2763   72.2006   -4.8424 O   0  0  0  0  0  0  0  0  0  0  0  0
   23.0199   73.2407   -3.8533 P   0  0  2  0  0  0  0  0  0  0  0  0
   24.5878   72.9137   -4.0819 O   0  0  0  0  0  0  0  0  0  0  0  0
   22.5719   73.1570   -2.4229 O   0  0  0  0  0  0  0  0  0  0  0  0
   22.8004   74.6850   -4.5396 O   0  0  0  0  0  0  0  0  0  0  0  0
   24.3950   75.6152   -6.0257 O   0  0  0  0  0  0  0  0  0  0  0  0
   22.5706   79.0942   -4.7534 O   0  0  0  0  0  0  0  0  0  0  0  0
   22.0872   78.1314   -7.4156 O   0  0  0  0  0  0  0  0  0  0  0  0
   23.0299   76.9360   -2.8797 O   0  0  0  0  0  0  0  0  0  0  0  0
   22.6295   77.7141   -5.1237 C   0  0  1  0  0  0  0  0  0  0  0  0
   23.1177   77.6263   -6.5710 C   0  0  1  0  0  0  0  0  0  0  0  0
   23.5918   76.9865   -4.1867 C   0  0  2  0  0  0  0  0  0  0  0  0
   23.4610   76.1802   -6.9532 C   0  0  1  0  0  0  0  0  0  0  0  0
   23.9048   75.5741   -4.6841 C   0  0  1  0  0  0  0  0  0  0  0  0
   21.9609   79.5619   -5.3442 H   0  0  0  0  0  0  0  0  0  0  0  0
   21.8795   79.0449   -7.1635 H   0  0  0  0  0  0  0  0  0  0  0  0
   22.8365   77.8362   -2.5760 H   0  0  0  0  0  0  0  0  0  0  0  0
   23.0652   76.0185   -9.3039 O   0  0  0  0  0  0  0  0  0  0  0  0
   24.0979   76.0905   -8.3382 C   0  0  0  0  0  0  0  0  0  0  0  0
   23.4558   75.9612  -10.1904 H   0  0  0  0  0  0  0  0  0  0  0  0
 25 28  1  0
 25 24  1  0
 25 26  1  1
 25 27  2  0
  1  4  1  0
  1 24  1  0
  1  2  1  1
  1  3  2  0
  6 11  1  0
  6 12  1  0
 29 36  1  0
 29 37  1  0
  9  7  1  6
  7 13  1  0
 10  8  1  6
  8 14  1  0
 37 28  1  6
  4  5  1  0
 33 30  1  1
 30 38  1  0
 34 31  1  6
 31 39  1  0
 35 32  1  1
 32 40  1  0
 41 42  1  0
 41 43  1  0
 15 19  2  0
 16 22  2  0
 12 17  1  1
 17 19  1  0
 17 20  1  0
 18 19  1  0
 18 22  1  0
 18 23  1  0
  9 10  1  0
  9 11  1  0
 10 12  1  0
 11  5  1  1
 33 34  1  0
 33 35  1  0
 34 36  1  0
 35 37  1  0
 36 42  1  6
 20 21  2  0
 21 22  1  0
M  CHG  2   2  -1  26  -1
M  END
>  <COMPND>  (152) 
    8629 

>  <AUTHOR>  (152) 
    GENERATED BY OPEN BABEL 3.1.1

>  <MASTER>  (152) 
        0    0    0    0    0    0    0    0   58    0   58    0

>  <minimizedAffinity>  (152) 
-6.50897

>  <CNNscore>  (152) 
0.8325505853

>  <CNNaffinity>  (152) 
4.4251213074

>  <CNN_VS>  (152) 
3.6841373444

>  <CNNaffinity_variance>  (152) 
0.2570416033

$$$$
153
     RDKit          3D

 43 45  0  0  0  0  0  0  0  0999 V2000
   20.1167   73.5599   -1.7873 P   0  0  2  0  0  0  0  0  0  0  0  0
   19.4794   74.3816   -0.5479 O   0  0  0  0  0  0  0  0  0  0  0  0
   21.3597   74.1615   -2.3743 O   0  0  0  0  0  0  0  0  0  0  0  0
   18.8760   73.3739   -2.8091 O   0  0  0  0  0  0  0  0  0  0  0  0
   18.8142   72.1929   -3.5896 C   0  0  0  0  0  0  0  0  0  0  0  0
   16.9618   71.9376   -5.0987 O   0  0  0  0  0  0  0  0  0  0  0  0
   15.7722   70.1178   -3.0338 O   0  0  0  0  0  0  0  0  0  0  0  0
   16.7946   68.3634   -4.8541 O   0  0  0  0  0  0  0  0  0  0  0  0
   17.1386   70.2870   -3.4075 C   0  0  1  0  0  0  0  0  0  0  0  0
   17.4014   69.6352   -4.7490 C   0  0  2  0  0  0  0  0  0  0  0  0
   17.3600   71.7614   -3.7215 C   0  0  1  0  0  0  0  0  0  0  0  0
   16.8073   70.6479   -5.7132 C   0  0  2  0  0  0  0  0  0  0  0  0
   15.6068   69.1838   -2.8282 H   0  0  0  0  0  0  0  0  0  0  0  0
   17.2068   67.7550   -4.2211 H   0  0  0  0  0  0  0  0  0  0  0  0
   15.4917   70.5664   -8.2113 O   0  0  0  0  0  0  0  0  0  0  0  0
   19.4788   70.6715  -10.5207 O   0  0  0  0  0  0  0  0  0  0  0  0
   17.4770   70.6533   -6.9832 N   0  0  0  0  0  0  0  0  0  0  0  0
   17.4780   70.6189   -9.3592 N   0  0  0  0  0  0  0  0  0  0  0  0
   16.7233   70.6089   -8.1792 C   0  0  0  0  0  0  0  0  0  0  0  0
   18.8658   70.7024   -7.0341 C   0  0  0  0  0  0  0  0  0  0  0  0
   19.5705   70.7101   -8.1675 C   0  0  0  0  0  0  0  0  0  0  0  0
   18.8593   70.6658   -9.4614 C   0  0  0  0  0  0  0  0  0  0  0  0
   16.9743   70.5882  -10.2048 H   0  0  0  0  0  0  0  0  0  0  0  0
   20.3110   72.0754   -1.1777 O   0  0  0  0  0  0  0  0  0  0  0  0
   21.5228   71.4278   -0.3262 P   0  0  2  0  0  0  0  0  0  0  0  0
   22.6079   71.0393   -1.4617 O   0  0  0  0  0  0  0  0  0  0  0  0
   21.1127   70.2840    0.5556 O   0  0  0  0  0  0  0  0  0  0  0  0
   22.1825   72.6743    0.4586 O   0  0  0  0  0  0  0  0  0  0  0  0
   23.3311   71.8555    2.3630 O   0  0  0  0  0  0  0  0  0  0  0  0
   23.7717   75.9085    3.0187 O   0  0  0  0  0  0  0  0  0  0  0  0
   26.0372   74.3524    2.1857 O   0  0  0  0  0  0  0  0  0  0  0  0
   21.2882   74.8814    1.9432 O   0  0  0  0  0  0  0  0  0  0  0  0
   23.6741   74.7192    2.2305 C   0  0  1  0  0  0  0  0  0  0  0  0
   24.8122   73.7805    2.6358 C   0  0  1  0  0  0  0  0  0  0  0  0
   22.3188   74.0619    2.4843 C   0  0  2  0  0  0  0  0  0  0  0  0
   24.6204   72.3835    2.0302 C   0  0  1  0  0  0  0  0  0  0  0  0
   22.2506   72.6573    1.8821 C   0  0  1  0  0  0  0  0  0  0  0  0
   24.6298   76.3310    2.8618 H   0  0  0  0  0  0  0  0  0  0  0  0
   26.1460   75.2344    2.5750 H   0  0  0  0  0  0  0  0  0  0  0  0
   21.3420   75.7676    2.3326 H   0  0  0  0  0  0  0  0  0  0  0  0
   25.0626   70.1045    2.5956 O   0  0  0  0  0  0  0  0  0  0  0  0
   25.6570   71.3886    2.5476 C   0  0  0  0  0  0  0  0  0  0  0  0
   25.7110   69.4609    2.9229 H   0  0  0  0  0  0  0  0  0  0  0  0
 25 28  1  0
 25 24  1  0
 25 26  1  6
 25 27  2  0
  1  4  1  0
  1 24  1  0
  1  2  1  1
  1  3  2  0
  6 11  1  0
  6 12  1  0
 29 36  1  0
 29 37  1  0
  9  7  1  6
  7 13  1  0
 10  8  1  1
  8 14  1  0
 37 28  1  6
  4  5  1  0
 33 30  1  1
 30 38  1  0
 34 31  1  6
 31 39  1  0
 35 32  1  6
 32 40  1  0
 41 42  1  0
 41 43  1  0
 15 19  2  0
 16 22  2  0
 12 17  1  6
 17 19  1  0
 17 20  1  0
 18 19  1  0
 18 22  1  0
 18 23  1  0
  9 10  1  0
  9 11  1  0
 10 12  1  0
 11  5  1  6
 33 34  1  0
 33 35  1  0
 34 36  1  0
 35 37  1  0
 36 42  1  1
 20 21  2  0
 21 22  1  0
M  CHG  2   2  -1  26  -1
M  END
>  <COMPND>  (153) 
    8629 

>  <AUTHOR>  (153) 
    GENERATED BY OPEN BABEL 3.1.1

>  <MASTER>  (153) 
        0    0    0    0    0    0    0    0   58    0   58    0

>  <minimizedAffinity>  (153) 
-7.03225

>  <CNNscore>  (153) 
0.8278603554

>  <CNNaffinity>  (153) 
4.5250158310

>  <CNN_VS>  (153) 
3.7460811138

>  <CNNaffinity_variance>  (153) 
0.0313685313

$$$$
154
     RDKit          3D

 43 45  0  0  0  0  0  0  0  0999 V2000
   19.7089   70.9797   -2.5362 P   0  0  2  0  0  0  0  0  0  0  0  0
   19.6288   70.2924   -1.0738 O   0  0  0  0  0  0  0  0  0  0  0  0
   20.4831   70.2028   -3.5601 O   0  0  0  0  0  0  0  0  0  0  0  0
   20.2478   72.4750   -2.2336 O   0  0  0  0  0  0  0  0  0  0  0  0
   20.7651   72.7595   -0.9455 C   0  0  0  0  0  0  0  0  0  0  0  0
   22.8162   73.4140    0.1215 O   0  0  0  0  0  0  0  0  0  0  0  0
   24.0995   71.1593   -1.3821 O   0  0  0  0  0  0  0  0  0  0  0  0
   23.7744   70.1025    1.1107 O   0  0  0  0  0  0  0  0  0  0  0  0
   22.7962   71.2335   -0.8064 C   0  0  1  0  0  0  0  0  0  0  0  0
   22.8800   71.1170    0.7013 C   0  0  2  0  0  0  0  0  0  0  0  0
   22.2837   72.6569   -0.9874 C   0  0  1  0  0  0  0  0  0  0  0  0
   23.3496   72.5060    1.0991 C   0  0  2  0  0  0  0  0  0  0  0  0
   24.4475   70.2592   -1.2790 H   0  0  0  0  0  0  0  0  0  0  0  0
   23.4316   69.2382    0.8346 H   0  0  0  0  0  0  0  0  0  0  0  0
   20.8368   71.7816    2.1664 O   0  0  0  0  0  0  0  0  0  0  0  0
   21.6498   74.0442    6.0984 O   0  0  0  0  0  0  0  0  0  0  0  0
   22.8790   72.8917    2.3995 N   0  0  0  0  0  0  0  0  0  0  0  0
   21.2437   72.9087    4.1234 N   0  0  0  0  0  0  0  0  0  0  0  0
   21.6009   72.4760    2.8400 C   0  0  0  0  0  0  0  0  0  0  0  0
   23.6818   73.6733    3.2233 C   0  0  0  0  0  0  0  0  0  0  0  0
   23.3259   74.0786    4.4441 C   0  0  0  0  0  0  0  0  0  0  0  0
   22.0060   73.6874    4.9797 C   0  0  0  0  0  0  0  0  0  0  0  0
   20.3575   72.6315    4.4513 H   0  0  0  0  0  0  0  0  0  0  0  0
   18.1549   71.2222   -2.9094 O   0  0  0  0  0  0  0  0  0  0  0  0
   17.0328   70.2139   -3.4902 P   0  0  2  0  0  0  0  0  0  0  0  0
   15.6432   70.9687   -3.1487 O   0  0  0  0  0  0  0  0  0  0  0  0
   17.1257   68.8148   -2.9534 O   0  0  0  0  0  0  0  0  0  0  0  0
   17.1740   70.3256   -5.0941 O   0  0  0  0  0  0  0  0  0  0  0  0
   18.8112   71.4433   -6.3929 O   0  0  0  0  0  0  0  0  0  0  0  0
   15.5102   72.0997   -8.7852 O   0  0  0  0  0  0  0  0  0  0  0  0
   17.5203   70.2283   -9.6249 O   0  0  0  0  0  0  0  0  0  0  0  0
   15.2481   72.1992   -5.9040 O   0  0  0  0  0  0  0  0  0  0  0  0
   16.3390   71.3631   -7.8820 C   0  0  1  0  0  0  0  0  0  0  0  0
   17.6987   71.1447   -8.5485 C   0  0  1  0  0  0  0  0  0  0  0  0
   16.4963   72.1583   -6.5873 C   0  0  2  0  0  0  0  0  0  0  0  0
   18.7254   70.5991   -7.5468 C   0  0  1  0  0  0  0  0  0  0  0  0
   17.5758   71.5592   -5.6841 C   0  0  1  0  0  0  0  0  0  0  0  0
   15.4058   71.6000   -9.6092 H   0  0  0  0  0  0  0  0  0  0  0  0
   16.8693   70.5845  -10.2499 H   0  0  0  0  0  0  0  0  0  0  0  0
   14.5733   72.5807   -6.4862 H   0  0  0  0  0  0  0  0  0  0  0  0
   20.5146   71.8232   -8.5515 O   0  0  0  0  0  0  0  0  0  0  0  0
   20.1268   70.5225   -8.1487 C   0  0  0  0  0  0  0  0  0  0  0  0
   21.4048   71.7899   -8.9362 H   0  0  0  0  0  0  0  0  0  0  0  0
 25 28  1  0
 25 24  1  0
 25 26  1  6
 25 27  2  0
  1  4  1  0
  1 24  1  0
  1  2  1  1
  1  3  2  0
  6 11  1  0
  6 12  1  0
 29 36  1  0
 29 37  1  0
  9  7  1  6
  7 13  1  0
 10  8  1  6
  8 14  1  0
 37 28  1  6
  4  5  1  0
 33 30  1  6
 30 38  1  0
 34 31  1  6
 31 39  1  0
 35 32  1  1
 32 40  1  0
 41 42  1  0
 41 43  1  0
 15 19  2  0
 16 22  2  0
 12 17  1  1
 17 19  1  0
 17 20  1  0
 18 19  1  0
 18 22  1  0
 18 23  1  0
  9 10  1  0
  9 11  1  0
 10 12  1  0
 11  5  1  1
 33 34  1  0
 33 35  1  0
 34 36  1  0
 35 37  1  0
 36 42  1  6
 20 21  2  0
 21 22  1  0
M  CHG  2   2  -1  26  -1
M  END
>  <COMPND>  (154) 
    8629 

>  <AUTHOR>  (154) 
    GENERATED BY OPEN BABEL 3.1.1

>  <MASTER>  (154) 
        0    0    0    0    0    0    0    0   58    0   58    0

>  <minimizedAffinity>  (154) 
-7.53128

>  <CNNscore>  (154) 
0.7941100001

>  <CNNaffinity>  (154) 
4.5033440590

>  <CNN_VS>  (154) 
3.5761506557

>  <CNNaffinity_variance>  (154) 
0.2083782256

$$$$
155
     RDKit          3D

 43 45  0  0  0  0  0  0  0  0999 V2000
   21.8806   72.5197   -5.6081 P   0  0  2  0  0  0  0  0  0  0  0  0
   21.2231   73.9838   -5.4046 O   0  0  0  0  0  0  0  0  0  0  0  0
   23.1591   72.5026   -6.3933 O   0  0  0  0  0  0  0  0  0  0  0  0
   20.6716   71.6318   -6.2146 O   0  0  0  0  0  0  0  0  0  0  0  0
   20.0951   72.0268   -7.4473 C   0  0  0  0  0  0  0  0  0  0  0  0
   18.8921   69.9812   -7.0700 O   0  0  0  0  0  0  0  0  0  0  0  0
   18.1437   70.1053   -9.9709 O   0  0  0  0  0  0  0  0  0  0  0  0
   15.8914   71.0215   -8.7363 O   0  0  0  0  0  0  0  0  0  0  0  0
   18.3000   71.1691   -9.0332 C   0  0  1  0  0  0  0  0  0  0  0  0
   17.1273   71.2024   -8.0755 C   0  0  2  0  0  0  0  0  0  0  0  0
   19.4566   70.8125   -8.1076 C   0  0  1  0  0  0  0  0  0  0  0  0
   17.4586   70.0587   -7.1319 C   0  0  2  0  0  0  0  0  0  0  0  0
   17.4108   70.3104  -10.5732 H   0  0  0  0  0  0  0  0  0  0  0  0
   15.7259   71.7747   -9.3246 H   0  0  0  0  0  0  0  0  0  0  0  0
   16.3016   68.0476   -5.5210 O   0  0  0  0  0  0  0  0  0  0  0  0
   15.5234   71.0027   -2.0709 O   0  0  0  0  0  0  0  0  0  0  0  0
   16.9457   70.2747   -5.8083 N   0  0  0  0  0  0  0  0  0  0  0  0
   15.9152   69.5206   -3.8044 N   0  0  0  0  0  0  0  0  0  0  0  0
   16.3839   69.1974   -5.0842 C   0  0  0  0  0  0  0  0  0  0  0  0
   17.0030   71.5432   -5.2414 C   0  0  0  0  0  0  0  0  0  0  0  0
   16.5505   71.8351   -4.0202 C   0  0  0  0  0  0  0  0  0  0  0  0
   15.9487   70.7661   -3.1974 C   0  0  0  0  0  0  0  0  0  0  0  0
   15.5193   68.7860   -3.2815 H   0  0  0  0  0  0  0  0  0  0  0  0
   22.0132   71.9674   -4.0947 O   0  0  0  0  0  0  0  0  0  0  0  0
   23.2494   72.0089   -3.0540 P   0  0  2  0  0  0  0  0  0  0  0  0
   23.9478   73.4349   -3.3642 O   0  0  0  0  0  0  0  0  0  0  0  0
   24.1757   70.8314   -3.1516 O   0  0  0  0  0  0  0  0  0  0  0  0
   22.5594   72.1989   -1.6074 O   0  0  0  0  0  0  0  0  0  0  0  0
   23.4695   70.6478   -0.0640 O   0  0  0  0  0  0  0  0  0  0  0  0
   20.4454   72.2086    2.2747 O   0  0  0  0  0  0  0  0  0  0  0  0
   23.1753   72.8977    2.8412 O   0  0  0  0  0  0  0  0  0  0  0  0
   19.9987   71.7542   -0.5490 O   0  0  0  0  0  0  0  0  0  0  0  0
   21.4789   72.2443    1.2868 C   0  0  1  0  0  0  0  0  0  0  0  0
   22.7961   71.8473    1.9562 C   0  0  1  0  0  0  0  0  0  0  0  0
   21.1306   71.2682    0.1646 C   0  0  2  0  0  0  0  0  0  0  0  0
   23.8958   71.6036    0.9139 C   0  0  1  0  0  0  0  0  0  0  0  0
   22.3088   71.0597   -0.7885 C   0  0  1  0  0  0  0  0  0  0  0  0
   20.6602   72.8266    2.9899 H   0  0  0  0  0  0  0  0  0  0  0  0
   22.4722   73.0418    3.4940 H   0  0  0  0  0  0  0  0  0  0  0  0
   19.2597   71.8818    0.0653 H   0  0  0  0  0  0  0  0  0  0  0  0
   24.8136   70.2374    2.6460 O   0  0  0  0  0  0  0  0  0  0  0  0
   25.1725   71.0548    1.5472 C   0  0  0  0  0  0  0  0  0  0  0  0
   25.6163   69.8809    3.0587 H   0  0  0  0  0  0  0  0  0  0  0  0
 25 28  1  0
 25 24  1  0
 25 26  1  6
 25 27  2  0
  1  4  1  0
  1 24  1  0
  1  2  1  1
  1  3  2  0
  6 11  1  0
  6 12  1  0
 29 36  1  0
 29 37  1  0
  9  7  1  6
  7 13  1  0
 10  8  1  6
  8 14  1  0
 37 28  1  1
  4  5  1  0
 33 30  1  1
 30 38  1  0
 34 31  1  1
 31 39  1  0
 35 32  1  6
 32 40  1  0
 41 42  1  0
 41 43  1  0
 15 19  2  0
 16 22  2  0
 12 17  1  1
 17 19  1  0
 17 20  1  0
 18 19  1  0
 18 22  1  0
 18 23  1  0
  9 10  1  0
  9 11  1  0
 10 12  1  0
 11  5  1  1
 33 34  1  0
 33 35  1  0
 34 36  1  0
 35 37  1  0
 36 42  1  1
 20 21  2  0
 21 22  1  0
M  CHG  2   2  -1  26  -1
M  END
>  <COMPND>  (155) 
    8629 

>  <AUTHOR>  (155) 
    GENERATED BY OPEN BABEL 3.1.1

>  <MASTER>  (155) 
        0    0    0    0    0    0    0    0   58    0   58    0

>  <minimizedAffinity>  (155) 
-8.38860

>  <CNNscore>  (155) 
0.7175461650

>  <CNNaffinity>  (155) 
4.4763498306

>  <CNN_VS>  (155) 
3.2119877338

>  <CNNaffinity_variance>  (155) 
0.2626522481

$$$$
156
     RDKit          3D

 43 45  0  0  0  0  0  0  0  0999 V2000
   23.4787   71.8711   -3.3068 P   0  0  2  0  0  0  0  0  0  0  0  0
   24.1813   72.8937   -4.3450 O   0  0  0  0  0  0  0  0  0  0  0  0
   24.3101   70.6805   -2.9291 O   0  0  0  0  0  0  0  0  0  0  0  0
   22.0506   71.5418   -3.9923 O   0  0  0  0  0  0  0  0  0  0  0  0
   21.5431   72.4410   -4.9628 C   0  0  0  0  0  0  0  0  0  0  0  0
   20.5584   70.5022   -5.9851 O   0  0  0  0  0  0  0  0  0  0  0  0
   20.8280   71.9682   -8.5868 O   0  0  0  0  0  0  0  0  0  0  0  0
   18.1923   72.3153   -7.9793 O   0  0  0  0  0  0  0  0  0  0  0  0
   20.5185   72.4791   -7.2913 C   0  0  1  0  0  0  0  0  0  0  0  0
   19.0968   72.1217   -6.9110 C   0  0  2  0  0  0  0  0  0  0  0  0
   21.3287   71.6904   -6.2700 C   0  0  1  0  0  0  0  0  0  0  0  0
   19.2335   70.6605   -6.5183 C   0  0  2  0  0  0  0  0  0  0  0  0
   20.3226   72.4567   -9.2561 H   0  0  0  0  0  0  0  0  0  0  0  0
   18.1401   73.2602   -8.1918 H   0  0  0  0  0  0  0  0  0  0  0  0
   16.6032   69.7950   -7.0756 O   0  0  0  0  0  0  0  0  0  0  0  0
   15.6593   69.1901   -2.6052 O   0  0  0  0  0  0  0  0  0  0  0  0
   18.2791   70.2703   -5.5191 N   0  0  0  0  0  0  0  0  0  0  0  0
   16.1354   69.4943   -4.8492 N   0  0  0  0  0  0  0  0  0  0  0  0
   16.9840   69.8523   -5.9045 C   0  0  0  0  0  0  0  0  0  0  0  0
   18.6309   70.3041   -4.1741 C   0  0  0  0  0  0  0  0  0  0  0  0
   17.8095   69.9608   -3.1798 C   0  0  0  0  0  0  0  0  0  0  0  0
   16.4382   69.5123   -3.4969 C   0  0  0  0  0  0  0  0  0  0  0  0
   15.2279   69.2002   -5.0937 H   0  0  0  0  0  0  0  0  0  0  0  0
   23.0752   72.8297   -2.0693 O   0  0  0  0  0  0  0  0  0  0  0  0
   21.9119   72.6922   -0.9554 P   0  0  2  0  0  0  0  0  0  0  0  0
   21.7383   71.0916   -0.7958 O   0  0  0  0  0  0  0  0  0  0  0  0
   20.6446   73.4216   -1.2960 O   0  0  0  0  0  0  0  0  0  0  0  0
   22.6070   73.1663    0.4219 O   0  0  0  0  0  0  0  0  0  0  0  0
   24.6158   72.6218    1.5555 O   0  0  0  0  0  0  0  0  0  0  0  0
   22.0153   72.5768    4.7627 O   0  0  0  0  0  0  0  0  0  0  0  0
   23.8933   74.7325    4.4901 O   0  0  0  0  0  0  0  0  0  0  0  0
   21.1619   71.5429    2.1971 O   0  0  0  0  0  0  0  0  0  0  0  0
   22.5285   73.0316    3.5076 C   0  0  1  0  0  0  0  0  0  0  0  0
   23.9579   73.5311    3.7266 C   0  0  1  0  0  0  0  0  0  0  0  0
   22.5103   71.8736    2.5117 C   0  0  2  0  0  0  0  0  0  0  0  0
   24.6669   73.7853    2.3895 C   0  0  1  0  0  0  0  0  0  0  0  0
   23.2843   72.2129    1.2366 C   0  0  1  0  0  0  0  0  0  0  0  0
   22.0237   73.3075    5.3995 H   0  0  0  0  0  0  0  0  0  0  0  0
   23.4430   74.5584    5.3316 H   0  0  0  0  0  0  0  0  0  0  0  0
   20.6827   71.3298    3.0125 H   0  0  0  0  0  0  0  0  0  0  0  0
   26.5205   73.7737    3.8971 O   0  0  0  0  0  0  0  0  0  0  0  0
   26.1417   74.1324    2.5810 C   0  0  0  0  0  0  0  0  0  0  0  0
   27.4570   73.9887    4.0333 H   0  0  0  0  0  0  0  0  0  0  0  0
 25 28  1  0
 25 24  1  0
 25 26  1  1
 25 27  2  0
  1  4  1  0
  1 24  1  0
  1  2  1  6
  1  3  2  0
  6 11  1  0
  6 12  1  0
 29 36  1  0
 29 37  1  0
  9  7  1  6
  7 13  1  0
 10  8  1  6
  8 14  1  0
 37 28  1  1
  4  5  1  0
 33 30  1  1
 30 38  1  0
 34 31  1  1
 31 39  1  0
 35 32  1  6
 32 40  1  0
 41 42  1  0
 41 43  1  0
 15 19  2  0
 16 22  2  0
 12 17  1  1
 17 19  1  0
 17 20  1  0
 18 19  1  0
 18 22  1  0
 18 23  1  0
  9 10  1  0
  9 11  1  0
 10 12  1  0
 11  5  1  1
 33 34  1  0
 33 35  1  0
 34 36  1  0
 35 37  1  0
 36 42  1  1
 20 21  2  0
 21 22  1  0
M  CHG  2   2  -1  26  -1
M  END
>  <COMPND>  (156) 
    8629 

>  <AUTHOR>  (156) 
    GENERATED BY OPEN BABEL 3.1.1

>  <MASTER>  (156) 
        0    0    0    0    0    0    0    0   58    0   58    0

>  <minimizedAffinity>  (156) 
-7.67916

>  <CNNscore>  (156) 
0.6828261614

>  <CNNaffinity>  (156) 
4.4011182785

>  <CNN_VS>  (156) 
3.0051987171

>  <CNNaffinity_variance>  (156) 
0.0922452509

$$$$
157
     RDKit          3D

 43 45  0  0  0  0  0  0  0  0999 V2000
   22.2247   72.7144   -6.5353 P   0  0  2  0  0  0  0  0  0  0  0  0
   23.0504   73.4338   -7.7261 O   0  0  0  0  0  0  0  0  0  0  0  0
   23.0686   72.1477   -5.4316 O   0  0  0  0  0  0  0  0  0  0  0  0
   21.2733   71.6568   -7.3061 O   0  0  0  0  0  0  0  0  0  0  0  0
   20.0977   72.1378   -7.9341 C   0  0  0  0  0  0  0  0  0  0  0  0
   19.2786   70.0069   -7.1844 O   0  0  0  0  0  0  0  0  0  0  0  0
   17.0789   70.3563   -9.1919 O   0  0  0  0  0  0  0  0  0  0  0  0
   15.8599   71.0383   -6.8498 O   0  0  0  0  0  0  0  0  0  0  0  0
   17.7246   71.3367   -8.3812 C   0  0  1  0  0  0  0  0  0  0  0  0
   17.2578   71.2217   -6.9451 C   0  0  2  0  0  0  0  0  0  0  0  0
   19.1960   70.9575   -8.2687 C   0  0  1  0  0  0  0  0  0  0  0  0
   18.0405   70.0154   -6.4550 C   0  0  2  0  0  0  0  0  0  0  0  0
   16.1379   70.5774   -9.2785 H   0  0  0  0  0  0  0  0  0  0  0  0
   15.4066   71.8324   -7.1733 H   0  0  0  0  0  0  0  0  0  0  0  0
   16.2871   69.1333   -4.4239 O   0  0  0  0  0  0  0  0  0  0  0  0
   19.2467   70.3245   -1.0978 O   0  0  0  0  0  0  0  0  0  0  0  0
   18.3276   70.0828   -5.0498 N   0  0  0  0  0  0  0  0  0  0  0  0
   17.7623   69.7270   -2.7694 N   0  0  0  0  0  0  0  0  0  0  0  0
   17.3787   69.6136   -4.1118 C   0  0  0  0  0  0  0  0  0  0  0  0
   19.5389   70.6092   -4.6145 C   0  0  0  0  0  0  0  0  0  0  0  0
   19.8890   70.7115   -3.3306 C   0  0  0  0  0  0  0  0  0  0  0  0
   18.9541   70.2440   -2.2869 C   0  0  0  0  0  0  0  0  0  0  0  0
   17.1168   69.4068   -2.0981 H   0  0  0  0  0  0  0  0  0  0  0  0
   21.1874   73.8624   -6.0672 O   0  0  0  0  0  0  0  0  0  0  0  0
   21.4296   75.2601   -5.2923 P   0  0  2  0  0  0  0  0  0  0  0  0
   19.9328   75.7288   -4.8957 O   0  0  0  0  0  0  0  0  0  0  0  0
   22.2075   76.2739   -6.0804 O   0  0  0  0  0  0  0  0  0  0  0  0
   22.1093   74.8377   -3.8907 O   0  0  0  0  0  0  0  0  0  0  0  0
   21.8046   72.8823   -2.5868 O   0  0  0  0  0  0  0  0  0  0  0  0
   22.2811   75.6352    0.4538 O   0  0  0  0  0  0  0  0  0  0  0  0
   24.3855   73.7628   -0.1063 O   0  0  0  0  0  0  0  0  0  0  0  0
   20.7996   76.3550   -1.9267 O   0  0  0  0  0  0  0  0  0  0  0  0
   22.5169   75.0651   -0.8365 C   0  0  1  0  0  0  0  0  0  0  0  0
   23.0700   73.6519   -0.6426 C   0  0  1  0  0  0  0  0  0  0  0  0
   21.2019   75.0260   -1.6128 C   0  0  2  0  0  0  0  0  0  0  0  0
   23.0970   72.8807   -1.9691 C   0  0  1  0  0  0  0  0  0  0  0  0
   21.3247   74.1936   -2.8903 C   0  0  1  0  0  0  0  0  0  0  0  0
   23.1123   75.6634    0.9517 H   0  0  0  0  0  0  0  0  0  0  0  0
   24.3545   74.2521    0.7308 H   0  0  0  0  0  0  0  0  0  0  0  0
   20.7251   76.8716   -1.1097 H   0  0  0  0  0  0  0  0  0  0  0  0
   24.1258   70.9634   -2.9563 O   0  0  0  0  0  0  0  0  0  0  0  0
   23.4960   71.4197   -1.7733 C   0  0  0  0  0  0  0  0  0  0  0  0
   24.3855   70.0349   -2.8461 H   0  0  0  0  0  0  0  0  0  0  0  0
 25 28  1  0
 25 24  1  0
 25 26  1  1
 25 27  2  0
  1  4  1  0
  1 24  1  0
  1  2  1  6
  1  3  2  0
  6 11  1  0
  6 12  1  0
 29 36  1  0
 29 37  1  0
  9  7  1  6
  7 13  1  0
 10  8  1  6
  8 14  1  0
 37 28  1  6
  4  5  1  0
 33 30  1  1
 30 38  1  0
 34 31  1  6
 31 39  1  0
 35 32  1  6
 32 40  1  0
 41 42  1  0
 41 43  1  0
 15 19  2  0
 16 22  2  0
 12 17  1  1
 17 19  1  0
 17 20  1  0
 18 19  1  0
 18 22  1  0
 18 23  1  0
  9 10  1  0
  9 11  1  0
 10 12  1  0
 11  5  1  1
 33 34  1  0
 33 35  1  0
 34 36  1  0
 35 37  1  0
 36 42  1  1
 20 21  2  0
 21 22  1  0
M  CHG  2   2  -1  26  -1
M  END
>  <COMPND>  (157) 
    8629 

>  <AUTHOR>  (157) 
    GENERATED BY OPEN BABEL 3.1.1

>  <MASTER>  (157) 
        0    0    0    0    0    0    0    0   58    0   58    0

>  <minimizedAffinity>  (157) 
-6.14546

>  <CNNscore>  (157) 
0.6734497547

>  <CNNaffinity>  (157) 
4.3502740860

>  <CNN_VS>  (157) 
2.9296910763

>  <CNNaffinity_variance>  (157) 
0.1999674588

$$$$
158
     RDKit          3D

 43 45  0  0  0  0  0  0  0  0999 V2000
   19.8541   70.7622   -2.6984 P   0  0  2  0  0  0  0  0  0  0  0  0
   20.0352   70.6193   -1.0970 O   0  0  0  0  0  0  0  0  0  0  0  0
   20.7665   69.8986   -3.5189 O   0  0  0  0  0  0  0  0  0  0  0  0
   19.9689   72.3545   -2.9617 O   0  0  0  0  0  0  0  0  0  0  0  0
   20.0891   73.2176   -1.8444 C   0  0  0  0  0  0  0  0  0  0  0  0
   18.2006   74.5302   -2.5404 O   0  0  0  0  0  0  0  0  0  0  0  0
   19.7975   76.9277   -1.7083 O   0  0  0  0  0  0  0  0  0  0  0  0
   18.0964   76.5872    0.3957 O   0  0  0  0  0  0  0  0  0  0  0  0
   19.7424   75.6308   -1.1166 C   0  0  1  0  0  0  0  0  0  0  0  0
   18.4381   75.4489   -0.3688 C   0  0  2  0  0  0  0  0  0  0  0  0
   19.6110   74.6084   -2.2386 C   0  0  1  0  0  0  0  0  0  0  0  0
   17.4591   75.1897   -1.5012 C   0  0  2  0  0  0  0  0  0  0  0  0
   19.8819   77.5977   -1.0111 H   0  0  0  0  0  0  0  0  0  0  0  0
   18.7488   76.7097    1.1029 H   0  0  0  0  0  0  0  0  0  0  0  0
   15.0394   76.1323   -0.3902 O   0  0  0  0  0  0  0  0  0  0  0  0
   13.3443   71.8645    0.0024 O   0  0  0  0  0  0  0  0  0  0  0  0
   16.3682   74.3469   -1.1000 N   0  0  0  0  0  0  0  0  0  0  0  0
   14.1973   74.0065   -0.1958 N   0  0  0  0  0  0  0  0  0  0  0  0
   15.1972   74.9205   -0.5520 C   0  0  0  0  0  0  0  0  0  0  0  0
   16.4657   72.9680   -1.2516 C   0  0  0  0  0  0  0  0  0  0  0  0
   15.5036   72.1101   -0.9057 C   0  0  0  0  0  0  0  0  0  0  0  0
   14.2476   72.6277   -0.3257 C   0  0  0  0  0  0  0  0  0  0  0  0
   13.3725   74.3832    0.1884 H   0  0  0  0  0  0  0  0  0  0  0  0
   18.2787   70.4710   -2.9134 O   0  0  0  0  0  0  0  0  0  0  0  0
   17.5153   69.2460   -3.6411 P   0  0  2  0  0  0  0  0  0  0  0  0
   15.9706   69.4644   -3.2123 O   0  0  0  0  0  0  0  0  0  0  0  0
   18.0658   67.8906   -3.3041 O   0  0  0  0  0  0  0  0  0  0  0  0
   17.5581   69.6136   -5.2121 O   0  0  0  0  0  0  0  0  0  0  0  0
   19.0775   71.0078   -6.3800 O   0  0  0  0  0  0  0  0  0  0  0  0
   15.6459   71.8295   -8.5247 O   0  0  0  0  0  0  0  0  0  0  0  0
   17.7109   70.2260   -9.7132 O   0  0  0  0  0  0  0  0  0  0  0  0
   15.5051   71.4747   -5.6553 O   0  0  0  0  0  0  0  0  0  0  0  0
   16.5500   71.0129   -7.7757 C   0  0  1  0  0  0  0  0  0  0  0  0
   17.8888   70.9769   -8.5154 C   0  0  1  0  0  0  0  0  0  0  0  0
   16.7227   71.6099   -6.3802 C   0  0  2  0  0  0  0  0  0  0  0  0
   18.9849   70.3452   -7.6466 C   0  0  1  0  0  0  0  0  0  0  0  0
   17.8699   70.9435   -5.6188 C   0  0  1  0  0  0  0  0  0  0  0  0
   15.5315   71.4557   -9.4117 H   0  0  0  0  0  0  0  0  0  0  0  0
   17.0159   70.6350  -10.2524 H   0  0  0  0  0  0  0  0  0  0  0  0
   14.7868   71.9009   -6.1475 H   0  0  0  0  0  0  0  0  0  0  0  0
   20.4755   71.7094   -8.9217 O   0  0  0  0  0  0  0  0  0  0  0  0
   20.3608   70.4417   -8.3021 C   0  0  0  0  0  0  0  0  0  0  0  0
   21.3465   71.7851   -9.3429 H   0  0  0  0  0  0  0  0  0  0  0  0
 25 28  1  0
 25 24  1  0
 25 26  1  1
 25 27  2  0
  1  4  1  0
  1 24  1  0
  1  2  1  1
  1  3  2  0
  6 11  1  0
  6 12  1  0
 29 36  1  0
 29 37  1  0
  9  7  1  6
  7 13  1  0
 10  8  1  6
  8 14  1  0
 37 28  1  6
  4  5  1  0
 33 30  1  6
 30 38  1  0
 34 31  1  6
 31 39  1  0
 35 32  1  1
 32 40  1  0
 41 42  1  0
 41 43  1  0
 15 19  2  0
 16 22  2  0
 12 17  1  1
 17 19  1  0
 17 20  1  0
 18 19  1  0
 18 22  1  0
 18 23  1  0
  9 10  1  0
  9 11  1  0
 10 12  1  0
 11  5  1  1
 33 34  1  0
 33 35  1  0
 34 36  1  0
 35 37  1  0
 36 42  1  6
 20 21  2  0
 21 22  1  0
M  CHG  2   2  -1  26  -1
M  END
>  <COMPND>  (158) 
    8629 

>  <AUTHOR>  (158) 
    GENERATED BY OPEN BABEL 3.1.1

>  <MASTER>  (158) 
        0    0    0    0    0    0    0    0   58    0   58    0

>  <minimizedAffinity>  (158) 
-5.87395

>  <CNNscore>  (158) 
0.5904722810

>  <CNNaffinity>  (158) 
4.0716896057

>  <CNN_VS>  (158) 
2.4042198658

>  <CNNaffinity_variance>  (158) 
0.2481276244

$$$$
159
     RDKit          3D

 43 45  0  0  0  0  0  0  0  0999 V2000
   22.0183   72.7900   -6.0633 P   0  0  2  0  0  0  0  0  0  0  0  0
   22.0603   74.0927   -7.0217 O   0  0  0  0  0  0  0  0  0  0  0  0
   23.3458   72.3732   -5.5017 O   0  0  0  0  0  0  0  0  0  0  0  0
   21.2513   71.6776   -6.9533 O   0  0  0  0  0  0  0  0  0  0  0  0
   20.0519   72.0473   -7.6110 C   0  0  0  0  0  0  0  0  0  0  0  0
   18.8944   69.9889   -7.1669 O   0  0  0  0  0  0  0  0  0  0  0  0
   18.0929   70.0340  -10.0560 O   0  0  0  0  0  0  0  0  0  0  0  0
   15.8458   70.9361   -8.8015 O   0  0  0  0  0  0  0  0  0  0  0  0
   18.2457   71.1213   -9.1450 C   0  0  1  0  0  0  0  0  0  0  0  0
   17.0895   71.1544   -8.1673 C   0  0  2  0  0  0  0  0  0  0  0  0
   19.4248   70.8070   -8.2327 C   0  0  1  0  0  0  0  0  0  0  0  0
   17.4588   70.0385   -7.2047 C   0  0  2  0  0  0  0  0  0  0  0  0
   17.3458   70.2121  -10.6493 H   0  0  0  0  0  0  0  0  0  0  0  0
   15.6559   71.6727   -9.4033 H   0  0  0  0  0  0  0  0  0  0  0  0
   16.2945   68.0596   -5.5597 O   0  0  0  0  0  0  0  0  0  0  0  0
   15.5994   71.0592   -2.1302 O   0  0  0  0  0  0  0  0  0  0  0  0
   16.9653   70.2746   -5.8773 N   0  0  0  0  0  0  0  0  0  0  0  0
   15.9495   69.5547   -3.8533 N   0  0  0  0  0  0  0  0  0  0  0  0
   16.3978   69.2125   -5.1355 C   0  0  0  0  0  0  0  0  0  0  0  0
   17.0470   71.5478   -5.3238 C   0  0  0  0  0  0  0  0  0  0  0  0
   16.6136   71.8580   -4.1002 C   0  0  0  0  0  0  0  0  0  0  0  0
   16.0074   70.8056   -3.2594 C   0  0  0  0  0  0  0  0  0  0  0  0
   15.5501   68.8309   -3.3183 H   0  0  0  0  0  0  0  0  0  0  0  0
   20.9142   73.1912   -4.9529 O   0  0  0  0  0  0  0  0  0  0  0  0
   21.0000   74.1860   -3.6816 P   0  0  2  0  0  0  0  0  0  0  0  0
   19.5362   74.8744   -3.6497 O   0  0  0  0  0  0  0  0  0  0  0  0
   22.1412   75.1598   -3.7382 O   0  0  0  0  0  0  0  0  0  0  0  0
   21.0184   73.2077   -2.3980 O   0  0  0  0  0  0  0  0  0  0  0  0
   23.2486   72.9908   -1.6262 O   0  0  0  0  0  0  0  0  0  0  0  0
   21.4178   70.2585    0.8704 O   0  0  0  0  0  0  0  0  0  0  0  0
   22.3205   72.7687    1.9344 O   0  0  0  0  0  0  0  0  0  0  0  0
   20.5745   70.4839   -1.8895 O   0  0  0  0  0  0  0  0  0  0  0  0
   21.5140   71.4606    0.1016 C   0  0  1  0  0  0  0  0  0  0  0  0
   22.6833   72.2847    0.6443 C   0  0  1  0  0  0  0  0  0  0  0  0
   21.7461   71.0984   -1.3641 C   0  0  2  0  0  0  0  0  0  0  0  0
   23.0176   73.4547   -0.2909 C   0  0  1  0  0  0  0  0  0  0  0  0
   22.1199   72.3259   -2.1969 C   0  0  1  0  0  0  0  0  0  0  0  0
   21.2700   70.4815    1.8021 H   0  0  0  0  0  0  0  0  0  0  0  0
   22.1114   72.0201    2.5149 H   0  0  0  0  0  0  0  0  0  0  0  0
   20.3485   69.7080   -1.3539 H   0  0  0  0  0  0  0  0  0  0  0  0
   23.9054   75.2239    1.0472 O   0  0  0  0  0  0  0  0  0  0  0  0
   24.2785   74.1957    0.1484 C   0  0  0  0  0  0  0  0  0  0  0  0
   24.6980   75.7039    1.3355 H   0  0  0  0  0  0  0  0  0  0  0  0
 25 28  1  0
 25 24  1  0
 25 26  1  1
 25 27  2  0
  1  4  1  0
  1 24  1  0
  1  2  1  6
  1  3  2  0
  6 11  1  0
  6 12  1  0
 29 36  1  0
 29 37  1  0
  9  7  1  6
  7 13  1  0
 10  8  1  6
  8 14  1  0
 37 28  1  1
  4  5  1  0
 33 30  1  1
 30 38  1  0
 34 31  1  1
 31 39  1  0
 35 32  1  6
 32 40  1  0
 41 42  1  0
 41 43  1  0
 15 19  2  0
 16 22  2  0
 12 17  1  1
 17 19  1  0
 17 20  1  0
 18 19  1  0
 18 22  1  0
 18 23  1  0
  9 10  1  0
  9 11  1  0
 10 12  1  0
 11  5  1  1
 33 34  1  0
 33 35  1  0
 34 36  1  0
 35 37  1  0
 36 42  1  1
 20 21  2  0
 21 22  1  0
M  CHG  2   2  -1  26  -1
M  END
>  <COMPND>  (159) 
    8629 

>  <AUTHOR>  (159) 
    GENERATED BY OPEN BABEL 3.1.1

>  <MASTER>  (159) 
        0    0    0    0    0    0    0    0   58    0   58    0

>  <minimizedAffinity>  (159) 
-7.28650

>  <CNNscore>  (159) 
0.5359391570

>  <CNNaffinity>  (159) 
4.3501725197

>  <CNN_VS>  (159) 
2.3314278126

>  <CNNaffinity_variance>  (159) 
0.2096282244

$$$$
160
     RDKit          3D

 43 45  0  0  0  0  0  0  0  0999 V2000
   21.8872   72.3300   -5.8726 P   0  0  2  0  0  0  0  0  0  0  0  0
   21.0241   73.6045   -5.3744 O   0  0  0  0  0  0  0  0  0  0  0  0
   23.0776   72.6640   -6.7228 O   0  0  0  0  0  0  0  0  0  0  0  0
   20.7874   71.3585   -6.5541 O   0  0  0  0  0  0  0  0  0  0  0  0
   20.2312   71.7370   -7.8012 C   0  0  0  0  0  0  0  0  0  0  0  0
   18.8472   69.8486   -7.2606 O   0  0  0  0  0  0  0  0  0  0  0  0
   17.9634   69.9136  -10.1252 O   0  0  0  0  0  0  0  0  0  0  0  0
   15.8847   71.1175   -8.8343 O   0  0  0  0  0  0  0  0  0  0  0  0
   18.2767   70.9981   -9.2528 C   0  0  1  0  0  0  0  0  0  0  0  0
   17.1657   71.1989   -8.2434 C   0  0  2  0  0  0  0  0  0  0  0  0
   19.4380   70.5665   -8.3660 C   0  0  1  0  0  0  0  0  0  0  0  0
   17.4278   70.0726   -7.2582 C   0  0  2  0  0  0  0  0  0  0  0  0
   17.2245   70.1658  -10.7017 H   0  0  0  0  0  0  0  0  0  0  0  0
   15.7662   71.8553   -9.4526 H   0  0  0  0  0  0  0  0  0  0  0  0
   16.5006   68.1931   -5.3645 O   0  0  0  0  0  0  0  0  0  0  0  0
   15.8510   71.4546   -2.1736 O   0  0  0  0  0  0  0  0  0  0  0  0
   17.0102   70.4030   -5.9248 N   0  0  0  0  0  0  0  0  0  0  0  0
   16.1781   69.8186   -3.7771 N   0  0  0  0  0  0  0  0  0  0  0  0
   16.5604   69.3843   -5.0528 C   0  0  0  0  0  0  0  0  0  0  0  0
   17.0494   71.7246   -5.4938 C   0  0  0  0  0  0  0  0  0  0  0  0
   16.6802   72.1224   -4.2746 C   0  0  0  0  0  0  0  0  0  0  0  0
   16.1978   71.1205   -3.3023 C   0  0  0  0  0  0  0  0  0  0  0  0
   15.8609   69.1264   -3.1526 H   0  0  0  0  0  0  0  0  0  0  0  0
   22.2395   71.5674   -4.4915 O   0  0  0  0  0  0  0  0  0  0  0  0
   23.3004   71.9212   -3.3243 P   0  0  2  0  0  0  0  0  0  0  0  0
   23.9809   73.2936   -3.8450 O   0  0  0  0  0  0  0  0  0  0  0  0
   24.2766   70.8204   -3.0258 O   0  0  0  0  0  0  0  0  0  0  0  0
   22.3914   72.3681   -2.0678 O   0  0  0  0  0  0  0  0  0  0  0  0
   21.8320   71.2770   -0.0397 O   0  0  0  0  0  0  0  0  0  0  0  0
   18.1828   73.0164   -0.8816 O   0  0  0  0  0  0  0  0  0  0  0  0
   19.7930   74.0622    1.2542 O   0  0  0  0  0  0  0  0  0  0  0  0
   19.7915   71.9253   -3.0266 O   0  0  0  0  0  0  0  0  0  0  0  0
   19.6102   72.9346   -0.8472 C   0  0  1  0  0  0  0  0  0  0  0  0
   20.0486   72.8153    0.6138 C   0  0  1  0  0  0  0  0  0  0  0  0
   20.0594   71.7118   -1.6449 C   0  0  2  0  0  0  0  0  0  0  0  0
   21.5371   72.4564    0.7179 C   0  0  1  0  0  0  0  0  0  0  0  0
   21.5447   71.4135   -1.4328 C   0  0  1  0  0  0  0  0  0  0  0  0
   17.8910   73.7910   -0.3773 H   0  0  0  0  0  0  0  0  0  0  0  0
   18.8498   74.2773    1.1809 H   0  0  0  0  0  0  0  0  0  0  0  0
   18.8480   72.1128   -3.1477 H   0  0  0  0  0  0  0  0  0  0  0  0
   20.7925   72.0248    2.9469 O   0  0  0  0  0  0  0  0  0  0  0  0
   21.9588   72.1779    2.1590 C   0  0  0  0  0  0  0  0  0  0  0  0
   21.0456   71.8467    3.8667 H   0  0  0  0  0  0  0  0  0  0  0  0
 25 28  1  0
 25 24  1  0
 25 26  1  6
 25 27  2  0
  1  4  1  0
  1 24  1  0
  1  2  1  1
  1  3  2  0
  6 11  1  0
  6 12  1  0
 29 36  1  0
 29 37  1  0
  9  7  1  6
  7 13  1  0
 10  8  1  6
  8 14  1  0
 37 28  1  1
  4  5  1  0
 33 30  1  1
 30 38  1  0
 34 31  1  1
 31 39  1  0
 35 32  1  6
 32 40  1  0
 41 42  1  0
 41 43  1  0
 15 19  2  0
 16 22  2  0
 12 17  1  1
 17 19  1  0
 17 20  1  0
 18 19  1  0
 18 22  1  0
 18 23  1  0
  9 10  1  0
  9 11  1  0
 10 12  1  0
 11  5  1  1
 33 34  1  0
 33 35  1  0
 34 36  1  0
 35 37  1  0
 36 42  1  1
 20 21  2  0
 21 22  1  0
M  CHG  2   2  -1  26  -1
M  END
>  <COMPND>  (160) 
    8629 

>  <AUTHOR>  (160) 
    GENERATED BY OPEN BABEL 3.1.1

>  <MASTER>  (160) 
        0    0    0    0    0    0    0    0   58    0   58    0

>  <minimizedAffinity>  (160) 
-7.71065

>  <CNNscore>  (160) 
0.5036071539

>  <CNNaffinity>  (160) 
4.1936254501

>  <CNN_VS>  (160) 
2.1119396687

>  <CNNaffinity_variance>  (160) 
0.5285905600

$$$$
161
     RDKit          3D

 43 45  0  0  0  0  0  0  0  0999 V2000
   22.1987   71.2766   -2.7417 P   0  0  2  0  0  0  0  0  0  0  0  0
   23.6554   70.6815   -3.1174 O   0  0  0  0  0  0  0  0  0  0  0  0
   21.7026   70.9200   -1.3713 O   0  0  0  0  0  0  0  0  0  0  0  0
   21.2588   70.8091   -3.9729 O   0  0  0  0  0  0  0  0  0  0  0  0
   20.2914   69.8003   -3.7398 C   0  0  0  0  0  0  0  0  0  0  0  0
   18.6538   71.2397   -4.7499 O   0  0  0  0  0  0  0  0  0  0  0  0
   16.7006   70.0797   -2.7928 O   0  0  0  0  0  0  0  0  0  0  0  0
   16.1242   68.7195   -5.0850 O   0  0  0  0  0  0  0  0  0  0  0  0
   17.7868   69.4461   -3.4666 C   0  0  1  0  0  0  0  0  0  0  0  0
   17.4384   69.2125   -4.9218 C   0  0  2  0  0  0  0  0  0  0  0  0
   18.9261   70.4524   -3.5699 C   0  0  1  0  0  0  0  0  0  0  0  0
   17.6208   70.5988   -5.5159 C   0  0  2  0  0  0  0  0  0  0  0  0
   15.9610   69.4562   -2.7146 H   0  0  0  0  0  0  0  0  0  0  0  0
   16.0589   67.8357   -4.6909 H   0  0  0  0  0  0  0  0  0  0  0  0
   15.8437   70.2492   -7.6834 O   0  0  0  0  0  0  0  0  0  0  0  0
   19.2686   70.4479  -10.7611 O   0  0  0  0  0  0  0  0  0  0  0  0
   18.0210   70.5557   -6.8941 N   0  0  0  0  0  0  0  0  0  0  0  0
   17.5505   70.3486   -9.2141 N   0  0  0  0  0  0  0  0  0  0  0  0
   17.0497   70.3749   -7.9062 C   0  0  0  0  0  0  0  0  0  0  0  0
   19.3634   70.6923   -7.2306 C   0  0  0  0  0  0  0  0  0  0  0  0
   19.8248   70.6637   -8.4825 C   0  0  0  0  0  0  0  0  0  0  0  0
   18.8755   70.4786   -9.5990 C   0  0  0  0  0  0  0  0  0  0  0  0
   16.8922   70.2233   -9.9357 H   0  0  0  0  0  0  0  0  0  0  0  0
   22.3758   72.8622   -3.0016 O   0  0  0  0  0  0  0  0  0  0  0  0
   22.7920   73.6798   -4.3324 P   0  0  2  0  0  0  0  0  0  0  0  0
   21.4307   74.4580   -4.7308 O   0  0  0  0  0  0  0  0  0  0  0  0
   23.3595   72.8244   -5.4279 O   0  0  0  0  0  0  0  0  0  0  0  0
   23.7848   74.8385   -3.8063 O   0  0  0  0  0  0  0  0  0  0  0  0
   23.5758   76.9474   -4.8672 O   0  0  0  0  0  0  0  0  0  0  0  0
   27.2442   77.4841   -3.0491 O   0  0  0  0  0  0  0  0  0  0  0  0
   24.9393   78.8571   -2.0242 O   0  0  0  0  0  0  0  0  0  0  0  0
   26.5629   74.9148   -4.1954 O   0  0  0  0  0  0  0  0  0  0  0  0
   25.9069   76.9903   -3.1643 C   0  0  1  0  0  0  0  0  0  0  0  0
   24.9620   78.1879   -3.2819 C   0  0  1  0  0  0  0  0  0  0  0  0
   25.8074   76.1032   -4.4038 C   0  0  2  0  0  0  0  0  0  0  0  0
   23.5475   77.7409   -3.6750 C   0  0  1  0  0  0  0  0  0  0  0  0
   24.3548   75.7567   -4.7354 C   0  0  1  0  0  0  0  0  0  0  0  0
   27.3143   78.0478   -2.2637 H   0  0  0  0  0  0  0  0  0  0  0  0
   25.8385   79.1336   -1.7874 H   0  0  0  0  0  0  0  0  0  0  0  0
   27.4806   75.1476   -3.9867 H   0  0  0  0  0  0  0  0  0  0  0  0
   23.2621   79.7781   -4.8905 O   0  0  0  0  0  0  0  0  0  0  0  0
   22.6285   78.9288   -3.9516 C   0  0  0  0  0  0  0  0  0  0  0  0
   22.6885   80.5385   -5.0763 H   0  0  0  0  0  0  0  0  0  0  0  0
 25 28  1  0
 25 24  1  0
 25 26  1  6
 25 27  2  0
  1  4  1  0
  1 24  1  0
  1  2  1  6
  1  3  2  0
  6 11  1  0
  6 12  1  0
 29 36  1  0
 29 37  1  0
  9  7  1  1
  7 13  1  0
 10  8  1  1
  8 14  1  0
 37 28  1  1
  4  5  1  0
 33 30  1  6
 30 38  1  0
 34 31  1  1
 31 39  1  0
 35 32  1  1
 32 40  1  0
 41 42  1  0
 41 43  1  0
 15 19  2  0
 16 22  2  0
 12 17  1  6
 17 19  1  0
 17 20  1  0
 18 19  1  0
 18 22  1  0
 18 23  1  0
  9 10  1  0
  9 11  1  0
 10 12  1  0
 11  5  1  6
 33 34  1  0
 33 35  1  0
 34 36  1  0
 35 37  1  0
 36 42  1  6
 20 21  2  0
 21 22  1  0
M  CHG  2   2  -1  26  -1
M  END
>  <COMPND>  (161) 
    8629 

>  <AUTHOR>  (161) 
    GENERATED BY OPEN BABEL 3.1.1

>  <MASTER>  (161) 
        0    0    0    0    0    0    0    0   58    0   58    0

>  <minimizedAffinity>  (161) 
-6.68858

>  <CNNscore>  (161) 
0.9297686815

>  <CNNaffinity>  (161) 
4.7527513504

>  <CNN_VS>  (161) 
4.4189591408

>  <CNNaffinity_variance>  (161) 
0.1145850271

$$$$
162
     RDKit          3D

 43 45  0  0  0  0  0  0  0  0999 V2000
   20.3765   71.2169   -1.3234 P   0  0  2  0  0  0  0  0  0  0  0  0
   20.8371   70.5815    0.0914 O   0  0  0  0  0  0  0  0  0  0  0  0
   19.8082   72.6030   -1.2405 O   0  0  0  0  0  0  0  0  0  0  0  0
   19.3982   70.0929   -1.9539 O   0  0  0  0  0  0  0  0  0  0  0  0
   19.0794   70.1703   -3.3323 C   0  0  0  0  0  0  0  0  0  0  0  0
   17.4584   71.2927   -4.7058 O   0  0  0  0  0  0  0  0  0  0  0  0
   15.3839   69.7260   -3.2115 O   0  0  0  0  0  0  0  0  0  0  0  0
   15.6041   68.3413   -5.5504 O   0  0  0  0  0  0  0  0  0  0  0  0
   16.6940   69.3321   -3.6161 C   0  0  1  0  0  0  0  0  0  0  0  0
   16.7283   69.0742   -5.1080 C   0  0  2  0  0  0  0  0  0  0  0  0
   17.6104   70.5418   -3.4813 C   0  0  1  0  0  0  0  0  0  0  0  0
   16.7650   70.4848   -5.6709 C   0  0  2  0  0  0  0  0  0  0  0  0
   14.7807   68.9696   -3.2886 H   0  0  0  0  0  0  0  0  0  0  0  0
   15.6261   67.4513   -5.1653 H   0  0  0  0  0  0  0  0  0  0  0  0
   15.5034   70.4834   -8.1980 O   0  0  0  0  0  0  0  0  0  0  0  0
   19.5348   70.7612  -10.4144 O   0  0  0  0  0  0  0  0  0  0  0  0
   17.4606   70.5563   -6.9248 N   0  0  0  0  0  0  0  0  0  0  0  0
   17.5117   70.6219   -9.2995 N   0  0  0  0  0  0  0  0  0  0  0  0
   16.7330   70.5480   -8.1376 C   0  0  0  0  0  0  0  0  0  0  0  0
   18.8490   70.6339   -6.9436 C   0  0  0  0  0  0  0  0  0  0  0  0
   19.5768   70.7026   -8.0602 C   0  0  0  0  0  0  0  0  0  0  0  0
   18.8937   70.6992   -9.3699 C   0  0  0  0  0  0  0  0  0  0  0  0
   17.0264   70.6172  -10.1564 H   0  0  0  0  0  0  0  0  0  0  0  0
   21.7086   71.0891   -2.2301 O   0  0  0  0  0  0  0  0  0  0  0  0
   22.8846   72.1525   -2.5447 P   0  0  2  0  0  0  0  0  0  0  0  0
   23.9772   71.2705   -3.3484 O   0  0  0  0  0  0  0  0  0  0  0  0
   23.4245   72.8503   -1.3300 O   0  0  0  0  0  0  0  0  0  0  0  0
   22.2572   73.1378   -3.6585 O   0  0  0  0  0  0  0  0  0  0  0  0
   20.0671   73.0319   -4.5578 O   0  0  0  0  0  0  0  0  0  0  0  0
   22.0529   74.5682   -7.8361 O   0  0  0  0  0  0  0  0  0  0  0  0
   20.3015   76.2630   -6.3168 O   0  0  0  0  0  0  0  0  0  0  0  0
   23.3268   72.5586   -6.1875 O   0  0  0  0  0  0  0  0  0  0  0  0
   21.7817   74.3885   -6.4434 C   0  0  1  0  0  0  0  0  0  0  0  0
   20.3475   74.8463   -6.1711 C   0  0  1  0  0  0  0  0  0  0  0  0
   21.9516   72.9125   -6.0882 C   0  0  2  0  0  0  0  0  0  0  0  0
   19.8939   74.4389   -4.7628 C   0  0  1  0  0  0  0  0  0  0  0  0
   21.4248   72.6050   -4.6854 C   0  0  1  0  0  0  0  0  0  0  0  0
   21.9473   75.5034   -8.0681 H   0  0  0  0  0  0  0  0  0  0  0  0
   20.5907   76.5070   -7.2101 H   0  0  0  0  0  0  0  0  0  0  0  0
   23.6483   72.7578   -7.0801 H   0  0  0  0  0  0  0  0  0  0  0  0
   17.9866   74.0311   -3.3826 O   0  0  0  0  0  0  0  0  0  0  0  0
   18.4166   74.7455   -4.5267 C   0  0  0  0  0  0  0  0  0  0  0  0
   17.0481   74.2169   -3.2200 H   0  0  0  0  0  0  0  0  0  0  0  0
 25 28  1  0
 25 24  1  0
 25 26  1  6
 25 27  2  0
  1  4  1  0
  1 24  1  0
  1  2  1  1
  1  3  2  0
  6 11  1  0
  6 12  1  0
 29 36  1  0
 29 37  1  0
  9  7  1  6
  7 13  1  0
 10  8  1  6
  8 14  1  0
 37 28  1  1
  4  5  1  0
 33 30  1  6
 30 38  1  0
 34 31  1  1
 31 39  1  0
 35 32  1  1
 32 40  1  0
 41 42  1  0
 41 43  1  0
 15 19  2  0
 16 22  2  0
 12 17  1  6
 17 19  1  0
 17 20  1  0
 18 19  1  0
 18 22  1  0
 18 23  1  0
  9 10  1  0
  9 11  1  0
 10 12  1  0
 11  5  1  6
 33 34  1  0
 33 35  1  0
 34 36  1  0
 35 37  1  0
 36 42  1  6
 20 21  2  0
 21 22  1  0
M  CHG  2   2  -1  26  -1
M  END
>  <COMPND>  (162) 
    8629 

>  <AUTHOR>  (162) 
    GENERATED BY OPEN BABEL 3.1.1

>  <MASTER>  (162) 
        0    0    0    0    0    0    0    0   58    0   58    0

>  <minimizedAffinity>  (162) 
-7.71631

>  <CNNscore>  (162) 
0.9167754650

>  <CNNaffinity>  (162) 
4.6522798538

>  <CNN_VS>  (162) 
4.2650961876

>  <CNNaffinity_variance>  (162) 
0.5564109087

$$$$
163
     RDKit          3D

 43 45  0  0  0  0  0  0  0  0999 V2000
   23.4400   71.9736   -3.2587 P   0  0  2  0  0  0  0  0  0  0  0  0
   24.2780   72.9962   -4.1911 O   0  0  0  0  0  0  0  0  0  0  0  0
   24.0956   70.6437   -3.0283 O   0  0  0  0  0  0  0  0  0  0  0  0
   21.9783   71.9259   -3.9508 O   0  0  0  0  0  0  0  0  0  0  0  0
   21.2097   70.7419   -3.8267 C   0  0  0  0  0  0  0  0  0  0  0  0
   19.1659   71.6987   -4.6520 O   0  0  0  0  0  0  0  0  0  0  0  0
   17.8254   70.3835   -2.3145 O   0  0  0  0  0  0  0  0  0  0  0  0
   17.2280   68.6941   -4.3702 O   0  0  0  0  0  0  0  0  0  0  0  0
   18.9120   69.9157   -3.1119 C   0  0  1  0  0  0  0  0  0  0  0  0
   18.4118   69.4596   -4.4667 C   0  0  2  0  0  0  0  0  0  0  0  0
   19.7754   71.1161   -3.4792 C   0  0  1  0  0  0  0  0  0  0  0  0
   18.1965   70.7813   -5.1843 C   0  0  2  0  0  0  0  0  0  0  0  0
   17.2600   69.6343   -2.0673 H   0  0  0  0  0  0  0  0  0  0  0  0
   17.4168   67.8635   -3.9062 H   0  0  0  0  0  0  0  0  0  0  0  0
   16.2067   69.9374   -7.0027 O   0  0  0  0  0  0  0  0  0  0  0  0
   19.0446   70.3977  -10.6049 O   0  0  0  0  0  0  0  0  0  0  0  0
   18.3880   70.6717   -6.6030 N   0  0  0  0  0  0  0  0  0  0  0  0
   17.6213   70.1674   -8.7949 N   0  0  0  0  0  0  0  0  0  0  0  0
   17.3244   70.2372   -7.4278 C   0  0  0  0  0  0  0  0  0  0  0  0
   19.6196   70.9937   -7.1630 C   0  0  0  0  0  0  0  0  0  0  0  0
   19.8870   70.9206   -8.4685 C   0  0  0  0  0  0  0  0  0  0  0  0
   18.8299   70.4754   -9.3992 C   0  0  0  0  0  0  0  0  0  0  0  0
   16.8956   69.8668   -9.3888 H   0  0  0  0  0  0  0  0  0  0  0  0
   23.1786   72.8362   -1.9169 O   0  0  0  0  0  0  0  0  0  0  0  0
   22.1447   72.6112   -0.6948 P   0  0  2  0  0  0  0  0  0  0  0  0
   22.0826   71.0007   -0.5531 O   0  0  0  0  0  0  0  0  0  0  0  0
   20.8088   73.2677   -0.8903 O   0  0  0  0  0  0  0  0  0  0  0  0
   22.9473   73.1050    0.6155 O   0  0  0  0  0  0  0  0  0  0  0  0
   24.8063   72.4400    1.9265 O   0  0  0  0  0  0  0  0  0  0  0  0
   21.9977   72.8521    4.9253 O   0  0  0  0  0  0  0  0  0  0  0  0
   24.1000   74.7926    4.6752 O   0  0  0  0  0  0  0  0  0  0  0  0
   21.2240   71.7461    2.3645 O   0  0  0  0  0  0  0  0  0  0  0  0
   22.6407   73.1743    3.6891 C   0  0  1  0  0  0  0  0  0  0  0  0
   24.0949   73.5448    3.9873 C   0  0  1  0  0  0  0  0  0  0  0  0
   22.5739   71.9628    2.7611 C   0  0  2  0  0  0  0  0  0  0  0  0
   24.9175   73.6433    2.6955 C   0  0  1  0  0  0  0  0  0  0  0  0
   23.4654   72.1436    1.5312 C   0  0  1  0  0  0  0  0  0  0  0  0
   22.0361   73.6174    5.5189 H   0  0  0  0  0  0  0  0  0  0  0  0
   23.5768   74.7169    5.4886 H   0  0  0  0  0  0  0  0  0  0  0  0
   20.6700   71.6329    3.1519 H   0  0  0  0  0  0  0  0  0  0  0  0
   26.6221   75.2347    3.2157 O   0  0  0  0  0  0  0  0  0  0  0  0
   26.4030   73.8563    2.9783 C   0  0  0  0  0  0  0  0  0  0  0  0
   27.5634   75.3852    3.3975 H   0  0  0  0  0  0  0  0  0  0  0  0
 25 28  1  0
 25 24  1  0
 25 26  1  1
 25 27  2  0
  1  4  1  0
  1 24  1  0
  1  2  1  6
  1  3  2  0
  6 11  1  0
  6 12  1  0
 29 36  1  0
 29 37  1  0
  9  7  1  1
  7 13  1  0
 10  8  1  1
  8 14  1  0
 37 28  1  6
  4  5  1  0
 33 30  1  1
 30 38  1  0
 34 31  1  6
 31 39  1  0
 35 32  1  6
 32 40  1  0
 41 42  1  0
 41 43  1  0
 15 19  2  0
 16 22  2  0
 12 17  1  6
 17 19  1  0
 17 20  1  0
 18 19  1  0
 18 22  1  0
 18 23  1  0
  9 10  1  0
  9 11  1  0
 10 12  1  0
 11  5  1  6
 33 34  1  0
 33 35  1  0
 34 36  1  0
 35 37  1  0
 36 42  1  1
 20 21  2  0
 21 22  1  0
M  CHG  2   2  -1  26  -1
M  END
>  <COMPND>  (163) 
    8629 

>  <AUTHOR>  (163) 
    GENERATED BY OPEN BABEL 3.1.1

>  <MASTER>  (163) 
        0    0    0    0    0    0    0    0   58    0   58    0

>  <minimizedAffinity>  (163) 
-7.66363

>  <CNNscore>  (163) 
0.9033091664

>  <CNNaffinity>  (163) 
4.6605195999

>  <CNN_VS>  (163) 
4.2098898888

>  <CNNaffinity_variance>  (163) 
0.0404530913

$$$$
164
     RDKit          3D

 43 45  0  0  0  0  0  0  0  0999 V2000
   20.1156   72.0149   -1.5555 P   0  0  2  0  0  0  0  0  0  0  0  0
   20.4282   70.6306   -0.7787 O   0  0  0  0  0  0  0  0  0  0  0  0
   18.9425   72.7870   -1.0274 O   0  0  0  0  0  0  0  0  0  0  0  0
   20.0256   71.5760   -3.1102 O   0  0  0  0  0  0  0  0  0  0  0  0
   19.3196   70.3921   -3.4388 C   0  0  0  0  0  0  0  0  0  0  0  0
   17.6059   71.4026   -4.7863 O   0  0  0  0  0  0  0  0  0  0  0  0
   15.6489   69.8421   -3.1352 O   0  0  0  0  0  0  0  0  0  0  0  0
   15.8129   68.3617   -5.4196 O   0  0  0  0  0  0  0  0  0  0  0  0
   16.9525   69.4703   -3.5801 C   0  0  1  0  0  0  0  0  0  0  0  0
   16.9310   69.1473   -5.0595 C   0  0  2  0  0  0  0  0  0  0  0  0
   17.8344   70.7120   -3.5384 C   0  0  1  0  0  0  0  0  0  0  0  0
   16.8980   70.5320   -5.6839 C   0  0  2  0  0  0  0  0  0  0  0  0
   15.0676   69.0651   -3.1528 H   0  0  0  0  0  0  0  0  0  0  0  0
   15.8801   67.4909   -4.9977 H   0  0  0  0  0  0  0  0  0  0  0  0
   15.5224   70.4981   -8.1506 O   0  0  0  0  0  0  0  0  0  0  0  0
   19.4516   70.6741  -10.5530 O   0  0  0  0  0  0  0  0  0  0  0  0
   17.5366   70.5685   -6.9693 N   0  0  0  0  0  0  0  0  0  0  0  0
   17.4800   70.5859   -9.3448 N   0  0  0  0  0  0  0  0  0  0  0  0
   16.7542   70.5463   -8.1474 C   0  0  0  0  0  0  0  0  0  0  0  0
   18.9235   70.6259   -7.0527 C   0  0  0  0  0  0  0  0  0  0  0  0
   19.6004   70.6619   -8.2024 C   0  0  0  0  0  0  0  0  0  0  0  0
   18.8582   70.6422   -9.4794 C   0  0  0  0  0  0  0  0  0  0  0  0
   16.9560   70.5710  -10.1784 H   0  0  0  0  0  0  0  0  0  0  0  0
   21.5265   72.8002   -1.4808 O   0  0  0  0  0  0  0  0  0  0  0  0
   22.8572   72.5117   -0.6095 P   0  0  2  0  0  0  0  0  0  0  0  0
   23.8380   73.7330   -1.0147 O   0  0  0  0  0  0  0  0  0  0  0  0
   23.4472   71.1475   -0.8207 O   0  0  0  0  0  0  0  0  0  0  0  0
   22.4241   72.8248    0.9134 O   0  0  0  0  0  0  0  0  0  0  0  0
   24.2149   72.0864    2.2789 O   0  0  0  0  0  0  0  0  0  0  0  0
   21.6274   73.3787    5.2260 O   0  0  0  0  0  0  0  0  0  0  0  0
   23.9853   74.9094    4.6383 O   0  0  0  0  0  0  0  0  0  0  0  0
   20.5904   72.0305    2.8837 O   0  0  0  0  0  0  0  0  0  0  0  0
   22.2595   73.4061    3.9434 C   0  0  1  0  0  0  0  0  0  0  0  0
   23.7640   73.5877    4.1541 C   0  0  1  0  0  0  0  0  0  0  0  0
   21.9729   72.0930    3.2175 C   0  0  2  0  0  0  0  0  0  0  0  0
   24.5376   73.3605    2.8483 C   0  0  1  0  0  0  0  0  0  0  0  0
   22.8295   71.9449    1.9588 C   0  0  1  0  0  0  0  0  0  0  0  0
   21.8051   74.2099    5.6920 H   0  0  0  0  0  0  0  0  0  0  0  0
   23.4910   75.0400    5.4628 H   0  0  0  0  0  0  0  0  0  0  0  0
   20.0589   72.1252    3.6889 H   0  0  0  0  0  0  0  0  0  0  0  0
   26.5090   74.7095    2.9005 O   0  0  0  0  0  0  0  0  0  0  0  0
   26.0487   73.3811    3.0678 C   0  0  0  0  0  0  0  0  0  0  0  0
   27.4693   74.7379    3.0376 H   0  0  0  0  0  0  0  0  0  0  0  0
 25 28  1  0
 25 24  1  0
 25 26  1  6
 25 27  2  0
  1  4  1  0
  1 24  1  0
  1  2  1  1
  1  3  2  0
  6 11  1  0
  6 12  1  0
 29 36  1  0
 29 37  1  0
  9  7  1  6
  7 13  1  0
 10  8  1  1
  8 14  1  0
 37 28  1  6
  4  5  1  0
 33 30  1  1
 30 38  1  0
 34 31  1  6
 31 39  1  0
 35 32  1  6
 32 40  1  0
 41 42  1  0
 41 43  1  0
 15 19  2  0
 16 22  2  0
 12 17  1  6
 17 19  1  0
 17 20  1  0
 18 19  1  0
 18 22  1  0
 18 23  1  0
  9 10  1  0
  9 11  1  0
 10 12  1  0
 11  5  1  6
 33 34  1  0
 33 35  1  0
 34 36  1  0
 35 37  1  0
 36 42  1  1
 20 21  2  0
 21 22  1  0
M  CHG  2   2  -1  26  -1
M  END
>  <COMPND>  (164) 
    8629 

>  <AUTHOR>  (164) 
    GENERATED BY OPEN BABEL 3.1.1

>  <MASTER>  (164) 
        0    0    0    0    0    0    0    0   58    0   58    0

>  <minimizedAffinity>  (164) 
-7.67719

>  <CNNscore>  (164) 
0.8947844505

>  <CNNaffinity>  (164) 
4.5411934853

>  <CNN_VS>  (164) 
4.0633893013

>  <CNNaffinity_variance>  (164) 
0.0623577051

$$$$
165
     RDKit          3D

 43 45  0  0  0  0  0  0  0  0999 V2000
   20.6583   72.9234   -3.4169 P   0  0  2  0  0  0  0  0  0  0  0  0
   20.0528   73.3045   -1.9658 O   0  0  0  0  0  0  0  0  0  0  0  0
   21.1921   74.0831   -4.2053 O   0  0  0  0  0  0  0  0  0  0  0  0
   19.4719   72.0800   -4.1235 O   0  0  0  0  0  0  0  0  0  0  0  0
   18.9699   70.9331   -3.4598 C   0  0  0  0  0  0  0  0  0  0  0  0
   17.1616   71.3880   -4.9753 O   0  0  0  0  0  0  0  0  0  0  0  0
   15.5364   69.4993   -3.3073 O   0  0  0  0  0  0  0  0  0  0  0  0
   16.2246   67.9587   -5.4497 O   0  0  0  0  0  0  0  0  0  0  0  0
   16.9199   69.4384   -3.6501 C   0  0  1  0  0  0  0  0  0  0  0  0
   17.0854   69.0224   -5.0968 C   0  0  2  0  0  0  0  0  0  0  0  0
   17.4629   70.8619   -3.6643 C   0  0  1  0  0  0  0  0  0  0  0  0
   16.7570   70.3094   -5.8343 C   0  0  2  0  0  0  0  0  0  0  0  0
   15.1675   68.6017   -3.2916 H   0  0  0  0  0  0  0  0  0  0  0  0
   16.4740   67.1629   -4.9544 H   0  0  0  0  0  0  0  0  0  0  0  0
   15.5036   70.6321   -8.3448 O   0  0  0  0  0  0  0  0  0  0  0  0
   19.5458   70.7190  -10.5570 O   0  0  0  0  0  0  0  0  0  0  0  0
   17.4577   70.4195   -7.0826 N   0  0  0  0  0  0  0  0  0  0  0  0
   17.5173   70.6753   -9.4442 N   0  0  0  0  0  0  0  0  0  0  0  0
   16.7338   70.5780   -8.2873 C   0  0  0  0  0  0  0  0  0  0  0  0
   18.8473   70.3703   -7.1039 C   0  0  0  0  0  0  0  0  0  0  0  0
   19.5796   70.4633   -8.2158 C   0  0  0  0  0  0  0  0  0  0  0  0
   18.9006   70.6306   -9.5169 C   0  0  0  0  0  0  0  0  0  0  0  0
   17.0346   70.7858  -10.2954 H   0  0  0  0  0  0  0  0  0  0  0  0
   21.7532   71.7870   -3.0668 O   0  0  0  0  0  0  0  0  0  0  0  0
   23.2913   71.9076   -2.5846 P   0  0  2  0  0  0  0  0  0  0  0  0
   23.7516   73.3446   -3.1684 O   0  0  0  0  0  0  0  0  0  0  0  0
   24.1610   70.7596   -3.0086 O   0  0  0  0  0  0  0  0  0  0  0  0
   23.2030   72.1256   -0.9879 O   0  0  0  0  0  0  0  0  0  0  0  0
   24.2808   70.8880    0.7219 O   0  0  0  0  0  0  0  0  0  0  0  0
   20.7747   71.8214    2.6933 O   0  0  0  0  0  0  0  0  0  0  0  0
   23.2162   73.1344    3.4439 O   0  0  0  0  0  0  0  0  0  0  0  0
   20.7146   71.1579   -0.1237 O   0  0  0  0  0  0  0  0  0  0  0  0
   21.8651   72.0482    1.7960 C   0  0  1  0  0  0  0  0  0  0  0  0
   23.1666   71.9887    2.5981 C   0  0  1  0  0  0  0  0  0  0  0  0
   21.8517   70.9717    0.7123 C   0  0  2  0  0  0  0  0  0  0  0  0
   24.3883   71.9563    1.6700 C   0  0  1  0  0  0  0  0  0  0  0  0
   23.1332   70.9951   -0.1228 C   0  0  1  0  0  0  0  0  0  0  0  0
   20.7772   72.5018    3.3837 H   0  0  0  0  0  0  0  0  0  0  0  0
   22.4390   73.1431    4.0244 H   0  0  0  0  0  0  0  0  0  0  0  0
   19.9099   71.1408    0.4167 H   0  0  0  0  0  0  0  0  0  0  0  0
   26.4202   70.7067    1.8071 O   0  0  0  0  0  0  0  0  0  0  0  0
   25.6876   71.7383    2.4422 C   0  0  0  0  0  0  0  0  0  0  0  0
   27.2500   70.5573    2.2876 H   0  0  0  0  0  0  0  0  0  0  0  0
 25 28  1  0
 25 24  1  0
 25 26  1  6
 25 27  2  0
  1  4  1  0
  1 24  1  0
  1  2  1  1
  1  3  2  0
  6 11  1  0
  6 12  1  0
 29 36  1  0
 29 37  1  0
  9  7  1  6
  7 13  1  0
 10  8  1  6
  8 14  1  0
 37 28  1  1
  4  5  1  0
 33 30  1  1
 30 38  1  0
 34 31  1  1
 31 39  1  0
 35 32  1  6
 32 40  1  0
 41 42  1  0
 41 43  1  0
 15 19  2  0
 16 22  2  0
 12 17  1  6
 17 19  1  0
 17 20  1  0
 18 19  1  0
 18 22  1  0
 18 23  1  0
  9 10  1  0
  9 11  1  0
 10 12  1  0
 11  5  1  6
 33 34  1  0
 33 35  1  0
 34 36  1  0
 35 37  1  0
 36 42  1  1
 20 21  2  0
 21 22  1  0
M  CHG  2   2  -1  26  -1
M  END
>  <COMPND>  (165) 
    8629 

>  <AUTHOR>  (165) 
    GENERATED BY OPEN BABEL 3.1.1

>  <MASTER>  (165) 
        0    0    0    0    0    0    0    0   58    0   58    0

>  <minimizedAffinity>  (165) 
-8.20808

>  <CNNscore>  (165) 
0.8764149547

>  <CNNaffinity>  (165) 
4.7674102783

>  <CNN_VS>  (165) 
4.1782298088

>  <CNNaffinity_variance>  (165) 
0.0996620283

$$$$
166
     RDKit          3D

 43 45  0  0  0  0  0  0  0  0999 V2000
   21.0061   73.0674   -4.0354 P   0  0  2  0  0  0  0  0  0  0  0  0
   20.5843   73.9038   -2.7164 O   0  0  0  0  0  0  0  0  0  0  0  0
   21.6999   73.8676   -5.0983 O   0  0  0  0  0  0  0  0  0  0  0  0
   19.6345   72.3380   -4.4879 O   0  0  0  0  0  0  0  0  0  0  0  0
   19.0908   71.3374   -3.6447 C   0  0  0  0  0  0  0  0  0  0  0  0
   17.2858   71.6920   -5.1905 O   0  0  0  0  0  0  0  0  0  0  0  0
   15.6117   70.0487   -3.3229 O   0  0  0  0  0  0  0  0  0  0  0  0
   16.2279   68.2666   -5.2930 O   0  0  0  0  0  0  0  0  0  0  0  0
   16.9893   69.9035   -3.6644 C   0  0  1  0  0  0  0  0  0  0  0  0
   17.1276   69.3310   -5.0596 C   0  0  2  0  0  0  0  0  0  0  0  0
   17.5805   71.2976   -3.8326 C   0  0  1  0  0  0  0  0  0  0  0  0
   16.8369   70.5433   -5.9279 C   0  0  2  0  0  0  0  0  0  0  0  0
   15.2126   69.1713   -3.2100 H   0  0  0  0  0  0  0  0  0  0  0  0
   16.4543   67.5196   -4.7172 H   0  0  0  0  0  0  0  0  0  0  0  0
   15.5758   70.6751   -8.4518 O   0  0  0  0  0  0  0  0  0  0  0  0
   19.5961   70.3504  -10.6818 O   0  0  0  0  0  0  0  0  0  0  0  0
   17.5299   70.4958   -7.1845 N   0  0  0  0  0  0  0  0  0  0  0  0
   17.5786   70.5135   -9.5601 N   0  0  0  0  0  0  0  0  0  0  0  0
   16.8026   70.5685   -8.3953 C   0  0  0  0  0  0  0  0  0  0  0  0
   18.9154   70.3787   -7.2077 C   0  0  0  0  0  0  0  0  0  0  0  0
   19.6405   70.3262   -8.3270 C   0  0  0  0  0  0  0  0  0  0  0  0
   18.9575   70.3961   -9.6349 C   0  0  0  0  0  0  0  0  0  0  0  0
   17.0934   70.5621  -10.4157 H   0  0  0  0  0  0  0  0  0  0  0  0
   21.8818   71.8510   -3.4299 O   0  0  0  0  0  0  0  0  0  0  0  0
   23.2990   71.8476   -2.6525 P   0  0  2  0  0  0  0  0  0  0  0  0
   23.8418   73.3570   -2.8638 O   0  0  0  0  0  0  0  0  0  0  0  0
   24.2488   70.7784   -3.1092 O   0  0  0  0  0  0  0  0  0  0  0  0
   22.9070   71.7707   -1.0887 O   0  0  0  0  0  0  0  0  0  0  0  0
   22.5669   73.7497    0.1700 O   0  0  0  0  0  0  0  0  0  0  0  0
   23.4212   71.1432    3.2566 O   0  0  0  0  0  0  0  0  0  0  0  0
   20.7284   72.0714    2.8889 O   0  0  0  0  0  0  0  0  0  0  0  0
   24.8539   70.9322    0.7501 O   0  0  0  0  0  0  0  0  0  0  0  0
   22.8788   71.5315    1.9915 C   0  0  1  0  0  0  0  0  0  0  0  0
   21.8549   72.6431    2.2296 C   0  0  1  0  0  0  0  0  0  0  0  0
   24.0111   72.0267    1.0937 C   0  0  2  0  0  0  0  0  0  0  0  0
   21.4266   73.2942    0.9076 C   0  0  1  0  0  0  0  0  0  0  0  0
   23.4756   72.7009   -0.1707 C   0  0  1  0  0  0  0  0  0  0  0  0
   22.7075   70.8273    3.8313 H   0  0  0  0  0  0  0  0  0  0  0  0
   21.0126   71.6633    3.7219 H   0  0  0  0  0  0  0  0  0  0  0  0
   25.1867   70.5141    1.5591 H   0  0  0  0  0  0  0  0  0  0  0  0
   19.2638   74.0533    1.5821 O   0  0  0  0  0  0  0  0  0  0  0  0
   20.5271   74.5076    1.1326 C   0  0  0  0  0  0  0  0  0  0  0  0
   18.6809   74.8149    1.7299 H   0  0  0  0  0  0  0  0  0  0  0  0
 25 28  1  0
 25 24  1  0
 25 26  1  1
 25 27  2  0
  1  4  1  0
  1 24  1  0
  1  2  1  1
  1  3  2  0
  6 11  1  0
  6 12  1  0
 29 36  1  0
 29 37  1  0
  9  7  1  6
  7 13  1  0
 10  8  1  6
  8 14  1  0
 37 28  1  6
  4  5  1  0
 33 30  1  1
 30 38  1  0
 34 31  1  6
 31 39  1  0
 35 32  1  6
 32 40  1  0
 41 42  1  0
 41 43  1  0
 15 19  2  0
 16 22  2  0
 12 17  1  6
 17 19  1  0
 17 20  1  0
 18 19  1  0
 18 22  1  0
 18 23  1  0
  9 10  1  0
  9 11  1  0
 10 12  1  0
 11  5  1  6
 33 34  1  0
 33 35  1  0
 34 36  1  0
 35 37  1  0
 36 42  1  1
 20 21  2  0
 21 22  1  0
M  CHG  2   2  -1  26  -1
M  END
>  <COMPND>  (166) 
    8629 

>  <AUTHOR>  (166) 
    GENERATED BY OPEN BABEL 3.1.1

>  <MASTER>  (166) 
        0    0    0    0    0    0    0    0   58    0   58    0

>  <minimizedAffinity>  (166) 
-7.72625

>  <CNNscore>  (166) 
0.8744034767

>  <CNNaffinity>  (166) 
4.6805496216

>  <CNN_VS>  (166) 
4.0926890373

>  <CNNaffinity_variance>  (166) 
0.0483862795

$$$$
167
     RDKit          3D

 43 45  0  0  0  0  0  0  0  0999 V2000
   22.1671   71.3002   -2.8723 P   0  0  2  0  0  0  0  0  0  0  0  0
   23.6395   70.6889   -3.1477 O   0  0  0  0  0  0  0  0  0  0  0  0
   21.6329   71.0679   -1.4895 O   0  0  0  0  0  0  0  0  0  0  0  0
   21.2688   70.7088   -4.0811 O   0  0  0  0  0  0  0  0  0  0  0  0
   20.2791   69.7413   -3.7773 C   0  0  0  0  0  0  0  0  0  0  0  0
   18.6882   71.2257   -4.7969 O   0  0  0  0  0  0  0  0  0  0  0  0
   16.7023   70.1503   -2.8244 O   0  0  0  0  0  0  0  0  0  0  0  0
   16.0743   68.7891   -5.1023 O   0  0  0  0  0  0  0  0  0  0  0  0
   17.7647   69.4742   -3.4948 C   0  0  1  0  0  0  0  0  0  0  0  0
   17.4048   69.2390   -4.9469 C   0  0  2  0  0  0  0  0  0  0  0  0
   18.9370   70.4406   -3.6102 C   0  0  1  0  0  0  0  0  0  0  0  0
   17.6321   70.6128   -5.5545 C   0  0  2  0  0  0  0  0  0  0  0  0
   15.9423   69.5529   -2.7385 H   0  0  0  0  0  0  0  0  0  0  0  0
   15.9804   67.9116   -4.6998 H   0  0  0  0  0  0  0  0  0  0  0  0
   15.8379   70.3097   -7.7148 O   0  0  0  0  0  0  0  0  0  0  0  0
   19.2598   70.3573  -10.8018 O   0  0  0  0  0  0  0  0  0  0  0  0
   18.0269   70.5434   -6.9331 N   0  0  0  0  0  0  0  0  0  0  0  0
   17.5432   70.3338   -9.2501 N   0  0  0  0  0  0  0  0  0  0  0  0
   17.0470   70.3895   -7.9414 C   0  0  0  0  0  0  0  0  0  0  0  0
   19.3725   70.6281   -7.2738 C   0  0  0  0  0  0  0  0  0  0  0  0
   19.8294   70.5721   -8.5265 C   0  0  0  0  0  0  0  0  0  0  0  0
   18.8711   70.4123   -9.6392 C   0  0  0  0  0  0  0  0  0  0  0  0
   16.8789   70.2265   -9.9691 H   0  0  0  0  0  0  0  0  0  0  0  0
   22.3386   72.8563   -3.2747 O   0  0  0  0  0  0  0  0  0  0  0  0
   22.9208   73.5484   -4.6145 P   0  0  2  0  0  0  0  0  0  0  0  0
   23.0480   72.3093   -5.6470 O   0  0  0  0  0  0  0  0  0  0  0  0
   24.1948   74.3151   -4.4073 O   0  0  0  0  0  0  0  0  0  0  0  0
   21.6949   74.4299   -5.1847 O   0  0  0  0  0  0  0  0  0  0  0  0
   19.9072   73.8785   -6.6396 O   0  0  0  0  0  0  0  0  0  0  0  0
   20.7150   77.6916   -8.0028 O   0  0  0  0  0  0  0  0  0  0  0  0
   18.3352   77.2084   -6.4694 O   0  0  0  0  0  0  0  0  0  0  0  0
   22.8887   75.9467   -7.2217 O   0  0  0  0  0  0  0  0  0  0  0  0
   20.5954   76.6560   -7.0237 C   0  0  1  0  0  0  0  0  0  0  0  0
   19.1447   76.1701   -7.0143 C   0  0  1  0  0  0  0  0  0  0  0  0
   21.5426   75.5139   -7.3869 C   0  0  2  0  0  0  0  0  0  0  0  0
   18.9958   74.8864   -6.1867 C   0  0  1  0  0  0  0  0  0  0  0  0
   21.2780   74.2691   -6.5381 C   0  0  1  0  0  0  0  0  0  0  0  0
   20.1165   78.4201   -7.7777 H   0  0  0  0  0  0  0  0  0  0  0  0
   18.4388   78.0135   -7.0008 H   0  0  0  0  0  0  0  0  0  0  0  0
   23.0436   76.7350   -7.7643 H   0  0  0  0  0  0  0  0  0  0  0  0
   17.3860   73.8600   -7.6234 O   0  0  0  0  0  0  0  0  0  0  0  0
   17.5908   74.2974   -6.2926 C   0  0  0  0  0  0  0  0  0  0  0  0
   16.4958   73.4825   -7.7057 H   0  0  0  0  0  0  0  0  0  0  0  0
 25 28  1  0
 25 24  1  0
 25 26  1  6
 25 27  2  0
  1  4  1  0
  1 24  1  0
  1  2  1  1
  1  3  2  0
  6 11  1  0
  6 12  1  0
 29 36  1  0
 29 37  1  0
  9  7  1  1
  7 13  1  0
 10  8  1  1
  8 14  1  0
 37 28  1  1
  4  5  1  0
 33 30  1  6
 30 38  1  0
 34 31  1  1
 31 39  1  0
 35 32  1  1
 32 40  1  0
 41 42  1  0
 41 43  1  0
 15 19  2  0
 16 22  2  0
 12 17  1  6
 17 19  1  0
 17 20  1  0
 18 19  1  0
 18 22  1  0
 18 23  1  0
  9 10  1  0
  9 11  1  0
 10 12  1  0
 11  5  1  6
 33 34  1  0
 33 35  1  0
 34 36  1  0
 35 37  1  0
 36 42  1  6
 20 21  2  0
 21 22  1  0
M  CHG  2   2  -1  26  -1
M  END
>  <COMPND>  (167) 
    8629 

>  <AUTHOR>  (167) 
    GENERATED BY OPEN BABEL 3.1.1

>  <MASTER>  (167) 
        0    0    0    0    0    0    0    0   58    0   58    0

>  <minimizedAffinity>  (167) 
-6.99109

>  <CNNscore>  (167) 
0.8699240685

>  <CNNaffinity>  (167) 
4.4774942398

>  <CNN_VS>  (167) 
3.8950800896

>  <CNNaffinity_variance>  (167) 
0.4760550559

$$$$
168
     RDKit          3D

 43 45  0  0  0  0  0  0  0  0999 V2000
   20.8122   72.2672   -2.6336 P   0  0  2  0  0  0  0  0  0  0  0  0
   20.1924   72.8845   -1.2727 O   0  0  0  0  0  0  0  0  0  0  0  0
   20.3860   72.9590   -3.8950 O   0  0  0  0  0  0  0  0  0  0  0  0
   20.4573   70.6912   -2.5421 O   0  0  0  0  0  0  0  0  0  0  0  0
   19.7571   70.0923   -3.6187 C   0  0  0  0  0  0  0  0  0  0  0  0
   18.0671   71.3138   -4.8127 O   0  0  0  0  0  0  0  0  0  0  0  0
   16.0815   69.9301   -3.0424 O   0  0  0  0  0  0  0  0  0  0  0  0
   15.9126   68.4988   -5.3574 O   0  0  0  0  0  0  0  0  0  0  0  0
   17.3001   69.4325   -3.5927 C   0  0  1  0  0  0  0  0  0  0  0  0
   17.1330   69.1511   -5.0713 C   0  0  2  0  0  0  0  0  0  0  0  0
   18.3121   70.5715   -3.5980 C   0  0  1  0  0  0  0  0  0  0  0  0
   17.2038   70.5466   -5.6677 C   0  0  2  0  0  0  0  0  0  0  0  0
   15.4197   69.2204   -3.0283 H   0  0  0  0  0  0  0  0  0  0  0  0
   15.9163   67.6154   -4.9568 H   0  0  0  0  0  0  0  0  0  0  0  0
   15.6533   70.3542   -8.0207 O   0  0  0  0  0  0  0  0  0  0  0  0
   19.3863   70.5568  -10.7160 O   0  0  0  0  0  0  0  0  0  0  0  0
   17.7445   70.5471   -6.9977 N   0  0  0  0  0  0  0  0  0  0  0  0
   17.5133   70.4554   -9.3609 N   0  0  0  0  0  0  0  0  0  0  0  0
   16.8793   70.4448   -8.1119 C   0  0  0  0  0  0  0  0  0  0  0  0
   19.1185   70.6484   -7.1871 C   0  0  0  0  0  0  0  0  0  0  0  0
   19.7074   70.6557   -8.3848 C   0  0  0  0  0  0  0  0  0  0  0  0
   18.8748   70.5529   -9.6006 C   0  0  0  0  0  0  0  0  0  0  0  0
   16.9305   70.3849  -10.1516 H   0  0  0  0  0  0  0  0  0  0  0  0
   22.4041   72.2978   -2.3545 O   0  0  0  0  0  0  0  0  0  0  0  0
   23.4965   73.4705   -2.5655 P   0  0  2  0  0  0  0  0  0  0  0  0
   22.5896   74.8048   -2.6870 O   0  0  0  0  0  0  0  0  0  0  0  0
   24.4251   73.2453   -3.7234 O   0  0  0  0  0  0  0  0  0  0  0  0
   24.2316   73.6061   -1.1350 O   0  0  0  0  0  0  0  0  0  0  0  0
   23.5414   72.6945    0.9408 O   0  0  0  0  0  0  0  0  0  0  0  0
   25.3337   76.1559    2.3036 O   0  0  0  0  0  0  0  0  0  0  0  0
   26.6282   73.6275    2.7268 O   0  0  0  0  0  0  0  0  0  0  0  0
   23.7932   76.1958   -0.1469 O   0  0  0  0  0  0  0  0  0  0  0  0
   25.1705   75.0244    1.4443 C   0  0  1  0  0  0  0  0  0  0  0  0
   25.2766   73.7571    2.2949 C   0  0  1  0  0  0  0  0  0  0  0  0
   23.8036   75.1047    0.7673 C   0  0  2  0  0  0  0  0  0  0  0  0
   24.8491   72.5174    1.4977 C   0  0  1  0  0  0  0  0  0  0  0  0
   23.4545   73.8031    0.0434 C   0  0  1  0  0  0  0  0  0  0  0  0
   26.1999   76.1113    2.7362 H   0  0  0  0  0  0  0  0  0  0  0  0
   26.8857   74.4169    3.2285 H   0  0  0  0  0  0  0  0  0  0  0  0
   24.0154   77.0138    0.3236 H   0  0  0  0  0  0  0  0  0  0  0  0
   26.1002   70.7208    2.4547 O   0  0  0  0  0  0  0  0  0  0  0  0
   24.7963   71.2659    2.3711 C   0  0  0  0  0  0  0  0  0  0  0  0
   26.0819   69.9237    3.0079 H   0  0  0  0  0  0  0  0  0  0  0  0
 25 28  1  0
 25 24  1  0
 25 26  1  6
 25 27  2  0
  1  4  1  0
  1 24  1  0
  1  2  1  1
  1  3  2  0
  6 11  1  0
  6 12  1  0
 29 36  1  0
 29 37  1  0
  9  7  1  6
  7 13  1  0
 10  8  1  1
  8 14  1  0
 37 28  1  6
  4  5  1  0
 33 30  1  1
 30 38  1  0
 34 31  1  6
 31 39  1  0
 35 32  1  6
 32 40  1  0
 41 42  1  0
 41 43  1  0
 15 19  2  0
 16 22  2  0
 12 17  1  6
 17 19  1  0
 17 20  1  0
 18 19  1  0
 18 22  1  0
 18 23  1  0
  9 10  1  0
  9 11  1  0
 10 12  1  0
 11  5  1  6
 33 34  1  0
 33 35  1  0
 34 36  1  0
 35 37  1  0
 36 42  1  1
 20 21  2  0
 21 22  1  0
M  CHG  2   2  -1  26  -1
M  END
>  <COMPND>  (168) 
    8629 

>  <AUTHOR>  (168) 
    GENERATED BY OPEN BABEL 3.1.1

>  <MASTER>  (168) 
        0    0    0    0    0    0    0    0   58    0   58    0

>  <minimizedAffinity>  (168) 
-6.91213

>  <CNNscore>  (168) 
0.8688882589

>  <CNNaffinity>  (168) 
4.6202354431

>  <CNN_VS>  (168) 
4.0144681931

>  <CNNaffinity_variance>  (168) 
0.0900151655

$$$$
169
     RDKit          3D

 43 45  0  0  0  0  0  0  0  0999 V2000
   22.5260   72.1153   -2.0454 P   0  0  2  0  0  0  0  0  0  0  0  0
   21.1827   72.7193   -1.3759 O   0  0  0  0  0  0  0  0  0  0  0  0
   23.4894   73.1399   -2.5683 O   0  0  0  0  0  0  0  0  0  0  0  0
   21.9738   71.0511   -3.1319 O   0  0  0  0  0  0  0  0  0  0  0  0
   21.0873   71.5099   -4.1376 C   0  0  0  0  0  0  0  0  0  0  0  0
   21.2013   71.0361   -6.4905 O   0  0  0  0  0  0  0  0  0  0  0  0
   23.0560   73.3843   -6.6831 O   0  0  0  0  0  0  0  0  0  0  0  0
   20.6911   74.4213   -7.5596 O   0  0  0  0  0  0  0  0  0  0  0  0
   21.9140   73.2028   -5.8476 C   0  0  1  0  0  0  0  0  0  0  0  0
   20.6423   73.3330   -6.6597 C   0  0  2  0  0  0  0  0  0  0  0  0
   21.8714   71.7404   -5.4222 C   0  0  1  0  0  0  0  0  0  0  0  0
   20.5823   71.9905   -7.3684 C   0  0  2  0  0  0  0  0  0  0  0  0
   23.1046   74.3110   -6.9672 H   0  0  0  0  0  0  0  0  0  0  0  0
   20.7283   75.2522   -7.0606 H   0  0  0  0  0  0  0  0  0  0  0  0
   19.7099   70.8919   -9.8200 O   0  0  0  0  0  0  0  0  0  0  0  0
   15.3903   70.4234   -8.2831 O   0  0  0  0  0  0  0  0  0  0  0  0
   19.2351   71.5724   -7.6363 N   0  0  0  0  0  0  0  0  0  0  0  0
   17.5598   70.6593   -9.0527 N   0  0  0  0  0  0  0  0  0  0  0  0
   18.9009   71.0343   -8.9009 C   0  0  0  0  0  0  0  0  0  0  0  0
   18.2619   71.6972   -6.6508 C   0  0  0  0  0  0  0  0  0  0  0  0
   16.9872   71.3361   -6.8119 C   0  0  0  0  0  0  0  0  0  0  0  0
   16.5552   70.7649   -8.1038 C   0  0  0  0  0  0  0  0  0  0  0  0
   17.3037   70.2823   -9.9256 H   0  0  0  0  0  0  0  0  0  0  0  0
   23.1196   71.1678   -0.8780 O   0  0  0  0  0  0  0  0  0  0  0  0
   22.6836   70.9888    0.6682 P   0  0  2  0  0  0  0  0  0  0  0  0
   23.9623   70.2521    1.3314 O   0  0  0  0  0  0  0  0  0  0  0  0
   21.3828   70.2644    0.8609 O   0  0  0  0  0  0  0  0  0  0  0  0
   22.7134   72.4834    1.2767 O   0  0  0  0  0  0  0  0  0  0  0  0
   21.6381   72.6366    3.3832 O   0  0  0  0  0  0  0  0  0  0  0  0
   22.0916   76.6614    2.5796 O   0  0  0  0  0  0  0  0  0  0  0  0
   23.7261   75.4241    4.5910 O   0  0  0  0  0  0  0  0  0  0  0  0
   21.4187   74.8290    0.4420 O   0  0  0  0  0  0  0  0  0  0  0  0
   22.4621   75.2801    2.5655 C   0  0  1  0  0  0  0  0  0  0  0  0
   22.5821   74.8011    4.0136 C   0  0  1  0  0  0  0  0  0  0  0  0
   21.3910   74.4836    1.8227 C   0  0  2  0  0  0  0  0  0  0  0  0
   22.7136   73.2736    4.0826 C   0  0  1  0  0  0  0  0  0  0  0  0
   21.5861   72.9763    1.9962 C   0  0  1  0  0  0  0  0  0  0  0  0
   22.7678   77.1728    3.0493 H   0  0  0  0  0  0  0  0  0  0  0  0
   23.6306   76.3883    4.5405 H   0  0  0  0  0  0  0  0  0  0  0  0
   21.2939   75.7856    0.3455 H   0  0  0  0  0  0  0  0  0  0  0  0
   21.9328   73.6756    6.3047 O   0  0  0  0  0  0  0  0  0  0  0  0
   22.6762   72.7608    5.5206 C   0  0  0  0  0  0  0  0  0  0  0  0
   21.9003   73.3619    7.2225 H   0  0  0  0  0  0  0  0  0  0  0  0
 25 28  1  0
 25 24  1  0
 25 26  1  1
 25 27  2  0
  1  4  1  0
  1 24  1  0
  1  2  1  1
  1  3  2  0
  6 11  1  0
  6 12  1  0
 29 36  1  0
 29 37  1  0
  9  7  1  6
  7 13  1  0
 10  8  1  6
  8 14  1  0
 37 28  1  6
  4  5  1  0
 33 30  1  1
 30 38  1  0
 34 31  1  6
 31 39  1  0
 35 32  1  6
 32 40  1  0
 41 42  1  0
 41 43  1  0
 15 19  2  0
 16 22  2  0
 12 17  1  1
 17 19  1  0
 17 20  1  0
 18 19  1  0
 18 22  1  0
 18 23  1  0
  9 10  1  0
  9 11  1  0
 10 12  1  0
 11  5  1  1
 33 34  1  0
 33 35  1  0
 34 36  1  0
 35 37  1  0
 36 42  1  1
 20 21  2  0
 21 22  1  0
M  CHG  2   2  -1  26  -1
M  END
>  <COMPND>  (169) 
    8629 

>  <AUTHOR>  (169) 
    GENERATED BY OPEN BABEL 3.1.1

>  <MASTER>  (169) 
        0    0    0    0    0    0    0    0   58    0   58    0

>  <minimizedAffinity>  (169) 
-6.71409

>  <CNNscore>  (169) 
0.8428894877

>  <CNNaffinity>  (169) 
4.4220800400

>  <CNN_VS>  (169) 
3.7273247242

>  <CNNaffinity_variance>  (169) 
0.1209182516

$$$$
170
     RDKit          3D

 43 45  0  0  0  0  0  0  0  0999 V2000
   20.4538   71.2328   -1.4920 P   0  0  2  0  0  0  0  0  0  0  0  0
   21.0299   70.6260   -0.1073 O   0  0  0  0  0  0  0  0  0  0  0  0
   19.9025   72.6248   -1.3931 O   0  0  0  0  0  0  0  0  0  0  0  0
   19.4189   70.1023   -2.0106 O   0  0  0  0  0  0  0  0  0  0  0  0
   19.0762   70.0791   -3.3853 C   0  0  0  0  0  0  0  0  0  0  0  0
   17.4695   71.2284   -4.7534 O   0  0  0  0  0  0  0  0  0  0  0  0
   15.3774   69.6567   -3.2893 O   0  0  0  0  0  0  0  0  0  0  0  0
   15.6014   68.2993   -5.6438 O   0  0  0  0  0  0  0  0  0  0  0  0
   16.6872   69.2595   -3.6918 C   0  0  1  0  0  0  0  0  0  0  0  0
   16.7278   69.0196   -5.1866 C   0  0  2  0  0  0  0  0  0  0  0  0
   17.6104   70.4617   -3.5374 C   0  0  1  0  0  0  0  0  0  0  0  0
   16.7763   70.4368   -5.7319 C   0  0  2  0  0  0  0  0  0  0  0  0
   14.7700   68.9051   -3.3789 H   0  0  0  0  0  0  0  0  0  0  0  0
   15.6158   67.4046   -5.2695 H   0  0  0  0  0  0  0  0  0  0  0  0
   15.5253   70.5676   -8.2609 O   0  0  0  0  0  0  0  0  0  0  0  0
   19.5729   70.7488  -10.4575 O   0  0  0  0  0  0  0  0  0  0  0  0
   17.4790   70.5192   -6.9812 N   0  0  0  0  0  0  0  0  0  0  0  0
   17.5417   70.6579   -9.3526 N   0  0  0  0  0  0  0  0  0  0  0  0
   16.7562   70.5794   -8.1955 C   0  0  0  0  0  0  0  0  0  0  0  0
   18.8694   70.5400   -6.9941 C   0  0  0  0  0  0  0  0  0  0  0  0
   19.6037   70.6139   -8.1062 C   0  0  0  0  0  0  0  0  0  0  0  0
   18.9259   70.6803   -9.4170 C   0  0  0  0  0  0  0  0  0  0  0  0
   17.0598   70.7004  -10.2103 H   0  0  0  0  0  0  0  0  0  0  0  0
   21.7029   71.0744   -2.5057 O   0  0  0  0  0  0  0  0  0  0  0  0
   23.0101   71.9979   -2.7321 P   0  0  2  0  0  0  0  0  0  0  0  0
   24.1519   70.9296   -3.1474 O   0  0  0  0  0  0  0  0  0  0  0  0
   23.3665   72.8590   -1.5551 O   0  0  0  0  0  0  0  0  0  0  0  0
   22.7030   72.8148   -4.0899 O   0  0  0  0  0  0  0  0  0  0  0  0
   22.7891   75.1640   -4.3902 O   0  0  0  0  0  0  0  0  0  0  0  0
   19.7902   74.2640   -7.0824 O   0  0  0  0  0  0  0  0  0  0  0  0
   22.3859   75.0197   -8.0516 O   0  0  0  0  0  0  0  0  0  0  0  0
   19.9365   72.8531   -4.5590 O   0  0  0  0  0  0  0  0  0  0  0  0
   21.0053   74.0393   -6.3623 C   0  0  1  0  0  0  0  0  0  0  0  0
   21.9768   75.1734   -6.6954 C   0  0  1  0  0  0  0  0  0  0  0  0
   20.7011   74.0141   -4.8656 C   0  0  2  0  0  0  0  0  0  0  0  0
   23.1959   75.1500   -5.7636 C   0  0  1  0  0  0  0  0  0  0  0  0
   21.9812   74.0422   -4.0285 C   0  0  1  0  0  0  0  0  0  0  0  0
   19.9763   74.2806   -8.0335 H   0  0  0  0  0  0  0  0  0  0  0  0
   21.6067   75.0357   -8.6294 H   0  0  0  0  0  0  0  0  0  0  0  0
   19.1288   72.8472   -5.0950 H   0  0  0  0  0  0  0  0  0  0  0  0
   25.1235   76.0084   -6.8845 O   0  0  0  0  0  0  0  0  0  0  0  0
   24.0995   76.3631   -5.9735 C   0  0  0  0  0  0  0  0  0  0  0  0
   25.7062   76.7710   -7.0279 H   0  0  0  0  0  0  0  0  0  0  0  0
 25 28  1  0
 25 24  1  0
 25 26  1  6
 25 27  2  0
  1  4  1  0
  1 24  1  0
  1  2  1  1
  1  3  2  0
  6 11  1  0
  6 12  1  0
 29 36  1  0
 29 37  1  0
  9  7  1  6
  7 13  1  0
 10  8  1  6
  8 14  1  0
 37 28  1  6
  4  5  1  0
 33 30  1  6
 30 38  1  0
 34 31  1  6
 31 39  1  0
 35 32  1  6
 32 40  1  0
 41 42  1  0
 41 43  1  0
 15 19  2  0
 16 22  2  0
 12 17  1  6
 17 19  1  0
 17 20  1  0
 18 19  1  0
 18 22  1  0
 18 23  1  0
  9 10  1  0
  9 11  1  0
 10 12  1  0
 11  5  1  6
 33 34  1  0
 33 35  1  0
 34 36  1  0
 35 37  1  0
 36 42  1  6
 20 21  2  0
 21 22  1  0
M  CHG  2   2  -1  26  -1
M  END
>  <COMPND>  (170) 
    8629 

>  <AUTHOR>  (170) 
    GENERATED BY OPEN BABEL 3.1.1

>  <MASTER>  (170) 
        0    0    0    0    0    0    0    0   58    0   58    0

>  <minimizedAffinity>  (170) 
-7.83465

>  <CNNscore>  (170) 
0.8425499201

>  <CNNaffinity>  (170) 
4.6235113144

>  <CNN_VS>  (170) 
3.8955390453

>  <CNNaffinity_variance>  (170) 
0.5729736090

$$$$
171
     RDKit          3D

 43 45  0  0  0  0  0  0  0  0999 V2000
   21.8067   72.0974   -1.9574 P   0  0  2  0  0  0  0  0  0  0  0  0
   20.7547   72.9737   -1.0955 O   0  0  0  0  0  0  0  0  0  0  0  0
   22.5288   72.8530   -3.0340 O   0  0  0  0  0  0  0  0  0  0  0  0
   20.9382   70.8255   -2.4533 O   0  0  0  0  0  0  0  0  0  0  0  0
   20.3711   70.8588   -3.7514 C   0  0  0  0  0  0  0  0  0  0  0  0
   18.5050   71.8369   -4.9067 O   0  0  0  0  0  0  0  0  0  0  0  0
   16.7826   70.5898   -2.7927 O   0  0  0  0  0  0  0  0  0  0  0  0
   16.4848   68.8735   -4.8908 O   0  0  0  0  0  0  0  0  0  0  0  0
   17.9722   70.0876   -3.3993 C   0  0  1  0  0  0  0  0  0  0  0  0
   17.6846   69.6156   -4.8093 C   0  0  2  0  0  0  0  0  0  0  0  0
   18.9078   71.2652   -3.6428 C   0  0  1  0  0  0  0  0  0  0  0  0
   17.6137   70.9273   -5.5724 C   0  0  2  0  0  0  0  0  0  0  0  0
   16.1696   69.8557   -2.6272 H   0  0  0  0  0  0  0  0  0  0  0  0
   16.5800   68.0485   -4.3899 H   0  0  0  0  0  0  0  0  0  0  0  0
   15.9122   70.1207   -7.6777 O   0  0  0  0  0  0  0  0  0  0  0  0
   19.3055   70.4258  -10.7816 O   0  0  0  0  0  0  0  0  0  0  0  0
   18.0261   70.7879   -6.9406 N   0  0  0  0  0  0  0  0  0  0  0  0
   17.6031   70.2734   -9.2216 N   0  0  0  0  0  0  0  0  0  0  0  0
   17.0936   70.3757   -7.9208 C   0  0  0  0  0  0  0  0  0  0  0  0
   19.3422   71.0591   -7.2987 C   0  0  0  0  0  0  0  0  0  0  0  0
   19.8127   70.9554   -8.5434 C   0  0  0  0  0  0  0  0  0  0  0  0
   18.9032   70.5306   -9.6271 C   0  0  0  0  0  0  0  0  0  0  0  0
   16.9717   69.9875   -9.9211 H   0  0  0  0  0  0  0  0  0  0  0  0
   22.7662   71.4619   -0.8223 O   0  0  0  0  0  0  0  0  0  0  0  0
   22.5223   71.2128    0.7561 P   0  0  2  0  0  0  0  0  0  0  0  0
   23.7664   70.2691    1.1794 O   0  0  0  0  0  0  0  0  0  0  0  0
   21.1730   70.6446    1.0882 O   0  0  0  0  0  0  0  0  0  0  0  0
   22.8370   72.6368    1.4478 O   0  0  0  0  0  0  0  0  0  0  0  0
   21.8350   73.1746    3.5270 O   0  0  0  0  0  0  0  0  0  0  0  0
   22.7520   76.9864    2.2309 O   0  0  0  0  0  0  0  0  0  0  0  0
   24.2698   75.8118    4.3675 O   0  0  0  0  0  0  0  0  0  0  0  0
   21.8162   75.0045    0.3400 O   0  0  0  0  0  0  0  0  0  0  0  0
   22.9530   75.5788    2.3843 C   0  0  1  0  0  0  0  0  0  0  0  0
   23.0465   75.2678    3.8794 C   0  0  1  0  0  0  0  0  0  0  0  0
   21.7776   74.8350    1.7529 C   0  0  2  0  0  0  0  0  0  0  0  0
   22.9946   73.7555    4.1350 C   0  0  1  0  0  0  0  0  0  0  0  0
   21.7936   73.3474    2.1092 C   0  0  1  0  0  0  0  0  0  0  0  0
   23.4952   77.4645    2.6293 H   0  0  0  0  0  0  0  0  0  0  0  0
   24.2900   76.7670    4.1994 H   0  0  0  0  0  0  0  0  0  0  0  0
   21.8053   75.9503    0.1275 H   0  0  0  0  0  0  0  0  0  0  0  0
   21.5682   73.2826    5.9926 O   0  0  0  0  0  0  0  0  0  0  0  0
   22.9276   73.4293    5.6254 C   0  0  0  0  0  0  0  0  0  0  0  0
   21.5102   73.0745    6.9387 H   0  0  0  0  0  0  0  0  0  0  0  0
 25 28  1  0
 25 24  1  0
 25 26  1  1
 25 27  2  0
  1  4  1  0
  1 24  1  0
  1  2  1  1
  1  3  2  0
  6 11  1  0
  6 12  1  0
 29 36  1  0
 29 37  1  0
  9  7  1  6
  7 13  1  0
 10  8  1  1
  8 14  1  0
 37 28  1  6
  4  5  1  0
 33 30  1  1
 30 38  1  0
 34 31  1  6
 31 39  1  0
 35 32  1  6
 32 40  1  0
 41 42  1  0
 41 43  1  0
 15 19  2  0
 16 22  2  0
 12 17  1  6
 17 19  1  0
 17 20  1  0
 18 19  1  0
 18 22  1  0
 18 23  1  0
  9 10  1  0
  9 11  1  0
 10 12  1  0
 11  5  1  6
 33 34  1  0
 33 35  1  0
 34 36  1  0
 35 37  1  0
 36 42  1  1
 20 21  2  0
 21 22  1  0
M  CHG  2   2  -1  26  -1
M  END
>  <COMPND>  (171) 
    8629 

>  <AUTHOR>  (171) 
    GENERATED BY OPEN BABEL 3.1.1

>  <MASTER>  (171) 
        0    0    0    0    0    0    0    0   58    0   58    0

>  <minimizedAffinity>  (171) 
-7.11156

>  <CNNscore>  (171) 
0.8335831761

>  <CNNaffinity>  (171) 
4.5997920036

>  <CNN_VS>  (171) 
3.8343093395

>  <CNNaffinity_variance>  (171) 
0.1564939320

$$$$
172
     RDKit          3D

 43 45  0  0  0  0  0  0  0  0999 V2000
   21.7832   72.4455   -5.5602 P   0  0  2  0  0  0  0  0  0  0  0  0
   21.1238   73.8752   -5.1880 O   0  0  0  0  0  0  0  0  0  0  0  0
   23.0377   72.5204   -6.3801 O   0  0  0  0  0  0  0  0  0  0  0  0
   20.5616   71.6142   -6.2193 O   0  0  0  0  0  0  0  0  0  0  0  0
   20.1131   71.9823   -7.5120 C   0  0  0  0  0  0  0  0  0  0  0  0
   18.8856   69.9520   -7.1312 O   0  0  0  0  0  0  0  0  0  0  0  0
   18.1252   70.0890  -10.0284 O   0  0  0  0  0  0  0  0  0  0  0  0
   15.8907   71.0328   -8.7822 O   0  0  0  0  0  0  0  0  0  0  0  0
   18.2996   71.1496   -9.0903 C   0  0  1  0  0  0  0  0  0  0  0  0
   17.1320   71.1969   -8.1270 C   0  0  2  0  0  0  0  0  0  0  0  0
   19.4558   70.7772   -8.1706 C   0  0  1  0  0  0  0  0  0  0  0  0
   17.4529   70.0480   -7.1862 C   0  0  2  0  0  0  0  0  0  0  0  0
   17.3921   70.3043  -10.6270 H   0  0  0  0  0  0  0  0  0  0  0  0
   15.7322   71.7887   -9.3689 H   0  0  0  0  0  0  0  0  0  0  0  0
   16.2916   68.0468   -5.5662 O   0  0  0  0  0  0  0  0  0  0  0  0
   15.5533   71.0112   -2.1154 O   0  0  0  0  0  0  0  0  0  0  0  0
   16.9491   70.2690   -5.8601 N   0  0  0  0  0  0  0  0  0  0  0  0
   15.9251   69.5244   -3.8492 N   0  0  0  0  0  0  0  0  0  0  0  0
   16.3842   69.1965   -5.1313 C   0  0  0  0  0  0  0  0  0  0  0  0
   17.0183   71.5378   -5.2950 C   0  0  0  0  0  0  0  0  0  0  0  0
   16.5748   71.8343   -4.0716 C   0  0  0  0  0  0  0  0  0  0  0  0
   15.9704   70.7704   -3.2441 C   0  0  0  0  0  0  0  0  0  0  0  0
   15.5273   68.7932   -3.3232 H   0  0  0  0  0  0  0  0  0  0  0  0
   21.9643   71.7418   -4.1163 O   0  0  0  0  0  0  0  0  0  0  0  0
   23.1290   71.8843   -3.0045 P   0  0  2  0  0  0  0  0  0  0  0  0
   23.6530   73.4013   -3.2084 O   0  0  0  0  0  0  0  0  0  0  0  0
   24.2031   70.8398   -3.1011 O   0  0  0  0  0  0  0  0  0  0  0  0
   22.3459   71.9098   -1.5934 O   0  0  0  0  0  0  0  0  0  0  0  0
   24.0084   72.4652    0.0016 O   0  0  0  0  0  0  0  0  0  0  0  0
   20.7443   72.1982    2.5165 O   0  0  0  0  0  0  0  0  0  0  0  0
   21.8522   74.7751    1.9001 O   0  0  0  0  0  0  0  0  0  0  0  0
   21.0317   70.3338    0.3208 O   0  0  0  0  0  0  0  0  0  0  0  0
   21.4286   72.4995    1.2974 C   0  0  1  0  0  0  0  0  0  0  0  0
   22.5046   73.5450    1.5972 C   0  0  1  0  0  0  0  0  0  0  0  0
   22.0594   71.2206    0.7498 C   0  0  2  0  0  0  0  0  0  0  0  0
   23.4523   73.7226    0.4034 C   0  0  1  0  0  0  0  0  0  0  0  0
   23.0216   71.5140   -0.4026 C   0  0  1  0  0  0  0  0  0  0  0  0
   20.3411   73.0059    2.8693 H   0  0  0  0  0  0  0  0  0  0  0  0
   21.2564   74.6491    2.6553 H   0  0  0  0  0  0  0  0  0  0  0  0
   20.4294   70.1557    1.0593 H   0  0  0  0  0  0  0  0  0  0  0  0
   24.6423   74.8610    2.1346 O   0  0  0  0  0  0  0  0  0  0  0  0
   24.6247   74.6430    0.7358 C   0  0  0  0  0  0  0  0  0  0  0  0
   25.3836   75.4450    2.3609 H   0  0  0  0  0  0  0  0  0  0  0  0
 25 28  1  0
 25 24  1  0
 25 26  1  6
 25 27  2  0
  1  4  1  0
  1 24  1  0
  1  2  1  1
  1  3  2  0
  6 11  1  0
  6 12  1  0
 29 36  1  0
 29 37  1  0
  9  7  1  6
  7 13  1  0
 10  8  1  6
  8 14  1  0
 37 28  1  6
  4  5  1  0
 33 30  1  1
 30 38  1  0
 34 31  1  6
 31 39  1  0
 35 32  1  6
 32 40  1  0
 41 42  1  0
 41 43  1  0
 15 19  2  0
 16 22  2  0
 12 17  1  1
 17 19  1  0
 17 20  1  0
 18 19  1  0
 18 22  1  0
 18 23  1  0
  9 10  1  0
  9 11  1  0
 10 12  1  0
 11  5  1  1
 33 34  1  0
 33 35  1  0
 34 36  1  0
 35 37  1  0
 36 42  1  1
 20 21  2  0
 21 22  1  0
M  CHG  2   2  -1  26  -1
M  END
>  <COMPND>  (172) 
    8629 

>  <AUTHOR>  (172) 
    GENERATED BY OPEN BABEL 3.1.1

>  <MASTER>  (172) 
        0    0    0    0    0    0    0    0   58    0   58    0

>  <minimizedAffinity>  (172) 
-8.11278

>  <CNNscore>  (172) 
0.8119097352

>  <CNNaffinity>  (172) 
4.5764675140

>  <CNN_VS>  (172) 
3.7156784534

>  <CNNaffinity_variance>  (172) 
0.1744338274

$$$$
173
     RDKit          3D

 43 45  0  0  0  0  0  0  0  0999 V2000
   22.6469   72.3477   -4.1993 P   0  0  2  0  0  0  0  0  0  0  0  0
   23.1379   72.5073   -5.7325 O   0  0  0  0  0  0  0  0  0  0  0  0
   23.3022   71.2341   -3.4366 O   0  0  0  0  0  0  0  0  0  0  0  0
   21.0349   72.2672   -4.3140 O   0  0  0  0  0  0  0  0  0  0  0  0
   20.3744   71.1356   -3.7748 C   0  0  0  0  0  0  0  0  0  0  0  0
   18.4296   71.9429   -4.9323 O   0  0  0  0  0  0  0  0  0  0  0  0
   16.8257   70.6365   -2.7617 O   0  0  0  0  0  0  0  0  0  0  0  0
   16.6296   68.8434   -4.8069 O   0  0  0  0  0  0  0  0  0  0  0  0
   18.0417   70.2041   -3.3697 C   0  0  1  0  0  0  0  0  0  0  0  0
   17.7733   69.6720   -4.7619 C   0  0  2  0  0  0  0  0  0  0  0  0
   18.8868   71.4385   -3.6584 C   0  0  1  0  0  0  0  0  0  0  0  0
   17.5992   70.9527   -5.5605 C   0  0  2  0  0  0  0  0  0  0  0  0
   16.2694   69.8653   -2.5676 H   0  0  0  0  0  0  0  0  0  0  0  0
   16.7899   68.0422   -4.2843 H   0  0  0  0  0  0  0  0  0  0  0  0
   15.8774   70.1759   -7.6605 O   0  0  0  0  0  0  0  0  0  0  0  0
   19.2677   70.4132  -10.7734 O   0  0  0  0  0  0  0  0  0  0  0  0
   18.0054   70.8039   -6.9296 N   0  0  0  0  0  0  0  0  0  0  0  0
   17.5669   70.2949   -9.2088 N   0  0  0  0  0  0  0  0  0  0  0  0
   17.0627   70.4083   -7.9069 C   0  0  0  0  0  0  0  0  0  0  0  0
   19.3255   71.0497   -7.2913 C   0  0  0  0  0  0  0  0  0  0  0  0
   19.7906   70.9357   -8.5371 C   0  0  0  0  0  0  0  0  0  0  0  0
   18.8705   70.5270   -9.6179 C   0  0  0  0  0  0  0  0  0  0  0  0
   16.9283   70.0202   -9.9064 H   0  0  0  0  0  0  0  0  0  0  0  0
   22.8941   73.8216   -3.5832 O   0  0  0  0  0  0  0  0  0  0  0  0
   24.2284   74.5132   -2.9880 P   0  0  2  0  0  0  0  0  0  0  0  0
   23.7624   76.0366   -2.7057 O   0  0  0  0  0  0  0  0  0  0  0  0
   25.4338   74.3885   -3.8742 O   0  0  0  0  0  0  0  0  0  0  0  0
   24.4062   73.8629   -1.5215 O   0  0  0  0  0  0  0  0  0  0  0  0
   22.3793   73.1293   -0.5366 O   0  0  0  0  0  0  0  0  0  0  0  0
   24.8250   72.9653    2.7865 O   0  0  0  0  0  0  0  0  0  0  0  0
   23.9693   70.5267    1.5340 O   0  0  0  0  0  0  0  0  0  0  0  0
   25.1206   75.1245    0.8812 O   0  0  0  0  0  0  0  0  0  0  0  0
   24.5057   72.8535    1.3969 C   0  0  1  0  0  0  0  0  0  0  0  0
   23.4054   71.8020    1.2407 C   0  0  1  0  0  0  0  0  0  0  0  0
   24.0289   74.2109    0.8835 C   0  0  2  0  0  0  0  0  0  0  0  0
   22.8239   71.8153   -0.1794 C   0  0  1  0  0  0  0  0  0  0  0  0
   23.4239   74.1042   -0.5174 C   0  0  1  0  0  0  0  0  0  0  0  0
   25.1289   72.1069    3.1185 H   0  0  0  0  0  0  0  0  0  0  0  0
   24.3333   70.5318    2.4332 H   0  0  0  0  0  0  0  0  0  0  0  0
   25.4946   75.1834    1.7736 H   0  0  0  0  0  0  0  0  0  0  0  0
   21.2034   70.5001    0.9839 O   0  0  0  0  0  0  0  0  0  0  0  0
   21.6200   70.8854   -0.3132 C   0  0  0  0  0  0  0  0  0  0  0  0
   20.4376   69.9082    0.9143 H   0  0  0  0  0  0  0  0  0  0  0  0
 25 28  1  0
 25 24  1  0
 25 26  1  1
 25 27  2  0
  1  4  1  0
  1 24  1  0
  1  2  1  6
  1  3  2  0
  6 11  1  0
  6 12  1  0
 29 36  1  0
 29 37  1  0
  9  7  1  6
  7 13  1  0
 10  8  1  1
  8 14  1  0
 37 28  1  6
  4  5  1  0
 33 30  1  1
 30 38  1  0
 34 31  1  6
 31 39  1  0
 35 32  1  6
 32 40  1  0
 41 42  1  0
 41 43  1  0
 15 19  2  0
 16 22  2  0
 12 17  1  6
 17 19  1  0
 17 20  1  0
 18 19  1  0
 18 22  1  0
 18 23  1  0
  9 10  1  0
  9 11  1  0
 10 12  1  0
 11  5  1  6
 33 34  1  0
 33 35  1  0
 34 36  1  0
 35 37  1  0
 36 42  1  1
 20 21  2  0
 21 22  1  0
M  CHG  2   2  -1  26  -1
M  END
>  <COMPND>  (173) 
    8629 

>  <AUTHOR>  (173) 
    GENERATED BY OPEN BABEL 3.1.1

>  <MASTER>  (173) 
        0    0    0    0    0    0    0    0   58    0   58    0

>  <minimizedAffinity>  (173) 
-7.76168

>  <CNNscore>  (173) 
0.8016980290

>  <CNNaffinity>  (173) 
4.5975203514

>  <CNN_VS>  (173) 
3.6858229637

>  <CNNaffinity_variance>  (173) 
0.0439239927

$$$$
174
     RDKit          3D

 43 45  0  0  0  0  0  0  0  0999 V2000
   21.4700   73.5000   -2.1236 P   0  0  2  0  0  0  0  0  0  0  0  0
   20.2873   74.1114   -1.2045 O   0  0  0  0  0  0  0  0  0  0  0  0
   22.2828   74.5169   -2.8697 O   0  0  0  0  0  0  0  0  0  0  0  0
   20.7206   72.3932   -3.0354 O   0  0  0  0  0  0  0  0  0  0  0  0
   19.9907   72.8320   -4.1679 C   0  0  0  0  0  0  0  0  0  0  0  0
   17.8786   72.5048   -5.2658 O   0  0  0  0  0  0  0  0  0  0  0  0
   17.0155   71.0799   -2.7727 O   0  0  0  0  0  0  0  0  0  0  0  0
   17.5972   69.0206   -4.4631 O   0  0  0  0  0  0  0  0  0  0  0  0
   18.2938   71.0963   -3.4059 C   0  0  1  0  0  0  0  0  0  0  0  0
   18.2704   70.2474   -4.6598 C   0  0  2  0  0  0  0  0  0  0  0  0
   18.5195   72.4929   -3.9714 C   0  0  1  0  0  0  0  0  0  0  0  0
   17.5529   71.1569   -5.6427 C   0  0  2  0  0  0  0  0  0  0  0  0
   16.8491   70.1980   -2.4034 H   0  0  0  0  0  0  0  0  0  0  0  0
   18.0926   68.4777   -3.8302 H   0  0  0  0  0  0  0  0  0  0  0  0
   15.8478   70.2857   -7.7191 O   0  0  0  0  0  0  0  0  0  0  0  0
   19.2711   70.3478  -10.8043 O   0  0  0  0  0  0  0  0  0  0  0  0
   17.9721   70.9375   -6.9982 N   0  0  0  0  0  0  0  0  0  0  0  0
   17.5537   70.3175   -9.2537 N   0  0  0  0  0  0  0  0  0  0  0  0
   17.0370   70.4988   -7.9644 C   0  0  0  0  0  0  0  0  0  0  0  0
   19.2973   71.1574   -7.3580 C   0  0  0  0  0  0  0  0  0  0  0  0
   19.7744   70.9786   -8.5916 C   0  0  0  0  0  0  0  0  0  0  0  0
   18.8628   70.5215   -9.6602 C   0  0  0  0  0  0  0  0  0  0  0  0
   16.9206   70.0118   -9.9433 H   0  0  0  0  0  0  0  0  0  0  0  0
   22.3134   72.5996   -1.0791 O   0  0  0  0  0  0  0  0  0  0  0  0
   21.8438   71.4358   -0.0603 P   0  0  2  0  0  0  0  0  0  0  0  0
   23.2194   70.6478    0.2625 O   0  0  0  0  0  0  0  0  0  0  0  0
   20.7403   70.5649   -0.5874 O   0  0  0  0  0  0  0  0  0  0  0  0
   21.4873   72.2115    1.3095 O   0  0  0  0  0  0  0  0  0  0  0  0
   21.9335   74.4259    2.0263 O   0  0  0  0  0  0  0  0  0  0  0  0
   22.5460   72.4412    5.5951 O   0  0  0  0  0  0  0  0  0  0  0  0
   20.1966   74.0580    5.2569 O   0  0  0  0  0  0  0  0  0  0  0  0
   23.4099   71.2389    3.1076 O   0  0  0  0  0  0  0  0  0  0  0  0
   21.9239   72.6869    4.3310 C   0  0  1  0  0  0  0  0  0  0  0  0
   21.3068   74.0865    4.3642 C   0  0  1  0  0  0  0  0  0  0  0  0
   22.9773   72.5897    3.2290 C   0  0  2  0  0  0  0  0  0  0  0  0
   20.8560   74.5265    2.9648 C   0  0  1  0  0  0  0  0  0  0  0  0
   22.4415   73.0974    1.8891 C   0  0  1  0  0  0  0  0  0  0  0  0
   21.8824   72.5009    6.2991 H   0  0  0  0  0  0  0  0  0  0  0  0
   20.4948   73.7783    6.1367 H   0  0  0  0  0  0  0  0  0  0  0  0
   23.7470   70.9294    3.9622 H   0  0  0  0  0  0  0  0  0  0  0  0
   19.0461   76.0210    3.4114 O   0  0  0  0  0  0  0  0  0  0  0  0
   20.3826   75.9782    2.9465 C   0  0  0  0  0  0  0  0  0  0  0  0
   18.7315   76.9390    3.4055 H   0  0  0  0  0  0  0  0  0  0  0  0
 25 28  1  0
 25 24  1  0
 25 26  1  1
 25 27  2  0
  1  4  1  0
  1 24  1  0
  1  2  1  1
  1  3  2  0
  6 11  1  0
  6 12  1  0
 29 36  1  0
 29 37  1  0
  9  7  1  6
  7 13  1  0
 10  8  1  1
  8 14  1  0
 37 28  1  1
  4  5  1  0
 33 30  1  1
 30 38  1  0
 34 31  1  1
 31 39  1  0
 35 32  1  6
 32 40  1  0
 41 42  1  0
 41 43  1  0
 15 19  2  0
 16 22  2  0
 12 17  1  6
 17 19  1  0
 17 20  1  0
 18 19  1  0
 18 22  1  0
 18 23  1  0
  9 10  1  0
  9 11  1  0
 10 12  1  0
 11  5  1  6
 33 34  1  0
 33 35  1  0
 34 36  1  0
 35 37  1  0
 36 42  1  1
 20 21  2  0
 21 22  1  0
M  CHG  2   2  -1  26  -1
M  END
>  <COMPND>  (174) 
    8629 

>  <AUTHOR>  (174) 
    GENERATED BY OPEN BABEL 3.1.1

>  <MASTER>  (174) 
        0    0    0    0    0    0    0    0   58    0   58    0

>  <minimizedAffinity>  (174) 
-6.66405

>  <CNNscore>  (174) 
0.7918086052

>  <CNNaffinity>  (174) 
4.3536133766

>  <CNN_VS>  (174) 
3.4472284317

>  <CNNaffinity_variance>  (174) 
0.0135930898

$$$$
175
     RDKit          3D

 43 45  0  0  0  0  0  0  0  0999 V2000
   21.1123   71.9731   -5.2954 P   0  0  2  0  0  0  0  0  0  0  0  0
   20.6838   70.7689   -4.3036 O   0  0  0  0  0  0  0  0  0  0  0  0
   20.2851   73.2191   -5.1737 O   0  0  0  0  0  0  0  0  0  0  0  0
   21.1319   71.2829   -6.7586 O   0  0  0  0  0  0  0  0  0  0  0  0
   20.2335   71.7618   -7.7442 C   0  0  0  0  0  0  0  0  0  0  0  0
   18.9130   69.8106   -7.2718 O   0  0  0  0  0  0  0  0  0  0  0  0
   18.0513   69.9287  -10.1413 O   0  0  0  0  0  0  0  0  0  0  0  0
   15.9205   71.0201   -8.8354 O   0  0  0  0  0  0  0  0  0  0  0  0
   18.3187   70.9975   -9.2349 C   0  0  1  0  0  0  0  0  0  0  0  0
   17.1929   71.1292   -8.2305 C   0  0  2  0  0  0  0  0  0  0  0  0
   19.4871   70.5812   -8.3502 C   0  0  1  0  0  0  0  0  0  0  0  0
   17.4866   69.9843   -7.2761 C   0  0  2  0  0  0  0  0  0  0  0  0
   17.3087   70.1715  -10.7172 H   0  0  0  0  0  0  0  0  0  0  0  0
   15.7810   71.7711   -9.4331 H   0  0  0  0  0  0  0  0  0  0  0  0
   16.2230   68.1019   -5.5915 O   0  0  0  0  0  0  0  0  0  0  0  0
   15.8397   71.1556   -2.1609 O   0  0  0  0  0  0  0  0  0  0  0  0
   17.0465   70.2604   -5.9376 N   0  0  0  0  0  0  0  0  0  0  0  0
   16.0333   69.6239   -3.8846 N   0  0  0  0  0  0  0  0  0  0  0  0
   16.4219   69.2453   -5.1760 C   0  0  0  0  0  0  0  0  0  0  0  0
   17.2359   71.5259   -5.3930 C   0  0  0  0  0  0  0  0  0  0  0  0
   16.8584   71.8712   -4.1603 C   0  0  0  0  0  0  0  0  0  0  0  0
   16.1985   70.8690   -3.2988 C   0  0  0  0  0  0  0  0  0  0  0  0
   15.5958   68.9332   -3.3357 H   0  0  0  0  0  0  0  0  0  0  0  0
   22.6823   72.1733   -4.9669 O   0  0  0  0  0  0  0  0  0  0  0  0
   23.4827   72.1636   -3.5626 P   0  0  2  0  0  0  0  0  0  0  0  0
   24.4811   73.4297   -3.6957 O   0  0  0  0  0  0  0  0  0  0  0  0
   24.1683   70.8641   -3.2541 O   0  0  0  0  0  0  0  0  0  0  0  0
   22.3897   72.6199   -2.4662 O   0  0  0  0  0  0  0  0  0  0  0  0
   20.8358   74.4017   -2.3012 O   0  0  0  0  0  0  0  0  0  0  0  0
   22.3333   74.4735    1.5464 O   0  0  0  0  0  0  0  0  0  0  0  0
   19.6776   73.4863    1.0766 O   0  0  0  0  0  0  0  0  0  0  0  0
   24.1033   73.9451   -0.6824 O   0  0  0  0  0  0  0  0  0  0  0  0
   21.9156   73.8638    0.3219 C   0  0  1  0  0  0  0  0  0  0  0  0
   20.4381   74.1940    0.1014 C   0  0  1  0  0  0  0  0  0  0  0  0
   22.7655   74.4108   -0.8234 C   0  0  2  0  0  0  0  0  0  0  0  0
   19.9884   73.8039   -1.3131 C   0  0  1  0  0  0  0  0  0  0  0  0
   22.2039   74.0051   -2.1872 C   0  0  1  0  0  0  0  0  0  0  0  0
   21.7978   74.1302    2.2777 H   0  0  0  0  0  0  0  0  0  0  0  0
   19.9717   73.7414    1.9652 H   0  0  0  0  0  0  0  0  0  0  0  0
   24.4476   74.2085    0.1848 H   0  0  0  0  0  0  0  0  0  0  0  0
   17.6616   73.3250   -1.0575 O   0  0  0  0  0  0  0  0  0  0  0  0
   18.5635   74.2671   -1.6083 C   0  0  0  0  0  0  0  0  0  0  0  0
   16.7506   73.6070   -1.2374 H   0  0  0  0  0  0  0  0  0  0  0  0
 25 28  1  0
 25 24  1  0
 25 26  1  6
 25 27  2  0
  1  4  1  0
  1 24  1  0
  1  2  1  1
  1  3  2  0
  6 11  1  0
  6 12  1  0
 29 36  1  0
 29 37  1  0
  9  7  1  6
  7 13  1  0
 10  8  1  6
  8 14  1  0
 37 28  1  1
  4  5  1  0
 33 30  1  1
 30 38  1  0
 34 31  1  1
 31 39  1  0
 35 32  1  1
 32 40  1  0
 41 42  1  0
 41 43  1  0
 15 19  2  0
 16 22  2  0
 12 17  1  1
 17 19  1  0
 17 20  1  0
 18 19  1  0
 18 22  1  0
 18 23  1  0
  9 10  1  0
  9 11  1  0
 10 12  1  0
 11  5  1  1
 33 34  1  0
 33 35  1  0
 34 36  1  0
 35 37  1  0
 36 42  1  6
 20 21  2  0
 21 22  1  0
M  CHG  2   2  -1  26  -1
M  END
>  <COMPND>  (175) 
    8629 

>  <AUTHOR>  (175) 
    GENERATED BY OPEN BABEL 3.1.1

>  <MASTER>  (175) 
        0    0    0    0    0    0    0    0   58    0   58    0

>  <minimizedAffinity>  (175) 
-6.97144

>  <CNNscore>  (175) 
0.7751647830

>  <CNNaffinity>  (175) 
4.4682483673

>  <CNN_VS>  (175) 
3.4636287689

>  <CNNaffinity_variance>  (175) 
0.2587497532

$$$$
176
     RDKit          3D

 43 45  0  0  0  0  0  0  0  0999 V2000
   23.0951   71.4947   -2.1357 P   0  0  2  0  0  0  0  0  0  0  0  0
   24.1579   70.8635   -3.1794 O   0  0  0  0  0  0  0  0  0  0  0  0
   23.5884   71.6149   -0.7237 O   0  0  0  0  0  0  0  0  0  0  0  0
   21.7667   70.5941   -2.3416 O   0  0  0  0  0  0  0  0  0  0  0  0
   21.0607   70.7005   -3.5655 C   0  0  0  0  0  0  0  0  0  0  0  0
   19.0416   71.6464   -4.4612 O   0  0  0  0  0  0  0  0  0  0  0  0
   17.6227   70.2906   -2.1943 O   0  0  0  0  0  0  0  0  0  0  0  0
   17.1256   68.6194   -4.2911 O   0  0  0  0  0  0  0  0  0  0  0  0
   18.7451   69.8430   -2.9527 C   0  0  1  0  0  0  0  0  0  0  0  0
   18.3042   69.3978   -4.3315 C   0  0  2  0  0  0  0  0  0  0  0  0
   19.6098   71.0563   -3.2716 C   0  0  1  0  0  0  0  0  0  0  0  0
   18.1039   70.7255   -5.0422 C   0  0  2  0  0  0  0  0  0  0  0  0
   17.0557   69.5330   -1.9783 H   0  0  0  0  0  0  0  0  0  0  0  0
   17.3044   67.7854   -3.8292 H   0  0  0  0  0  0  0  0  0  0  0  0
   16.1982   69.8800   -6.9478 O   0  0  0  0  0  0  0  0  0  0  0  0
   19.1716   70.4138  -10.4285 O   0  0  0  0  0  0  0  0  0  0  0  0
   18.3530   70.6345   -6.4533 N   0  0  0  0  0  0  0  0  0  0  0  0
   17.6802   70.1467   -8.6794 N   0  0  0  0  0  0  0  0  0  0  0  0
   17.3283   70.1973   -7.3246 C   0  0  0  0  0  0  0  0  0  0  0  0
   19.6020   70.9768   -6.9599 C   0  0  0  0  0  0  0  0  0  0  0  0
   19.9221   70.9218   -8.2545 C   0  0  0  0  0  0  0  0  0  0  0  0
   18.9082   70.4753   -9.2316 C   0  0  0  0  0  0  0  0  0  0  0  0
   16.9823   69.8446   -9.3051 H   0  0  0  0  0  0  0  0  0  0  0  0
   22.6936   72.8982   -2.8298 O   0  0  0  0  0  0  0  0  0  0  0  0
   23.5596   74.2370   -3.0956 P   0  0  2  0  0  0  0  0  0  0  0  0
   24.9547   73.6659   -3.6831 O   0  0  0  0  0  0  0  0  0  0  0  0
   23.7104   75.1215   -1.8919 O   0  0  0  0  0  0  0  0  0  0  0  0
   22.8438   74.9424   -4.3586 O   0  0  0  0  0  0  0  0  0  0  0  0
   20.7696   75.2169   -5.4716 O   0  0  0  0  0  0  0  0  0  0  0  0
   22.8770   73.3064   -8.4650 O   0  0  0  0  0  0  0  0  0  0  0  0
   22.2779   76.1040   -8.7161 O   0  0  0  0  0  0  0  0  0  0  0  0
   23.2488   72.5142   -5.7057 O   0  0  0  0  0  0  0  0  0  0  0  0
   22.7040   74.1867   -7.3511 C   0  0  1  0  0  0  0  0  0  0  0  0
   21.6808   75.2559   -7.7392 C   0  0  1  0  0  0  0  0  0  0  0  0
   22.2111   73.3814   -6.1503 C   0  0  2  0  0  0  0  0  0  0  0  0
   21.2438   76.0741   -6.5166 C   0  0  1  0  0  0  0  0  0  0  0  0
   21.7551   74.2916   -5.0085 C   0  0  1  0  0  0  0  0  0  0  0  0
   23.1903   73.8115   -9.2307 H   0  0  0  0  0  0  0  0  0  0  0  0
   22.5497   75.5749   -9.4826 H   0  0  0  0  0  0  0  0  0  0  0  0
   23.5284   71.9430   -6.4374 H   0  0  0  0  0  0  0  0  0  0  0  0
   19.4492   76.5732   -8.0130 O   0  0  0  0  0  0  0  0  0  0  0  0
   20.1091   77.0400   -6.8507 C   0  0  0  0  0  0  0  0  0  0  0  0
   18.7243   77.1780   -8.2374 H   0  0  0  0  0  0  0  0  0  0  0  0
 25 28  1  0
 25 24  1  0
 25 26  1  6
 25 27  2  0
  1  4  1  0
  1 24  1  0
  1  2  1  6
  1  3  2  0
  6 11  1  0
  6 12  1  0
 29 36  1  0
 29 37  1  0
  9  7  1  1
  7 13  1  0
 10  8  1  1
  8 14  1  0
 37 28  1  6
  4  5  1  0
 33 30  1  6
 30 38  1  0
 34 31  1  6
 31 39  1  0
 35 32  1  1
 32 40  1  0
 41 42  1  0
 41 43  1  0
 15 19  2  0
 16 22  2  0
 12 17  1  6
 17 19  1  0
 17 20  1  0
 18 19  1  0
 18 22  1  0
 18 23  1  0
  9 10  1  0
  9 11  1  0
 10 12  1  0
 11  5  1  6
 33 34  1  0
 33 35  1  0
 34 36  1  0
 35 37  1  0
 36 42  1  6
 20 21  2  0
 21 22  1  0
M  CHG  2   2  -1  26  -1
M  END
>  <COMPND>  (176) 
    8629 

>  <AUTHOR>  (176) 
    GENERATED BY OPEN BABEL 3.1.1

>  <MASTER>  (176) 
        0    0    0    0    0    0    0    0   58    0   58    0

>  <minimizedAffinity>  (176) 
-7.50951

>  <CNNscore>  (176) 
0.7363719940

>  <CNNaffinity>  (176) 
4.4675936699

>  <CNN_VS>  (176) 
3.2898108959

>  <CNNaffinity_variance>  (176) 
0.4893003404

$$$$
177
     RDKit          3D

 43 45  0  0  0  0  0  0  0  0999 V2000
   21.8527   72.4978   -5.6221 P   0  0  2  0  0  0  0  0  0  0  0  0
   21.2141   73.9615   -5.3625 O   0  0  0  0  0  0  0  0  0  0  0  0
   23.1098   72.4910   -6.4413 O   0  0  0  0  0  0  0  0  0  0  0  0
   20.6201   71.6367   -6.2195 O   0  0  0  0  0  0  0  0  0  0  0  0
   20.0685   72.0212   -7.4668 C   0  0  0  0  0  0  0  0  0  0  0  0
   18.8569   69.9815   -7.0849 O   0  0  0  0  0  0  0  0  0  0  0  0
   18.1323   70.0872   -9.9926 O   0  0  0  0  0  0  0  0  0  0  0  0
   15.8726   71.0181   -8.7827 O   0  0  0  0  0  0  0  0  0  0  0  0
   18.2840   71.1571   -9.0612 C   0  0  1  0  0  0  0  0  0  0  0  0
   17.1036   71.2003   -8.1132 C   0  0  2  0  0  0  0  0  0  0  0  0
   19.4320   70.8040   -8.1238 C   0  0  1  0  0  0  0  0  0  0  0  0
   17.4242   70.0624   -7.1589 C   0  0  2  0  0  0  0  0  0  0  0  0
   17.4049   70.2901  -10.6022 H   0  0  0  0  0  0  0  0  0  0  0  0
   15.7139   71.7675   -9.3776 H   0  0  0  0  0  0  0  0  0  0  0  0
   16.3446   68.0457   -5.5020 O   0  0  0  0  0  0  0  0  0  0  0  0
   15.4459   71.0479   -2.1226 O   0  0  0  0  0  0  0  0  0  0  0  0
   16.9012   70.2890   -5.8412 N   0  0  0  0  0  0  0  0  0  0  0  0
   15.8982   69.5422   -3.8206 N   0  0  0  0  0  0  0  0  0  0  0  0
   16.3811   69.2078   -5.0922 C   0  0  0  0  0  0  0  0  0  0  0  0
   16.9078   71.5717   -5.3041 C   0  0  0  0  0  0  0  0  0  0  0  0
   16.4424   71.8742   -4.0904 C   0  0  0  0  0  0  0  0  0  0  0  0
   15.8817   70.8019   -3.2431 C   0  0  0  0  0  0  0  0  0  0  0  0
   15.5306   68.8051   -3.2809 H   0  0  0  0  0  0  0  0  0  0  0  0
   22.0202   71.9041   -4.1279 O   0  0  0  0  0  0  0  0  0  0  0  0
   23.2383   72.0168   -3.0713 P   0  0  2  0  0  0  0  0  0  0  0  0
   23.8852   73.4620   -3.4035 O   0  0  0  0  0  0  0  0  0  0  0  0
   24.2110   70.8747   -3.1295 O   0  0  0  0  0  0  0  0  0  0  0  0
   22.5200   72.2112   -1.6391 O   0  0  0  0  0  0  0  0  0  0  0  0
   23.4195   70.6415   -0.1082 O   0  0  0  0  0  0  0  0  0  0  0  0
   20.4490   72.2509    2.2660 O   0  0  0  0  0  0  0  0  0  0  0  0
   23.1967   72.8909    2.8037 O   0  0  0  0  0  0  0  0  0  0  0  0
   19.9636   71.8096   -0.5534 O   0  0  0  0  0  0  0  0  0  0  0  0
   21.4721   72.2702    1.2669 C   0  0  1  0  0  0  0  0  0  0  0  0
   22.7894   71.8490    1.9212 C   0  0  1  0  0  0  0  0  0  0  0  0
   21.0945   71.3025    0.1470 C   0  0  2  0  0  0  0  0  0  0  0  0
   23.8732   71.5879    0.8665 C   0  0  1  0  0  0  0  0  0  0  0  0
   22.2583   71.0750   -0.8193 C   0  0  1  0  0  0  0  0  0  0  0  0
   20.6825   72.8637    2.9799 H   0  0  0  0  0  0  0  0  0  0  0  0
   22.5034   73.0462    3.4643 H   0  0  0  0  0  0  0  0  0  0  0  0
   19.2337   71.9490    0.0692 H   0  0  0  0  0  0  0  0  0  0  0  0
   24.7867   70.2140    2.5948 O   0  0  0  0  0  0  0  0  0  0  0  0
   25.1469   71.0156    1.4848 C   0  0  0  0  0  0  0  0  0  0  0  0
   25.5874   69.8428    2.9982 H   0  0  0  0  0  0  0  0  0  0  0  0
 25 28  1  0
 25 24  1  0
 25 26  1  6
 25 27  2  0
  1  4  1  0
  1 24  1  0
  1  2  1  1
  1  3  2  0
  6 11  1  0
  6 12  1  0
 29 36  1  0
 29 37  1  0
  9  7  1  6
  7 13  1  0
 10  8  1  6
  8 14  1  0
 37 28  1  1
  4  5  1  0
 33 30  1  1
 30 38  1  0
 34 31  1  1
 31 39  1  0
 35 32  1  6
 32 40  1  0
 41 42  1  0
 41 43  1  0
 15 19  2  0
 16 22  2  0
 12 17  1  1
 17 19  1  0
 17 20  1  0
 18 19  1  0
 18 22  1  0
 18 23  1  0
  9 10  1  0
  9 11  1  0
 10 12  1  0
 11  5  1  1
 33 34  1  0
 33 35  1  0
 34 36  1  0
 35 37  1  0
 36 42  1  1
 20 21  2  0
 21 22  1  0
M  CHG  2   2  -1  26  -1
M  END
>  <COMPND>  (177) 
    8629 

>  <AUTHOR>  (177) 
    GENERATED BY OPEN BABEL 3.1.1

>  <MASTER>  (177) 
        0    0    0    0    0    0    0    0   58    0   58    0

>  <minimizedAffinity>  (177) 
-8.40834

>  <CNNscore>  (177) 
0.7077567577

>  <CNNaffinity>  (177) 
4.4687042236

>  <CNN_VS>  (177) 
3.1627557278

>  <CNNaffinity_variance>  (177) 
0.2769467831

$$$$
178
     RDKit          3D

 43 45  0  0  0  0  0  0  0  0999 V2000
   23.4902   73.5718   -4.1673 P   0  0  2  0  0  0  0  0  0  0  0  0
   22.7037   74.9618   -4.4254 O   0  0  0  0  0  0  0  0  0  0  0  0
   24.9818   73.6973   -4.0640 O   0  0  0  0  0  0  0  0  0  0  0  0
   22.9466   72.5949   -5.3369 O   0  0  0  0  0  0  0  0  0  0  0  0
   21.5580   72.3190   -5.3964 C   0  0  0  0  0  0  0  0  0  0  0  0
   20.4990   70.3544   -6.2867 O   0  0  0  0  0  0  0  0  0  0  0  0
   20.6410   71.7150   -8.9549 O   0  0  0  0  0  0  0  0  0  0  0  0
   18.0462   72.1181   -8.2195 O   0  0  0  0  0  0  0  0  0  0  0  0
   20.4080   72.2795   -7.6656 C   0  0  1  0  0  0  0  0  0  0  0  0
   19.0056   71.9548   -7.1950 C   0  0  2  0  0  0  0  0  0  0  0  0
   21.2647   71.5211   -6.6595 C   0  0  1  0  0  0  0  0  0  0  0  0
   19.1486   70.5084   -6.7530 C   0  0  2  0  0  0  0  0  0  0  0  0
   20.1048   72.1834   -9.6145 H   0  0  0  0  0  0  0  0  0  0  0  0
   17.9922   73.0546   -8.4659 H   0  0  0  0  0  0  0  0  0  0  0  0
   16.4447   69.7810   -7.1245 O   0  0  0  0  0  0  0  0  0  0  0  0
   15.7808   69.2287   -2.5973 O   0  0  0  0  0  0  0  0  0  0  0  0
   18.2463   70.1691   -5.6890 N   0  0  0  0  0  0  0  0  0  0  0  0
   16.1164   69.5064   -4.8700 N   0  0  0  0  0  0  0  0  0  0  0  0
   16.9078   69.8190   -5.9827 C   0  0  0  0  0  0  0  0  0  0  0  0
   18.6912   70.1853   -4.3715 C   0  0  0  0  0  0  0  0  0  0  0  0
   17.9235   69.8858   -3.3217 C   0  0  0  0  0  0  0  0  0  0  0  0
   16.5122   69.5093   -3.5419 C   0  0  0  0  0  0  0  0  0  0  0  0
   15.1802   69.2598   -5.0504 H   0  0  0  0  0  0  0  0  0  0  0  0
   22.7710   72.9878   -2.8426 O   0  0  0  0  0  0  0  0  0  0  0  0
   22.8945   71.5502   -2.1139 P   0  0  2  0  0  0  0  0  0  0  0  0
   24.2157   70.9046   -2.7885 O   0  0  0  0  0  0  0  0  0  0  0  0
   21.6639   70.6973   -2.2228 O   0  0  0  0  0  0  0  0  0  0  0  0
   23.3370   71.8960   -0.6007 O   0  0  0  0  0  0  0  0  0  0  0  0
   24.6103   70.8915    1.1274 O   0  0  0  0  0  0  0  0  0  0  0  0
   21.2190   71.8509    3.2789 O   0  0  0  0  0  0  0  0  0  0  0  0
   23.6336   73.3489    3.6956 O   0  0  0  0  0  0  0  0  0  0  0  0
   20.9803   70.9026    0.5544 O   0  0  0  0  0  0  0  0  0  0  0  0
   22.2229   72.0374    2.2776 C   0  0  1  0  0  0  0  0  0  0  0  0
   23.5833   72.1223    2.9724 C   0  0  1  0  0  0  0  0  0  0  0  0
   22.1867   70.8571    1.3086 C   0  0  2  0  0  0  0  0  0  0  0  0
   24.7302   72.0545    1.9550 C   0  0  1  0  0  0  0  0  0  0  0  0
   23.3971   70.8571    0.3731 C   0  0  1  0  0  0  0  0  0  0  0  0
   21.2363   72.5972    3.8972 H   0  0  0  0  0  0  0  0  0  0  0  0
   22.9039   73.3792    4.3343 H   0  0  0  0  0  0  0  0  0  0  0  0
   20.2216   70.9019    1.1579 H   0  0  0  0  0  0  0  0  0  0  0  0
   26.7054   70.7508    2.2835 O   0  0  0  0  0  0  0  0  0  0  0  0
   26.0951   71.9787    2.6358 C   0  0  0  0  0  0  0  0  0  0  0  0
   27.5752   70.6888    2.7094 H   0  0  0  0  0  0  0  0  0  0  0  0
 25 28  1  0
 25 24  1  0
 25 26  1  6
 25 27  2  0
  1  4  1  0
  1 24  1  0
  1  2  1  6
  1  3  2  0
  6 11  1  0
  6 12  1  0
 29 36  1  0
 29 37  1  0
  9  7  1  6
  7 13  1  0
 10  8  1  6
  8 14  1  0
 37 28  1  6
  4  5  1  0
 33 30  1  1
 30 38  1  0
 34 31  1  6
 31 39  1  0
 35 32  1  6
 32 40  1  0
 41 42  1  0
 41 43  1  0
 15 19  2  0
 16 22  2  0
 12 17  1  1
 17 19  1  0
 17 20  1  0
 18 19  1  0
 18 22  1  0
 18 23  1  0
  9 10  1  0
  9 11  1  0
 10 12  1  0
 11  5  1  1
 33 34  1  0
 33 35  1  0
 34 36  1  0
 35 37  1  0
 36 42  1  1
 20 21  2  0
 21 22  1  0
M  CHG  2   2  -1  26  -1
M  END
>  <COMPND>  (178) 
    8629 

>  <AUTHOR>  (178) 
    GENERATED BY OPEN BABEL 3.1.1

>  <MASTER>  (178) 
        0    0    0    0    0    0    0    0   58    0   58    0

>  <minimizedAffinity>  (178) 
-8.38909

>  <CNNscore>  (178) 
0.6606990099

>  <CNNaffinity>  (178) 
4.3527979851

>  <CNN_VS>  (178) 
2.8758893013

>  <CNNaffinity_variance>  (178) 
0.2733110785

$$$$
179
     RDKit          3D

 43 45  0  0  0  0  0  0  0  0999 V2000
   23.4081   71.8516   -3.3076 P   0  0  2  0  0  0  0  0  0  0  0  0
   24.1165   72.9487   -4.2627 O   0  0  0  0  0  0  0  0  0  0  0  0
   24.2635   70.6697   -2.9574 O   0  0  0  0  0  0  0  0  0  0  0  0
   22.0200   71.5140   -4.0672 O   0  0  0  0  0  0  0  0  0  0  0  0
   21.5558   72.4133   -5.0589 C   0  0  0  0  0  0  0  0  0  0  0  0
   20.5454   70.4657   -6.0385 O   0  0  0  0  0  0  0  0  0  0  0  0
   20.7828   71.8933   -8.6646 O   0  0  0  0  0  0  0  0  0  0  0  0
   18.1585   72.2634   -8.0219 O   0  0  0  0  0  0  0  0  0  0  0  0
   20.4958   72.4241   -7.3718 C   0  0  1  0  0  0  0  0  0  0  0  0
   19.0782   72.0799   -6.9649 C   0  0  2  0  0  0  0  0  0  0  0  0
   21.3174   71.6455   -6.3519 C   0  0  1  0  0  0  0  0  0  0  0  0
   19.2132   70.6237   -6.5536 C   0  0  2  0  0  0  0  0  0  0  0  0
   20.2698   72.3751   -9.3329 H   0  0  0  0  0  0  0  0  0  0  0  0
   18.1081   73.2055   -8.2469 H   0  0  0  0  0  0  0  0  0  0  0  0
   16.5488   69.8311   -7.0541 O   0  0  0  0  0  0  0  0  0  0  0  0
   15.6929   69.2248   -2.5662 O   0  0  0  0  0  0  0  0  0  0  0  0
   18.2723   70.2529   -5.5345 N   0  0  0  0  0  0  0  0  0  0  0  0
   16.1248   69.5297   -4.8190 N   0  0  0  0  0  0  0  0  0  0  0  0
   16.9580   69.8714   -5.8919 C   0  0  0  0  0  0  0  0  0  0  0  0
   18.6558   70.2695   -4.1980 C   0  0  0  0  0  0  0  0  0  0  0  0
   17.8489   69.9420   -3.1866 C   0  0  0  0  0  0  0  0  0  0  0  0
   16.4592   69.5317   -3.4741 C   0  0  0  0  0  0  0  0  0  0  0  0
   15.2045   69.2610   -5.0439 H   0  0  0  0  0  0  0  0  0  0  0  0
   22.9244   72.7310   -2.0405 O   0  0  0  0  0  0  0  0  0  0  0  0
   21.7761   72.4589   -0.9358 P   0  0  2  0  0  0  0  0  0  0  0  0
   21.6169   70.8490   -0.9549 O   0  0  0  0  0  0  0  0  0  0  0  0
   20.4991   73.2103   -1.1777 O   0  0  0  0  0  0  0  0  0  0  0  0
   22.4846   72.7817    0.4780 O   0  0  0  0  0  0  0  0  0  0  0  0
   24.0033   71.5248    1.7934 O   0  0  0  0  0  0  0  0  0  0  0  0
   21.7030   73.1499    4.8131 O   0  0  0  0  0  0  0  0  0  0  0  0
   24.3749   74.1143    4.3906 O   0  0  0  0  0  0  0  0  0  0  0  0
   20.4518   72.2890    2.3488 O   0  0  0  0  0  0  0  0  0  0  0  0
   22.3648   73.1315    3.5454 C   0  0  1  0  0  0  0  0  0  0  0  0
   23.8616   72.9291    3.7887 C   0  0  1  0  0  0  0  0  0  0  0  0
   21.7979   71.9905    2.7028 C   0  0  2  0  0  0  0  0  0  0  0  0
   24.6010   72.6325    2.4771 C   0  0  1  0  0  0  0  0  0  0  0  0
   22.6351   71.7465    1.4460 C   0  0  1  0  0  0  0  0  0  0  0  0
   22.0580   73.8725    5.3528 H   0  0  0  0  0  0  0  0  0  0  0  0
   23.8993   74.2905    5.2176 H   0  0  0  0  0  0  0  0  0  0  0  0
   19.9322   72.4410    3.1530 H   0  0  0  0  0  0  0  0  0  0  0  0
   26.3030   70.9814    2.1840 O   0  0  0  0  0  0  0  0  0  0  0  0
   26.0658   72.2721    2.7151 C   0  0  0  0  0  0  0  0  0  0  0  0
   27.2315   70.7388    2.3279 H   0  0  0  0  0  0  0  0  0  0  0  0
 25 28  1  0
 25 24  1  0
 25 26  1  1
 25 27  2  0
  1  4  1  0
  1 24  1  0
  1  2  1  6
  1  3  2  0
  6 11  1  0
  6 12  1  0
 29 36  1  0
 29 37  1  0
  9  7  1  6
  7 13  1  0
 10  8  1  6
  8 14  1  0
 37 28  1  6
  4  5  1  0
 33 30  1  1
 30 38  1  0
 34 31  1  6
 31 39  1  0
 35 32  1  6
 32 40  1  0
 41 42  1  0
 41 43  1  0
 15 19  2  0
 16 22  2  0
 12 17  1  1
 17 19  1  0
 17 20  1  0
 18 19  1  0
 18 22  1  0
 18 23  1  0
  9 10  1  0
  9 11  1  0
 10 12  1  0
 11  5  1  1
 33 34  1  0
 33 35  1  0
 34 36  1  0
 35 37  1  0
 36 42  1  1
 20 21  2  0
 21 22  1  0
M  CHG  2   2  -1  26  -1
M  END
>  <COMPND>  (179) 
    8629 

>  <AUTHOR>  (179) 
    GENERATED BY OPEN BABEL 3.1.1

>  <MASTER>  (179) 
        0    0    0    0    0    0    0    0   58    0   58    0

>  <minimizedAffinity>  (179) 
-7.80278

>  <CNNscore>  (179) 
0.6329846382

>  <CNNaffinity>  (179) 
4.3194017410

>  <CNN_VS>  (179) 
2.7341148853

>  <CNNaffinity_variance>  (179) 
0.1910266131

$$$$
180
     RDKit          3D

 43 45  0  0  0  0  0  0  0  0999 V2000
   23.0809   71.5858   -2.6787 P   0  0  2  0  0  0  0  0  0  0  0  0
   23.2555   73.1648   -2.3726 O   0  0  0  0  0  0  0  0  0  0  0  0
   24.3022   70.9076   -3.2263 O   0  0  0  0  0  0  0  0  0  0  0  0
   21.7602   71.5146   -3.6108 O   0  0  0  0  0  0  0  0  0  0  0  0
   21.5813   72.5064   -4.6068 C   0  0  0  0  0  0  0  0  0  0  0  0
   20.6155   70.6352   -5.7642 O   0  0  0  0  0  0  0  0  0  0  0  0
   21.0000   72.2290   -8.2747 O   0  0  0  0  0  0  0  0  0  0  0  0
   18.3469   72.5782   -7.7495 O   0  0  0  0  0  0  0  0  0  0  0  0
   20.6468   72.6768   -6.9670 C   0  0  1  0  0  0  0  0  0  0  0  0
   19.2078   72.3186   -6.6594 C   0  0  2  0  0  0  0  0  0  0  0  0
   21.4088   71.8266   -5.9582 C   0  0  1  0  0  0  0  0  0  0  0  0
   19.3136   70.8375   -6.3378 C   0  0  2  0  0  0  0  0  0  0  0  0
   20.5258   72.7575   -8.9364 H   0  0  0  0  0  0  0  0  0  0  0  0
   18.3131   73.5333   -7.9147 H   0  0  0  0  0  0  0  0  0  0  0  0
   16.7281   69.9470   -7.0451 O   0  0  0  0  0  0  0  0  0  0  0  0
   15.5753   69.2190   -2.6425 O   0  0  0  0  0  0  0  0  0  0  0  0
   18.3176   70.4089   -5.3967 N   0  0  0  0  0  0  0  0  0  0  0  0
   16.1563   69.5851   -4.8524 N   0  0  0  0  0  0  0  0  0  0  0  0
   17.0500   69.9813   -5.8556 C   0  0  0  0  0  0  0  0  0  0  0  0
   18.6023   70.4151   -4.0355 C   0  0  0  0  0  0  0  0  0  0  0  0
   17.7386   70.0354   -3.0915 C   0  0  0  0  0  0  0  0  0  0  0  0
   16.3919   69.5745   -3.4867 C   0  0  0  0  0  0  0  0  0  0  0  0
   15.2668   69.2836   -5.1485 H   0  0  0  0  0  0  0  0  0  0  0  0
   22.5607   70.9970   -1.2660 O   0  0  0  0  0  0  0  0  0  0  0  0
   21.5227   71.5988   -0.1828 P   0  0  2  0  0  0  0  0  0  0  0  0
   21.1789   70.3226    0.7503 O   0  0  0  0  0  0  0  0  0  0  0  0
   20.3211   72.2661   -0.7866 O   0  0  0  0  0  0  0  0  0  0  0  0
   22.4206   72.5585    0.7540 O   0  0  0  0  0  0  0  0  0  0  0  0
   21.1985   74.3496    1.7106 O   0  0  0  0  0  0  0  0  0  0  0  0
   25.0278   75.6191    2.5913 O   0  0  0  0  0  0  0  0  0  0  0  0
   23.3443   74.6253    4.6952 O   0  0  0  0  0  0  0  0  0  0  0  0
   24.4803   74.3324    0.0567 O   0  0  0  0  0  0  0  0  0  0  0  0
   23.9871   74.6586    2.3916 C   0  0  1  0  0  0  0  0  0  0  0  0
   22.8671   74.9499    3.3924 C   0  0  1  0  0  0  0  0  0  0  0  0
   23.4707   74.7728    0.9586 C   0  0  2  0  0  0  0  0  0  0  0  0
   21.6075   74.1361    3.0666 C   0  0  1  0  0  0  0  0  0  0  0  0
   22.1880   73.9647    0.7543 C   0  0  1  0  0  0  0  0  0  0  0  0
   25.3604   75.5515    3.4992 H   0  0  0  0  0  0  0  0  0  0  0  0
   24.1401   75.1456    4.8884 H   0  0  0  0  0  0  0  0  0  0  0  0
   25.2869   74.8519    0.1958 H   0  0  0  0  0  0  0  0  0  0  0  0
   19.5971   73.3932    4.1227 O   0  0  0  0  0  0  0  0  0  0  0  0
   20.4285   74.5268    3.9550 C   0  0  0  0  0  0  0  0  0  0  0  0
   18.8425   73.6269    4.6863 H   0  0  0  0  0  0  0  0  0  0  0  0
 25 28  1  0
 25 24  1  0
 25 26  1  1
 25 27  2  0
  1  4  1  0
  1 24  1  0
  1  2  1  1
  1  3  2  0
  6 11  1  0
  6 12  1  0
 29 36  1  0
 29 37  1  0
  9  7  1  6
  7 13  1  0
 10  8  1  6
  8 14  1  0
 37 28  1  1
  4  5  1  0
 33 30  1  6
 30 38  1  0
 34 31  1  1
 31 39  1  0
 35 32  1  6
 32 40  1  0
 41 42  1  0
 41 43  1  0
 15 19  2  0
 16 22  2  0
 12 17  1  1
 17 19  1  0
 17 20  1  0
 18 19  1  0
 18 22  1  0
 18 23  1  0
  9 10  1  0
  9 11  1  0
 10 12  1  0
 11  5  1  1
 33 34  1  0
 33 35  1  0
 34 36  1  0
 35 37  1  0
 36 42  1  1
 20 21  2  0
 21 22  1  0
M  CHG  2   2  -1  26  -1
M  END
>  <COMPND>  (180) 
    8629 

>  <AUTHOR>  (180) 
    GENERATED BY OPEN BABEL 3.1.1

>  <MASTER>  (180) 
        0    0    0    0    0    0    0    0   58    0   58    0

>  <minimizedAffinity>  (180) 
-6.95247

>  <CNNscore>  (180) 
0.5732769370

>  <CNNaffinity>  (180) 
4.1632294655

>  <CNN_VS>  (180) 
2.3866834641

>  <CNNaffinity_variance>  (180) 
0.2112711370

$$$$
181
     RDKit          3D

 43 45  0  0  0  0  0  0  0  0999 V2000
   22.7551   71.4917   -2.6786 P   0  0  2  0  0  0  0  0  0  0  0  0
   22.8087   73.0697   -2.3257 O   0  0  0  0  0  0  0  0  0  0  0  0
   24.0814   70.8695   -3.0034 O   0  0  0  0  0  0  0  0  0  0  0  0
   21.6293   71.3906   -3.8363 O   0  0  0  0  0  0  0  0  0  0  0  0
   20.6997   70.3225   -3.7839 C   0  0  0  0  0  0  0  0  0  0  0  0
   18.8939   71.5680   -4.7645 O   0  0  0  0  0  0  0  0  0  0  0  0
   17.1727   70.4225   -2.5928 O   0  0  0  0  0  0  0  0  0  0  0  0
   16.5404   68.8617   -4.7378 O   0  0  0  0  0  0  0  0  0  0  0  0
   18.2533   69.8176   -3.3011 C   0  0  1  0  0  0  0  0  0  0  0  0
   17.8227   69.4547   -4.7070 C   0  0  2  0  0  0  0  0  0  0  0  0
   19.3050   70.8897   -3.5574 C   0  0  1  0  0  0  0  0  0  0  0  0
   17.8603   70.8030   -5.4060 C   0  0  2  0  0  0  0  0  0  0  0  0
   16.4884   69.7570   -2.4174 H   0  0  0  0  0  0  0  0  0  0  0  0
   16.5683   68.0067   -4.2807 H   0  0  0  0  0  0  0  0  0  0  0  0
   15.9435   70.3187   -7.4233 O   0  0  0  0  0  0  0  0  0  0  0  0
   19.1471   70.3749  -10.7361 O   0  0  0  0  0  0  0  0  0  0  0  0
   18.1657   70.6868   -6.8041 N   0  0  0  0  0  0  0  0  0  0  0  0
   17.5402   70.3473   -9.0712 N   0  0  0  0  0  0  0  0  0  0  0  0
   17.1297   70.4419   -7.7353 C   0  0  0  0  0  0  0  0  0  0  0  0
   19.4802   70.8158   -7.2393 C   0  0  0  0  0  0  0  0  0  0  0  0
   19.8552   70.7216   -8.5167 C   0  0  0  0  0  0  0  0  0  0  0  0
   18.8341   70.4669   -9.5532 C   0  0  0  0  0  0  0  0  0  0  0  0
   16.8356   70.1766   -9.7377 H   0  0  0  0  0  0  0  0  0  0  0  0
   22.0111   70.8565   -1.3918 O   0  0  0  0  0  0  0  0  0  0  0  0
   22.3003   71.0209    0.1901 P   0  0  2  0  0  0  0  0  0  0  0  0
   23.8984   71.2652    0.2517 O   0  0  0  0  0  0  0  0  0  0  0  0
   21.8167   69.8720    1.0267 O   0  0  0  0  0  0  0  0  0  0  0  0
   21.6545   72.4486    0.5771 O   0  0  0  0  0  0  0  0  0  0  0  0
   21.1835   72.1354    2.8786 O   0  0  0  0  0  0  0  0  0  0  0  0
   20.2398   76.1420    2.5512 O   0  0  0  0  0  0  0  0  0  0  0  0
   22.6341   75.3572    3.9294 O   0  0  0  0  0  0  0  0  0  0  0  0
   19.5715   74.3210    0.4026 O   0  0  0  0  0  0  0  0  0  0  0  0
   20.9706   74.9476    2.2604 C   0  0  1  0  0  0  0  0  0  0  0  0
   21.6043   74.4448    3.5590 C   0  0  1  0  0  0  0  0  0  0  0  0
   20.0131   73.9030    1.6898 C   0  0  2  0  0  0  0  0  0  0  0  0
   22.1789   73.0325    3.3846 C   0  0  1  0  0  0  0  0  0  0  0  0
   20.6684   72.5235    1.6034 C   0  0  1  0  0  0  0  0  0  0  0  0
   20.8421   76.8095    2.9135 H   0  0  0  0  0  0  0  0  0  0  0  0
   22.2582   76.2452    4.0359 H   0  0  0  0  0  0  0  0  0  0  0  0
   19.1583   75.1953    0.4708 H   0  0  0  0  0  0  0  0  0  0  0  0
   21.9509   73.0527    5.7629 O   0  0  0  0  0  0  0  0  0  0  0  0
   22.6746   72.4495    4.7061 C   0  0  0  0  0  0  0  0  0  0  0  0
   22.2556   72.6909    6.6103 H   0  0  0  0  0  0  0  0  0  0  0  0
 25 28  1  0
 25 24  1  0
 25 26  1  6
 25 27  2  0
  1  4  1  0
  1 24  1  0
  1  2  1  1
  1  3  2  0
  6 11  1  0
  6 12  1  0
 29 36  1  0
 29 37  1  0
  9  7  1  1
  7 13  1  0
 10  8  1  1
  8 14  1  0
 37 28  1  6
  4  5  1  0
 33 30  1  1
 30 38  1  0
 34 31  1  6
 31 39  1  0
 35 32  1  6
 32 40  1  0
 41 42  1  0
 41 43  1  0
 15 19  2  0
 16 22  2  0
 12 17  1  6
 17 19  1  0
 17 20  1  0
 18 19  1  0
 18 22  1  0
 18 23  1  0
  9 10  1  0
  9 11  1  0
 10 12  1  0
 11  5  1  6
 33 34  1  0
 33 35  1  0
 34 36  1  0
 35 37  1  0
 36 42  1  1
 20 21  2  0
 21 22  1  0
M  CHG  2   2  -1  26  -1
M  END
>  <COMPND>  (181) 
    8629 

>  <AUTHOR>  (181) 
    GENERATED BY OPEN BABEL 3.1.1

>  <MASTER>  (181) 
        0    0    0    0    0    0    0    0   58    0   58    0

>  <minimizedAffinity>  (181) 
-7.98636

>  <CNNscore>  (181) 
0.9229375124

>  <CNNaffinity>  (181) 
4.7606468201

>  <CNN_VS>  (181) 
4.3937797546

>  <CNNaffinity_variance>  (181) 
0.0316457972

$$$$
182
     RDKit          3D

 43 45  0  0  0  0  0  0  0  0999 V2000
   20.3792   71.2364   -1.3178 P   0  0  2  0  0  0  0  0  0  0  0  0
   20.8173   70.6090    0.1077 O   0  0  0  0  0  0  0  0  0  0  0  0
   19.8341   72.6329   -1.2549 O   0  0  0  0  0  0  0  0  0  0  0  0
   19.3868   70.1223   -1.9439 O   0  0  0  0  0  0  0  0  0  0  0  0
   19.0725   70.1958   -3.3236 C   0  0  0  0  0  0  0  0  0  0  0  0
   17.4401   71.2899   -4.7063 O   0  0  0  0  0  0  0  0  0  0  0  0
   15.3833   69.6998   -3.2123 O   0  0  0  0  0  0  0  0  0  0  0  0
   15.6303   68.3093   -5.5452 O   0  0  0  0  0  0  0  0  0  0  0  0
   16.7001   69.3228   -3.6114 C   0  0  1  0  0  0  0  0  0  0  0  0
   16.7427   69.0598   -5.1022 C   0  0  2  0  0  0  0  0  0  0  0  0
   17.5989   70.5459   -3.4785 C   0  0  1  0  0  0  0  0  0  0  0  0
   16.7611   70.4686   -5.6704 C   0  0  2  0  0  0  0  0  0  0  0  0
   14.7911   68.9346   -3.2884 H   0  0  0  0  0  0  0  0  0  0  0  0
   15.6637   67.4213   -5.1566 H   0  0  0  0  0  0  0  0  0  0  0  0
   15.5039   70.5052   -8.1994 O   0  0  0  0  0  0  0  0  0  0  0  0
   19.5416   70.7625  -10.4067 O   0  0  0  0  0  0  0  0  0  0  0  0
   17.4596   70.5451   -6.9225 N   0  0  0  0  0  0  0  0  0  0  0  0
   17.5154   70.6335   -9.2964 N   0  0  0  0  0  0  0  0  0  0  0  0
   16.7340   70.5563   -8.1364 C   0  0  0  0  0  0  0  0  0  0  0  0
   18.8487   70.6084   -6.9383 C   0  0  0  0  0  0  0  0  0  0  0  0
   19.5791   70.6804   -8.0531 C   0  0  0  0  0  0  0  0  0  0  0  0
   18.8981   70.6971   -9.3638 C   0  0  0  0  0  0  0  0  0  0  0  0
   17.0314   70.6423  -10.1540 H   0  0  0  0  0  0  0  0  0  0  0  0
   21.7162   71.0756   -2.2120 O   0  0  0  0  0  0  0  0  0  0  0  0
   22.9053   72.1200   -2.5407 P   0  0  2  0  0  0  0  0  0  0  0  0
   23.9757   71.2197   -3.3539 O   0  0  0  0  0  0  0  0  0  0  0  0
   23.4685   72.8114   -1.3329 O   0  0  0  0  0  0  0  0  0  0  0  0
   22.2819   73.1131   -3.6498 O   0  0  0  0  0  0  0  0  0  0  0  0
   20.0862   73.0454   -4.5392 O   0  0  0  0  0  0  0  0  0  0  0  0
   22.0880   74.5222   -7.8351 O   0  0  0  0  0  0  0  0  0  0  0  0
   20.3773   76.2606   -6.3187 O   0  0  0  0  0  0  0  0  0  0  0  0
   23.3288   72.4975   -6.1796 O   0  0  0  0  0  0  0  0  0  0  0  0
   21.8193   74.3563   -6.4402 C   0  0  1  0  0  0  0  0  0  0  0  0
   20.3957   74.8442   -6.1647 C   0  0  1  0  0  0  0  0  0  0  0  0
   21.9613   72.8794   -6.0768 C   0  0  2  0  0  0  0  0  0  0  0  0
   19.9401   74.4544   -4.7520 C   0  0  1  0  0  0  0  0  0  0  0  0
   21.4346   72.5908   -4.6699 C   0  0  1  0  0  0  0  0  0  0  0  0
   22.0000   75.4579   -8.0723 H   0  0  0  0  0  0  0  0  0  0  0  0
   20.6674   76.4935   -7.2147 H   0  0  0  0  0  0  0  0  0  0  0  0
   23.6503   72.6850   -7.0748 H   0  0  0  0  0  0  0  0  0  0  0  0
   18.0034   74.0163   -3.4230 O   0  0  0  0  0  0  0  0  0  0  0  0
   18.4703   74.7918   -4.5116 C   0  0  0  0  0  0  0  0  0  0  0  0
   17.0692   74.2208   -3.2583 H   0  0  0  0  0  0  0  0  0  0  0  0
 25 28  1  0
 25 24  1  0
 25 26  1  6
 25 27  2  0
  1  4  1  0
  1 24  1  0
  1  2  1  1
  1  3  2  0
  6 11  1  0
  6 12  1  0
 29 36  1  0
 29 37  1  0
  9  7  1  6
  7 13  1  0
 10  8  1  6
  8 14  1  0
 37 28  1  1
  4  5  1  0
 33 30  1  6
 30 38  1  0
 34 31  1  1
 31 39  1  0
 35 32  1  1
 32 40  1  0
 41 42  1  0
 41 43  1  0
 15 19  2  0
 16 22  2  0
 12 17  1  6
 17 19  1  0
 17 20  1  0
 18 19  1  0
 18 22  1  0
 18 23  1  0
  9 10  1  0
  9 11  1  0
 10 12  1  0
 11  5  1  6
 33 34  1  0
 33 35  1  0
 34 36  1  0
 35 37  1  0
 36 42  1  6
 20 21  2  0
 21 22  1  0
M  CHG  2   2  -1  26  -1
M  END
>  <COMPND>  (182) 
    8629 

>  <AUTHOR>  (182) 
    GENERATED BY OPEN BABEL 3.1.1

>  <MASTER>  (182) 
        0    0    0    0    0    0    0    0   58    0   58    0

>  <minimizedAffinity>  (182) 
-7.72170

>  <CNNscore>  (182) 
0.9177429676

>  <CNNaffinity>  (182) 
4.6585402489

>  <CNN_VS>  (182) 
4.2753424644

>  <CNNaffinity_variance>  (182) 
0.5638630986

$$$$
183
     RDKit          3D

 43 45  0  0  0  0  0  0  0  0999 V2000
   20.4460   71.2116   -1.3142 P   0  0  2  0  0  0  0  0  0  0  0  0
   20.7655   70.5249    0.1154 O   0  0  0  0  0  0  0  0  0  0  0  0
   20.0112   72.6461   -1.2451 O   0  0  0  0  0  0  0  0  0  0  0  0
   19.3987   70.1927   -2.0091 O   0  0  0  0  0  0  0  0  0  0  0  0
   19.1126   70.3533   -3.3876 C   0  0  0  0  0  0  0  0  0  0  0  0
   17.4698   71.3890   -4.8026 O   0  0  0  0  0  0  0  0  0  0  0  0
   15.4280   69.8285   -3.2576 O   0  0  0  0  0  0  0  0  0  0  0  0
   15.6859   68.3677   -5.5458 O   0  0  0  0  0  0  0  0  0  0  0  0
   16.7479   69.4508   -3.6458 C   0  0  1  0  0  0  0  0  0  0  0  0
   16.7919   69.1414   -5.1276 C   0  0  2  0  0  0  0  0  0  0  0  0
   17.6359   70.6854   -3.5521 C   0  0  1  0  0  0  0  0  0  0  0  0
   16.7976   70.5319   -5.7398 C   0  0  2  0  0  0  0  0  0  0  0  0
   14.8426   69.0561   -3.3091 H   0  0  0  0  0  0  0  0  0  0  0  0
   15.7274   67.4926   -5.1296 H   0  0  0  0  0  0  0  0  0  0  0  0
   15.5350   70.5852   -8.2659 O   0  0  0  0  0  0  0  0  0  0  0  0
   19.5726   70.6959  -10.4855 O   0  0  0  0  0  0  0  0  0  0  0  0
   17.4946   70.5752   -6.9942 N   0  0  0  0  0  0  0  0  0  0  0  0
   17.5465   70.6405   -9.3690 N   0  0  0  0  0  0  0  0  0  0  0  0
   16.7663   70.5982   -8.2064 C   0  0  0  0  0  0  0  0  0  0  0  0
   18.8850   70.5947   -7.0141 C   0  0  0  0  0  0  0  0  0  0  0  0
   19.6141   70.6337   -8.1313 C   0  0  0  0  0  0  0  0  0  0  0  0
   18.9304   70.6600   -9.4404 C   0  0  0  0  0  0  0  0  0  0  0  0
   17.0607   70.6567  -10.2254 H   0  0  0  0  0  0  0  0  0  0  0  0
   21.8065   70.9605   -2.1502 O   0  0  0  0  0  0  0  0  0  0  0  0
   23.2874   71.5857   -1.9805 P   0  0  2  0  0  0  0  0  0  0  0  0
   24.1802   70.7086   -3.0058 O   0  0  0  0  0  0  0  0  0  0  0  0
   23.7944   71.5923   -0.5675 O   0  0  0  0  0  0  0  0  0  0  0  0
   23.1958   73.0445   -2.6651 O   0  0  0  0  0  0  0  0  0  0  0  0
   23.7374   73.0788   -4.9721 O   0  0  0  0  0  0  0  0  0  0  0  0
   23.8455   77.1354   -4.2086 O   0  0  0  0  0  0  0  0  0  0  0  0
   21.6705   76.0360   -5.7281 O   0  0  0  0  0  0  0  0  0  0  0  0
   24.8539   75.2682   -2.2398 O   0  0  0  0  0  0  0  0  0  0  0  0
   23.3704   75.7944   -4.0629 C   0  0  1  0  0  0  0  0  0  0  0  0
   22.8615   75.3153   -5.4238 C   0  0  1  0  0  0  0  0  0  0  0  0
   24.5158   74.9092   -3.5752 C   0  0  2  0  0  0  0  0  0  0  0  0
   22.5843   73.8060   -5.4117 C   0  0  1  0  0  0  0  0  0  0  0  0
   24.1536   73.4248   -3.6496 C   0  0  1  0  0  0  0  0  0  0  0  0
   23.1229   77.7028   -4.5176 H   0  0  0  0  0  0  0  0  0  0  0  0
   21.8592   76.9877   -5.7321 H   0  0  0  0  0  0  0  0  0  0  0  0
   25.0815   76.2100   -2.2061 H   0  0  0  0  0  0  0  0  0  0  0  0
   22.7514   71.9706   -6.9323 O   0  0  0  0  0  0  0  0  0  0  0  0
   22.2270   73.2789   -6.7997 C   0  0  0  0  0  0  0  0  0  0  0  0
   22.5314   71.6223   -7.8110 H   0  0  0  0  0  0  0  0  0  0  0  0
 25 28  1  0
 25 24  1  0
 25 26  1  6
 25 27  2  0
  1  4  1  0
  1 24  1  0
  1  2  1  1
  1  3  2  0
  6 11  1  0
  6 12  1  0
 29 36  1  0
 29 37  1  0
  9  7  1  6
  7 13  1  0
 10  8  1  6
  8 14  1  0
 37 28  1  1
  4  5  1  0
 33 30  1  6
 30 38  1  0
 34 31  1  1
 31 39  1  0
 35 32  1  1
 32 40  1  0
 41 42  1  0
 41 43  1  0
 15 19  2  0
 16 22  2  0
 12 17  1  6
 17 19  1  0
 17 20  1  0
 18 19  1  0
 18 22  1  0
 18 23  1  0
  9 10  1  0
  9 11  1  0
 10 12  1  0
 11  5  1  6
 33 34  1  0
 33 35  1  0
 34 36  1  0
 35 37  1  0
 36 42  1  6
 20 21  2  0
 21 22  1  0
M  CHG  2   2  -1  26  -1
M  END
>  <COMPND>  (183) 
    8629 

>  <AUTHOR>  (183) 
    GENERATED BY OPEN BABEL 3.1.1

>  <MASTER>  (183) 
        0    0    0    0    0    0    0    0   58    0   58    0

>  <minimizedAffinity>  (183) 
-8.36844

>  <CNNscore>  (183) 
0.8886398673

>  <CNNaffinity>  (183) 
4.7276391983

>  <CNN_VS>  (183) 
4.2011685371

>  <CNNaffinity_variance>  (183) 
0.2475033253

$$$$
184
     RDKit          3D

 43 45  0  0  0  0  0  0  0  0999 V2000
   21.3496   72.6889   -4.8174 P   0  0  2  0  0  0  0  0  0  0  0  0
   21.4484   74.2999   -4.7061 O   0  0  0  0  0  0  0  0  0  0  0  0
   22.0898   72.0870   -5.9754 O   0  0  0  0  0  0  0  0  0  0  0  0
   19.7596   72.3931   -4.7696 O   0  0  0  0  0  0  0  0  0  0  0  0
   19.2549   71.5756   -3.7281 C   0  0  0  0  0  0  0  0  0  0  0  0
   17.3881   71.8074   -5.2231 O   0  0  0  0  0  0  0  0  0  0  0  0
   15.8318   70.1959   -3.2301 O   0  0  0  0  0  0  0  0  0  0  0  0
   16.4380   68.3499   -5.1436 O   0  0  0  0  0  0  0  0  0  0  0  0
   17.2010   70.0784   -3.6134 C   0  0  1  0  0  0  0  0  0  0  0  0
   17.3105   69.4505   -4.9872 C   0  0  2  0  0  0  0  0  0  0  0  0
   17.7411   71.4814   -3.8610 C   0  0  1  0  0  0  0  0  0  0  0  0
   16.9518   70.6145   -5.8951 C   0  0  2  0  0  0  0  0  0  0  0  0
   15.4651   69.3124   -3.0662 H   0  0  0  0  0  0  0  0  0  0  0  0
   16.7076   67.6358   -4.5451 H   0  0  0  0  0  0  0  0  0  0  0  0
   15.6211   70.7999   -8.3797 O   0  0  0  0  0  0  0  0  0  0  0  0
   19.5523   70.2902  -10.7305 O   0  0  0  0  0  0  0  0  0  0  0  0
   17.6031   70.5340   -7.1721 N   0  0  0  0  0  0  0  0  0  0  0  0
   17.5797   70.5461   -9.5482 N   0  0  0  0  0  0  0  0  0  0  0  0
   16.8430   70.6379   -8.3604 C   0  0  0  0  0  0  0  0  0  0  0  0
   18.9805   70.3541   -7.2374 C   0  0  0  0  0  0  0  0  0  0  0  0
   19.6678   70.2673   -8.3781 C   0  0  0  0  0  0  0  0  0  0  0  0
   18.9489   70.3663   -9.6648 C   0  0  0  0  0  0  0  0  0  0  0  0
   17.0711   70.6155  -10.3887 H   0  0  0  0  0  0  0  0  0  0  0  0
   21.8553   72.1925   -3.3645 O   0  0  0  0  0  0  0  0  0  0  0  0
   23.3406   72.0915   -2.7349 P   0  0  2  0  0  0  0  0  0  0  0  0
   24.0239   73.4921   -3.1698 O   0  0  0  0  0  0  0  0  0  0  0  0
   24.1065   70.8714   -3.1575 O   0  0  0  0  0  0  0  0  0  0  0  0
   23.1189   72.2235   -1.1417 O   0  0  0  0  0  0  0  0  0  0  0  0
   23.9049   70.7024    0.4969 O   0  0  0  0  0  0  0  0  0  0  0  0
   20.5220   72.0671    2.4321 O   0  0  0  0  0  0  0  0  0  0  0  0
   23.1135   72.8936    3.3537 O   0  0  0  0  0  0  0  0  0  0  0  0
   20.4709   71.6279   -0.4286 O   0  0  0  0  0  0  0  0  0  0  0  0
   21.6714   72.1715    1.5874 C   0  0  1  0  0  0  0  0  0  0  0  0
   22.9105   71.8366    2.4201 C   0  0  1  0  0  0  0  0  0  0  0  0
   21.5256   71.1936    0.4231 C   0  0  2  0  0  0  0  0  0  0  0  0
   24.1477   71.6663    1.5283 C   0  0  1  0  0  0  0  0  0  0  0  0
   22.8271   71.0614   -0.3699 C   0  0  1  0  0  0  0  0  0  0  0  0
   20.6081   72.6859    3.1732 H   0  0  0  0  0  0  0  0  0  0  0  0
   22.3248   72.9910    3.9103 H   0  0  0  0  0  0  0  0  0  0  0  0
   19.6525   71.7074    0.0850 H   0  0  0  0  0  0  0  0  0  0  0  0
   25.1021   69.8604    2.7679 O   0  0  0  0  0  0  0  0  0  0  0  0
   25.3597   71.1781    2.3188 C   0  0  0  0  0  0  0  0  0  0  0  0
   25.8652   69.5365    3.2724 H   0  0  0  0  0  0  0  0  0  0  0  0
 25 28  1  0
 25 24  1  0
 25 26  1  6
 25 27  2  0
  1  4  1  0
  1 24  1  0
  1  2  1  1
  1  3  2  0
  6 11  1  0
  6 12  1  0
 29 36  1  0
 29 37  1  0
  9  7  1  6
  7 13  1  0
 10  8  1  1
  8 14  1  0
 37 28  1  1
  4  5  1  0
 33 30  1  1
 30 38  1  0
 34 31  1  1
 31 39  1  0
 35 32  1  6
 32 40  1  0
 41 42  1  0
 41 43  1  0
 15 19  2  0
 16 22  2  0
 12 17  1  6
 17 19  1  0
 17 20  1  0
 18 19  1  0
 18 22  1  0
 18 23  1  0
  9 10  1  0
  9 11  1  0
 10 12  1  0
 11  5  1  6
 33 34  1  0
 33 35  1  0
 34 36  1  0
 35 37  1  0
 36 42  1  1
 20 21  2  0
 21 22  1  0
M  CHG  2   2  -1  26  -1
M  END
>  <COMPND>  (184) 
    8629 

>  <AUTHOR>  (184) 
    GENERATED BY OPEN BABEL 3.1.1

>  <MASTER>  (184) 
        0    0    0    0    0    0    0    0   58    0   58    0

>  <minimizedAffinity>  (184) 
-8.27111

>  <CNNscore>  (184) 
0.8725417256

>  <CNNaffinity>  (184) 
4.7528781891

>  <CNN_VS>  (184) 
4.1470847130

>  <CNNaffinity_variance>  (184) 
0.0522713438

$$$$
185
     RDKit          3D

 43 45  0  0  0  0  0  0  0  0999 V2000
   21.6691   71.4861   -2.4855 P   0  0  2  0  0  0  0  0  0  0  0  0
   21.2163   73.0364   -2.5796 O   0  0  0  0  0  0  0  0  0  0  0  0
   22.5737   71.0220   -3.5891 O   0  0  0  0  0  0  0  0  0  0  0  0
   20.2731   70.6820   -2.3363 O   0  0  0  0  0  0  0  0  0  0  0  0
   19.6413   70.2007   -3.5097 C   0  0  0  0  0  0  0  0  0  0  0  0
   17.9590   71.3971   -4.7394 O   0  0  0  0  0  0  0  0  0  0  0  0
   15.9580   69.9985   -2.9985 O   0  0  0  0  0  0  0  0  0  0  0  0
   15.8471   68.5550   -5.3094 O   0  0  0  0  0  0  0  0  0  0  0  0
   17.1919   69.5126   -3.5246 C   0  0  1  0  0  0  0  0  0  0  0  0
   17.0546   69.2226   -5.0047 C   0  0  2  0  0  0  0  0  0  0  0  0
   18.1907   70.6631   -3.5171 C   0  0  1  0  0  0  0  0  0  0  0  0
   17.1200   70.6162   -5.6061 C   0  0  2  0  0  0  0  0  0  0  0  0
   15.3043   69.2812   -2.9929 H   0  0  0  0  0  0  0  0  0  0  0  0
   15.8538   67.6735   -4.9048 H   0  0  0  0  0  0  0  0  0  0  0  0
   15.6239   70.3042   -7.9815 O   0  0  0  0  0  0  0  0  0  0  0  0
   19.3919   70.6341  -10.6149 O   0  0  0  0  0  0  0  0  0  0  0  0
   17.6845   70.6171   -6.9263 N   0  0  0  0  0  0  0  0  0  0  0  0
   17.5013   70.4689   -9.2908 N   0  0  0  0  0  0  0  0  0  0  0  0
   16.8457   70.4519   -8.0530 C   0  0  0  0  0  0  0  0  0  0  0  0
   19.0553   70.7807   -7.0937 C   0  0  0  0  0  0  0  0  0  0  0  0
   19.6651   70.7933   -8.2808 C   0  0  0  0  0  0  0  0  0  0  0  0
   18.8608   70.6271   -9.5086 C   0  0  0  0  0  0  0  0  0  0  0  0
   16.9372   70.3552  -10.0899 H   0  0  0  0  0  0  0  0  0  0  0  0
   22.3078   71.3832   -1.0041 O   0  0  0  0  0  0  0  0  0  0  0  0
   21.6474   71.6059    0.4544 P   0  0  2  0  0  0  0  0  0  0  0  0
   21.5685   70.1073    1.0588 O   0  0  0  0  0  0  0  0  0  0  0  0
   20.3346   72.3340    0.4308 O   0  0  0  0  0  0  0  0  0  0  0  0
   22.8004   72.3336    1.3181 O   0  0  0  0  0  0  0  0  0  0  0  0
   24.5866   71.9722    2.8332 O   0  0  0  0  0  0  0  0  0  0  0  0
   22.0782   74.1570    5.2797 O   0  0  0  0  0  0  0  0  0  0  0  0
   24.4723   75.3702    4.2578 O   0  0  0  0  0  0  0  0  0  0  0  0
   20.9705   72.2136    3.4423 O   0  0  0  0  0  0  0  0  0  0  0  0
   22.6936   73.7855    4.0433 C   0  0  1  0  0  0  0  0  0  0  0  0
   24.2055   73.9724    4.1851 C   0  0  1  0  0  0  0  0  0  0  0  0
   22.3585   72.3269    3.7373 C   0  0  2  0  0  0  0  0  0  0  0  0
   24.9545   73.3463    3.0009 C   0  0  1  0  0  0  0  0  0  0  0  0
   23.1935   71.7875    2.5745 C   0  0  1  0  0  0  0  0  0  0  0  0
   22.2867   75.0822    5.4796 H   0  0  0  0  0  0  0  0  0  0  0  0
   23.9931   75.7533    5.0093 H   0  0  0  0  0  0  0  0  0  0  0  0
   20.4528   72.5580    4.1861 H   0  0  0  0  0  0  0  0  0  0  0  0
   26.9892   72.0968    2.9127 O   0  0  0  0  0  0  0  0  0  0  0  0
   26.4684   73.3819    3.1985 C   0  0  0  0  0  0  0  0  0  0  0  0
   27.9520   72.1044    3.0340 H   0  0  0  0  0  0  0  0  0  0  0  0
 25 28  1  0
 25 24  1  0
 25 26  1  1
 25 27  2  0
  1  4  1  0
  1 24  1  0
  1  2  1  6
  1  3  2  0
  6 11  1  0
  6 12  1  0
 29 36  1  0
 29 37  1  0
  9  7  1  6
  7 13  1  0
 10  8  1  1
  8 14  1  0
 37 28  1  6
  4  5  1  0
 33 30  1  1
 30 38  1  0
 34 31  1  6
 31 39  1  0
 35 32  1  6
 32 40  1  0
 41 42  1  0
 41 43  1  0
 15 19  2  0
 16 22  2  0
 12 17  1  6
 17 19  1  0
 17 20  1  0
 18 19  1  0
 18 22  1  0
 18 23  1  0
  9 10  1  0
  9 11  1  0
 10 12  1  0
 11  5  1  6
 33 34  1  0
 33 35  1  0
 34 36  1  0
 35 37  1  0
 36 42  1  1
 20 21  2  0
 21 22  1  0
M  CHG  2   2  -1  26  -1
M  END
>  <COMPND>  (185) 
    8629 

>  <AUTHOR>  (185) 
    GENERATED BY OPEN BABEL 3.1.1

>  <MASTER>  (185) 
        0    0    0    0    0    0    0    0   58    0   58    0

>  <minimizedAffinity>  (185) 
-7.95030

>  <CNNscore>  (185) 
0.8719983101

>  <CNNaffinity>  (185) 
4.6315727234

>  <CNN_VS>  (185) 
4.0387234688

>  <CNNaffinity_variance>  (185) 
0.0692760125

$$$$
186
     RDKit          3D

 43 45  0  0  0  0  0  0  0  0999 V2000
   21.8023   72.4145   -5.5962 P   0  0  2  0  0  0  0  0  0  0  0  0
   21.0889   73.8389   -5.3142 O   0  0  0  0  0  0  0  0  0  0  0  0
   23.0897   72.4912   -6.3632 O   0  0  0  0  0  0  0  0  0  0  0  0
   20.6341   71.5219   -6.2718 O   0  0  0  0  0  0  0  0  0  0  0  0
   20.1530   71.8946   -7.5515 C   0  0  0  0  0  0  0  0  0  0  0  0
   18.8890   69.8927   -7.1416 O   0  0  0  0  0  0  0  0  0  0  0  0
   18.1174   70.0109  -10.0367 O   0  0  0  0  0  0  0  0  0  0  0  0
   15.9073   71.0114   -8.7912 O   0  0  0  0  0  0  0  0  0  0  0  0
   18.3165   71.0787   -9.1118 C   0  0  1  0  0  0  0  0  0  0  0  0
   17.1546   71.1593   -8.1437 C   0  0  2  0  0  0  0  0  0  0  0  0
   19.4698   70.6948   -8.1931 C   0  0  1  0  0  0  0  0  0  0  0  0
   17.4581   70.0154   -7.1912 C   0  0  2  0  0  0  0  0  0  0  0  0
   17.3857   70.2332  -10.6343 H   0  0  0  0  0  0  0  0  0  0  0  0
   15.7604   71.7634   -9.3859 H   0  0  0  0  0  0  0  0  0  0  0  0
   16.2927   68.0489   -5.5320 O   0  0  0  0  0  0  0  0  0  0  0  0
   15.6002   71.0731   -2.1238 O   0  0  0  0  0  0  0  0  0  0  0  0
   16.9650   70.2612   -5.8653 N   0  0  0  0  0  0  0  0  0  0  0  0
   15.9490   69.5563   -3.8362 N   0  0  0  0  0  0  0  0  0  0  0  0
   16.3969   69.2047   -5.1160 C   0  0  0  0  0  0  0  0  0  0  0  0
   17.0476   71.5382   -5.3210 C   0  0  0  0  0  0  0  0  0  0  0  0
   16.6146   71.8573   -4.0995 C   0  0  0  0  0  0  0  0  0  0  0  0
   16.0078   70.8113   -3.2512 C   0  0  0  0  0  0  0  0  0  0  0  0
   15.5492   68.8365   -3.2960 H   0  0  0  0  0  0  0  0  0  0  0  0
   21.9375   71.7765   -4.1171 O   0  0  0  0  0  0  0  0  0  0  0  0
   23.1049   71.9082   -3.0069 P   0  0  2  0  0  0  0  0  0  0  0  0
   23.6252   73.4287   -3.1940 O   0  0  0  0  0  0  0  0  0  0  0  0
   24.1810   70.8673   -3.1190 O   0  0  0  0  0  0  0  0  0  0  0  0
   22.3257   71.9151   -1.5935 O   0  0  0  0  0  0  0  0  0  0  0  0
   24.0203   72.3944   -0.0076 O   0  0  0  0  0  0  0  0  0  0  0  0
   20.7711   72.2104    2.5340 O   0  0  0  0  0  0  0  0  0  0  0  0
   21.9617   74.7547    1.9366 O   0  0  0  0  0  0  0  0  0  0  0  0
   20.9748   70.3630    0.3147 O   0  0  0  0  0  0  0  0  0  0  0  0
   21.4546   72.5022    1.3121 C   0  0  1  0  0  0  0  0  0  0  0  0
   22.5686   73.5066    1.6139 C   0  0  1  0  0  0  0  0  0  0  0  0
   22.0362   71.2088    0.7443 C   0  0  2  0  0  0  0  0  0  0  0  0
   23.5114   73.6654    0.4135 C   0  0  1  0  0  0  0  0  0  0  0  0
   22.9978   71.4825   -0.4135 C   0  0  1  0  0  0  0  0  0  0  0  0
   20.3991   73.0273    2.8995 H   0  0  0  0  0  0  0  0  0  0  0  0
   21.3686   74.6405    2.6958 H   0  0  0  0  0  0  0  0  0  0  0  0
   20.3733   70.1970    1.0567 H   0  0  0  0  0  0  0  0  0  0  0  0
   24.8271   74.6401    2.1536 O   0  0  0  0  0  0  0  0  0  0  0  0
   24.7177   74.5411    0.7456 C   0  0  0  0  0  0  0  0  0  0  0  0
   25.5908   75.1943    2.3798 H   0  0  0  0  0  0  0  0  0  0  0  0
 25 28  1  0
 25 24  1  0
 25 26  1  6
 25 27  2  0
  1  4  1  0
  1 24  1  0
  1  2  1  1
  1  3  2  0
  6 11  1  0
  6 12  1  0
 29 36  1  0
 29 37  1  0
  9  7  1  6
  7 13  1  0
 10  8  1  6
  8 14  1  0
 37 28  1  6
  4  5  1  0
 33 30  1  1
 30 38  1  0
 34 31  1  6
 31 39  1  0
 35 32  1  6
 32 40  1  0
 41 42  1  0
 41 43  1  0
 15 19  2  0
 16 22  2  0
 12 17  1  1
 17 19  1  0
 17 20  1  0
 18 19  1  0
 18 22  1  0
 18 23  1  0
  9 10  1  0
  9 11  1  0
 10 12  1  0
 11  5  1  1
 33 34  1  0
 33 35  1  0
 34 36  1  0
 35 37  1  0
 36 42  1  1
 20 21  2  0
 21 22  1  0
M  CHG  2   2  -1  26  -1
M  END
>  <COMPND>  (186) 
    8629 

>  <AUTHOR>  (186) 
    GENERATED BY OPEN BABEL 3.1.1

>  <MASTER>  (186) 
        0    0    0    0    0    0    0    0   58    0   58    0

>  <minimizedAffinity>  (186) 
-8.15526

>  <CNNscore>  (186) 
0.8054239750

>  <CNNaffinity>  (186) 
4.5796265602

>  <CNN_VS>  (186) 
3.6885409355

>  <CNNaffinity_variance>  (186) 
0.1857672483

$$$$
187
     RDKit          3D

 43 45  0  0  0  0  0  0  0  0999 V2000
   22.5069   72.2191   -1.9263 P   0  0  2  0  0  0  0  0  0  0  0  0
   20.9516   72.4473   -1.5438 O   0  0  0  0  0  0  0  0  0  0  0  0
   23.3373   73.4678   -1.9755 O   0  0  0  0  0  0  0  0  0  0  0  0
   22.4480   71.3601   -3.2962 O   0  0  0  0  0  0  0  0  0  0  0  0
   21.4395   71.6663   -4.2434 C   0  0  0  0  0  0  0  0  0  0  0  0
   21.4008   71.2320   -6.6064 O   0  0  0  0  0  0  0  0  0  0  0  0
   23.0321   73.7304   -6.9027 O   0  0  0  0  0  0  0  0  0  0  0  0
   20.5257   74.5747   -7.5675 O   0  0  0  0  0  0  0  0  0  0  0  0
   21.9808   73.4432   -5.9820 C   0  0  1  0  0  0  0  0  0  0  0  0
   20.6409   73.4754   -6.6871 C   0  0  2  0  0  0  0  0  0  0  0  0
   22.0947   71.9774   -5.5821 C   0  0  1  0  0  0  0  0  0  0  0  0
   20.6352   72.1412   -7.4138 C   0  0  2  0  0  0  0  0  0  0  0  0
   22.9802   74.6613   -7.1723 H   0  0  0  0  0  0  0  0  0  0  0  0
   20.5342   75.3997   -7.0576 H   0  0  0  0  0  0  0  0  0  0  0  0
   19.6765   70.9577   -9.7925 O   0  0  0  0  0  0  0  0  0  0  0  0
   15.5334   70.1551   -7.9400 O   0  0  0  0  0  0  0  0  0  0  0  0
   19.3101   71.6142   -7.5808 N   0  0  0  0  0  0  0  0  0  0  0  0
   17.6144   70.5589   -8.8681 N   0  0  0  0  0  0  0  0  0  0  0  0
   18.9283   71.0415   -8.8164 C   0  0  0  0  0  0  0  0  0  0  0  0
   18.4051   71.6679   -6.5263 C   0  0  0  0  0  0  0  0  0  0  0  0
   17.1553   71.2043   -6.5922 C   0  0  0  0  0  0  0  0  0  0  0  0
   16.6770   70.5905   -7.8478 C   0  0  0  0  0  0  0  0  0  0  0  0
   17.3261   70.1559   -9.7191 H   0  0  0  0  0  0  0  0  0  0  0  0
   22.9935   71.1301   -0.8353 O   0  0  0  0  0  0  0  0  0  0  0  0
   22.7068   71.0159    0.7514 P   0  0  2  0  0  0  0  0  0  0  0  0
   24.0504   70.3183    1.3220 O   0  0  0  0  0  0  0  0  0  0  0  0
   21.4381   70.2913    1.0969 O   0  0  0  0  0  0  0  0  0  0  0  0
   22.7766   72.5360    1.2895 O   0  0  0  0  0  0  0  0  0  0  0  0
   21.5905   72.9699    3.2949 O   0  0  0  0  0  0  0  0  0  0  0  0
   22.1743   76.8538    2.0201 O   0  0  0  0  0  0  0  0  0  0  0  0
   23.6684   75.8574    4.2612 O   0  0  0  0  0  0  0  0  0  0  0  0
   21.5808   74.7757    0.0942 O   0  0  0  0  0  0  0  0  0  0  0  0
   22.5151   75.4766    2.2007 C   0  0  1  0  0  0  0  0  0  0  0  0
   22.5448   75.1828    3.7019 C   0  0  1  0  0  0  0  0  0  0  0  0
   21.4696   74.6081    1.5035 C   0  0  2  0  0  0  0  0  0  0  0  0
   22.6393   73.6747    3.9695 C   0  0  1  0  0  0  0  0  0  0  0  0
   21.6223   73.1322    1.8756 C   0  0  1  0  0  0  0  0  0  0  0  0
   22.8344   77.4107    2.4600 H   0  0  0  0  0  0  0  0  0  0  0  0
   23.5967   76.8086    4.0849 H   0  0  0  0  0  0  0  0  0  0  0  0
   21.4821   75.7141   -0.1284 H   0  0  0  0  0  0  0  0  0  0  0  0
   22.5354   71.9414    5.6108 O   0  0  0  0  0  0  0  0  0  0  0  0
   22.5117   73.3484    5.4559 C   0  0  0  0  0  0  0  0  0  0  0  0
   22.4554   71.7190    6.5520 H   0  0  0  0  0  0  0  0  0  0  0  0
 25 28  1  0
 25 24  1  0
 25 26  1  1
 25 27  2  0
  1  4  1  0
  1 24  1  0
  1  2  1  1
  1  3  2  0
  6 11  1  0
  6 12  1  0
 29 36  1  0
 29 37  1  0
  9  7  1  6
  7 13  1  0
 10  8  1  6
  8 14  1  0
 37 28  1  1
  4  5  1  0
 33 30  1  1
 30 38  1  0
 34 31  1  6
 31 39  1  0
 35 32  1  6
 32 40  1  0
 41 42  1  0
 41 43  1  0
 15 19  2  0
 16 22  2  0
 12 17  1  1
 17 19  1  0
 17 20  1  0
 18 19  1  0
 18 22  1  0
 18 23  1  0
  9 10  1  0
  9 11  1  0
 10 12  1  0
 11  5  1  1
 33 34  1  0
 33 35  1  0
 34 36  1  0
 35 37  1  0
 36 42  1  1
 20 21  2  0
 21 22  1  0
M  CHG  2   2  -1  26  -1
M  END
>  <COMPND>  (187) 
    8629 

>  <AUTHOR>  (187) 
    GENERATED BY OPEN BABEL 3.1.1

>  <MASTER>  (187) 
        0    0    0    0    0    0    0    0   58    0   58    0

>  <minimizedAffinity>  (187) 
-6.76876

>  <CNNscore>  (187) 
0.7845746279

>  <CNNaffinity>  (187) 
4.4067273140

>  <CNN_VS>  (187) 
3.4574065208

>  <CNNaffinity_variance>  (187) 
0.1118120924

$$$$
188
     RDKit          3D

 43 45  0  0  0  0  0  0  0  0999 V2000
   21.7383   72.1632   -5.6922 P   0  0  2  0  0  0  0  0  0  0  0  0
   23.0170   72.6405   -6.5609 O   0  0  0  0  0  0  0  0  0  0  0  0
   22.0593   71.6621   -4.3148 O   0  0  0  0  0  0  0  0  0  0  0  0
   20.9794   71.1141   -6.6624 O   0  0  0  0  0  0  0  0  0  0  0  0
   20.2725   71.6183   -7.7822 C   0  0  0  0  0  0  0  0  0  0  0  0
   18.8739   69.7160   -7.3364 O   0  0  0  0  0  0  0  0  0  0  0  0
   17.9607   69.9560  -10.1823 O   0  0  0  0  0  0  0  0  0  0  0  0
   15.9089   71.1042   -8.8008 O   0  0  0  0  0  0  0  0  0  0  0  0
   18.2949   70.9849   -9.2522 C   0  0  1  0  0  0  0  0  0  0  0  0
   17.1969   71.1382   -8.2206 C   0  0  2  0  0  0  0  0  0  0  0  0
   19.4608   70.4907   -8.4049 C   0  0  1  0  0  0  0  0  0  0  0  0
   17.4571   69.9539   -7.3051 C   0  0  2  0  0  0  0  0  0  0  0  0
   17.2185   70.2487  -10.7351 H   0  0  0  0  0  0  0  0  0  0  0  0
   15.7918   71.8778   -9.3741 H   0  0  0  0  0  0  0  0  0  0  0  0
   16.1011   68.0988   -5.6626 O   0  0  0  0  0  0  0  0  0  0  0  0
   15.9714   71.0490   -2.1241 O   0  0  0  0  0  0  0  0  0  0  0  0
   17.0572   70.2108   -5.9503 N   0  0  0  0  0  0  0  0  0  0  0  0
   16.0378   69.5692   -3.9020 N   0  0  0  0  0  0  0  0  0  0  0  0
   16.3803   69.2119   -5.2123 C   0  0  0  0  0  0  0  0  0  0  0  0
   17.3369   71.4417   -5.3667 C   0  0  0  0  0  0  0  0  0  0  0  0
   17.0023   71.7671   -4.1163 C   0  0  0  0  0  0  0  0  0  0  0  0
   16.2927   70.7799   -3.2775 C   0  0  0  0  0  0  0  0  0  0  0  0
   15.5652   68.8893   -3.3690 H   0  0  0  0  0  0  0  0  0  0  0  0
   20.7706   73.4574   -5.7286 O   0  0  0  0  0  0  0  0  0  0  0  0
   20.9341   74.9241   -5.0691 P   0  0  2  0  0  0  0  0  0  0  0  0
   19.5356   75.6522   -5.4320 O   0  0  0  0  0  0  0  0  0  0  0  0
   22.1560   75.6697   -5.5218 O   0  0  0  0  0  0  0  0  0  0  0  0
   20.8589   74.6670   -3.4775 O   0  0  0  0  0  0  0  0  0  0  0  0
   19.7954   72.8812   -2.3388 O   0  0  0  0  0  0  0  0  0  0  0  0
   19.2117   75.8775    0.4419 O   0  0  0  0  0  0  0  0  0  0  0  0
   21.1205   73.7993    0.9763 O   0  0  0  0  0  0  0  0  0  0  0  0
   19.0076   76.4705   -2.3841 O   0  0  0  0  0  0  0  0  0  0  0  0
   19.9189   75.1650   -0.5767 C   0  0  1  0  0  0  0  0  0  0  0  0
   20.1667   73.7391   -0.0806 C   0  0  1  0  0  0  0  0  0  0  0  0
   19.0783   75.1520   -1.8521 C   0  0  2  0  0  0  0  0  0  0  0  0
   20.6802   72.8399   -1.2132 C   0  0  1  0  0  0  0  0  0  0  0  0
   19.6490   74.1893   -2.8950 C   0  0  1  0  0  0  0  0  0  0  0  0
   19.7403   75.8899    1.2543 H   0  0  0  0  0  0  0  0  0  0  0  0
   20.7843   74.3706    1.6847 H   0  0  0  0  0  0  0  0  0  0  0  0
   18.6445   77.0702   -1.7145 H   0  0  0  0  0  0  0  0  0  0  0  0
   21.9266   70.8094   -1.3932 O   0  0  0  0  0  0  0  0  0  0  0  0
   20.7842   71.3789   -0.7810 C   0  0  0  0  0  0  0  0  0  0  0  0
   22.0057   69.8795   -1.1269 H   0  0  0  0  0  0  0  0  0  0  0  0
 25 28  1  0
 25 24  1  0
 25 26  1  6
 25 27  2  0
  1  4  1  0
  1 24  1  0
  1  2  1  6
  1  3  2  0
  6 11  1  0
  6 12  1  0
 29 36  1  0
 29 37  1  0
  9  7  1  6
  7 13  1  0
 10  8  1  6
  8 14  1  0
 37 28  1  1
  4  5  1  0
 33 30  1  1
 30 38  1  0
 34 31  1  1
 31 39  1  0
 35 32  1  6
 32 40  1  0
 41 42  1  0
 41 43  1  0
 15 19  2  0
 16 22  2  0
 12 17  1  1
 17 19  1  0
 17 20  1  0
 18 19  1  0
 18 22  1  0
 18 23  1  0
  9 10  1  0
  9 11  1  0
 10 12  1  0
 11  5  1  1
 33 34  1  0
 33 35  1  0
 34 36  1  0
 35 37  1  0
 36 42  1  1
 20 21  2  0
 21 22  1  0
M  CHG  2   2  -1  26  -1
M  END
>  <COMPND>  (188) 
    8629 

>  <AUTHOR>  (188) 
    GENERATED BY OPEN BABEL 3.1.1

>  <MASTER>  (188) 
        0    0    0    0    0    0    0    0   58    0   58    0

>  <minimizedAffinity>  (188) 
-6.07972

>  <CNNscore>  (188) 
0.7553988695

>  <CNNaffinity>  (188) 
4.4056730270

>  <CNN_VS>  (188) 
3.3280403614

>  <CNNaffinity_variance>  (188) 
0.2160727680

$$$$
189
     RDKit          3D

 43 45  0  0  0  0  0  0  0  0999 V2000
   22.9318   73.3321   -4.4457 P   0  0  2  0  0  0  0  0  0  0  0  0
   23.2830   74.2876   -5.7031 O   0  0  0  0  0  0  0  0  0  0  0  0
   24.0215   72.3799   -4.0494 O   0  0  0  0  0  0  0  0  0  0  0  0
   21.5209   72.6542   -4.8552 O   0  0  0  0  0  0  0  0  0  0  0  0
   20.9964   71.6314   -4.0265 C   0  0  0  0  0  0  0  0  0  0  0  0
   18.9159   72.2920   -5.0310 O   0  0  0  0  0  0  0  0  0  0  0  0
   17.5906   71.1232   -2.6086 O   0  0  0  0  0  0  0  0  0  0  0  0
   17.2460   69.1667   -4.4768 O   0  0  0  0  0  0  0  0  0  0  0  0
   18.7514   70.6751   -3.3064 C   0  0  1  0  0  0  0  0  0  0  0  0
   18.3591   70.0258   -4.6172 C   0  0  2  0  0  0  0  0  0  0  0  0
   19.5193   71.9039   -3.7773 C   0  0  1  0  0  0  0  0  0  0  0  0
   18.0596   71.2331   -5.4895 C   0  0  2  0  0  0  0  0  0  0  0  0
   17.0840   70.3559   -2.2978 H   0  0  0  0  0  0  0  0  0  0  0  0
   17.4868   68.4146   -3.9137 H   0  0  0  0  0  0  0  0  0  0  0  0
   16.1645   70.2226   -7.3241 O   0  0  0  0  0  0  0  0  0  0  0  0
   19.1980   70.3206  -10.7924 O   0  0  0  0  0  0  0  0  0  0  0  0
   18.3271   70.9853   -6.8782 N   0  0  0  0  0  0  0  0  0  0  0  0
   17.6765   70.2724   -9.0496 N   0  0  0  0  0  0  0  0  0  0  0  0
   17.3061   70.4759   -7.7141 C   0  0  0  0  0  0  0  0  0  0  0  0
   19.5900   71.2471   -7.3981 C   0  0  0  0  0  0  0  0  0  0  0  0
   19.9274   71.0464   -8.6737 C   0  0  0  0  0  0  0  0  0  0  0  0
   18.9187   70.5161   -9.6136 C   0  0  0  0  0  0  0  0  0  0  0  0
   16.9816   69.9178   -9.6505 H   0  0  0  0  0  0  0  0  0  0  0  0
   22.5082   74.3860   -3.2956 O   0  0  0  0  0  0  0  0  0  0  0  0
   23.2722   74.8523   -1.9495 P   0  0  2  0  0  0  0  0  0  0  0  0
   22.6522   76.3183   -1.6599 O   0  0  0  0  0  0  0  0  0  0  0  0
   24.7698   74.8221   -2.0501 O   0  0  0  0  0  0  0  0  0  0  0  0
   22.6609   73.9143   -0.7870 O   0  0  0  0  0  0  0  0  0  0  0  0
   23.6250   73.6556    1.3624 O   0  0  0  0  0  0  0  0  0  0  0  0
   21.7198   70.0054    1.0502 O   0  0  0  0  0  0  0  0  0  0  0  0
   20.6720   72.0045    2.8261 O   0  0  0  0  0  0  0  0  0  0  0  0
   22.9973   71.1707   -1.2713 O   0  0  0  0  0  0  0  0  0  0  0  0
   21.8815   71.4122    0.8495 C   0  0  1  0  0  0  0  0  0  0  0  0
   21.9592   72.0865    2.2206 C   0  0  1  0  0  0  0  0  0  0  0  0
   23.1629   71.6591    0.0555 C   0  0  2  0  0  0  0  0  0  0  0  0
   22.3975   73.5517    2.0934 C   0  0  1  0  0  0  0  0  0  0  0  0
   23.5357   73.1425    0.0318 C   0  0  1  0  0  0  0  0  0  0  0  0
   20.9077   69.8418    1.5534 H   0  0  0  0  0  0  0  0  0  0  0  0
   20.4068   71.0743    2.9002 H   0  0  0  0  0  0  0  0  0  0  0  0
   22.7619   70.2307   -1.2427 H   0  0  0  0  0  0  0  0  0  0  0  0
   22.9853   73.1845    4.3800 O   0  0  0  0  0  0  0  0  0  0  0  0
   22.6340   74.1984    3.4565 C   0  0  0  0  0  0  0  0  0  0  0  0
   23.1391   73.5815    5.2521 H   0  0  0  0  0  0  0  0  0  0  0  0
 25 28  1  0
 25 24  1  0
 25 26  1  1
 25 27  2  0
  1  4  1  0
  1 24  1  0
  1  2  1  6
  1  3  2  0
  6 11  1  0
  6 12  1  0
 29 36  1  0
 29 37  1  0
  9  7  1  6
  7 13  1  0
 10  8  1  1
  8 14  1  0
 37 28  1  6
  4  5  1  0
 33 30  1  1
 30 38  1  0
 34 31  1  6
 31 39  1  0
 35 32  1  6
 32 40  1  0
 41 42  1  0
 41 43  1  0
 15 19  2  0
 16 22  2  0
 12 17  1  6
 17 19  1  0
 17 20  1  0
 18 19  1  0
 18 22  1  0
 18 23  1  0
  9 10  1  0
  9 11  1  0
 10 12  1  0
 11  5  1  6
 33 34  1  0
 33 35  1  0
 34 36  1  0
 35 37  1  0
 36 42  1  1
 20 21  2  0
 21 22  1  0
M  CHG  2   2  -1  26  -1
M  END
>  <COMPND>  (189) 
    8629 

>  <AUTHOR>  (189) 
    GENERATED BY OPEN BABEL 3.1.1

>  <MASTER>  (189) 
        0    0    0    0    0    0    0    0   58    0   58    0

>  <minimizedAffinity>  (189) 
-7.49194

>  <CNNscore>  (189) 
0.7465761900

>  <CNNaffinity>  (189) 
4.4833211899

>  <CNN_VS>  (189) 
3.3471407890

>  <CNNaffinity_variance>  (189) 
0.0417022593

$$$$
190
     RDKit          3D

 43 45  0  0  0  0  0  0  0  0999 V2000
   23.2521   74.4697   -3.8706 P   0  0  2  0  0  0  0  0  0  0  0  0
   23.5929   75.3120   -2.5320 O   0  0  0  0  0  0  0  0  0  0  0  0
   23.7089   75.1035   -5.1516 O   0  0  0  0  0  0  0  0  0  0  0  0
   21.6637   74.1837   -3.7556 O   0  0  0  0  0  0  0  0  0  0  0  0
   20.8925   74.1641   -4.9441 C   0  0  0  0  0  0  0  0  0  0  0  0
   18.6522   73.9623   -5.7892 O   0  0  0  0  0  0  0  0  0  0  0  0
   17.8447   73.3385   -2.9696 O   0  0  0  0  0  0  0  0  0  0  0  0
   17.9223   70.8699   -4.1257 O   0  0  0  0  0  0  0  0  0  0  0  0
   19.0371   72.9813   -3.6666 C   0  0  1  0  0  0  0  0  0  0  0  0
   18.7523   71.8785   -4.6648 C   0  0  2  0  0  0  0  0  0  0  0  0
   19.4152   74.1437   -4.5762 C   0  0  1  0  0  0  0  0  0  0  0  0
   18.0850   72.6420   -5.7961 C   0  0  2  0  0  0  0  0  0  0  0  0
   17.5838   72.6115   -2.3820 H   0  0  0  0  0  0  0  0  0  0  0  0
   18.3914   70.4132   -3.4100 H   0  0  0  0  0  0  0  0  0  0  0  0
   16.1079   72.2869   -7.7817 O   0  0  0  0  0  0  0  0  0  0  0  0
   19.1066   70.3174  -10.6748 O   0  0  0  0  0  0  0  0  0  0  0  0
   18.3216   72.0396   -7.0777 N   0  0  0  0  0  0  0  0  0  0  0  0
   17.6027   71.3067   -9.2207 N   0  0  0  0  0  0  0  0  0  0  0  0
   17.2599   71.9077   -8.0028 C   0  0  0  0  0  0  0  0  0  0  0  0
   19.5949   71.5874   -7.4065 C   0  0  0  0  0  0  0  0  0  0  0  0
   19.9051   71.0153   -8.5717 C   0  0  0  0  0  0  0  0  0  0  0  0
   18.8531   70.8398   -9.5937 C   0  0  0  0  0  0  0  0  0  0  0  0
   16.8790   71.2039   -9.8806 H   0  0  0  0  0  0  0  0  0  0  0  0
   23.9049   73.0227   -3.5656 O   0  0  0  0  0  0  0  0  0  0  0  0
   23.2707   71.6895   -2.9073 P   0  0  2  0  0  0  0  0  0  0  0  0
   24.4767   70.6158   -3.0090 O   0  0  0  0  0  0  0  0  0  0  0  0
   21.9866   71.2405   -3.5426 O   0  0  0  0  0  0  0  0  0  0  0  0
   23.1562   72.0261   -1.3330 O   0  0  0  0  0  0  0  0  0  0  0  0
   24.0647   70.8760    0.5294 O   0  0  0  0  0  0  0  0  0  0  0  0
   20.4896   72.1031    2.1917 O   0  0  0  0  0  0  0  0  0  0  0  0
   22.9383   73.3639    3.0053 O   0  0  0  0  0  0  0  0  0  0  0  0
   20.5755   71.2326   -0.5677 O   0  0  0  0  0  0  0  0  0  0  0  0
   21.6437   72.2152    1.3545 C   0  0  1  0  0  0  0  0  0  0  0  0
   22.8879   72.1610    2.2432 C   0  0  1  0  0  0  0  0  0  0  0  0
   21.6477   71.0618    0.3529 C   0  0  2  0  0  0  0  0  0  0  0  0
   24.1627   72.0071    1.4028 C   0  0  1  0  0  0  0  0  0  0  0  0
   22.9789   70.9678   -0.3949 C   0  0  1  0  0  0  0  0  0  0  0  0
   20.4807   72.8328    2.8296 H   0  0  0  0  0  0  0  0  0  0  0  0
   22.1274   73.4493    3.5310 H   0  0  0  0  0  0  0  0  0  0  0  0
   19.7385   71.2904   -0.0820 H   0  0  0  0  0  0  0  0  0  0  0  0
   26.1197   70.6851    1.7653 O   0  0  0  0  0  0  0  0  0  0  0  0
   25.3991   71.7929    2.2731 C   0  0  0  0  0  0  0  0  0  0  0  0
   26.9095   70.5371    2.3093 H   0  0  0  0  0  0  0  0  0  0  0  0
 25 28  1  0
 25 24  1  0
 25 26  1  1
 25 27  2  0
  1  4  1  0
  1 24  1  0
  1  2  1  1
  1  3  2  0
  6 11  1  0
  6 12  1  0
 29 36  1  0
 29 37  1  0
  9  7  1  6
  7 13  1  0
 10  8  1  1
  8 14  1  0
 37 28  1  1
  4  5  1  0
 33 30  1  1
 30 38  1  0
 34 31  1  6
 31 39  1  0
 35 32  1  6
 32 40  1  0
 41 42  1  0
 41 43  1  0
 15 19  2  0
 16 22  2  0
 12 17  1  6
 17 19  1  0
 17 20  1  0
 18 19  1  0
 18 22  1  0
 18 23  1  0
  9 10  1  0
  9 11  1  0
 10 12  1  0
 11  5  1  6
 33 34  1  0
 33 35  1  0
 34 36  1  0
 35 37  1  0
 36 42  1  1
 20 21  2  0
 21 22  1  0
M  CHG  2   2  -1  26  -1
M  END
>  <COMPND>  (190) 
    8629 

>  <AUTHOR>  (190) 
    GENERATED BY OPEN BABEL 3.1.1

>  <MASTER>  (190) 
        0    0    0    0    0    0    0    0   58    0   58    0

>  <minimizedAffinity>  (190) 
-6.88841

>  <CNNscore>  (190) 
0.7216338515

>  <CNNaffinity>  (190) 
4.4369554520

>  <CNN_VS>  (190) 
3.2018573284

>  <CNNaffinity_variance>  (190) 
0.0217884611

$$$$
191
     RDKit          3D

 43 45  0  0  0  0  0  0  0  0999 V2000
   23.1281   72.8898   -3.7456 P   0  0  2  0  0  0  0  0  0  0  0  0
   22.5983   74.3940   -4.0177 O   0  0  0  0  0  0  0  0  0  0  0  0
   24.5820   72.6666   -4.0417 O   0  0  0  0  0  0  0  0  0  0  0  0
   22.0923   71.9583   -4.5687 O   0  0  0  0  0  0  0  0  0  0  0  0
   21.2040   72.5786   -5.4819 C   0  0  0  0  0  0  0  0  0  0  0  0
   20.3237   70.4630   -6.2051 O   0  0  0  0  0  0  0  0  0  0  0  0
   20.3799   71.5997   -8.9792 O   0  0  0  0  0  0  0  0  0  0  0  0
   17.7525   71.8424   -8.2904 O   0  0  0  0  0  0  0  0  0  0  0  0
   20.0862   72.2497   -7.7436 C   0  0  1  0  0  0  0  0  0  0  0  0
   18.7110   71.8484   -7.2522 C   0  0  2  0  0  0  0  0  0  0  0  0
   20.9926   71.6545   -6.6733 C   0  0  1  0  0  0  0  0  0  0  0  0
   18.9703   70.4619   -6.6878 C   0  0  2  0  0  0  0  0  0  0  0  0
   19.8134   71.9634   -9.6783 H   0  0  0  0  0  0  0  0  0  0  0  0
   17.6226   72.7468   -8.6160 H   0  0  0  0  0  0  0  0  0  0  0  0
   16.3040   69.5852   -7.0046 O   0  0  0  0  0  0  0  0  0  0  0  0
   15.6790   69.2530   -2.4505 O   0  0  0  0  0  0  0  0  0  0  0  0
   18.0882   70.1389   -5.6020 N   0  0  0  0  0  0  0  0  0  0  0  0
   15.9950   69.4203   -4.7368 N   0  0  0  0  0  0  0  0  0  0  0  0
   16.7676   69.7087   -5.8690 C   0  0  0  0  0  0  0  0  0  0  0  0
   18.5351   70.2495   -4.2898 C   0  0  0  0  0  0  0  0  0  0  0  0
   17.7854   69.9719   -3.2211 C   0  0  0  0  0  0  0  0  0  0  0  0
   16.3935   69.5160   -3.4129 C   0  0  0  0  0  0  0  0  0  0  0  0
   15.0715   69.1192   -4.8984 H   0  0  0  0  0  0  0  0  0  0  0  0
   22.7072   72.6290   -2.2068 O   0  0  0  0  0  0  0  0  0  0  0  0
   21.2543   72.4795   -1.5144 P   0  0  2  0  0  0  0  0  0  0  0  0
   21.0571   70.8772   -1.4080 O   0  0  0  0  0  0  0  0  0  0  0  0
   20.1503   73.1924   -2.2403 O   0  0  0  0  0  0  0  0  0  0  0  0
   21.4757   72.9649    0.0089 O   0  0  0  0  0  0  0  0  0  0  0  0
   23.4108   74.0441    0.8501 O   0  0  0  0  0  0  0  0  0  0  0  0
   22.1932   72.1010    4.2842 O   0  0  0  0  0  0  0  0  0  0  0  0
   21.8782   74.9482    4.0786 O   0  0  0  0  0  0  0  0  0  0  0  0
   21.9438   70.7879    1.7166 O   0  0  0  0  0  0  0  0  0  0  0  0
   22.0140   72.7948    3.0465 C   0  0  1  0  0  0  0  0  0  0  0  0
   22.6608   74.1755    3.1726 C   0  0  1  0  0  0  0  0  0  0  0  0
   22.6721   71.9931    1.9251 C   0  0  2  0  0  0  0  0  0  0  0  0
   22.7452   74.8744    1.8089 C   0  0  1  0  0  0  0  0  0  0  0  0
   22.7494   72.7974    0.6261 C   0  0  1  0  0  0  0  0  0  0  0  0
   21.7772   72.6046    5.0004 H   0  0  0  0  0  0  0  0  0  0  0  0
   21.8325   74.4957    4.9355 H   0  0  0  0  0  0  0  0  0  0  0  0
   21.9023   70.2877    2.5460 H   0  0  0  0  0  0  0  0  0  0  0  0
   22.8717   77.1463    1.0801 O   0  0  0  0  0  0  0  0  0  0  0  0
   23.5276   76.1836    1.8847 C   0  0  0  0  0  0  0  0  0  0  0  0
   23.3584   77.9849    1.1189 H   0  0  0  0  0  0  0  0  0  0  0  0
 25 28  1  0
 25 24  1  0
 25 26  1  1
 25 27  2  0
  1  4  1  0
  1 24  1  0
  1  2  1  6
  1  3  2  0
  6 11  1  0
  6 12  1  0
 29 36  1  0
 29 37  1  0
  9  7  1  6
  7 13  1  0
 10  8  1  6
  8 14  1  0
 37 28  1  1
  4  5  1  0
 33 30  1  1
 30 38  1  0
 34 31  1  1
 31 39  1  0
 35 32  1  6
 32 40  1  0
 41 42  1  0
 41 43  1  0
 15 19  2  0
 16 22  2  0
 12 17  1  1
 17 19  1  0
 17 20  1  0
 18 19  1  0
 18 22  1  0
 18 23  1  0
  9 10  1  0
  9 11  1  0
 10 12  1  0
 11  5  1  1
 33 34  1  0
 33 35  1  0
 34 36  1  0
 35 37  1  0
 36 42  1  1
 20 21  2  0
 21 22  1  0
M  CHG  2   2  -1  26  -1
M  END
>  <COMPND>  (191) 
    8629 

>  <AUTHOR>  (191) 
    GENERATED BY OPEN BABEL 3.1.1

>  <MASTER>  (191) 
        0    0    0    0    0    0    0    0   58    0   58    0

>  <minimizedAffinity>  (191) 
-6.65718

>  <CNNscore>  (191) 
0.5821121335

>  <CNNaffinity>  (191) 
4.2310695648

>  <CNN_VS>  (191) 
2.4629569054

>  <CNNaffinity_variance>  (191) 
0.1492690891

$$$$
192
     RDKit          3D

 43 45  0  0  0  0  0  0  0  0999 V2000
   23.0037   71.8889   -2.5412 P   0  0  2  0  0  0  0  0  0  0  0  0
   23.2781   73.3717   -1.9553 O   0  0  0  0  0  0  0  0  0  0  0  0
   24.1050   71.3303   -3.3935 O   0  0  0  0  0  0  0  0  0  0  0  0
   21.5575   72.0151   -3.2557 O   0  0  0  0  0  0  0  0  0  0  0  0
   21.4326   72.8629   -4.3842 C   0  0  0  0  0  0  0  0  0  0  0  0
   20.7998   70.7937   -5.4290 O   0  0  0  0  0  0  0  0  0  0  0  0
   21.4695   72.1203   -8.0333 O   0  0  0  0  0  0  0  0  0  0  0  0
   18.7486   72.2882   -7.9631 O   0  0  0  0  0  0  0  0  0  0  0  0
   20.8800   72.6802   -6.8609 C   0  0  1  0  0  0  0  0  0  0  0  0
   19.4392   72.2320   -6.7316 C   0  0  2  0  0  0  0  0  0  0  0  0
   21.5280   72.0215   -5.6495 C   0  0  1  0  0  0  0  0  0  0  0  0
   19.5961   70.8124   -6.2136 C   0  0  2  0  0  0  0  0  0  0  0  0
   21.0718   72.5259   -8.8202 H   0  0  0  0  0  0  0  0  0  0  0  0
   18.6745   73.2116   -8.2506 H   0  0  0  0  0  0  0  0  0  0  0  0
   17.1546   69.7895   -7.1988 O   0  0  0  0  0  0  0  0  0  0  0  0
   15.4398   69.2872   -2.9504 O   0  0  0  0  0  0  0  0  0  0  0  0
   18.4945   70.4061   -5.3872 N   0  0  0  0  0  0  0  0  0  0  0  0
   16.3028   69.5400   -5.0826 N   0  0  0  0  0  0  0  0  0  0  0  0
   17.3123   69.9067   -5.9818 C   0  0  0  0  0  0  0  0  0  0  0  0
   18.5930   70.5042   -4.0036 C   0  0  0  0  0  0  0  0  0  0  0  0
   17.6207   70.1515   -3.1600 C   0  0  0  0  0  0  0  0  0  0  0  0
   16.3526   69.6201   -3.6999 C   0  0  0  0  0  0  0  0  0  0  0  0
   15.4698   69.1898   -5.4740 H   0  0  0  0  0  0  0  0  0  0  0  0
   22.6785   71.0275   -1.2125 O   0  0  0  0  0  0  0  0  0  0  0  0
   21.4168   71.0690   -0.2029 P   0  0  2  0  0  0  0  0  0  0  0  0
   21.8850   70.1132    1.0156 O   0  0  0  0  0  0  0  0  0  0  0  0
   20.1118   70.6755   -0.8323 O   0  0  0  0  0  0  0  0  0  0  0  0
   21.4382   72.5592    0.4166 O   0  0  0  0  0  0  0  0  0  0  0  0
   19.9206   73.3819    2.0404 O   0  0  0  0  0  0  0  0  0  0  0  0
   20.8126   76.9249    0.1162 O   0  0  0  0  0  0  0  0  0  0  0  0
   21.8557   76.4387    2.7475 O   0  0  0  0  0  0  0  0  0  0  0  0
   20.5284   74.4832   -1.4126 O   0  0  0  0  0  0  0  0  0  0  0  0
   21.0838   75.6206    0.6366 C   0  0  1  0  0  0  0  0  0  0  0  0
   20.8361   75.6455    2.1462 C   0  0  1  0  0  0  0  0  0  0  0  0
   20.1615   74.6103   -0.0430 C   0  0  2  0  0  0  0  0  0  0  0  0
   20.8465   74.2275    2.7327 C   0  0  1  0  0  0  0  0  0  0  0  0
   20.2111   73.2463    0.6479 C   0  0  1  0  0  0  0  0  0  0  0  0
   21.3952   77.5711    0.5433 H   0  0  0  0  0  0  0  0  0  0  0  0
   21.8386   77.3314    2.3680 H   0  0  0  0  0  0  0  0  0  0  0  0
   20.4928   75.3533   -1.8388 H   0  0  0  0  0  0  0  0  0  0  0  0
   19.1411   73.6765    4.3129 O   0  0  0  0  0  0  0  0  0  0  0  0
   20.4460   74.2151    4.2064 C   0  0  0  0  0  0  0  0  0  0  0  0
   18.8730   73.6622    5.2454 H   0  0  0  0  0  0  0  0  0  0  0  0
 25 28  1  0
 25 24  1  0
 25 26  1  1
 25 27  2  0
  1  4  1  0
  1 24  1  0
  1  2  1  1
  1  3  2  0
  6 11  1  0
  6 12  1  0
 29 36  1  0
 29 37  1  0
  9  7  1  6
  7 13  1  0
 10  8  1  6
  8 14  1  0
 37 28  1  1
  4  5  1  0
 33 30  1  6
 30 38  1  0
 34 31  1  1
 31 39  1  0
 35 32  1  6
 32 40  1  0
 41 42  1  0
 41 43  1  0
 15 19  2  0
 16 22  2  0
 12 17  1  1
 17 19  1  0
 17 20  1  0
 18 19  1  0
 18 22  1  0
 18 23  1  0
  9 10  1  0
  9 11  1  0
 10 12  1  0
 11  5  1  1
 33 34  1  0
 33 35  1  0
 34 36  1  0
 35 37  1  0
 36 42  1  1
 20 21  2  0
 21 22  1  0
M  CHG  2   2  -1  26  -1
M  END
>  <COMPND>  (192) 
    8629 

>  <AUTHOR>  (192) 
    GENERATED BY OPEN BABEL 3.1.1

>  <MASTER>  (192) 
        0    0    0    0    0    0    0    0   58    0   58    0

>  <minimizedAffinity>  (192) 
-6.79373

>  <CNNscore>  (192) 
0.5744873285

>  <CNNaffinity>  (192) 
4.0408110619

>  <CNN_VS>  (192) 
2.3213946819

>  <CNNaffinity_variance>  (192) 
0.2351231128

$$$$
193
     RDKit          3D

 43 45  0  0  0  0  0  0  0  0999 V2000
   23.0659   73.5453   -4.2788 P   0  0  2  0  0  0  0  0  0  0  0  0
   23.9631   72.1991   -4.2850 O   0  0  0  0  0  0  0  0  0  0  0  0
   23.7012   74.7334   -4.9393 O   0  0  0  0  0  0  0  0  0  0  0  0
   22.6645   73.7374   -2.7232 O   0  0  0  0  0  0  0  0  0  0  0  0
   21.7054   74.7256   -2.3894 C   0  0  0  0  0  0  0  0  0  0  0  0
   20.9535   72.7794   -1.1975 O   0  0  0  0  0  0  0  0  0  0  0  0
   18.6260   74.4503   -0.3135 O   0  0  0  0  0  0  0  0  0  0  0  0
   20.2533   74.4929    1.8744 O   0  0  0  0  0  0  0  0  0  0  0  0
   19.9851   74.8327   -0.5181 C   0  0  1  0  0  0  0  0  0  0  0  0
   20.8533   74.3114    0.6080 C   0  0  2  0  0  0  0  0  0  0  0  0
   20.5162   74.0548   -1.7156 C   0  0  1  0  0  0  0  0  0  0  0  0
   21.0039   72.8458    0.2370 C   0  0  2  0  0  0  0  0  0  0  0  0
   18.2649   74.9344    0.4462 H   0  0  0  0  0  0  0  0  0  0  0  0
   20.1796   75.4411    2.0645 H   0  0  0  0  0  0  0  0  0  0  0  0
   21.4047   70.1228    0.8715 O   0  0  0  0  0  0  0  0  0  0  0  0
   25.8282   70.8363    1.9508 O   0  0  0  0  0  0  0  0  0  0  0  0
   22.2503   72.2925    0.6860 N   0  0  0  0  0  0  0  0  0  0  0  0
   23.6070   70.4803    1.4082 N   0  0  0  0  0  0  0  0  0  0  0  0
   22.3455   70.9121    0.9790 C   0  0  0  0  0  0  0  0  0  0  0  0
   23.3616   73.1158    0.8313 C   0  0  0  0  0  0  0  0  0  0  0  0
   24.5572   72.6886    1.2429 C   0  0  0  0  0  0  0  0  0  0  0  0
   24.7414   71.2599    1.5697 C   0  0  0  0  0  0  0  0  0  0  0  0
   23.6969   69.5224    1.6185 H   0  0  0  0  0  0  0  0  0  0  0  0
   21.6796   73.0613   -4.9547 O   0  0  0  0  0  0  0  0  0  0  0  0
   21.0632   73.3333   -6.4240 P   0  0  2  0  0  0  0  0  0  0  0  0
   22.0836   72.5501   -7.4053 O   0  0  0  0  0  0  0  0  0  0  0  0
   20.8786   74.7861   -6.7546 O   0  0  0  0  0  0  0  0  0  0  0  0
   19.7064   72.4602   -6.4659 O   0  0  0  0  0  0  0  0  0  0  0  0
   19.0269   70.3082   -5.7422 O   0  0  0  0  0  0  0  0  0  0  0  0
   17.4779   70.2369   -9.5692 O   0  0  0  0  0  0  0  0  0  0  0  0
   15.7028   70.4878   -7.3255 O   0  0  0  0  0  0  0  0  0  0  0  0
   20.0448   71.4797   -9.0734 O   0  0  0  0  0  0  0  0  0  0  0  0
   17.8481   70.8358   -8.3244 C   0  0  1  0  0  0  0  0  0  0  0  0
   17.0774   70.1321   -7.2057 C   0  0  1  0  0  0  0  0  0  0  0  0
   19.3538   70.6770   -8.1223 C   0  0  2  0  0  0  0  0  0  0  0  0
   17.6148   70.5334   -5.8254 C   0  0  1  0  0  0  0  0  0  0  0  0
   19.7762   71.0564   -6.7018 C   0  0  1  0  0  0  0  0  0  0  0  0
   16.5230   70.3347   -9.7039 H   0  0  0  0  0  0  0  0  0  0  0  0
   15.3759   70.2295   -8.2016 H   0  0  0  0  0  0  0  0  0  0  0  0
   19.7690   71.2296   -9.9685 H   0  0  0  0  0  0  0  0  0  0  0  0
   16.1543   68.7221   -5.2822 O   0  0  0  0  0  0  0  0  0  0  0  0
   16.9674   69.7257   -4.7026 C   0  0  0  0  0  0  0  0  0  0  0  0
   15.7360   68.1999   -4.5793 H   0  0  0  0  0  0  0  0  0  0  0  0
 25 28  1  0
 25 24  1  0
 25 26  1  6
 25 27  2  0
  1  4  1  0
  1 24  1  0
  1  2  1  1
  1  3  2  0
  6 11  1  0
  6 12  1  0
 29 36  1  0
 29 37  1  0
  9  7  1  1
  7 13  1  0
 10  8  1  1
  8 14  1  0
 37 28  1  1
  4  5  1  0
 33 30  1  6
 30 38  1  0
 34 31  1  1
 31 39  1  0
 35 32  1  6
 32 40  1  0
 41 42  1  0
 41 43  1  0
 15 19  2  0
 16 22  2  0
 12 17  1  6
 17 19  1  0
 17 20  1  0
 18 19  1  0
 18 22  1  0
 18 23  1  0
  9 10  1  0
  9 11  1  0
 10 12  1  0
 11  5  1  1
 33 34  1  0
 33 35  1  0
 34 36  1  0
 35 37  1  0
 36 42  1  1
 20 21  2  0
 21 22  1  0
M  CHG  2   2  -1  26  -1
M  END
>  <COMPND>  (193) 
    8629 

>  <AUTHOR>  (193) 
    GENERATED BY OPEN BABEL 3.1.1

>  <MASTER>  (193) 
        0    0    0    0    0    0    0    0   58    0   58    0

>  <minimizedAffinity>  (193) 
-7.75978

>  <CNNscore>  (193) 
0.5441912413

>  <CNNaffinity>  (193) 
4.4272508621

>  <CNN_VS>  (193) 
2.4092712402

>  <CNNaffinity_variance>  (193) 
0.1545790136

$$$$
194
     RDKit          3D

 43 45  0  0  0  0  0  0  0  0999 V2000
   21.9175   75.1021   -3.9470 P   0  0  2  0  0  0  0  0  0  0  0  0
   23.3845   75.5468   -3.4295 O   0  0  0  0  0  0  0  0  0  0  0  0
   20.8453   76.1383   -3.7793 O   0  0  0  0  0  0  0  0  0  0  0  0
   21.6537   73.6909   -3.2009 O   0  0  0  0  0  0  0  0  0  0  0  0
   22.4344   73.3718   -2.0623 C   0  0  0  0  0  0  0  0  0  0  0  0
   23.2197   71.4260   -0.8913 O   0  0  0  0  0  0  0  0  0  0  0  0
   20.3375   70.6322   -0.6600 O   0  0  0  0  0  0  0  0  0  0  0  0
   20.8699   71.6634    1.8077 O   0  0  0  0  0  0  0  0  0  0  0  0
   20.9221   71.9325   -0.6081 C   0  0  1  0  0  0  0  0  0  0  0  0
   21.6296   72.1385    0.7150 C   0  0  2  0  0  0  0  0  0  0  0  0
   22.0808   71.9659   -1.5969 C   0  0  1  0  0  0  0  0  0  0  0  0
   22.9143   71.3537    0.5109 C   0  0  2  0  0  0  0  0  0  0  0  0
   19.5947   70.5867   -0.0370 H   0  0  0  0  0  0  0  0  0  0  0  0
   20.0632   72.1945    1.8962 H   0  0  0  0  0  0  0  0  0  0  0  0
   24.8100   69.8063    1.9215 O   0  0  0  0  0  0  0  0  0  0  0  0
   27.0884   73.5544    3.3365 O   0  0  0  0  0  0  0  0  0  0  0  0
   24.0136   71.8992    1.2563 N   0  0  0  0  0  0  0  0  0  0  0  0
   25.9430   71.6738    2.6248 N   0  0  0  0  0  0  0  0  0  0  0  0
   24.9081   71.0351    1.9298 C   0  0  0  0  0  0  0  0  0  0  0  0
   24.1962   73.2766    1.3138 C   0  0  0  0  0  0  0  0  0  0  0  0
   25.1875   73.8700    1.9819 C   0  0  0  0  0  0  0  0  0  0  0  0
   26.1659   73.0388    2.7128 C   0  0  0  0  0  0  0  0  0  0  0  0
   26.5782   71.0919    3.1019 H   0  0  0  0  0  0  0  0  0  0  0  0
   22.1909   74.6586   -5.4772 O   0  0  0  0  0  0  0  0  0  0  0  0
   22.4146   73.1993   -6.1357 P   0  0  2  0  0  0  0  0  0  0  0  0
   23.4254   72.4759   -5.1001 O   0  0  0  0  0  0  0  0  0  0  0  0
   22.9018   73.2329   -7.5553 O   0  0  0  0  0  0  0  0  0  0  0  0
   21.0063   72.4381   -5.9297 O   0  0  0  0  0  0  0  0  0  0  0  0
   20.4644   70.2277   -5.2687 O   0  0  0  0  0  0  0  0  0  0  0  0
   17.6241   70.7488   -8.2202 O   0  0  0  0  0  0  0  0  0  0  0  0
   16.8184   70.7347   -5.4637 O   0  0  0  0  0  0  0  0  0  0  0  0
   20.2872   71.8272   -8.5726 O   0  0  0  0  0  0  0  0  0  0  0  0
   18.4711   71.1531   -7.1412 C   0  0  1  0  0  0  0  0  0  0  0  0
   18.1076   70.3224   -5.9089 C   0  0  1  0  0  0  0  0  0  0  0  0
   19.9282   70.9199   -7.5361 C   0  0  2  0  0  0  0  0  0  0  0  0
   19.1431   70.5068   -4.7913 C   0  0  1  0  0  0  0  0  0  0  0  0
   20.8699   71.0804   -6.3412 C   0  0  1  0  0  0  0  0  0  0  0  0
   16.6974   70.8948   -7.9761 H   0  0  0  0  0  0  0  0  0  0  0  0
   16.1740   70.6137   -6.1787 H   0  0  0  0  0  0  0  0  0  0  0  0
   19.6840   71.7155   -9.3232 H   0  0  0  0  0  0  0  0  0  0  0  0
   18.0715   70.2420   -2.6722 O   0  0  0  0  0  0  0  0  0  0  0  0
   18.8868   69.5688   -3.6138 C   0  0  0  0  0  0  0  0  0  0  0  0
   17.8998   69.6569   -1.9173 H   0  0  0  0  0  0  0  0  0  0  0  0
 25 28  1  0
 25 24  1  0
 25 26  1  1
 25 27  2  0
  1  4  1  0
  1 24  1  0
  1  2  1  1
  1  3  2  0
  6 11  1  0
  6 12  1  0
 29 36  1  0
 29 37  1  0
  9  7  1  1
  7 13  1  0
 10  8  1  1
  8 14  1  0
 37 28  1  1
  4  5  1  0
 33 30  1  6
 30 38  1  0
 34 31  1  1
 31 39  1  0
 35 32  1  6
 32 40  1  0
 41 42  1  0
 41 43  1  0
 15 19  2  0
 16 22  2  0
 12 17  1  1
 17 19  1  0
 17 20  1  0
 18 19  1  0
 18 22  1  0
 18 23  1  0
  9 10  1  0
  9 11  1  0
 10 12  1  0
 11  5  1  1
 33 34  1  0
 33 35  1  0
 34 36  1  0
 35 37  1  0
 36 42  1  1
 20 21  2  0
 21 22  1  0
M  CHG  2   2  -1  26  -1
M  END
>  <COMPND>  (194) 
    8629 

>  <AUTHOR>  (194) 
    GENERATED BY OPEN BABEL 3.1.1

>  <MASTER>  (194) 
        0    0    0    0    0    0    0    0   58    0   58    0

>  <minimizedAffinity>  (194) 
-6.83118

>  <CNNscore>  (194) 
0.5427276492

>  <CNNaffinity>  (194) 
4.3577318192

>  <CNN_VS>  (194) 
2.3650615215

>  <CNNaffinity_variance>  (194) 
0.0961046740

$$$$
195
     RDKit          3D

 43 45  0  0  0  0  0  0  0  0999 V2000
   21.4130   72.4043   -5.4425 P   0  0  2  0  0  0  0  0  0  0  0  0
   20.7378   73.8265   -5.8152 O   0  0  0  0  0  0  0  0  0  0  0  0
   22.9049   72.3520   -5.5938 O   0  0  0  0  0  0  0  0  0  0  0  0
   20.5793   71.3352   -6.3255 O   0  0  0  0  0  0  0  0  0  0  0  0
   20.0387   71.7576   -7.5654 C   0  0  0  0  0  0  0  0  0  0  0  0
   18.6533   69.8386   -7.1506 O   0  0  0  0  0  0  0  0  0  0  0  0
   17.9218   69.9723  -10.0554 O   0  0  0  0  0  0  0  0  0  0  0  0
   15.7617   71.1152   -8.8452 O   0  0  0  0  0  0  0  0  0  0  0  0
   18.1740   71.0359   -9.1386 C   0  0  1  0  0  0  0  0  0  0  0  0
   17.0084   71.1955   -8.1849 C   0  0  2  0  0  0  0  0  0  0  0  0
   19.2923   70.5938   -8.2031 C   0  0  1  0  0  0  0  0  0  0  0  0
   17.2329   70.0456   -7.2178 C   0  0  2  0  0  0  0  0  0  0  0  0
   17.2112   70.2315  -10.6635 H   0  0  0  0  0  0  0  0  0  0  0  0
   15.6663   71.8684   -9.4489 H   0  0  0  0  0  0  0  0  0  0  0  0
   16.4630   68.0840   -5.3370 O   0  0  0  0  0  0  0  0  0  0  0  0
   15.3586   71.2686   -2.1938 O   0  0  0  0  0  0  0  0  0  0  0  0
   16.7409   70.3340   -5.9002 N   0  0  0  0  0  0  0  0  0  0  0  0
   15.9139   69.6712   -3.7734 N   0  0  0  0  0  0  0  0  0  0  0  0
   16.3806   69.2759   -5.0335 C   0  0  0  0  0  0  0  0  0  0  0  0
   16.6200   71.6539   -5.4792 C   0  0  0  0  0  0  0  0  0  0  0  0
   16.1720   72.0141   -4.2747 C   0  0  0  0  0  0  0  0  0  0  0  0
   15.7745   70.9695   -3.3089 C   0  0  0  0  0  0  0  0  0  0  0  0
   15.6566   68.9511   -3.1529 H   0  0  0  0  0  0  0  0  0  0  0  0
   20.8791   72.1307   -3.9415 O   0  0  0  0  0  0  0  0  0  0  0  0
   20.5455   70.7508   -3.1684 P   0  0  2  0  0  0  0  0  0  0  0  0
   21.6517   69.7232   -3.7497 O   0  0  0  0  0  0  0  0  0  0  0  0
   19.1265   70.2860   -3.3237 O   0  0  0  0  0  0  0  0  0  0  0  0
   20.9988   71.0175   -1.6425 O   0  0  0  0  0  0  0  0  0  0  0  0
   21.2622   72.9061   -0.2353 O   0  0  0  0  0  0  0  0  0  0  0  0
   24.8285   70.9846    0.5648 O   0  0  0  0  0  0  0  0  0  0  0  0
   22.7535   71.0071    2.5502 O   0  0  0  0  0  0  0  0  0  0  0  0
   23.7629   70.9890   -2.1266 O   0  0  0  0  0  0  0  0  0  0  0  0
   23.4342   71.0690    0.2581 C   0  0  1  0  0  0  0  0  0  0  0  0
   22.7399   71.8316    1.3882 C   0  0  1  0  0  0  0  0  0  0  0  0
   23.2589   71.8007   -1.0713 C   0  0  2  0  0  0  0  0  0  0  0  0
   21.2982   72.1947    1.0074 C   0  0  1  0  0  0  0  0  0  0  0  0
   21.7943   72.1582   -1.3305 C   0  0  1  0  0  0  0  0  0  0  0  0
   24.9468   70.5206    1.4076 H   0  0  0  0  0  0  0  0  0  0  0  0
   23.6695   70.7847    2.7796 H   0  0  0  0  0  0  0  0  0  0  0  0
   24.6908   70.7699   -1.9510 H   0  0  0  0  0  0  0  0  0  0  0  0
   20.3789   72.3156    3.2095 O   0  0  0  0  0  0  0  0  0  0  0  0
   20.6387   73.0906    2.0536 C   0  0  0  0  0  0  0  0  0  0  0  0
   19.9594   72.8729    3.8841 H   0  0  0  0  0  0  0  0  0  0  0  0
 25 28  1  0
 25 24  1  0
 25 26  1  6
 25 27  2  0
  1  4  1  0
  1 24  1  0
  1  2  1  6
  1  3  2  0
  6 11  1  0
  6 12  1  0
 29 36  1  0
 29 37  1  0
  9  7  1  6
  7 13  1  0
 10  8  1  6
  8 14  1  0
 37 28  1  1
  4  5  1  0
 33 30  1  1
 30 38  1  0
 34 31  1  1
 31 39  1  0
 35 32  1  6
 32 40  1  0
 41 42  1  0
 41 43  1  0
 15 19  2  0
 16 22  2  0
 12 17  1  1
 17 19  1  0
 17 20  1  0
 18 19  1  0
 18 22  1  0
 18 23  1  0
  9 10  1  0
  9 11  1  0
 10 12  1  0
 11  5  1  1
 33 34  1  0
 33 35  1  0
 34 36  1  0
 35 37  1  0
 36 42  1  1
 20 21  2  0
 21 22  1  0
M  CHG  2   2  -1  26  -1
M  END
>  <COMPND>  (195) 
    8629 

>  <AUTHOR>  (195) 
    GENERATED BY OPEN BABEL 3.1.1

>  <MASTER>  (195) 
        0    0    0    0    0    0    0    0   58    0   58    0

>  <minimizedAffinity>  (195) 
-7.60359

>  <CNNscore>  (195) 
0.5399008989

>  <CNNaffinity>  (195) 
4.4426474571

>  <CNN_VS>  (195) 
2.3985893726

>  <CNNaffinity_variance>  (195) 
0.3746522069

$$$$
196
     RDKit          3D

 43 45  0  0  0  0  0  0  0  0999 V2000
   21.5657   72.2470   -5.7119 P   0  0  2  0  0  0  0  0  0  0  0  0
   23.1117   72.4683   -6.1342 O   0  0  0  0  0  0  0  0  0  0  0  0
   21.3463   71.9006   -4.2685 O   0  0  0  0  0  0  0  0  0  0  0  0
   21.0210   71.1653   -6.7848 O   0  0  0  0  0  0  0  0  0  0  0  0
   20.3031   71.6343   -7.9128 C   0  0  0  0  0  0  0  0  0  0  0  0
   18.9472   69.7186   -7.3976 O   0  0  0  0  0  0  0  0  0  0  0  0
   17.9413   69.9064  -10.2161 O   0  0  0  0  0  0  0  0  0  0  0  0
   15.9176   71.0444   -8.7856 O   0  0  0  0  0  0  0  0  0  0  0  0
   18.2897   70.9527   -9.3109 C   0  0  1  0  0  0  0  0  0  0  0  0
   17.2226   71.1046   -8.2470 C   0  0  2  0  0  0  0  0  0  0  0  0
   19.4887   70.4868   -8.4944 C   0  0  1  0  0  0  0  0  0  0  0  0
   17.5288   69.9369   -7.3246 C   0  0  2  0  0  0  0  0  0  0  0  0
   17.1779   70.1810  -10.7488 H   0  0  0  0  0  0  0  0  0  0  0  0
   15.7712   71.8083   -9.3651 H   0  0  0  0  0  0  0  0  0  0  0  0
   16.0312   68.1836   -5.6932 O   0  0  0  0  0  0  0  0  0  0  0  0
   16.2029   71.0772   -2.1101 O   0  0  0  0  0  0  0  0  0  0  0  0
   17.1681   70.2067   -5.9613 N   0  0  0  0  0  0  0  0  0  0  0  0
   16.1181   69.6258   -3.9104 N   0  0  0  0  0  0  0  0  0  0  0  0
   16.4132   69.2603   -5.2300 C   0  0  0  0  0  0  0  0  0  0  0  0
   17.5624   71.3985   -5.3630 C   0  0  0  0  0  0  0  0  0  0  0  0
   17.2718   71.7325   -4.1040 C   0  0  0  0  0  0  0  0  0  0  0  0
   16.4864   70.7990   -3.2711 C   0  0  0  0  0  0  0  0  0  0  0  0
   15.5928   68.9820   -3.3817 H   0  0  0  0  0  0  0  0  0  0  0  0
   20.8584   73.6199   -6.1892 O   0  0  0  0  0  0  0  0  0  0  0  0
   19.9562   74.6874   -5.3771 P   0  0  2  0  0  0  0  0  0  0  0  0
   20.5445   76.1147   -5.8611 O   0  0  0  0  0  0  0  0  0  0  0  0
   19.9587   74.4891   -3.8889 O   0  0  0  0  0  0  0  0  0  0  0  0
   18.4977   74.5942   -6.0618 O   0  0  0  0  0  0  0  0  0  0  0  0
   17.1941   75.6700   -7.7231 O   0  0  0  0  0  0  0  0  0  0  0  0
   14.5685   75.9391   -4.5475 O   0  0  0  0  0  0  0  0  0  0  0  0
   14.0227   74.1025   -6.6869 O   0  0  0  0  0  0  0  0  0  0  0  0
   17.4083   76.2870   -4.1066 O   0  0  0  0  0  0  0  0  0  0  0  0
   15.5821   75.3303   -5.3521 C   0  0  1  0  0  0  0  0  0  0  0  0
   15.0168   75.1208   -6.7583 C   0  0  1  0  0  0  0  0  0  0  0  0
   16.8033   76.2469   -5.3946 C   0  0  2  0  0  0  0  0  0  0  0  0
   16.1215   74.7210   -7.7456 C   0  0  1  0  0  0  0  0  0  0  0  0
   17.8181   75.7876   -6.4430 C   0  0  1  0  0  0  0  0  0  0  0  0
   13.7905   75.3618   -4.5160 H   0  0  0  0  0  0  0  0  0  0  0  0
   13.3314   74.3671   -6.0598 H   0  0  0  0  0  0  0  0  0  0  0  0
   16.7558   76.5795   -3.4520 H   0  0  0  0  0  0  0  0  0  0  0  0
   14.8133   73.4989   -9.3280 O   0  0  0  0  0  0  0  0  0  0  0  0
   15.6094   74.6606   -9.1831 C   0  0  0  0  0  0  0  0  0  0  0  0
   14.4802   73.4475  -10.2380 H   0  0  0  0  0  0  0  0  0  0  0  0
 25 28  1  0
 25 24  1  0
 25 26  1  1
 25 27  2  0
  1  4  1  0
  1 24  1  0
  1  2  1  1
  1  3  2  0
  6 11  1  0
  6 12  1  0
 29 36  1  0
 29 37  1  0
  9  7  1  6
  7 13  1  0
 10  8  1  6
  8 14  1  0
 37 28  1  1
  4  5  1  0
 33 30  1  1
 30 38  1  0
 34 31  1  1
 31 39  1  0
 35 32  1  1
 32 40  1  0
 41 42  1  0
 41 43  1  0
 15 19  2  0
 16 22  2  0
 12 17  1  1
 17 19  1  0
 17 20  1  0
 18 19  1  0
 18 22  1  0
 18 23  1  0
  9 10  1  0
  9 11  1  0
 10 12  1  0
 11  5  1  1
 33 34  1  0
 33 35  1  0
 34 36  1  0
 35 37  1  0
 36 42  1  6
 20 21  2  0
 21 22  1  0
M  CHG  2   2  -1  26  -1
M  END
>  <COMPND>  (196) 
    8629 

>  <AUTHOR>  (196) 
    GENERATED BY OPEN BABEL 3.1.1

>  <MASTER>  (196) 
        0    0    0    0    0    0    0    0   58    0   58    0

>  <minimizedAffinity>  (196) 
-6.38695

>  <CNNscore>  (196) 
0.5373783112

>  <CNNaffinity>  (196) 
4.1243963242

>  <CNN_VS>  (196) 
2.2163610458

>  <CNNaffinity_variance>  (196) 
0.4665991664

$$$$
197
     RDKit          3D

 43 45  0  0  0  0  0  0  0  0999 V2000
   21.0262   75.1775   -3.4931 P   0  0  2  0  0  0  0  0  0  0  0  0
   21.9436   75.8542   -4.6410 O   0  0  0  0  0  0  0  0  0  0  0  0
   20.0827   76.1165   -2.8004 O   0  0  0  0  0  0  0  0  0  0  0  0
   22.0923   74.4221   -2.5389 O   0  0  0  0  0  0  0  0  0  0  0  0
   21.6923   74.0667   -1.2268 C   0  0  0  0  0  0  0  0  0  0  0  0
   22.8983   73.5402    0.7837 O   0  0  0  0  0  0  0  0  0  0  0  0
   23.5990   70.9425   -0.5399 O   0  0  0  0  0  0  0  0  0  0  0  0
   21.5707   70.2272    1.1368 O   0  0  0  0  0  0  0  0  0  0  0  0
   22.3910   71.6975   -0.6173 C   0  0  1  0  0  0  0  0  0  0  0  0
   21.6016   71.5599    0.6678 C   0  0  2  0  0  0  0  0  0  0  0  0
   22.7601   73.1757   -0.6071 C   0  0  1  0  0  0  0  0  0  0  0  0
   22.3555   72.4911    1.6019 C   0  0  2  0  0  0  0  0  0  0  0  0
   23.3888   69.9950   -0.5452 H   0  0  0  0  0  0  0  0  0  0  0  0
   21.0804   69.6745    0.5085 H   0  0  0  0  0  0  0  0  0  0  0  0
   23.0675   72.8116    4.3164 O   0  0  0  0  0  0  0  0  0  0  0  0
   19.0062   74.7325    5.3446 O   0  0  0  0  0  0  0  0  0  0  0  0
   21.5035   73.0723    2.6008 N   0  0  0  0  0  0  0  0  0  0  0  0
   21.0448   73.7680    4.8261 N   0  0  0  0  0  0  0  0  0  0  0  0
   21.9564   73.1862    3.9359 C   0  0  0  0  0  0  0  0  0  0  0  0
   20.2346   73.5224    2.2527 C   0  0  0  0  0  0  0  0  0  0  0  0
   19.3769   74.0738    3.1139 C   0  0  0  0  0  0  0  0  0  0  0  0
   19.7723   74.2296    4.5286 C   0  0  0  0  0  0  0  0  0  0  0  0
   21.3384   73.8573    5.7618 H   0  0  0  0  0  0  0  0  0  0  0  0
   20.3086   73.9573   -4.2736 O   0  0  0  0  0  0  0  0  0  0  0  0
   20.9138   72.5948   -4.8983 P   0  0  2  0  0  0  0  0  0  0  0  0
   20.6882   71.5127   -3.7170 O   0  0  0  0  0  0  0  0  0  0  0  0
   22.3350   72.7114   -5.3682 O   0  0  0  0  0  0  0  0  0  0  0  0
   19.8624   72.1697   -6.0467 O   0  0  0  0  0  0  0  0  0  0  0  0
   18.9513   69.9863   -6.1847 O   0  0  0  0  0  0  0  0  0  0  0  0
   18.5431   71.1223  -10.1336 O   0  0  0  0  0  0  0  0  0  0  0  0
   16.2144   70.9398   -8.4627 O   0  0  0  0  0  0  0  0  0  0  0  0
   20.8971   71.9051   -8.6418 O   0  0  0  0  0  0  0  0  0  0  0  0
   18.5625   71.3176   -8.7170 C   0  0  1  0  0  0  0  0  0  0  0  0
   17.4897   70.4217   -8.0946 C   0  0  1  0  0  0  0  0  0  0  0  0
   19.9455   70.9517   -8.1815 C   0  0  2  0  0  0  0  0  0  0  0  0
   17.6262   70.3735   -6.5668 C   0  0  1  0  0  0  0  0  0  0  0  0
   19.9597   70.8837   -6.6533 C   0  0  1  0  0  0  0  0  0  0  0  0
   17.6678   71.3534  -10.4800 H   0  0  0  0  0  0  0  0  0  0  0  0
   16.1413   70.9654   -9.4298 H   0  0  0  0  0  0  0  0  0  0  0  0
   20.8786   71.9385   -9.6105 H   0  0  0  0  0  0  0  0  0  0  0  0
   15.5154   69.2699   -6.7555 O   0  0  0  0  0  0  0  0  0  0  0  0
   16.6679   69.3640   -5.9386 C   0  0  0  0  0  0  0  0  0  0  0  0
   14.8966   68.6307   -6.3680 H   0  0  0  0  0  0  0  0  0  0  0  0
 25 28  1  0
 25 24  1  0
 25 26  1  1
 25 27  2  0
  1  4  1  0
  1 24  1  0
  1  2  1  6
  1  3  2  0
  6 11  1  0
  6 12  1  0
 29 36  1  0
 29 37  1  0
  9  7  1  1
  7 13  1  0
 10  8  1  1
  8 14  1  0
 37 28  1  1
  4  5  1  0
 33 30  1  6
 30 38  1  0
 34 31  1  1
 31 39  1  0
 35 32  1  1
 32 40  1  0
 41 42  1  0
 41 43  1  0
 15 19  2  0
 16 22  2  0
 12 17  1  1
 17 19  1  0
 17 20  1  0
 18 19  1  0
 18 22  1  0
 18 23  1  0
  9 10  1  0
  9 11  1  0
 10 12  1  0
 11  5  1  1
 33 34  1  0
 33 35  1  0
 34 36  1  0
 35 37  1  0
 36 42  1  6
 20 21  2  0
 21 22  1  0
M  CHG  2   2  -1  26  -1
M  END
>  <COMPND>  (197) 
    8629 

>  <AUTHOR>  (197) 
    GENERATED BY OPEN BABEL 3.1.1

>  <MASTER>  (197) 
        0    0    0    0    0    0    0    0   58    0   58    0

>  <minimizedAffinity>  (197) 
-6.75612

>  <CNNscore>  (197) 
0.5280968547

>  <CNNaffinity>  (197) 
4.0627474785

>  <CNN_VS>  (197) 
2.1455242634

>  <CNNaffinity_variance>  (197) 
0.1253671199

$$$$
198
     RDKit          3D

 43 45  0  0  0  0  0  0  0  0999 V2000
   22.4893   72.0961   -3.5638 P   0  0  2  0  0  0  0  0  0  0  0  0
   21.6734   70.6991   -3.5569 O   0  0  0  0  0  0  0  0  0  0  0  0
   23.9269   71.9884   -3.9799 O   0  0  0  0  0  0  0  0  0  0  0  0
   22.2289   72.7053   -2.0876 O   0  0  0  0  0  0  0  0  0  0  0  0
   23.2743   72.6361   -1.1336 C   0  0  0  0  0  0  0  0  0  0  0  0
   24.3140   71.1842    0.4742 O   0  0  0  0  0  0  0  0  0  0  0  0
   21.5755   70.0602    0.9515 O   0  0  0  0  0  0  0  0  0  0  0  0
   21.9039   71.7455    3.0702 O   0  0  0  0  0  0  0  0  0  0  0  0
   21.9620   71.4031    0.6638 C   0  0  1  0  0  0  0  0  0  0  0  0
   22.6063   72.0366    1.8792 C   0  0  2  0  0  0  0  0  0  0  0  0
   23.1219   71.3563   -0.3230 C   0  0  1  0  0  0  0  0  0  0  0  0
   23.9959   71.4230    1.8551 C   0  0  2  0  0  0  0  0  0  0  0  0
   20.8357   70.0645    1.5797 H   0  0  0  0  0  0  0  0  0  0  0  0
   21.0265   72.1575    3.0372 H   0  0  0  0  0  0  0  0  0  0  0  0
   26.6630   70.6643    2.3929 O   0  0  0  0  0  0  0  0  0  0  0  0
   27.7175   74.8457    4.0193 O   0  0  0  0  0  0  0  0  0  0  0  0
   24.9889   72.2935    2.4186 N   0  0  0  0  0  0  0  0  0  0  0  0
   27.1859   72.7470    3.2021 N   0  0  0  0  0  0  0  0  0  0  0  0
   26.2991   71.8137    2.6502 C   0  0  0  0  0  0  0  0  0  0  0  0
   24.6597   73.6070    2.7351 C   0  0  0  0  0  0  0  0  0  0  0  0
   25.5167   74.4840    3.2621 C   0  0  0  0  0  0  0  0  0  0  0  0
   26.9059   74.0629    3.5352 C   0  0  0  0  0  0  0  0  0  0  0  0
   28.1043   72.4351    3.3725 H   0  0  0  0  0  0  0  0  0  0  0  0
   21.5835   73.0414   -4.5119 O   0  0  0  0  0  0  0  0  0  0  0  0
   21.2835   72.9774   -6.0989 P   0  0  2  0  0  0  0  0  0  0  0  0
   22.3431   71.8775   -6.6328 O   0  0  0  0  0  0  0  0  0  0  0  0
   21.3657   74.3052   -6.7948 O   0  0  0  0  0  0  0  0  0  0  0  0
   19.8476   72.2496   -6.2142 O   0  0  0  0  0  0  0  0  0  0  0  0
   18.9626   70.1431   -5.5848 O   0  0  0  0  0  0  0  0  0  0  0  0
   17.4229   70.3899   -9.4084 O   0  0  0  0  0  0  0  0  0  0  0  0
   15.6749   70.7113   -7.1525 O   0  0  0  0  0  0  0  0  0  0  0  0
   20.0963   71.3570   -8.8631 O   0  0  0  0  0  0  0  0  0  0  0  0
   17.8460   70.8950   -8.1390 C   0  0  1  0  0  0  0  0  0  0  0  0
   17.0086   70.2200   -7.0510 C   0  0  1  0  0  0  0  0  0  0  0  0
   19.3291   70.5833   -7.9469 C   0  0  2  0  0  0  0  0  0  0  0  0
   17.5788   70.5066   -5.6554 C   0  0  1  0  0  0  0  0  0  0  0  0
   19.7825   70.8573   -6.5119 C   0  0  1  0  0  0  0  0  0  0  0  0
   16.4822   70.5849   -9.5368 H   0  0  0  0  0  0  0  0  0  0  0  0
   15.3268   70.5244   -8.0385 H   0  0  0  0  0  0  0  0  0  0  0  0
   19.7998   71.1743   -9.7678 H   0  0  0  0  0  0  0  0  0  0  0  0
   16.0468   68.7331   -5.1896 O   0  0  0  0  0  0  0  0  0  0  0  0
   16.8541   69.7162   -4.5681 C   0  0  0  0  0  0  0  0  0  0  0  0
   15.5797   68.2221   -4.5096 H   0  0  0  0  0  0  0  0  0  0  0  0
 25 28  1  0
 25 24  1  0
 25 26  1  6
 25 27  2  0
  1  4  1  0
  1 24  1  0
  1  2  1  1
  1  3  2  0
  6 11  1  0
  6 12  1  0
 29 36  1  0
 29 37  1  0
  9  7  1  1
  7 13  1  0
 10  8  1  1
  8 14  1  0
 37 28  1  1
  4  5  1  0
 33 30  1  6
 30 38  1  0
 34 31  1  1
 31 39  1  0
 35 32  1  6
 32 40  1  0
 41 42  1  0
 41 43  1  0
 15 19  2  0
 16 22  2  0
 12 17  1  6
 17 19  1  0
 17 20  1  0
 18 19  1  0
 18 22  1  0
 18 23  1  0
  9 10  1  0
  9 11  1  0
 10 12  1  0
 11  5  1  1
 33 34  1  0
 33 35  1  0
 34 36  1  0
 35 37  1  0
 36 42  1  1
 20 21  2  0
 21 22  1  0
M  CHG  2   2  -1  26  -1
M  END
>  <COMPND>  (198) 
    8629 

>  <AUTHOR>  (198) 
    GENERATED BY OPEN BABEL 3.1.1

>  <MASTER>  (198) 
        0    0    0    0    0    0    0    0   58    0   58    0

>  <minimizedAffinity>  (198) 
-8.10896

>  <CNNscore>  (198) 
0.5238465667

>  <CNNaffinity>  (198) 
4.2495088577

>  <CNN_VS>  (198) 
2.2260906696

>  <CNNaffinity_variance>  (198) 
0.1038756967

$$$$
199
     RDKit          3D

 43 45  0  0  0  0  0  0  0  0999 V2000
   19.6748   71.2323   -1.3904 P   0  0  2  0  0  0  0  0  0  0  0  0
   18.7272   69.9881   -1.8044 O   0  0  0  0  0  0  0  0  0  0  0  0
   18.9514   72.5210   -1.1309 O   0  0  0  0  0  0  0  0  0  0  0  0
   20.7911   71.2766   -2.5608 O   0  0  0  0  0  0  0  0  0  0  0  0
   20.5699   72.1244   -3.6744 C   0  0  0  0  0  0  0  0  0  0  0  0
   20.9267   70.8720   -5.6939 O   0  0  0  0  0  0  0  0  0  0  0  0
   23.2680   72.6810   -6.1802 O   0  0  0  0  0  0  0  0  0  0  0  0
   21.3550   73.7324   -7.8146 O   0  0  0  0  0  0  0  0  0  0  0  0
   22.0022   72.9813   -5.5946 C   0  0  1  0  0  0  0  0  0  0  0  0
   20.9288   73.0354   -6.6616 C   0  0  2  0  0  0  0  0  0  0  0  0
   21.5694   71.7762   -4.7689 C   0  0  1  0  0  0  0  0  0  0  0  0
   20.6764   71.5614   -6.9296 C   0  0  2  0  0  0  0  0  0  0  0  0
   23.5653   73.4363   -6.7123 H   0  0  0  0  0  0  0  0  0  0  0  0
   21.5022   74.6651   -7.5927 H   0  0  0  0  0  0  0  0  0  0  0  0
   19.9266   69.5587   -8.7749 O   0  0  0  0  0  0  0  0  0  0  0  0
   15.4646   70.6627   -8.4392 O   0  0  0  0  0  0  0  0  0  0  0  0
   19.3256   71.3033   -7.3422 N   0  0  0  0  0  0  0  0  0  0  0  0
   17.7055   70.1099   -8.6061 N   0  0  0  0  0  0  0  0  0  0  0  0
   19.0565   70.2748   -8.2751 C   0  0  0  0  0  0  0  0  0  0  0  0
   18.2848   72.0654   -6.8230 C   0  0  0  0  0  0  0  0  0  0  0  0
   17.0019   71.8964   -7.1500 C   0  0  0  0  0  0  0  0  0  0  0  0
   16.6352   70.8428   -8.1182 C   0  0  0  0  0  0  0  0  0  0  0  0
   17.4941   69.3995   -9.2545 H   0  0  0  0  0  0  0  0  0  0  0  0
   20.4985   70.6564   -0.1243 O   0  0  0  0  0  0  0  0  0  0  0  0
   21.5338   71.3781    0.8857 P   0  0  2  0  0  0  0  0  0  0  0  0
   22.7572   70.3235    0.9790 O   0  0  0  0  0  0  0  0  0  0  0  0
   20.9386   71.7549    2.2114 O   0  0  0  0  0  0  0  0  0  0  0  0
   22.1289   72.6192    0.0427 O   0  0  0  0  0  0  0  0  0  0  0  0
   23.7719   73.2151   -1.5579 O   0  0  0  0  0  0  0  0  0  0  0  0
   25.0361   75.5666    1.5921 O   0  0  0  0  0  0  0  0  0  0  0  0
   23.7741   76.7945   -0.6766 O   0  0  0  0  0  0  0  0  0  0  0  0
   24.0215   72.9026    2.0952 O   0  0  0  0  0  0  0  0  0  0  0  0
   24.0766   74.9074    0.7614 C   0  0  1  0  0  0  0  0  0  0  0  0
   24.2271   75.4437   -0.6636 C   0  0  1  0  0  0  0  0  0  0  0  0
   24.3340   73.4021    0.7993 C   0  0  2  0  0  0  0  0  0  0  0  0
   23.4215   74.6002   -1.6609 C   0  0  1  0  0  0  0  0  0  0  0  0
   23.5200   72.6630   -0.2643 C   0  0  1  0  0  0  0  0  0  0  0  0
   24.8780   76.5227    1.5729 H   0  0  0  0  0  0  0  0  0  0  0  0
   24.2905   77.3162   -0.0423 H   0  0  0  0  0  0  0  0  0  0  0  0
   24.5434   73.3782    2.7595 H   0  0  0  0  0  0  0  0  0  0  0  0
   23.1044   76.2957   -3.3143 O   0  0  0  0  0  0  0  0  0  0  0  0
   23.6816   75.0199   -3.1060 C   0  0  0  0  0  0  0  0  0  0  0  0
   23.2624   76.5758   -4.2298 H   0  0  0  0  0  0  0  0  0  0  0  0
 25 28  1  0
 25 24  1  0
 25 26  1  1
 25 27  2  0
  1  4  1  0
  1 24  1  0
  1  2  1  6
  1  3  2  0
  6 11  1  0
  6 12  1  0
 29 36  1  0
 29 37  1  0
  9  7  1  6
  7 13  1  0
 10  8  1  6
  8 14  1  0
 37 28  1  1
  4  5  1  0
 33 30  1  1
 30 38  1  0
 34 31  1  1
 31 39  1  0
 35 32  1  1
 32 40  1  0
 41 42  1  0
 41 43  1  0
 15 19  2  0
 16 22  2  0
 12 17  1  1
 17 19  1  0
 17 20  1  0
 18 19  1  0
 18 22  1  0
 18 23  1  0
  9 10  1  0
  9 11  1  0
 10 12  1  0
 11  5  1  1
 33 34  1  0
 33 35  1  0
 34 36  1  0
 35 37  1  0
 36 42  1  6
 20 21  2  0
 21 22  1  0
M  CHG  2   2  -1  26  -1
M  END
>  <COMPND>  (199) 
    8629 

>  <AUTHOR>  (199) 
    GENERATED BY OPEN BABEL 3.1.1

>  <MASTER>  (199) 
        0    0    0    0    0    0    0    0   58    0   58    0

>  <minimizedAffinity>  (199) 
-6.71433

>  <CNNscore>  (199) 
0.5056205988

>  <CNNaffinity>  (199) 
4.1387090683

>  <CNN_VS>  (199) 
2.0926165581

>  <CNNaffinity_variance>  (199) 
0.0272947140

$$$$
200
     RDKit          3D

 43 45  0  0  0  0  0  0  0  0999 V2000
   22.4820   72.6189   -1.6697 P   0  0  2  0  0  0  0  0  0  0  0  0
   20.9333   72.7493   -1.2204 O   0  0  0  0  0  0  0  0  0  0  0  0
   23.2877   73.8780   -1.5398 O   0  0  0  0  0  0  0  0  0  0  0  0
   22.4031   71.9855   -3.1565 O   0  0  0  0  0  0  0  0  0  0  0  0
   21.5880   72.6266   -4.1221 C   0  0  0  0  0  0  0  0  0  0  0  0
   20.8404   70.6262   -5.2237 O   0  0  0  0  0  0  0  0  0  0  0  0
   21.5429   72.0026   -7.7933 O   0  0  0  0  0  0  0  0  0  0  0  0
   18.8347   72.3018   -7.6798 O   0  0  0  0  0  0  0  0  0  0  0  0
   20.9964   72.5522   -6.5955 C   0  0  1  0  0  0  0  0  0  0  0  0
   19.5368   72.1715   -6.4604 C   0  0  2  0  0  0  0  0  0  0  0  0
   21.6258   71.8232   -5.4149 C   0  0  1  0  0  0  0  0  0  0  0  0
   19.6295   70.7297   -5.9904 C   0  0  2  0  0  0  0  0  0  0  0  0
   21.1560   72.4527   -8.5612 H   0  0  0  0  0  0  0  0  0  0  0  0
   18.8030   73.2366   -7.9365 H   0  0  0  0  0  0  0  0  0  0  0  0
   17.1167   69.8948   -6.9736 O   0  0  0  0  0  0  0  0  0  0  0  0
   15.4439   69.3033   -2.7199 O   0  0  0  0  0  0  0  0  0  0  0  0
   18.5194   70.3513   -5.1622 N   0  0  0  0  0  0  0  0  0  0  0  0
   16.2859   69.6008   -4.8548 N   0  0  0  0  0  0  0  0  0  0  0  0
   17.3005   69.9483   -5.7558 C   0  0  0  0  0  0  0  0  0  0  0  0
   18.6457   70.3817   -3.7776 C   0  0  0  0  0  0  0  0  0  0  0  0
   17.6681   70.0485   -2.9323 C   0  0  0  0  0  0  0  0  0  0  0  0
   16.3625   69.6159   -3.4711 C   0  0  0  0  0  0  0  0  0  0  0  0
   15.4276   69.3172   -5.2455 H   0  0  0  0  0  0  0  0  0  0  0  0
   23.0169   71.3827   -0.7761 O   0  0  0  0  0  0  0  0  0  0  0  0
   22.7082   70.9683    0.7556 P   0  0  2  0  0  0  0  0  0  0  0  0
   24.0248   70.1327    1.1864 O   0  0  0  0  0  0  0  0  0  0  0  0
   21.4157   70.2281    0.9442 O   0  0  0  0  0  0  0  0  0  0  0  0
   22.8141   72.3505    1.5821 O   0  0  0  0  0  0  0  0  0  0  0  0
   24.0820   72.9907    3.4792 O   0  0  0  0  0  0  0  0  0  0  0  0
   20.5210   74.8662    4.4022 O   0  0  0  0  0  0  0  0  0  0  0  0
   22.7771   76.4371    3.5712 O   0  0  0  0  0  0  0  0  0  0  0  0
   20.4963   72.2512    3.1611 O   0  0  0  0  0  0  0  0  0  0  0  0
   21.5531   74.3824    3.5385 C   0  0  1  0  0  0  0  0  0  0  0  0
   22.8660   75.0617    3.9328 C   0  0  1  0  0  0  0  0  0  0  0  0
   21.6641   72.8668    3.6936 C   0  0  2  0  0  0  0  0  0  0  0  0
   24.0627   74.4019    3.2344 C   0  0  1  0  0  0  0  0  0  0  0  0
   22.9143   72.3185    3.0034 C   0  0  1  0  0  0  0  0  0  0  0  0
   20.4450   75.8279    4.3081 H   0  0  0  0  0  0  0  0  0  0  0  0
   22.0172   76.8418    4.0185 H   0  0  0  0  0  0  0  0  0  0  0  0
   19.7119   72.6065    3.6064 H   0  0  0  0  0  0  0  0  0  0  0  0
   25.7019   76.1226    2.9867 O   0  0  0  0  0  0  0  0  0  0  0  0
   25.3943   74.9593    3.7327 C   0  0  0  0  0  0  0  0  0  0  0  0
   26.5468   76.4885    3.2932 H   0  0  0  0  0  0  0  0  0  0  0  0
 25 28  1  0
 25 24  1  0
 25 26  1  1
 25 27  2  0
  1  4  1  0
  1 24  1  0
  1  2  1  1
  1  3  2  0
  6 11  1  0
  6 12  1  0
 29 36  1  0
 29 37  1  0
  9  7  1  6
  7 13  1  0
 10  8  1  6
  8 14  1  0
 37 28  1  6
  4  5  1  0
 33 30  1  1
 30 38  1  0
 34 31  1  6
 31 39  1  0
 35 32  1  6
 32 40  1  0
 41 42  1  0
 41 43  1  0
 15 19  2  0
 16 22  2  0
 12 17  1  1
 17 19  1  0
 17 20  1  0
 18 19  1  0
 18 22  1  0
 18 23  1  0
  9 10  1  0
  9 11  1  0
 10 12  1  0
 11  5  1  1
 33 34  1  0
 33 35  1  0
 34 36  1  0
 35 37  1  0
 36 42  1  1
 20 21  2  0
 21 22  1  0
M  CHG  2   2  -1  26  -1
M  END
>  <COMPND>  (200) 
    8629 

>  <AUTHOR>  (200) 
    GENERATED BY OPEN BABEL 3.1.1

>  <MASTER>  (200) 
        0    0    0    0    0    0    0    0   58    0   58    0

>  <minimizedAffinity>  (200) 
-6.68568

>  <CNNscore>  (200) 
0.4982842207

>  <CNNaffinity>  (200) 
4.1068387032

>  <CNN_VS>  (200) 
2.0463728905

>  <CNNaffinity_variance>  (200) 
0.1652129591

$$$$
201
     RDKit          3D

 43 45  0  0  0  0  0  0  0  0999 V2000
   21.0162   72.2317   -1.9191 P   0  0  2  0  0  0  0  0  0  0  0  0
   21.1508   70.6679   -1.5268 O   0  0  0  0  0  0  0  0  0  0  0  0
   21.4878   73.1919   -0.8670 O   0  0  0  0  0  0  0  0  0  0  0  0
   19.4702   72.3873   -2.3702 O   0  0  0  0  0  0  0  0  0  0  0  0
   19.1278   72.1111   -3.7172 C   0  0  0  0  0  0  0  0  0  0  0  0
   17.2101   71.9875   -5.1597 O   0  0  0  0  0  0  0  0  0  0  0  0
   15.9583   70.2776   -3.0384 O   0  0  0  0  0  0  0  0  0  0  0  0
   16.7805   68.4382   -4.8760 O   0  0  0  0  0  0  0  0  0  0  0  0
   17.3197   70.3397   -3.4601 C   0  0  1  0  0  0  0  0  0  0  0  0
   17.4855   69.6607   -4.8037 C   0  0  2  0  0  0  0  0  0  0  0  0
   17.6414   71.7908   -3.7953 C   0  0  1  0  0  0  0  0  0  0  0  0
   16.9368   70.7092   -5.7564 C   0  0  2  0  0  0  0  0  0  0  0  0
   15.7296   69.3604   -2.8185 H   0  0  0  0  0  0  0  0  0  0  0  0
   17.1671   67.8044   -4.2518 H   0  0  0  0  0  0  0  0  0  0  0  0
   15.5307   70.6191   -8.2044 O   0  0  0  0  0  0  0  0  0  0  0  0
   19.4338   70.5014  -10.6525 O   0  0  0  0  0  0  0  0  0  0  0  0
   17.5604   70.6550   -7.0486 N   0  0  0  0  0  0  0  0  0  0  0  0
   17.4753   70.5608   -9.4214 N   0  0  0  0  0  0  0  0  0  0  0  0
   16.7633   70.6116   -8.2161 C   0  0  0  0  0  0  0  0  0  0  0  0
   18.9474   70.6455   -7.1488 C   0  0  0  0  0  0  0  0  0  0  0  0
   19.6109   70.5955   -8.3057 C   0  0  0  0  0  0  0  0  0  0  0  0
   18.8528   70.5480   -9.5726 C   0  0  0  0  0  0  0  0  0  0  0  0
   16.9408   70.5296  -10.2479 H   0  0  0  0  0  0  0  0  0  0  0  0
   21.8150   72.3247   -3.3214 O   0  0  0  0  0  0  0  0  0  0  0  0
   23.3949   72.2341   -3.6511 P   0  0  2  0  0  0  0  0  0  0  0  0
   23.4480   72.3968   -5.2599 O   0  0  0  0  0  0  0  0  0  0  0  0
   24.0617   70.9934   -3.1318 O   0  0  0  0  0  0  0  0  0  0  0  0
   24.0108   73.6129   -3.0814 O   0  0  0  0  0  0  0  0  0  0  0  0
   22.7304   75.5753   -3.4369 O   0  0  0  0  0  0  0  0  0  0  0  0
   26.3624   77.3139   -2.5224 O   0  0  0  0  0  0  0  0  0  0  0  0
   24.2168   77.4261   -0.6166 O   0  0  0  0  0  0  0  0  0  0  0  0
   26.2780   74.9008   -4.1189 O   0  0  0  0  0  0  0  0  0  0  0  0
   25.3284   76.3303   -2.4289 C   0  0  1  0  0  0  0  0  0  0  0  0
   24.0443   77.0262   -1.9733 C   0  0  1  0  0  0  0  0  0  0  0  0
   25.1317   75.6813   -3.7977 C   0  0  2  0  0  0  0  0  0  0  0  0
   22.8323   76.0942   -2.1057 C   0  0  1  0  0  0  0  0  0  0  0  0
   23.8720   74.8141   -3.8358 C   0  0  1  0  0  0  0  0  0  0  0  0
   26.4926   77.7295   -1.6564 H   0  0  0  0  0  0  0  0  0  0  0  0
   24.9855   78.0137   -0.5467 H   0  0  0  0  0  0  0  0  0  0  0  0
   27.0686   75.4612   -4.0917 H   0  0  0  0  0  0  0  0  0  0  0  0
   20.8159   76.0799   -0.8239 O   0  0  0  0  0  0  0  0  0  0  0  0
   21.5202   76.8162   -1.8068 C   0  0  0  0  0  0  0  0  0  0  0  0
   19.9787   76.5279   -0.6234 H   0  0  0  0  0  0  0  0  0  0  0  0
 25 28  1  0
 25 24  1  0
 25 26  1  6
 25 27  2  0
  1  4  1  0
  1 24  1  0
  1  2  1  1
  1  3  2  0
  6 11  1  0
  6 12  1  0
 29 36  1  0
 29 37  1  0
  9  7  1  6
  7 13  1  0
 10  8  1  1
  8 14  1  0
 37 28  1  1
  4  5  1  0
 33 30  1  6
 30 38  1  0
 34 31  1  1
 31 39  1  0
 35 32  1  1
 32 40  1  0
 41 42  1  0
 41 43  1  0
 15 19  2  0
 16 22  2  0
 12 17  1  6
 17 19  1  0
 17 20  1  0
 18 19  1  0
 18 22  1  0
 18 23  1  0
  9 10  1  0
  9 11  1  0
 10 12  1  0
 11  5  1  6
 33 34  1  0
 33 35  1  0
 34 36  1  0
 35 37  1  0
 36 42  1  6
 20 21  2  0
 21 22  1  0
M  CHG  2   2  -1  26  -1
M  END
>  <COMPND>  (201) 
    8629 

>  <AUTHOR>  (201) 
    GENERATED BY OPEN BABEL 3.1.1

>  <MASTER>  (201) 
        0    0    0    0    0    0    0    0   58    0   58    0

>  <minimizedAffinity>  (201) 
-6.76769

>  <CNNscore>  (201) 
0.9128539562

>  <CNNaffinity>  (201) 
4.8948178291

>  <CNN_VS>  (201) 
4.4682536125

>  <CNNaffinity_variance>  (201) 
0.0725551546

$$$$
202
     RDKit          3D

 43 45  0  0  0  0  0  0  0  0999 V2000
   20.1579   72.6999   -2.6659 P   0  0  2  0  0  0  0  0  0  0  0  0
   20.3180   71.8129   -1.3224 O   0  0  0  0  0  0  0  0  0  0  0  0
   19.1163   73.7775   -2.5935 O   0  0  0  0  0  0  0  0  0  0  0  0
   19.9515   71.6004   -3.8349 O   0  0  0  0  0  0  0  0  0  0  0  0
   19.2020   70.4342   -3.5415 C   0  0  0  0  0  0  0  0  0  0  0  0
   17.5192   71.4059   -4.9549 O   0  0  0  0  0  0  0  0  0  0  0  0
   15.5258   69.8864   -3.3093 O   0  0  0  0  0  0  0  0  0  0  0  0
   15.7447   68.3464   -5.5492 O   0  0  0  0  0  0  0  0  0  0  0  0
   16.8397   69.5051   -3.7135 C   0  0  1  0  0  0  0  0  0  0  0  0
   16.8531   69.1431   -5.1840 C   0  0  2  0  0  0  0  0  0  0  0  0
   17.7192   70.7489   -3.6842 C   0  0  1  0  0  0  0  0  0  0  0  0
   16.8334   70.5107   -5.8454 C   0  0  2  0  0  0  0  0  0  0  0  0
   14.9459   69.1082   -3.3199 H   0  0  0  0  0  0  0  0  0  0  0  0
   15.8028   67.4872   -5.1030 H   0  0  0  0  0  0  0  0  0  0  0  0
   15.5169   70.6493   -8.3405 O   0  0  0  0  0  0  0  0  0  0  0  0
   19.4998   70.5158  -10.6558 O   0  0  0  0  0  0  0  0  0  0  0  0
   17.5018   70.5142   -7.1161 N   0  0  0  0  0  0  0  0  0  0  0  0
   17.5012   70.5829   -9.4913 N   0  0  0  0  0  0  0  0  0  0  0  0
   16.7477   70.5858   -8.3105 C   0  0  0  0  0  0  0  0  0  0  0  0
   18.8898   70.4476   -7.1692 C   0  0  0  0  0  0  0  0  0  0  0  0
   19.5932   70.4446   -8.3034 C   0  0  0  0  0  0  0  0  0  0  0  0
   18.8815   70.5168   -9.5958 C   0  0  0  0  0  0  0  0  0  0  0  0
   16.9971   70.6317  -10.3359 H   0  0  0  0  0  0  0  0  0  0  0  0
   21.6607   73.2335   -2.9304 O   0  0  0  0  0  0  0  0  0  0  0  0
   23.0853   72.4731   -2.8584 P   0  0  2  0  0  0  0  0  0  0  0  0
   23.9396   73.1730   -4.0407 O   0  0  0  0  0  0  0  0  0  0  0  0
   22.9910   70.9784   -2.9640 O   0  0  0  0  0  0  0  0  0  0  0  0
   23.7643   73.0058   -1.4945 O   0  0  0  0  0  0  0  0  0  0  0  0
   22.2663   73.4304    0.2922 O   0  0  0  0  0  0  0  0  0  0  0  0
   25.5887   75.4165    1.7303 O   0  0  0  0  0  0  0  0  0  0  0  0
   24.7902   72.9336    2.9327 O   0  0  0  0  0  0  0  0  0  0  0  0
   24.9584   75.5134   -1.0933 O   0  0  0  0  0  0  0  0  0  0  0  0
   24.8897   74.3824    1.0322 C   0  0  1  0  0  0  0  0  0  0  0  0
   23.9720   73.6682    2.0264 C   0  0  1  0  0  0  0  0  0  0  0  0
   24.0747   75.0067   -0.0990 C   0  0  2  0  0  0  0  0  0  0  0  0
   22.9975   72.7282    1.3041 C   0  0  1  0  0  0  0  0  0  0  0  0
   23.1026   74.0000   -0.7169 C   0  0  1  0  0  0  0  0  0  0  0  0
   26.1086   75.0268    2.4496 H   0  0  0  0  0  0  0  0  0  0  0  0
   25.4012   73.5387    3.3818 H   0  0  0  0  0  0  0  0  0  0  0  0
   25.5684   76.1497   -0.6897 H   0  0  0  0  0  0  0  0  0  0  0  0
   21.2087   71.1637    1.5527 O   0  0  0  0  0  0  0  0  0  0  0  0
   21.9700   72.1255    2.2597 C   0  0  0  0  0  0  0  0  0  0  0  0
   20.5508   70.7715    2.1485 H   0  0  0  0  0  0  0  0  0  0  0  0
 25 28  1  0
 25 24  1  0
 25 26  1  6
 25 27  2  0
  1  4  1  0
  1 24  1  0
  1  2  1  1
  1  3  2  0
  6 11  1  0
  6 12  1  0
 29 36  1  0
 29 37  1  0
  9  7  1  6
  7 13  1  0
 10  8  1  6
  8 14  1  0
 37 28  1  1
  4  5  1  0
 33 30  1  1
 30 38  1  0
 34 31  1  1
 31 39  1  0
 35 32  1  6
 32 40  1  0
 41 42  1  0
 41 43  1  0
 15 19  2  0
 16 22  2  0
 12 17  1  6
 17 19  1  0
 17 20  1  0
 18 19  1  0
 18 22  1  0
 18 23  1  0
  9 10  1  0
  9 11  1  0
 10 12  1  0
 11  5  1  6
 33 34  1  0
 33 35  1  0
 34 36  1  0
 35 37  1  0
 36 42  1  1
 20 21  2  0
 21 22  1  0
M  CHG  2   2  -1  26  -1
M  END
>  <COMPND>  (202) 
    8629 

>  <AUTHOR>  (202) 
    GENERATED BY OPEN BABEL 3.1.1

>  <MASTER>  (202) 
        0    0    0    0    0    0    0    0   58    0   58    0

>  <minimizedAffinity>  (202) 
-7.06744

>  <CNNscore>  (202) 
0.8771850467

>  <CNNaffinity>  (202) 
4.6112203598

>  <CNN_VS>  (202) 
4.0448937416

>  <CNNaffinity_variance>  (202) 
0.0582858846

$$$$
203
     RDKit          3D

 43 45  0  0  0  0  0  0  0  0999 V2000
   20.6038   71.3049   -1.2810 P   0  0  2  0  0  0  0  0  0  0  0  0
   20.6317   70.5473    0.1483 O   0  0  0  0  0  0  0  0  0  0  0  0
   20.1352   72.7295   -1.2341 O   0  0  0  0  0  0  0  0  0  0  0  0
   19.7457   70.3138   -2.2292 O   0  0  0  0  0  0  0  0  0  0  0  0
   19.4409   70.7350   -3.5473 C   0  0  0  0  0  0  0  0  0  0  0  0
   17.6931   71.6335   -4.9300 O   0  0  0  0  0  0  0  0  0  0  0  0
   15.7804   70.1988   -3.1206 O   0  0  0  0  0  0  0  0  0  0  0  0
   15.9011   68.5474   -5.2874 O   0  0  0  0  0  0  0  0  0  0  0  0
   17.0756   69.7978   -3.5645 C   0  0  1  0  0  0  0  0  0  0  0  0
   17.0231   69.3618   -5.0138 C   0  0  2  0  0  0  0  0  0  0  0  0
   17.9523   71.0417   -3.6381 C   0  0  1  0  0  0  0  0  0  0  0  0
   16.9698   70.6941   -5.7419 C   0  0  2  0  0  0  0  0  0  0  0  0
   15.2026   69.4210   -3.0654 H   0  0  0  0  0  0  0  0  0  0  0  0
   15.9817   67.7119   -4.8014 H   0  0  0  0  0  0  0  0  0  0  0  0
   15.5379   70.5867   -8.1742 O   0  0  0  0  0  0  0  0  0  0  0  0
   19.4149   70.4624  -10.6630 O   0  0  0  0  0  0  0  0  0  0  0  0
   17.5797   70.6335   -7.0403 N   0  0  0  0  0  0  0  0  0  0  0  0
   17.4695   70.5251   -9.4115 N   0  0  0  0  0  0  0  0  0  0  0  0
   16.7704   70.5816   -8.1990 C   0  0  0  0  0  0  0  0  0  0  0  0
   18.9656   70.6263   -7.1553 C   0  0  0  0  0  0  0  0  0  0  0  0
   19.6169   70.5707   -8.3189 C   0  0  0  0  0  0  0  0  0  0  0  0
   18.8454   70.5142   -9.5773 C   0  0  0  0  0  0  0  0  0  0  0  0
   16.9264   70.4880  -10.2321 H   0  0  0  0  0  0  0  0  0  0  0  0
   22.1137   71.1109   -1.8247 O   0  0  0  0  0  0  0  0  0  0  0  0
   23.1364   72.1561   -2.5136 P   0  0  2  0  0  0  0  0  0  0  0  0
   24.1795   71.1958   -3.2927 O   0  0  0  0  0  0  0  0  0  0  0  0
   23.7768   73.1149   -1.5520 O   0  0  0  0  0  0  0  0  0  0  0  0
   22.2758   72.8581   -3.6847 O   0  0  0  0  0  0  0  0  0  0  0  0
   23.1287   74.1721   -5.4630 O   0  0  0  0  0  0  0  0  0  0  0  0
   19.4413   75.9768   -5.0188 O   0  0  0  0  0  0  0  0  0  0  0  0
   19.9369   74.3072   -7.3024 O   0  0  0  0  0  0  0  0  0  0  0  0
   20.9079   75.0949   -2.6841 O   0  0  0  0  0  0  0  0  0  0  0  0
   20.3661   74.8859   -5.0217 C   0  0  1  0  0  0  0  0  0  0  0  0
   20.9621   74.7661   -6.4257 C   0  0  1  0  0  0  0  0  0  0  0  0
   21.4626   75.1584   -3.9936 C   0  0  2  0  0  0  0  0  0  0  0  0
   22.1521   73.7972   -6.4416 C   0  0  1  0  0  0  0  0  0  0  0  0
   22.6209   74.1682   -4.1274 C   0  0  1  0  0  0  0  0  0  0  0  0
   18.7422   75.8098   -5.6691 H   0  0  0  0  0  0  0  0  0  0  0  0
   19.1912   74.9275   -7.2827 H   0  0  0  0  0  0  0  0  0  0  0  0
   20.1760   75.7265   -2.6122 H   0  0  0  0  0  0  0  0  0  0  0  0
   22.3520   72.7015   -8.5554 O   0  0  0  0  0  0  0  0  0  0  0  0
   22.8595   73.7824   -7.7949 C   0  0  0  0  0  0  0  0  0  0  0  0
   22.7930   72.6799   -9.4196 H   0  0  0  0  0  0  0  0  0  0  0  0
 25 28  1  0
 25 24  1  0
 25 26  1  6
 25 27  2  0
  1  4  1  0
  1 24  1  0
  1  2  1  1
  1  3  2  0
  6 11  1  0
  6 12  1  0
 29 36  1  0
 29 37  1  0
  9  7  1  6
  7 13  1  0
 10  8  1  1
  8 14  1  0
 37 28  1  6
  4  5  1  0
 33 30  1  6
 30 38  1  0
 34 31  1  6
 31 39  1  0
 35 32  1  1
 32 40  1  0
 41 42  1  0
 41 43  1  0
 15 19  2  0
 16 22  2  0
 12 17  1  6
 17 19  1  0
 17 20  1  0
 18 19  1  0
 18 22  1  0
 18 23  1  0
  9 10  1  0
  9 11  1  0
 10 12  1  0
 11  5  1  6
 33 34  1  0
 33 35  1  0
 34 36  1  0
 35 37  1  0
 36 42  1  6
 20 21  2  0
 21 22  1  0
M  CHG  2   2  -1  26  -1
M  END
>  <COMPND>  (203) 
    8629 

>  <AUTHOR>  (203) 
    GENERATED BY OPEN BABEL 3.1.1

>  <MASTER>  (203) 
        0    0    0    0    0    0    0    0   58    0   58    0

>  <minimizedAffinity>  (203) 
-7.69628

>  <CNNscore>  (203) 
0.8700280190

>  <CNNaffinity>  (203) 
4.5906543732

>  <CNN_VS>  (203) 
3.9939978123

>  <CNNaffinity_variance>  (203) 
0.4320537448

$$$$
204
     RDKit          3D

 43 45  0  0  0  0  0  0  0  0999 V2000
   21.0337   73.4824   -3.8708 P   0  0  2  0  0  0  0  0  0  0  0  0
   20.7012   74.2060   -2.4625 O   0  0  0  0  0  0  0  0  0  0  0  0
   21.6770   74.3644   -4.9002 O   0  0  0  0  0  0  0  0  0  0  0  0
   19.6276   72.8085   -4.3028 O   0  0  0  0  0  0  0  0  0  0  0  0
   19.2352   71.6009   -3.6740 C   0  0  0  0  0  0  0  0  0  0  0  0
   17.3338   71.7984   -5.1298 O   0  0  0  0  0  0  0  0  0  0  0  0
   15.8747   70.0842   -3.1490 O   0  0  0  0  0  0  0  0  0  0  0  0
   16.5124   68.3072   -5.1168 O   0  0  0  0  0  0  0  0  0  0  0  0
   17.2399   70.0264   -3.5591 C   0  0  1  0  0  0  0  0  0  0  0  0
   17.3467   69.4353   -4.9493 C   0  0  2  0  0  0  0  0  0  0  0  0
   17.7236   71.4539   -3.7824 C   0  0  1  0  0  0  0  0  0  0  0  0
   16.9289   70.6062   -5.8225 C   0  0  2  0  0  0  0  0  0  0  0  0
   15.5436   69.1842   -3.0000 H   0  0  0  0  0  0  0  0  0  0  0  0
   16.8189   67.5898   -4.5405 H   0  0  0  0  0  0  0  0  0  0  0  0
   15.5354   70.6021   -8.2794 O   0  0  0  0  0  0  0  0  0  0  0  0
   19.4502   70.5019  -10.7094 O   0  0  0  0  0  0  0  0  0  0  0  0
   17.5590   70.5797   -7.1124 N   0  0  0  0  0  0  0  0  0  0  0  0
   17.4858   70.5524   -9.4873 N   0  0  0  0  0  0  0  0  0  0  0  0
   16.7679   70.5790   -8.2849 C   0  0  0  0  0  0  0  0  0  0  0  0
   18.9462   70.5552   -7.2057 C   0  0  0  0  0  0  0  0  0  0  0  0
   19.6155   70.5286   -8.3600 C   0  0  0  0  0  0  0  0  0  0  0  0
   18.8639   70.5260   -9.6317 C   0  0  0  0  0  0  0  0  0  0  0  0
   16.9557   70.5510  -10.3172 H   0  0  0  0  0  0  0  0  0  0  0  0
   21.9244   72.2096   -3.4240 O   0  0  0  0  0  0  0  0  0  0  0  0
   23.3919   72.1245   -2.7515 P   0  0  2  0  0  0  0  0  0  0  0  0
   24.0764   73.5277   -3.1756 O   0  0  0  0  0  0  0  0  0  0  0  0
   24.1791   70.9079   -3.1441 O   0  0  0  0  0  0  0  0  0  0  0  0
   23.1235   72.2646   -1.1662 O   0  0  0  0  0  0  0  0  0  0  0  0
   23.8669   70.7170    0.4676 O   0  0  0  0  0  0  0  0  0  0  0  0
   20.5195   72.1642    2.4044 O   0  0  0  0  0  0  0  0  0  0  0  0
   23.1310   72.9179    3.3317 O   0  0  0  0  0  0  0  0  0  0  0  0
   20.4598   71.7371   -0.4580 O   0  0  0  0  0  0  0  0  0  0  0  0
   21.6721   72.2411    1.5613 C   0  0  1  0  0  0  0  0  0  0  0  0
   22.9009   71.8701    2.3939 C   0  0  1  0  0  0  0  0  0  0  0  0
   21.5016   71.2717    0.3931 C   0  0  2  0  0  0  0  0  0  0  0  0
   24.1342   71.6703    1.5027 C   0  0  1  0  0  0  0  0  0  0  0  0
   22.8000   71.1078   -0.3990 C   0  0  1  0  0  0  0  0  0  0  0  0
   20.6212   72.7777    3.1479 H   0  0  0  0  0  0  0  0  0  0  0  0
   22.3446   73.0342    3.8878 H   0  0  0  0  0  0  0  0  0  0  0  0
   19.6433   71.8365    0.0551 H   0  0  0  0  0  0  0  0  0  0  0  0
   25.0284   69.8452    2.7591 O   0  0  0  0  0  0  0  0  0  0  0  0
   25.3318   71.1470    2.2926 C   0  0  0  0  0  0  0  0  0  0  0  0
   25.7818   69.4993    3.2634 H   0  0  0  0  0  0  0  0  0  0  0  0
 25 28  1  0
 25 24  1  0
 25 26  1  6
 25 27  2  0
  1  4  1  0
  1 24  1  0
  1  2  1  1
  1  3  2  0
  6 11  1  0
  6 12  1  0
 29 36  1  0
 29 37  1  0
  9  7  1  6
  7 13  1  0
 10  8  1  1
  8 14  1  0
 37 28  1  1
  4  5  1  0
 33 30  1  1
 30 38  1  0
 34 31  1  1
 31 39  1  0
 35 32  1  6
 32 40  1  0
 41 42  1  0
 41 43  1  0
 15 19  2  0
 16 22  2  0
 12 17  1  6
 17 19  1  0
 17 20  1  0
 18 19  1  0
 18 22  1  0
 18 23  1  0
  9 10  1  0
  9 11  1  0
 10 12  1  0
 11  5  1  6
 33 34  1  0
 33 35  1  0
 34 36  1  0
 35 37  1  0
 36 42  1  1
 20 21  2  0
 21 22  1  0
M  CHG  2   2  -1  26  -1
M  END
>  <COMPND>  (204) 
    8629 

>  <AUTHOR>  (204) 
    GENERATED BY OPEN BABEL 3.1.1

>  <MASTER>  (204) 
        0    0    0    0    0    0    0    0   58    0   58    0

>  <minimizedAffinity>  (204) 
-8.13115

>  <CNNscore>  (204) 
0.8683803678

>  <CNNaffinity>  (204) 
4.6785039902

>  <CNN_VS>  (204) 
4.0627212524

>  <CNNaffinity_variance>  (204) 
0.0516724773

$$$$
205
     RDKit          3D

 43 45  0  0  0  0  0  0  0  0999 V2000
   22.2845   71.8031   -2.4208 P   0  0  2  0  0  0  0  0  0  0  0  0
   23.4383   70.6732   -2.5191 O   0  0  0  0  0  0  0  0  0  0  0  0
   21.5641   71.8605   -1.1058 O   0  0  0  0  0  0  0  0  0  0  0  0
   21.3580   71.5261   -3.7180 O   0  0  0  0  0  0  0  0  0  0  0  0
   20.5051   70.3946   -3.7105 C   0  0  0  0  0  0  0  0  0  0  0  0
   18.6607   71.5293   -4.7519 O   0  0  0  0  0  0  0  0  0  0  0  0
   16.9315   70.2292   -2.6756 O   0  0  0  0  0  0  0  0  0  0  0  0
   16.5032   68.6667   -4.8692 O   0  0  0  0  0  0  0  0  0  0  0  0
   18.0814   69.7131   -3.3441 C   0  0  1  0  0  0  0  0  0  0  0  0
   17.7384   69.3462   -4.7729 C   0  0  2  0  0  0  0  0  0  0  0  0
   19.0657   70.8598   -3.5377 C   0  0  1  0  0  0  0  0  0  0  0  0
   17.7119   70.7061   -5.4497 C   0  0  2  0  0  0  0  0  0  0  0  0
   16.2885   69.5149   -2.5405 H   0  0  0  0  0  0  0  0  0  0  0  0
   16.5711   67.8077   -4.4239 H   0  0  0  0  0  0  0  0  0  0  0  0
   15.9105   70.1911   -7.5634 O   0  0  0  0  0  0  0  0  0  0  0  0
   19.2552   70.4592  -10.7229 O   0  0  0  0  0  0  0  0  0  0  0  0
   18.0848   70.6361   -6.8344 N   0  0  0  0  0  0  0  0  0  0  0  0
   17.5773   70.3252   -9.1349 N   0  0  0  0  0  0  0  0  0  0  0  0
   17.1033   70.3708   -7.8176 C   0  0  0  0  0  0  0  0  0  0  0  0
   19.4109   70.8299   -7.2056 C   0  0  0  0  0  0  0  0  0  0  0  0
   19.8470   70.7819   -8.4660 C   0  0  0  0  0  0  0  0  0  0  0  0
   18.8854   70.5098   -9.5539 C   0  0  0  0  0  0  0  0  0  0  0  0
   16.9115   70.1414   -9.8368 H   0  0  0  0  0  0  0  0  0  0  0  0
   23.0693   73.1594   -2.8177 O   0  0  0  0  0  0  0  0  0  0  0  0
   22.5530   74.6859   -2.9455 P   0  0  2  0  0  0  0  0  0  0  0  0
   23.7798   75.5450   -2.3337 O   0  0  0  0  0  0  0  0  0  0  0  0
   21.2279   74.9443   -2.2888 O   0  0  0  0  0  0  0  0  0  0  0  0
   22.5868   74.9974   -4.5288 O   0  0  0  0  0  0  0  0  0  0  0  0
   20.7506   75.3824   -5.9767 O   0  0  0  0  0  0  0  0  0  0  0  0
   23.3011   73.5092   -8.6294 O   0  0  0  0  0  0  0  0  0  0  0  0
   22.8328   76.3328   -8.8663 O   0  0  0  0  0  0  0  0  0  0  0  0
   23.1571   72.6065   -5.8828 O   0  0  0  0  0  0  0  0  0  0  0  0
   22.9581   74.3544   -7.5279 C   0  0  1  0  0  0  0  0  0  0  0  0
   22.0493   75.4712   -8.0453 C   0  0  1  0  0  0  0  0  0  0  0  0
   22.2386   73.5240   -6.4667 C   0  0  2  0  0  0  0  0  0  0  0  0
   21.4255   76.2597   -6.8858 C   0  0  1  0  0  0  0  0  0  0  0  0
   21.6129   74.4079   -5.3863 C   0  0  1  0  0  0  0  0  0  0  0  0
   23.7587   74.0303   -9.3066 H   0  0  0  0  0  0  0  0  0  0  0  0
   23.2214   75.8225   -9.5942 H   0  0  0  0  0  0  0  0  0  0  0  0
   23.5460   72.0526   -6.5770 H   0  0  0  0  0  0  0  0  0  0  0  0
   19.9068   76.8504   -8.6333 O   0  0  0  0  0  0  0  0  0  0  0  0
   20.3947   77.2752   -7.3740 C   0  0  0  0  0  0  0  0  0  0  0  0
   19.2495   77.4871   -8.9562 H   0  0  0  0  0  0  0  0  0  0  0  0
 25 28  1  0
 25 24  1  0
 25 26  1  1
 25 27  2  0
  1  4  1  0
  1 24  1  0
  1  2  1  1
  1  3  2  0
  6 11  1  0
  6 12  1  0
 29 36  1  0
 29 37  1  0
  9  7  1  1
  7 13  1  0
 10  8  1  1
  8 14  1  0
 37 28  1  6
  4  5  1  0
 33 30  1  6
 30 38  1  0
 34 31  1  6
 31 39  1  0
 35 32  1  1
 32 40  1  0
 41 42  1  0
 41 43  1  0
 15 19  2  0
 16 22  2  0
 12 17  1  6
 17 19  1  0
 17 20  1  0
 18 19  1  0
 18 22  1  0
 18 23  1  0
  9 10  1  0
  9 11  1  0
 10 12  1  0
 11  5  1  6
 33 34  1  0
 33 35  1  0
 34 36  1  0
 35 37  1  0
 36 42  1  6
 20 21  2  0
 21 22  1  0
M  CHG  2   2  -1  26  -1
M  END
>  <COMPND>  (205) 
    8629 

>  <AUTHOR>  (205) 
    GENERATED BY OPEN BABEL 3.1.1

>  <MASTER>  (205) 
        0    0    0    0    0    0    0    0   58    0   58    0

>  <minimizedAffinity>  (205) 
-6.63433

>  <CNNscore>  (205) 
0.8641376495

>  <CNNaffinity>  (205) 
4.6007132530

>  <CNN_VS>  (205) 
3.9756495953

>  <CNNaffinity_variance>  (205) 
0.2546646595

$$$$
206
     RDKit          3D

 43 45  0  0  0  0  0  0  0  0999 V2000
   20.0172   71.8559   -1.8785 P   0  0  2  0  0  0  0  0  0  0  0  0
   20.6687   70.7001   -0.9527 O   0  0  0  0  0  0  0  0  0  0  0  0
   18.7521   72.4592   -1.3427 O   0  0  0  0  0  0  0  0  0  0  0  0
   19.9038   71.1667   -3.3380 O   0  0  0  0  0  0  0  0  0  0  0  0
   19.1022   70.0066   -3.4773 C   0  0  0  0  0  0  0  0  0  0  0  0
   17.5031   71.1895   -4.8254 O   0  0  0  0  0  0  0  0  0  0  0  0
   15.3962   69.6754   -3.3223 O   0  0  0  0  0  0  0  0  0  0  0  0
   15.5502   68.3035   -5.6741 O   0  0  0  0  0  0  0  0  0  0  0  0
   16.6894   69.2446   -3.7433 C   0  0  1  0  0  0  0  0  0  0  0  0
   16.7009   68.9978   -5.2375 C   0  0  2  0  0  0  0  0  0  0  0  0
   17.6440   70.4244   -3.6084 C   0  0  1  0  0  0  0  0  0  0  0  0
   16.7755   70.4112   -5.7897 C   0  0  2  0  0  0  0  0  0  0  0  0
   14.7692   68.9385   -3.3993 H   0  0  0  0  0  0  0  0  0  0  0  0
   15.5486   67.4102   -5.2962 H   0  0  0  0  0  0  0  0  0  0  0  0
   15.4895   70.5947   -8.2977 O   0  0  0  0  0  0  0  0  0  0  0  0
   19.5052   70.6341  -10.5592 O   0  0  0  0  0  0  0  0  0  0  0  0
   17.4606   70.4714   -7.0500 N   0  0  0  0  0  0  0  0  0  0  0  0
   17.4900   70.6144   -9.4217 N   0  0  0  0  0  0  0  0  0  0  0  0
   16.7210   70.5613   -8.2522 C   0  0  0  0  0  0  0  0  0  0  0  0
   18.8504   70.4414   -7.0854 C   0  0  0  0  0  0  0  0  0  0  0  0
   19.5689   70.4916   -8.2091 C   0  0  0  0  0  0  0  0  0  0  0  0
   18.8729   70.5864   -9.5086 C   0  0  0  0  0  0  0  0  0  0  0  0
   16.9963   70.6769  -10.2715 H   0  0  0  0  0  0  0  0  0  0  0  0
   21.2353   72.9023   -2.0645 O   0  0  0  0  0  0  0  0  0  0  0  0
   22.7904   72.6657   -2.4369 P   0  0  2  0  0  0  0  0  0  0  0  0
   22.8448   71.0955   -2.8230 O   0  0  0  0  0  0  0  0  0  0  0  0
   23.7505   73.0714   -1.3564 O   0  0  0  0  0  0  0  0  0  0  0  0
   22.9966   73.4376   -3.8393 O   0  0  0  0  0  0  0  0  0  0  0  0
   21.9445   75.2891   -4.8794 O   0  0  0  0  0  0  0  0  0  0  0  0
   22.2287   72.7733   -8.1415 O   0  0  0  0  0  0  0  0  0  0  0  0
   23.9373   75.0756   -7.9733 O   0  0  0  0  0  0  0  0  0  0  0  0
   21.5997   71.6890   -5.5323 O   0  0  0  0  0  0  0  0  0  0  0  0
   22.6529   73.3615   -6.9088 C   0  0  1  0  0  0  0  0  0  0  0  0
   22.8110   74.8678   -7.1255 C   0  0  1  0  0  0  0  0  0  0  0  0
   21.6041   73.0801   -5.8345 C   0  0  2  0  0  0  0  0  0  0  0  0
   23.0033   75.6021   -5.7918 C   0  0  1  0  0  0  0  0  0  0  0  0
   21.8606   73.8972   -4.5670 C   0  0  1  0  0  0  0  0  0  0  0  0
   22.8905   72.9480   -8.8278 H   0  0  0  0  0  0  0  0  0  0  0  0
   23.8034   74.6063   -8.8117 H   0  0  0  0  0  0  0  0  0  0  0  0
   21.4361   71.1827   -6.3427 H   0  0  0  0  0  0  0  0  0  0  0  0
   23.0052   77.7212   -4.6880 O   0  0  0  0  0  0  0  0  0  0  0  0
   23.0054   77.1189   -5.9692 C   0  0  0  0  0  0  0  0  0  0  0  0
   23.0068   78.6868   -4.7853 H   0  0  0  0  0  0  0  0  0  0  0  0
 25 28  1  0
 25 24  1  0
 25 26  1  6
 25 27  2  0
  1  4  1  0
  1 24  1  0
  1  2  1  1
  1  3  2  0
  6 11  1  0
  6 12  1  0
 29 36  1  0
 29 37  1  0
  9  7  1  6
  7 13  1  0
 10  8  1  6
  8 14  1  0
 37 28  1  6
  4  5  1  0
 33 30  1  6
 30 38  1  0
 34 31  1  6
 31 39  1  0
 35 32  1  1
 32 40  1  0
 41 42  1  0
 41 43  1  0
 15 19  2  0
 16 22  2  0
 12 17  1  6
 17 19  1  0
 17 20  1  0
 18 19  1  0
 18 22  1  0
 18 23  1  0
  9 10  1  0
  9 11  1  0
 10 12  1  0
 11  5  1  6
 33 34  1  0
 33 35  1  0
 34 36  1  0
 35 37  1  0
 36 42  1  6
 20 21  2  0
 21 22  1  0
M  CHG  2   2  -1  26  -1
M  END
>  <COMPND>  (206) 
    8629 

>  <AUTHOR>  (206) 
    GENERATED BY OPEN BABEL 3.1.1

>  <MASTER>  (206) 
        0    0    0    0    0    0    0    0   58    0   58    0

>  <minimizedAffinity>  (206) 
-7.08050

>  <CNNscore>  (206) 
0.8396857977

>  <CNNaffinity>  (206) 
4.6268324852

>  <CNN_VS>  (206) 
3.8850855827

>  <CNNaffinity_variance>  (206) 
0.4288639128

$$$$
207
     RDKit          3D

 43 45  0  0  0  0  0  0  0  0999 V2000
   23.0657   72.1772   -3.3360 P   0  0  2  0  0  0  0  0  0  0  0  0
   24.1301   72.5164   -4.5063 O   0  0  0  0  0  0  0  0  0  0  0  0
   23.4941   71.1013   -2.3820 O   0  0  0  0  0  0  0  0  0  0  0  0
   21.6860   71.8998   -4.1344 O   0  0  0  0  0  0  0  0  0  0  0  0
   20.9139   70.7668   -3.7766 C   0  0  0  0  0  0  0  0  0  0  0  0
   18.9691   71.8003   -4.7376 O   0  0  0  0  0  0  0  0  0  0  0  0
   17.4288   70.5686   -2.4790 O   0  0  0  0  0  0  0  0  0  0  0  0
   16.8899   68.8838   -4.5545 O   0  0  0  0  0  0  0  0  0  0  0  0
   18.5423   70.0465   -3.2021 C   0  0  1  0  0  0  0  0  0  0  0  0
   18.1093   69.5973   -4.5821 C   0  0  2  0  0  0  0  0  0  0  0  0
   19.4779   71.2052   -3.5238 C   0  0  1  0  0  0  0  0  0  0  0  0
   17.9966   70.9190   -5.3227 C   0  0  2  0  0  0  0  0  0  0  0  0
   16.8173   69.8468   -2.2620 H   0  0  0  0  0  0  0  0  0  0  0  0
   17.0133   68.0511   -4.0727 H   0  0  0  0  0  0  0  0  0  0  0  0
   16.0797   70.1849   -7.2629 O   0  0  0  0  0  0  0  0  0  0  0  0
   19.1675   70.4386  -10.6751 O   0  0  0  0  0  0  0  0  0  0  0  0
   18.2722   70.7860   -6.7255 N   0  0  0  0  0  0  0  0  0  0  0  0
   17.6187   70.3120   -8.9604 N   0  0  0  0  0  0  0  0  0  0  0  0
   17.2390   70.4114   -7.6158 C   0  0  0  0  0  0  0  0  0  0  0  0
   19.5550   71.0265   -7.2055 C   0  0  0  0  0  0  0  0  0  0  0  0
   19.9011   70.9261   -8.4906 C   0  0  0  0  0  0  0  0  0  0  0  0
   18.8806   70.5395   -9.4862 C   0  0  0  0  0  0  0  0  0  0  0  0
   16.9155   70.0519   -9.5989 H   0  0  0  0  0  0  0  0  0  0  0  0
   22.8060   73.6187   -2.6520 O   0  0  0  0  0  0  0  0  0  0  0  0
   23.7724   74.5612   -1.7628 P   0  0  2  0  0  0  0  0  0  0  0  0
   22.8029   75.7813   -1.3280 O   0  0  0  0  0  0  0  0  0  0  0  0
   25.0295   74.9886   -2.4634 O   0  0  0  0  0  0  0  0  0  0  0  0
   24.0153   73.7286   -0.4016 O   0  0  0  0  0  0  0  0  0  0  0  0
   21.8151   73.7057    0.4788 O   0  0  0  0  0  0  0  0  0  0  0  0
   23.6162   71.1084    3.1361 O   0  0  0  0  0  0  0  0  0  0  0  0
   21.7970   70.0837    1.1642 O   0  0  0  0  0  0  0  0  0  0  0  0
   25.0575   73.4326    2.1870 O   0  0  0  0  0  0  0  0  0  0  0  0
   23.3916   71.7231    1.8645 C   0  0  1  0  0  0  0  0  0  0  0  0
   21.9380   71.4704    1.4597 C   0  0  1  0  0  0  0  0  0  0  0  0
   23.6651   73.2216    1.9791 C   0  0  2  0  0  0  0  0  0  0  0  0
   21.5464   72.3187    0.2423 C   0  0  1  0  0  0  0  0  0  0  0  0
   23.1940   73.9785    0.7360 C   0  0  1  0  0  0  0  0  0  0  0  0
   23.4448   70.1567    3.0701 H   0  0  0  0  0  0  0  0  0  0  0  0
   22.0478   69.5592    1.9409 H   0  0  0  0  0  0  0  0  0  0  0  0
   25.3433   72.9486    2.9769 H   0  0  0  0  0  0  0  0  0  0  0  0
   19.5353   73.5038   -0.2675 O   0  0  0  0  0  0  0  0  0  0  0  0
   20.0587   72.2015   -0.0818 C   0  0  0  0  0  0  0  0  0  0  0  0
   18.5891   73.4447   -0.4748 H   0  0  0  0  0  0  0  0  0  0  0  0
 25 28  1  0
 25 24  1  0
 25 26  1  1
 25 27  2  0
  1  4  1  0
  1 24  1  0
  1  2  1  6
  1  3  2  0
  6 11  1  0
  6 12  1  0
 29 36  1  0
 29 37  1  0
  9  7  1  1
  7 13  1  0
 10  8  1  1
  8 14  1  0
 37 28  1  6
  4  5  1  0
 33 30  1  1
 30 38  1  0
 34 31  1  6
 31 39  1  0
 35 32  1  6
 32 40  1  0
 41 42  1  0
 41 43  1  0
 15 19  2  0
 16 22  2  0
 12 17  1  6
 17 19  1  0
 17 20  1  0
 18 19  1  0
 18 22  1  0
 18 23  1  0
  9 10  1  0
  9 11  1  0
 10 12  1  0
 11  5  1  6
 33 34  1  0
 33 35  1  0
 34 36  1  0
 35 37  1  0
 36 42  1  1
 20 21  2  0
 21 22  1  0
M  CHG  2   2  -1  26  -1
M  END
>  <COMPND>  (207) 
    8629 

>  <AUTHOR>  (207) 
    GENERATED BY OPEN BABEL 3.1.1

>  <MASTER>  (207) 
        0    0    0    0    0    0    0    0   58    0   58    0

>  <minimizedAffinity>  (207) 
-7.49381

>  <CNNscore>  (207) 
0.8026088476

>  <CNNaffinity>  (207) 
4.5748162270

>  <CNN_VS>  (207) 
3.6717879772

>  <CNNaffinity_variance>  (207) 
0.0364274718

$$$$
208
     RDKit          3D

 43 45  0  0  0  0  0  0  0  0999 V2000
   23.0253   72.6771   -4.3462 P   0  0  2  0  0  0  0  0  0  0  0  0
   23.2164   72.8220   -5.9462 O   0  0  0  0  0  0  0  0  0  0  0  0
   23.8817   71.6293   -3.6980 O   0  0  0  0  0  0  0  0  0  0  0  0
   21.4286   72.4928   -4.1609 O   0  0  0  0  0  0  0  0  0  0  0  0
   20.9480   71.2826   -3.6021 C   0  0  0  0  0  0  0  0  0  0  0  0
   18.8085   71.8867   -4.5140 O   0  0  0  0  0  0  0  0  0  0  0  0
   17.6124   70.4106   -2.1943 O   0  0  0  0  0  0  0  0  0  0  0  0
   17.3659   68.6153   -4.2321 O   0  0  0  0  0  0  0  0  0  0  0  0
   18.7874   70.1104   -2.9456 C   0  0  1  0  0  0  0  0  0  0  0  0
   18.4151   69.5589   -4.3060 C   0  0  2  0  0  0  0  0  0  0  0  0
   19.4608   71.4277   -3.3098 C   0  0  1  0  0  0  0  0  0  0  0  0
   18.0175   70.8176   -5.0582 C   0  0  2  0  0  0  0  0  0  0  0  0
   17.1652   69.5846   -1.9499 H   0  0  0  0  0  0  0  0  0  0  0  0
   17.6680   67.8331   -3.7447 H   0  0  0  0  0  0  0  0  0  0  0  0
   16.2110   69.7289   -6.9368 O   0  0  0  0  0  0  0  0  0  0  0  0
   19.1111   70.4850  -10.4380 O   0  0  0  0  0  0  0  0  0  0  0  0
   18.2746   70.7179   -6.4672 N   0  0  0  0  0  0  0  0  0  0  0  0
   17.6564   70.1064   -8.6786 N   0  0  0  0  0  0  0  0  0  0  0  0
   17.3013   70.1537   -7.3245 C   0  0  0  0  0  0  0  0  0  0  0  0
   19.4805   71.1768   -6.9858 C   0  0  0  0  0  0  0  0  0  0  0  0
   19.8043   71.1233   -8.2794 C   0  0  0  0  0  0  0  0  0  0  0  0
   18.8429   70.5484   -9.2423 C   0  0  0  0  0  0  0  0  0  0  0  0
   16.9940   69.7171   -9.2946 H   0  0  0  0  0  0  0  0  0  0  0  0
   23.2820   74.1809   -3.8118 O   0  0  0  0  0  0  0  0  0  0  0  0
   23.3179   74.7829   -2.3121 P   0  0  2  0  0  0  0  0  0  0  0  0
   22.1314   75.8826   -2.3251 O   0  0  0  0  0  0  0  0  0  0  0  0
   24.6565   75.3210   -1.8969 O   0  0  0  0  0  0  0  0  0  0  0  0
   22.7581   73.5903   -1.3797 O   0  0  0  0  0  0  0  0  0  0  0  0
   23.4043   73.9239    0.8759 O   0  0  0  0  0  0  0  0  0  0  0  0
   21.7953   70.1352    1.2041 O   0  0  0  0  0  0  0  0  0  0  0  0
   20.3730   72.3791    2.2948 O   0  0  0  0  0  0  0  0  0  0  0  0
   23.3312   70.8535   -1.1422 O   0  0  0  0  0  0  0  0  0  0  0  0
   21.8983   71.4674    0.6940 C   0  0  1  0  0  0  0  0  0  0  0  0
   21.7287   72.4422    1.8609 C   0  0  1  0  0  0  0  0  0  0  0  0
   23.2663   71.6464    0.0383 C   0  0  2  0  0  0  0  0  0  0  0  0
   22.0902   73.8741    1.4436 C   0  0  1  0  0  0  0  0  0  0  0  0
   23.5465   73.1135   -0.2924 C   0  0  1  0  0  0  0  0  0  0  0  0
   20.9287   70.0148    1.6213 H   0  0  0  0  0  0  0  0  0  0  0  0
   20.1574   71.4697    2.5550 H   0  0  0  0  0  0  0  0  0  0  0  0
   23.1524   69.9270   -0.9194 H   0  0  0  0  0  0  0  0  0  0  0  0
   22.1581   74.0773    3.8233 O   0  0  0  0  0  0  0  0  0  0  0  0
   22.0801   74.8354    2.6302 C   0  0  0  0  0  0  0  0  0  0  0  0
   22.1530   74.6761    4.5870 H   0  0  0  0  0  0  0  0  0  0  0  0
 25 28  1  0
 25 24  1  0
 25 26  1  6
 25 27  2  0
  1  4  1  0
  1 24  1  0
  1  2  1  6
  1  3  2  0
  6 11  1  0
  6 12  1  0
 29 36  1  0
 29 37  1  0
  9  7  1  1
  7 13  1  0
 10  8  1  1
  8 14  1  0
 37 28  1  6
  4  5  1  0
 33 30  1  1
 30 38  1  0
 34 31  1  6
 31 39  1  0
 35 32  1  6
 32 40  1  0
 41 42  1  0
 41 43  1  0
 15 19  2  0
 16 22  2  0
 12 17  1  6
 17 19  1  0
 17 20  1  0
 18 19  1  0
 18 22  1  0
 18 23  1  0
  9 10  1  0
  9 11  1  0
 10 12  1  0
 11  5  1  6
 33 34  1  0
 33 35  1  0
 34 36  1  0
 35 37  1  0
 36 42  1  1
 20 21  2  0
 21 22  1  0
M  CHG  2   2  -1  26  -1
M  END
>  <COMPND>  (208) 
    8629 

>  <AUTHOR>  (208) 
    GENERATED BY OPEN BABEL 3.1.1

>  <MASTER>  (208) 
        0    0    0    0    0    0    0    0   58    0   58    0

>  <minimizedAffinity>  (208) 
-7.39871

>  <CNNscore>  (208) 
0.7672433853

>  <CNNaffinity>  (208) 
4.5922923088

>  <CNN_VS>  (208) 
3.5234057903

>  <CNNaffinity_variance>  (208) 
0.0520550385

$$$$
209
     RDKit          3D

 43 45  0  0  0  0  0  0  0  0999 V2000
   21.6397   72.5276   -5.5612 P   0  0  2  0  0  0  0  0  0  0  0  0
   20.9647   73.9441   -5.9554 O   0  0  0  0  0  0  0  0  0  0  0  0
   23.1308   72.4705   -5.7187 O   0  0  0  0  0  0  0  0  0  0  0  0
   20.8004   71.4445   -6.4216 O   0  0  0  0  0  0  0  0  0  0  0  0
   20.2343   71.8528   -7.6547 C   0  0  0  0  0  0  0  0  0  0  0  0
   18.9899   69.8424   -7.2262 O   0  0  0  0  0  0  0  0  0  0  0  0
   18.0716   70.0265  -10.0746 O   0  0  0  0  0  0  0  0  0  0  0  0
   15.9295   70.9991   -8.6955 O   0  0  0  0  0  0  0  0  0  0  0  0
   18.3192   71.0730   -9.1371 C   0  0  1  0  0  0  0  0  0  0  0  0
   17.2084   71.1320   -8.1094 C   0  0  2  0  0  0  0  0  0  0  0  0
   19.5174   70.6680   -8.2876 C   0  0  1  0  0  0  0  0  0  0  0  0
   17.5586   69.9666   -7.1998 C   0  0  2  0  0  0  0  0  0  0  0  0
   17.3106   70.2626  -10.6289 H   0  0  0  0  0  0  0  0  0  0  0  0
   15.7535   71.7645   -9.2647 H   0  0  0  0  0  0  0  0  0  0  0  0
   15.9989   68.1455   -5.7068 O   0  0  0  0  0  0  0  0  0  0  0  0
   15.9884   70.9005   -2.0121 O   0  0  0  0  0  0  0  0  0  0  0  0
   17.1342   70.1824   -5.8452 N   0  0  0  0  0  0  0  0  0  0  0  0
   15.9951   69.5187   -3.8683 N   0  0  0  0  0  0  0  0  0  0  0  0
   16.3525   69.2053   -5.1859 C   0  0  0  0  0  0  0  0  0  0  0  0
   17.4933   71.3522   -5.1845 C   0  0  0  0  0  0  0  0  0  0  0  0
   17.1433   71.6365   -3.9284 C   0  0  0  0  0  0  0  0  0  0  0  0
   16.3264   70.6682   -3.1687 C   0  0  0  0  0  0  0  0  0  0  0  0
   15.4502   68.8528   -3.3892 H   0  0  0  0  0  0  0  0  0  0  0  0
   21.1126   72.2810   -4.0531 O   0  0  0  0  0  0  0  0  0  0  0  0
   21.2585   71.0037   -3.0732 P   0  0  2  0  0  0  0  0  0  0  0  0
   22.8543   70.7386   -3.0442 O   0  0  0  0  0  0  0  0  0  0  0  0
   20.4407   69.8145   -3.4865 O   0  0  0  0  0  0  0  0  0  0  0  0
   20.9134   71.5748   -1.6036 O   0  0  0  0  0  0  0  0  0  0  0  0
   22.2182   73.3863   -0.8085 O   0  0  0  0  0  0  0  0  0  0  0  0
   20.6187   72.1024    2.7753 O   0  0  0  0  0  0  0  0  0  0  0  0
   19.6859   74.5527    1.6031 O   0  0  0  0  0  0  0  0  0  0  0  0
   21.4124   70.1684    0.7730 O   0  0  0  0  0  0  0  0  0  0  0  0
   20.6220   72.3641    1.3693 C   0  0  1  0  0  0  0  0  0  0  0  0
   20.8513   73.8624    1.1609 C   0  0  1  0  0  0  0  0  0  0  0  0
   21.7378   71.5530    0.7132 C   0  0  2  0  0  0  0  0  0  0  0  0
   21.1331   74.1798   -0.3139 C   0  0  1  0  0  0  0  0  0  0  0  0
   21.9694   71.9810   -0.7370 C   0  0  1  0  0  0  0  0  0  0  0  0
   19.9121   72.6140    3.1978 H   0  0  0  0  0  0  0  0  0  0  0  0
   19.5189   74.3433    2.5356 H   0  0  0  0  0  0  0  0  0  0  0  0
   21.2685   69.9098    1.6962 H   0  0  0  0  0  0  0  0  0  0  0  0
   20.3356   76.4159   -0.5834 O   0  0  0  0  0  0  0  0  0  0  0  0
   21.5198   75.6426   -0.5203 C   0  0  0  0  0  0  0  0  0  0  0  0
   20.5663   77.3494   -0.7142 H   0  0  0  0  0  0  0  0  0  0  0  0
 25 28  1  0
 25 24  1  0
 25 26  1  1
 25 27  2  0
  1  4  1  0
  1 24  1  0
  1  2  1  6
  1  3  2  0
  6 11  1  0
  6 12  1  0
 29 36  1  0
 29 37  1  0
  9  7  1  6
  7 13  1  0
 10  8  1  6
  8 14  1  0
 37 28  1  6
  4  5  1  0
 33 30  1  1
 30 38  1  0
 34 31  1  6
 31 39  1  0
 35 32  1  6
 32 40  1  0
 41 42  1  0
 41 43  1  0
 15 19  2  0
 16 22  2  0
 12 17  1  1
 17 19  1  0
 17 20  1  0
 18 19  1  0
 18 22  1  0
 18 23  1  0
  9 10  1  0
  9 11  1  0
 10 12  1  0
 11  5  1  1
 33 34  1  0
 33 35  1  0
 34 36  1  0
 35 37  1  0
 36 42  1  1
 20 21  2  0
 21 22  1  0
M  CHG  2   2  -1  26  -1
M  END
>  <COMPND>  (209) 
    8629 

>  <AUTHOR>  (209) 
    GENERATED BY OPEN BABEL 3.1.1

>  <MASTER>  (209) 
        0    0    0    0    0    0    0    0   58    0   58    0

>  <minimizedAffinity>  (209) 
-7.49835

>  <CNNscore>  (209) 
0.7498120070

>  <CNNaffinity>  (209) 
4.5830702782

>  <CNN_VS>  (209) 
3.4364411831

>  <CNNaffinity_variance>  (209) 
0.1057694405

$$$$
210
     RDKit          3D

 43 45  0  0  0  0  0  0  0  0999 V2000
   20.6486   71.2983   -1.4095 P   0  0  2  0  0  0  0  0  0  0  0  0
   21.3319   70.5980   -0.1211 O   0  0  0  0  0  0  0  0  0  0  0  0
   20.2283   72.7245   -1.2072 O   0  0  0  0  0  0  0  0  0  0  0  0
   19.4711   70.2718   -1.8307 O   0  0  0  0  0  0  0  0  0  0  0  0
   19.4761   69.7392   -3.1438 C   0  0  0  0  0  0  0  0  0  0  0  0
   17.2162   69.4693   -2.3730 O   0  0  0  0  0  0  0  0  0  0  0  0
   16.5924   68.4740   -5.1318 O   0  0  0  0  0  0  0  0  0  0  0  0
   15.6838   71.0441   -5.2075 O   0  0  0  0  0  0  0  0  0  0  0  0
   17.4980   69.4988   -4.7257 C   0  0  1  0  0  0  0  0  0  0  0  0
   16.7359   70.7412   -4.3142 C   0  0  2  0  0  0  0  0  0  0  0  0
   18.1363   69.0672   -3.4114 C   0  0  1  0  0  0  0  0  0  0  0  0
   16.2369   70.3608   -2.9306 C   0  0  2  0  0  0  0  0  0  0  0  0
   16.1725   68.7271   -5.9695 H   0  0  0  0  0  0  0  0  0  0  0  0
   16.0522   71.2798   -6.0732 H   0  0  0  0  0  0  0  0  0  0  0  0
   14.4014   70.5235   -0.7899 O   0  0  0  0  0  0  0  0  0  0  0  0
   15.7873   74.7776    0.3158 O   0  0  0  0  0  0  0  0  0  0  0  0
   16.0970   71.4990   -2.0667 N   0  0  0  0  0  0  0  0  0  0  0  0
   15.0931   72.6415   -0.2410 N   0  0  0  0  0  0  0  0  0  0  0  0
   15.1442   71.4796   -1.0216 C   0  0  0  0  0  0  0  0  0  0  0  0
   16.8996   72.6182   -2.2597 C   0  0  0  0  0  0  0  0  0  0  0  0
   16.8376   73.7188   -1.5072 C   0  0  0  0  0  0  0  0  0  0  0  0
   15.8685   73.7799   -0.3940 C   0  0  0  0  0  0  0  0  0  0  0  0
   14.4364   72.6509    0.4928 H   0  0  0  0  0  0  0  0  0  0  0  0
   21.7528   71.0806   -2.5699 O   0  0  0  0  0  0  0  0  0  0  0  0
   23.1567   71.8299   -2.8533 P   0  0  2  0  0  0  0  0  0  0  0  0
   24.2268   70.6166   -2.8764 O   0  0  0  0  0  0  0  0  0  0  0  0
   23.4798   72.9220   -1.8752 O   0  0  0  0  0  0  0  0  0  0  0  0
   23.0578   72.3154   -4.3894 O   0  0  0  0  0  0  0  0  0  0  0  0
   22.2544   74.4297   -5.0969 O   0  0  0  0  0  0  0  0  0  0  0  0
   21.2528   72.1966   -8.4227 O   0  0  0  0  0  0  0  0  0  0  0  0
   23.4339   74.0592   -8.5697 O   0  0  0  0  0  0  0  0  0  0  0  0
   20.9705   71.0543   -5.7779 O   0  0  0  0  0  0  0  0  0  0  0  0
   22.0541   72.5744   -7.3000 C   0  0  1  0  0  0  0  0  0  0  0  0
   22.4992   74.0251   -7.4948 C   0  0  1  0  0  0  0  0  0  0  0  0
   21.2250   72.4330   -6.0248 C   0  0  2  0  0  0  0  0  0  0  0  0
   23.1351   74.5861   -6.2157 C   0  0  1  0  0  0  0  0  0  0  0  0
   21.9264   73.0664   -4.8219 C   0  0  1  0  0  0  0  0  0  0  0  0
   21.7735   72.2837   -9.2356 H   0  0  0  0  0  0  0  0  0  0  0  0
   23.0200   73.7019   -9.3712 H   0  0  0  0  0  0  0  0  0  0  0  0
   20.5261   70.6650   -6.5465 H   0  0  0  0  0  0  0  0  0  0  0  0
   24.8018   76.2272   -6.7033 O   0  0  0  0  0  0  0  0  0  0  0  0
   23.4427   76.0770   -6.3364 C   0  0  0  0  0  0  0  0  0  0  0  0
   25.0118   77.1712   -6.7841 H   0  0  0  0  0  0  0  0  0  0  0  0
 25 28  1  0
 25 24  1  0
 25 26  1  6
 25 27  2  0
  1  4  1  0
  1 24  1  0
  1  2  1  1
  1  3  2  0
  6 11  1  0
  6 12  1  0
 29 36  1  0
 29 37  1  0
  9  7  1  1
  7 13  1  0
 10  8  1  6
  8 14  1  0
 37 28  1  6
  4  5  1  0
 33 30  1  6
 30 38  1  0
 34 31  1  6
 31 39  1  0
 35 32  1  1
 32 40  1  0
 41 42  1  0
 41 43  1  0
 15 19  2  0
 16 22  2  0
 12 17  1  1
 17 19  1  0
 17 20  1  0
 18 19  1  0
 18 22  1  0
 18 23  1  0
  9 10  1  0
  9 11  1  0
 10 12  1  0
 11  5  1  1
 33 34  1  0
 33 35  1  0
 34 36  1  0
 35 37  1  0
 36 42  1  6
 20 21  2  0
 21 22  1  0
M  CHG  2   2  -1  26  -1
M  END
>  <COMPND>  (210) 
    8629 

>  <AUTHOR>  (210) 
    GENERATED BY OPEN BABEL 3.1.1

>  <MASTER>  (210) 
        0    0    0    0    0    0    0    0   58    0   58    0

>  <minimizedAffinity>  (210) 
-6.46335

>  <CNNscore>  (210) 
0.7091078758

>  <CNNaffinity>  (210) 
4.0954179764

>  <CNN_VS>  (210) 
2.9040930271

>  <CNNaffinity_variance>  (210) 
0.2745628953

$$$$
211
     RDKit          3D

 43 45  0  0  0  0  0  0  0  0999 V2000
   21.8463   72.5696   -5.6661 P   0  0  2  0  0  0  0  0  0  0  0  0
   21.2073   74.0370   -5.4299 O   0  0  0  0  0  0  0  0  0  0  0  0
   23.1160   72.5524   -6.4655 O   0  0  0  0  0  0  0  0  0  0  0  0
   20.6210   71.7057   -6.2747 O   0  0  0  0  0  0  0  0  0  0  0  0
   20.1031   72.0676   -7.5430 C   0  0  0  0  0  0  0  0  0  0  0  0
   18.9396   70.0042   -7.1403 O   0  0  0  0  0  0  0  0  0  0  0  0
   18.1403   70.1083  -10.0284 O   0  0  0  0  0  0  0  0  0  0  0  0
   15.8948   70.9918   -8.7580 O   0  0  0  0  0  0  0  0  0  0  0  0
   18.2954   71.1770   -9.0961 C   0  0  1  0  0  0  0  0  0  0  0  0
   17.1387   71.1942   -8.1187 C   0  0  2  0  0  0  0  0  0  0  0  0
   19.4730   70.8415   -8.1895 C   0  0  1  0  0  0  0  0  0  0  0  0
   17.5042   70.0585   -7.1781 C   0  0  2  0  0  0  0  0  0  0  0  0
   17.3941   70.3001  -10.6187 H   0  0  0  0  0  0  0  0  0  0  0  0
   15.7074   71.7406   -9.3453 H   0  0  0  0  0  0  0  0  0  0  0  0
   16.2466   68.0750   -5.6089 O   0  0  0  0  0  0  0  0  0  0  0  0
   15.6485   70.9832   -2.0839 O   0  0  0  0  0  0  0  0  0  0  0  0
   17.0104   70.2698   -5.8466 N   0  0  0  0  0  0  0  0  0  0  0  0
   15.9500   69.5246   -3.8549 N   0  0  0  0  0  0  0  0  0  0  0  0
   16.3939   69.2076   -5.1451 C   0  0  0  0  0  0  0  0  0  0  0  0
   17.1399   71.5191   -5.2496 C   0  0  0  0  0  0  0  0  0  0  0  0
   16.7101   71.8055   -4.0189 C   0  0  0  0  0  0  0  0  0  0  0  0
   16.0546   70.7512   -3.2184 C   0  0  0  0  0  0  0  0  0  0  0  0
   15.5169   68.8002   -3.3475 H   0  0  0  0  0  0  0  0  0  0  0  0
   21.9890   71.9893   -4.1641 O   0  0  0  0  0  0  0  0  0  0  0  0
   23.2165   72.0518   -3.1142 P   0  0  2  0  0  0  0  0  0  0  0  0
   23.8954   73.4878   -3.4220 O   0  0  0  0  0  0  0  0  0  0  0  0
   24.1614   70.8885   -3.2022 O   0  0  0  0  0  0  0  0  0  0  0  0
   22.5126   72.2343   -1.6732 O   0  0  0  0  0  0  0  0  0  0  0  0
   23.4017   70.6420   -0.1597 O   0  0  0  0  0  0  0  0  0  0  0  0
   20.4346   72.2372    2.2283 O   0  0  0  0  0  0  0  0  0  0  0  0
   23.1842   72.8574    2.7786 O   0  0  0  0  0  0  0  0  0  0  0  0
   19.9523   71.8320   -0.5971 O   0  0  0  0  0  0  0  0  0  0  0  0
   21.4596   72.2635    1.2313 C   0  0  1  0  0  0  0  0  0  0  0  0
   22.7736   71.8281    1.8829 C   0  0  1  0  0  0  0  0  0  0  0  0
   21.0794   71.3111    0.0992 C   0  0  2  0  0  0  0  0  0  0  0  0
   23.8581   71.5745    0.8272 C   0  0  1  0  0  0  0  0  0  0  0  0
   22.2440   71.0896   -0.8677 C   0  0  1  0  0  0  0  0  0  0  0  0
   20.6696   72.8402    2.9498 H   0  0  0  0  0  0  0  0  0  0  0  0
   22.4905   73.0081    3.4398 H   0  0  0  0  0  0  0  0  0  0  0  0
   19.2219   71.9675    0.0258 H   0  0  0  0  0  0  0  0  0  0  0  0
   24.7686   70.2390    2.5869 O   0  0  0  0  0  0  0  0  0  0  0  0
   25.1279   70.9886    1.4409 C   0  0  0  0  0  0  0  0  0  0  0  0
   25.5668   69.8599    2.9878 H   0  0  0  0  0  0  0  0  0  0  0  0
 25 28  1  0
 25 24  1  0
 25 26  1  6
 25 27  2  0
  1  4  1  0
  1 24  1  0
  1  2  1  1
  1  3  2  0
  6 11  1  0
  6 12  1  0
 29 36  1  0
 29 37  1  0
  9  7  1  6
  7 13  1  0
 10  8  1  6
  8 14  1  0
 37 28  1  1
  4  5  1  0
 33 30  1  1
 30 38  1  0
 34 31  1  1
 31 39  1  0
 35 32  1  6
 32 40  1  0
 41 42  1  0
 41 43  1  0
 15 19  2  0
 16 22  2  0
 12 17  1  1
 17 19  1  0
 17 20  1  0
 18 19  1  0
 18 22  1  0
 18 23  1  0
  9 10  1  0
  9 11  1  0
 10 12  1  0
 11  5  1  1
 33 34  1  0
 33 35  1  0
 34 36  1  0
 35 37  1  0
 36 42  1  1
 20 21  2  0
 21 22  1  0
M  CHG  2   2  -1  26  -1
M  END
>  <COMPND>  (211) 
    8629 

>  <AUTHOR>  (211) 
    GENERATED BY OPEN BABEL 3.1.1

>  <MASTER>  (211) 
        0    0    0    0    0    0    0    0   58    0   58    0

>  <minimizedAffinity>  (211) 
-8.33121

>  <CNNscore>  (211) 
0.7052164674

>  <CNNaffinity>  (211) 
4.4723377228

>  <CNN_VS>  (211) 
3.1539661884

>  <CNNaffinity_variance>  (211) 
0.2493352145

$$$$
212
     RDKit          3D

 43 45  0  0  0  0  0  0  0  0999 V2000
   22.0863   73.1785   -6.6397 P   0  0  2  0  0  0  0  0  0  0  0  0
   23.1726   72.2597   -5.8694 O   0  0  0  0  0  0  0  0  0  0  0  0
   21.2441   74.0447   -5.7499 O   0  0  0  0  0  0  0  0  0  0  0  0
   21.2777   72.1283   -7.5677 O   0  0  0  0  0  0  0  0  0  0  0  0
   19.8630   72.2029   -7.5982 C   0  0  0  0  0  0  0  0  0  0  0  0
   18.8000   70.1012   -7.1219 O   0  0  0  0  0  0  0  0  0  0  0  0
   18.0585   70.0312  -10.0264 O   0  0  0  0  0  0  0  0  0  0  0  0
   15.7434   70.8515   -8.8415 O   0  0  0  0  0  0  0  0  0  0  0  0
   18.1378   71.1480   -9.1421 C   0  0  1  0  0  0  0  0  0  0  0  0
   16.9611   71.1484   -8.1888 C   0  0  2  0  0  0  0  0  0  0  0  0
   19.3115   70.9170   -8.1986 C   0  0  1  0  0  0  0  0  0  0  0  0
   17.3649   70.0777   -7.1894 C   0  0  2  0  0  0  0  0  0  0  0  0
   17.3162   70.1561  -10.6390 H   0  0  0  0  0  0  0  0  0  0  0  0
   15.5299   71.5618   -9.4665 H   0  0  0  0  0  0  0  0  0  0  0  0
   16.5614   68.0551   -5.3891 O   0  0  0  0  0  0  0  0  0  0  0  0
   15.3348   71.1363   -2.1886 O   0  0  0  0  0  0  0  0  0  0  0  0
   16.8323   70.3231   -5.8788 N   0  0  0  0  0  0  0  0  0  0  0  0
   15.9515   69.5909   -3.7969 N   0  0  0  0  0  0  0  0  0  0  0  0
   16.4582   69.2369   -5.0538 C   0  0  0  0  0  0  0  0  0  0  0  0
   16.6859   71.6289   -5.4236 C   0  0  0  0  0  0  0  0  0  0  0  0
   16.1999   71.9497   -4.2227 C   0  0  0  0  0  0  0  0  0  0  0  0
   15.7856   70.8737   -3.2994 C   0  0  0  0  0  0  0  0  0  0  0  0
   15.6839   68.8507   -3.2051 H   0  0  0  0  0  0  0  0  0  0  0  0
   22.9884   73.9885   -7.7089 O   0  0  0  0  0  0  0  0  0  0  0  0
   23.2537   75.5728   -7.8897 P   0  0  2  0  0  0  0  0  0  0  0  0
   24.3524   75.8977   -6.7475 O   0  0  0  0  0  0  0  0  0  0  0  0
   22.0143   76.4167   -7.8148 O   0  0  0  0  0  0  0  0  0  0  0  0
   24.0632   75.6952   -9.2807 O   0  0  0  0  0  0  0  0  0  0  0  0
   24.5664   74.0815  -10.9418 O   0  0  0  0  0  0  0  0  0  0  0  0
   28.1071   76.2057  -10.9913 O   0  0  0  0  0  0  0  0  0  0  0  0
   26.2666   76.4661  -13.1805 O   0  0  0  0  0  0  0  0  0  0  0  0
   26.7529   75.7146   -8.4804 O   0  0  0  0  0  0  0  0  0  0  0  0
   26.6928   76.0331  -10.8671 C   0  0  1  0  0  0  0  0  0  0  0  0
   26.1630   75.4558  -12.1811 C   0  0  1  0  0  0  0  0  0  0  0  0
   26.4060   75.0813   -9.7073 C   0  0  2  0  0  0  0  0  0  0  0  0
   24.7064   74.9949  -12.0363 C   0  0  1  0  0  0  0  0  0  0  0  0
   24.9397   74.6460   -9.6832 C   0  0  1  0  0  0  0  0  0  0  0  0
   28.2960   76.8093  -11.7257 H   0  0  0  0  0  0  0  0  0  0  0  0
   27.1911   76.7487  -13.2616 H   0  0  0  0  0  0  0  0  0  0  0  0
   27.6834   75.9851   -8.5081 H   0  0  0  0  0  0  0  0  0  0  0  0
   25.3212   73.9818  -14.1110 O   0  0  0  0  0  0  0  0  0  0  0  0
   24.2079   74.2729  -13.2862 C   0  0  0  0  0  0  0  0  0  0  0  0
   25.0191   73.5218  -14.9104 H   0  0  0  0  0  0  0  0  0  0  0  0
 25 28  1  0
 25 24  1  0
 25 26  1  1
 25 27  2  0
  1  4  1  0
  1 24  1  0
  1  2  1  1
  1  3  2  0
  6 11  1  0
  6 12  1  0
 29 36  1  0
 29 37  1  0
  9  7  1  6
  7 13  1  0
 10  8  1  6
  8 14  1  0
 37 28  1  6
  4  5  1  0
 33 30  1  6
 30 38  1  0
 34 31  1  6
 31 39  1  0
 35 32  1  1
 32 40  1  0
 41 42  1  0
 41 43  1  0
 15 19  2  0
 16 22  2  0
 12 17  1  1
 17 19  1  0
 17 20  1  0
 18 19  1  0
 18 22  1  0
 18 23  1  0
  9 10  1  0
  9 11  1  0
 10 12  1  0
 11  5  1  1
 33 34  1  0
 33 35  1  0
 34 36  1  0
 35 37  1  0
 36 42  1  6
 20 21  2  0
 21 22  1  0
M  CHG  2   2  -1  26  -1
M  END
>  <COMPND>  (212) 
    8629 

>  <AUTHOR>  (212) 
    GENERATED BY OPEN BABEL 3.1.1

>  <MASTER>  (212) 
        0    0    0    0    0    0    0    0   58    0   58    0

>  <minimizedAffinity>  (212) 
-7.03412

>  <CNNscore>  (212) 
0.7034572959

>  <CNNaffinity>  (212) 
4.6215600967

>  <CNN_VS>  (212) 
3.2510702610

>  <CNNaffinity_variance>  (212) 
0.4528023601

$$$$
213
     RDKit          3D

 43 45  0  0  0  0  0  0  0  0999 V2000
   23.4826   73.5618   -4.1539 P   0  0  2  0  0  0  0  0  0  0  0  0
   22.6694   74.9380   -4.4034 O   0  0  0  0  0  0  0  0  0  0  0  0
   24.9732   73.7126   -4.0714 O   0  0  0  0  0  0  0  0  0  0  0  0
   22.9395   72.5739   -5.3145 O   0  0  0  0  0  0  0  0  0  0  0  0
   21.5423   72.3671   -5.4272 C   0  0  0  0  0  0  0  0  0  0  0  0
   20.5143   70.3736   -6.2891 O   0  0  0  0  0  0  0  0  0  0  0  0
   20.6361   71.6976   -8.9767 O   0  0  0  0  0  0  0  0  0  0  0  0
   18.0350   72.0709   -8.2475 O   0  0  0  0  0  0  0  0  0  0  0  0
   20.3939   72.2770   -7.6957 C   0  0  1  0  0  0  0  0  0  0  0  0
   18.9965   71.9374   -7.2207 C   0  0  2  0  0  0  0  0  0  0  0  0
   21.2619   71.5465   -6.6787 C   0  0  1  0  0  0  0  0  0  0  0  0
   19.1618   70.4998   -6.7578 C   0  0  2  0  0  0  0  0  0  0  0  0
   20.0929   72.1480   -9.6430 H   0  0  0  0  0  0  0  0  0  0  0  0
   17.9665   73.0029   -8.5074 H   0  0  0  0  0  0  0  0  0  0  0  0
   16.4641   69.7443   -7.1178 O   0  0  0  0  0  0  0  0  0  0  0  0
   15.8131   69.2271   -2.5846 O   0  0  0  0  0  0  0  0  0  0  0  0
   18.2645   70.1620   -5.6891 N   0  0  0  0  0  0  0  0  0  0  0  0
   16.1422   69.4872   -4.8603 N   0  0  0  0  0  0  0  0  0  0  0  0
   16.9288   69.7969   -5.9772 C   0  0  0  0  0  0  0  0  0  0  0  0
   18.7115   70.1943   -4.3726 C   0  0  0  0  0  0  0  0  0  0  0  0
   17.9484   69.8974   -3.3187 C   0  0  0  0  0  0  0  0  0  0  0  0
   16.5402   69.5059   -3.5329 C   0  0  0  0  0  0  0  0  0  0  0  0
   15.2080   69.2305   -5.0367 H   0  0  0  0  0  0  0  0  0  0  0  0
   22.7916   72.9682   -2.8187 O   0  0  0  0  0  0  0  0  0  0  0  0
   22.8867   71.5070   -2.1340 P   0  0  2  0  0  0  0  0  0  0  0  0
   24.1946   70.8560   -2.8290 O   0  0  0  0  0  0  0  0  0  0  0  0
   21.6392   70.6824   -2.2677 O   0  0  0  0  0  0  0  0  0  0  0  0
   23.3362   71.7978   -0.6114 O   0  0  0  0  0  0  0  0  0  0  0  0
   24.5348   70.6465    1.0782 O   0  0  0  0  0  0  0  0  0  0  0  0
   21.2933   71.9013    3.3073 O   0  0  0  0  0  0  0  0  0  0  0  0
   23.8508   73.1481    3.6979 O   0  0  0  0  0  0  0  0  0  0  0  0
   20.9139   71.0234    0.5751 O   0  0  0  0  0  0  0  0  0  0  0  0
   22.2928   72.0037    2.2895 C   0  0  1  0  0  0  0  0  0  0  0  0
   23.6671   71.9436    2.9591 C   0  0  1  0  0  0  0  0  0  0  0  0
   22.1232   70.8478    1.3053 C   0  0  2  0  0  0  0  0  0  0  0  0
   24.7834   71.7791    1.9190 C   0  0  1  0  0  0  0  0  0  0  0  0
   23.3109   70.7432    0.3469 C   0  0  1  0  0  0  0  0  0  0  0  0
   21.3951   72.6327    3.9352 H   0  0  0  0  0  0  0  0  0  0  0  0
   23.1392   73.2402    4.3508 H   0  0  0  0  0  0  0  0  0  0  0  0
   20.1697   71.0879    1.1930 H   0  0  0  0  0  0  0  0  0  0  0  0
   26.5974   72.7938    3.0975 O   0  0  0  0  0  0  0  0  0  0  0  0
   26.1460   71.5589    2.5725 C   0  0  0  0  0  0  0  0  0  0  0  0
   27.4636   72.6689    3.5168 H   0  0  0  0  0  0  0  0  0  0  0  0
 25 28  1  0
 25 24  1  0
 25 26  1  6
 25 27  2  0
  1  4  1  0
  1 24  1  0
  1  2  1  6
  1  3  2  0
  6 11  1  0
  6 12  1  0
 29 36  1  0
 29 37  1  0
  9  7  1  6
  7 13  1  0
 10  8  1  6
  8 14  1  0
 37 28  1  6
  4  5  1  0
 33 30  1  1
 30 38  1  0
 34 31  1  6
 31 39  1  0
 35 32  1  6
 32 40  1  0
 41 42  1  0
 41 43  1  0
 15 19  2  0
 16 22  2  0
 12 17  1  1
 17 19  1  0
 17 20  1  0
 18 19  1  0
 18 22  1  0
 18 23  1  0
  9 10  1  0
  9 11  1  0
 10 12  1  0
 11  5  1  1
 33 34  1  0
 33 35  1  0
 34 36  1  0
 35 37  1  0
 36 42  1  1
 20 21  2  0
 21 22  1  0
M  CHG  2   2  -1  26  -1
M  END
>  <COMPND>  (213) 
    8629 

>  <AUTHOR>  (213) 
    GENERATED BY OPEN BABEL 3.1.1

>  <MASTER>  (213) 
        0    0    0    0    0    0    0    0   58    0   58    0

>  <minimizedAffinity>  (213) 
-8.18640

>  <CNNscore>  (213) 
0.6686648130

>  <CNNaffinity>  (213) 
4.3760428429

>  <CNN_VS>  (213) 
2.9261059761

>  <CNNaffinity_variance>  (213) 
0.2240304202

$$$$
214
     RDKit          3D

 43 45  0  0  0  0  0  0  0  0999 V2000
   23.4777   71.8838   -3.2846 P   0  0  2  0  0  0  0  0  0  0  0  0
   24.1724   72.9301   -4.3045 O   0  0  0  0  0  0  0  0  0  0  0  0
   24.2936   70.6630   -2.9760 O   0  0  0  0  0  0  0  0  0  0  0  0
   22.0238   71.6101   -3.9397 O   0  0  0  0  0  0  0  0  0  0  0  0
   21.5505   72.5035   -4.9325 C   0  0  0  0  0  0  0  0  0  0  0  0
   20.5954   70.5485   -5.9521 O   0  0  0  0  0  0  0  0  0  0  0  0
   20.8903   71.9948   -8.5621 O   0  0  0  0  0  0  0  0  0  0  0  0
   18.2437   72.3263   -7.9946 O   0  0  0  0  0  0  0  0  0  0  0  0
   20.5586   72.5141   -7.2754 C   0  0  1  0  0  0  0  0  0  0  0  0
   19.1344   72.1488   -6.9121 C   0  0  2  0  0  0  0  0  0  0  0  0
   21.3603   71.7404   -6.2362 C   0  0  1  0  0  0  0  0  0  0  0  0
   19.2769   70.6920   -6.5051 C   0  0  2  0  0  0  0  0  0  0  0  0
   20.3906   72.4737   -9.2425 H   0  0  0  0  0  0  0  0  0  0  0  0
   18.1872   73.2690   -8.2158 H   0  0  0  0  0  0  0  0  0  0  0  0
   16.6607   69.8035   -7.0918 O   0  0  0  0  0  0  0  0  0  0  0  0
   15.6593   69.2262   -2.6303 O   0  0  0  0  0  0  0  0  0  0  0  0
   18.3115   70.3027   -5.5162 N   0  0  0  0  0  0  0  0  0  0  0  0
   16.1643   69.5166   -4.8699 N   0  0  0  0  0  0  0  0  0  0  0  0
   17.0249   69.8725   -5.9161 C   0  0  0  0  0  0  0  0  0  0  0  0
   18.6444   70.3494   -4.1668 C   0  0  0  0  0  0  0  0  0  0  0  0
   17.8118   70.0078   -3.1812 C   0  0  0  0  0  0  0  0  0  0  0  0
   16.4482   69.5472   -3.5137 C   0  0  0  0  0  0  0  0  0  0  0  0
   15.2624   69.2142   -5.1246 H   0  0  0  0  0  0  0  0  0  0  0  0
   23.1307   72.8032   -2.0012 O   0  0  0  0  0  0  0  0  0  0  0  0
   21.9263   72.7150   -0.9267 P   0  0  2  0  0  0  0  0  0  0  0  0
   21.7008   71.1225   -0.7519 O   0  0  0  0  0  0  0  0  0  0  0  0
   20.6932   73.4754   -1.3208 O   0  0  0  0  0  0  0  0  0  0  0  0
   22.5871   73.1887    0.4675 O   0  0  0  0  0  0  0  0  0  0  0  0
   24.6023   72.6520    1.5934 O   0  0  0  0  0  0  0  0  0  0  0  0
   22.0198   72.6274    4.8153 O   0  0  0  0  0  0  0  0  0  0  0  0
   23.8957   74.7816    4.5182 O   0  0  0  0  0  0  0  0  0  0  0  0
   21.1522   71.5767    2.2613 O   0  0  0  0  0  0  0  0  0  0  0  0
   22.5258   73.0741    3.5545 C   0  0  1  0  0  0  0  0  0  0  0  0
   23.9563   73.5753    3.7622 C   0  0  1  0  0  0  0  0  0  0  0  0
   22.5023   71.9096    2.5662 C   0  0  2  0  0  0  0  0  0  0  0  0
   24.6578   73.8209    2.4196 C   0  0  1  0  0  0  0  0  0  0  0  0
   23.2691   72.2408    1.2847 C   0  0  1  0  0  0  0  0  0  0  0  0
   22.0315   73.3623    5.4473 H   0  0  0  0  0  0  0  0  0  0  0  0
   23.4501   74.6129    5.3633 H   0  0  0  0  0  0  0  0  0  0  0  0
   20.6776   71.3688    3.0807 H   0  0  0  0  0  0  0  0  0  0  0  0
   26.5511   73.7096    3.8727 O   0  0  0  0  0  0  0  0  0  0  0  0
   26.1335   74.1695    2.6006 C   0  0  0  0  0  0  0  0  0  0  0  0
   27.4887   73.9243    4.0017 H   0  0  0  0  0  0  0  0  0  0  0  0
 25 28  1  0
 25 24  1  0
 25 26  1  1
 25 27  2  0
  1  4  1  0
  1 24  1  0
  1  2  1  6
  1  3  2  0
  6 11  1  0
  6 12  1  0
 29 36  1  0
 29 37  1  0
  9  7  1  6
  7 13  1  0
 10  8  1  6
  8 14  1  0
 37 28  1  1
  4  5  1  0
 33 30  1  1
 30 38  1  0
 34 31  1  6
 31 39  1  0
 35 32  1  6
 32 40  1  0
 41 42  1  0
 41 43  1  0
 15 19  2  0
 16 22  2  0
 12 17  1  1
 17 19  1  0
 17 20  1  0
 18 19  1  0
 18 22  1  0
 18 23  1  0
  9 10  1  0
  9 11  1  0
 10 12  1  0
 11  5  1  1
 33 34  1  0
 33 35  1  0
 34 36  1  0
 35 37  1  0
 36 42  1  1
 20 21  2  0
 21 22  1  0
M  CHG  2   2  -1  26  -1
M  END
>  <COMPND>  (214) 
    8629 

>  <AUTHOR>  (214) 
    GENERATED BY OPEN BABEL 3.1.1

>  <MASTER>  (214) 
        0    0    0    0    0    0    0    0   58    0   58    0

>  <minimizedAffinity>  (214) 
-7.66066

>  <CNNscore>  (214) 
0.6624792814

>  <CNNaffinity>  (214) 
4.3730363846

>  <CNN_VS>  (214) 
2.8970460892

>  <CNNaffinity_variance>  (214) 
0.0993775725

$$$$
215
     RDKit          3D

 43 45  0  0  0  0  0  0  0  0999 V2000
   23.3636   71.8331   -3.3382 P   0  0  2  0  0  0  0  0  0  0  0  0
   24.0996   72.9901   -4.1968 O   0  0  0  0  0  0  0  0  0  0  0  0
   24.2459   70.6917   -2.9258 O   0  0  0  0  0  0  0  0  0  0  0  0
   22.0791   71.4383   -4.2394 O   0  0  0  0  0  0  0  0  0  0  0  0
   21.6329   72.3583   -5.2203 C   0  0  0  0  0  0  0  0  0  0  0  0
   20.5585   70.4264   -6.1623 O   0  0  0  0  0  0  0  0  0  0  0  0
   20.6781   71.8716   -8.7869 O   0  0  0  0  0  0  0  0  0  0  0  0
   18.0921   72.2585   -8.0125 O   0  0  0  0  0  0  0  0  0  0  0  0
   20.4600   72.3951   -7.4778 C   0  0  1  0  0  0  0  0  0  0  0  0
   19.0613   72.0596   -7.0036 C   0  0  2  0  0  0  0  0  0  0  0  0
   21.3242   71.6022   -6.5053 C   0  0  1  0  0  0  0  0  0  0  0  0
   19.2040   70.5993   -6.6097 C   0  0  2  0  0  0  0  0  0  0  0  0
   20.1368   72.3625   -9.4256 H   0  0  0  0  0  0  0  0  0  0  0  0
   18.0387   73.2027   -8.2282 H   0  0  0  0  0  0  0  0  0  0  0  0
   16.5285   69.7768   -6.9882 O   0  0  0  0  0  0  0  0  0  0  0  0
   15.8722   69.2028   -2.4626 O   0  0  0  0  0  0  0  0  0  0  0  0
   18.3114   70.2287   -5.5480 N   0  0  0  0  0  0  0  0  0  0  0  0
   16.2039   69.4915   -4.7345 N   0  0  0  0  0  0  0  0  0  0  0  0
   16.9868   69.8315   -5.8452 C   0  0  0  0  0  0  0  0  0  0  0  0
   18.7518   70.2610   -4.2293 C   0  0  0  0  0  0  0  0  0  0  0  0
   17.9923   69.9350   -3.1814 C   0  0  0  0  0  0  0  0  0  0  0  0
   16.5958   69.5088   -3.4053 C   0  0  0  0  0  0  0  0  0  0  0  0
   15.2775   69.2120   -4.9173 H   0  0  0  0  0  0  0  0  0  0  0  0
   22.7072   72.6539   -2.1100 O   0  0  0  0  0  0  0  0  0  0  0  0
   21.3018   72.4611   -1.3351 P   0  0  2  0  0  0  0  0  0  0  0  0
   21.0931   70.8567   -1.3388 O   0  0  0  0  0  0  0  0  0  0  0  0
   20.1606   73.2353   -1.9286 O   0  0  0  0  0  0  0  0  0  0  0  0
   21.6296   72.8260    0.2025 O   0  0  0  0  0  0  0  0  0  0  0  0
   22.9789   74.2462    1.5363 O   0  0  0  0  0  0  0  0  0  0  0  0
   24.2489   70.5893    2.9732 O   0  0  0  0  0  0  0  0  0  0  0  0
   22.5760   72.2529    4.6109 O   0  0  0  0  0  0  0  0  0  0  0  0
   23.6846   70.9155    0.1528 O   0  0  0  0  0  0  0  0  0  0  0  0
   23.3038   71.5272    2.4512 C   0  0  1  0  0  0  0  0  0  0  0  0
   23.2138   72.7074    3.4205 C   0  0  1  0  0  0  0  0  0  0  0  0
   23.7737   71.9960    1.0754 C   0  0  2  0  0  0  0  0  0  0  0  0
   22.4271   73.8719    2.8040 C   0  0  1  0  0  0  0  0  0  0  0  0
   22.9565   73.1887    0.5756 C   0  0  1  0  0  0  0  0  0  0  0  0
   23.9562   70.2873    3.8465 H   0  0  0  0  0  0  0  0  0  0  0  0
   23.0825   71.5173    4.9899 H   0  0  0  0  0  0  0  0  0  0  0  0
   24.2063   70.1669    0.4804 H   0  0  0  0  0  0  0  0  0  0  0  0
   23.5612   75.0113    4.5716 O   0  0  0  0  0  0  0  0  0  0  0  0
   22.4590   75.1159    3.6892 C   0  0  0  0  0  0  0  0  0  0  0  0
   23.5944   75.7964    5.1410 H   0  0  0  0  0  0  0  0  0  0  0  0
 25 28  1  0
 25 24  1  0
 25 26  1  1
 25 27  2  0
  1  4  1  0
  1 24  1  0
  1  2  1  6
  1  3  2  0
  6 11  1  0
  6 12  1  0
 29 36  1  0
 29 37  1  0
  9  7  1  6
  7 13  1  0
 10  8  1  6
  8 14  1  0
 37 28  1  1
  4  5  1  0
 33 30  1  1
 30 38  1  0
 34 31  1  1
 31 39  1  0
 35 32  1  6
 32 40  1  0
 41 42  1  0
 41 43  1  0
 15 19  2  0
 16 22  2  0
 12 17  1  1
 17 19  1  0
 17 20  1  0
 18 19  1  0
 18 22  1  0
 18 23  1  0
  9 10  1  0
  9 11  1  0
 10 12  1  0
 11  5  1  1
 33 34  1  0
 33 35  1  0
 34 36  1  0
 35 37  1  0
 36 42  1  1
 20 21  2  0
 21 22  1  0
M  CHG  2   2  -1  26  -1
M  END
>  <COMPND>  (215) 
    8629 

>  <AUTHOR>  (215) 
    GENERATED BY OPEN BABEL 3.1.1

>  <MASTER>  (215) 
        0    0    0    0    0    0    0    0   58    0   58    0

>  <minimizedAffinity>  (215) 
-7.45131

>  <CNNscore>  (215) 
0.6441935897

>  <CNNaffinity>  (215) 
4.3616271019

>  <CNN_VS>  (215) 
2.8097321987

>  <CNNaffinity_variance>  (215) 
0.1087241918

$$$$
216
     RDKit          3D

 43 45  0  0  0  0  0  0  0  0999 V2000
   23.5152   72.2418   -3.1809 P   0  0  2  0  0  0  0  0  0  0  0  0
   24.1832   70.7765   -3.0258 O   0  0  0  0  0  0  0  0  0  0  0  0
   24.4228   73.2958   -3.7436 O   0  0  0  0  0  0  0  0  0  0  0  0
   22.9071   72.5488   -1.7132 O   0  0  0  0  0  0  0  0  0  0  0  0
   23.7861   72.5400   -0.6019 C   0  0  0  0  0  0  0  0  0  0  0  0
   24.1423   71.5404    1.5540 O   0  0  0  0  0  0  0  0  0  0  0  0
   21.5854   70.0486    1.0771 O   0  0  0  0  0  0  0  0  0  0  0  0
   20.7986   72.0592    2.7429 O   0  0  0  0  0  0  0  0  0  0  0  0
   21.9360   71.3802    0.7041 C   0  0  1  0  0  0  0  0  0  0  0  0
   21.9225   72.2869    1.9171 C   0  0  2  0  0  0  0  0  0  0  0  0
   23.4100   71.3868    0.3185 C   0  0  1  0  0  0  0  0  0  0  0  0
   23.2312   71.9226    2.5974 C   0  0  2  0  0  0  0  0  0  0  0  0
   20.6481   70.0192    1.3272 H   0  0  0  0  0  0  0  0  0  0  0  0
   19.9912   72.3061    2.2655 H   0  0  0  0  0  0  0  0  0  0  0  0
   22.4475   72.6746    5.2047 O   0  0  0  0  0  0  0  0  0  0  0  0
   25.4577   76.1633    5.3007 O   0  0  0  0  0  0  0  0  0  0  0  0
   23.7938   73.0233    3.3277 N   0  0  0  0  0  0  0  0  0  0  0  0
   23.9471   74.4110    5.2505 N   0  0  0  0  0  0  0  0  0  0  0  0
   23.3290   73.3175    4.6307 C   0  0  0  0  0  0  0  0  0  0  0  0
   24.7951   73.7975    2.7518 C   0  0  0  0  0  0  0  0  0  0  0  0
   25.3734   74.8378    3.3556 C   0  0  0  0  0  0  0  0  0  0  0  0
   24.9454   75.2120    4.7190 C   0  0  0  0  0  0  0  0  0  0  0  0
   23.6392   74.6349    6.1587 H   0  0  0  0  0  0  0  0  0  0  0  0
   22.1954   71.9477   -4.0667 O   0  0  0  0  0  0  0  0  0  0  0  0
   20.6333   72.2438   -3.7748 P   0  0  2  0  0  0  0  0  0  0  0  0
   20.5906   73.8490   -3.5771 O   0  0  0  0  0  0  0  0  0  0  0  0
   20.0631   71.4630   -2.6263 O   0  0  0  0  0  0  0  0  0  0  0  0
   19.8979   71.9876   -5.1885 O   0  0  0  0  0  0  0  0  0  0  0  0
   18.8067   70.0335   -5.9678 O   0  0  0  0  0  0  0  0  0  0  0  0
   20.3829   71.3780   -9.5398 O   0  0  0  0  0  0  0  0  0  0  0  0
   17.5586   71.5942   -9.0655 O   0  0  0  0  0  0  0  0  0  0  0  0
   21.9205   71.6238   -7.0995 O   0  0  0  0  0  0  0  0  0  0  0  0
   19.8019   71.5113   -8.2397 C   0  0  1  0  0  0  0  0  0  0  0  0
   18.4364   70.8212   -8.2517 C   0  0  1  0  0  0  0  0  0  0  0  0
   20.7246   70.8597   -7.2114 C   0  0  2  0  0  0  0  0  0  0  0  0
   17.8703   70.6886   -6.8315 C   0  0  1  0  0  0  0  0  0  0  0  0
   20.0474   70.7318   -5.8457 C   0  0  1  0  0  0  0  0  0  0  0  0
   19.8021   71.7901  -10.1973 H   0  0  0  0  0  0  0  0  0  0  0  0
   17.9279   71.6707   -9.9593 H   0  0  0  0  0  0  0  0  0  0  0  0
   22.3399   71.6972   -7.9705 H   0  0  0  0  0  0  0  0  0  0  0  0
   15.5370   70.6475   -7.3440 O   0  0  0  0  0  0  0  0  0  0  0  0
   16.5850   69.8645   -6.8028 C   0  0  0  0  0  0  0  0  0  0  0  0
   14.7126   70.1357   -7.3325 H   0  0  0  0  0  0  0  0  0  0  0  0
 25 28  1  0
 25 24  1  0
 25 26  1  1
 25 27  2  0
  1  4  1  0
  1 24  1  0
  1  2  1  1
  1  3  2  0
  6 11  1  0
  6 12  1  0
 29 36  1  0
 29 37  1  0
  9  7  1  1
  7 13  1  0
 10  8  1  1
  8 14  1  0
 37 28  1  6
  4  5  1  0
 33 30  1  6
 30 38  1  0
 34 31  1  6
 31 39  1  0
 35 32  1  1
 32 40  1  0
 41 42  1  0
 41 43  1  0
 15 19  2  0
 16 22  2  0
 12 17  1  6
 17 19  1  0
 17 20  1  0
 18 19  1  0
 18 22  1  0
 18 23  1  0
  9 10  1  0
  9 11  1  0
 10 12  1  0
 11  5  1  6
 33 34  1  0
 33 35  1  0
 34 36  1  0
 35 37  1  0
 36 42  1  6
 20 21  2  0
 21 22  1  0
M  CHG  2   2  -1  26  -1
M  END
>  <COMPND>  (216) 
    8629 

>  <AUTHOR>  (216) 
    GENERATED BY OPEN BABEL 3.1.1

>  <MASTER>  (216) 
        0    0    0    0    0    0    0    0   58    0   58    0

>  <minimizedAffinity>  (216) 
-7.58498

>  <CNNscore>  (216) 
0.5823215842

>  <CNNaffinity>  (216) 
4.2915673256

>  <CNN_VS>  (216) 
2.4990723133

>  <CNNaffinity_variance>  (216) 
0.1128721386

$$$$
217
     RDKit          3D

 43 45  0  0  0  0  0  0  0  0999 V2000
   20.5109   71.0726   -3.6867 P   0  0  2  0  0  0  0  0  0  0  0  0
   19.6417   72.3103   -3.1121 O   0  0  0  0  0  0  0  0  0  0  0  0
   21.0204   71.2519   -5.0866 O   0  0  0  0  0  0  0  0  0  0  0  0
   19.5614   69.7853   -3.4440 O   0  0  0  0  0  0  0  0  0  0  0  0
   18.6707   69.8002   -2.3420 C   0  0  0  0  0  0  0  0  0  0  0  0
   16.3333   69.6559   -1.8039 O   0  0  0  0  0  0  0  0  0  0  0  0
   15.9009   68.9861   -4.6945 O   0  0  0  0  0  0  0  0  0  0  0  0
   15.2068   71.6210   -4.5846 O   0  0  0  0  0  0  0  0  0  0  0  0
   16.8406   69.8848   -4.1074 C   0  0  1  0  0  0  0  0  0  0  0  0
   16.1417   71.1439   -3.6385 C   0  0  2  0  0  0  0  0  0  0  0  0
   17.3145   69.2760   -2.7936 C   0  0  1  0  0  0  0  0  0  0  0  0
   15.4843   70.6783   -2.3504 C   0  0  2  0  0  0  0  0  0  0  0  0
   15.5843   69.3534   -5.5352 H   0  0  0  0  0  0  0  0  0  0  0  0
   15.6737   71.9051   -5.3859 H   0  0  0  0  0  0  0  0  0  0  0  0
   13.3137   70.9482   -0.5634 O   0  0  0  0  0  0  0  0  0  0  0  0
   15.0796   74.7802    1.2910 O   0  0  0  0  0  0  0  0  0  0  0  0
   15.3514   71.7369   -1.3896 N   0  0  0  0  0  0  0  0  0  0  0  0
   14.1948   72.8559    0.3586 N   0  0  0  0  0  0  0  0  0  0  0  0
   14.2219   71.7814   -0.5395 C   0  0  0  0  0  0  0  0  0  0  0  0
   16.3345   72.7161   -1.2970 C   0  0  0  0  0  0  0  0  0  0  0  0
   16.2931   73.7350   -0.4360 C   0  0  0  0  0  0  0  0  0  0  0  0
   15.1467   73.8548    0.4879 C   0  0  0  0  0  0  0  0  0  0  0  0
   13.4172   72.9077    0.9606 H   0  0  0  0  0  0  0  0  0  0  0  0
   21.6645   70.8890   -2.5693 O   0  0  0  0  0  0  0  0  0  0  0  0
   23.0993   71.6131   -2.3959 P   0  0  2  0  0  0  0  0  0  0  0  0
   22.8649   73.0665   -3.0669 O   0  0  0  0  0  0  0  0  0  0  0  0
   24.2512   70.8428   -2.9735 O   0  0  0  0  0  0  0  0  0  0  0  0
   23.2189   71.9091   -0.8138 O   0  0  0  0  0  0  0  0  0  0  0  0
   24.4009   70.7423    0.8768 O   0  0  0  0  0  0  0  0  0  0  0  0
   21.0588   71.8343    3.0422 O   0  0  0  0  0  0  0  0  0  0  0  0
   23.5652   73.1423    3.5471 O   0  0  0  0  0  0  0  0  0  0  0  0
   20.7868   71.0290    0.2750 O   0  0  0  0  0  0  0  0  0  0  0  0
   22.0844   71.9965    2.0587 C   0  0  1  0  0  0  0  0  0  0  0  0
   23.4395   71.9560    2.7679 C   0  0  1  0  0  0  0  0  0  0  0  0
   21.9787   70.8665    1.0363 C   0  0  2  0  0  0  0  0  0  0  0  0
   24.5905   71.8556    1.7579 C   0  0  1  0  0  0  0  0  0  0  0  0
   23.1968   70.8256    0.1118 C   0  0  1  0  0  0  0  0  0  0  0  0
   21.1200   72.5489    3.6942 H   0  0  0  0  0  0  0  0  0  0  0  0
   22.8321   73.1938    4.1804 H   0  0  0  0  0  0  0  0  0  0  0  0
   20.0230   71.0531    0.8716 H   0  0  0  0  0  0  0  0  0  0  0  0
   26.4006   72.9127    2.9046 O   0  0  0  0  0  0  0  0  0  0  0  0
   25.9392   71.6554    2.4458 C   0  0  0  0  0  0  0  0  0  0  0  0
   27.2581   72.8006    3.3449 H   0  0  0  0  0  0  0  0  0  0  0  0
 25 28  1  0
 25 24  1  0
 25 26  1  6
 25 27  2  0
  1  4  1  0
  1 24  1  0
  1  2  1  1
  1  3  2  0
  6 11  1  0
  6 12  1  0
 29 36  1  0
 29 37  1  0
  9  7  1  1
  7 13  1  0
 10  8  1  6
  8 14  1  0
 37 28  1  1
  4  5  1  0
 33 30  1  1
 30 38  1  0
 34 31  1  6
 31 39  1  0
 35 32  1  6
 32 40  1  0
 41 42  1  0
 41 43  1  0
 15 19  2  0
 16 22  2  0
 12 17  1  1
 17 19  1  0
 17 20  1  0
 18 19  1  0
 18 22  1  0
 18 23  1  0
  9 10  1  0
  9 11  1  0
 10 12  1  0
 11  5  1  1
 33 34  1  0
 33 35  1  0
 34 36  1  0
 35 37  1  0
 36 42  1  1
 20 21  2  0
 21 22  1  0
M  CHG  2   2  -1  26  -1
M  END
>  <COMPND>  (217) 
    8629 

>  <AUTHOR>  (217) 
    GENERATED BY OPEN BABEL 3.1.1

>  <MASTER>  (217) 
        0    0    0    0    0    0    0    0   58    0   58    0

>  <minimizedAffinity>  (217) 
-6.75553

>  <CNNscore>  (217) 
0.5760583878

>  <CNNaffinity>  (217) 
4.0241804123

>  <CNN_VS>  (217) 
2.3181629181

>  <CNNaffinity_variance>  (217) 
0.3091953099

$$$$
218
     RDKit          3D

 43 45  0  0  0  0  0  0  0  0999 V2000
   23.1682   73.2409   -4.0523 P   0  0  2  0  0  0  0  0  0  0  0  0
   23.9100   71.8094   -3.9188 O   0  0  0  0  0  0  0  0  0  0  0  0
   23.9636   74.3042   -4.7511 O   0  0  0  0  0  0  0  0  0  0  0  0
   22.7127   73.5851   -2.5384 O   0  0  0  0  0  0  0  0  0  0  0  0
   21.7446   74.6002   -2.3378 C   0  0  0  0  0  0  0  0  0  0  0  0
   20.9580   72.7414   -1.0341 O   0  0  0  0  0  0  0  0  0  0  0  0
   18.7331   74.5456   -0.1478 O   0  0  0  0  0  0  0  0  0  0  0  0
   20.4383   74.6157    1.9791 O   0  0  0  0  0  0  0  0  0  0  0  0
   20.0983   74.8613   -0.4157 C   0  0  1  0  0  0  0  0  0  0  0  0
   20.9846   74.3538    0.7025 C   0  0  2  0  0  0  0  0  0  0  0  0
   20.5543   74.0101   -1.5942 C   0  0  1  0  0  0  0  0  0  0  0  0
   21.0624   72.8684    0.3934 C   0  0  2  0  0  0  0  0  0  0  0  0
   18.4194   75.0773    0.6010 H   0  0  0  0  0  0  0  0  0  0  0  0
   20.4099   75.5736    2.1285 H   0  0  0  0  0  0  0  0  0  0  0  0
   21.4218   70.1228    0.9505 O   0  0  0  0  0  0  0  0  0  0  0  0
   25.8575   70.7370    2.0407 O   0  0  0  0  0  0  0  0  0  0  0  0
   22.3008   72.2834    0.8242 N   0  0  0  0  0  0  0  0  0  0  0  0
   23.6302   70.4308    1.4927 N   0  0  0  0  0  0  0  0  0  0  0  0
   22.3750   70.8941    1.0782 C   0  0  0  0  0  0  0  0  0  0  0  0
   23.4250   73.0850    0.9903 C   0  0  0  0  0  0  0  0  0  0  0  0
   24.6144   72.6280    1.3875 C   0  0  0  0  0  0  0  0  0  0  0  0
   24.7769   71.1879    1.6737 C   0  0  0  0  0  0  0  0  0  0  0  0
   23.7056   69.4662    1.6759 H   0  0  0  0  0  0  0  0  0  0  0  0
   21.7726   72.8612   -4.7742 O   0  0  0  0  0  0  0  0  0  0  0  0
   21.1468   73.3311   -6.1886 P   0  0  2  0  0  0  0  0  0  0  0  0
   22.1816   72.7219   -7.2729 O   0  0  0  0  0  0  0  0  0  0  0  0
   20.9298   74.8121   -6.3038 O   0  0  0  0  0  0  0  0  0  0  0  0
   19.8093   72.4438   -6.3584 O   0  0  0  0  0  0  0  0  0  0  0  0
   19.2104   70.2570   -5.6686 O   0  0  0  0  0  0  0  0  0  0  0  0
   17.5824   70.2210   -9.4632 O   0  0  0  0  0  0  0  0  0  0  0  0
   15.8492   70.3693   -7.1780 O   0  0  0  0  0  0  0  0  0  0  0  0
   20.1209   71.5305   -8.9935 O   0  0  0  0  0  0  0  0  0  0  0  0
   17.9611   70.8040   -8.2134 C   0  0  1  0  0  0  0  0  0  0  0  0
   17.2361   70.0531   -7.0947 C   0  0  1  0  0  0  0  0  0  0  0  0
   19.4749   70.6868   -8.0462 C   0  0  2  0  0  0  0  0  0  0  0  0
   17.7907   70.4408   -5.7173 C   0  0  1  0  0  0  0  0  0  0  0  0
   19.9161   71.0482   -6.6267 C   0  0  1  0  0  0  0  0  0  0  0  0
   16.6224   70.2925   -9.5758 H   0  0  0  0  0  0  0  0  0  0  0  0
   15.5115   70.1200   -8.0527 H   0  0  0  0  0  0  0  0  0  0  0  0
   19.8336   71.2915   -9.8880 H   0  0  0  0  0  0  0  0  0  0  0  0
   16.5779   68.4537   -5.1795 O   0  0  0  0  0  0  0  0  0  0  0  0
   17.1921   69.5898   -4.5995 C   0  0  0  0  0  0  0  0  0  0  0  0
   16.1927   67.9026   -4.4797 H   0  0  0  0  0  0  0  0  0  0  0  0
 25 28  1  0
 25 24  1  0
 25 26  1  6
 25 27  2  0
  1  4  1  0
  1 24  1  0
  1  2  1  1
  1  3  2  0
  6 11  1  0
  6 12  1  0
 29 36  1  0
 29 37  1  0
  9  7  1  1
  7 13  1  0
 10  8  1  1
  8 14  1  0
 37 28  1  1
  4  5  1  0
 33 30  1  6
 30 38  1  0
 34 31  1  1
 31 39  1  0
 35 32  1  6
 32 40  1  0
 41 42  1  0
 41 43  1  0
 15 19  2  0
 16 22  2  0
 12 17  1  6
 17 19  1  0
 17 20  1  0
 18 19  1  0
 18 22  1  0
 18 23  1  0
  9 10  1  0
  9 11  1  0
 10 12  1  0
 11  5  1  1
 33 34  1  0
 33 35  1  0
 34 36  1  0
 35 37  1  0
 36 42  1  1
 20 21  2  0
 21 22  1  0
M  CHG  2   2  -1  26  -1
M  END
>  <COMPND>  (218) 
    8629 

>  <AUTHOR>  (218) 
    GENERATED BY OPEN BABEL 3.1.1

>  <MASTER>  (218) 
        0    0    0    0    0    0    0    0   58    0   58    0

>  <minimizedAffinity>  (218) 
-7.63223

>  <CNNscore>  (218) 
0.5421169996

>  <CNNaffinity>  (218) 
4.3968677521

>  <CNN_VS>  (218) 
2.3836166859

>  <CNNaffinity_variance>  (218) 
0.1145018488

$$$$
219
     RDKit          3D

 43 45  0  0  0  0  0  0  0  0999 V2000
   21.8741   72.3968   -5.8314 P   0  0  2  0  0  0  0  0  0  0  0  0
   21.1371   73.7058   -5.2309 O   0  0  0  0  0  0  0  0  0  0  0  0
   23.0183   72.6832   -6.7588 O   0  0  0  0  0  0  0  0  0  0  0  0
   20.6647   71.5226   -6.4567 O   0  0  0  0  0  0  0  0  0  0  0  0
   20.2169   71.8274   -7.7661 C   0  0  0  0  0  0  0  0  0  0  0  0
   18.8735   69.9154   -7.2062 O   0  0  0  0  0  0  0  0  0  0  0  0
   17.9956   69.9271  -10.0733 O   0  0  0  0  0  0  0  0  0  0  0  0
   15.8877   71.1000   -8.8014 O   0  0  0  0  0  0  0  0  0  0  0  0
   18.2828   71.0285   -9.2132 C   0  0  1  0  0  0  0  0  0  0  0  0
   17.1651   71.2167   -8.2087 C   0  0  2  0  0  0  0  0  0  0  0  0
   19.4511   70.6331   -8.3187 C   0  0  1  0  0  0  0  0  0  0  0  0
   17.4495   70.1081   -7.2096 C   0  0  2  0  0  0  0  0  0  0  0  0
   17.2528   70.1561  -10.6545 H   0  0  0  0  0  0  0  0  0  0  0  0
   15.7545   71.8277   -9.4287 H   0  0  0  0  0  0  0  0  0  0  0  0
   16.5459   68.2328   -5.3005 O   0  0  0  0  0  0  0  0  0  0  0  0
   15.8308   71.5150   -2.1450 O   0  0  0  0  0  0  0  0  0  0  0  0
   17.0214   70.4450   -5.8812 N   0  0  0  0  0  0  0  0  0  0  0  0
   16.1907   69.8686   -3.7308 N   0  0  0  0  0  0  0  0  0  0  0  0
   16.5849   69.4278   -5.0006 C   0  0  0  0  0  0  0  0  0  0  0  0
   17.0374   71.7713   -5.4634 C   0  0  0  0  0  0  0  0  0  0  0  0
   16.6570   72.1752   -4.2496 C   0  0  0  0  0  0  0  0  0  0  0  0
   16.1873   71.1753   -3.2690 C   0  0  0  0  0  0  0  0  0  0  0  0
   15.8824   69.1776   -3.1005 H   0  0  0  0  0  0  0  0  0  0  0  0
   22.2754   71.5650   -4.5047 O   0  0  0  0  0  0  0  0  0  0  0  0
   23.3193   71.9001   -3.3169 P   0  0  2  0  0  0  0  0  0  0  0  0
   24.0215   73.2697   -3.8155 O   0  0  0  0  0  0  0  0  0  0  0  0
   24.2798   70.7880   -3.0098 O   0  0  0  0  0  0  0  0  0  0  0  0
   22.3929   72.3465   -2.0728 O   0  0  0  0  0  0  0  0  0  0  0  0
   21.8197   71.2262   -0.0646 O   0  0  0  0  0  0  0  0  0  0  0  0
   18.1967   73.0376   -0.8668 O   0  0  0  0  0  0  0  0  0  0  0  0
   19.8263   74.0177    1.2853 O   0  0  0  0  0  0  0  0  0  0  0  0
   19.7849   71.9623   -3.0350 O   0  0  0  0  0  0  0  0  0  0  0  0
   19.6227   72.9330   -0.8366 C   0  0  1  0  0  0  0  0  0  0  0  0
   20.0616   72.7793    0.6210 C   0  0  1  0  0  0  0  0  0  0  0  0
   20.0517   71.7186   -1.6581 C   0  0  2  0  0  0  0  0  0  0  0  0
   21.5444   72.3954    0.7156 C   0  0  1  0  0  0  0  0  0  0  0  0
   21.5325   71.3934   -1.4544 C   0  0  1  0  0  0  0  0  0  0  0  0
   17.9178   73.8070   -0.3475 H   0  0  0  0  0  0  0  0  0  0  0  0
   18.8865   74.2488    1.2178 H   0  0  0  0  0  0  0  0  0  0  0  0
   18.8443   72.1667   -3.1508 H   0  0  0  0  0  0  0  0  0  0  0  0
   20.8007   72.0190    2.9548 O   0  0  0  0  0  0  0  0  0  0  0  0
   21.9639   72.0833    2.1504 C   0  0  0  0  0  0  0  0  0  0  0  0
   21.0524   71.8207    3.8708 H   0  0  0  0  0  0  0  0  0  0  0  0
 25 28  1  0
 25 24  1  0
 25 26  1  6
 25 27  2  0
  1  4  1  0
  1 24  1  0
  1  2  1  1
  1  3  2  0
  6 11  1  0
  6 12  1  0
 29 36  1  0
 29 37  1  0
  9  7  1  6
  7 13  1  0
 10  8  1  6
  8 14  1  0
 37 28  1  1
  4  5  1  0
 33 30  1  1
 30 38  1  0
 34 31  1  1
 31 39  1  0
 35 32  1  6
 32 40  1  0
 41 42  1  0
 41 43  1  0
 15 19  2  0
 16 22  2  0
 12 17  1  1
 17 19  1  0
 17 20  1  0
 18 19  1  0
 18 22  1  0
 18 23  1  0
  9 10  1  0
  9 11  1  0
 10 12  1  0
 11  5  1  1
 33 34  1  0
 33 35  1  0
 34 36  1  0
 35 37  1  0
 36 42  1  1
 20 21  2  0
 21 22  1  0
M  CHG  2   2  -1  26  -1
M  END
>  <COMPND>  (219) 
    8629 

>  <AUTHOR>  (219) 
    GENERATED BY OPEN BABEL 3.1.1

>  <MASTER>  (219) 
        0    0    0    0    0    0    0    0   58    0   58    0

>  <minimizedAffinity>  (219) 
-7.65700

>  <CNNscore>  (219) 
0.4922100008

>  <CNNaffinity>  (219) 
4.1766271591

>  <CNN_VS>  (219) 
2.0557775497

>  <CNNaffinity_variance>  (219) 
0.5193060637

$$$$
220
     RDKit          3D

 43 45  0  0  0  0  0  0  0  0999 V2000
   21.0347   72.2166   -3.0702 P   0  0  2  0  0  0  0  0  0  0  0  0
   21.4548   70.6550   -3.1194 O   0  0  0  0  0  0  0  0  0  0  0  0
   21.4282   73.0170   -4.2769 O   0  0  0  0  0  0  0  0  0  0  0  0
   21.6309   72.7350   -1.6582 O   0  0  0  0  0  0  0  0  0  0  0  0
   22.9585   72.3795   -1.3136 C   0  0  0  0  0  0  0  0  0  0  0  0
   24.1358   71.1816    0.4048 O   0  0  0  0  0  0  0  0  0  0  0  0
   21.5066   69.8900    1.0450 O   0  0  0  0  0  0  0  0  0  0  0  0
   21.7206   71.7955    2.9840 O   0  0  0  0  0  0  0  0  0  0  0  0
   21.7764   71.2253    0.6212 C   0  0  1  0  0  0  0  0  0  0  0  0
   22.3811   72.0251    1.7561 C   0  0  2  0  0  0  0  0  0  0  0  0
   22.9235   71.1770   -0.3804 C   0  0  1  0  0  0  0  0  0  0  0  0
   23.8165   71.5275    1.7625 C   0  0  2  0  0  0  0  0  0  0  0  0
   20.7771   69.8953    1.6851 H   0  0  0  0  0  0  0  0  0  0  0  0
   20.8115   72.1294    2.9297 H   0  0  0  0  0  0  0  0  0  0  0  0
   26.4646   70.9943    2.5880 O   0  0  0  0  0  0  0  0  0  0  0  0
   27.2716   75.4404    3.4947 O   0  0  0  0  0  0  0  0  0  0  0  0
   24.7407   72.5270    2.2187 N   0  0  0  0  0  0  0  0  0  0  0  0
   26.8643   73.2086    3.0386 N   0  0  0  0  0  0  0  0  0  0  0  0
   26.0473   72.1540    2.6115 C   0  0  0  0  0  0  0  0  0  0  0  0
   24.3487   73.8601    2.2729 C   0  0  0  0  0  0  0  0  0  0  0  0
   25.1395   74.8536    2.6839 C   0  0  0  0  0  0  0  0  0  0  0  0
   26.5202   74.5491    3.1116 C   0  0  0  0  0  0  0  0  0  0  0  0
   27.7788   72.9725    3.3175 H   0  0  0  0  0  0  0  0  0  0  0  0
   19.4434   72.1563   -2.7926 O   0  0  0  0  0  0  0  0  0  0  0  0
   18.3515   71.0100   -3.1192 P   0  0  2  0  0  0  0  0  0  0  0  0
   16.9397   71.7698   -2.9022 O   0  0  0  0  0  0  0  0  0  0  0  0
   18.5121   69.7578   -2.3068 O   0  0  0  0  0  0  0  0  0  0  0  0
   18.4550   70.7900   -4.7148 O   0  0  0  0  0  0  0  0  0  0  0  0
   19.2756   72.2772   -6.3675 O   0  0  0  0  0  0  0  0  0  0  0  0
   16.2843   70.4504   -8.5505 O   0  0  0  0  0  0  0  0  0  0  0  0
   19.0317   69.8393   -9.1217 O   0  0  0  0  0  0  0  0  0  0  0  0
   15.8621   71.0624   -5.7529 O   0  0  0  0  0  0  0  0  0  0  0  0
   17.3333   70.5191   -7.5808 C   0  0  1  0  0  0  0  0  0  0  0  0
   18.6224   70.9268   -8.2970 C   0  0  1  0  0  0  0  0  0  0  0  0
   16.9615   71.5485   -6.5153 C   0  0  2  0  0  0  0  0  0  0  0  0
   19.7266   71.2801   -7.2917 C   0  0  1  0  0  0  0  0  0  0  0  0
   18.1444   71.8645   -5.5982 C   0  0  1  0  0  0  0  0  0  0  0  0
   16.5138   69.7981   -9.2297 H   0  0  0  0  0  0  0  0  0  0  0  0
   18.3253   69.6259   -9.7516 H   0  0  0  0  0  0  0  0  0  0  0  0
   15.1197   70.8664   -6.3448 H   0  0  0  0  0  0  0  0  0  0  0  0
   22.0562   71.7655   -7.0763 O   0  0  0  0  0  0  0  0  0  0  0  0
   20.9694   71.8399   -7.9804 C   0  0  0  0  0  0  0  0  0  0  0  0
   22.8542   72.1181   -7.5012 H   0  0  0  0  0  0  0  0  0  0  0  0
 25 28  1  0
 25 24  1  0
 25 26  1  6
 25 27  2  0
  1  4  1  0
  1 24  1  0
  1  2  1  6
  1  3  2  0
  6 11  1  0
  6 12  1  0
 29 36  1  0
 29 37  1  0
  9  7  1  1
  7 13  1  0
 10  8  1  1
  8 14  1  0
 37 28  1  6
  4  5  1  0
 33 30  1  6
 30 38  1  0
 34 31  1  1
 31 39  1  0
 35 32  1  1
 32 40  1  0
 41 42  1  0
 41 43  1  0
 15 19  2  0
 16 22  2  0
 12 17  1  6
 17 19  1  0
 17 20  1  0
 18 19  1  0
 18 22  1  0
 18 23  1  0
  9 10  1  0
  9 11  1  0
 10 12  1  0
 11  5  1  6
 33 34  1  0
 33 35  1  0
 34 36  1  0
 35 37  1  0
 36 42  1  6
 20 21  2  0
 21 22  1  0
M  CHG  2   2  -1  26  -1
M  END
>  <COMPND>  (220) 
    8629 

>  <AUTHOR>  (220) 
    GENERATED BY OPEN BABEL 3.1.1

>  <MASTER>  (220) 
        0    0    0    0    0    0    0    0   58    0   58    0

>  <minimizedAffinity>  (220) 
-7.11299

>  <CNNscore>  (220) 
0.4770938754

>  <CNNaffinity>  (220) 
4.1515188217

>  <CNN_VS>  (220) 
1.9806642532

>  <CNNaffinity_variance>  (220) 
0.1675269157

$$$$
221
     RDKit          3D

 43 45  0  0  0  0  0  0  0  0999 V2000
   20.3599   71.2286   -1.4228 P   0  0  2  0  0  0  0  0  0  0  0  0
   20.8220   70.5321   -0.0377 O   0  0  0  0  0  0  0  0  0  0  0  0
   19.7668   72.5991   -1.2761 O   0  0  0  0  0  0  0  0  0  0  0  0
   19.4057   70.1206   -2.1153 O   0  0  0  0  0  0  0  0  0  0  0  0
   19.1189   70.2440   -3.4975 C   0  0  0  0  0  0  0  0  0  0  0  0
   17.5116   71.3129   -4.9285 O   0  0  0  0  0  0  0  0  0  0  0  0
   15.4191   69.8419   -3.3637 O   0  0  0  0  0  0  0  0  0  0  0  0
   15.6302   68.3414   -5.6310 O   0  0  0  0  0  0  0  0  0  0  0  0
   16.7261   69.4159   -3.7453 C   0  0  1  0  0  0  0  0  0  0  0  0
   16.7607   69.0843   -5.2226 C   0  0  2  0  0  0  0  0  0  0  0  0
   17.6539   70.6219   -3.6681 C   0  0  1  0  0  0  0  0  0  0  0  0
   16.8122   70.4651   -5.8542 C   0  0  2  0  0  0  0  0  0  0  0  0
   14.8087   69.0885   -3.4049 H   0  0  0  0  0  0  0  0  0  0  0  0
   15.6428   67.4714   -5.2024 H   0  0  0  0  0  0  0  0  0  0  0  0
   15.5543   70.5588   -8.3815 O   0  0  0  0  0  0  0  0  0  0  0  0
   19.5936   70.4694  -10.5990 O   0  0  0  0  0  0  0  0  0  0  0  0
   17.5110   70.4678   -7.1085 N   0  0  0  0  0  0  0  0  0  0  0  0
   17.5666   70.5144   -9.4836 N   0  0  0  0  0  0  0  0  0  0  0  0
   16.7849   70.5158   -8.3213 C   0  0  0  0  0  0  0  0  0  0  0  0
   18.9008   70.4236   -7.1276 C   0  0  0  0  0  0  0  0  0  0  0  0
   19.6313   70.4216   -8.2445 C   0  0  0  0  0  0  0  0  0  0  0  0
   18.9500   70.4701   -9.5542 C   0  0  0  0  0  0  0  0  0  0  0  0
   17.0824   70.5470  -10.3405 H   0  0  0  0  0  0  0  0  0  0  0  0
   21.7001   71.1686   -2.3246 O   0  0  0  0  0  0  0  0  0  0  0  0
   22.9404   72.1973   -2.4527 P   0  0  2  0  0  0  0  0  0  0  0  0
   22.2450   73.5501   -3.0039 O   0  0  0  0  0  0  0  0  0  0  0  0
   24.0727   71.6936   -3.3000 O   0  0  0  0  0  0  0  0  0  0  0  0
   23.3463   72.5395   -0.9285 O   0  0  0  0  0  0  0  0  0  0  0  0
   22.0759   73.4926    0.8305 O   0  0  0  0  0  0  0  0  0  0  0  0
   25.7233   75.2614    1.6173 O   0  0  0  0  0  0  0  0  0  0  0  0
   24.7535   73.1824    3.3451 O   0  0  0  0  0  0  0  0  0  0  0  0
   24.8556   74.8976   -1.1202 O   0  0  0  0  0  0  0  0  0  0  0  0
   24.8484   74.2141    1.1893 C   0  0  1  0  0  0  0  0  0  0  0  0
   23.9477   73.8312    2.3653 C   0  0  1  0  0  0  0  0  0  0  0  0
   24.0125   74.7120    0.0117 C   0  0  2  0  0  0  0  0  0  0  0  0
   22.8090   72.9071    1.9129 C   0  0  1  0  0  0  0  0  0  0  0  0
   22.8780   73.7429   -0.3254 C   0  0  1  0  0  0  0  0  0  0  0  0
   26.2573   74.9516    2.3646 H   0  0  0  0  0  0  0  0  0  0  0  0
   25.4689   73.7763    3.6219 H   0  0  0  0  0  0  0  0  0  0  0  0
   25.5695   75.5133   -0.8941 H   0  0  0  0  0  0  0  0  0  0  0  0
   20.6960   71.9541    2.4924 O   0  0  0  0  0  0  0  0  0  0  0  0
   21.8091   72.6398    3.0357 C   0  0  0  0  0  0  0  0  0  0  0  0
   20.0513   71.7769    3.1958 H   0  0  0  0  0  0  0  0  0  0  0  0
 25 28  1  0
 25 24  1  0
 25 26  1  6
 25 27  2  0
  1  4  1  0
  1 24  1  0
  1  2  1  1
  1  3  2  0
  6 11  1  0
  6 12  1  0
 29 36  1  0
 29 37  1  0
  9  7  1  6
  7 13  1  0
 10  8  1  6
  8 14  1  0
 37 28  1  1
  4  5  1  0
 33 30  1  1
 30 38  1  0
 34 31  1  1
 31 39  1  0
 35 32  1  6
 32 40  1  0
 41 42  1  0
 41 43  1  0
 15 19  2  0
 16 22  2  0
 12 17  1  6
 17 19  1  0
 17 20  1  0
 18 19  1  0
 18 22  1  0
 18 23  1  0
  9 10  1  0
  9 11  1  0
 10 12  1  0
 11  5  1  6
 33 34  1  0
 33 35  1  0
 34 36  1  0
 35 37  1  0
 36 42  1  1
 20 21  2  0
 21 22  1  0
M  CHG  2   2  -1  26  -1
M  END
>  <COMPND>  (221) 
    8629 

>  <AUTHOR>  (221) 
    GENERATED BY OPEN BABEL 3.1.1

>  <MASTER>  (221) 
        0    0    0    0    0    0    0    0   58    0   58    0

>  <minimizedAffinity>  (221) 
-7.78253

>  <CNNscore>  (221) 
0.9334065318

>  <CNNaffinity>  (221) 
4.7694940567

>  <CNN_VS>  (221) 
4.4518771172

>  <CNNaffinity_variance>  (221) 
0.1007200032

$$$$
222
     RDKit          3D

 43 45  0  0  0  0  0  0  0  0999 V2000
   20.6409   71.3254   -1.5359 P   0  0  2  0  0  0  0  0  0  0  0  0
   21.3347   70.5859   -0.2752 O   0  0  0  0  0  0  0  0  0  0  0  0
   20.1502   72.7168   -1.2629 O   0  0  0  0  0  0  0  0  0  0  0  0
   19.5205   70.2708   -2.0364 O   0  0  0  0  0  0  0  0  0  0  0  0
   19.1751   70.2526   -3.4105 C   0  0  0  0  0  0  0  0  0  0  0  0
   17.5364   71.3354   -4.7947 O   0  0  0  0  0  0  0  0  0  0  0  0
   15.4838   69.7853   -3.2536 O   0  0  0  0  0  0  0  0  0  0  0  0
   15.6970   68.3545   -5.5653 O   0  0  0  0  0  0  0  0  0  0  0  0
   16.7937   69.3923   -3.6596 C   0  0  1  0  0  0  0  0  0  0  0  0
   16.8191   69.1041   -5.1462 C   0  0  2  0  0  0  0  0  0  0  0  0
   17.7024   70.6108   -3.5562 C   0  0  1  0  0  0  0  0  0  0  0  0
   16.8418   70.5032   -5.7380 C   0  0  2  0  0  0  0  0  0  0  0  0
   14.8854   69.0234   -3.3109 H   0  0  0  0  0  0  0  0  0  0  0  0
   15.7281   67.4728   -5.1623 H   0  0  0  0  0  0  0  0  0  0  0  0
   15.5574   70.5796   -8.2524 O   0  0  0  0  0  0  0  0  0  0  0  0
   19.5758   70.6942  -10.5065 O   0  0  0  0  0  0  0  0  0  0  0  0
   17.5280   70.5537   -6.9982 N   0  0  0  0  0  0  0  0  0  0  0  0
   17.5593   70.6368   -9.3727 N   0  0  0  0  0  0  0  0  0  0  0  0
   16.7892   70.5882   -8.2037 C   0  0  0  0  0  0  0  0  0  0  0  0
   18.9182   70.5689   -7.0301 C   0  0  0  0  0  0  0  0  0  0  0  0
   19.6377   70.6141   -8.1533 C   0  0  0  0  0  0  0  0  0  0  0  0
   18.9426   70.6525   -9.4561 C   0  0  0  0  0  0  0  0  0  0  0  0
   17.0661   70.6611  -10.2247 H   0  0  0  0  0  0  0  0  0  0  0  0
   21.7735   71.2247   -2.6847 O   0  0  0  0  0  0  0  0  0  0  0  0
   23.1933   71.9808   -2.8449 P   0  0  2  0  0  0  0  0  0  0  0  0
   24.2498   70.7625   -2.9754 O   0  0  0  0  0  0  0  0  0  0  0  0
   23.5011   72.9520   -1.7421 O   0  0  0  0  0  0  0  0  0  0  0  0
   23.1429   72.6364   -4.3188 O   0  0  0  0  0  0  0  0  0  0  0  0
   21.0385   73.7250   -4.3745 O   0  0  0  0  0  0  0  0  0  0  0  0
   22.4466   74.8203   -8.0985 O   0  0  0  0  0  0  0  0  0  0  0  0
   22.3152   76.7771   -6.0004 O   0  0  0  0  0  0  0  0  0  0  0  0
   22.9742   72.1627   -7.0796 O   0  0  0  0  0  0  0  0  0  0  0  0
   22.5503   74.5043   -6.7075 C   0  0  1  0  0  0  0  0  0  0  0  0
   21.6907   75.4986   -5.9245 C   0  0  1  0  0  0  0  0  0  0  0  0
   22.0594   73.0754   -6.4824 C   0  0  2  0  0  0  0  0  0  0  0  0
   21.5370   75.0651   -4.4604 C   0  0  1  0  0  0  0  0  0  0  0  0
   21.8942   72.7628   -4.9941 C   0  0  1  0  0  0  0  0  0  0  0  0
   22.7572   75.7262   -8.2483 H   0  0  0  0  0  0  0  0  0  0  0  0
   22.4068   77.0388   -6.9301 H   0  0  0  0  0  0  0  0  0  0  0  0
   23.0698   72.3708   -8.0216 H   0  0  0  0  0  0  0  0  0  0  0  0
   20.2749   75.3503   -2.4517 O   0  0  0  0  0  0  0  0  0  0  0  0
   20.5563   75.9554   -3.7003 C   0  0  0  0  0  0  0  0  0  0  0  0
   19.6522   75.9060   -1.9568 H   0  0  0  0  0  0  0  0  0  0  0  0
 25 28  1  0
 25 24  1  0
 25 26  1  6
 25 27  2  0
  1  4  1  0
  1 24  1  0
  1  2  1  1
  1  3  2  0
  6 11  1  0
  6 12  1  0
 29 36  1  0
 29 37  1  0
  9  7  1  6
  7 13  1  0
 10  8  1  6
  8 14  1  0
 37 28  1  1
  4  5  1  0
 33 30  1  6
 30 38  1  0
 34 31  1  1
 31 39  1  0
 35 32  1  1
 32 40  1  0
 41 42  1  0
 41 43  1  0
 15 19  2  0
 16 22  2  0
 12 17  1  6
 17 19  1  0
 17 20  1  0
 18 19  1  0
 18 22  1  0
 18 23  1  0
  9 10  1  0
  9 11  1  0
 10 12  1  0
 11  5  1  6
 33 34  1  0
 33 35  1  0
 34 36  1  0
 35 37  1  0
 36 42  1  1
 20 21  2  0
 21 22  1  0
M  CHG  2   2  -1  26  -1
M  END
>  <COMPND>  (222) 
    8629 

>  <AUTHOR>  (222) 
    GENERATED BY OPEN BABEL 3.1.1

>  <MASTER>  (222) 
        0    0    0    0    0    0    0    0   58    0   58    0

>  <minimizedAffinity>  (222) 
-7.93892

>  <CNNscore>  (222) 
0.9270912409

>  <CNNaffinity>  (222) 
4.7148876190

>  <CNN_VS>  (222) 
4.3711309433

>  <CNNaffinity_variance>  (222) 
0.5061891079

$$$$
223
     RDKit          3D

 43 45  0  0  0  0  0  0  0  0999 V2000
   20.5086   73.4198   -3.0808 P   0  0  2  0  0  0  0  0  0  0  0  0
   20.0671   72.9689   -1.5911 O   0  0  0  0  0  0  0  0  0  0  0  0
   20.3672   74.8858   -3.3673 O   0  0  0  0  0  0  0  0  0  0  0  0
   19.6719   72.4306   -4.0500 O   0  0  0  0  0  0  0  0  0  0  0  0
   19.0296   71.3055   -3.4759 C   0  0  0  0  0  0  0  0  0  0  0  0
   17.2985   71.9056   -5.0307 O   0  0  0  0  0  0  0  0  0  0  0  0
   15.4294   70.3800   -3.2501 O   0  0  0  0  0  0  0  0  0  0  0  0
   15.8890   68.6170   -5.2792 O   0  0  0  0  0  0  0  0  0  0  0  0
   16.7898   70.1031   -3.5788 C   0  0  1  0  0  0  0  0  0  0  0  0
   16.8913   69.5712   -4.9931 C   0  0  2  0  0  0  0  0  0  0  0  0
   17.5268   71.4323   -3.6852 C   0  0  1  0  0  0  0  0  0  0  0  0
   16.7443   70.8386   -5.8177 C   0  0  2  0  0  0  0  0  0  0  0  0
   14.9385   69.5461   -3.1764 H   0  0  0  0  0  0  0  0  0  0  0  0
   16.0258   67.8295   -4.7298 H   0  0  0  0  0  0  0  0  0  0  0  0
   15.5005   70.6007   -8.3424 O   0  0  0  0  0  0  0  0  0  0  0  0
   19.5521   70.5627  -10.5389 O   0  0  0  0  0  0  0  0  0  0  0  0
   17.4500   70.7649   -7.0659 N   0  0  0  0  0  0  0  0  0  0  0  0
   17.5189   70.5822   -9.4341 N   0  0  0  0  0  0  0  0  0  0  0  0
   16.7307   70.6456   -8.2779 C   0  0  0  0  0  0  0  0  0  0  0  0
   18.8398   70.8112   -7.0800 C   0  0  0  0  0  0  0  0  0  0  0  0
   19.5766   70.7483   -8.1910 C   0  0  0  0  0  0  0  0  0  0  0  0
   18.9026   70.6230   -9.4995 C   0  0  0  0  0  0  0  0  0  0  0  0
   17.0395   70.4985  -10.2902 H   0  0  0  0  0  0  0  0  0  0  0  0
   22.0180   72.8536   -3.1995 O   0  0  0  0  0  0  0  0  0  0  0  0
   22.7074   71.5303   -2.5778 P   0  0  2  0  0  0  0  0  0  0  0  0
   24.1542   71.4911   -3.3008 O   0  0  0  0  0  0  0  0  0  0  0  0
   21.8971   70.2776   -2.7456 O   0  0  0  0  0  0  0  0  0  0  0  0
   23.0283   71.9189   -1.0445 O   0  0  0  0  0  0  0  0  0  0  0  0
   24.2869   70.9853    0.7334 O   0  0  0  0  0  0  0  0  0  0  0  0
   20.7987   71.8390    2.7715 O   0  0  0  0  0  0  0  0  0  0  0  0
   23.1407   73.4340    3.2391 O   0  0  0  0  0  0  0  0  0  0  0  0
   20.6778   70.8494    0.0539 O   0  0  0  0  0  0  0  0  0  0  0  0
   21.8242   72.0520    1.7977 C   0  0  1  0  0  0  0  0  0  0  0  0
   23.1590   72.1977    2.5310 C   0  0  1  0  0  0  0  0  0  0  0  0
   21.8621   70.8596    0.8438 C   0  0  2  0  0  0  0  0  0  0  0  0
   24.3375   72.1619    1.5487 C   0  0  1  0  0  0  0  0  0  0  0  0
   23.0990   70.8949   -0.0557 C   0  0  1  0  0  0  0  0  0  0  0  0
   20.7690   72.5928    3.3801 H   0  0  0  0  0  0  0  0  0  0  0  0
   22.3917   73.4439    3.8556 H   0  0  0  0  0  0  0  0  0  0  0  0
   19.9021   70.8267    0.6348 H   0  0  0  0  0  0  0  0  0  0  0  0
   26.1067   70.8027    2.4041 O   0  0  0  0  0  0  0  0  0  0  0  0
   25.6833   72.1471    2.2703 C   0  0  0  0  0  0  0  0  0  0  0  0
   26.9622   70.7778    2.8614 H   0  0  0  0  0  0  0  0  0  0  0  0
 25 28  1  0
 25 24  1  0
 25 26  1  6
 25 27  2  0
  1  4  1  0
  1 24  1  0
  1  2  1  1
  1  3  2  0
  6 11  1  0
  6 12  1  0
 29 36  1  0
 29 37  1  0
  9  7  1  6
  7 13  1  0
 10  8  1  6
  8 14  1  0
 37 28  1  6
  4  5  1  0
 33 30  1  1
 30 38  1  0
 34 31  1  6
 31 39  1  0
 35 32  1  6
 32 40  1  0
 41 42  1  0
 41 43  1  0
 15 19  2  0
 16 22  2  0
 12 17  1  6
 17 19  1  0
 17 20  1  0
 18 19  1  0
 18 22  1  0
 18 23  1  0
  9 10  1  0
  9 11  1  0
 10 12  1  0
 11  5  1  6
 33 34  1  0
 33 35  1  0
 34 36  1  0
 35 37  1  0
 36 42  1  1
 20 21  2  0
 21 22  1  0
M  CHG  2   2  -1  26  -1
M  END
>  <COMPND>  (223) 
    8629 

>  <AUTHOR>  (223) 
    GENERATED BY OPEN BABEL 3.1.1

>  <MASTER>  (223) 
        0    0    0    0    0    0    0    0   58    0   58    0

>  <minimizedAffinity>  (223) 
-8.06832

>  <CNNscore>  (223) 
0.8748152256

>  <CNNaffinity>  (223) 
4.6717333794

>  <CNN_VS>  (223) 
4.0869035721

>  <CNNaffinity_variance>  (223) 
0.1038545370

$$$$
224
     RDKit          3D

 43 45  0  0  0  0  0  0  0  0999 V2000
   20.3742   71.5452   -0.9703 P   0  0  2  0  0  0  0  0  0  0  0  0
   20.7415   70.4843    0.1945 O   0  0  0  0  0  0  0  0  0  0  0  0
   19.3299   72.5570   -0.5997 O   0  0  0  0  0  0  0  0  0  0  0  0
   20.0289   70.6150   -2.2483 O   0  0  0  0  0  0  0  0  0  0  0  0
   19.7097   71.2450   -3.4767 C   0  0  0  0  0  0  0  0  0  0  0  0
   17.8857   72.0333   -4.8277 O   0  0  0  0  0  0  0  0  0  0  0  0
   16.0819   70.6894   -2.8451 O   0  0  0  0  0  0  0  0  0  0  0  0
   16.1279   68.9083   -4.9095 O   0  0  0  0  0  0  0  0  0  0  0  0
   17.3612   70.2783   -3.3243 C   0  0  1  0  0  0  0  0  0  0  0  0
   17.2483   69.7524   -4.7400 C   0  0  2  0  0  0  0  0  0  0  0  0
   18.2139   71.5264   -3.5156 C   0  0  1  0  0  0  0  0  0  0  0  0
   17.1404   71.0361   -5.5453 C   0  0  2  0  0  0  0  0  0  0  0  0
   15.5196   69.9092   -2.7149 H   0  0  0  0  0  0  0  0  0  0  0  0
   16.2441   68.1057   -4.3775 H   0  0  0  0  0  0  0  0  0  0  0  0
   15.6674   70.2200   -7.8129 O   0  0  0  0  0  0  0  0  0  0  0  0
   19.3547   70.5584  -10.5571 O   0  0  0  0  0  0  0  0  0  0  0  0
   17.6903   70.9027   -6.8649 N   0  0  0  0  0  0  0  0  0  0  0  0
   17.5045   70.3894   -9.1775 N   0  0  0  0  0  0  0  0  0  0  0  0
   16.8651   70.4850   -7.9349 C   0  0  0  0  0  0  0  0  0  0  0  0
   19.0336   71.1851   -7.0876 C   0  0  0  0  0  0  0  0  0  0  0  0
   19.6284   71.0877   -8.2784 C   0  0  0  0  0  0  0  0  0  0  0  0
   18.8368   70.6578   -9.4491 C   0  0  0  0  0  0  0  0  0  0  0  0
   16.9494   70.0998   -9.9377 H   0  0  0  0  0  0  0  0  0  0  0  0
   21.8126   72.1736   -1.3564 O   0  0  0  0  0  0  0  0  0  0  0  0
   23.1596   72.3580   -0.4821 P   0  0  2  0  0  0  0  0  0  0  0  0
   23.8490   73.6682   -1.1345 O   0  0  0  0  0  0  0  0  0  0  0  0
   24.0431   71.1446   -0.4497 O   0  0  0  0  0  0  0  0  0  0  0  0
   22.6427   72.8479    0.9663 O   0  0  0  0  0  0  0  0  0  0  0  0
   24.3330   72.4995    2.5906 O   0  0  0  0  0  0  0  0  0  0  0  0
   21.2487   73.6490    5.0840 O   0  0  0  0  0  0  0  0  0  0  0  0
   23.4333   75.4514    4.6070 O   0  0  0  0  0  0  0  0  0  0  0  0
   20.7024   71.9670    2.7923 O   0  0  0  0  0  0  0  0  0  0  0  0
   22.0259   73.6579    3.8834 C   0  0  1  0  0  0  0  0  0  0  0  0
   23.4542   74.0748    4.2398 C   0  0  1  0  0  0  0  0  0  0  0  0
   22.0114   72.2594    3.2691 C   0  0  2  0  0  0  0  0  0  0  0  0
   24.4076   73.8514    3.0582 C   0  0  1  0  0  0  0  0  0  0  0  0
   23.0300   72.1300    2.1351 C   0  0  1  0  0  0  0  0  0  0  0  0
   21.2534   74.5342    5.4788 H   0  0  0  0  0  0  0  0  0  0  0  0
   22.8272   75.5788    5.3538 H   0  0  0  0  0  0  0  0  0  0  0  0
   20.0670   72.0520    3.5196 H   0  0  0  0  0  0  0  0  0  0  0  0
   25.9308   74.3126    4.8403 O   0  0  0  0  0  0  0  0  0  0  0  0
   25.8630   74.1115    3.4406 C   0  0  0  0  0  0  0  0  0  0  0  0
   26.8514   74.4789    5.0982 H   0  0  0  0  0  0  0  0  0  0  0  0
 25 28  1  0
 25 24  1  0
 25 26  1  6
 25 27  2  0
  1  4  1  0
  1 24  1  0
  1  2  1  1
  1  3  2  0
  6 11  1  0
  6 12  1  0
 29 36  1  0
 29 37  1  0
  9  7  1  6
  7 13  1  0
 10  8  1  1
  8 14  1  0
 37 28  1  6
  4  5  1  0
 33 30  1  1
 30 38  1  0
 34 31  1  6
 31 39  1  0
 35 32  1  6
 32 40  1  0
 41 42  1  0
 41 43  1  0
 15 19  2  0
 16 22  2  0
 12 17  1  6
 17 19  1  0
 17 20  1  0
 18 19  1  0
 18 22  1  0
 18 23  1  0
  9 10  1  0
  9 11  1  0
 10 12  1  0
 11  5  1  6
 33 34  1  0
 33 35  1  0
 34 36  1  0
 35 37  1  0
 36 42  1  1
 20 21  2  0
 21 22  1  0
M  CHG  2   2  -1  26  -1
M  END
>  <COMPND>  (224) 
    8629 

>  <AUTHOR>  (224) 
    GENERATED BY OPEN BABEL 3.1.1

>  <MASTER>  (224) 
        0    0    0    0    0    0    0    0   58    0   58    0

>  <minimizedAffinity>  (224) 
-7.44502

>  <CNNscore>  (224) 
0.8720467687

>  <CNNaffinity>  (224) 
4.5387277603

>  <CNN_VS>  (224) 
3.9579827785

>  <CNNaffinity_variance>  (224) 
0.0598129444

$$$$
225
     RDKit          3D

 43 45  0  0  0  0  0  0  0  0999 V2000
   23.0147   71.3723   -2.4011 P   0  0  2  0  0  0  0  0  0  0  0  0
   22.6818   72.8790   -2.8873 O   0  0  0  0  0  0  0  0  0  0  0  0
   24.2211   70.7515   -3.0420 O   0  0  0  0  0  0  0  0  0  0  0  0
   21.6204   70.5790   -2.6124 O   0  0  0  0  0  0  0  0  0  0  0  0
   20.9365   70.7301   -3.8442 C   0  0  0  0  0  0  0  0  0  0  0  0
   18.9336   71.6896   -4.7615 O   0  0  0  0  0  0  0  0  0  0  0  0
   17.4838   70.3600   -2.4985 O   0  0  0  0  0  0  0  0  0  0  0  0
   16.9880   68.6816   -4.5898 O   0  0  0  0  0  0  0  0  0  0  0  0
   18.6080   69.8977   -3.2453 C   0  0  1  0  0  0  0  0  0  0  0  0
   18.1741   69.4488   -4.6250 C   0  0  2  0  0  0  0  0  0  0  0  0
   19.4866   71.1010   -3.5640 C   0  0  1  0  0  0  0  0  0  0  0  0
   17.9920   70.7742   -5.3449 C   0  0  2  0  0  0  0  0  0  0  0  0
   16.9081   69.6090   -2.2829 H   0  0  0  0  0  0  0  0  0  0  0  0
   17.1552   67.8487   -4.1218 H   0  0  0  0  0  0  0  0  0  0  0  0
   16.0367   70.1570   -7.2875 O   0  0  0  0  0  0  0  0  0  0  0  0
   19.1028   70.4103  -10.7192 O   0  0  0  0  0  0  0  0  0  0  0  0
   18.2516   70.6727   -6.7533 N   0  0  0  0  0  0  0  0  0  0  0  0
   17.5649   70.2838   -8.9947 N   0  0  0  0  0  0  0  0  0  0  0  0
   17.1997   70.3566   -7.6444 C   0  0  0  0  0  0  0  0  0  0  0  0
   19.5374   70.8860   -7.2381 C   0  0  0  0  0  0  0  0  0  0  0  0
   19.8696   70.8116   -8.5286 C   0  0  0  0  0  0  0  0  0  0  0  0
   18.8291   70.4862   -9.5253 C   0  0  0  0  0  0  0  0  0  0  0  0
   16.8486   70.0645   -9.6338 H   0  0  0  0  0  0  0  0  0  0  0  0
   23.1081   71.5212   -0.7943 O   0  0  0  0  0  0  0  0  0  0  0  0
   21.9656   71.8031    0.3139 P   0  0  2  0  0  0  0  0  0  0  0  0
   21.7319   70.3492    0.9841 O   0  0  0  0  0  0  0  0  0  0  0  0
   20.7211   72.4399   -0.2335 O   0  0  0  0  0  0  0  0  0  0  0  0
   22.7099   72.6644    1.4581 O   0  0  0  0  0  0  0  0  0  0  0  0
   24.5312   72.2834    2.9259 O   0  0  0  0  0  0  0  0  0  0  0  0
   21.8868   74.0061    5.5888 O   0  0  0  0  0  0  0  0  0  0  0  0
   24.1743   75.4964    4.6975 O   0  0  0  0  0  0  0  0  0  0  0  0
   20.9125   72.1862    3.5594 O   0  0  0  0  0  0  0  0  0  0  0  0
   22.5178   73.8128    4.3200 C   0  0  1  0  0  0  0  0  0  0  0  0
   24.0126   74.0976    4.4794 C   0  0  1  0  0  0  0  0  0  0  0  0
   22.2905   72.3728    3.8637 C   0  0  2  0  0  0  0  0  0  0  0  0
   24.7963   73.6565    3.2359 C   0  0  1  0  0  0  0  0  0  0  0  0
   23.1536   72.0219    2.6504 C   0  0  1  0  0  0  0  0  0  0  0  0
   22.0269   74.9186    5.8840 H   0  0  0  0  0  0  0  0  0  0  0  0
   23.6741   75.7620    5.4852 H   0  0  0  0  0  0  0  0  0  0  0  0
   20.3768   72.4113    4.3354 H   0  0  0  0  0  0  0  0  0  0  0  0
   26.9218   72.5960    2.9784 O   0  0  0  0  0  0  0  0  0  0  0  0
   26.3048   73.7856    3.4350 C   0  0  0  0  0  0  0  0  0  0  0  0
   27.8824   72.6640    3.0987 H   0  0  0  0  0  0  0  0  0  0  0  0
 25 28  1  0
 25 24  1  0
 25 26  1  1
 25 27  2  0
  1  4  1  0
  1 24  1  0
  1  2  1  6
  1  3  2  0
  6 11  1  0
  6 12  1  0
 29 36  1  0
 29 37  1  0
  9  7  1  1
  7 13  1  0
 10  8  1  1
  8 14  1  0
 37 28  1  6
  4  5  1  0
 33 30  1  1
 30 38  1  0
 34 31  1  6
 31 39  1  0
 35 32  1  6
 32 40  1  0
 41 42  1  0
 41 43  1  0
 15 19  2  0
 16 22  2  0
 12 17  1  6
 17 19  1  0
 17 20  1  0
 18 19  1  0
 18 22  1  0
 18 23  1  0
  9 10  1  0
  9 11  1  0
 10 12  1  0
 11  5  1  6
 33 34  1  0
 33 35  1  0
 34 36  1  0
 35 37  1  0
 36 42  1  1
 20 21  2  0
 21 22  1  0
M  CHG  2   2  -1  26  -1
M  END
>  <COMPND>  (225) 
    8629 

>  <AUTHOR>  (225) 
    GENERATED BY OPEN BABEL 3.1.1

>  <MASTER>  (225) 
        0    0    0    0    0    0    0    0   58    0   58    0

>  <minimizedAffinity>  (225) 
-7.98498

>  <CNNscore>  (225) 
0.8674980402

>  <CNNaffinity>  (225) 
4.6688547134

>  <CNN_VS>  (225) 
4.0502223969

>  <CNNaffinity_variance>  (225) 
0.0694200397

$$$$
226
     RDKit          3D

 43 45  0  0  0  0  0  0  0  0999 V2000
   22.4358   73.3974   -4.6164 P   0  0  2  0  0  0  0  0  0  0  0  0
   23.5231   74.5024   -5.0790 O   0  0  0  0  0  0  0  0  0  0  0  0
   22.2507   72.2528   -5.5689 O   0  0  0  0  0  0  0  0  0  0  0  0
   21.1094   74.2674   -4.2973 O   0  0  0  0  0  0  0  0  0  0  0  0
   20.1482   74.4361   -5.3246 C   0  0  0  0  0  0  0  0  0  0  0  0
   18.0089   73.5318   -5.9407 O   0  0  0  0  0  0  0  0  0  0  0  0
   17.6963   72.7976   -3.0503 O   0  0  0  0  0  0  0  0  0  0  0  0
   18.4182   70.4281   -4.1907 O   0  0  0  0  0  0  0  0  0  0  0  0
   18.8708   72.7939   -3.8602 C   0  0  1  0  0  0  0  0  0  0  0  0
   18.8459   71.6203   -4.8171 C   0  0  2  0  0  0  0  0  0  0  0  0
   18.7888   73.9815   -4.8111 C   0  0  1  0  0  0  0  0  0  0  0  0
   17.8751   72.1023   -5.8816 C   0  0  2  0  0  0  0  0  0  0  0  0
   17.7260   72.0481   -2.4344 H   0  0  0  0  0  0  0  0  0  0  0  0
   19.0688   70.1625   -3.5221 H   0  0  0  0  0  0  0  0  0  0  0  0
   15.9175   71.1962   -7.7051 O   0  0  0  0  0  0  0  0  0  0  0  0
   19.1026   70.0124  -10.8187 O   0  0  0  0  0  0  0  0  0  0  0  0
   18.1647   71.5529   -7.1761 N   0  0  0  0  0  0  0  0  0  0  0  0
   17.5050   70.6077   -9.2540 N   0  0  0  0  0  0  0  0  0  0  0  0
   17.1087   71.1264   -8.0147 C   0  0  0  0  0  0  0  0  0  0  0  0
   19.4837   71.4419   -7.6024 C   0  0  0  0  0  0  0  0  0  0  0  0
   19.8451   70.9437   -8.7867 C   0  0  0  0  0  0  0  0  0  0  0  0
   18.8026   70.4755   -9.7226 C   0  0  0  0  0  0  0  0  0  0  0  0
   16.7863   70.3039   -9.8548 H   0  0  0  0  0  0  0  0  0  0  0  0
   22.9536   72.9716   -3.1455 O   0  0  0  0  0  0  0  0  0  0  0  0
   22.9224   71.5482   -2.3800 P   0  0  2  0  0  0  0  0  0  0  0  0
   24.2723   70.8203   -2.8950 O   0  0  0  0  0  0  0  0  0  0  0  0
   21.6672   70.7559   -2.6049 O   0  0  0  0  0  0  0  0  0  0  0  0
   23.2178   71.9089   -0.8348 O   0  0  0  0  0  0  0  0  0  0  0  0
   24.4457   70.9164    0.9327 O   0  0  0  0  0  0  0  0  0  0  0  0
   20.9734   71.8288    2.9726 O   0  0  0  0  0  0  0  0  0  0  0  0
   23.3540   73.3557    3.4717 O   0  0  0  0  0  0  0  0  0  0  0  0
   20.8368   70.8838    0.2399 O   0  0  0  0  0  0  0  0  0  0  0  0
   22.0074   72.0300    2.0053 C   0  0  1  0  0  0  0  0  0  0  0  0
   23.3430   72.1302    2.7450 C   0  0  1  0  0  0  0  0  0  0  0  0
   22.0181   70.8516    1.0335 C   0  0  2  0  0  0  0  0  0  0  0  0
   24.5236   72.0789    1.7659 C   0  0  1  0  0  0  0  0  0  0  0  0
   23.2587   70.8686    0.1386 C   0  0  1  0  0  0  0  0  0  0  0  0
   20.9609   72.5738    3.5925 H   0  0  0  0  0  0  0  0  0  0  0  0
   22.6032   73.3756    4.0859 H   0  0  0  0  0  0  0  0  0  0  0  0
   20.0586   70.8723    0.8179 H   0  0  0  0  0  0  0  0  0  0  0  0
   26.3784   70.7035    2.3799 O   0  0  0  0  0  0  0  0  0  0  0  0
   25.8661   72.0185    2.4914 C   0  0  0  0  0  0  0  0  0  0  0  0
   27.2328   70.6502    2.8369 H   0  0  0  0  0  0  0  0  0  0  0  0
 25 28  1  0
 25 24  1  0
 25 26  1  6
 25 27  2  0
  1  4  1  0
  1 24  1  0
  1  2  1  6
  1  3  2  0
  6 11  1  0
  6 12  1  0
 29 36  1  0
 29 37  1  0
  9  7  1  1
  7 13  1  0
 10  8  1  1
  8 14  1  0
 37 28  1  6
  4  5  1  0
 33 30  1  1
 30 38  1  0
 34 31  1  6
 31 39  1  0
 35 32  1  6
 32 40  1  0
 41 42  1  0
 41 43  1  0
 15 19  2  0
 16 22  2  0
 12 17  1  6
 17 19  1  0
 17 20  1  0
 18 19  1  0
 18 22  1  0
 18 23  1  0
  9 10  1  0
  9 11  1  0
 10 12  1  0
 11  5  1  6
 33 34  1  0
 33 35  1  0
 34 36  1  0
 35 37  1  0
 36 42  1  1
 20 21  2  0
 21 22  1  0
M  CHG  2   2  -1  26  -1
M  END
>  <COMPND>  (226) 
    8629 

>  <AUTHOR>  (226) 
    GENERATED BY OPEN BABEL 3.1.1

>  <MASTER>  (226) 
        0    0    0    0    0    0    0    0   58    0   58    0

>  <minimizedAffinity>  (226) 
-7.63093

>  <CNNscore>  (226) 
0.8400021195

>  <CNNaffinity>  (226) 
4.5300307274

>  <CNN_VS>  (226) 
3.8052353859

>  <CNNaffinity_variance>  (226) 
0.0269835107

$$$$
227
     RDKit          3D

 43 45  0  0  0  0  0  0  0  0999 V2000
   22.6785   72.7219   -4.5530 P   0  0  2  0  0  0  0  0  0  0  0  0
   23.0700   73.3541   -5.9898 O   0  0  0  0  0  0  0  0  0  0  0  0
   23.7850   71.9773   -3.8655 O   0  0  0  0  0  0  0  0  0  0  0  0
   21.3390   71.8666   -4.8569 O   0  0  0  0  0  0  0  0  0  0  0  0
   20.8002   71.0634   -3.8214 C   0  0  0  0  0  0  0  0  0  0  0  0
   18.8277   71.9757   -4.8464 O   0  0  0  0  0  0  0  0  0  0  0  0
   17.3064   70.7532   -2.5701 O   0  0  0  0  0  0  0  0  0  0  0  0
   16.8770   68.9768   -4.5941 O   0  0  0  0  0  0  0  0  0  0  0  0
   18.4537   70.2574   -3.2580 C   0  0  1  0  0  0  0  0  0  0  0  0
   18.0638   69.7429   -4.6280 C   0  0  2  0  0  0  0  0  0  0  0  0
   19.3422   71.4453   -3.6054 C   0  0  1  0  0  0  0  0  0  0  0  0
   17.9050   71.0325   -5.4153 C   0  0  2  0  0  0  0  0  0  0  0  0
   16.7239   70.0125   -2.3375 H   0  0  0  0  0  0  0  0  0  0  0  0
   17.0291   68.1672   -4.0820 H   0  0  0  0  0  0  0  0  0  0  0  0
   16.0271   70.2539   -7.3764 O   0  0  0  0  0  0  0  0  0  0  0  0
   19.1854   70.4188  -10.7288 O   0  0  0  0  0  0  0  0  0  0  0  0
   18.2092   70.8646   -6.8084 N   0  0  0  0  0  0  0  0  0  0  0  0
   17.6012   70.3368   -9.0441 N   0  0  0  0  0  0  0  0  0  0  0  0
   17.1939   70.4698   -7.7105 C   0  0  0  0  0  0  0  0  0  0  0  0
   19.5022   71.0911   -7.2675 C   0  0  0  0  0  0  0  0  0  0  0  0
   19.8747   70.9587   -8.5422 C   0  0  0  0  0  0  0  0  0  0  0  0
   18.8742   70.5494   -9.5490 C   0  0  0  0  0  0  0  0  0  0  0  0
   16.9109   70.0623   -9.6904 H   0  0  0  0  0  0  0  0  0  0  0  0
   22.1169   73.9981   -3.7352 O   0  0  0  0  0  0  0  0  0  0  0  0
   22.6108   74.6737   -2.3522 P   0  0  2  0  0  0  0  0  0  0  0  0
   21.5985   75.9221   -2.1669 O   0  0  0  0  0  0  0  0  0  0  0  0
   24.0647   75.0475   -2.3347 O   0  0  0  0  0  0  0  0  0  0  0  0
   22.1765   73.6232   -1.2065 O   0  0  0  0  0  0  0  0  0  0  0  0
   23.2436   73.7948    0.9026 O   0  0  0  0  0  0  0  0  0  0  0  0
   21.7583   69.9555    1.2253 O   0  0  0  0  0  0  0  0  0  0  0  0
   20.5557   72.0736    2.7470 O   0  0  0  0  0  0  0  0  0  0  0  0
   22.8063   70.8903   -1.3060 O   0  0  0  0  0  0  0  0  0  0  0  0
   21.7503   71.3254    0.8146 C   0  0  1  0  0  0  0  0  0  0  0  0
   21.8016   72.2020    2.0675 C   0  0  1  0  0  0  0  0  0  0  0  0
   22.9644   71.5870   -0.0747 C   0  0  2  0  0  0  0  0  0  0  0  0
   22.0643   73.6701    1.7061 C   0  0  1  0  0  0  0  0  0  0  0  0
   23.1638   73.0815   -0.3330 C   0  0  1  0  0  0  0  0  0  0  0  0
   20.9896   69.7826    1.7899 H   0  0  0  0  0  0  0  0  0  0  0  0
   20.4017   71.1419    2.9691 H   0  0  0  0  0  0  0  0  0  0  0  0
   22.6812   69.9454   -1.1289 H   0  0  0  0  0  0  0  0  0  0  0  0
   22.4203   73.6845    4.0687 O   0  0  0  0  0  0  0  0  0  0  0  0
   22.2760   74.5354    2.9465 C   0  0  0  0  0  0  0  0  0  0  0  0
   22.5561   74.2215    4.8655 H   0  0  0  0  0  0  0  0  0  0  0  0
 25 28  1  0
 25 24  1  0
 25 26  1  1
 25 27  2  0
  1  4  1  0
  1 24  1  0
  1  2  1  6
  1  3  2  0
  6 11  1  0
  6 12  1  0
 29 36  1  0
 29 37  1  0
  9  7  1  1
  7 13  1  0
 10  8  1  1
  8 14  1  0
 37 28  1  6
  4  5  1  0
 33 30  1  1
 30 38  1  0
 34 31  1  6
 31 39  1  0
 35 32  1  6
 32 40  1  0
 41 42  1  0
 41 43  1  0
 15 19  2  0
 16 22  2  0
 12 17  1  6
 17 19  1  0
 17 20  1  0
 18 19  1  0
 18 22  1  0
 18 23  1  0
  9 10  1  0
  9 11  1  0
 10 12  1  0
 11  5  1  6
 33 34  1  0
 33 35  1  0
 34 36  1  0
 35 37  1  0
 36 42  1  1
 20 21  2  0
 21 22  1  0
M  CHG  2   2  -1  26  -1
M  END
>  <COMPND>  (227) 
    8629 

>  <AUTHOR>  (227) 
    GENERATED BY OPEN BABEL 3.1.1

>  <MASTER>  (227) 
        0    0    0    0    0    0    0    0   58    0   58    0

>  <minimizedAffinity>  (227) 
-7.49781

>  <CNNscore>  (227) 
0.8139972091

>  <CNNaffinity>  (227) 
4.6173648834

>  <CNN_VS>  (227) 
3.7585220337

>  <CNNaffinity_variance>  (227) 
0.0414849892

$$$$
228
     RDKit          3D

 43 45  0  0  0  0  0  0  0  0999 V2000
   21.0668   72.6803   -4.7629 P   0  0  2  0  0  0  0  0  0  0  0  0
   20.2077   73.7734   -5.5902 O   0  0  0  0  0  0  0  0  0  0  0  0
   21.6218   71.5554   -5.5862 O   0  0  0  0  0  0  0  0  0  0  0  0
   20.0826   72.2470   -3.5539 O   0  0  0  0  0  0  0  0  0  0  0  0
   19.4105   71.0027   -3.6422 C   0  0  0  0  0  0  0  0  0  0  0  0
   17.6275   71.7712   -5.0578 O   0  0  0  0  0  0  0  0  0  0  0  0
   15.7721   70.3661   -3.1673 O   0  0  0  0  0  0  0  0  0  0  0  0
   15.9394   68.6127   -5.2492 O   0  0  0  0  0  0  0  0  0  0  0  0
   17.0782   69.9870   -3.5982 C   0  0  1  0  0  0  0  0  0  0  0  0
   17.0343   69.4770   -5.0235 C   0  0  2  0  0  0  0  0  0  0  0  0
   17.9120   71.2543   -3.7394 C   0  0  1  0  0  0  0  0  0  0  0  0
   16.9329   70.7684   -5.8173 C   0  0  2  0  0  0  0  0  0  0  0  0
   15.2211   69.5731   -3.0697 H   0  0  0  0  0  0  0  0  0  0  0  0
   16.0502   67.8059   -4.7224 H   0  0  0  0  0  0  0  0  0  0  0  0
   15.4943   70.6187   -8.2434 O   0  0  0  0  0  0  0  0  0  0  0  0
   19.3636   70.3646  -10.7344 O   0  0  0  0  0  0  0  0  0  0  0  0
   17.5390   70.6629   -7.1146 N   0  0  0  0  0  0  0  0  0  0  0  0
   17.4221   70.4925   -9.4818 N   0  0  0  0  0  0  0  0  0  0  0  0
   16.7265   70.5929   -8.2701 C   0  0  0  0  0  0  0  0  0  0  0  0
   18.9244   70.6302   -7.2316 C   0  0  0  0  0  0  0  0  0  0  0  0
   19.5722   70.5328   -8.3944 C   0  0  0  0  0  0  0  0  0  0  0  0
   18.7973   70.4549   -9.6495 C   0  0  0  0  0  0  0  0  0  0  0  0
   16.8767   70.4420  -10.3002 H   0  0  0  0  0  0  0  0  0  0  0  0
   22.1820   73.5826   -4.0178 O   0  0  0  0  0  0  0  0  0  0  0  0
   23.5527   73.1702   -3.2670 P   0  0  2  0  0  0  0  0  0  0  0  0
   24.5237   74.4337   -3.5467 O   0  0  0  0  0  0  0  0  0  0  0  0
   24.1172   71.8478   -3.6990 O   0  0  0  0  0  0  0  0  0  0  0  0
   23.2019   73.2660   -1.6945 O   0  0  0  0  0  0  0  0  0  0  0  0
   21.3221   74.3174   -0.7058 O   0  0  0  0  0  0  0  0  0  0  0  0
   24.0900   74.9620    2.2899 O   0  0  0  0  0  0  0  0  0  0  0  0
   21.9991   73.0327    2.6824 O   0  0  0  0  0  0  0  0  0  0  0  0
   24.8950   75.1486   -0.4844 O   0  0  0  0  0  0  0  0  0  0  0  0
   23.4657   74.2373    1.2267 C   0  0  1  0  0  0  0  0  0  0  0  0
   22.0089   73.9764    1.6148 C   0  0  1  0  0  0  0  0  0  0  0  0
   23.5406   75.0665   -0.0540 C   0  0  2  0  0  0  0  0  0  0  0  0
   21.2050   73.4420    0.4219 C   0  0  1  0  0  0  0  0  0  0  0  0
   22.6671   74.4749   -1.1618 C   0  0  1  0  0  0  0  0  0  0  0  0
   24.0463   74.4407    3.1059 H   0  0  0  0  0  0  0  0  0  0  0  0
   22.5106   73.3820    3.4291 H   0  0  0  0  0  0  0  0  0  0  0  0
   25.4375   75.5248    0.2255 H   0  0  0  0  0  0  0  0  0  0  0  0
   19.4316   74.1418    1.8621 O   0  0  0  0  0  0  0  0  0  0  0  0
   19.7165   73.3240    0.7422 C   0  0  0  0  0  0  0  0  0  0  0  0
   18.4875   74.0769    2.0773 H   0  0  0  0  0  0  0  0  0  0  0  0
 25 28  1  0
 25 24  1  0
 25 26  1  1
 25 27  2  0
  1  4  1  0
  1 24  1  0
  1  2  1  6
  1  3  2  0
  6 11  1  0
  6 12  1  0
 29 36  1  0
 29 37  1  0
  9  7  1  6
  7 13  1  0
 10  8  1  1
  8 14  1  0
 37 28  1  1
  4  5  1  0
 33 30  1  1
 30 38  1  0
 34 31  1  1
 31 39  1  0
 35 32  1  6
 32 40  1  0
 41 42  1  0
 41 43  1  0
 15 19  2  0
 16 22  2  0
 12 17  1  6
 17 19  1  0
 17 20  1  0
 18 19  1  0
 18 22  1  0
 18 23  1  0
  9 10  1  0
  9 11  1  0
 10 12  1  0
 11  5  1  6
 33 34  1  0
 33 35  1  0
 34 36  1  0
 35 37  1  0
 36 42  1  1
 20 21  2  0
 21 22  1  0
M  CHG  2   2  -1  26  -1
M  END
>  <COMPND>  (228) 
    8629 

>  <AUTHOR>  (228) 
    GENERATED BY OPEN BABEL 3.1.1

>  <MASTER>  (228) 
        0    0    0    0    0    0    0    0   58    0   58    0

>  <minimizedAffinity>  (228) 
-6.57505

>  <CNNscore>  (228) 
0.8118432760

>  <CNNaffinity>  (228) 
4.4781451225

>  <CNN_VS>  (228) 
3.6355519295

>  <CNNaffinity_variance>  (228) 
0.0413224772

$$$$
229
     RDKit          3D

 43 45  0  0  0  0  0  0  0  0999 V2000
   21.0380   71.3929   -1.6885 P   0  0  2  0  0  0  0  0  0  0  0  0
   22.4838   70.9107   -2.2315 O   0  0  0  0  0  0  0  0  0  0  0  0
   20.0492   70.2892   -1.4529 O   0  0  0  0  0  0  0  0  0  0  0  0
   20.5843   72.5286   -2.7479 O   0  0  0  0  0  0  0  0  0  0  0  0
   20.0580   72.1162   -3.9972 C   0  0  0  0  0  0  0  0  0  0  0  0
   18.3188   72.8477   -5.4850 O   0  0  0  0  0  0  0  0  0  0  0  0
   16.4023   72.1483   -3.2875 O   0  0  0  0  0  0  0  0  0  0  0  0
   16.1895   70.0089   -4.9650 O   0  0  0  0  0  0  0  0  0  0  0  0
   17.6121   71.4965   -3.6710 C   0  0  1  0  0  0  0  0  0  0  0  0
   17.4081   70.7242   -4.9576 C   0  0  2  0  0  0  0  0  0  0  0  0
   18.6076   72.5681   -4.0976 C   0  0  1  0  0  0  0  0  0  0  0  0
   17.4430   71.8306   -5.9982 C   0  0  2  0  0  0  0  0  0  0  0  0
   15.7511   71.4841   -3.0106 H   0  0  0  0  0  0  0  0  0  0  0  0
   16.2166   69.3167   -4.2862 H   0  0  0  0  0  0  0  0  0  0  0  0
   15.8513   70.6861   -8.0316 O   0  0  0  0  0  0  0  0  0  0  0  0
   19.4838   70.1236  -10.8118 O   0  0  0  0  0  0  0  0  0  0  0  0
   17.9467   71.3766   -7.2637 N   0  0  0  0  0  0  0  0  0  0  0  0
   17.6613   70.4071   -9.4143 N   0  0  0  0  0  0  0  0  0  0  0  0
   17.0633   70.8159   -8.2154 C   0  0  0  0  0  0  0  0  0  0  0  0
   19.3027   71.4897   -7.5507 C   0  0  0  0  0  0  0  0  0  0  0  0
   19.8573   71.0939   -8.6983 C   0  0  0  0  0  0  0  0  0  0  0  0
   19.0038   70.4973   -9.7460 C   0  0  0  0  0  0  0  0  0  0  0  0
   17.0653   70.0131  -10.0921 H   0  0  0  0  0  0  0  0  0  0  0  0
   21.4126   72.2529   -0.3720 O   0  0  0  0  0  0  0  0  0  0  0  0
   21.4143   71.8509    1.1936 P   0  0  2  0  0  0  0  0  0  0  0  0
   21.5275   70.2373    1.1622 O   0  0  0  0  0  0  0  0  0  0  0  0
   20.2371   72.3741    1.9646 O   0  0  0  0  0  0  0  0  0  0  0  0
   22.8480   72.3495    1.7419 O   0  0  0  0  0  0  0  0  0  0  0  0
   24.5399   73.6681    0.7342 O   0  0  0  0  0  0  0  0  0  0  0  0
   26.9230   70.9547    2.7366 O   0  0  0  0  0  0  0  0  0  0  0  0
   26.7397   73.6568    3.6922 O   0  0  0  0  0  0  0  0  0  0  0  0
   24.4666   70.0715    1.4854 O   0  0  0  0  0  0  0  0  0  0  0  0
   25.7789   71.7911    2.5447 C   0  0  1  0  0  0  0  0  0  0  0  0
   26.2586   73.2384    2.4179 C   0  0  1  0  0  0  0  0  0  0  0  0
   25.0480   71.3540    1.2766 C   0  0  2  0  0  0  0  0  0  0  0  0
   25.1247   74.1586    1.9463 C   0  0  1  0  0  0  0  0  0  0  0  0
   23.9735   72.3630    0.8676 C   0  0  1  0  0  0  0  0  0  0  0  0
   27.3913   71.2267    3.5405 H   0  0  0  0  0  0  0  0  0  0  0  0
   27.4550   73.0673    3.9787 H   0  0  0  0  0  0  0  0  0  0  0  0
   25.1570   69.4417    1.7435 H   0  0  0  0  0  0  0  0  0  0  0  0
   25.6618   76.2900    2.8832 O   0  0  0  0  0  0  0  0  0  0  0  0
   25.6187   75.5753    1.6619 C   0  0  0  0  0  0  0  0  0  0  0  0
   25.9748   77.1935    2.7176 H   0  0  0  0  0  0  0  0  0  0  0  0
 25 28  1  0
 25 24  1  0
 25 26  1  6
 25 27  2  0
  1  4  1  0
  1 24  1  0
  1  2  1  6
  1  3  2  0
  6 11  1  0
  6 12  1  0
 29 36  1  0
 29 37  1  0
  9  7  1  6
  7 13  1  0
 10  8  1  1
  8 14  1  0
 37 28  1  1
  4  5  1  0
 33 30  1  6
 30 38  1  0
 34 31  1  1
 31 39  1  0
 35 32  1  1
 32 40  1  0
 41 42  1  0
 41 43  1  0
 15 19  2  0
 16 22  2  0
 12 17  1  6
 17 19  1  0
 17 20  1  0
 18 19  1  0
 18 22  1  0
 18 23  1  0
  9 10  1  0
  9 11  1  0
 10 12  1  0
 11  5  1  6
 33 34  1  0
 33 35  1  0
 34 36  1  0
 35 37  1  0
 36 42  1  6
 20 21  2  0
 21 22  1  0
M  CHG  2   2  -1  26  -1
M  END
>  <COMPND>  (229) 
    8629 

>  <AUTHOR>  (229) 
    GENERATED BY OPEN BABEL 3.1.1

>  <MASTER>  (229) 
        0    0    0    0    0    0    0    0   58    0   58    0

>  <minimizedAffinity>  (229) 
-7.50972

>  <CNNscore>  (229) 
0.8111311793

>  <CNNaffinity>  (229) 
4.5627241135

>  <CNN_VS>  (229) 
3.7009677887

>  <CNNaffinity_variance>  (229) 
0.1158488542

$$$$
230
     RDKit          3D

 43 45  0  0  0  0  0  0  0  0999 V2000
   21.8350   72.4175   -5.6128 P   0  0  2  0  0  0  0  0  0  0  0  0
   21.0514   73.8100   -5.3590 O   0  0  0  0  0  0  0  0  0  0  0  0
   23.1408   72.5486   -6.3402 O   0  0  0  0  0  0  0  0  0  0  0  0
   20.7285   71.4724   -6.3201 O   0  0  0  0  0  0  0  0  0  0  0  0
   20.2020   71.8698   -7.5741 C   0  0  0  0  0  0  0  0  0  0  0  0
   18.9084   69.8882   -7.1576 O   0  0  0  0  0  0  0  0  0  0  0  0
   18.1111   70.0278  -10.0447 O   0  0  0  0  0  0  0  0  0  0  0  0
   15.9303   71.0617   -8.7751 O   0  0  0  0  0  0  0  0  0  0  0  0
   18.3370   71.0894   -9.1188 C   0  0  1  0  0  0  0  0  0  0  0  0
   17.1860   71.1867   -8.1393 C   0  0  2  0  0  0  0  0  0  0  0  0
   19.4925   70.6835   -8.2124 C   0  0  1  0  0  0  0  0  0  0  0  0
   17.4794   70.0350   -7.1929 C   0  0  2  0  0  0  0  0  0  0  0  0
   17.3776   70.2642  -10.6346 H   0  0  0  0  0  0  0  0  0  0  0  0
   15.7903   71.8178   -9.3663 H   0  0  0  0  0  0  0  0  0  0  0  0
   16.2592   68.0938   -5.5435 O   0  0  0  0  0  0  0  0  0  0  0  0
   15.6905   71.1084   -2.1040 O   0  0  0  0  0  0  0  0  0  0  0  0
   17.0033   70.2852   -5.8617 N   0  0  0  0  0  0  0  0  0  0  0  0
   15.9772   69.5964   -3.8322 N   0  0  0  0  0  0  0  0  0  0  0  0
   16.4049   69.2416   -5.1180 C   0  0  0  0  0  0  0  0  0  0  0  0
   17.1322   71.5537   -5.3066 C   0  0  0  0  0  0  0  0  0  0  0  0
   16.7180   71.8761   -4.0795 C   0  0  0  0  0  0  0  0  0  0  0  0
   16.0819   70.8433   -3.2365 C   0  0  0  0  0  0  0  0  0  0  0  0
   15.5569   68.8855   -3.2957 H   0  0  0  0  0  0  0  0  0  0  0  0
   21.9524   71.7906   -4.1275 O   0  0  0  0  0  0  0  0  0  0  0  0
   23.1129   71.9191   -3.0096 P   0  0  2  0  0  0  0  0  0  0  0  0
   23.6315   73.4414   -3.1866 O   0  0  0  0  0  0  0  0  0  0  0  0
   24.1914   70.8807   -3.1200 O   0  0  0  0  0  0  0  0  0  0  0  0
   22.3251   71.9181   -1.6009 O   0  0  0  0  0  0  0  0  0  0  0  0
   23.9964   72.4424   -0.0046 O   0  0  0  0  0  0  0  0  0  0  0  0
   20.7341   72.1908    2.5142 O   0  0  0  0  0  0  0  0  0  0  0  0
   21.8691   74.7603    1.9164 O   0  0  0  0  0  0  0  0  0  0  0  0
   20.9971   70.3412    0.3031 O   0  0  0  0  0  0  0  0  0  0  0  0
   21.4194   72.4945    1.2962 C   0  0  1  0  0  0  0  0  0  0  0  0
   22.5074   73.5257    1.6024 C   0  0  1  0  0  0  0  0  0  0  0  0
   22.0352   71.2132    0.7372 C   0  0  2  0  0  0  0  0  0  0  0  0
   23.4549   73.7025    0.4083 C   0  0  1  0  0  0  0  0  0  0  0  0
   22.9986   71.5053   -0.4146 C   0  0  1  0  0  0  0  0  0  0  0  0
   20.3403   73.0001    2.8742 H   0  0  0  0  0  0  0  0  0  0  0  0
   21.2733   74.6348    2.6717 H   0  0  0  0  0  0  0  0  0  0  0  0
   20.3942   70.1637    1.0412 H   0  0  0  0  0  0  0  0  0  0  0  0
   24.7668   74.6717    2.1543 O   0  0  0  0  0  0  0  0  0  0  0  0
   24.6379   74.6073    0.7459 C   0  0  0  0  0  0  0  0  0  0  0  0
   25.5161   75.2440    2.3840 H   0  0  0  0  0  0  0  0  0  0  0  0
 25 28  1  0
 25 24  1  0
 25 26  1  6
 25 27  2  0
  1  4  1  0
  1 24  1  0
  1  2  1  1
  1  3  2  0
  6 11  1  0
  6 12  1  0
 29 36  1  0
 29 37  1  0
  9  7  1  6
  7 13  1  0
 10  8  1  6
  8 14  1  0
 37 28  1  6
  4  5  1  0
 33 30  1  1
 30 38  1  0
 34 31  1  6
 31 39  1  0
 35 32  1  6
 32 40  1  0
 41 42  1  0
 41 43  1  0
 15 19  2  0
 16 22  2  0
 12 17  1  1
 17 19  1  0
 17 20  1  0
 18 19  1  0
 18 22  1  0
 18 23  1  0
  9 10  1  0
  9 11  1  0
 10 12  1  0
 11  5  1  1
 33 34  1  0
 33 35  1  0
 34 36  1  0
 35 37  1  0
 36 42  1  1
 20 21  2  0
 21 22  1  0
M  CHG  2   2  -1  26  -1
M  END
>  <COMPND>  (230) 
    8629 

>  <AUTHOR>  (230) 
    GENERATED BY OPEN BABEL 3.1.1

>  <MASTER>  (230) 
        0    0    0    0    0    0    0    0   58    0   58    0

>  <minimizedAffinity>  (230) 
-8.13066

>  <CNNscore>  (230) 
0.8044832945

>  <CNNaffinity>  (230) 
4.5734133720

>  <CNN_VS>  (230) 
3.6792347431

>  <CNNaffinity_variance>  (230) 
0.1886403114

$$$$
231
     RDKit          3D

 43 45  0  0  0  0  0  0  0  0999 V2000
   21.1123   71.5943   -1.3749 P   0  0  2  0  0  0  0  0  0  0  0  0
   22.5416   70.9486   -1.7719 O   0  0  0  0  0  0  0  0  0  0  0  0
   19.9713   70.6215   -1.3175 O   0  0  0  0  0  0  0  0  0  0  0  0
   20.9380   72.8212   -2.4153 O   0  0  0  0  0  0  0  0  0  0  0  0
   20.3343   72.5623   -3.6709 C   0  0  0  0  0  0  0  0  0  0  0  0
   20.7012   70.9148   -5.3811 O   0  0  0  0  0  0  0  0  0  0  0  0
   23.2271   72.4027   -6.0107 O   0  0  0  0  0  0  0  0  0  0  0  0
   21.5287   73.2618   -7.9636 O   0  0  0  0  0  0  0  0  0  0  0  0
   21.9600   72.9109   -5.5967 C   0  0  1  0  0  0  0  0  0  0  0  0
   20.9667   72.8398   -6.7377 C   0  0  2  0  0  0  0  0  0  0  0  0
   21.3650   71.9288   -4.5953 C   0  0  1  0  0  0  0  0  0  0  0  0
   20.5956   71.3666   -6.7411 C   0  0  2  0  0  0  0  0  0  0  0  0
   23.6269   73.0133   -6.6505 H   0  0  0  0  0  0  0  0  0  0  0  0
   21.7477   74.2053   -7.9113 H   0  0  0  0  0  0  0  0  0  0  0  0
   19.8827   71.0205   -9.4521 O   0  0  0  0  0  0  0  0  0  0  0  0
   15.4242   70.5063   -8.4040 O   0  0  0  0  0  0  0  0  0  0  0  0
   19.2559   71.1403   -7.2049 N   0  0  0  0  0  0  0  0  0  0  0  0
   17.6633   70.7646   -8.9280 N   0  0  0  0  0  0  0  0  0  0  0  0
   19.0048   70.9803   -8.5876 C   0  0  0  0  0  0  0  0  0  0  0  0
   18.2079   71.0787   -6.2929 C   0  0  0  0  0  0  0  0  0  0  0  0
   16.9339   70.8736   -6.6339 C   0  0  0  0  0  0  0  0  0  0  0  0
   16.5862   70.6965   -8.0586 C   0  0  0  0  0  0  0  0  0  0  0  0
   17.4645   70.6507   -9.8858 H   0  0  0  0  0  0  0  0  0  0  0  0
   21.4277   72.3444    0.0218 O   0  0  0  0  0  0  0  0  0  0  0  0
   21.5479   71.7741    1.5295 P   0  0  2  0  0  0  0  0  0  0  0  0
   21.6856   70.1768    1.3121 O   0  0  0  0  0  0  0  0  0  0  0  0
   20.4202   72.1811    2.4331 O   0  0  0  0  0  0  0  0  0  0  0  0
   23.0086   72.2449    2.0291 O   0  0  0  0  0  0  0  0  0  0  0  0
   24.6233   73.6506    1.0125 O   0  0  0  0  0  0  0  0  0  0  0  0
   27.1510   70.8556    2.7005 O   0  0  0  0  0  0  0  0  0  0  0  0
   26.9899   73.4894    3.8341 O   0  0  0  0  0  0  0  0  0  0  0  0
   24.6376   70.0133    1.5374 O   0  0  0  0  0  0  0  0  0  0  0  0
   25.9875   71.6841    2.6272 C   0  0  1  0  0  0  0  0  0  0  0  0
   26.4414   73.1439    2.5653 C   0  0  1  0  0  0  0  0  0  0  0  0
   25.1902   71.3154    1.3775 C   0  0  2  0  0  0  0  0  0  0  0  0
   25.2709   74.0736    2.2181 C   0  0  1  0  0  0  0  0  0  0  0  0
   24.0816   72.3309    1.0949 C   0  0  1  0  0  0  0  0  0  0  0  0
   27.6615   71.0843    3.4921 H   0  0  0  0  0  0  0  0  0  0  0  0
   27.7277   72.8946    4.0416 H   0  0  0  0  0  0  0  0  0  0  0  0
   25.3494   69.3797    1.7155 H   0  0  0  0  0  0  0  0  0  0  0  0
   25.7570   76.1741    3.2479 O   0  0  0  0  0  0  0  0  0  0  0  0
   25.7302   75.5130    1.9962 C   0  0  0  0  0  0  0  0  0  0  0  0
   26.0479   77.0913    3.1222 H   0  0  0  0  0  0  0  0  0  0  0  0
 25 28  1  0
 25 24  1  0
 25 26  1  6
 25 27  2  0
  1  4  1  0
  1 24  1  0
  1  2  1  6
  1  3  2  0
  6 11  1  0
  6 12  1  0
 29 36  1  0
 29 37  1  0
  9  7  1  6
  7 13  1  0
 10  8  1  6
  8 14  1  0
 37 28  1  1
  4  5  1  0
 33 30  1  6
 30 38  1  0
 34 31  1  1
 31 39  1  0
 35 32  1  1
 32 40  1  0
 41 42  1  0
 41 43  1  0
 15 19  2  0
 16 22  2  0
 12 17  1  1
 17 19  1  0
 17 20  1  0
 18 19  1  0
 18 22  1  0
 18 23  1  0
  9 10  1  0
  9 11  1  0
 10 12  1  0
 11  5  1  1
 33 34  1  0
 33 35  1  0
 34 36  1  0
 35 37  1  0
 36 42  1  6
 20 21  2  0
 21 22  1  0
M  CHG  2   2  -1  26  -1
M  END
>  <COMPND>  (231) 
    8629 

>  <AUTHOR>  (231) 
    GENERATED BY OPEN BABEL 3.1.1

>  <MASTER>  (231) 
        0    0    0    0    0    0    0    0   58    0   58    0

>  <minimizedAffinity>  (231) 
-7.68225

>  <CNNscore>  (231) 
0.7898432016

>  <CNNaffinity>  (231) 
4.5020742416

>  <CNN_VS>  (231) 
3.5559327602

>  <CNNaffinity_variance>  (231) 
0.1124657393

$$$$
232
     RDKit          3D

 43 45  0  0  0  0  0  0  0  0999 V2000
   22.6190   72.1006   -2.9400 P   0  0  2  0  0  0  0  0  0  0  0  0
   23.8490   71.1338   -3.3523 O   0  0  0  0  0  0  0  0  0  0  0  0
   23.0019   73.5197   -2.6385 O   0  0  0  0  0  0  0  0  0  0  0  0
   21.8822   71.3018   -1.7413 O   0  0  0  0  0  0  0  0  0  0  0  0
   22.6399   70.9518   -0.5962 C   0  0  0  0  0  0  0  0  0  0  0  0
   22.6679   71.0550    1.8043 O   0  0  0  0  0  0  0  0  0  0  0  0
   20.1977   72.7389    1.5741 O   0  0  0  0  0  0  0  0  0  0  0  0
   22.1447   74.5969    2.0135 O   0  0  0  0  0  0  0  0  0  0  0  0
   21.3434   72.6972    0.7251 C   0  0  1  0  0  0  0  0  0  0  0  0
   22.5171   73.3839    1.3918 C   0  0  2  0  0  0  0  0  0  0  0  0
   21.8204   71.2520    0.6514 C   0  0  1  0  0  0  0  0  0  0  0  0
   22.9731   72.3319    2.3885 C   0  0  2  0  0  0  0  0  0  0  0  0
   19.8747   73.6520    1.6364 H   0  0  0  0  0  0  0  0  0  0  0  0
   21.8626   75.2333    1.3381 H   0  0  0  0  0  0  0  0  0  0  0  0
   24.2278   74.4021    3.8438 O   0  0  0  0  0  0  0  0  0  0  0  0
   28.3897   72.4902    3.3290 O   0  0  0  0  0  0  0  0  0  0  0  0
   24.3831   72.4000    2.6502 N   0  0  0  0  0  0  0  0  0  0  0  0
   26.2991   73.4483    3.5864 N   0  0  0  0  0  0  0  0  0  0  0  0
   24.9126   73.4827    3.3903 C   0  0  0  0  0  0  0  0  0  0  0  0
   25.2251   71.4004    2.1752 C   0  0  0  0  0  0  0  0  0  0  0  0
   26.5454   71.3829    2.3697 C   0  0  0  0  0  0  0  0  0  0  0  0
   27.1783   72.4776    3.1333 C   0  0  0  0  0  0  0  0  0  0  0  0
   26.6903   74.1926    4.0990 H   0  0  0  0  0  0  0  0  0  0  0  0
   21.5917   71.9290   -4.1762 O   0  0  0  0  0  0  0  0  0  0  0  0
   20.0551   72.3989   -4.3525 P   0  0  2  0  0  0  0  0  0  0  0  0
   20.1325   74.0027   -4.1544 O   0  0  0  0  0  0  0  0  0  0  0  0
   19.0908   71.7072   -3.4330 O   0  0  0  0  0  0  0  0  0  0  0  0
   19.7438   72.1967   -5.9232 O   0  0  0  0  0  0  0  0  0  0  0  0
   18.9439   69.9732   -6.1037 O   0  0  0  0  0  0  0  0  0  0  0  0
   18.6831   71.0922  -10.0699 O   0  0  0  0  0  0  0  0  0  0  0  0
   16.2841   70.7995   -8.5185 O   0  0  0  0  0  0  0  0  0  0  0  0
   20.9196   71.9830   -8.4623 O   0  0  0  0  0  0  0  0  0  0  0  0
   18.6217   71.2870   -8.6544 C   0  0  1  0  0  0  0  0  0  0  0  0
   17.5620   70.3414   -8.0857 C   0  0  1  0  0  0  0  0  0  0  0  0
   19.9915   70.9858   -8.0492 C   0  0  2  0  0  0  0  0  0  0  0  0
   17.6232   70.2983   -6.5529 C   0  0  1  0  0  0  0  0  0  0  0  0
   19.9317   70.9172   -6.5222 C   0  0  1  0  0  0  0  0  0  0  0  0
   17.8166   71.2824  -10.4604 H   0  0  0  0  0  0  0  0  0  0  0  0
   16.2588   70.8225   -9.4881 H   0  0  0  0  0  0  0  0  0  0  0  0
   20.9485   72.0163   -9.4308 H   0  0  0  0  0  0  0  0  0  0  0  0
   16.0774   69.7752   -4.8076 O   0  0  0  0  0  0  0  0  0  0  0  0
   16.6826   69.2445   -5.9723 C   0  0  0  0  0  0  0  0  0  0  0  0
   15.4758   69.1155   -4.4274 H   0  0  0  0  0  0  0  0  0  0  0  0
 25 28  1  0
 25 24  1  0
 25 26  1  1
 25 27  2  0
  1  4  1  0
  1 24  1  0
  1  2  1  6
  1  3  2  0
  6 11  1  0
  6 12  1  0
 29 36  1  0
 29 37  1  0
  9  7  1  1
  7 13  1  0
 10  8  1  1
  8 14  1  0
 37 28  1  1
  4  5  1  0
 33 30  1  6
 30 38  1  0
 34 31  1  1
 31 39  1  0
 35 32  1  1
 32 40  1  0
 41 42  1  0
 41 43  1  0
 15 19  2  0
 16 22  2  0
 12 17  1  6
 17 19  1  0
 17 20  1  0
 18 19  1  0
 18 22  1  0
 18 23  1  0
  9 10  1  0
  9 11  1  0
 10 12  1  0
 11  5  1  6
 33 34  1  0
 33 35  1  0
 34 36  1  0
 35 37  1  0
 36 42  1  6
 20 21  2  0
 21 22  1  0
M  CHG  2   2  -1  26  -1
M  END
>  <COMPND>  (232) 
    8629 

>  <AUTHOR>  (232) 
    GENERATED BY OPEN BABEL 3.1.1

>  <MASTER>  (232) 
        0    0    0    0    0    0    0    0   58    0   58    0

>  <minimizedAffinity>  (232) 
-7.28396

>  <CNNscore>  (232) 
0.7687379122

>  <CNNaffinity>  (232) 
4.4021983147

>  <CNN_VS>  (232) 
3.3841366768

>  <CNNaffinity_variance>  (232) 
0.1043026671

$$$$
233
     RDKit          3D

 43 45  0  0  0  0  0  0  0  0999 V2000
   22.0929   72.9639   -3.8075 P   0  0  2  0  0  0  0  0  0  0  0  0
   21.5962   73.7390   -5.1379 O   0  0  0  0  0  0  0  0  0  0  0  0
   23.1876   71.9620   -4.0292 O   0  0  0  0  0  0  0  0  0  0  0  0
   20.7271   72.3816   -3.1646 O   0  0  0  0  0  0  0  0  0  0  0  0
   20.1095   71.2671   -3.7845 C   0  0  0  0  0  0  0  0  0  0  0  0
   18.1376   71.8907   -5.0077 O   0  0  0  0  0  0  0  0  0  0  0  0
   16.5896   70.4582   -2.8764 O   0  0  0  0  0  0  0  0  0  0  0  0
   16.6183   68.6433   -4.9115 O   0  0  0  0  0  0  0  0  0  0  0  0
   17.8578   70.1329   -3.4432 C   0  0  1  0  0  0  0  0  0  0  0  0
   17.6815   69.5712   -4.8385 C   0  0  2  0  0  0  0  0  0  0  0  0
   18.5980   71.4364   -3.7162 C   0  0  1  0  0  0  0  0  0  0  0  0
   17.4189   70.8266   -5.6528 C   0  0  2  0  0  0  0  0  0  0  0  0
   16.0985   69.6414   -2.6930 H   0  0  0  0  0  0  0  0  0  0  0  0
   16.8331   67.8626   -4.3776 H   0  0  0  0  0  0  0  0  0  0  0  0
   15.7343   70.3951   -7.8785 O   0  0  0  0  0  0  0  0  0  0  0  0
   19.2961   70.3830  -10.8034 O   0  0  0  0  0  0  0  0  0  0  0  0
   17.8793   70.7071   -7.0074 N   0  0  0  0  0  0  0  0  0  0  0  0
   17.5091   70.3896   -9.3331 N   0  0  0  0  0  0  0  0  0  0  0  0
   16.9510   70.4903   -8.0523 C   0  0  0  0  0  0  0  0  0  0  0  0
   19.2376   70.8053   -7.2889 C   0  0  0  0  0  0  0  0  0  0  0  0
   19.7539   70.7058   -8.5156 C   0  0  0  0  0  0  0  0  0  0  0  0
   18.8521   70.4791   -9.6634 C   0  0  0  0  0  0  0  0  0  0  0  0
   16.8815   70.2382  -10.0767 H   0  0  0  0  0  0  0  0  0  0  0  0
   22.4796   74.1723   -2.8059 O   0  0  0  0  0  0  0  0  0  0  0  0
   23.9018   74.8693   -2.4827 P   0  0  2  0  0  0  0  0  0  0  0  0
   23.5101   76.4219   -2.2514 O   0  0  0  0  0  0  0  0  0  0  0  0
   24.9500   74.6450   -3.5338 O   0  0  0  0  0  0  0  0  0  0  0  0
   24.2989   74.3261   -1.0156 O   0  0  0  0  0  0  0  0  0  0  0  0
   23.3749   72.5900    0.3068 O   0  0  0  0  0  0  0  0  0  0  0  0
   24.1865   75.3294    3.2880 O   0  0  0  0  0  0  0  0  0  0  0  0
   25.8056   72.9691    3.0521 O   0  0  0  0  0  0  0  0  0  0  0  0
   23.2017   76.2373    0.7218 O   0  0  0  0  0  0  0  0  0  0  0  0
   24.4127   74.6391    2.0561 C   0  0  1  0  0  0  0  0  0  0  0  0
   24.5711   73.1487    2.3636 C   0  0  1  0  0  0  0  0  0  0  0  0
   23.2229   74.8729    1.1271 C   0  0  2  0  0  0  0  0  0  0  0  0
   24.5502   72.3124    1.0771 C   0  0  1  0  0  0  0  0  0  0  0  0
   23.2736   73.9569   -0.0971 C   0  0  1  0  0  0  0  0  0  0  0  0
   24.9386   75.1854    3.8823 H   0  0  0  0  0  0  0  0  0  0  0  0
   25.8060   73.5029    3.8622 H   0  0  0  0  0  0  0  0  0  0  0  0
   23.1693   76.8069    1.5057 H   0  0  0  0  0  0  0  0  0  0  0  0
   24.1486   70.6182    2.7133 O   0  0  0  0  0  0  0  0  0  0  0  0
   24.5483   70.8135    1.3693 C   0  0  0  0  0  0  0  0  0  0  0  0
   24.1425   69.6686    2.9135 H   0  0  0  0  0  0  0  0  0  0  0  0
 25 28  1  0
 25 24  1  0
 25 26  1  1
 25 27  2  0
  1  4  1  0
  1 24  1  0
  1  2  1  6
  1  3  2  0
  6 11  1  0
  6 12  1  0
 29 36  1  0
 29 37  1  0
  9  7  1  6
  7 13  1  0
 10  8  1  1
  8 14  1  0
 37 28  1  6
  4  5  1  0
 33 30  1  1
 30 38  1  0
 34 31  1  6
 31 39  1  0
 35 32  1  6
 32 40  1  0
 41 42  1  0
 41 43  1  0
 15 19  2  0
 16 22  2  0
 12 17  1  6
 17 19  1  0
 17 20  1  0
 18 19  1  0
 18 22  1  0
 18 23  1  0
  9 10  1  0
  9 11  1  0
 10 12  1  0
 11  5  1  6
 33 34  1  0
 33 35  1  0
 34 36  1  0
 35 37  1  0
 36 42  1  1
 20 21  2  0
 21 22  1  0
M  CHG  2   2  -1  26  -1
M  END
>  <COMPND>  (233) 
    8629 

>  <AUTHOR>  (233) 
    GENERATED BY OPEN BABEL 3.1.1

>  <MASTER>  (233) 
        0    0    0    0    0    0    0    0   58    0   58    0

>  <minimizedAffinity>  (233) 
-6.59462

>  <CNNscore>  (233) 
0.7671718001

>  <CNNaffinity>  (233) 
4.4932742119

>  <CNN_VS>  (233) 
3.4471132755

>  <CNNaffinity_variance>  (233) 
0.0709318072

$$$$
234
     RDKit          3D

 43 45  0  0  0  0  0  0  0  0999 V2000
   21.2214   71.5197   -1.5782 P   0  0  2  0  0  0  0  0  0  0  0  0
   22.1908   70.7452   -2.6163 O   0  0  0  0  0  0  0  0  0  0  0  0
   20.5806   70.6481   -0.5385 O   0  0  0  0  0  0  0  0  0  0  0  0
   20.2037   72.3378   -2.5336 O   0  0  0  0  0  0  0  0  0  0  0  0
   19.7580   71.7231   -3.7301 C   0  0  0  0  0  0  0  0  0  0  0  0
   17.7454   71.9557   -5.0220 O   0  0  0  0  0  0  0  0  0  0  0  0
   16.4041   70.3486   -2.8751 O   0  0  0  0  0  0  0  0  0  0  0  0
   16.8047   68.4996   -4.8390 O   0  0  0  0  0  0  0  0  0  0  0  0
   17.7256   70.2288   -3.3992 C   0  0  1  0  0  0  0  0  0  0  0  0
   17.6900   69.5992   -4.7761 C   0  0  2  0  0  0  0  0  0  0  0  0
   18.2385   71.6308   -3.7038 C   0  0  1  0  0  0  0  0  0  0  0  0
   17.2397   70.7626   -5.6431 C   0  0  2  0  0  0  0  0  0  0  0  0
   16.0555   69.4658   -2.6726 H   0  0  0  0  0  0  0  0  0  0  0  0
   17.1345   67.7858   -4.2711 H   0  0  0  0  0  0  0  0  0  0  0  0
   15.6448   70.3995   -7.9458 O   0  0  0  0  0  0  0  0  0  0  0  0
   19.3209   70.4575  -10.7250 O   0  0  0  0  0  0  0  0  0  0  0  0
   17.7538   70.6797   -6.9811 N   0  0  0  0  0  0  0  0  0  0  0  0
   17.4765   70.4288   -9.3277 N   0  0  0  0  0  0  0  0  0  0  0  0
   16.8677   70.4954   -8.0680 C   0  0  0  0  0  0  0  0  0  0  0  0
   19.1225   70.7811   -7.2051 C   0  0  0  0  0  0  0  0  0  0  0  0
   19.6874   70.7143   -8.4125 C   0  0  0  0  0  0  0  0  0  0  0  0
   18.8318   70.5230   -9.6014 C   0  0  0  0  0  0  0  0  0  0  0  0
   16.8789   70.3004  -10.0998 H   0  0  0  0  0  0  0  0  0  0  0  0
   22.1769   72.6814   -0.9862 O   0  0  0  0  0  0  0  0  0  0  0  0
   23.1684   72.6924    0.2905 P   0  0  2  0  0  0  0  0  0  0  0  0
   24.3189   73.7443   -0.1423 O   0  0  0  0  0  0  0  0  0  0  0  0
   23.6835   71.3374    0.6813 O   0  0  0  0  0  0  0  0  0  0  0  0
   22.3367   73.4509    1.4471 O   0  0  0  0  0  0  0  0  0  0  0  0
   21.8348   72.6699    3.6276 O   0  0  0  0  0  0  0  0  0  0  0  0
   18.4317   74.9011    2.9262 O   0  0  0  0  0  0  0  0  0  0  0  0
   20.4043   75.8672    4.7765 O   0  0  0  0  0  0  0  0  0  0  0  0
   19.6121   73.3551    0.7823 O   0  0  0  0  0  0  0  0  0  0  0  0
   19.8244   74.5871    2.8411 C   0  0  1  0  0  0  0  0  0  0  0  0
   20.3928   74.5390    4.2607 C   0  0  1  0  0  0  0  0  0  0  0  0
   19.9899   73.2352    2.1496 C   0  0  2  0  0  0  0  0  0  0  0  0
   21.8097   73.9497    4.2704 C   0  0  1  0  0  0  0  0  0  0  0  0
   21.4248   72.7164    2.2596 C   0  0  1  0  0  0  0  0  0  0  0  0
   18.3197   75.7587    3.3639 H   0  0  0  0  0  0  0  0  0  0  0  0
   19.5037   76.2279    4.7645 H   0  0  0  0  0  0  0  0  0  0  0  0
   18.7018   73.6840    0.7262 H   0  0  0  0  0  0  0  0  0  0  0  0
   22.5218   72.3596    5.9055 O   0  0  0  0  0  0  0  0  0  0  0  0
   22.3348   73.7463    5.6900 C   0  0  0  0  0  0  0  0  0  0  0  0
   22.8561   72.2150    6.8050 H   0  0  0  0  0  0  0  0  0  0  0  0
 25 28  1  0
 25 24  1  0
 25 26  1  6
 25 27  2  0
  1  4  1  0
  1 24  1  0
  1  2  1  6
  1  3  2  0
  6 11  1  0
  6 12  1  0
 29 36  1  0
 29 37  1  0
  9  7  1  6
  7 13  1  0
 10  8  1  1
  8 14  1  0
 37 28  1  6
  4  5  1  0
 33 30  1  1
 30 38  1  0
 34 31  1  6
 31 39  1  0
 35 32  1  6
 32 40  1  0
 41 42  1  0
 41 43  1  0
 15 19  2  0
 16 22  2  0
 12 17  1  6
 17 19  1  0
 17 20  1  0
 18 19  1  0
 18 22  1  0
 18 23  1  0
  9 10  1  0
  9 11  1  0
 10 12  1  0
 11  5  1  6
 33 34  1  0
 33 35  1  0
 34 36  1  0
 35 37  1  0
 36 42  1  1
 20 21  2  0
 21 22  1  0
M  CHG  2   2  -1  26  -1
M  END
>  <COMPND>  (234) 
    8629 

>  <AUTHOR>  (234) 
    GENERATED BY OPEN BABEL 3.1.1

>  <MASTER>  (234) 
        0    0    0    0    0    0    0    0   58    0   58    0

>  <minimizedAffinity>  (234) 
-6.96342

>  <CNNscore>  (234) 
0.7594565749

>  <CNNaffinity>  (234) 
4.3585500717

>  <CNN_VS>  (234) 
3.3101294041

>  <CNNaffinity_variance>  (234) 
0.0339031629

$$$$
235
     RDKit          3D

 43 45  0  0  0  0  0  0  0  0999 V2000
   23.5976   73.6626   -3.3060 P   0  0  2  0  0  0  0  0  0  0  0  0
   23.3877   75.1836   -2.7960 O   0  0  0  0  0  0  0  0  0  0  0  0
   24.8749   73.4154   -4.0535 O   0  0  0  0  0  0  0  0  0  0  0  0
   22.2353   73.3325   -4.1141 O   0  0  0  0  0  0  0  0  0  0  0  0
   22.1716   72.1369   -4.8720 C   0  0  0  0  0  0  0  0  0  0  0  0
   21.0935   71.4614   -6.9105 O   0  0  0  0  0  0  0  0  0  0  0  0
   21.4654   74.2925   -7.8255 O   0  0  0  0  0  0  0  0  0  0  0  0
   18.8467   74.2526   -7.0656 O   0  0  0  0  0  0  0  0  0  0  0  0
   21.1719   73.7975   -6.5201 C   0  0  1  0  0  0  0  0  0  0  0  0
   19.7296   73.3422   -6.4424 C   0  0  2  0  0  0  0  0  0  0  0  0
   21.9291   72.4886   -6.3334 C   0  0  1  0  0  0  0  0  0  0  0  0
   19.7839   72.0007   -7.1534 C   0  0  2  0  0  0  0  0  0  0  0  0
   20.9932   75.1284   -7.9679 H   0  0  0  0  0  0  0  0  0  0  0  0
   18.8474   75.0902   -6.5765 H   0  0  0  0  0  0  0  0  0  0  0  0
   17.9237   70.6288   -8.7767 O   0  0  0  0  0  0  0  0  0  0  0  0
   16.0576   68.4883   -5.1466 O   0  0  0  0  0  0  0  0  0  0  0  0
   18.8008   71.0786   -6.6588 N   0  0  0  0  0  0  0  0  0  0  0  0
   16.9962   69.5639   -6.9679 N   0  0  0  0  0  0  0  0  0  0  0  0
   17.9130   70.4433   -7.5580 C   0  0  0  0  0  0  0  0  0  0  0  0
   18.7243   70.8120   -5.2961 C   0  0  0  0  0  0  0  0  0  0  0  0
   17.8433   69.9718   -4.7491 C   0  0  0  0  0  0  0  0  0  0  0  0
   16.8800   69.2669   -5.6192 C   0  0  0  0  0  0  0  0  0  0  0  0
   16.3674   69.1101   -7.5749 H   0  0  0  0  0  0  0  0  0  0  0  0
   23.4338   72.7986   -1.9496 O   0  0  0  0  0  0  0  0  0  0  0  0
   22.1739   72.6147   -0.9537 P   0  0  2  0  0  0  0  0  0  0  0  0
   22.0499   71.0085   -0.8050 O   0  0  0  0  0  0  0  0  0  0  0  0
   20.9177   73.2924   -1.4191 O   0  0  0  0  0  0  0  0  0  0  0  0
   22.7120   73.1168    0.4827 O   0  0  0  0  0  0  0  0  0  0  0  0
   24.8553   73.0602    1.4924 O   0  0  0  0  0  0  0  0  0  0  0  0
   22.5494   72.1188    4.7859 O   0  0  0  0  0  0  0  0  0  0  0  0
   23.7715   74.7114    4.6049 O   0  0  0  0  0  0  0  0  0  0  0  0
   21.8527   71.0574    2.1844 O   0  0  0  0  0  0  0  0  0  0  0  0
   22.8505   72.7724    3.5500 C   0  0  1  0  0  0  0  0  0  0  0  0
   24.1072   73.6217    3.7504 C   0  0  1  0  0  0  0  0  0  0  0  0
   23.0816   71.7167    2.4704 C   0  0  2  0  0  0  0  0  0  0  0  0
   24.6451   74.1400    2.4098 C   0  0  1  0  0  0  0  0  0  0  0  0
   23.6632   72.3305    1.1956 C   0  0  1  0  0  0  0  0  0  0  0  0
   22.4011   72.7835    5.4756 H   0  0  0  0  0  0  0  0  0  0  0  0
   23.4327   74.3705    5.4477 H   0  0  0  0  0  0  0  0  0  0  0  0
   21.4949   70.6730    2.9993 H   0  0  0  0  0  0  0  0  0  0  0  0
   26.5938   74.4086    3.7661 O   0  0  0  0  0  0  0  0  0  0  0  0
   25.9841   74.8567    2.5695 C   0  0  0  0  0  0  0  0  0  0  0  0
   27.4472   74.8561    3.8807 H   0  0  0  0  0  0  0  0  0  0  0  0
 25 28  1  0
 25 24  1  0
 25 26  1  1
 25 27  2  0
  1  4  1  0
  1 24  1  0
  1  2  1  1
  1  3  2  0
  6 11  1  0
  6 12  1  0
 29 36  1  0
 29 37  1  0
  9  7  1  6
  7 13  1  0
 10  8  1  6
  8 14  1  0
 37 28  1  1
  4  5  1  0
 33 30  1  1
 30 38  1  0
 34 31  1  1
 31 39  1  0
 35 32  1  6
 32 40  1  0
 41 42  1  0
 41 43  1  0
 15 19  2  0
 16 22  2  0
 12 17  1  1
 17 19  1  0
 17 20  1  0
 18 19  1  0
 18 22  1  0
 18 23  1  0
  9 10  1  0
  9 11  1  0
 10 12  1  0
 11  5  1  1
 33 34  1  0
 33 35  1  0
 34 36  1  0
 35 37  1  0
 36 42  1  1
 20 21  2  0
 21 22  1  0
M  CHG  2   2  -1  26  -1
M  END
>  <COMPND>  (235) 
    8629 

>  <AUTHOR>  (235) 
    GENERATED BY OPEN BABEL 3.1.1

>  <MASTER>  (235) 
        0    0    0    0    0    0    0    0   58    0   58    0

>  <minimizedAffinity>  (235) 
-6.70617

>  <CNNscore>  (235) 
0.6698725820

>  <CNNaffinity>  (235) 
4.2601966858

>  <CNN_VS>  (235) 
2.8537888527

>  <CNNaffinity_variance>  (235) 
0.0367296450

$$$$
236
     RDKit          3D

 43 45  0  0  0  0  0  0  0  0999 V2000
   23.3729   71.8479   -3.3400 P   0  0  2  0  0  0  0  0  0  0  0  0
   24.0947   73.0119   -4.2010 O   0  0  0  0  0  0  0  0  0  0  0  0
   24.2708   70.7221   -2.9184 O   0  0  0  0  0  0  0  0  0  0  0  0
   22.0984   71.4292   -4.2446 O   0  0  0  0  0  0  0  0  0  0  0  0
   21.6284   72.3470   -5.2165 C   0  0  0  0  0  0  0  0  0  0  0  0
   20.5499   70.4214   -6.1667 O   0  0  0  0  0  0  0  0  0  0  0  0
   20.6942   71.8675   -8.7894 O   0  0  0  0  0  0  0  0  0  0  0  0
   18.1054   72.2678   -8.0316 O   0  0  0  0  0  0  0  0  0  0  0  0
   20.4704   72.3914   -7.4815 C   0  0  1  0  0  0  0  0  0  0  0  0
   19.0670   72.0631   -7.0166 C   0  0  2  0  0  0  0  0  0  0  0  0
   21.3241   71.5933   -6.5039 C   0  0  1  0  0  0  0  0  0  0  0  0
   19.1992   70.6018   -6.6227 C   0  0  2  0  0  0  0  0  0  0  0  0
   20.1597   72.3617   -9.4313 H   0  0  0  0  0  0  0  0  0  0  0  0
   18.0584   73.2124   -8.2470 H   0  0  0  0  0  0  0  0  0  0  0  0
   16.5246   69.7851   -7.0197 O   0  0  0  0  0  0  0  0  0  0  0  0
   15.8331   69.2212   -2.4981 O   0  0  0  0  0  0  0  0  0  0  0  0
   18.2978   70.2354   -5.5670 N   0  0  0  0  0  0  0  0  0  0  0  0
   16.1825   69.5048   -4.7680 N   0  0  0  0  0  0  0  0  0  0  0  0
   16.9745   69.8408   -5.8733 C   0  0  0  0  0  0  0  0  0  0  0  0
   18.7284   70.2691   -4.2451 C   0  0  0  0  0  0  0  0  0  0  0  0
   17.9603   69.9468   -3.2023 C   0  0  0  0  0  0  0  0  0  0  0  0
   16.5644   69.5237   -3.4359 C   0  0  0  0  0  0  0  0  0  0  0  0
   15.2568   69.2272   -4.9572 H   0  0  0  0  0  0  0  0  0  0  0  0
   22.6989   72.6643   -2.1184 O   0  0  0  0  0  0  0  0  0  0  0  0
   21.2906   72.4571   -1.3523 P   0  0  2  0  0  0  0  0  0  0  0  0
   21.0796   70.8535   -1.3910 O   0  0  0  0  0  0  0  0  0  0  0  0
   20.1525   73.2457   -1.9327 O   0  0  0  0  0  0  0  0  0  0  0  0
   21.6141   72.7885    0.1938 O   0  0  0  0  0  0  0  0  0  0  0  0
   22.9250   74.2360    1.5366 O   0  0  0  0  0  0  0  0  0  0  0  0
   24.2787   70.6055    2.9641 O   0  0  0  0  0  0  0  0  0  0  0  0
   22.5616   72.2223    4.6029 O   0  0  0  0  0  0  0  0  0  0  0  0
   23.7147   70.9283    0.1433 O   0  0  0  0  0  0  0  0  0  0  0  0
   23.3128   71.5222    2.4426 C   0  0  1  0  0  0  0  0  0  0  0  0
   23.1916   72.6964    3.4160 C   0  0  1  0  0  0  0  0  0  0  0  0
   23.7751   72.0073    1.0699 C   0  0  2  0  0  0  0  0  0  0  0  0
   22.3788   73.8439    2.8014 C   0  0  1  0  0  0  0  0  0  0  0  0
   22.9308   73.1817    0.5720 C   0  0  1  0  0  0  0  0  0  0  0  0
   23.9909   70.2933    3.8354 H   0  0  0  0  0  0  0  0  0  0  0  0
   23.0846   71.4978    4.9807 H   0  0  0  0  0  0  0  0  0  0  0  0
   24.2533   70.1913    0.4697 H   0  0  0  0  0  0  0  0  0  0  0  0
   21.3711   74.9327    4.6743 O   0  0  0  0  0  0  0  0  0  0  0  0
   22.3783   75.0850    3.6911 C   0  0  0  0  0  0  0  0  0  0  0  0
   21.3593   75.7151    5.2482 H   0  0  0  0  0  0  0  0  0  0  0  0
 25 28  1  0
 25 24  1  0
 25 26  1  1
 25 27  2  0
  1  4  1  0
  1 24  1  0
  1  2  1  6
  1  3  2  0
  6 11  1  0
  6 12  1  0
 29 36  1  0
 29 37  1  0
  9  7  1  6
  7 13  1  0
 10  8  1  6
  8 14  1  0
 37 28  1  1
  4  5  1  0
 33 30  1  1
 30 38  1  0
 34 31  1  1
 31 39  1  0
 35 32  1  6
 32 40  1  0
 41 42  1  0
 41 43  1  0
 15 19  2  0
 16 22  2  0
 12 17  1  1
 17 19  1  0
 17 20  1  0
 18 19  1  0
 18 22  1  0
 18 23  1  0
  9 10  1  0
  9 11  1  0
 10 12  1  0
 11  5  1  1
 33 34  1  0
 33 35  1  0
 34 36  1  0
 35 37  1  0
 36 42  1  1
 20 21  2  0
 21 22  1  0
M  CHG  2   2  -1  26  -1
M  END
>  <COMPND>  (236) 
    8629 

>  <AUTHOR>  (236) 
    GENERATED BY OPEN BABEL 3.1.1

>  <MASTER>  (236) 
        0    0    0    0    0    0    0    0   58    0   58    0

>  <minimizedAffinity>  (236) 
-7.45044

>  <CNNscore>  (236) 
0.6390594840

>  <CNNaffinity>  (236) 
4.3279786110

>  <CNN_VS>  (236) 
2.7658357620

>  <CNNaffinity_variance>  (236) 
0.1427074075

$$$$
237
     RDKit          3D

 43 45  0  0  0  0  0  0  0  0999 V2000
   20.7794   72.1845   -7.1402 P   0  0  2  0  0  0  0  0  0  0  0  0
   22.0559   72.6309   -8.0283 O   0  0  0  0  0  0  0  0  0  0  0  0
   21.0812   71.2057   -6.0438 O   0  0  0  0  0  0  0  0  0  0  0  0
   19.6940   71.6981   -8.2372 O   0  0  0  0  0  0  0  0  0  0  0  0
   19.4150   70.3130   -8.3442 C   0  0  0  0  0  0  0  0  0  0  0  0
   17.6360   69.5026   -6.9469 O   0  0  0  0  0  0  0  0  0  0  0  0
   15.7899   71.0890   -8.6979 O   0  0  0  0  0  0  0  0  0  0  0  0
   16.0512   72.6895   -6.5056 O   0  0  0  0  0  0  0  0  0  0  0  0
   17.1151   71.3985   -8.2698 C   0  0  1  0  0  0  0  0  0  0  0  0
   17.1142   71.8105   -6.8125 C   0  0  2  0  0  0  0  0  0  0  0  0
   17.9115   70.1001   -8.2328 C   0  0  1  0  0  0  0  0  0  0  0  0
   16.9876   70.4712   -6.1065 C   0  0  2  0  0  0  0  0  0  0  0  0
   15.2622   71.9029   -8.7297 H   0  0  0  0  0  0  0  0  0  0  0  0
   16.1772   73.5269   -6.9785 H   0  0  0  0  0  0  0  0  0  0  0  0
   17.1337   68.2225   -4.4036 O   0  0  0  0  0  0  0  0  0  0  0  0
   19.4417   70.5804   -1.1856 O   0  0  0  0  0  0  0  0  0  0  0  0
   17.6212   70.4692   -4.8181 N   0  0  0  0  0  0  0  0  0  0  0  0
   18.2830   69.3983   -2.8028 N   0  0  0  0  0  0  0  0  0  0  0  0
   17.6385   69.2872   -4.0415 C   0  0  0  0  0  0  0  0  0  0  0  0
   18.2169   71.6300   -4.3370 C   0  0  0  0  0  0  0  0  0  0  0  0
   18.8262   71.7198   -3.1530 C   0  0  0  0  0  0  0  0  0  0  0  0
   18.8886   70.5299   -2.2799 C   0  0  0  0  0  0  0  0  0  0  0  0
   18.3071   68.5876   -2.2443 H   0  0  0  0  0  0  0  0  0  0  0  0
   20.1769   73.5967   -6.6344 O   0  0  0  0  0  0  0  0  0  0  0  0
   20.7297   74.6586   -5.5483 P   0  0  2  0  0  0  0  0  0  0  0  0
   19.3848   75.3935   -5.0301 O   0  0  0  0  0  0  0  0  0  0  0  0
   21.7798   75.5912   -6.0788 O   0  0  0  0  0  0  0  0  0  0  0  0
   21.2073   73.7546   -4.2995 O   0  0  0  0  0  0  0  0  0  0  0  0
   22.2502   74.3164   -2.2468 O   0  0  0  0  0  0  0  0  0  0  0  0
   24.2793   70.8185   -3.0820 O   0  0  0  0  0  0  0  0  0  0  0  0
   22.3211   70.8548   -0.9815 O   0  0  0  0  0  0  0  0  0  0  0  0
   23.6155   72.6493   -5.2237 O   0  0  0  0  0  0  0  0  0  0  0  0
   23.1509   71.6969   -3.0607 C   0  0  1  0  0  0  0  0  0  0  0  0
   22.8311   72.0315   -1.6025 C   0  0  1  0  0  0  0  0  0  0  0  0
   23.4909   72.9652   -3.8413 C   0  0  2  0  0  0  0  0  0  0  0  0
   21.8086   73.1720   -1.5072 C   0  0  1  0  0  0  0  0  0  0  0  0
   22.4346   74.0530   -3.6391 C   0  0  1  0  0  0  0  0  0  0  0  0
   24.0699   70.0109   -2.5885 H   0  0  0  0  0  0  0  0  0  0  0  0
   22.9760   70.1423   -1.0491 H   0  0  0  0  0  0  0  0  0  0  0  0
   24.2872   71.9598   -5.3385 H   0  0  0  0  0  0  0  0  0  0  0  0
   20.6594   72.7580    0.5463 O   0  0  0  0  0  0  0  0  0  0  0  0
   21.5934   73.6282   -0.0658 C   0  0  0  0  0  0  0  0  0  0  0  0
   20.5128   73.0360    1.4644 H   0  0  0  0  0  0  0  0  0  0  0  0
 25 28  1  0
 25 24  1  0
 25 26  1  1
 25 27  2  0
  1  4  1  0
  1 24  1  0
  1  2  1  6
  1  3  2  0
  6 11  1  0
  6 12  1  0
 29 36  1  0
 29 37  1  0
  9  7  1  1
  7 13  1  0
 10  8  1  6
  8 14  1  0
 37 28  1  1
  4  5  1  0
 33 30  1  1
 30 38  1  0
 34 31  1  6
 31 39  1  0
 35 32  1  6
 32 40  1  0
 41 42  1  0
 41 43  1  0
 15 19  2  0
 16 22  2  0
 12 17  1  1
 17 19  1  0
 17 20  1  0
 18 19  1  0
 18 22  1  0
 18 23  1  0
  9 10  1  0
  9 11  1  0
 10 12  1  0
 11  5  1  1
 33 34  1  0
 33 35  1  0
 34 36  1  0
 35 37  1  0
 36 42  1  1
 20 21  2  0
 21 22  1  0
M  CHG  2   2  -1  26  -1
M  END
>  <COMPND>  (237) 
    8629 

>  <AUTHOR>  (237) 
    GENERATED BY OPEN BABEL 3.1.1

>  <MASTER>  (237) 
        0    0    0    0    0    0    0    0   58    0   58    0

>  <minimizedAffinity>  (237) 
-6.84104

>  <CNNscore>  (237) 
0.6359516382

>  <CNNaffinity>  (237) 
4.4433584213

>  <CNN_VS>  (237) 
2.8257610798

>  <CNNaffinity_variance>  (237) 
0.4017454088

$$$$
238
     RDKit          3D

 43 45  0  0  0  0  0  0  0  0999 V2000
   22.9779   71.5520   -3.1507 P   0  0  2  0  0  0  0  0  0  0  0  0
   24.4051   70.7913   -3.1083 O   0  0  0  0  0  0  0  0  0  0  0  0
   21.8174   70.7512   -2.6374 O   0  0  0  0  0  0  0  0  0  0  0  0
   22.8561   72.0644   -4.6805 O   0  0  0  0  0  0  0  0  0  0  0  0
   21.5746   72.4067   -5.1789 C   0  0  0  0  0  0  0  0  0  0  0  0
   20.5506   70.4485   -6.1226 O   0  0  0  0  0  0  0  0  0  0  0  0
   20.7440   71.8501   -8.7663 O   0  0  0  0  0  0  0  0  0  0  0  0
   18.1301   72.2242   -8.0850 O   0  0  0  0  0  0  0  0  0  0  0  0
   20.4774   72.3935   -7.4744 C   0  0  1  0  0  0  0  0  0  0  0  0
   19.0669   72.0521   -7.0412 C   0  0  2  0  0  0  0  0  0  0  0  0
   21.3162   71.6258   -6.4602 C   0  0  1  0  0  0  0  0  0  0  0  0
   19.2101   70.6001   -6.6176 C   0  0  2  0  0  0  0  0  0  0  0  0
   20.2197   72.3248   -9.4310 H   0  0  0  0  0  0  0  0  0  0  0  0
   18.0750   73.1640   -8.3185 H   0  0  0  0  0  0  0  0  0  0  0  0
   16.5486   69.7691   -7.0691 O   0  0  0  0  0  0  0  0  0  0  0  0
   15.7556   69.2394   -2.5600 O   0  0  0  0  0  0  0  0  0  0  0  0
   18.2861   70.2387   -5.5799 N   0  0  0  0  0  0  0  0  0  0  0  0
   16.1560   69.5059   -4.8236 N   0  0  0  0  0  0  0  0  0  0  0  0
   16.9719   69.8361   -5.9132 C   0  0  0  0  0  0  0  0  0  0  0  0
   18.6862   70.2850   -4.2488 C   0  0  0  0  0  0  0  0  0  0  0  0
   17.8956   69.9681   -3.2213 C   0  0  0  0  0  0  0  0  0  0  0  0
   16.5071   69.5373   -3.4833 C   0  0  0  0  0  0  0  0  0  0  0  0
   15.2360   69.2229   -5.0316 H   0  0  0  0  0  0  0  0  0  0  0  0
   23.2684   72.9157   -2.3328 O   0  0  0  0  0  0  0  0  0  0  0  0
   22.2639   73.9481   -1.5993 P   0  0  2  0  0  0  0  0  0  0  0  0
   20.8008   73.4295   -2.0554 O   0  0  0  0  0  0  0  0  0  0  0  0
   22.5329   75.3925   -1.9080 O   0  0  0  0  0  0  0  0  0  0  0  0
   22.3608   73.5695   -0.0334 O   0  0  0  0  0  0  0  0  0  0  0  0
   22.9356   71.4944    0.9568 O   0  0  0  0  0  0  0  0  0  0  0  0
   20.1766   72.8088    3.7337 O   0  0  0  0  0  0  0  0  0  0  0  0
   22.9691   72.7989    4.4044 O   0  0  0  0  0  0  0  0  0  0  0  0
   19.7337   73.2977    0.9151 O   0  0  0  0  0  0  0  0  0  0  0  0
   21.2266   72.9494    2.7729 C   0  0  1  0  0  0  0  0  0  0  0  0
   22.4325   72.1430    3.2589 C   0  0  1  0  0  0  0  0  0  0  0  0
   20.7402   72.4279    1.4220 C   0  0  2  0  0  0  0  0  0  0  0  0
   23.4991   72.0257    2.1618 C   0  0  1  0  0  0  0  0  0  0  0  0
   21.8878   72.3031    0.4183 C   0  0  1  0  0  0  0  0  0  0  0  0
   20.4788   73.1386    4.5936 H   0  0  0  0  0  0  0  0  0  0  0  0
   22.2855   72.8670    5.0894 H   0  0  0  0  0  0  0  0  0  0  0  0
   19.0128   73.3680    1.5595 H   0  0  0  0  0  0  0  0  0  0  0  0
   24.5281   69.8958    1.8248 O   0  0  0  0  0  0  0  0  0  0  0  0
   24.6390   71.0948    2.5694 C   0  0  0  0  0  0  0  0  0  0  0  0
   25.2473   69.2937    2.0736 H   0  0  0  0  0  0  0  0  0  0  0  0
 25 28  1  0
 25 24  1  0
 25 26  1  6
 25 27  2  0
  1  4  1  0
  1 24  1  0
  1  2  1  6
  1  3  2  0
  6 11  1  0
  6 12  1  0
 29 36  1  0
 29 37  1  0
  9  7  1  6
  7 13  1  0
 10  8  1  6
  8 14  1  0
 37 28  1  1
  4  5  1  0
 33 30  1  1
 30 38  1  0
 34 31  1  1
 31 39  1  0
 35 32  1  6
 32 40  1  0
 41 42  1  0
 41 43  1  0
 15 19  2  0
 16 22  2  0
 12 17  1  1
 17 19  1  0
 17 20  1  0
 18 19  1  0
 18 22  1  0
 18 23  1  0
  9 10  1  0
  9 11  1  0
 10 12  1  0
 11  5  1  1
 33 34  1  0
 33 35  1  0
 34 36  1  0
 35 37  1  0
 36 42  1  1
 20 21  2  0
 21 22  1  0
M  CHG  2   2  -1  26  -1
M  END
>  <COMPND>  (238) 
    8629 

>  <AUTHOR>  (238) 
    GENERATED BY OPEN BABEL 3.1.1

>  <MASTER>  (238) 
        0    0    0    0    0    0    0    0   58    0   58    0

>  <minimizedAffinity>  (238) 
-7.58700

>  <CNNscore>  (238) 
0.5801774263

>  <CNNaffinity>  (238) 
4.2161254883

>  <CNN_VS>  (238) 
2.4461009502

>  <CNNaffinity_variance>  (238) 
0.3306707740

$$$$
239
     RDKit          3D

 43 45  0  0  0  0  0  0  0  0999 V2000
   23.1826   73.1271   -3.9912 P   0  0  2  0  0  0  0  0  0  0  0  0
   23.9530   71.7260   -3.7448 O   0  0  0  0  0  0  0  0  0  0  0  0
   24.0019   74.1921   -4.6589 O   0  0  0  0  0  0  0  0  0  0  0  0
   22.5905   73.5064   -2.5339 O   0  0  0  0  0  0  0  0  0  0  0  0
   21.5481   74.4630   -2.4556 C   0  0  0  0  0  0  0  0  0  0  0  0
   20.8425   72.6342   -1.0658 O   0  0  0  0  0  0  0  0  0  0  0  0
   18.6095   74.4228   -0.1684 O   0  0  0  0  0  0  0  0  0  0  0  0
   20.3795   74.5992    1.8986 O   0  0  0  0  0  0  0  0  0  0  0  0
   19.9586   74.7564   -0.4909 C   0  0  1  0  0  0  0  0  0  0  0  0
   20.8904   74.3050    0.6143 C   0  0  2  0  0  0  0  0  0  0  0  0
   20.3947   73.8749   -1.6545 C   0  0  1  0  0  0  0  0  0  0  0  0
   20.9896   72.8118    0.3525 C   0  0  2  0  0  0  0  0  0  0  0  0
   18.3086   74.9733    0.5721 H   0  0  0  0  0  0  0  0  0  0  0  0
   20.3357   75.5609    2.0168 H   0  0  0  0  0  0  0  0  0  0  0  0
   21.4386   70.0836    0.9299 O   0  0  0  0  0  0  0  0  0  0  0  0
   25.8776   70.8343    1.9166 O   0  0  0  0  0  0  0  0  0  0  0  0
   22.2531   72.2666    0.7622 N   0  0  0  0  0  0  0  0  0  0  0  0
   23.6486   70.4596    1.4206 N   0  0  0  0  0  0  0  0  0  0  0  0
   22.3721   70.8827    1.0289 C   0  0  0  0  0  0  0  0  0  0  0  0
   23.3574   73.1013    0.8955 C   0  0  0  0  0  0  0  0  0  0  0  0
   24.5676   72.6822    1.2712 C   0  0  0  0  0  0  0  0  0  0  0  0
   24.7769   71.2506    1.5687 C   0  0  0  0  0  0  0  0  0  0  0  0
   23.7552   69.4995    1.6120 H   0  0  0  0  0  0  0  0  0  0  0  0
   21.8650   72.6778   -4.8129 O   0  0  0  0  0  0  0  0  0  0  0  0
   21.1968   73.2768   -6.1573 P   0  0  2  0  0  0  0  0  0  0  0  0
   22.1858   72.7559   -7.3270 O   0  0  0  0  0  0  0  0  0  0  0  0
   20.9948   74.7643   -6.1340 O   0  0  0  0  0  0  0  0  0  0  0  0
   19.8431   72.4210   -6.3570 O   0  0  0  0  0  0  0  0  0  0  0  0
   19.2089   70.2365   -5.6918 O   0  0  0  0  0  0  0  0  0  0  0  0
   17.5612   70.2779   -9.4779 O   0  0  0  0  0  0  0  0  0  0  0  0
   15.8426   70.4277   -7.1819 O   0  0  0  0  0  0  0  0  0  0  0  0
   20.1250   71.5360   -9.0051 O   0  0  0  0  0  0  0  0  0  0  0  0
   17.9566   70.8380   -8.2228 C   0  0  1  0  0  0  0  0  0  0  0  0
   17.2240   70.0859   -7.1099 C   0  0  1  0  0  0  0  0  0  0  0  0
   19.4689   70.6919   -8.0651 C   0  0  2  0  0  0  0  0  0  0  0  0
   17.7924   70.4461   -5.7307 C   0  0  1  0  0  0  0  0  0  0  0  0
   19.9236   71.0272   -6.6436 C   0  0  1  0  0  0  0  0  0  0  0  0
   16.6020   70.3679   -9.5844 H   0  0  0  0  0  0  0  0  0  0  0  0
   15.4960   70.1956   -8.0578 H   0  0  0  0  0  0  0  0  0  0  0  0
   19.8289   71.3136   -9.9010 H   0  0  0  0  0  0  0  0  0  0  0  0
   16.5921   68.4475   -5.2075 O   0  0  0  0  0  0  0  0  0  0  0  0
   17.1845   69.5916   -4.6206 C   0  0  0  0  0  0  0  0  0  0  0  0
   16.2013   67.8941   -4.5127 H   0  0  0  0  0  0  0  0  0  0  0  0
 25 28  1  0
 25 24  1  0
 25 26  1  6
 25 27  2  0
  1  4  1  0
  1 24  1  0
  1  2  1  1
  1  3  2  0
  6 11  1  0
  6 12  1  0
 29 36  1  0
 29 37  1  0
  9  7  1  1
  7 13  1  0
 10  8  1  1
  8 14  1  0
 37 28  1  1
  4  5  1  0
 33 30  1  6
 30 38  1  0
 34 31  1  1
 31 39  1  0
 35 32  1  6
 32 40  1  0
 41 42  1  0
 41 43  1  0
 15 19  2  0
 16 22  2  0
 12 17  1  6
 17 19  1  0
 17 20  1  0
 18 19  1  0
 18 22  1  0
 18 23  1  0
  9 10  1  0
  9 11  1  0
 10 12  1  0
 11  5  1  1
 33 34  1  0
 33 35  1  0
 34 36  1  0
 35 37  1  0
 36 42  1  1
 20 21  2  0
 21 22  1  0
M  CHG  2   2  -1  26  -1
M  END
>  <COMPND>  (239) 
    8629 

>  <AUTHOR>  (239) 
    GENERATED BY OPEN BABEL 3.1.1

>  <MASTER>  (239) 
        0    0    0    0    0    0    0    0   58    0   58    0

>  <minimizedAffinity>  (239) 
-7.67254

>  <CNNscore>  (239) 
0.5661362410

>  <CNNaffinity>  (239) 
4.4100794792

>  <CNN_VS>  (239) 
2.4967057705

>  <CNNaffinity_variance>  (239) 
0.1148692518

$$$$
240
     RDKit          3D

 43 45  0  0  0  0  0  0  0  0999 V2000
   23.4079   72.1457   -3.4814 P   0  0  2  0  0  0  0  0  0  0  0  0
   24.0487   70.6793   -3.2438 O   0  0  0  0  0  0  0  0  0  0  0  0
   24.3298   73.1448   -4.1166 O   0  0  0  0  0  0  0  0  0  0  0  0
   22.8225   72.5537   -2.0293 O   0  0  0  0  0  0  0  0  0  0  0  0
   22.4742   71.5192   -1.1258 C   0  0  0  0  0  0  0  0  0  0  0  0
   22.9008   73.2849    0.4472 O   0  0  0  0  0  0  0  0  0  0  0  0
   23.1020   71.1319    2.5245 O   0  0  0  0  0  0  0  0  0  0  0  0
   20.5908   72.1152    2.9290 O   0  0  0  0  0  0  0  0  0  0  0  0
   22.2418   71.2126    1.3892 C   0  0  1  0  0  0  0  0  0  0  0  0
   21.1431   72.2260    1.6330 C   0  0  2  0  0  0  0  0  0  0  0  0
   23.0241   71.8589    0.2527 C   0  0  1  0  0  0  0  0  0  0  0  0
   21.8739   73.5407    1.4193 C   0  0  2  0  0  0  0  0  0  0  0  0
   22.6244   70.7220    3.2633 H   0  0  0  0  0  0  0  0  0  0  0  0
   20.1368   71.2625    3.0153 H   0  0  0  0  0  0  0  0  0  0  0  0
   21.5584   76.0743    2.6272 O   0  0  0  0  0  0  0  0  0  0  0  0
   18.5271   77.4248   -0.5710 O   0  0  0  0  0  0  0  0  0  0  0  0
   21.0091   74.5738    0.9232 N   0  0  0  0  0  0  0  0  0  0  0  0
   20.0494   76.7448    1.0337 N   0  0  0  0  0  0  0  0  0  0  0  0
   20.9224   75.8101    1.6048 C   0  0  0  0  0  0  0  0  0  0  0  0
   20.2586   74.3561   -0.2271 C   0  0  0  0  0  0  0  0  0  0  0  0
   19.4297   75.2574   -0.7582 C   0  0  0  0  0  0  0  0  0  0  0  0
   19.2812   76.5751   -0.1073 C   0  0  0  0  0  0  0  0  0  0  0  0
   19.9725   77.6132    1.4916 H   0  0  0  0  0  0  0  0  0  0  0  0
   22.0728   71.8251   -4.3344 O   0  0  0  0  0  0  0  0  0  0  0  0
   20.6763   72.6291   -4.4625 P   0  0  2  0  0  0  0  0  0  0  0  0
   21.1446   74.1756   -4.5422 O   0  0  0  0  0  0  0  0  0  0  0  0
   19.6942   72.3351   -3.3657 O   0  0  0  0  0  0  0  0  0  0  0  0
   20.1430   72.2876   -5.9471 O   0  0  0  0  0  0  0  0  0  0  0  0
   19.2806   70.0825   -6.0482 O   0  0  0  0  0  0  0  0  0  0  0  0
   19.2019   71.0069  -10.0719 O   0  0  0  0  0  0  0  0  0  0  0  0
   16.7392   70.8642   -8.6014 O   0  0  0  0  0  0  0  0  0  0  0  0
   21.4044   71.9111   -8.4254 O   0  0  0  0  0  0  0  0  0  0  0  0
   19.0945   71.2747   -8.6712 C   0  0  1  0  0  0  0  0  0  0  0  0
   17.9851   70.3908   -8.0976 C   0  0  1  0  0  0  0  0  0  0  0  0
   20.4308   70.9639   -7.9996 C   0  0  2  0  0  0  0  0  0  0  0  0
   17.9883   70.4235   -6.5634 C   0  0  1  0  0  0  0  0  0  0  0  0
   20.3124   70.9744   -6.4745 C   0  0  1  0  0  0  0  0  0  0  0  0
   18.3569   71.2026  -10.5044 H   0  0  0  0  0  0  0  0  0  0  0  0
   16.7505   70.8389   -9.5712 H   0  0  0  0  0  0  0  0  0  0  0  0
   21.4702   71.8945   -9.3925 H   0  0  0  0  0  0  0  0  0  0  0  0
   16.0655   70.1428   -5.1730 O   0  0  0  0  0  0  0  0  0  0  0  0
   16.9941   69.4288   -5.9681 C   0  0  0  0  0  0  0  0  0  0  0  0
   15.4263   69.5225   -4.7879 H   0  0  0  0  0  0  0  0  0  0  0  0
 25 28  1  0
 25 24  1  0
 25 26  1  6
 25 27  2  0
  1  4  1  0
  1 24  1  0
  1  2  1  1
  1  3  2  0
  6 11  1  0
  6 12  1  0
 29 36  1  0
 29 37  1  0
  9  7  1  1
  7 13  1  0
 10  8  1  1
  8 14  1  0
 37 28  1  6
  4  5  1  0
 33 30  1  6
 30 38  1  0
 34 31  1  6
 31 39  1  0
 35 32  1  1
 32 40  1  0
 41 42  1  0
 41 43  1  0
 15 19  2  0
 16 22  2  0
 12 17  1  6
 17 19  1  0
 17 20  1  0
 18 19  1  0
 18 22  1  0
 18 23  1  0
  9 10  1  0
  9 11  1  0
 10 12  1  0
 11  5  1  6
 33 34  1  0
 33 35  1  0
 34 36  1  0
 35 37  1  0
 36 42  1  1
 20 21  2  0
 21 22  1  0
M  CHG  2   2  -1  26  -1
M  END
>  <COMPND>  (240) 
    8629 

>  <AUTHOR>  (240) 
    GENERATED BY OPEN BABEL 3.1.1

>  <MASTER>  (240) 
        0    0    0    0    0    0    0    0   58    0   58    0

>  <minimizedAffinity>  (240) 
-6.96626

>  <CNNscore>  (240) 
0.5576416850

>  <CNNaffinity>  (240) 
4.2097158432

>  <CNN_VS>  (240) 
2.3475129604

>  <CNNaffinity_variance>  (240) 
0.0880674422

$$$$
241
     RDKit          3D

 43 45  0  0  0  0  0  0  0  0999 V2000
   20.5621   71.3107   -1.5811 P   0  0  2  0  0  0  0  0  0  0  0  0
   21.2505   70.5757   -0.3149 O   0  0  0  0  0  0  0  0  0  0  0  0
   19.9704   72.6579   -1.2871 O   0  0  0  0  0  0  0  0  0  0  0  0
   19.5348   70.2037   -2.1616 O   0  0  0  0  0  0  0  0  0  0  0  0
   19.1905   70.2553   -3.5351 C   0  0  0  0  0  0  0  0  0  0  0  0
   17.5353   71.3061   -4.9244 O   0  0  0  0  0  0  0  0  0  0  0  0
   15.4983   69.8375   -3.2859 O   0  0  0  0  0  0  0  0  0  0  0  0
   15.6476   68.3210   -5.5474 O   0  0  0  0  0  0  0  0  0  0  0  0
   16.7951   69.4145   -3.7039 C   0  0  1  0  0  0  0  0  0  0  0  0
   16.7864   69.0721   -5.1791 C   0  0  2  0  0  0  0  0  0  0  0  0
   17.7192   70.6252   -3.6638 C   0  0  1  0  0  0  0  0  0  0  0  0
   16.8121   70.4483   -5.8221 C   0  0  2  0  0  0  0  0  0  0  0  0
   14.8905   69.0810   -3.3030 H   0  0  0  0  0  0  0  0  0  0  0  0
   15.6773   67.4542   -5.1130 H   0  0  0  0  0  0  0  0  0  0  0  0
   15.4896   70.7031   -8.3048 O   0  0  0  0  0  0  0  0  0  0  0  0
   19.4472   70.4202  -10.6496 O   0  0  0  0  0  0  0  0  0  0  0  0
   17.4724   70.4448   -7.0970 N   0  0  0  0  0  0  0  0  0  0  0  0
   17.4613   70.5622   -9.4703 N   0  0  0  0  0  0  0  0  0  0  0  0
   16.7158   70.5781   -8.2846 C   0  0  0  0  0  0  0  0  0  0  0  0
   18.8551   70.3107   -7.1610 C   0  0  0  0  0  0  0  0  0  0  0  0
   19.5508   70.2961   -8.2998 C   0  0  0  0  0  0  0  0  0  0  0  0
   18.8360   70.4300   -9.5856 C   0  0  0  0  0  0  0  0  0  0  0  0
   16.9553   70.6532  -10.3103 H   0  0  0  0  0  0  0  0  0  0  0  0
   21.7452   71.3214   -2.6825 O   0  0  0  0  0  0  0  0  0  0  0  0
   23.2025   72.0206   -2.6682 P   0  0  2  0  0  0  0  0  0  0  0  0
   24.2096   70.7852   -2.9457 O   0  0  0  0  0  0  0  0  0  0  0  0
   23.5016   72.7943   -1.4168 O   0  0  0  0  0  0  0  0  0  0  0  0
   23.2487   72.8964   -4.0232 O   0  0  0  0  0  0  0  0  0  0  0  0
   22.0852   74.8323   -4.7410 O   0  0  0  0  0  0  0  0  0  0  0  0
   22.0229   72.6804   -8.2647 O   0  0  0  0  0  0  0  0  0  0  0  0
   23.7332   74.9762   -8.0354 O   0  0  0  0  0  0  0  0  0  0  0  0
   21.6824   71.3170   -5.7340 O   0  0  0  0  0  0  0  0  0  0  0  0
   22.5760   73.1408   -7.0288 C   0  0  1  0  0  0  0  0  0  0  0  0
   22.7056   74.6636   -7.0991 C   0  0  1  0  0  0  0  0  0  0  0  0
   21.6501   72.7322   -5.8846 C   0  0  2  0  0  0  0  0  0  0  0  0
   23.0386   75.2554   -5.7228 C   0  0  1  0  0  0  0  0  0  0  0  0
   22.0395   73.4141   -4.5718 C   0  0  1  0  0  0  0  0  0  0  0  0
   22.6063   72.9362   -8.9953 H   0  0  0  0  0  0  0  0  0  0  0  0
   23.5109   74.5964   -8.9000 H   0  0  0  0  0  0  0  0  0  0  0  0
   21.4337   70.8970   -6.5716 H   0  0  0  0  0  0  0  0  0  0  0  0
   24.2418   77.2441   -6.2761 O   0  0  0  0  0  0  0  0  0  0  0  0
   23.0171   76.7823   -5.7364 C   0  0  0  0  0  0  0  0  0  0  0  0
   24.2423   78.2144   -6.2913 H   0  0  0  0  0  0  0  0  0  0  0  0
 25 28  1  0
 25 24  1  0
 25 26  1  6
 25 27  2  0
  1  4  1  0
  1 24  1  0
  1  2  1  1
  1  3  2  0
  6 11  1  0
  6 12  1  0
 29 36  1  0
 29 37  1  0
  9  7  1  6
  7 13  1  0
 10  8  1  1
  8 14  1  0
 37 28  1  6
  4  5  1  0
 33 30  1  6
 30 38  1  0
 34 31  1  6
 31 39  1  0
 35 32  1  1
 32 40  1  0
 41 42  1  0
 41 43  1  0
 15 19  2  0
 16 22  2  0
 12 17  1  6
 17 19  1  0
 17 20  1  0
 18 19  1  0
 18 22  1  0
 18 23  1  0
  9 10  1  0
  9 11  1  0
 10 12  1  0
 11  5  1  6
 33 34  1  0
 33 35  1  0
 34 36  1  0
 35 37  1  0
 36 42  1  6
 20 21  2  0
 21 22  1  0
M  CHG  2   2  -1  26  -1
M  END
>  <COMPND>  (241) 
    8629 

>  <AUTHOR>  (241) 
    GENERATED BY OPEN BABEL 3.1.1

>  <MASTER>  (241) 
        0    0    0    0    0    0    0    0   58    0   58    0

>  <minimizedAffinity>  (241) 
-7.91075

>  <CNNscore>  (241) 
0.9291694164

>  <CNNaffinity>  (241) 
4.8894968033

>  <CNN_VS>  (241) 
4.5431709290

>  <CNNaffinity_variance>  (241) 
0.3670816123

$$$$
242
     RDKit          3D

 43 45  0  0  0  0  0  0  0  0999 V2000
   20.9464   71.8052   -3.0997 P   0  0  2  0  0  0  0  0  0  0  0  0
   21.6193   70.8607   -1.9716 O   0  0  0  0  0  0  0  0  0  0  0  0
   20.0337   72.8722   -2.5707 O   0  0  0  0  0  0  0  0  0  0  0  0
   20.2765   70.7572   -4.1345 O   0  0  0  0  0  0  0  0  0  0  0  0
   19.3975   69.7704   -3.6233 C   0  0  0  0  0  0  0  0  0  0  0  0
   17.8272   71.1211   -4.8413 O   0  0  0  0  0  0  0  0  0  0  0  0
   15.6920   69.7385   -3.2539 O   0  0  0  0  0  0  0  0  0  0  0  0
   15.5946   68.4320   -5.6457 O   0  0  0  0  0  0  0  0  0  0  0  0
   16.9182   69.2166   -3.7632 C   0  0  1  0  0  0  0  0  0  0  0  0
   16.8225   69.0161   -5.2612 C   0  0  2  0  0  0  0  0  0  0  0  0
   17.9741   70.3097   -3.6553 C   0  0  1  0  0  0  0  0  0  0  0  0
   16.9827   70.4351   -5.7799 C   0  0  2  0  0  0  0  0  0  0  0  0
   15.0023   69.0581   -3.3121 H   0  0  0  0  0  0  0  0  0  0  0  0
   15.5404   67.5306   -5.2917 H   0  0  0  0  0  0  0  0  0  0  0  0
   15.5578   70.4873   -8.2181 O   0  0  0  0  0  0  0  0  0  0  0  0
   19.4417   70.5978  -10.6968 O   0  0  0  0  0  0  0  0  0  0  0  0
   17.5963   70.4781   -7.0772 N   0  0  0  0  0  0  0  0  0  0  0  0
   17.4928   70.5424   -9.4503 N   0  0  0  0  0  0  0  0  0  0  0  0
   16.7903   70.5005   -8.2393 C   0  0  0  0  0  0  0  0  0  0  0  0
   18.9823   70.4978   -7.1880 C   0  0  0  0  0  0  0  0  0  0  0  0
   19.6369   70.5365   -8.3504 C   0  0  0  0  0  0  0  0  0  0  0  0
   18.8691   70.5622   -9.6121 C   0  0  0  0  0  0  0  0  0  0  0  0
   16.9521   70.5583  -10.2732 H   0  0  0  0  0  0  0  0  0  0  0  0
   22.2246   72.3589   -3.9198 O   0  0  0  0  0  0  0  0  0  0  0  0
   23.3821   73.4065   -3.5007 P   0  0  2  0  0  0  0  0  0  0  0  0
   22.7317   74.8428   -3.8632 O   0  0  0  0  0  0  0  0  0  0  0  0
   24.7110   73.1470   -4.1492 O   0  0  0  0  0  0  0  0  0  0  0  0
   23.4058   73.3652   -1.8874 O   0  0  0  0  0  0  0  0  0  0  0  0
   21.8259   74.1155   -0.2881 O   0  0  0  0  0  0  0  0  0  0  0  0
   25.3033   75.1489    1.6844 O   0  0  0  0  0  0  0  0  0  0  0  0
   23.7480   72.9247    2.6234 O   0  0  0  0  0  0  0  0  0  0  0  0
   25.1209   75.4728   -1.1863 O   0  0  0  0  0  0  0  0  0  0  0  0
   24.4731   74.3457    0.8413 C   0  0  1  0  0  0  0  0  0  0  0  0
   23.2755   73.8662    1.6639 C   0  0  1  0  0  0  0  0  0  0  0  0
   24.0077   75.1852   -0.3470 C   0  0  2  0  0  0  0  0  0  0  0  0
   22.2083   73.2250    0.7667 C   0  0  1  0  0  0  0  0  0  0  0  0
   22.9114   74.4765   -1.1444 C   0  0  1  0  0  0  0  0  0  0  0  0
   25.6026   74.6216    2.4406 H   0  0  0  0  0  0  0  0  0  0  0  0
   24.4216   73.3420    3.1831 H   0  0  0  0  0  0  0  0  0  0  0  0
   25.8077   75.9217   -0.6699 H   0  0  0  0  0  0  0  0  0  0  0  0
   21.1430   71.6555    2.2196 O   0  0  0  0  0  0  0  0  0  0  0  0
   20.9388   72.8824    1.5433 C   0  0  0  0  0  0  0  0  0  0  0  0
   20.3432   71.4250    2.7185 H   0  0  0  0  0  0  0  0  0  0  0  0
 25 28  1  0
 25 24  1  0
 25 26  1  1
 25 27  2  0
  1  4  1  0
  1 24  1  0
  1  2  1  1
  1  3  2  0
  6 11  1  0
  6 12  1  0
 29 36  1  0
 29 37  1  0
  9  7  1  6
  7 13  1  0
 10  8  1  1
  8 14  1  0
 37 28  1  1
  4  5  1  0
 33 30  1  1
 30 38  1  0
 34 31  1  1
 31 39  1  0
 35 32  1  6
 32 40  1  0
 41 42  1  0
 41 43  1  0
 15 19  2  0
 16 22  2  0
 12 17  1  6
 17 19  1  0
 17 20  1  0
 18 19  1  0
 18 22  1  0
 18 23  1  0
  9 10  1  0
  9 11  1  0
 10 12  1  0
 11  5  1  6
 33 34  1  0
 33 35  1  0
 34 36  1  0
 35 37  1  0
 36 42  1  1
 20 21  2  0
 21 22  1  0
M  CHG  2   2  -1  26  -1
M  END
>  <COMPND>  (242) 
    8629 

>  <AUTHOR>  (242) 
    GENERATED BY OPEN BABEL 3.1.1

>  <MASTER>  (242) 
        0    0    0    0    0    0    0    0   58    0   58    0

>  <minimizedAffinity>  (242) 
-7.23862

>  <CNNscore>  (242) 
0.9018834233

>  <CNNaffinity>  (242) 
4.6125063896

>  <CNN_VS>  (242) 
4.1599431038

>  <CNNaffinity_variance>  (242) 
0.0713390782

$$$$
243
     RDKit          3D

 43 45  0  0  0  0  0  0  0  0999 V2000
   22.8497   71.3842   -2.5708 P   0  0  2  0  0  0  0  0  0  0  0  0
   22.3247   72.6880   -3.3719 O   0  0  0  0  0  0  0  0  0  0  0  0
   24.1593   70.8306   -3.0502 O   0  0  0  0  0  0  0  0  0  0  0  0
   21.5945   70.3646   -2.6232 O   0  0  0  0  0  0  0  0  0  0  0  0
   20.8329   70.2906   -3.8158 C   0  0  0  0  0  0  0  0  0  0  0  0
   18.9817   71.5146   -4.7373 O   0  0  0  0  0  0  0  0  0  0  0  0
   17.3390   70.3279   -2.5273 O   0  0  0  0  0  0  0  0  0  0  0  0
   16.6717   68.7721   -4.6652 O   0  0  0  0  0  0  0  0  0  0  0  0
   18.4087   69.7446   -3.2694 C   0  0  1  0  0  0  0  0  0  0  0  0
   17.9451   69.3846   -4.6655 C   0  0  2  0  0  0  0  0  0  0  0  0
   19.4365   70.8346   -3.5468 C   0  0  1  0  0  0  0  0  0  0  0  0
   17.9427   70.7381   -5.3556 C   0  0  2  0  0  0  0  0  0  0  0  0
   16.6701   69.6506   -2.3379 H   0  0  0  0  0  0  0  0  0  0  0  0
   16.7253   67.9145   -4.2153 H   0  0  0  0  0  0  0  0  0  0  0  0
   15.9738   70.2703   -7.3260 O   0  0  0  0  0  0  0  0  0  0  0  0
   19.0883   70.3644  -10.7219 O   0  0  0  0  0  0  0  0  0  0  0  0
   18.2111   70.6361   -6.7623 N   0  0  0  0  0  0  0  0  0  0  0  0
   17.5262   70.3177   -9.0153 N   0  0  0  0  0  0  0  0  0  0  0  0
   17.1511   70.3986   -7.6681 C   0  0  0  0  0  0  0  0  0  0  0  0
   19.5134   70.7716   -7.2309 C   0  0  0  0  0  0  0  0  0  0  0  0
   19.8546   70.6906   -8.5187 C   0  0  0  0  0  0  0  0  0  0  0  0
   18.8066   70.4442   -9.5302 C   0  0  0  0  0  0  0  0  0  0  0  0
   16.8044   70.1524   -9.6645 H   0  0  0  0  0  0  0  0  0  0  0  0
   22.8515   71.8794   -1.0320 O   0  0  0  0  0  0  0  0  0  0  0  0
   21.6339   72.1805   -0.0123 P   0  0  2  0  0  0  0  0  0  0  0  0
   21.2206   70.7085    0.5169 O   0  0  0  0  0  0  0  0  0  0  0  0
   20.5032   72.9610   -0.6174 O   0  0  0  0  0  0  0  0  0  0  0  0
   22.3314   72.8896    1.2587 O   0  0  0  0  0  0  0  0  0  0  0  0
   24.1675   72.3357    2.6511 O   0  0  0  0  0  0  0  0  0  0  0  0
   21.5150   73.6276    5.5400 O   0  0  0  0  0  0  0  0  0  0  0  0
   23.7742   75.2635    4.8561 O   0  0  0  0  0  0  0  0  0  0  0  0
   20.5548   72.0942    3.2802 O   0  0  0  0  0  0  0  0  0  0  0  0
   22.1406   73.6235    4.2539 C   0  0  1  0  0  0  0  0  0  0  0  0
   23.6319   73.9066    4.4452 C   0  0  1  0  0  0  0  0  0  0  0  0
   21.9319   72.2580    3.6017 C   0  0  2  0  0  0  0  0  0  0  0  0
   24.4141   73.6560    3.1489 C   0  0  1  0  0  0  0  0  0  0  0  0
   22.7923   72.0937    2.3475 C   0  0  1  0  0  0  0  0  0  0  0  0
   21.6434   74.4919    5.9593 H   0  0  0  0  0  0  0  0  0  0  0  0
   23.2752   75.4085    5.6753 H   0  0  0  0  0  0  0  0  0  0  0  0
   20.0208   72.2002    4.0824 H   0  0  0  0  0  0  0  0  0  0  0  0
   26.5379   72.5897    2.9006 O   0  0  0  0  0  0  0  0  0  0  0  0
   25.9218   73.7796    3.3577 C   0  0  0  0  0  0  0  0  0  0  0  0
   27.4979   72.6541    3.0270 H   0  0  0  0  0  0  0  0  0  0  0  0
 25 28  1  0
 25 24  1  0
 25 26  1  1
 25 27  2  0
  1  4  1  0
  1 24  1  0
  1  2  1  6
  1  3  2  0
  6 11  1  0
  6 12  1  0
 29 36  1  0
 29 37  1  0
  9  7  1  1
  7 13  1  0
 10  8  1  1
  8 14  1  0
 37 28  1  6
  4  5  1  0
 33 30  1  1
 30 38  1  0
 34 31  1  6
 31 39  1  0
 35 32  1  6
 32 40  1  0
 41 42  1  0
 41 43  1  0
 15 19  2  0
 16 22  2  0
 12 17  1  6
 17 19  1  0
 17 20  1  0
 18 19  1  0
 18 22  1  0
 18 23  1  0
  9 10  1  0
  9 11  1  0
 10 12  1  0
 11  5  1  6
 33 34  1  0
 33 35  1  0
 34 36  1  0
 35 37  1  0
 36 42  1  1
 20 21  2  0
 21 22  1  0
M  CHG  2   2  -1  26  -1
M  END
>  <COMPND>  (243) 
    8629 

>  <AUTHOR>  (243) 
    GENERATED BY OPEN BABEL 3.1.1

>  <MASTER>  (243) 
        0    0    0    0    0    0    0    0   58    0   58    0

>  <minimizedAffinity>  (243) 
-7.94459

>  <CNNscore>  (243) 
0.8963253498

>  <CNNaffinity>  (243) 
4.6839613914

>  <CNN_VS>  (243) 
4.1983532906

>  <CNNaffinity_variance>  (243) 
0.0409843139

$$$$
244
     RDKit          3D

 43 45  0  0  0  0  0  0  0  0999 V2000
   21.7519   72.1348   -5.6439 P   0  0  2  0  0  0  0  0  0  0  0  0
   20.9428   73.5114   -5.3838 O   0  0  0  0  0  0  0  0  0  0  0  0
   23.0925   72.3013   -6.2972 O   0  0  0  0  0  0  0  0  0  0  0  0
   20.6928   71.2063   -6.4402 O   0  0  0  0  0  0  0  0  0  0  0  0
   20.2842   71.6061   -7.7367 C   0  0  0  0  0  0  0  0  0  0  0  0
   18.8681   69.7122   -7.3102 O   0  0  0  0  0  0  0  0  0  0  0  0
   18.0011   69.9529  -10.1705 O   0  0  0  0  0  0  0  0  0  0  0  0
   15.9343   71.1146   -8.8231 O   0  0  0  0  0  0  0  0  0  0  0  0
   18.3265   70.9813   -9.2368 C   0  0  1  0  0  0  0  0  0  0  0  0
   17.2132   71.1423   -8.2227 C   0  0  2  0  0  0  0  0  0  0  0  0
   19.4761   70.4820   -8.3704 C   0  0  1  0  0  0  0  0  0  0  0  0
   17.4524   69.9581   -7.3015 C   0  0  2  0  0  0  0  0  0  0  0  0
   17.2694   70.2488  -10.7352 H   0  0  0  0  0  0  0  0  0  0  0  0
   15.8306   71.8879   -9.3993 H   0  0  0  0  0  0  0  0  0  0  0  0
   16.1446   68.0807   -5.6453 O   0  0  0  0  0  0  0  0  0  0  0  0
   15.8872   71.0710   -2.1478 O   0  0  0  0  0  0  0  0  0  0  0  0
   17.0327   70.2192   -5.9536 N   0  0  0  0  0  0  0  0  0  0  0  0
   16.0177   69.5711   -3.9051 N   0  0  0  0  0  0  0  0  0  0  0  0
   16.3830   69.2082   -5.2078 C   0  0  0  0  0  0  0  0  0  0  0  0
   17.2665   71.4663   -5.3843 C   0  0  0  0  0  0  0  0  0  0  0  0
   16.9107   71.7968   -4.1411 C   0  0  0  0  0  0  0  0  0  0  0  0
   16.2270   70.7977   -3.2948 C   0  0  0  0  0  0  0  0  0  0  0  0
   15.5633   68.8829   -3.3669 H   0  0  0  0  0  0  0  0  0  0  0  0
   21.7979   71.4575   -4.1769 O   0  0  0  0  0  0  0  0  0  0  0  0
   22.7104   71.7866   -2.8839 P   0  0  2  0  0  0  0  0  0  0  0  0
   24.1575   71.1867   -3.2886 O   0  0  0  0  0  0  0  0  0  0  0  0
   22.1600   71.2570   -1.5914 O   0  0  0  0  0  0  0  0  0  0  0  0
   22.9083   73.3880   -2.9204 O   0  0  0  0  0  0  0  0  0  0  0  0
   24.3829   74.5110   -4.3972 O   0  0  0  0  0  0  0  0  0  0  0  0
   24.3540   77.2360   -1.2949 O   0  0  0  0  0  0  0  0  0  0  0  0
   22.9836   77.8577   -3.7411 O   0  0  0  0  0  0  0  0  0  0  0  0
   24.3336   74.3982   -0.7243 O   0  0  0  0  0  0  0  0  0  0  0  0
   23.7969   76.2499   -2.1681 C   0  0  1  0  0  0  0  0  0  0  0  0
   23.8942   76.7704   -3.6035 C   0  0  1  0  0  0  0  0  0  0  0  0
   24.5800   74.9474   -2.0143 C   0  0  2  0  0  0  0  0  0  0  0  0
   23.5646   75.6660   -4.6168 C   0  0  1  0  0  0  0  0  0  0  0  0
   24.2119   73.9353   -3.1006 C   0  0  1  0  0  0  0  0  0  0  0  0
   23.8609   78.0654   -1.3873 H   0  0  0  0  0  0  0  0  0  0  0  0
   23.2024   78.5479   -3.0953 H   0  0  0  0  0  0  0  0  0  0  0  0
   24.5709   75.0483   -0.0454 H   0  0  0  0  0  0  0  0  0  0  0  0
   23.4015   75.0799   -6.9274 O   0  0  0  0  0  0  0  0  0  0  0  0
   23.8080   76.1182   -6.0550 C   0  0  0  0  0  0  0  0  0  0  0  0
   23.5503   75.3538   -7.8464 H   0  0  0  0  0  0  0  0  0  0  0  0
 25 28  1  0
 25 24  1  0
 25 26  1  6
 25 27  2  0
  1  4  1  0
  1 24  1  0
  1  2  1  1
  1  3  2  0
  6 11  1  0
  6 12  1  0
 29 36  1  0
 29 37  1  0
  9  7  1  6
  7 13  1  0
 10  8  1  6
  8 14  1  0
 37 28  1  1
  4  5  1  0
 33 30  1  1
 30 38  1  0
 34 31  1  1
 31 39  1  0
 35 32  1  1
 32 40  1  0
 41 42  1  0
 41 43  1  0
 15 19  2  0
 16 22  2  0
 12 17  1  1
 17 19  1  0
 17 20  1  0
 18 19  1  0
 18 22  1  0
 18 23  1  0
  9 10  1  0
  9 11  1  0
 10 12  1  0
 11  5  1  1
 33 34  1  0
 33 35  1  0
 34 36  1  0
 35 37  1  0
 36 42  1  6
 20 21  2  0
 21 22  1  0
M  CHG  2   2  -1  26  -1
M  END
>  <COMPND>  (244) 
    8629 

>  <AUTHOR>  (244) 
    GENERATED BY OPEN BABEL 3.1.1

>  <MASTER>  (244) 
        0    0    0    0    0    0    0    0   58    0   58    0

>  <minimizedAffinity>  (244) 
-7.06758

>  <CNNscore>  (244) 
0.8962758183

>  <CNNaffinity>  (244) 
4.6444520950

>  <CNN_VS>  (244) 
4.1627101898

>  <CNNaffinity_variance>  (244) 
0.2518509328

$$$$
245
     RDKit          3D

 43 45  0  0  0  0  0  0  0  0999 V2000
   20.2382   71.6381   -1.2131 P   0  0  2  0  0  0  0  0  0  0  0  0
   20.8010   70.6205   -0.0883 O   0  0  0  0  0  0  0  0  0  0  0  0
   19.0693   72.4747   -0.7828 O   0  0  0  0  0  0  0  0  0  0  0  0
   19.9890   70.6929   -2.5024 O   0  0  0  0  0  0  0  0  0  0  0  0
   19.6483   71.3052   -3.7339 C   0  0  0  0  0  0  0  0  0  0  0  0
   17.7930   71.9599   -5.1134 O   0  0  0  0  0  0  0  0  0  0  0  0
   16.0505   70.5843   -3.0980 O   0  0  0  0  0  0  0  0  0  0  0  0
   16.1965   68.7483   -5.1090 O   0  0  0  0  0  0  0  0  0  0  0  0
   17.3513   70.2251   -3.5607 C   0  0  1  0  0  0  0  0  0  0  0  0
   17.2719   69.6530   -4.9607 C   0  0  2  0  0  0  0  0  0  0  0  0
   18.1403   71.5088   -3.7859 C   0  0  1  0  0  0  0  0  0  0  0  0
   17.1027   70.9055   -5.8038 C   0  0  2  0  0  0  0  0  0  0  0  0
   15.5279   69.7806   -2.9467 H   0  0  0  0  0  0  0  0  0  0  0  0
   16.3508   67.9686   -4.5532 H   0  0  0  0  0  0  0  0  0  0  0  0
   15.5833   70.6909   -8.1752 O   0  0  0  0  0  0  0  0  0  0  0  0
   19.3666   70.3566  -10.7860 O   0  0  0  0  0  0  0  0  0  0  0  0
   17.6648   70.7619   -7.1171 N   0  0  0  0  0  0  0  0  0  0  0  0
   17.4683   70.5248   -9.4732 N   0  0  0  0  0  0  0  0  0  0  0  0
   16.8139   70.6613   -8.2424 C   0  0  0  0  0  0  0  0  0  0  0  0
   19.0454   70.7223   -7.2794 C   0  0  0  0  0  0  0  0  0  0  0  0
   19.6538   70.5904   -8.4600 C   0  0  0  0  0  0  0  0  0  0  0  0
   18.8371   70.4790   -9.6858 C   0  0  0  0  0  0  0  0  0  0  0  0
   16.8958   70.4526  -10.2712 H   0  0  0  0  0  0  0  0  0  0  0  0
   21.5523   72.4821   -1.6298 O   0  0  0  0  0  0  0  0  0  0  0  0
   23.0870   72.3704   -1.1344 P   0  0  2  0  0  0  0  0  0  0  0  0
   23.8067   73.6174   -1.8722 O   0  0  0  0  0  0  0  0  0  0  0  0
   23.7254   71.0387   -1.4045 O   0  0  0  0  0  0  0  0  0  0  0  0
   23.0445   72.7880    0.4240 O   0  0  0  0  0  0  0  0  0  0  0  0
   25.0510   72.9109    1.6792 O   0  0  0  0  0  0  0  0  0  0  0  0
   22.3615   72.4472    4.7780 O   0  0  0  0  0  0  0  0  0  0  0  0
   23.6112   74.9981    4.3550 O   0  0  0  0  0  0  0  0  0  0  0  0
   21.9758   70.9977    2.3022 O   0  0  0  0  0  0  0  0  0  0  0  0
   22.8124   72.9110    3.5025 C   0  0  1  0  0  0  0  0  0  0  0  0
   24.0408   73.7965    3.7210 C   0  0  1  0  0  0  0  0  0  0  0  0
   23.1652   71.7078    2.6300 C   0  0  2  0  0  0  0  0  0  0  0  0
   24.7385   74.1138    2.3914 C   0  0  1  0  0  0  0  0  0  0  0  0
   23.8989   72.1299    1.3558 C   0  0  1  0  0  0  0  0  0  0  0  0
   22.1354   73.2063    5.3368 H   0  0  0  0  0  0  0  0  0  0  0  0
   23.1719   74.7838    5.1930 H   0  0  0  0  0  0  0  0  0  0  0  0
   21.5207   70.7358    3.1172 H   0  0  0  0  0  0  0  0  0  0  0  0
   26.5307   74.5786    3.9017 O   0  0  0  0  0  0  0  0  0  0  0  0
   26.0527   74.8631    2.5998 C   0  0  0  0  0  0  0  0  0  0  0  0
   27.3670   75.0486    4.0483 H   0  0  0  0  0  0  0  0  0  0  0  0
 25 28  1  0
 25 24  1  0
 25 26  1  6
 25 27  2  0
  1  4  1  0
  1 24  1  0
  1  2  1  1
  1  3  2  0
  6 11  1  0
  6 12  1  0
 29 36  1  0
 29 37  1  0
  9  7  1  6
  7 13  1  0
 10  8  1  1
  8 14  1  0
 37 28  1  6
  4  5  1  0
 33 30  1  1
 30 38  1  0
 34 31  1  6
 31 39  1  0
 35 32  1  6
 32 40  1  0
 41 42  1  0
 41 43  1  0
 15 19  2  0
 16 22  2  0
 12 17  1  6
 17 19  1  0
 17 20  1  0
 18 19  1  0
 18 22  1  0
 18 23  1  0
  9 10  1  0
  9 11  1  0
 10 12  1  0
 11  5  1  6
 33 34  1  0
 33 35  1  0
 34 36  1  0
 35 37  1  0
 36 42  1  1
 20 21  2  0
 21 22  1  0
M  CHG  2   2  -1  26  -1
M  END
>  <COMPND>  (245) 
    8629 

>  <AUTHOR>  (245) 
    GENERATED BY OPEN BABEL 3.1.1

>  <MASTER>  (245) 
        0    0    0    0    0    0    0    0   58    0   58    0

>  <minimizedAffinity>  (245) 
-7.37087

>  <CNNscore>  (245) 
0.8854469657

>  <CNNaffinity>  (245) 
4.6730661392

>  <CNN_VS>  (245) 
4.1377520561

>  <CNNaffinity_variance>  (245) 
0.1016008854

$$$$
246
     RDKit          3D

 43 45  0  0  0  0  0  0  0  0999 V2000
   20.4513   71.2091   -1.2808 P   0  0  2  0  0  0  0  0  0  0  0  0
   20.6629   70.5625    0.1871 O   0  0  0  0  0  0  0  0  0  0  0  0
   20.0813   72.6633   -1.2854 O   0  0  0  0  0  0  0  0  0  0  0  0
   19.3953   70.2131   -1.9954 O   0  0  0  0  0  0  0  0  0  0  0  0
   19.1140   70.4003   -3.3715 C   0  0  0  0  0  0  0  0  0  0  0  0
   17.4610   71.4107   -4.7929 O   0  0  0  0  0  0  0  0  0  0  0  0
   15.4336   69.8500   -3.2293 O   0  0  0  0  0  0  0  0  0  0  0  0
   15.6978   68.3696   -5.5042 O   0  0  0  0  0  0  0  0  0  0  0  0
   16.7554   69.4783   -3.6165 C   0  0  1  0  0  0  0  0  0  0  0  0
   16.7989   69.1553   -5.0955 C   0  0  2  0  0  0  0  0  0  0  0  0
   17.6346   70.7201   -3.5362 C   0  0  1  0  0  0  0  0  0  0  0  0
   16.7933   70.5399   -5.7207 C   0  0  2  0  0  0  0  0  0  0  0  0
   14.8537   69.0729   -3.2724 H   0  0  0  0  0  0  0  0  0  0  0  0
   15.7464   67.4988   -5.0799 H   0  0  0  0  0  0  0  0  0  0  0  0
   15.5256   70.5598   -8.2447 O   0  0  0  0  0  0  0  0  0  0  0  0
   19.5580   70.6795  -10.4731 O   0  0  0  0  0  0  0  0  0  0  0  0
   17.4876   70.5765   -6.9769 N   0  0  0  0  0  0  0  0  0  0  0  0
   17.5344   70.6196   -9.3522 N   0  0  0  0  0  0  0  0  0  0  0  0
   16.7568   70.5826   -8.1878 C   0  0  0  0  0  0  0  0  0  0  0  0
   18.8777   70.6062   -6.9997 C   0  0  0  0  0  0  0  0  0  0  0  0
   19.6044   70.6400   -8.1186 C   0  0  0  0  0  0  0  0  0  0  0  0
   18.9180   70.6487   -9.4266 C   0  0  0  0  0  0  0  0  0  0  0  0
   17.0469   70.6241  -10.2078 H   0  0  0  0  0  0  0  0  0  0  0  0
   21.8404   70.8660   -2.0328 O   0  0  0  0  0  0  0  0  0  0  0  0
   23.2940   71.5684   -1.9501 P   0  0  2  0  0  0  0  0  0  0  0  0
   24.1836   70.7035   -2.9884 O   0  0  0  0  0  0  0  0  0  0  0  0
   23.8621   71.6456   -0.5626 O   0  0  0  0  0  0  0  0  0  0  0  0
   23.0986   72.9980   -2.6733 O   0  0  0  0  0  0  0  0  0  0  0  0
   23.7535   73.1636   -4.9449 O   0  0  0  0  0  0  0  0  0  0  0  0
   23.6217   77.1815   -4.0017 O   0  0  0  0  0  0  0  0  0  0  0  0
   21.5834   76.0514   -5.6798 O   0  0  0  0  0  0  0  0  0  0  0  0
   24.6208   75.2758   -2.0653 O   0  0  0  0  0  0  0  0  0  0  0  0
   23.2069   75.8143   -3.9395 C   0  0  1  0  0  0  0  0  0  0  0  0
   22.7917   75.3746   -5.3448 C   0  0  1  0  0  0  0  0  0  0  0  0
   24.3687   74.9628   -3.4310 C   0  0  2  0  0  0  0  0  0  0  0  0
   22.5894   73.8549   -5.4127 C   0  0  1  0  0  0  0  0  0  0  0  0
   24.0848   73.4679   -3.5886 C   0  0  1  0  0  0  0  0  0  0  0  0
   22.8884   77.7277   -4.3234 H   0  0  0  0  0  0  0  0  0  0  0  0
   21.7246   77.0100   -5.6327 H   0  0  0  0  0  0  0  0  0  0  0  0
   24.7994   76.2248   -1.9789 H   0  0  0  0  0  0  0  0  0  0  0  0
   22.9974   72.1418   -7.0276 O   0  0  0  0  0  0  0  0  0  0  0  0
   22.3292   73.3757   -6.8392 C   0  0  0  0  0  0  0  0  0  0  0  0
   22.8404   71.8246   -7.9312 H   0  0  0  0  0  0  0  0  0  0  0  0
 25 28  1  0
 25 24  1  0
 25 26  1  6
 25 27  2  0
  1  4  1  0
  1 24  1  0
  1  2  1  1
  1  3  2  0
  6 11  1  0
  6 12  1  0
 29 36  1  0
 29 37  1  0
  9  7  1  6
  7 13  1  0
 10  8  1  6
  8 14  1  0
 37 28  1  1
  4  5  1  0
 33 30  1  6
 30 38  1  0
 34 31  1  1
 31 39  1  0
 35 32  1  1
 32 40  1  0
 41 42  1  0
 41 43  1  0
 15 19  2  0
 16 22  2  0
 12 17  1  6
 17 19  1  0
 17 20  1  0
 18 19  1  0
 18 22  1  0
 18 23  1  0
  9 10  1  0
  9 11  1  0
 10 12  1  0
 11  5  1  6
 33 34  1  0
 33 35  1  0
 34 36  1  0
 35 37  1  0
 36 42  1  6
 20 21  2  0
 21 22  1  0
M  CHG  2   2  -1  26  -1
M  END
>  <COMPND>  (246) 
    8629 

>  <AUTHOR>  (246) 
    GENERATED BY OPEN BABEL 3.1.1

>  <MASTER>  (246) 
        0    0    0    0    0    0    0    0   58    0   58    0

>  <minimizedAffinity>  (246) 
-8.39081

>  <CNNscore>  (246) 
0.8828680515

>  <CNNaffinity>  (246) 
4.7170104980

>  <CNN_VS>  (246) 
4.1644978523

>  <CNNaffinity_variance>  (246) 
0.2589431703

$$$$
247
     RDKit          3D

 43 45  0  0  0  0  0  0  0  0999 V2000
   21.2900   73.0049   -4.5099 P   0  0  2  0  0  0  0  0  0  0  0  0
   21.0844   74.4905   -3.9032 O   0  0  0  0  0  0  0  0  0  0  0  0
   22.1235   72.9389   -5.7558 O   0  0  0  0  0  0  0  0  0  0  0  0
   19.7845   72.4267   -4.6401 O   0  0  0  0  0  0  0  0  0  0  0  0
   19.3246   71.5117   -3.6608 C   0  0  0  0  0  0  0  0  0  0  0  0
   17.4071   71.7867   -5.0825 O   0  0  0  0  0  0  0  0  0  0  0  0
   15.9241   70.1035   -3.0929 O   0  0  0  0  0  0  0  0  0  0  0  0
   16.4690   68.3250   -5.0871 O   0  0  0  0  0  0  0  0  0  0  0  0
   17.2796   70.0039   -3.5265 C   0  0  1  0  0  0  0  0  0  0  0  0
   17.3435   69.4229   -4.9236 C   0  0  2  0  0  0  0  0  0  0  0  0
   17.8073   71.4164   -3.7450 C   0  0  1  0  0  0  0  0  0  0  0  0
   16.9510   70.6155   -5.7790 C   0  0  2  0  0  0  0  0  0  0  0  0
   15.5655   69.2136   -2.9465 H   0  0  0  0  0  0  0  0  0  0  0  0
   16.7608   67.5922   -4.5225 H   0  0  0  0  0  0  0  0  0  0  0  0
   15.5156   70.6318   -8.2116 O   0  0  0  0  0  0  0  0  0  0  0  0
   19.3863   70.4760  -10.7084 O   0  0  0  0  0  0  0  0  0  0  0  0
   17.5583   70.5802   -7.0795 N   0  0  0  0  0  0  0  0  0  0  0  0
   17.4441   70.5544   -9.4528 N   0  0  0  0  0  0  0  0  0  0  0  0
   16.7474   70.5910   -8.2382 C   0  0  0  0  0  0  0  0  0  0  0  0
   18.9433   70.5358   -7.1965 C   0  0  0  0  0  0  0  0  0  0  0  0
   19.5923   70.4999   -8.3622 C   0  0  0  0  0  0  0  0  0  0  0  0
   18.8190   70.5084   -9.6208 C   0  0  0  0  0  0  0  0  0  0  0  0
   16.8998   70.5608  -10.2735 H   0  0  0  0  0  0  0  0  0  0  0  0
   21.8889   72.1797   -3.2555 O   0  0  0  0  0  0  0  0  0  0  0  0
   23.3983   72.0539   -2.6908 P   0  0  2  0  0  0  0  0  0  0  0  0
   24.0878   73.4392   -3.1633 O   0  0  0  0  0  0  0  0  0  0  0  0
   24.1220   70.8175   -3.1394 O   0  0  0  0  0  0  0  0  0  0  0  0
   23.2490   72.1981   -1.0902 O   0  0  0  0  0  0  0  0  0  0  0  0
   24.2213   70.8059    0.5630 O   0  0  0  0  0  0  0  0  0  0  0  0
   20.7558   71.8619    2.5445 O   0  0  0  0  0  0  0  0  0  0  0  0
   23.2663   72.9724    3.3884 O   0  0  0  0  0  0  0  0  0  0  0  0
   20.6918   71.3508   -0.3041 O   0  0  0  0  0  0  0  0  0  0  0  0
   21.8708   72.0635    1.6717 C   0  0  1  0  0  0  0  0  0  0  0  0
   23.1546   71.8779    2.4830 C   0  0  1  0  0  0  0  0  0  0  0  0
   21.8030   71.0479    0.5327 C   0  0  2  0  0  0  0  0  0  0  0  0
   24.3843   71.8142    1.5671 C   0  0  1  0  0  0  0  0  0  0  0  0
   23.0947   71.0311   -0.2867 C   0  0  1  0  0  0  0  0  0  0  0  0
   20.7926   72.5040    3.2697 H   0  0  0  0  0  0  0  0  0  0  0  0
   22.4834   73.0016    3.9605 H   0  0  0  0  0  0  0  0  0  0  0  0
   19.8804   71.3581    0.2263 H   0  0  0  0  0  0  0  0  0  0  0  0
   26.1344   72.6508    2.9622 O   0  0  0  0  0  0  0  0  0  0  0  0
   25.6561   71.4724    2.3403 C   0  0  0  0  0  0  0  0  0  0  0  0
   26.9435   72.4484    3.4582 H   0  0  0  0  0  0  0  0  0  0  0  0
 25 28  1  0
 25 24  1  0
 25 26  1  6
 25 27  2  0
  1  4  1  0
  1 24  1  0
  1  2  1  1
  1  3  2  0
  6 11  1  0
  6 12  1  0
 29 36  1  0
 29 37  1  0
  9  7  1  6
  7 13  1  0
 10  8  1  1
  8 14  1  0
 37 28  1  1
  4  5  1  0
 33 30  1  1
 30 38  1  0
 34 31  1  1
 31 39  1  0
 35 32  1  6
 32 40  1  0
 41 42  1  0
 41 43  1  0
 15 19  2  0
 16 22  2  0
 12 17  1  6
 17 19  1  0
 17 20  1  0
 18 19  1  0
 18 22  1  0
 18 23  1  0
  9 10  1  0
  9 11  1  0
 10 12  1  0
 11  5  1  6
 33 34  1  0
 33 35  1  0
 34 36  1  0
 35 37  1  0
 36 42  1  1
 20 21  2  0
 21 22  1  0
M  CHG  2   2  -1  26  -1
M  END
>  <COMPND>  (247) 
    8629 

>  <AUTHOR>  (247) 
    GENERATED BY OPEN BABEL 3.1.1

>  <MASTER>  (247) 
        0    0    0    0    0    0    0    0   58    0   58    0

>  <minimizedAffinity>  (247) 
-7.89160

>  <CNNscore>  (247) 
0.8574278951

>  <CNNaffinity>  (247) 
4.7192602158

>  <CNN_VS>  (247) 
4.0464253426

>  <CNNaffinity_variance>  (247) 
0.0474200621

$$$$
248
     RDKit          3D

 43 45  0  0  0  0  0  0  0  0999 V2000
   22.2034   72.8760   -6.5222 P   0  0  2  0  0  0  0  0  0  0  0  0
   21.0830   73.8637   -5.9005 O   0  0  0  0  0  0  0  0  0  0  0  0
   23.2845   73.5585   -7.3074 O   0  0  0  0  0  0  0  0  0  0  0  0
   21.3412   71.7695   -7.3286 O   0  0  0  0  0  0  0  0  0  0  0  0
   19.9602   72.0087   -7.5369 C   0  0  0  0  0  0  0  0  0  0  0  0
   18.7598   69.9710   -7.1119 O   0  0  0  0  0  0  0  0  0  0  0  0
   18.0421   70.0065  -10.0230 O   0  0  0  0  0  0  0  0  0  0  0  0
   15.7738   70.9509   -8.8401 O   0  0  0  0  0  0  0  0  0  0  0  0
   18.1849   71.0981   -9.1157 C   0  0  1  0  0  0  0  0  0  0  0  0
   17.0019   71.1556   -8.1718 C   0  0  2  0  0  0  0  0  0  0  0  0
   19.3326   70.7732   -8.1677 C   0  0  1  0  0  0  0  0  0  0  0  0
   17.3267   70.0415   -7.1913 C   0  0  2  0  0  0  0  0  0  0  0  0
   17.3150   70.1912  -10.6388 H   0  0  0  0  0  0  0  0  0  0  0  0
   15.6122   71.6858   -9.4522 H   0  0  0  0  0  0  0  0  0  0  0  0
   16.4662   68.0325   -5.4021 O   0  0  0  0  0  0  0  0  0  0  0  0
   15.3185   71.1300   -2.1881 O   0  0  0  0  0  0  0  0  0  0  0  0
   16.7990   70.2948   -5.8802 N   0  0  0  0  0  0  0  0  0  0  0  0
   15.8956   69.5765   -3.8031 N   0  0  0  0  0  0  0  0  0  0  0  0
   16.3945   69.2150   -5.0611 C   0  0  0  0  0  0  0  0  0  0  0  0
   16.6873   71.6018   -5.4187 C   0  0  0  0  0  0  0  0  0  0  0  0
   16.2083   71.9298   -4.2170 C   0  0  0  0  0  0  0  0  0  0  0  0
   15.7636   70.8608   -3.2995 C   0  0  0  0  0  0  0  0  0  0  0  0
   15.6073   68.8408   -3.2154 H   0  0  0  0  0  0  0  0  0  0  0  0
   22.7251   72.0584   -5.2290 O   0  0  0  0  0  0  0  0  0  0  0  0
   23.3629   72.5714   -3.8352 P   0  0  2  0  0  0  0  0  0  0  0  0
   24.1629   71.2736   -3.2934 O   0  0  0  0  0  0  0  0  0  0  0  0
   22.3596   73.1289   -2.8675 O   0  0  0  0  0  0  0  0  0  0  0  0
   24.5188   73.6095   -4.2724 O   0  0  0  0  0  0  0  0  0  0  0  0
   26.1171   75.1095   -3.3713 O   0  0  0  0  0  0  0  0  0  0  0  0
   23.9778   77.7533   -5.7132 O   0  0  0  0  0  0  0  0  0  0  0  0
   26.6154   76.9559   -6.5227 O   0  0  0  0  0  0  0  0  0  0  0  0
   22.5970   75.6544   -4.2755 O   0  0  0  0  0  0  0  0  0  0  0  0
   24.5680   76.4952   -5.3753 C   0  0  1  0  0  0  0  0  0  0  0  0
   26.0774   76.6974   -5.2288 C   0  0  1  0  0  0  0  0  0  0  0  0
   23.9627   75.9960   -4.0646 C   0  0  2  0  0  0  0  0  0  0  0  0
   26.7444   75.4617   -4.6099 C   0  0  1  0  0  0  0  0  0  0  0  0
   24.7301   74.7947   -3.5096 C   0  0  1  0  0  0  0  0  0  0  0  0
   24.3575   78.0757   -6.5448 H   0  0  0  0  0  0  0  0  0  0  0  0
   26.1855   77.7382   -6.9026 H   0  0  0  0  0  0  0  0  0  0  0  0
   22.1220   76.4231   -4.6266 H   0  0  0  0  0  0  0  0  0  0  0  0
   28.9738   75.3779   -5.4654 O   0  0  0  0  0  0  0  0  0  0  0  0
   28.2226   75.6998   -4.3094 C   0  0  0  0  0  0  0  0  0  0  0  0
   29.9166   75.5250   -5.2890 H   0  0  0  0  0  0  0  0  0  0  0  0
 25 28  1  0
 25 24  1  0
 25 26  1  1
 25 27  2  0
  1  4  1  0
  1 24  1  0
  1  2  1  1
  1  3  2  0
  6 11  1  0
  6 12  1  0
 29 36  1  0
 29 37  1  0
  9  7  1  6
  7 13  1  0
 10  8  1  6
  8 14  1  0
 37 28  1  6
  4  5  1  0
 33 30  1  1
 30 38  1  0
 34 31  1  6
 31 39  1  0
 35 32  1  6
 32 40  1  0
 41 42  1  0
 41 43  1  0
 15 19  2  0
 16 22  2  0
 12 17  1  1
 17 19  1  0
 17 20  1  0
 18 19  1  0
 18 22  1  0
 18 23  1  0
  9 10  1  0
  9 11  1  0
 10 12  1  0
 11  5  1  1
 33 34  1  0
 33 35  1  0
 34 36  1  0
 35 37  1  0
 36 42  1  1
 20 21  2  0
 21 22  1  0
M  CHG  2   2  -1  26  -1
M  END
>  <COMPND>  (248) 
    8629 

>  <AUTHOR>  (248) 
    GENERATED BY OPEN BABEL 3.1.1

>  <MASTER>  (248) 
        0    0    0    0    0    0    0    0   58    0   58    0

>  <minimizedAffinity>  (248) 
-7.00060

>  <CNNscore>  (248) 
0.8558841944

>  <CNNaffinity>  (248) 
4.6411986351

>  <CNN_VS>  (248) 
3.9723286629

>  <CNNaffinity_variance>  (248) 
0.2193358243

$$$$
249
     RDKit          3D

 43 45  0  0  0  0  0  0  0  0999 V2000
   20.5605   71.2904   -2.4524 P   0  0  2  0  0  0  0  0  0  0  0  0
   21.3730   72.6889   -2.4141 O   0  0  0  0  0  0  0  0  0  0  0  0
   20.9543   70.3588   -3.5607 O   0  0  0  0  0  0  0  0  0  0  0  0
   19.0072   71.7430   -2.4333 O   0  0  0  0  0  0  0  0  0  0  0  0
   18.4378   72.2558   -3.6252 C   0  0  0  0  0  0  0  0  0  0  0  0
   16.6837   71.7742   -5.1953 O   0  0  0  0  0  0  0  0  0  0  0  0
   15.6098   69.8839   -3.1303 O   0  0  0  0  0  0  0  0  0  0  0  0
   16.8815   68.2084   -4.8657 O   0  0  0  0  0  0  0  0  0  0  0  0
   16.9647   70.1882   -3.4570 C   0  0  1  0  0  0  0  0  0  0  0  0
   17.3474   69.5390   -4.7707 C   0  0  2  0  0  0  0  0  0  0  0  0
   17.0431   71.6706   -3.8001 C   0  0  1  0  0  0  0  0  0  0  0  0
   16.6895   70.4625   -5.7819 C   0  0  2  0  0  0  0  0  0  0  0  0
   15.5348   68.9423   -2.9072 H   0  0  0  0  0  0  0  0  0  0  0  0
   17.3295   67.6606   -4.2024 H   0  0  0  0  0  0  0  0  0  0  0  0
   15.4658   70.6581   -8.3200 O   0  0  0  0  0  0  0  0  0  0  0  0
   19.5340   70.6398  -10.4858 O   0  0  0  0  0  0  0  0  0  0  0  0
   17.4049   70.5111   -7.0258 N   0  0  0  0  0  0  0  0  0  0  0  0
   17.4924   70.6490   -9.3964 N   0  0  0  0  0  0  0  0  0  0  0  0
   16.6952   70.6084   -8.2453 C   0  0  0  0  0  0  0  0  0  0  0  0
   18.7947   70.4627   -7.0282 C   0  0  0  0  0  0  0  0  0  0  0  0
   19.5401   70.5011   -8.1346 C   0  0  0  0  0  0  0  0  0  0  0  0
   18.8765   70.6025   -9.4504 C   0  0  0  0  0  0  0  0  0  0  0  0
   17.0198   70.7164  -10.2577 H   0  0  0  0  0  0  0  0  0  0  0  0
   20.7849   70.6990   -0.9648 O   0  0  0  0  0  0  0  0  0  0  0  0
   21.8852   71.0554    0.1645 P   0  0  2  0  0  0  0  0  0  0  0  0
   23.2627   71.1551   -0.6781 O   0  0  0  0  0  0  0  0  0  0  0  0
   21.9284   70.0852    1.3094 O   0  0  0  0  0  0  0  0  0  0  0  0
   21.5562   72.5772    0.5895 O   0  0  0  0  0  0  0  0  0  0  0  0
   20.5912   72.8997    2.7299 O   0  0  0  0  0  0  0  0  0  0  0  0
   19.6930   76.5601    1.0431 O   0  0  0  0  0  0  0  0  0  0  0  0
   21.7324   76.3895    3.0579 O   0  0  0  0  0  0  0  0  0  0  0  0
   19.5401   74.1548   -0.5603 O   0  0  0  0  0  0  0  0  0  0  0  0
   20.4851   75.3925    1.2772 C   0  0  1  0  0  0  0  0  0  0  0  0
   20.8217   75.3326    2.7685 C   0  0  1  0  0  0  0  0  0  0  0  0
   19.6909   74.1577    0.8553 C   0  0  2  0  0  0  0  0  0  0  0  0
   21.4385   73.9782    3.1431 C   0  0  1  0  0  0  0  0  0  0  0  0
   20.3664   72.8660    1.3192 C   0  0  1  0  0  0  0  0  0  0  0  0
   20.1917   77.3477    1.3084 H   0  0  0  0  0  0  0  0  0  0  0  0
   21.3310   77.2390    2.8163 H   0  0  0  0  0  0  0  0  0  0  0  0
   19.1110   74.9774   -0.8413 H   0  0  0  0  0  0  0  0  0  0  0  0
   22.1879   72.5603    4.9143 O   0  0  0  0  0  0  0  0  0  0  0  0
   21.6366   73.8374    4.6508 C   0  0  0  0  0  0  0  0  0  0  0  0
   22.3197   72.4567    5.8701 H   0  0  0  0  0  0  0  0  0  0  0  0
 25 28  1  0
 25 24  1  0
 25 26  1  6
 25 27  2  0
  1  4  1  0
  1 24  1  0
  1  2  1  1
  1  3  2  0
  6 11  1  0
  6 12  1  0
 29 36  1  0
 29 37  1  0
  9  7  1  6
  7 13  1  0
 10  8  1  1
  8 14  1  0
 37 28  1  6
  4  5  1  0
 33 30  1  1
 30 38  1  0
 34 31  1  6
 31 39  1  0
 35 32  1  6
 32 40  1  0
 41 42  1  0
 41 43  1  0
 15 19  2  0
 16 22  2  0
 12 17  1  6
 17 19  1  0
 17 20  1  0
 18 19  1  0
 18 22  1  0
 18 23  1  0
  9 10  1  0
  9 11  1  0
 10 12  1  0
 11  5  1  6
 33 34  1  0
 33 35  1  0
 34 36  1  0
 35 37  1  0
 36 42  1  1
 20 21  2  0
 21 22  1  0
M  CHG  2   2  -1  26  -1
M  END
>  <COMPND>  (249) 
    8629 

>  <AUTHOR>  (249) 
    GENERATED BY OPEN BABEL 3.1.1

>  <MASTER>  (249) 
        0    0    0    0    0    0    0    0   58    0   58    0

>  <minimizedAffinity>  (249) 
-7.02062

>  <CNNscore>  (249) 
0.8381603956

>  <CNNaffinity>  (249) 
4.5220727921

>  <CNN_VS>  (249) 
3.7902224064

>  <CNNaffinity_variance>  (249) 
0.0417452976

$$$$
250
     RDKit          3D

 43 45  0  0  0  0  0  0  0  0999 V2000
   22.3579   73.2042   -7.2270 P   0  0  2  0  0  0  0  0  0  0  0  0
   21.2947   74.1969   -6.5188 O   0  0  0  0  0  0  0  0  0  0  0  0
   23.3169   73.8706   -8.1691 O   0  0  0  0  0  0  0  0  0  0  0  0
   21.4348   72.0414   -7.8702 O   0  0  0  0  0  0  0  0  0  0  0  0
   20.0606   72.0018   -7.5270 C   0  0  0  0  0  0  0  0  0  0  0  0
   18.8441   69.9668   -7.1361 O   0  0  0  0  0  0  0  0  0  0  0  0
   18.1220   70.0598  -10.0448 O   0  0  0  0  0  0  0  0  0  0  0  0
   15.8635   71.0017   -8.8414 O   0  0  0  0  0  0  0  0  0  0  0  0
   18.2753   71.1339   -9.1185 C   0  0  1  0  0  0  0  0  0  0  0  0
   17.0944   71.1844   -8.1718 C   0  0  2  0  0  0  0  0  0  0  0  0
   19.4218   70.7829   -8.1785 C   0  0  1  0  0  0  0  0  0  0  0  0
   17.4116   70.0505   -7.2117 C   0  0  2  0  0  0  0  0  0  0  0  0
   17.3955   70.2613  -10.6560 H   0  0  0  0  0  0  0  0  0  0  0  0
   15.7070   71.7486   -9.4401 H   0  0  0  0  0  0  0  0  0  0  0  0
   16.3887   68.0340   -5.5189 O   0  0  0  0  0  0  0  0  0  0  0  0
   15.4282   71.0659   -2.1833 O   0  0  0  0  0  0  0  0  0  0  0  0
   16.8881   70.2848   -5.8954 N   0  0  0  0  0  0  0  0  0  0  0  0
   15.9114   69.5452   -3.8593 N   0  0  0  0  0  0  0  0  0  0  0  0
   16.3978   69.2029   -5.1275 C   0  0  0  0  0  0  0  0  0  0  0  0
   16.8648   71.5756   -5.3785 C   0  0  0  0  0  0  0  0  0  0  0  0
   16.3965   71.8855   -4.1678 C   0  0  0  0  0  0  0  0  0  0  0  0
   15.8658   70.8131   -3.3015 C   0  0  0  0  0  0  0  0  0  0  0  0
   15.5644   68.8078   -3.3066 H   0  0  0  0  0  0  0  0  0  0  0  0
   23.0546   72.4621   -5.9713 O   0  0  0  0  0  0  0  0  0  0  0  0
   22.6721   72.4483   -4.4008 P   0  0  2  0  0  0  0  0  0  0  0  0
   23.9389   71.7099   -3.7169 O   0  0  0  0  0  0  0  0  0  0  0  0
   21.3464   71.8132   -4.0959 O   0  0  0  0  0  0  0  0  0  0  0  0
   22.7985   73.9887   -3.9360 O   0  0  0  0  0  0  0  0  0  0  0  0
   23.0219   74.7030   -1.6873 O   0  0  0  0  0  0  0  0  0  0  0  0
   21.1594   78.0375   -3.2568 O   0  0  0  0  0  0  0  0  0  0  0  0
   23.9415   78.1656   -2.5556 O   0  0  0  0  0  0  0  0  0  0  0  0
   20.3792   75.3953   -4.1455 O   0  0  0  0  0  0  0  0  0  0  0  0
   22.0364   76.9078   -3.2695 C   0  0  1  0  0  0  0  0  0  0  0  0
   23.0803   77.0988   -2.1674 C   0  0  1  0  0  0  0  0  0  0  0  0
   21.2208   75.6399   -3.0237 C   0  0  2  0  0  0  0  0  0  0  0  0
   23.8892   75.8142   -1.9420 C   0  0  1  0  0  0  0  0  0  0  0  0
   22.1210   74.4310   -2.7626 C   0  0  1  0  0  0  0  0  0  0  0  0
   21.6710   78.8458   -3.4128 H   0  0  0  0  0  0  0  0  0  0  0  0
   23.4183   78.9706   -2.6952 H   0  0  0  0  0  0  0  0  0  0  0  0
   19.8142   76.1677   -4.3001 H   0  0  0  0  0  0  0  0  0  0  0  0
   24.4413   77.0603    0.0205 O   0  0  0  0  0  0  0  0  0  0  0  0
   24.8272   75.9320   -0.7427 C   0  0  0  0  0  0  0  0  0  0  0  0
   25.0294   77.1476    0.7874 H   0  0  0  0  0  0  0  0  0  0  0  0
 25 28  1  0
 25 24  1  0
 25 26  1  1
 25 27  2  0
  1  4  1  0
  1 24  1  0
  1  2  1  1
  1  3  2  0
  6 11  1  0
  6 12  1  0
 29 36  1  0
 29 37  1  0
  9  7  1  6
  7 13  1  0
 10  8  1  6
  8 14  1  0
 37 28  1  6
  4  5  1  0
 33 30  1  1
 30 38  1  0
 34 31  1  6
 31 39  1  0
 35 32  1  6
 32 40  1  0
 41 42  1  0
 41 43  1  0
 15 19  2  0
 16 22  2  0
 12 17  1  1
 17 19  1  0
 17 20  1  0
 18 19  1  0
 18 22  1  0
 18 23  1  0
  9 10  1  0
  9 11  1  0
 10 12  1  0
 11  5  1  1
 33 34  1  0
 33 35  1  0
 34 36  1  0
 35 37  1  0
 36 42  1  1
 20 21  2  0
 21 22  1  0
M  CHG  2   2  -1  26  -1
M  END
>  <COMPND>  (250) 
    8629 

>  <AUTHOR>  (250) 
    GENERATED BY OPEN BABEL 3.1.1

>  <MASTER>  (250) 
        0    0    0    0    0    0    0    0   58    0   58    0

>  <minimizedAffinity>  (250) 
-6.59453

>  <CNNscore>  (250) 
0.8132148385

>  <CNNaffinity>  (250) 
4.5346503258

>  <CNN_VS>  (250) 
3.6876449585

>  <CNNaffinity_variance>  (250) 
0.1440204233

$$$$
251
     RDKit          3D

 43 45  0  0  0  0  0  0  0  0999 V2000
   22.9094   72.7837   -4.1748 P   0  0  2  0  0  0  0  0  0  0  0  0
   23.2848   73.8193   -5.3597 O   0  0  0  0  0  0  0  0  0  0  0  0
   24.0243   71.8724   -3.7528 O   0  0  0  0  0  0  0  0  0  0  0  0
   21.5682   72.0527   -4.7083 O   0  0  0  0  0  0  0  0  0  0  0  0
   20.9856   71.0400   -3.9065 C   0  0  0  0  0  0  0  0  0  0  0  0
   18.9611   71.9144   -4.8609 O   0  0  0  0  0  0  0  0  0  0  0  0
   17.5455   70.6699   -2.5290 O   0  0  0  0  0  0  0  0  0  0  0  0
   17.0752   68.8815   -4.5332 O   0  0  0  0  0  0  0  0  0  0  0  0
   18.6759   70.1932   -3.2572 C   0  0  1  0  0  0  0  0  0  0  0  0
   18.2460   69.6687   -4.6113 C   0  0  2  0  0  0  0  0  0  0  0  0
   19.5297   71.3962   -3.6385 C   0  0  1  0  0  0  0  0  0  0  0  0
   18.0355   70.9535   -5.3945 C   0  0  2  0  0  0  0  0  0  0  0  0
   16.9853   69.9194   -2.2742 H   0  0  0  0  0  0  0  0  0  0  0  0
   17.2603   68.0759   -4.0257 H   0  0  0  0  0  0  0  0  0  0  0  0
   16.0987   70.1509   -7.2872 O   0  0  0  0  0  0  0  0  0  0  0  0
   19.1339   70.3502  -10.7498 O   0  0  0  0  0  0  0  0  0  0  0  0
   18.2922   70.7879   -6.7974 N   0  0  0  0  0  0  0  0  0  0  0  0
   17.6115   70.2510   -9.0098 N   0  0  0  0  0  0  0  0  0  0  0  0
   17.2503   70.3803   -7.6627 C   0  0  0  0  0  0  0  0  0  0  0  0
   19.5653   71.0294   -7.3022 C   0  0  0  0  0  0  0  0  0  0  0  0
   19.8938   70.9002   -8.5893 C   0  0  0  0  0  0  0  0  0  0  0  0
   18.8632   70.4781   -9.5597 C   0  0  0  0  0  0  0  0  0  0  0  0
   16.9020   69.9677   -9.6311 H   0  0  0  0  0  0  0  0  0  0  0  0
   22.3545   73.7535   -3.0067 O   0  0  0  0  0  0  0  0  0  0  0  0
   23.1347   74.6360   -1.8998 P   0  0  2  0  0  0  0  0  0  0  0  0
   22.4301   76.0875   -2.0185 O   0  0  0  0  0  0  0  0  0  0  0  0
   24.6264   74.6561   -2.0686 O   0  0  0  0  0  0  0  0  0  0  0  0
   22.6299   74.0525   -0.4822 O   0  0  0  0  0  0  0  0  0  0  0  0
   23.6071   73.7114    1.6498 O   0  0  0  0  0  0  0  0  0  0  0  0
   21.6740   70.0877    1.2225 O   0  0  0  0  0  0  0  0  0  0  0  0
   20.6527   72.0297    3.0755 O   0  0  0  0  0  0  0  0  0  0  0  0
   22.9435   71.3256   -1.0656 O   0  0  0  0  0  0  0  0  0  0  0  0
   21.8442   71.4995    1.0705 C   0  0  1  0  0  0  0  0  0  0  0  0
   21.9363   72.1243    2.4640 C   0  0  1  0  0  0  0  0  0  0  0  0
   23.1218   71.7656    0.2765 C   0  0  2  0  0  0  0  0  0  0  0  0
   22.3841   73.5900    2.3855 C   0  0  1  0  0  0  0  0  0  0  0  0
   23.5049   73.2464    0.3025 C   0  0  1  0  0  0  0  0  0  0  0  0
   20.8643   69.9118    1.7254 H   0  0  0  0  0  0  0  0  0  0  0  0
   20.3815   71.0992    3.1185 H   0  0  0  0  0  0  0  0  0  0  0  0
   22.7016   70.3868   -1.0685 H   0  0  0  0  0  0  0  0  0  0  0  0
   22.7062   73.1292    4.7077 O   0  0  0  0  0  0  0  0  0  0  0  0
   22.6346   74.1864    3.7688 C   0  0  0  0  0  0  0  0  0  0  0  0
   22.8657   73.4939    5.5928 H   0  0  0  0  0  0  0  0  0  0  0  0
 25 28  1  0
 25 24  1  0
 25 26  1  1
 25 27  2  0
  1  4  1  0
  1 24  1  0
  1  2  1  6
  1  3  2  0
  6 11  1  0
  6 12  1  0
 29 36  1  0
 29 37  1  0
  9  7  1  1
  7 13  1  0
 10  8  1  1
  8 14  1  0
 37 28  1  6
  4  5  1  0
 33 30  1  1
 30 38  1  0
 34 31  1  6
 31 39  1  0
 35 32  1  6
 32 40  1  0
 41 42  1  0
 41 43  1  0
 15 19  2  0
 16 22  2  0
 12 17  1  6
 17 19  1  0
 17 20  1  0
 18 19  1  0
 18 22  1  0
 18 23  1  0
  9 10  1  0
  9 11  1  0
 10 12  1  0
 11  5  1  6
 33 34  1  0
 33 35  1  0
 34 36  1  0
 35 37  1  0
 36 42  1  1
 20 21  2  0
 21 22  1  0
M  CHG  2   2  -1  26  -1
M  END
>  <COMPND>  (251) 
    8629 

>  <AUTHOR>  (251) 
    GENERATED BY OPEN BABEL 3.1.1

>  <MASTER>  (251) 
        0    0    0    0    0    0    0    0   58    0   58    0

>  <minimizedAffinity>  (251) 
-7.72772

>  <CNNscore>  (251) 
0.8058118820

>  <CNNaffinity>  (251) 
4.6160898209

>  <CNN_VS>  (251) 
3.7197000980

>  <CNNaffinity_variance>  (251) 
0.0392422602

$$$$
252
     RDKit          3D

 43 45  0  0  0  0  0  0  0  0999 V2000
   21.5576   72.5570   -5.5174 P   0  0  2  0  0  0  0  0  0  0  0  0
   20.9238   74.0052   -5.8617 O   0  0  0  0  0  0  0  0  0  0  0  0
   23.0347   72.4393   -5.7536 O   0  0  0  0  0  0  0  0  0  0  0  0
   20.6292   71.5206   -6.3431 O   0  0  0  0  0  0  0  0  0  0  0  0
   20.2224   71.8735   -7.6537 C   0  0  0  0  0  0  0  0  0  0  0  0
   18.9759   69.8635   -7.2297 O   0  0  0  0  0  0  0  0  0  0  0  0
   18.0826   70.0377  -10.0867 O   0  0  0  0  0  0  0  0  0  0  0  0
   15.9276   71.0129   -8.7295 O   0  0  0  0  0  0  0  0  0  0  0  0
   18.3211   71.0874   -9.1504 C   0  0  1  0  0  0  0  0  0  0  0  0
   17.2012   71.1487   -8.1327 C   0  0  2  0  0  0  0  0  0  0  0  0
   19.5121   70.6861   -8.2890 C   0  0  1  0  0  0  0  0  0  0  0  0
   17.5443   69.9865   -7.2163 C   0  0  2  0  0  0  0  0  0  0  0  0
   17.3264   70.2714  -10.6484 H   0  0  0  0  0  0  0  0  0  0  0  0
   15.7560   71.7763   -9.3027 H   0  0  0  0  0  0  0  0  0  0  0  0
   16.1037   68.1054   -5.6787 O   0  0  0  0  0  0  0  0  0  0  0  0
   15.9210   70.9388   -2.0483 O   0  0  0  0  0  0  0  0  0  0  0  0
   17.1078   70.2063   -5.8662 N   0  0  0  0  0  0  0  0  0  0  0  0
   16.0140   69.5177   -3.8723 N   0  0  0  0  0  0  0  0  0  0  0  0
   16.3899   69.1972   -5.1830 C   0  0  0  0  0  0  0  0  0  0  0  0
   17.3927   71.4114   -5.2333 C   0  0  0  0  0  0  0  0  0  0  0  0
   17.0260   71.7019   -3.9833 C   0  0  0  0  0  0  0  0  0  0  0  0
   16.2724   70.7017   -3.1999 C   0  0  0  0  0  0  0  0  0  0  0  0
   15.5125   68.8300   -3.3770 H   0  0  0  0  0  0  0  0  0  0  0  0
   21.0997   72.3146   -3.9862 O   0  0  0  0  0  0  0  0  0  0  0  0
   21.1647   70.9949   -3.0551 P   0  0  2  0  0  0  0  0  0  0  0  0
   22.7409   70.6304   -3.0376 O   0  0  0  0  0  0  0  0  0  0  0  0
   20.2752   69.8750   -3.5119 O   0  0  0  0  0  0  0  0  0  0  0  0
   20.8537   71.5307   -1.5647 O   0  0  0  0  0  0  0  0  0  0  0  0
   22.1569   73.3692   -0.8312 O   0  0  0  0  0  0  0  0  0  0  0  0
   20.6582   72.1278    2.8108 O   0  0  0  0  0  0  0  0  0  0  0  0
   19.6703   74.5481    1.6216 O   0  0  0  0  0  0  0  0  0  0  0  0
   21.4252   70.1695    0.8218 O   0  0  0  0  0  0  0  0  0  0  0  0
   20.6249   72.3661    1.4010 C   0  0  1  0  0  0  0  0  0  0  0  0
   20.8324   73.8631    1.1627 C   0  0  1  0  0  0  0  0  0  0  0  0
   21.7336   71.5563    0.7315 C   0  0  2  0  0  0  0  0  0  0  0  0
   21.0751   74.1590   -0.3235 C   0  0  1  0  0  0  0  0  0  0  0  0
   21.9256   71.9626   -0.7307 C   0  0  1  0  0  0  0  0  0  0  0  0
   19.9563   72.6387    3.2419 H   0  0  0  0  0  0  0  0  0  0  0  0
   19.5281   74.3524    2.5611 H   0  0  0  0  0  0  0  0  0  0  0  0
   21.3064   69.9247    1.7523 H   0  0  0  0  0  0  0  0  0  0  0  0
   20.3015   76.4194   -0.2953 O   0  0  0  0  0  0  0  0  0  0  0  0
   21.4404   75.6223   -0.5631 C   0  0  0  0  0  0  0  0  0  0  0  0
   20.5192   77.3534   -0.4433 H   0  0  0  0  0  0  0  0  0  0  0  0
 25 28  1  0
 25 24  1  0
 25 26  1  1
 25 27  2  0
  1  4  1  0
  1 24  1  0
  1  2  1  6
  1  3  2  0
  6 11  1  0
  6 12  1  0
 29 36  1  0
 29 37  1  0
  9  7  1  6
  7 13  1  0
 10  8  1  6
  8 14  1  0
 37 28  1  6
  4  5  1  0
 33 30  1  1
 30 38  1  0
 34 31  1  6
 31 39  1  0
 35 32  1  6
 32 40  1  0
 41 42  1  0
 41 43  1  0
 15 19  2  0
 16 22  2  0
 12 17  1  1
 17 19  1  0
 17 20  1  0
 18 19  1  0
 18 22  1  0
 18 23  1  0
  9 10  1  0
  9 11  1  0
 10 12  1  0
 11  5  1  1
 33 34  1  0
 33 35  1  0
 34 36  1  0
 35 37  1  0
 36 42  1  1
 20 21  2  0
 21 22  1  0
M  CHG  2   2  -1  26  -1
M  END
>  <COMPND>  (252) 
    8629 

>  <AUTHOR>  (252) 
    GENERATED BY OPEN BABEL 3.1.1

>  <MASTER>  (252) 
        0    0    0    0    0    0    0    0   58    0   58    0

>  <minimizedAffinity>  (252) 
-7.49263

>  <CNNscore>  (252) 
0.7514896393

>  <CNNaffinity>  (252) 
4.5841846466

>  <CNN_VS>  (252) 
3.4449672699

>  <CNNaffinity_variance>  (252) 
0.0972752348

$$$$
253
     RDKit          3D

 43 45  0  0  0  0  0  0  0  0999 V2000
   21.8578   72.5394   -5.6616 P   0  0  2  0  0  0  0  0  0  0  0  0
   21.2164   74.0042   -5.4164 O   0  0  0  0  0  0  0  0  0  0  0  0
   23.1256   72.5289   -6.4640 O   0  0  0  0  0  0  0  0  0  0  0  0
   20.6329   71.6762   -6.2719 O   0  0  0  0  0  0  0  0  0  0  0  0
   20.1174   72.0379   -7.5413 C   0  0  0  0  0  0  0  0  0  0  0  0
   18.9404   69.9831   -7.1335 O   0  0  0  0  0  0  0  0  0  0  0  0
   18.1443   70.0839  -10.0226 O   0  0  0  0  0  0  0  0  0  0  0  0
   15.9034   70.9854   -8.7568 O   0  0  0  0  0  0  0  0  0  0  0  0
   18.3054   71.1543   -9.0934 C   0  0  1  0  0  0  0  0  0  0  0  0
   17.1479   71.1817   -8.1171 C   0  0  2  0  0  0  0  0  0  0  0  0
   19.4800   70.8140   -8.1846 C   0  0  1  0  0  0  0  0  0  0  0  0
   17.5054   70.0465   -7.1727 C   0  0  2  0  0  0  0  0  0  0  0  0
   17.3999   70.2787  -10.6141 H   0  0  0  0  0  0  0  0  0  0  0  0
   15.7212   71.7336   -9.3465 H   0  0  0  0  0  0  0  0  0  0  0  0
   16.2084   68.0837   -5.6097 O   0  0  0  0  0  0  0  0  0  0  0  0
   15.6524   70.9975   -2.0824 O   0  0  0  0  0  0  0  0  0  0  0  0
   17.0118   70.2649   -5.8423 N   0  0  0  0  0  0  0  0  0  0  0  0
   15.9328   69.5361   -3.8546 N   0  0  0  0  0  0  0  0  0  0  0  0
   16.3746   69.2129   -5.1439 C   0  0  0  0  0  0  0  0  0  0  0  0
   17.1618   71.5109   -5.2433 C   0  0  0  0  0  0  0  0  0  0  0  0
   16.7338   71.8033   -4.0134 C   0  0  0  0  0  0  0  0  0  0  0  0
   16.0574   70.7598   -3.2161 C   0  0  0  0  0  0  0  0  0  0  0  0
   15.4855   68.8189   -3.3492 H   0  0  0  0  0  0  0  0  0  0  0  0
   22.0052   71.9516   -4.1630 O   0  0  0  0  0  0  0  0  0  0  0  0
   23.2241   72.0362   -3.1047 P   0  0  2  0  0  0  0  0  0  0  0  0
   23.8875   73.4783   -3.4173 O   0  0  0  0  0  0  0  0  0  0  0  0
   24.1839   70.8841   -3.1782 O   0  0  0  0  0  0  0  0  0  0  0  0
   22.5076   72.2194   -1.6701 O   0  0  0  0  0  0  0  0  0  0  0  0
   23.4224   70.6471   -0.1510 O   0  0  0  0  0  0  0  0  0  0  0  0
   20.4543   72.2291    2.2445 O   0  0  0  0  0  0  0  0  0  0  0  0
   23.2009   72.8811    2.7728 O   0  0  0  0  0  0  0  0  0  0  0  0
   19.9584   71.7989   -0.5749 O   0  0  0  0  0  0  0  0  0  0  0  0
   21.4727   72.2587    1.2408 C   0  0  1  0  0  0  0  0  0  0  0  0
   22.7952   71.8413    1.8871 C   0  0  1  0  0  0  0  0  0  0  0  0
   21.0951   71.2945    0.1179 C   0  0  2  0  0  0  0  0  0  0  0  0
   23.8755   71.5911    0.8262 C   0  0  1  0  0  0  0  0  0  0  0  0
   22.2557   71.0779   -0.8548 C   0  0  1  0  0  0  0  0  0  0  0  0
   20.6877   72.8397    2.9602 H   0  0  0  0  0  0  0  0  0  0  0  0
   22.5098   73.0295    3.4373 H   0  0  0  0  0  0  0  0  0  0  0  0
   19.2306   71.9314    0.0517 H   0  0  0  0  0  0  0  0  0  0  0  0
   24.8088   70.2624    2.5790 O   0  0  0  0  0  0  0  0  0  0  0  0
   25.1550   71.0226    1.4360 C   0  0  0  0  0  0  0  0  0  0  0  0
   25.6134   69.8940    2.9774 H   0  0  0  0  0  0  0  0  0  0  0  0
 25 28  1  0
 25 24  1  0
 25 26  1  6
 25 27  2  0
  1  4  1  0
  1 24  1  0
  1  2  1  1
  1  3  2  0
  6 11  1  0
  6 12  1  0
 29 36  1  0
 29 37  1  0
  9  7  1  6
  7 13  1  0
 10  8  1  6
  8 14  1  0
 37 28  1  1
  4  5  1  0
 33 30  1  1
 30 38  1  0
 34 31  1  1
 31 39  1  0
 35 32  1  6
 32 40  1  0
 41 42  1  0
 41 43  1  0
 15 19  2  0
 16 22  2  0
 12 17  1  1
 17 19  1  0
 17 20  1  0
 18 19  1  0
 18 22  1  0
 18 23  1  0
  9 10  1  0
  9 11  1  0
 10 12  1  0
 11  5  1  1
 33 34  1  0
 33 35  1  0
 34 36  1  0
 35 37  1  0
 36 42  1  1
 20 21  2  0
 21 22  1  0
M  CHG  2   2  -1  26  -1
M  END
>  <COMPND>  (253) 
    8629 

>  <AUTHOR>  (253) 
    GENERATED BY OPEN BABEL 3.1.1

>  <MASTER>  (253) 
        0    0    0    0    0    0    0    0   58    0   58    0

>  <minimizedAffinity>  (253) 
-8.37459

>  <CNNscore>  (253) 
0.7164734006

>  <CNNaffinity>  (253) 
4.4812593460

>  <CNN_VS>  (253) 
3.2107031345

>  <CNNaffinity_variance>  (253) 
0.2506372333

$$$$
254
     RDKit          3D

 43 45  0  0  0  0  0  0  0  0999 V2000
   22.8134   71.4125   -2.7869 P   0  0  2  0  0  0  0  0  0  0  0  0
   22.6447   73.0056   -2.5607 O   0  0  0  0  0  0  0  0  0  0  0  0
   24.2312   70.9360   -2.9061 O   0  0  0  0  0  0  0  0  0  0  0  0
   21.8571   71.0965   -4.0531 O   0  0  0  0  0  0  0  0  0  0  0  0
   21.6479   72.1170   -5.0137 C   0  0  0  0  0  0  0  0  0  0  0  0
   20.4598   70.3356   -6.1040 O   0  0  0  0  0  0  0  0  0  0  0  0
   20.7259   71.9481   -8.6179 O   0  0  0  0  0  0  0  0  0  0  0  0
   18.1593   72.4606   -7.8518 O   0  0  0  0  0  0  0  0  0  0  0  0
   20.5210   72.3932   -7.2780 C   0  0  1  0  0  0  0  0  0  0  0  0
   19.0943   72.1244   -6.8470 C   0  0  2  0  0  0  0  0  0  0  0  0
   21.3109   71.4758   -6.3529 C   0  0  1  0  0  0  0  0  0  0  0  0
   19.1286   70.6337   -6.5556 C   0  0  2  0  0  0  0  0  0  0  0  0
   20.2313   72.5191   -9.2272 H   0  0  0  0  0  0  0  0  0  0  0  0
   18.1751   73.4189   -8.0008 H   0  0  0  0  0  0  0  0  0  0  0  0
   16.4495   69.8844   -7.0439 O   0  0  0  0  0  0  0  0  0  0  0  0
   15.6326   69.1963   -2.5606 O   0  0  0  0  0  0  0  0  0  0  0  0
   18.1937   70.2536   -5.5345 N   0  0  0  0  0  0  0  0  0  0  0  0
   16.0449   69.5422   -4.8112 N   0  0  0  0  0  0  0  0  0  0  0  0
   16.8712   69.8957   -5.8856 C   0  0  0  0  0  0  0  0  0  0  0  0
   18.5913   70.2379   -4.2019 C   0  0  0  0  0  0  0  0  0  0  0  0
   17.7908   69.8996   -3.1890 C   0  0  0  0  0  0  0  0  0  0  0  0
   16.3933   69.5124   -3.4701 C   0  0  0  0  0  0  0  0  0  0  0  0
   15.1191   69.2895   -5.0317 H   0  0  0  0  0  0  0  0  0  0  0  0
   21.9934   70.7803   -1.5456 O   0  0  0  0  0  0  0  0  0  0  0  0
   21.5223   71.4312   -0.1429 P   0  0  2  0  0  0  0  0  0  0  0  0
   21.5717   70.1801    0.8818 O   0  0  0  0  0  0  0  0  0  0  0  0
   20.1948   72.1297   -0.2037 O   0  0  0  0  0  0  0  0  0  0  0  0
   22.7541   72.3733    0.3044 O   0  0  0  0  0  0  0  0  0  0  0  0
   22.1858   73.5347    2.2906 O   0  0  0  0  0  0  0  0  0  0  0  0
   25.7926   75.3672    1.4638 O   0  0  0  0  0  0  0  0  0  0  0  0
   25.6124   73.5129    3.6494 O   0  0  0  0  0  0  0  0  0  0  0  0
   23.9909   74.6848   -0.6968 O   0  0  0  0  0  0  0  0  0  0  0  0
   24.8639   74.2807    1.5114 C   0  0  1  0  0  0  0  0  0  0  0  0
   24.4767   74.0444    2.9726 C   0  0  1  0  0  0  0  0  0  0  0  0
   23.6333   74.6390    0.6803 C   0  0  2  0  0  0  0  0  0  0  0  0
   23.2892   73.0785    3.0818 C   0  0  1  0  0  0  0  0  0  0  0  0
   22.4939   73.6420    0.8994 C   0  0  1  0  0  0  0  0  0  0  0  0
   26.5765   75.1459    1.9891 H   0  0  0  0  0  0  0  0  0  0  0  0
   26.3553   74.1321    3.5724 H   0  0  0  0  0  0  0  0  0  0  0  0
   24.7128   75.3196   -0.8223 H   0  0  0  0  0  0  0  0  0  0  0  0
   23.2421   74.0704    5.2550 O   0  0  0  0  0  0  0  0  0  0  0  0
   22.7858   72.9511    4.5179 C   0  0  0  0  0  0  0  0  0  0  0  0
   22.9290   74.0030    6.1710 H   0  0  0  0  0  0  0  0  0  0  0  0
 25 28  1  0
 25 24  1  0
 25 26  1  1
 25 27  2  0
  1  4  1  0
  1 24  1  0
  1  2  1  1
  1  3  2  0
  6 11  1  0
  6 12  1  0
 29 36  1  0
 29 37  1  0
  9  7  1  6
  7 13  1  0
 10  8  1  6
  8 14  1  0
 37 28  1  1
  4  5  1  0
 33 30  1  1
 30 38  1  0
 34 31  1  1
 31 39  1  0
 35 32  1  6
 32 40  1  0
 41 42  1  0
 41 43  1  0
 15 19  2  0
 16 22  2  0
 12 17  1  1
 17 19  1  0
 17 20  1  0
 18 19  1  0
 18 22  1  0
 18 23  1  0
  9 10  1  0
  9 11  1  0
 10 12  1  0
 11  5  1  1
 33 34  1  0
 33 35  1  0
 34 36  1  0
 35 37  1  0
 36 42  1  1
 20 21  2  0
 21 22  1  0
M  CHG  2   2  -1  26  -1
M  END
>  <COMPND>  (254) 
    8629 

>  <AUTHOR>  (254) 
    GENERATED BY OPEN BABEL 3.1.1

>  <MASTER>  (254) 
        0    0    0    0    0    0    0    0   58    0   58    0

>  <minimizedAffinity>  (254) 
-7.25743

>  <CNNscore>  (254) 
0.7065566182

>  <CNNaffinity>  (254) 
4.2849593163

>  <CNN_VS>  (254) 
3.0275664330

>  <CNNaffinity_variance>  (254) 
0.1453434825

$$$$
255
     RDKit          3D

 43 45  0  0  0  0  0  0  0  0999 V2000
   19.9028   72.2533   -1.0823 P   0  0  2  0  0  0  0  0  0  0  0  0
   19.7430   70.6715   -1.3821 O   0  0  0  0  0  0  0  0  0  0  0  0
   18.6236   72.9708   -0.7659 O   0  0  0  0  0  0  0  0  0  0  0  0
   20.7228   72.8101   -2.3612 O   0  0  0  0  0  0  0  0  0  0  0  0
   20.1788   72.6073   -3.6538 C   0  0  0  0  0  0  0  0  0  0  0  0
   20.6085   70.9662   -5.3555 O   0  0  0  0  0  0  0  0  0  0  0  0
   23.1455   72.4687   -5.9006 O   0  0  0  0  0  0  0  0  0  0  0  0
   21.5057   73.3244   -7.9044 O   0  0  0  0  0  0  0  0  0  0  0  0
   21.8632   72.9693   -5.5259 C   0  0  1  0  0  0  0  0  0  0  0  0
   20.9071   72.8962   -6.6981 C   0  0  2  0  0  0  0  0  0  0  0  0
   21.2416   71.9815   -4.5465 C   0  0  1  0  0  0  0  0  0  0  0  0
   20.5440   71.4212   -6.7171 C   0  0  2  0  0  0  0  0  0  0  0  0
   23.5622   73.0831   -6.5257 H   0  0  0  0  0  0  0  0  0  0  0  0
   21.7180   74.2688   -7.8428 H   0  0  0  0  0  0  0  0  0  0  0  0
   19.9177   69.5676   -8.7542 O   0  0  0  0  0  0  0  0  0  0  0  0
   15.4332   70.6169   -8.5832 O   0  0  0  0  0  0  0  0  0  0  0  0
   19.2208   71.1893   -7.2240 N   0  0  0  0  0  0  0  0  0  0  0  0
   17.6853   70.0914   -8.6673 N   0  0  0  0  0  0  0  0  0  0  0  0
   19.0141   70.2368   -8.2490 C   0  0  0  0  0  0  0  0  0  0  0  0
   18.1453   71.9020   -6.7054 C   0  0  0  0  0  0  0  0  0  0  0  0
   16.8842   71.7526   -7.1161 C   0  0  0  0  0  0  0  0  0  0  0  0
   16.5823   70.7774   -8.1838 C   0  0  0  0  0  0  0  0  0  0  0  0
   17.5172   69.4337   -9.3807 H   0  0  0  0  0  0  0  0  0  0  0  0
   21.0048   72.2897    0.0998 O   0  0  0  0  0  0  0  0  0  0  0  0
   22.2125   71.2764    0.4567 P   0  0  2  0  0  0  0  0  0  0  0  0
   22.9720   71.0908   -0.9597 O   0  0  0  0  0  0  0  0  0  0  0  0
   21.7696   69.9917    1.0949 O   0  0  0  0  0  0  0  0  0  0  0  0
   23.2296   72.1526    1.3528 O   0  0  0  0  0  0  0  0  0  0  0  0
   24.9006   72.0268    3.0286 O   0  0  0  0  0  0  0  0  0  0  0  0
   22.0708   74.2238    5.0821 O   0  0  0  0  0  0  0  0  0  0  0  0
   24.4663   75.5094    4.1564 O   0  0  0  0  0  0  0  0  0  0  0  0
   21.2382   72.0764    3.3286 O   0  0  0  0  0  0  0  0  0  0  0  0
   22.8088   73.7996    3.9328 C   0  0  1  0  0  0  0  0  0  0  0  0
   24.2897   74.0957    4.1776 C   0  0  1  0  0  0  0  0  0  0  0  0
   22.5874   72.3030    3.7219 C   0  0  2  0  0  0  0  0  0  0  0  0
   25.1712   73.4310    3.1116 C   0  0  1  0  0  0  0  0  0  0  0  0
   23.5474   71.7317    2.6768 C   0  0  1  0  0  0  0  0  0  0  0  0
   22.2067   75.1734    5.2213 H   0  0  0  0  0  0  0  0  0  0  0  0
   23.9039   75.9170    4.8337 H   0  0  0  0  0  0  0  0  0  0  0  0
   20.6405   72.4422    3.9984 H   0  0  0  0  0  0  0  0  0  0  0  0
   26.7919   74.0963    4.7363 O   0  0  0  0  0  0  0  0  0  0  0  0
   26.6584   73.5810    3.4245 C   0  0  0  0  0  0  0  0  0  0  0  0
   27.7333   74.1968    4.9493 H   0  0  0  0  0  0  0  0  0  0  0  0
 25 28  1  0
 25 24  1  0
 25 26  1  6
 25 27  2  0
  1  4  1  0
  1 24  1  0
  1  2  1  6
  1  3  2  0
  6 11  1  0
  6 12  1  0
 29 36  1  0
 29 37  1  0
  9  7  1  6
  7 13  1  0
 10  8  1  6
  8 14  1  0
 37 28  1  6
  4  5  1  0
 33 30  1  1
 30 38  1  0
 34 31  1  6
 31 39  1  0
 35 32  1  6
 32 40  1  0
 41 42  1  0
 41 43  1  0
 15 19  2  0
 16 22  2  0
 12 17  1  1
 17 19  1  0
 17 20  1  0
 18 19  1  0
 18 22  1  0
 18 23  1  0
  9 10  1  0
  9 11  1  0
 10 12  1  0
 11  5  1  6
 33 34  1  0
 33 35  1  0
 34 36  1  0
 35 37  1  0
 36 42  1  1
 20 21  2  0
 21 22  1  0
M  CHG  2   2  -1  26  -1
M  END
>  <COMPND>  (255) 
    8629 

>  <AUTHOR>  (255) 
    GENERATED BY OPEN BABEL 3.1.1

>  <MASTER>  (255) 
        0    0    0    0    0    0    0    0   58    0   58    0

>  <minimizedAffinity>  (255) 
-7.37611

>  <CNNscore>  (255) 
0.6398632526

>  <CNNaffinity>  (255) 
4.2967047691

>  <CNN_VS>  (255) 
2.7493035793

>  <CNNaffinity_variance>  (255) 
0.0795750767

$$$$
256
     RDKit          3D

 43 45  0  0  0  0  0  0  0  0999 V2000
   22.7594   73.4237   -5.0038 P   0  0  2  0  0  0  0  0  0  0  0  0
   22.2663   74.7922   -5.7121 O   0  0  0  0  0  0  0  0  0  0  0  0
   23.0459   72.2907   -5.9448 O   0  0  0  0  0  0  0  0  0  0  0  0
   21.6284   73.1372   -3.8828 O   0  0  0  0  0  0  0  0  0  0  0  0
   20.2814   73.4579   -4.1840 C   0  0  0  0  0  0  0  0  0  0  0  0
   18.4555   71.9587   -4.6225 O   0  0  0  0  0  0  0  0  0  0  0  0
   19.3311   70.4735   -2.1692 O   0  0  0  0  0  0  0  0  0  0  0  0
   20.3549   68.9482   -4.1846 O   0  0  0  0  0  0  0  0  0  0  0  0
   20.1232   71.1374   -3.1527 C   0  0  1  0  0  0  0  0  0  0  0  0
   20.1629   70.3263   -4.4310 C   0  0  2  0  0  0  0  0  0  0  0  0
   19.3731   72.3884   -3.5930 C   0  0  1  0  0  0  0  0  0  0  0  0
   18.8031   70.6278   -5.0379 C   0  0  2  0  0  0  0  0  0  0  0  0
   19.7899   69.6714   -1.8725 H   0  0  0  0  0  0  0  0  0  0  0  0
   21.2338   68.8079   -3.7989 H   0  0  0  0  0  0  0  0  0  0  0  0
   16.7013   69.6046   -6.6233 O   0  0  0  0  0  0  0  0  0  0  0  0
   18.9790   70.4805  -10.5330 O   0  0  0  0  0  0  0  0  0  0  0  0
   18.8202   70.5766   -6.4726 N   0  0  0  0  0  0  0  0  0  0  0  0
   17.8370   70.0417   -8.5687 N   0  0  0  0  0  0  0  0  0  0  0  0
   17.7139   70.0424   -7.1735 C   0  0  0  0  0  0  0  0  0  0  0  0
   19.9250   71.0530   -7.1699 C   0  0  0  0  0  0  0  0  0  0  0  0
   20.0274   71.0440   -8.5006 C   0  0  0  0  0  0  0  0  0  0  0  0
   18.9150   70.5027   -9.3078 C   0  0  0  0  0  0  0  0  0  0  0  0
   17.0786   69.6739   -9.0780 H   0  0  0  0  0  0  0  0  0  0  0  0
   24.0277   73.9058   -4.1253 O   0  0  0  0  0  0  0  0  0  0  0  0
   24.1129   74.8323   -2.8034 P   0  0  2  0  0  0  0  0  0  0  0  0
   22.7945   75.7631   -2.9172 O   0  0  0  0  0  0  0  0  0  0  0  0
   25.3992   75.5946   -2.6681 O   0  0  0  0  0  0  0  0  0  0  0  0
   23.7986   73.8280   -1.5797 O   0  0  0  0  0  0  0  0  0  0  0  0
   22.0180   73.4863   -0.0535 O   0  0  0  0  0  0  0  0  0  0  0  0
   25.1829   73.4119    2.5977 O   0  0  0  0  0  0  0  0  0  0  0  0
   23.8143   70.9704    1.9546 O   0  0  0  0  0  0  0  0  0  0  0  0
   25.2030   75.2685    0.3768 O   0  0  0  0  0  0  0  0  0  0  0  0
   24.5203   73.1749    1.3526 C   0  0  1  0  0  0  0  0  0  0  0  0
   23.3202   72.2627    1.6141 C   0  0  1  0  0  0  0  0  0  0  0  0
   24.0636   74.5102    0.7681 C   0  0  2  0  0  0  0  0  0  0  0  0
   22.4092   72.1789    0.3819 C   0  0  1  0  0  0  0  0  0  0  0  0
   23.1232   74.3135   -0.4224 C   0  0  1  0  0  0  0  0  0  0  0  0
   25.4759   72.5681    2.9739 H   0  0  0  0  0  0  0  0  0  0  0  0
   24.3884   71.0373    2.7338 H   0  0  0  0  0  0  0  0  0  0  0  0
   25.7902   75.3863    1.1392 H   0  0  0  0  0  0  0  0  0  0  0  0
   21.4698   70.0613    0.9667 O   0  0  0  0  0  0  0  0  0  0  0  0
   21.1263   71.4025    0.6708 C   0  0  0  0  0  0  0  0  0  0  0  0
   20.6630   69.5552    1.1530 H   0  0  0  0  0  0  0  0  0  0  0  0
 25 28  1  0
 25 24  1  0
 25 26  1  6
 25 27  2  0
  1  4  1  0
  1 24  1  0
  1  2  1  6
  1  3  2  0
  6 11  1  0
  6 12  1  0
 29 36  1  0
 29 37  1  0
  9  7  1  1
  7 13  1  0
 10  8  1  1
  8 14  1  0
 37 28  1  6
  4  5  1  0
 33 30  1  1
 30 38  1  0
 34 31  1  6
 31 39  1  0
 35 32  1  6
 32 40  1  0
 41 42  1  0
 41 43  1  0
 15 19  2  0
 16 22  2  0
 12 17  1  6
 17 19  1  0
 17 20  1  0
 18 19  1  0
 18 22  1  0
 18 23  1  0
  9 10  1  0
  9 11  1  0
 10 12  1  0
 11  5  1  6
 33 34  1  0
 33 35  1  0
 34 36  1  0
 35 37  1  0
 36 42  1  1
 20 21  2  0
 21 22  1  0
M  CHG  2   2  -1  26  -1
M  END
>  <COMPND>  (256) 
    8629 

>  <AUTHOR>  (256) 
    GENERATED BY OPEN BABEL 3.1.1

>  <MASTER>  (256) 
        0    0    0    0    0    0    0    0   58    0   58    0

>  <minimizedAffinity>  (256) 
-6.90432

>  <CNNscore>  (256) 
0.5466313958

>  <CNNaffinity>  (256) 
4.2320451736

>  <CNN_VS>  (256) 
2.3133687973

>  <CNNaffinity_variance>  (256) 
0.1117361635

$$$$
257
     RDKit          3D

 43 45  0  0  0  0  0  0  0  0999 V2000
   23.3057   71.9561   -2.9407 P   0  0  2  0  0  0  0  0  0  0  0  0
   23.8490   73.3385   -3.5822 O   0  0  0  0  0  0  0  0  0  0  0  0
   24.2246   70.7804   -3.0977 O   0  0  0  0  0  0  0  0  0  0  0  0
   21.8296   71.7847   -3.5807 O   0  0  0  0  0  0  0  0  0  0  0  0
   21.4287   72.6782   -4.6048 C   0  0  0  0  0  0  0  0  0  0  0  0
   20.5896   70.6989   -5.6780 O   0  0  0  0  0  0  0  0  0  0  0  0
   20.9759   72.1644   -8.2653 O   0  0  0  0  0  0  0  0  0  0  0  0
   18.2941   72.4116   -7.8368 O   0  0  0  0  0  0  0  0  0  0  0  0
   20.5612   72.6678   -6.9965 C   0  0  1  0  0  0  0  0  0  0  0  0
   19.1320   72.2572   -6.7095 C   0  0  2  0  0  0  0  0  0  0  0  0
   21.3310   71.9150   -5.9186 C   0  0  1  0  0  0  0  0  0  0  0  0
   19.2981   70.8038   -6.2992 C   0  0  2  0  0  0  0  0  0  0  0  0
   20.4979   72.6304   -8.9698 H   0  0  0  0  0  0  0  0  0  0  0  0
   18.2201   73.3530   -8.0583 H   0  0  0  0  0  0  0  0  0  0  0  0
   16.7581   69.8045   -7.0257 O   0  0  0  0  0  0  0  0  0  0  0  0
   15.5289   69.2128   -2.6234 O   0  0  0  0  0  0  0  0  0  0  0  0
   18.2948   70.3809   -5.3633 N   0  0  0  0  0  0  0  0  0  0  0  0
   16.1482   69.5105   -4.8331 N   0  0  0  0  0  0  0  0  0  0  0  0
   17.0517   69.8955   -5.8319 C   0  0  0  0  0  0  0  0  0  0  0  0
   18.5481   70.4493   -3.9977 C   0  0  0  0  0  0  0  0  0  0  0  0
   17.6754   70.0795   -3.0580 C   0  0  0  0  0  0  0  0  0  0  0  0
   16.3530   69.5609   -3.4634 C   0  0  0  0  0  0  0  0  0  0  0  0
   15.2754   69.1695   -5.1360 H   0  0  0  0  0  0  0  0  0  0  0  0
   22.9921   72.3650   -1.4085 O   0  0  0  0  0  0  0  0  0  0  0  0
   22.8482   71.4604   -0.0766 P   0  0  2  0  0  0  0  0  0  0  0  0
   24.2632   70.6794   -0.0039 O   0  0  0  0  0  0  0  0  0  0  0  0
   21.6446   70.5631   -0.0693 O   0  0  0  0  0  0  0  0  0  0  0  0
   22.9025   72.5168    1.1424 O   0  0  0  0  0  0  0  0  0  0  0  0
   24.2856   72.5711    3.0661 O   0  0  0  0  0  0  0  0  0  0  0  0
   20.7797   73.9766    4.7345 O   0  0  0  0  0  0  0  0  0  0  0  0
   22.9681   75.7851    4.3003 O   0  0  0  0  0  0  0  0  0  0  0  0
   20.6915   71.8741    2.7467 O   0  0  0  0  0  0  0  0  0  0  0  0
   21.7572   73.8105    3.7038 C   0  0  1  0  0  0  0  0  0  0  0  0
   23.0885   74.3681    4.2112 C   0  0  1  0  0  0  0  0  0  0  0  0
   21.8873   72.3246    3.3741 C   0  0  2  0  0  0  0  0  0  0  0  0
   24.2420   73.9878    3.2731 C   0  0  1  0  0  0  0  0  0  0  0  0
   23.0939   72.0491    2.4751 C   0  0  1  0  0  0  0  0  0  0  0  0
   20.6919   74.9180    4.9482 H   0  0  0  0  0  0  0  0  0  0  0  0
   22.2360   76.0118    4.8951 H   0  0  0  0  0  0  0  0  0  0  0  0
   19.9351   72.0539    3.3259 H   0  0  0  0  0  0  0  0  0  0  0  0
   25.4857   74.5012    5.2475 O   0  0  0  0  0  0  0  0  0  0  0  0
   25.5993   74.3978    3.8402 C   0  0  0  0  0  0  0  0  0  0  0  0
   26.3423   74.7612    5.6222 H   0  0  0  0  0  0  0  0  0  0  0  0
 25 28  1  0
 25 24  1  0
 25 26  1  1
 25 27  2  0
  1  4  1  0
  1 24  1  0
  1  2  1  6
  1  3  2  0
  6 11  1  0
  6 12  1  0
 29 36  1  0
 29 37  1  0
  9  7  1  6
  7 13  1  0
 10  8  1  6
  8 14  1  0
 37 28  1  6
  4  5  1  0
 33 30  1  1
 30 38  1  0
 34 31  1  6
 31 39  1  0
 35 32  1  6
 32 40  1  0
 41 42  1  0
 41 43  1  0
 15 19  2  0
 16 22  2  0
 12 17  1  1
 17 19  1  0
 17 20  1  0
 18 19  1  0
 18 22  1  0
 18 23  1  0
  9 10  1  0
  9 11  1  0
 10 12  1  0
 11  5  1  1
 33 34  1  0
 33 35  1  0
 34 36  1  0
 35 37  1  0
 36 42  1  1
 20 21  2  0
 21 22  1  0
M  CHG  2   2  -1  26  -1
M  END
>  <COMPND>  (257) 
    8629 

>  <AUTHOR>  (257) 
    GENERATED BY OPEN BABEL 3.1.1

>  <MASTER>  (257) 
        0    0    0    0    0    0    0    0   58    0   58    0

>  <minimizedAffinity>  (257) 
-7.28068

>  <CNNscore>  (257) 
0.5235531926

>  <CNNaffinity>  (257) 
4.1735548973

>  <CNN_VS>  (257) 
2.1850779057

>  <CNNaffinity_variance>  (257) 
0.1966113746

$$$$
258
     RDKit          3D

 43 45  0  0  0  0  0  0  0  0999 V2000
   21.8357   71.8395   -3.4665 P   0  0  2  0  0  0  0  0  0  0  0  0
   20.8253   73.0209   -3.0186 O   0  0  0  0  0  0  0  0  0  0  0  0
   21.3062   70.4480   -3.2800 O   0  0  0  0  0  0  0  0  0  0  0  0
   23.2067   72.1812   -2.6781 O   0  0  0  0  0  0  0  0  0  0  0  0
   23.1273   72.5495   -1.3121 C   0  0  0  0  0  0  0  0  0  0  0  0
   24.1716   71.1577    0.3450 O   0  0  0  0  0  0  0  0  0  0  0  0
   21.4438   70.0114    0.8309 O   0  0  0  0  0  0  0  0  0  0  0  0
   21.7315   71.7601    2.9035 O   0  0  0  0  0  0  0  0  0  0  0  0
   21.8153   71.3505    0.5084 C   0  0  1  0  0  0  0  0  0  0  0  0
   22.4406   72.0267    1.7107 C   0  0  2  0  0  0  0  0  0  0  0  0
   22.9844   71.2912   -0.4669 C   0  0  1  0  0  0  0  0  0  0  0  0
   23.8382   71.4311    1.7157 C   0  0  2  0  0  0  0  0  0  0  0  0
   20.6985   70.0235    1.4524 H   0  0  0  0  0  0  0  0  0  0  0  0
   20.8491   72.1593    2.8515 H   0  0  0  0  0  0  0  0  0  0  0  0
   26.4791   70.6966    2.3970 O   0  0  0  0  0  0  0  0  0  0  0  0
   27.4971   74.9643    3.8081 O   0  0  0  0  0  0  0  0  0  0  0  0
   24.8147   72.3303    2.2627 N   0  0  0  0  0  0  0  0  0  0  0  0
   26.9839   72.8222    3.0989 N   0  0  0  0  0  0  0  0  0  0  0  0
   26.1127   71.8606    2.5713 C   0  0  0  0  0  0  0  0  0  0  0  0
   24.4818   73.6617    2.4875 C   0  0  0  0  0  0  0  0  0  0  0  0
   25.3237   74.5657    2.9925 C   0  0  0  0  0  0  0  0  0  0  0  0
   26.6995   74.1567    3.3419 C   0  0  0  0  0  0  0  0  0  0  0  0
   27.8935   72.5178    3.3218 H   0  0  0  0  0  0  0  0  0  0  0  0
   22.1903   72.2249   -4.9958 O   0  0  0  0  0  0  0  0  0  0  0  0
   21.3632   73.0723   -6.0961 P   0  0  2  0  0  0  0  0  0  0  0  0
   22.1702   72.7856   -7.4687 O   0  0  0  0  0  0  0  0  0  0  0  0
   21.2070   74.5276   -5.7620 O   0  0  0  0  0  0  0  0  0  0  0  0
   19.9719   72.2721   -6.2665 O   0  0  0  0  0  0  0  0  0  0  0  0
   19.2629   70.0778   -5.7198 O   0  0  0  0  0  0  0  0  0  0  0  0
   17.5356   70.4178   -9.4550 O   0  0  0  0  0  0  0  0  0  0  0  0
   15.8754   70.4942   -7.1127 O   0  0  0  0  0  0  0  0  0  0  0  0
   20.1588   71.5413   -8.9695 O   0  0  0  0  0  0  0  0  0  0  0  0
   17.9812   70.8834   -8.1782 C   0  0  1  0  0  0  0  0  0  0  0  0
   17.2428   70.0939   -7.0954 C   0  0  1  0  0  0  0  0  0  0  0  0
   19.4893   70.6677   -8.0668 C   0  0  2  0  0  0  0  0  0  0  0  0
   17.8558   70.3455   -5.7112 C   0  0  1  0  0  0  0  0  0  0  0  0
   19.9886   70.8965   -6.6390 C   0  0  1  0  0  0  0  0  0  0  0  0
   16.5788   70.5523   -9.5324 H   0  0  0  0  0  0  0  0  0  0  0  0
   15.5004   70.3305   -7.9924 H   0  0  0  0  0  0  0  0  0  0  0  0
   19.8342   71.3865   -9.8698 H   0  0  0  0  0  0  0  0  0  0  0  0
   16.5278   68.4061   -5.2826 O   0  0  0  0  0  0  0  0  0  0  0  0
   17.2376   69.4492   -4.6405 C   0  0  0  0  0  0  0  0  0  0  0  0
   16.1292   67.8273   -4.6133 H   0  0  0  0  0  0  0  0  0  0  0  0
 25 28  1  0
 25 24  1  0
 25 26  1  6
 25 27  2  0
  1  4  1  0
  1 24  1  0
  1  2  1  1
  1  3  2  0
  6 11  1  0
  6 12  1  0
 29 36  1  0
 29 37  1  0
  9  7  1  1
  7 13  1  0
 10  8  1  1
  8 14  1  0
 37 28  1  1
  4  5  1  0
 33 30  1  6
 30 38  1  0
 34 31  1  1
 31 39  1  0
 35 32  1  6
 32 40  1  0
 41 42  1  0
 41 43  1  0
 15 19  2  0
 16 22  2  0
 12 17  1  6
 17 19  1  0
 17 20  1  0
 18 19  1  0
 18 22  1  0
 18 23  1  0
  9 10  1  0
  9 11  1  0
 10 12  1  0
 11  5  1  1
 33 34  1  0
 33 35  1  0
 34 36  1  0
 35 37  1  0
 36 42  1  1
 20 21  2  0
 21 22  1  0
M  CHG  2   2  -1  26  -1
M  END
>  <COMPND>  (258) 
    8629 

>  <AUTHOR>  (258) 
    GENERATED BY OPEN BABEL 3.1.1

>  <MASTER>  (258) 
        0    0    0    0    0    0    0    0   58    0   58    0

>  <minimizedAffinity>  (258) 
-7.63978

>  <CNNscore>  (258) 
0.4973409474

>  <CNNaffinity>  (258) 
4.1864709854

>  <CNN_VS>  (258) 
2.0821034908

>  <CNNaffinity_variance>  (258) 
0.1067248434

$$$$
259
     RDKit          3D

 43 45  0  0  0  0  0  0  0  0999 V2000
   23.0638   74.8760   -2.1973 P   0  0  2  0  0  0  0  0  0  0  0  0
   24.1192   75.1639   -1.0055 O   0  0  0  0  0  0  0  0  0  0  0  0
   23.4448   75.4450   -3.5324 O   0  0  0  0  0  0  0  0  0  0  0  0
   21.6501   75.3827   -1.5951 O   0  0  0  0  0  0  0  0  0  0  0  0
   21.5568   75.6258   -0.2023 C   0  0  0  0  0  0  0  0  0  0  0  0
   20.9713   73.3681    0.3753 O   0  0  0  0  0  0  0  0  0  0  0  0
   18.8446   74.5639    2.1183 O   0  0  0  0  0  0  0  0  0  0  0  0
   20.8013   73.9391    3.9120 O   0  0  0  0  0  0  0  0  0  0  0  0
   20.1599   75.0427    1.8427 C   0  0  1  0  0  0  0  0  0  0  0  0
   21.1878   74.2100    2.5801 C   0  0  2  0  0  0  0  0  0  0  0  0
   20.4791   74.7260    0.3869 C   0  0  1  0  0  0  0  0  0  0  0  0
   21.2516   72.9570    1.7234 C   0  0  2  0  0  0  0  0  0  0  0  0
   18.6181   74.7551    3.0425 H   0  0  0  0  0  0  0  0  0  0  0  0
   20.7755   74.7672    4.4162 H   0  0  0  0  0  0  0  0  0  0  0  0
   21.7178   70.2204    1.2020 O   0  0  0  0  0  0  0  0  0  0  0  0
   26.2512   70.6717    1.8995 O   0  0  0  0  0  0  0  0  0  0  0  0
   22.5439   72.3327    1.7614 N   0  0  0  0  0  0  0  0  0  0  0  0
   23.9747   70.4474    1.5495 N   0  0  0  0  0  0  0  0  0  0  0  0
   22.6694   70.9513    1.4847 C   0  0  0  0  0  0  0  0  0  0  0  0
   23.6698   73.0884    2.0700 C   0  0  0  0  0  0  0  0  0  0  0  0
   24.9074   72.5925    2.1290 C   0  0  0  0  0  0  0  0  0  0  0  0
   25.1253   71.1578    1.8532 C   0  0  0  0  0  0  0  0  0  0  0  0
   24.0864   69.4874    1.3609 H   0  0  0  0  0  0  0  0  0  0  0  0
   22.9146   73.2667   -2.1698 O   0  0  0  0  0  0  0  0  0  0  0  0
   23.2618   72.1491   -3.2849 P   0  0  2  0  0  0  0  0  0  0  0  0
   23.7583   70.8868   -2.4031 O   0  0  0  0  0  0  0  0  0  0  0  0
   24.2445   72.6026   -4.3254 O   0  0  0  0  0  0  0  0  0  0  0  0
   21.8274   71.6978   -3.8713 O   0  0  0  0  0  0  0  0  0  0  0  0
   19.7638   72.6950   -4.4746 O   0  0  0  0  0  0  0  0  0  0  0  0
   18.3509   69.6816   -2.0304 O   0  0  0  0  0  0  0  0  0  0  0  0
   17.9809   69.4931   -4.8722 O   0  0  0  0  0  0  0  0  0  0  0  0
   20.7906   71.0775   -1.3385 O   0  0  0  0  0  0  0  0  0  0  0  0
   19.2291   70.2779   -2.9888 C   0  0  1  0  0  0  0  0  0  0  0  0
   18.4019   70.6828   -4.2105 C   0  0  1  0  0  0  0  0  0  0  0  0
   19.8960   71.5007   -2.3618 C   0  0  2  0  0  0  0  0  0  0  0  0
   19.2185   71.5646   -5.1649 C   0  0  1  0  0  0  0  0  0  0  0  0
   20.6409   72.3352   -3.4053 C   0  0  1  0  0  0  0  0  0  0  0  0
   17.9245   68.9042   -2.4221 H   0  0  0  0  0  0  0  0  0  0  0  0
   17.4668   68.9450   -4.2586 H   0  0  0  0  0  0  0  0  0  0  0  0
   20.3070   70.5506   -0.6840 H   0  0  0  0  0  0  0  0  0  0  0  0
   19.1951   72.8862   -7.1553 O   0  0  0  0  0  0  0  0  0  0  0  0
   18.3671   72.1092   -6.3097 C   0  0  0  0  0  0  0  0  0  0  0  0
   18.6668   73.2391   -7.8888 H   0  0  0  0  0  0  0  0  0  0  0  0
 25 28  1  0
 25 24  1  0
 25 26  1  1
 25 27  2  0
  1  4  1  0
  1 24  1  0
  1  2  1  1
  1  3  2  0
  6 11  1  0
  6 12  1  0
 29 36  1  0
 29 37  1  0
  9  7  1  1
  7 13  1  0
 10  8  1  1
  8 14  1  0
 37 28  1  6
  4  5  1  0
 33 30  1  1
 30 38  1  0
 34 31  1  6
 31 39  1  0
 35 32  1  1
 32 40  1  0
 41 42  1  0
 41 43  1  0
 15 19  2  0
 16 22  2  0
 12 17  1  6
 17 19  1  0
 17 20  1  0
 18 19  1  0
 18 22  1  0
 18 23  1  0
  9 10  1  0
  9 11  1  0
 10 12  1  0
 11  5  1  1
 33 34  1  0
 33 35  1  0
 34 36  1  0
 35 37  1  0
 36 42  1  6
 20 21  2  0
 21 22  1  0
M  CHG  2   2  -1  26  -1
M  END
>  <COMPND>  (259) 
    8629 

>  <AUTHOR>  (259) 
    GENERATED BY OPEN BABEL 3.1.1

>  <MASTER>  (259) 
        0    0    0    0    0    0    0    0   58    0   58    0

>  <minimizedAffinity>  (259) 
-6.37779

>  <CNNscore>  (259) 
0.4965967834

>  <CNNaffinity>  (259) 
3.9847369194

>  <CNN_VS>  (259) 
1.9788075686

>  <CNNaffinity_variance>  (259) 
0.3846529424

$$$$
260
     RDKit          3D

 43 45  0  0  0  0  0  0  0  0999 V2000
   23.0238   71.5364   -2.8690 P   0  0  2  0  0  0  0  0  0  0  0  0
   23.1458   73.1492   -2.9049 O   0  0  0  0  0  0  0  0  0  0  0  0
   24.3244   70.7994   -2.9982 O   0  0  0  0  0  0  0  0  0  0  0  0
   21.9135   71.2056   -3.9984 O   0  0  0  0  0  0  0  0  0  0  0  0
   21.6066   72.2026   -4.9573 C   0  0  0  0  0  0  0  0  0  0  0  0
   20.4817   70.3820   -6.0501 O   0  0  0  0  0  0  0  0  0  0  0  0
   20.7921   71.9566   -8.5829 O   0  0  0  0  0  0  0  0  0  0  0  0
   18.1959   72.4358   -7.8995 O   0  0  0  0  0  0  0  0  0  0  0  0
   20.5409   72.4204   -7.2573 C   0  0  1  0  0  0  0  0  0  0  0  0
   19.1072   72.1333   -6.8627 C   0  0  2  0  0  0  0  0  0  0  0  0
   21.3196   71.5330   -6.2943 C   0  0  1  0  0  0  0  0  0  0  0  0
   19.1592   70.6487   -6.5446 C   0  0  2  0  0  0  0  0  0  0  0  0
   20.3054   72.5084   -9.2159 H   0  0  0  0  0  0  0  0  0  0  0  0
   18.1993   73.3916   -8.0645 H   0  0  0  0  0  0  0  0  0  0  0  0
   16.4975   69.8789   -7.0934 O   0  0  0  0  0  0  0  0  0  0  0  0
   15.5754   69.2142   -2.6270 O   0  0  0  0  0  0  0  0  0  0  0  0
   18.2019   70.2690   -5.5442 N   0  0  0  0  0  0  0  0  0  0  0  0
   16.0406   69.5484   -4.8690 N   0  0  0  0  0  0  0  0  0  0  0  0
   16.8906   69.9004   -5.9252 C   0  0  0  0  0  0  0  0  0  0  0  0
   18.5668   70.2644   -4.2023 C   0  0  0  0  0  0  0  0  0  0  0  0
   17.7439   69.9274   -3.2070 C   0  0  0  0  0  0  0  0  0  0  0  0
   16.3561   69.5294   -3.5197 C   0  0  0  0  0  0  0  0  0  0  0  0
   15.1220   69.2884   -5.1105 H   0  0  0  0  0  0  0  0  0  0  0  0
   22.2298   71.2626   -1.4878 O   0  0  0  0  0  0  0  0  0  0  0  0
   22.6453   71.5432    0.0490 P   0  0  2  0  0  0  0  0  0  0  0  0
   23.8779   72.5827   -0.0837 O   0  0  0  0  0  0  0  0  0  0  0  0
   22.9615   70.3049    0.8368 O   0  0  0  0  0  0  0  0  0  0  0  0
   21.4317   72.4240    0.6460 O   0  0  0  0  0  0  0  0  0  0  0  0
   20.7649   73.9861   -1.0068 O   0  0  0  0  0  0  0  0  0  0  0  0
   18.3290   75.2219    2.0900 O   0  0  0  0  0  0  0  0  0  0  0  0
   17.1836   73.8320   -0.1470 O   0  0  0  0  0  0  0  0  0  0  0  0
   21.0374   74.3599    2.6389 O   0  0  0  0  0  0  0  0  0  0  0  0
   19.0423   74.2730    1.2923 C   0  0  1  0  0  0  0  0  0  0  0  0
   18.5096   74.3536   -0.1396 C   0  0  1  0  0  0  0  0  0  0  0  0
   20.5322   74.6078    1.3313 C   0  0  2  0  0  0  0  0  0  0  0  0
   19.4002   73.5627   -1.1073 C   0  0  1  0  0  0  0  0  0  0  0  0
   21.3195   73.8013    0.2970 C   0  0  1  0  0  0  0  0  0  0  0  0
   17.3824   75.0147    2.0699 H   0  0  0  0  0  0  0  0  0  0  0  0
   16.6317   74.3398    0.4684 H   0  0  0  0  0  0  0  0  0  0  0  0
   20.5309   74.8763    3.2844 H   0  0  0  0  0  0  0  0  0  0  0  0
   18.2094   74.9432   -2.6517 O   0  0  0  0  0  0  0  0  0  0  0  0
   18.9785   73.7580   -2.5620 C   0  0  0  0  0  0  0  0  0  0  0  0
   17.9343   75.0806   -3.5721 H   0  0  0  0  0  0  0  0  0  0  0  0
 25 28  1  0
 25 24  1  0
 25 26  1  6
 25 27  2  0
  1  4  1  0
  1 24  1  0
  1  2  1  1
  1  3  2  0
  6 11  1  0
  6 12  1  0
 29 36  1  0
 29 37  1  0
  9  7  1  6
  7 13  1  0
 10  8  1  6
  8 14  1  0
 37 28  1  1
  4  5  1  0
 33 30  1  1
 30 38  1  0
 34 31  1  1
 31 39  1  0
 35 32  1  1
 32 40  1  0
 41 42  1  0
 41 43  1  0
 15 19  2  0
 16 22  2  0
 12 17  1  1
 17 19  1  0
 17 20  1  0
 18 19  1  0
 18 22  1  0
 18 23  1  0
  9 10  1  0
  9 11  1  0
 10 12  1  0
 11  5  1  1
 33 34  1  0
 33 35  1  0
 34 36  1  0
 35 37  1  0
 36 42  1  6
 20 21  2  0
 21 22  1  0
M  CHG  2   2  -1  26  -1
M  END
>  <COMPND>  (260) 
    8629 

>  <AUTHOR>  (260) 
    GENERATED BY OPEN BABEL 3.1.1

>  <MASTER>  (260) 
        0    0    0    0    0    0    0    0   58    0   58    0

>  <minimizedAffinity>  (260) 
-6.45274

>  <CNNscore>  (260) 
0.4902956784

>  <CNNaffinity>  (260) 
3.9828994274

>  <CNN_VS>  (260) 
1.9527983665

>  <CNNaffinity_variance>  (260) 
0.3146192133

$$$$
261
     RDKit          3D

 43 45  0  0  0  0  0  0  0  0999 V2000
   20.5781   71.2781   -1.4637 P   0  0  2  0  0  0  0  0  0  0  0  0
   21.2140   70.5066   -0.1917 O   0  0  0  0  0  0  0  0  0  0  0  0
   20.1063   72.6752   -1.1865 O   0  0  0  0  0  0  0  0  0  0  0  0
   19.4545   70.2538   -2.0172 O   0  0  0  0  0  0  0  0  0  0  0  0
   19.1290   70.2879   -3.3959 C   0  0  0  0  0  0  0  0  0  0  0  0
   17.4870   71.3524   -4.7903 O   0  0  0  0  0  0  0  0  0  0  0  0
   15.4410   69.7913   -3.2516 O   0  0  0  0  0  0  0  0  0  0  0  0
   15.6748   68.3540   -5.5572 O   0  0  0  0  0  0  0  0  0  0  0  0
   16.7557   69.4074   -3.6511 C   0  0  1  0  0  0  0  0  0  0  0  0
   16.7892   69.1141   -5.1365 C   0  0  2  0  0  0  0  0  0  0  0  0
   17.6541   70.6337   -3.5486 C   0  0  1  0  0  0  0  0  0  0  0  0
   16.8029   70.5112   -5.7333 C   0  0  2  0  0  0  0  0  0  0  0  0
   14.8491   69.0243   -3.3084 H   0  0  0  0  0  0  0  0  0  0  0  0
   15.7115   67.4740   -5.1509 H   0  0  0  0  0  0  0  0  0  0  0  0
   15.5279   70.5555   -8.2533 O   0  0  0  0  0  0  0  0  0  0  0  0
   19.5537   70.7080  -10.4918 O   0  0  0  0  0  0  0  0  0  0  0  0
   17.4935   70.5628   -6.9910 N   0  0  0  0  0  0  0  0  0  0  0  0
   17.5335   70.6316   -9.3658 N   0  0  0  0  0  0  0  0  0  0  0  0
   16.7593   70.5803   -8.1997 C   0  0  0  0  0  0  0  0  0  0  0  0
   18.8835   70.5958   -7.0174 C   0  0  0  0  0  0  0  0  0  0  0  0
   19.6070   70.6432   -8.1379 C   0  0  0  0  0  0  0  0  0  0  0  0
   18.9168   70.6645   -9.4438 C   0  0  0  0  0  0  0  0  0  0  0  0
   17.0435   70.6442  -10.2200 H   0  0  0  0  0  0  0  0  0  0  0  0
   21.7467   71.1707   -2.5753 O   0  0  0  0  0  0  0  0  0  0  0  0
   23.1419   71.9725   -2.7296 P   0  0  2  0  0  0  0  0  0  0  0  0
   24.2163   70.7965   -3.0127 O   0  0  0  0  0  0  0  0  0  0  0  0
   23.4793   72.8512   -1.5600 O   0  0  0  0  0  0  0  0  0  0  0  0
   23.0112   72.7526   -4.1365 O   0  0  0  0  0  0  0  0  0  0  0  0
   20.7734   73.5056   -4.3413 O   0  0  0  0  0  0  0  0  0  0  0  0
   22.2126   74.7056   -8.0208 O   0  0  0  0  0  0  0  0  0  0  0  0
   21.6667   76.6733   -6.0014 O   0  0  0  0  0  0  0  0  0  0  0  0
   23.0754   72.1870   -6.8844 O   0  0  0  0  0  0  0  0  0  0  0  0
   22.2823   74.4454   -6.6163 C   0  0  1  0  0  0  0  0  0  0  0  0
   21.2388   75.3170   -5.9147 C   0  0  1  0  0  0  0  0  0  0  0  0
   22.0005   72.9647   -6.3684 C   0  0  2  0  0  0  0  0  0  0  0  0
   21.0681   74.9033   -4.4468 C   0  0  1  0  0  0  0  0  0  0  0  0
   21.7987   72.6694   -4.8810 C   0  0  1  0  0  0  0  0  0  0  0  0
   22.3911   75.6441   -8.1851 H   0  0  0  0  0  0  0  0  0  0  0  0
   21.7711   76.9217   -6.9334 H   0  0  0  0  0  0  0  0  0  0  0  0
   23.1928   72.3827   -7.8266 H   0  0  0  0  0  0  0  0  0  0  0  0
   19.9248   75.3300   -2.3925 O   0  0  0  0  0  0  0  0  0  0  0  0
   19.9221   75.6530   -3.7709 C   0  0  0  0  0  0  0  0  0  0  0  0
   19.2008   75.8003   -1.9494 H   0  0  0  0  0  0  0  0  0  0  0  0
 25 28  1  0
 25 24  1  0
 25 26  1  6
 25 27  2  0
  1  4  1  0
  1 24  1  0
  1  2  1  1
  1  3  2  0
  6 11  1  0
  6 12  1  0
 29 36  1  0
 29 37  1  0
  9  7  1  6
  7 13  1  0
 10  8  1  6
  8 14  1  0
 37 28  1  1
  4  5  1  0
 33 30  1  6
 30 38  1  0
 34 31  1  1
 31 39  1  0
 35 32  1  1
 32 40  1  0
 41 42  1  0
 41 43  1  0
 15 19  2  0
 16 22  2  0
 12 17  1  6
 17 19  1  0
 17 20  1  0
 18 19  1  0
 18 22  1  0
 18 23  1  0
  9 10  1  0
  9 11  1  0
 10 12  1  0
 11  5  1  6
 33 34  1  0
 33 35  1  0
 34 36  1  0
 35 37  1  0
 36 42  1  6
 20 21  2  0
 21 22  1  0
M  CHG  2   2  -1  26  -1
M  END
>  <COMPND>  (261) 
    8629 

>  <AUTHOR>  (261) 
    GENERATED BY OPEN BABEL 3.1.1

>  <MASTER>  (261) 
        0    0    0    0    0    0    0    0   58    0   58    0

>  <minimizedAffinity>  (261) 
-7.99259

>  <CNNscore>  (261) 
0.9317106605

>  <CNNaffinity>  (261) 
4.6975936890

>  <CNN_VS>  (261) 
4.3767981529

>  <CNNaffinity_variance>  (261) 
0.5489031076

$$$$
262
     RDKit          3D

 43 45  0  0  0  0  0  0  0  0999 V2000
   23.0349   71.8269   -2.4269 P   0  0  2  0  0  0  0  0  0  0  0  0
   23.4745   73.2670   -1.8350 O   0  0  0  0  0  0  0  0  0  0  0  0
   24.0617   71.1571   -3.2920 O   0  0  0  0  0  0  0  0  0  0  0  0
   21.6054   72.1151   -3.1280 O   0  0  0  0  0  0  0  0  0  0  0  0
   20.8630   71.0159   -3.6262 C   0  0  0  0  0  0  0  0  0  0  0  0
   18.7966   71.7819   -4.5839 O   0  0  0  0  0  0  0  0  0  0  0  0
   17.4374   70.3609   -2.3203 O   0  0  0  0  0  0  0  0  0  0  0  0
   17.1214   68.6165   -4.3924 O   0  0  0  0  0  0  0  0  0  0  0  0
   18.6086   69.9894   -3.0453 C   0  0  1  0  0  0  0  0  0  0  0  0
   18.2357   69.4849   -4.4237 C   0  0  2  0  0  0  0  0  0  0  0  0
   19.3822   71.2611   -3.3706 C   0  0  1  0  0  0  0  0  0  0  0  0
   17.9478   70.7789   -5.1657 C   0  0  2  0  0  0  0  0  0  0  0  0
   16.9271   69.5650   -2.1009 H   0  0  0  0  0  0  0  0  0  0  0  0
   17.3547   67.8081   -3.9098 H   0  0  0  0  0  0  0  0  0  0  0  0
   16.1287   69.8261   -7.1051 O   0  0  0  0  0  0  0  0  0  0  0  0
   19.1609   70.4476  -10.5199 O   0  0  0  0  0  0  0  0  0  0  0  0
   18.2355   70.6814   -6.5689 N   0  0  0  0  0  0  0  0  0  0  0  0
   17.6399   70.1365   -8.8039 N   0  0  0  0  0  0  0  0  0  0  0  0
   17.2527   70.1885   -7.4587 C   0  0  0  0  0  0  0  0  0  0  0  0
   19.4803   71.0723   -7.0500 C   0  0  0  0  0  0  0  0  0  0  0  0
   19.8343   71.0153   -8.3355 C   0  0  0  0  0  0  0  0  0  0  0  0
   18.8655   70.5123   -9.3307 C   0  0  0  0  0  0  0  0  0  0  0  0
   16.9716   69.7961   -9.4420 H   0  0  0  0  0  0  0  0  0  0  0  0
   22.6283   70.9975   -1.1004 O   0  0  0  0  0  0  0  0  0  0  0  0
   21.7889   71.4355    0.2098 P   0  0  2  0  0  0  0  0  0  0  0  0
   21.5230   70.0306    0.9668 O   0  0  0  0  0  0  0  0  0  0  0  0
   20.5459   72.2221   -0.0904 O   0  0  0  0  0  0  0  0  0  0  0  0
   22.8586   72.2047    1.1420 O   0  0  0  0  0  0  0  0  0  0  0  0
   24.5549   71.8540    2.7594 O   0  0  0  0  0  0  0  0  0  0  0  0
   21.9616   74.1478    5.0098 O   0  0  0  0  0  0  0  0  0  0  0  0
   24.4289   75.2910    4.0859 O   0  0  0  0  0  0  0  0  0  0  0  0
   20.9167   72.1744    3.1676 O   0  0  0  0  0  0  0  0  0  0  0  0
   22.6347   73.7321    3.8183 C   0  0  1  0  0  0  0  0  0  0  0  0
   24.1402   73.8966    4.0358 C   0  0  1  0  0  0  0  0  0  0  0  0
   22.2890   72.2718    3.5334 C   0  0  2  0  0  0  0  0  0  0  0  0
   24.9390   73.2256    2.9104 C   0  0  1  0  0  0  0  0  0  0  0  0
   23.1742   71.6864    2.4315 C   0  0  1  0  0  0  0  0  0  0  0  0
   22.1765   75.0744    5.1961 H   0  0  0  0  0  0  0  0  0  0  0  0
   23.9178   75.7028    4.8003 H   0  0  0  0  0  0  0  0  0  0  0  0
   20.3668   72.5480    3.8733 H   0  0  0  0  0  0  0  0  0  0  0  0
   26.9687   71.9656    2.8706 O   0  0  0  0  0  0  0  0  0  0  0  0
   26.4407   73.2403    3.1876 C   0  0  0  0  0  0  0  0  0  0  0  0
   27.9239   71.9602    3.0419 H   0  0  0  0  0  0  0  0  0  0  0  0
 25 28  1  0
 25 24  1  0
 25 26  1  1
 25 27  2  0
  1  4  1  0
  1 24  1  0
  1  2  1  1
  1  3  2  0
  6 11  1  0
  6 12  1  0
 29 36  1  0
 29 37  1  0
  9  7  1  1
  7 13  1  0
 10  8  1  1
  8 14  1  0
 37 28  1  6
  4  5  1  0
 33 30  1  1
 30 38  1  0
 34 31  1  6
 31 39  1  0
 35 32  1  6
 32 40  1  0
 41 42  1  0
 41 43  1  0
 15 19  2  0
 16 22  2  0
 12 17  1  6
 17 19  1  0
 17 20  1  0
 18 19  1  0
 18 22  1  0
 18 23  1  0
  9 10  1  0
  9 11  1  0
 10 12  1  0
 11  5  1  6
 33 34  1  0
 33 35  1  0
 34 36  1  0
 35 37  1  0
 36 42  1  1
 20 21  2  0
 21 22  1  0
M  CHG  2   2  -1  26  -1
M  END
>  <COMPND>  (262) 
    8629 

>  <AUTHOR>  (262) 
    GENERATED BY OPEN BABEL 3.1.1

>  <MASTER>  (262) 
        0    0    0    0    0    0    0    0   58    0   58    0

>  <minimizedAffinity>  (262) 
-7.96607

>  <CNNscore>  (262) 
0.9007569551

>  <CNNaffinity>  (262) 
4.6853585243

>  <CNN_VS>  (262) 
4.2203693390

>  <CNNaffinity_variance>  (262) 
0.0630810410

$$$$
263
     RDKit          3D

 43 45  0  0  0  0  0  0  0  0999 V2000
   21.5062   72.2488   -4.7360 P   0  0  2  0  0  0  0  0  0  0  0  0
   20.6558   73.6251   -4.7372 O   0  0  0  0  0  0  0  0  0  0  0  0
   22.6135   72.1871   -5.7466 O   0  0  0  0  0  0  0  0  0  0  0  0
   20.3782   71.0952   -4.8582 O   0  0  0  0  0  0  0  0  0  0  0  0
   19.7638   70.6220   -3.6723 C   0  0  0  0  0  0  0  0  0  0  0  0
   18.0079   71.6570   -4.9448 O   0  0  0  0  0  0  0  0  0  0  0  0
   16.1058   70.3553   -3.0269 O   0  0  0  0  0  0  0  0  0  0  0  0
   15.9733   68.7145   -5.2011 O   0  0  0  0  0  0  0  0  0  0  0  0
   17.3387   69.8626   -3.5491 C   0  0  1  0  0  0  0  0  0  0  0  0
   17.1670   69.4417   -4.9937 C   0  0  2  0  0  0  0  0  0  0  0  0
   18.2994   71.0387   -3.6724 C   0  0  1  0  0  0  0  0  0  0  0  0
   17.1694   70.7794   -5.7140 C   0  0  2  0  0  0  0  0  0  0  0  0
   15.4761   69.6220   -2.9388 H   0  0  0  0  0  0  0  0  0  0  0  0
   16.0206   67.8720   -4.7229 H   0  0  0  0  0  0  0  0  0  0  0  0
   15.5975   70.3455   -8.0203 O   0  0  0  0  0  0  0  0  0  0  0  0
   19.2909   70.4247  -10.7759 O   0  0  0  0  0  0  0  0  0  0  0  0
   17.6941   70.6827   -7.0469 N   0  0  0  0  0  0  0  0  0  0  0  0
   17.4378   70.3855   -9.3905 N   0  0  0  0  0  0  0  0  0  0  0  0
   16.8192   70.4626   -8.1362 C   0  0  0  0  0  0  0  0  0  0  0  0
   19.0622   70.8063   -7.2637 C   0  0  0  0  0  0  0  0  0  0  0  0
   19.6365   70.7291   -8.4660 C   0  0  0  0  0  0  0  0  0  0  0  0
   18.7930   70.5006   -9.6569 C   0  0  0  0  0  0  0  0  0  0  0  0
   16.8480   70.2322  -10.1641 H   0  0  0  0  0  0  0  0  0  0  0  0
   21.9904   72.1220   -3.1989 O   0  0  0  0  0  0  0  0  0  0  0  0
   23.4713   72.0497   -2.5550 P   0  0  2  0  0  0  0  0  0  0  0  0
   24.1292   73.4661   -2.9776 O   0  0  0  0  0  0  0  0  0  0  0  0
   24.2668   70.8477   -2.9747 O   0  0  0  0  0  0  0  0  0  0  0  0
   23.2311   72.1705   -0.9636 O   0  0  0  0  0  0  0  0  0  0  0  0
   23.9241   70.6230    0.6922 O   0  0  0  0  0  0  0  0  0  0  0  0
   20.5035   72.0497    2.5129 O   0  0  0  0  0  0  0  0  0  0  0  0
   23.0770   72.8141    3.5331 O   0  0  0  0  0  0  0  0  0  0  0  0
   20.5467   71.6285   -0.3508 O   0  0  0  0  0  0  0  0  0  0  0  0
   21.6847   72.1340    1.7110 C   0  0  1  0  0  0  0  0  0  0  0  0
   22.8853   71.7672    2.5856 C   0  0  1  0  0  0  0  0  0  0  0  0
   21.5602   71.1663    0.5356 C   0  0  2  0  0  0  0  0  0  0  0  0
   24.1501   71.5753    1.7381 C   0  0  1  0  0  0  0  0  0  0  0  0
   22.8865   71.0105   -0.2106 C   0  0  1  0  0  0  0  0  0  0  0  0
   20.5759   72.6620    3.2607 H   0  0  0  0  0  0  0  0  0  0  0  0
   22.2710   72.9253    4.0614 H   0  0  0  0  0  0  0  0  0  0  0  0
   19.7122   71.7228    0.1335 H   0  0  0  0  0  0  0  0  0  0  0  0
   26.3704   70.6940    1.6891 O   0  0  0  0  0  0  0  0  0  0  0  0
   25.3218   71.0561    2.5686 C   0  0  0  0  0  0  0  0  0  0  0  0
   27.1231   70.3619    2.2038 H   0  0  0  0  0  0  0  0  0  0  0  0
 25 28  1  0
 25 24  1  0
 25 26  1  6
 25 27  2  0
  1  4  1  0
  1 24  1  0
  1  2  1  1
  1  3  2  0
  6 11  1  0
  6 12  1  0
 29 36  1  0
 29 37  1  0
  9  7  1  6
  7 13  1  0
 10  8  1  1
  8 14  1  0
 37 28  1  1
  4  5  1  0
 33 30  1  1
 30 38  1  0
 34 31  1  1
 31 39  1  0
 35 32  1  6
 32 40  1  0
 41 42  1  0
 41 43  1  0
 15 19  2  0
 16 22  2  0
 12 17  1  6
 17 19  1  0
 17 20  1  0
 18 19  1  0
 18 22  1  0
 18 23  1  0
  9 10  1  0
  9 11  1  0
 10 12  1  0
 11  5  1  6
 33 34  1  0
 33 35  1  0
 34 36  1  0
 35 37  1  0
 36 42  1  1
 20 21  2  0
 21 22  1  0
M  CHG  2   2  -1  26  -1
M  END
>  <COMPND>  (263) 
    8629 

>  <AUTHOR>  (263) 
    GENERATED BY OPEN BABEL 3.1.1

>  <MASTER>  (263) 
        0    0    0    0    0    0    0    0   58    0   58    0

>  <minimizedAffinity>  (263) 
-8.28551

>  <CNNscore>  (263) 
0.8989483118

>  <CNNaffinity>  (263) 
4.7777175903

>  <CNN_VS>  (263) 
4.2949213982

>  <CNNaffinity_variance>  (263) 
0.0782480538

$$$$
264
     RDKit          3D

 43 45  0  0  0  0  0  0  0  0999 V2000
   21.2218   71.2034   -1.3565 P   0  0  2  0  0  0  0  0  0  0  0  0
   22.7958   71.1447   -1.7259 O   0  0  0  0  0  0  0  0  0  0  0  0
   20.8561   70.5821   -0.0406 O   0  0  0  0  0  0  0  0  0  0  0  0
   20.4938   70.5738   -2.6572 O   0  0  0  0  0  0  0  0  0  0  0  0
   20.0381   71.4544   -3.6694 C   0  0  0  0  0  0  0  0  0  0  0  0
   18.0398   71.9533   -4.9070 O   0  0  0  0  0  0  0  0  0  0  0  0
   16.5674   70.4408   -2.7774 O   0  0  0  0  0  0  0  0  0  0  0  0
   16.7167   68.6213   -4.8032 O   0  0  0  0  0  0  0  0  0  0  0  0
   17.8561   70.1893   -3.3353 C   0  0  1  0  0  0  0  0  0  0  0  0
   17.7222   69.6115   -4.7288 C   0  0  2  0  0  0  0  0  0  0  0  0
   18.5187   71.5334   -3.6106 C   0  0  1  0  0  0  0  0  0  0  0  0
   17.3898   70.8451   -5.5508 C   0  0  2  0  0  0  0  0  0  0  0  0
   16.1249   69.5970   -2.5927 H   0  0  0  0  0  0  0  0  0  0  0  0
   16.9746   67.8574   -4.2641 H   0  0  0  0  0  0  0  0  0  0  0  0
   15.7574   70.2443   -7.7762 O   0  0  0  0  0  0  0  0  0  0  0  0
   19.3207   70.4935  -10.6887 O   0  0  0  0  0  0  0  0  0  0  0  0
   17.8647   70.7470   -6.9022 N   0  0  0  0  0  0  0  0  0  0  0  0
   17.5329   70.3690   -9.2246 N   0  0  0  0  0  0  0  0  0  0  0  0
   16.9626   70.4392   -7.9472 C   0  0  0  0  0  0  0  0  0  0  0  0
   19.2112   70.9554   -7.1804 C   0  0  0  0  0  0  0  0  0  0  0  0
   19.7395   70.8835   -8.4039 C   0  0  0  0  0  0  0  0  0  0  0  0
   18.8651   70.5668   -9.5516 C   0  0  0  0  0  0  0  0  0  0  0  0
   16.9236   70.1556   -9.9682 H   0  0  0  0  0  0  0  0  0  0  0  0
   20.8791   72.7786   -1.4752 O   0  0  0  0  0  0  0  0  0  0  0  0
   20.8343   73.9426   -0.3544 P   0  0  2  0  0  0  0  0  0  0  0  0
   19.6448   73.4627    0.6317 O   0  0  0  0  0  0  0  0  0  0  0  0
   20.6574   75.3258   -0.9106 O   0  0  0  0  0  0  0  0  0  0  0  0
   22.1848   73.7348    0.5046 O   0  0  0  0  0  0  0  0  0  0  0  0
   22.7494   72.1711    2.1936 O   0  0  0  0  0  0  0  0  0  0  0  0
   24.5979   75.5196    3.7498 O   0  0  0  0  0  0  0  0  0  0  0  0
   26.1932   73.4140    2.6230 O   0  0  0  0  0  0  0  0  0  0  0  0
   22.0317   75.7673    2.4334 O   0  0  0  0  0  0  0  0  0  0  0  0
   24.1444   74.6450    2.7131 C   0  0  1  0  0  0  0  0  0  0  0  0
   24.8049   73.2797    2.9144 C   0  0  1  0  0  0  0  0  0  0  0  0
   22.6237   74.5235    2.7922 C   0  0  2  0  0  0  0  0  0  0  0  0
   24.1689   72.2175    2.0075 C   0  0  1  0  0  0  0  0  0  0  0  0
   22.0987   73.4062    1.8888 C   0  0  1  0  0  0  0  0  0  0  0  0
   25.5626   75.6014    3.7049 H   0  0  0  0  0  0  0  0  0  0  0  0
   26.5826   74.0880    3.2021 H   0  0  0  0  0  0  0  0  0  0  0  0
   22.3720   76.4663    3.0127 H   0  0  0  0  0  0  0  0  0  0  0  0
   25.9378   70.6565    1.6294 O   0  0  0  0  0  0  0  0  0  0  0  0
   24.7036   70.8181    2.3038 C   0  0  0  0  0  0  0  0  0  0  0  0
   26.2902   69.7703    1.8091 H   0  0  0  0  0  0  0  0  0  0  0  0
 25 28  1  0
 25 24  1  0
 25 26  1  1
 25 27  2  0
  1  4  1  0
  1 24  1  0
  1  2  1  6
  1  3  2  0
  6 11  1  0
  6 12  1  0
 29 36  1  0
 29 37  1  0
  9  7  1  6
  7 13  1  0
 10  8  1  1
  8 14  1  0
 37 28  1  6
  4  5  1  0
 33 30  1  1
 30 38  1  0
 34 31  1  6
 31 39  1  0
 35 32  1  6
 32 40  1  0
 41 42  1  0
 41 43  1  0
 15 19  2  0
 16 22  2  0
 12 17  1  6
 17 19  1  0
 17 20  1  0
 18 19  1  0
 18 22  1  0
 18 23  1  0
  9 10  1  0
  9 11  1  0
 10 12  1  0
 11  5  1  6
 33 34  1  0
 33 35  1  0
 34 36  1  0
 35 37  1  0
 36 42  1  1
 20 21  2  0
 21 22  1  0
M  CHG  2   2  -1  26  -1
M  END
>  <COMPND>  (264) 
    8629 

>  <AUTHOR>  (264) 
    GENERATED BY OPEN BABEL 3.1.1

>  <MASTER>  (264) 
        0    0    0    0    0    0    0    0   58    0   58    0

>  <minimizedAffinity>  (264) 
-6.94178

>  <CNNscore>  (264) 
0.8903434873

>  <CNNaffinity>  (264) 
4.6664843559

>  <CNN_VS>  (264) 
4.1547741890

>  <CNNaffinity_variance>  (264) 
0.0580955260

$$$$
265
     RDKit          3D

 43 45  0  0  0  0  0  0  0  0999 V2000
   20.4481   71.2506   -1.3015 P   0  0  2  0  0  0  0  0  0  0  0  0
   20.7700   70.6037    0.1460 O   0  0  0  0  0  0  0  0  0  0  0  0
   19.9981   72.6816   -1.2703 O   0  0  0  0  0  0  0  0  0  0  0  0
   19.4141   70.2033   -1.9737 O   0  0  0  0  0  0  0  0  0  0  0  0
   19.1157   70.3381   -3.3523 C   0  0  0  0  0  0  0  0  0  0  0  0
   17.4569   71.3653   -4.7549 O   0  0  0  0  0  0  0  0  0  0  0  0
   15.4380   69.7679   -3.2175 O   0  0  0  0  0  0  0  0  0  0  0  0
   15.7076   68.3288   -5.5181 O   0  0  0  0  0  0  0  0  0  0  0  0
   16.7613   69.4093   -3.6120 C   0  0  1  0  0  0  0  0  0  0  0  0
   16.8053   69.1124   -5.0964 C   0  0  2  0  0  0  0  0  0  0  0  0
   17.6347   70.6537   -3.5105 C   0  0  1  0  0  0  0  0  0  0  0  0
   16.7927   70.5077   -5.6973 C   0  0  2  0  0  0  0  0  0  0  0  0
   14.8618   68.9890   -3.2738 H   0  0  0  0  0  0  0  0  0  0  0  0
   15.7607   67.4510   -5.1090 H   0  0  0  0  0  0  0  0  0  0  0  0
   15.5229   70.5827   -8.2192 O   0  0  0  0  0  0  0  0  0  0  0  0
   19.5536   70.7424  -10.4483 O   0  0  0  0  0  0  0  0  0  0  0  0
   17.4860   70.5695   -6.9531 N   0  0  0  0  0  0  0  0  0  0  0  0
   17.5309   70.6623   -9.3271 N   0  0  0  0  0  0  0  0  0  0  0  0
   16.7542   70.6022   -8.1630 C   0  0  0  0  0  0  0  0  0  0  0  0
   18.8762   70.5973   -6.9765 C   0  0  0  0  0  0  0  0  0  0  0  0
   19.6020   70.6534   -8.0951 C   0  0  0  0  0  0  0  0  0  0  0  0
   18.9144   70.6907   -9.4020 C   0  0  0  0  0  0  0  0  0  0  0  0
   17.0426   70.6856  -10.1819 H   0  0  0  0  0  0  0  0  0  0  0  0
   21.8140   70.9928   -2.1267 O   0  0  0  0  0  0  0  0  0  0  0  0
   23.2961   71.6125   -1.9466 P   0  0  2  0  0  0  0  0  0  0  0  0
   24.1964   70.7192   -2.9510 O   0  0  0  0  0  0  0  0  0  0  0  0
   23.7863   71.6329   -0.5278 O   0  0  0  0  0  0  0  0  0  0  0  0
   23.2201   73.0638   -2.6489 O   0  0  0  0  0  0  0  0  0  0  0  0
   23.6629   73.0349   -4.9769 O   0  0  0  0  0  0  0  0  0  0  0  0
   23.9015   77.1030   -4.3102 O   0  0  0  0  0  0  0  0  0  0  0  0
   21.6375   76.0261   -5.7112 O   0  0  0  0  0  0  0  0  0  0  0  0
   24.9480   75.2538   -2.3443 O   0  0  0  0  0  0  0  0  0  0  0  0
   23.4008   75.7778   -4.1143 C   0  0  1  0  0  0  0  0  0  0  0  0
   22.8226   75.2825   -5.4414 C   0  0  1  0  0  0  0  0  0  0  0  0
   24.5444   74.8748   -3.6558 C   0  0  2  0  0  0  0  0  0  0  0  0
   22.5099   73.7812   -5.3836 C   0  0  1  0  0  0  0  0  0  0  0  0
   24.1437   73.3987   -3.6814 C   0  0  1  0  0  0  0  0  0  0  0  0
   23.1802   77.6815   -4.6010 H   0  0  0  0  0  0  0  0  0  0  0  0
   21.8487   76.9724   -5.7446 H   0  0  0  0  0  0  0  0  0  0  0  0
   25.1995   76.1901   -2.3414 H   0  0  0  0  0  0  0  0  0  0  0  0
   23.0772   72.3386   -7.2018 O   0  0  0  0  0  0  0  0  0  0  0  0
   22.0808   73.2336   -6.7430 C   0  0  0  0  0  0  0  0  0  0  0  0
   22.8174   71.9819   -8.0661 H   0  0  0  0  0  0  0  0  0  0  0  0
 25 28  1  0
 25 24  1  0
 25 26  1  6
 25 27  2  0
  1  4  1  0
  1 24  1  0
  1  2  1  1
  1  3  2  0
  6 11  1  0
  6 12  1  0
 29 36  1  0
 29 37  1  0
  9  7  1  6
  7 13  1  0
 10  8  1  6
  8 14  1  0
 37 28  1  1
  4  5  1  0
 33 30  1  6
 30 38  1  0
 34 31  1  1
 31 39  1  0
 35 32  1  1
 32 40  1  0
 41 42  1  0
 41 43  1  0
 15 19  2  0
 16 22  2  0
 12 17  1  6
 17 19  1  0
 17 20  1  0
 18 19  1  0
 18 22  1  0
 18 23  1  0
  9 10  1  0
  9 11  1  0
 10 12  1  0
 11  5  1  6
 33 34  1  0
 33 35  1  0
 34 36  1  0
 35 37  1  0
 36 42  1  6
 20 21  2  0
 21 22  1  0
M  CHG  2   2  -1  26  -1
M  END
>  <COMPND>  (265) 
    8629 

>  <AUTHOR>  (265) 
    GENERATED BY OPEN BABEL 3.1.1

>  <MASTER>  (265) 
        0    0    0    0    0    0    0    0   58    0   58    0

>  <minimizedAffinity>  (265) 
-8.42210

>  <CNNscore>  (265) 
0.8744388223

>  <CNNaffinity>  (265) 
4.7004308701

>  <CNN_VS>  (265) 
4.1102390289

>  <CNNaffinity_variance>  (265) 
0.2952277064

$$$$
266
     RDKit          3D

 43 45  0  0  0  0  0  0  0  0999 V2000
   21.0764   71.6351   -3.1634 P   0  0  2  0  0  0  0  0  0  0  0  0
   21.0819   71.0407   -4.6681 O   0  0  0  0  0  0  0  0  0  0  0  0
   21.6232   70.7112   -2.1151 O   0  0  0  0  0  0  0  0  0  0  0  0
   19.5491   72.1217   -2.9435 O   0  0  0  0  0  0  0  0  0  0  0  0
   18.8724   72.7353   -4.0268 C   0  0  0  0  0  0  0  0  0  0  0  0
   17.0204   72.1836   -5.4549 O   0  0  0  0  0  0  0  0  0  0  0  0
   15.9455   70.6106   -3.1395 O   0  0  0  0  0  0  0  0  0  0  0  0
   17.0374   68.6736   -4.7184 O   0  0  0  0  0  0  0  0  0  0  0  0
   17.2977   70.7932   -3.5561 C   0  0  1  0  0  0  0  0  0  0  0  0
   17.5799   69.9759   -4.7994 C   0  0  2  0  0  0  0  0  0  0  0  0
   17.4408   72.2191   -4.0735 C   0  0  1  0  0  0  0  0  0  0  0  0
   16.9255   70.8154   -5.8835 C   0  0  2  0  0  0  0  0  0  0  0  0
   15.8298   69.7070   -2.8047 H   0  0  0  0  0  0  0  0  0  0  0  0
   17.4863   68.1795   -4.0148 H   0  0  0  0  0  0  0  0  0  0  0  0
   15.5830   70.6440   -8.3626 O   0  0  0  0  0  0  0  0  0  0  0  0
   19.5444   70.2885  -10.6911 O   0  0  0  0  0  0  0  0  0  0  0  0
   17.5813   70.6779   -7.1533 N   0  0  0  0  0  0  0  0  0  0  0  0
   17.5565   70.4673   -9.5201 N   0  0  0  0  0  0  0  0  0  0  0  0
   16.8147   70.5996   -8.3393 C   0  0  0  0  0  0  0  0  0  0  0  0
   18.9695   70.6226   -7.2139 C   0  0  0  0  0  0  0  0  0  0  0  0
   19.6618   70.4950   -8.3478 C   0  0  0  0  0  0  0  0  0  0  0  0
   18.9366   70.4064   -9.6316 C   0  0  0  0  0  0  0  0  0  0  0  0
   17.0436   70.4105  -10.3588 H   0  0  0  0  0  0  0  0  0  0  0  0
   21.8825   73.0275   -3.3197 O   0  0  0  0  0  0  0  0  0  0  0  0
   23.4619   73.3568   -3.2194 P   0  0  2  0  0  0  0  0  0  0  0  0
   23.5290   74.9462   -3.5140 O   0  0  0  0  0  0  0  0  0  0  0  0
   24.3230   72.5226   -4.1229 O   0  0  0  0  0  0  0  0  0  0  0  0
   23.8091   73.2183   -1.6492 O   0  0  0  0  0  0  0  0  0  0  0  0
   22.2664   73.0209    0.1389 O   0  0  0  0  0  0  0  0  0  0  0  0
   25.2905   75.0392    2.0964 O   0  0  0  0  0  0  0  0  0  0  0  0
   24.8322   72.2637    2.6751 O   0  0  0  0  0  0  0  0  0  0  0  0
   24.6551   75.7001   -0.6493 O   0  0  0  0  0  0  0  0  0  0  0  0
   24.7374   74.1113    1.1591 C   0  0  1  0  0  0  0  0  0  0  0  0
   23.9233   73.0738    1.9348 C   0  0  1  0  0  0  0  0  0  0  0  0
   23.8467   74.8672    0.1749 C   0  0  2  0  0  0  0  0  0  0  0  0
   23.0845   72.2063    0.9868 C   0  0  1  0  0  0  0  0  0  0  0  0
   23.0192   73.9116   -0.6867 C   0  0  1  0  0  0  0  0  0  0  0  0
   25.8576   74.5657    2.7239 H   0  0  0  0  0  0  0  0  0  0  0  0
   25.3560   72.8237    3.2694 H   0  0  0  0  0  0  0  0  0  0  0  0
   25.1737   76.3005   -0.0922 H   0  0  0  0  0  0  0  0  0  0  0  0
   21.2628   70.6693    0.8187 O   0  0  0  0  0  0  0  0  0  0  0  0
   22.1466   71.2709    1.7468 C   0  0  0  0  0  0  0  0  0  0  0  0
   20.6601   70.0710    1.2882 H   0  0  0  0  0  0  0  0  0  0  0  0
 25 28  1  0
 25 24  1  0
 25 26  1  6
 25 27  2  0
  1  4  1  0
  1 24  1  0
  1  2  1  6
  1  3  2  0
  6 11  1  0
  6 12  1  0
 29 36  1  0
 29 37  1  0
  9  7  1  6
  7 13  1  0
 10  8  1  1
  8 14  1  0
 37 28  1  6
  4  5  1  0
 33 30  1  1
 30 38  1  0
 34 31  1  6
 31 39  1  0
 35 32  1  6
 32 40  1  0
 41 42  1  0
 41 43  1  0
 15 19  2  0
 16 22  2  0
 12 17  1  6
 17 19  1  0
 17 20  1  0
 18 19  1  0
 18 22  1  0
 18 23  1  0
  9 10  1  0
  9 11  1  0
 10 12  1  0
 11  5  1  6
 33 34  1  0
 33 35  1  0
 34 36  1  0
 35 37  1  0
 36 42  1  1
 20 21  2  0
 21 22  1  0
M  CHG  2   2  -1  26  -1
M  END
>  <COMPND>  (266) 
    8629 

>  <AUTHOR>  (266) 
    GENERATED BY OPEN BABEL 3.1.1

>  <MASTER>  (266) 
        0    0    0    0    0    0    0    0   58    0   58    0

>  <minimizedAffinity>  (266) 
-7.18832

>  <CNNscore>  (266) 
0.8618547916

>  <CNNaffinity>  (266) 
4.5928182602

>  <CNN_VS>  (266) 
3.9583423138

>  <CNNaffinity_variance>  (266) 
0.0188855007

$$$$
267
     RDKit          3D

 43 45  0  0  0  0  0  0  0  0999 V2000
   21.0736   71.4252   -1.6799 P   0  0  2  0  0  0  0  0  0  0  0  0
   22.4354   70.8512   -2.3382 O   0  0  0  0  0  0  0  0  0  0  0  0
   20.0777   70.3799   -1.2712 O   0  0  0  0  0  0  0  0  0  0  0  0
   20.5492   72.5120   -2.7577 O   0  0  0  0  0  0  0  0  0  0  0  0
   20.0142   72.0446   -3.9837 C   0  0  0  0  0  0  0  0  0  0  0  0
   18.2822   72.7883   -5.4739 O   0  0  0  0  0  0  0  0  0  0  0  0
   16.3516   72.0248   -3.3104 O   0  0  0  0  0  0  0  0  0  0  0  0
   16.1777   69.9179   -5.0330 O   0  0  0  0  0  0  0  0  0  0  0  0
   17.5718   71.3934   -3.6948 C   0  0  1  0  0  0  0  0  0  0  0  0
   17.3887   70.6453   -4.9988 C   0  0  2  0  0  0  0  0  0  0  0  0
   18.5602   72.4836   -4.0897 C   0  0  1  0  0  0  0  0  0  0  0  0
   17.4222   71.7729   -6.0164 C   0  0  2  0  0  0  0  0  0  0  0  0
   15.7047   71.3484   -3.0536 H   0  0  0  0  0  0  0  0  0  0  0  0
   16.2053   69.2123   -4.3680 H   0  0  0  0  0  0  0  0  0  0  0  0
   15.8674   70.6282   -8.0780 O   0  0  0  0  0  0  0  0  0  0  0  0
   19.5280   70.1865  -10.8432 O   0  0  0  0  0  0  0  0  0  0  0  0
   17.9431   71.3499   -7.2857 N   0  0  0  0  0  0  0  0  0  0  0  0
   17.6913   70.4094   -9.4533 N   0  0  0  0  0  0  0  0  0  0  0  0
   17.0776   70.7862   -8.2519 C   0  0  0  0  0  0  0  0  0  0  0  0
   19.2982   71.4960   -7.5621 C   0  0  0  0  0  0  0  0  0  0  0  0
   19.8681   71.1303   -8.7122 C   0  0  0  0  0  0  0  0  0  0  0  0
   19.0337   70.5330   -9.7748 C   0  0  0  0  0  0  0  0  0  0  0  0
   17.1080   70.0140  -10.1411 H   0  0  0  0  0  0  0  0  0  0  0  0
   21.6162   72.3475   -0.4684 O   0  0  0  0  0  0  0  0  0  0  0  0
   22.3918   71.9597    0.8959 P   0  0  2  0  0  0  0  0  0  0  0  0
   23.9514   72.0899    0.4858 O   0  0  0  0  0  0  0  0  0  0  0  0
   22.0098   70.6228    1.4621 O   0  0  0  0  0  0  0  0  0  0  0  0
   22.1251   73.2063    1.8858 O   0  0  0  0  0  0  0  0  0  0  0  0
   23.3579   75.0127    2.7988 O   0  0  0  0  0  0  0  0  0  0  0  0
   21.6253   73.5792    6.2620 O   0  0  0  0  0  0  0  0  0  0  0  0
   20.6986   76.0510    5.1309 O   0  0  0  0  0  0  0  0  0  0  0  0
   22.5448   71.7289    4.2345 O   0  0  0  0  0  0  0  0  0  0  0  0
   21.6862   73.8886    4.8671 C   0  0  1  0  0  0  0  0  0  0  0  0
   21.8956   75.3969    4.7191 C   0  0  1  0  0  0  0  0  0  0  0  0
   22.8457   73.1203    4.2355 C   0  0  2  0  0  0  0  0  0  0  0  0
   22.2367   75.7694    3.2700 C   0  0  1  0  0  0  0  0  0  0  0  0
   23.1334   73.6016    2.8123 C   0  0  1  0  0  0  0  0  0  0  0  0
   20.8909   74.0634    6.6690 H   0  0  0  0  0  0  0  0  0  0  0  0
   20.4942   75.8070    6.0474 H   0  0  0  0  0  0  0  0  0  0  0  0
   22.3649   71.4365    5.1411 H   0  0  0  0  0  0  0  0  0  0  0  0
   21.4088   78.0002    3.0539 O   0  0  0  0  0  0  0  0  0  0  0  0
   22.6039   77.2451    3.1300 C   0  0  0  0  0  0  0  0  0  0  0  0
   21.6270   78.9416    2.9649 H   0  0  0  0  0  0  0  0  0  0  0  0
 25 28  1  0
 25 24  1  0
 25 26  1  6
 25 27  2  0
  1  4  1  0
  1 24  1  0
  1  2  1  6
  1  3  2  0
  6 11  1  0
  6 12  1  0
 29 36  1  0
 29 37  1  0
  9  7  1  6
  7 13  1  0
 10  8  1  1
  8 14  1  0
 37 28  1  6
  4  5  1  0
 33 30  1  1
 30 38  1  0
 34 31  1  6
 31 39  1  0
 35 32  1  6
 32 40  1  0
 41 42  1  0
 41 43  1  0
 15 19  2  0
 16 22  2  0
 12 17  1  6
 17 19  1  0
 17 20  1  0
 18 19  1  0
 18 22  1  0
 18 23  1  0
  9 10  1  0
  9 11  1  0
 10 12  1  0
 11  5  1  6
 33 34  1  0
 33 35  1  0
 34 36  1  0
 35 37  1  0
 36 42  1  1
 20 21  2  0
 21 22  1  0
M  CHG  2   2  -1  26  -1
M  END
>  <COMPND>  (267) 
    8629 

>  <AUTHOR>  (267) 
    GENERATED BY OPEN BABEL 3.1.1

>  <MASTER>  (267) 
        0    0    0    0    0    0    0    0   58    0   58    0

>  <minimizedAffinity>  (267) 
-6.70905

>  <CNNscore>  (267) 
0.8177595139

>  <CNNaffinity>  (267) 
4.3854498863

>  <CNN_VS>  (267) 
3.5862433910

>  <CNNaffinity_variance>  (267) 
0.0679218620

$$$$
268
     RDKit          3D

 43 45  0  0  0  0  0  0  0  0999 V2000
   22.8978   72.9128   -4.3395 P   0  0  2  0  0  0  0  0  0  0  0  0
   23.1331   74.0108   -5.5042 O   0  0  0  0  0  0  0  0  0  0  0  0
   24.0997   72.0810   -4.0005 O   0  0  0  0  0  0  0  0  0  0  0  0
   21.5937   72.0937   -4.8357 O   0  0  0  0  0  0  0  0  0  0  0  0
   21.0537   71.1005   -3.9815 C   0  0  0  0  0  0  0  0  0  0  0  0
   18.9951   71.9297   -4.9026 O   0  0  0  0  0  0  0  0  0  0  0  0
   17.6514   70.6985   -2.5216 O   0  0  0  0  0  0  0  0  0  0  0  0
   17.1643   68.8736   -4.4886 O   0  0  0  0  0  0  0  0  0  0  0  0
   18.7725   70.2284   -3.2681 C   0  0  1  0  0  0  0  0  0  0  0  0
   18.3207   69.6773   -4.6044 C   0  0  2  0  0  0  0  0  0  0  0  0
   19.5988   71.4383   -3.6859 C   0  0  1  0  0  0  0  0  0  0  0  0
   18.0729   70.9469   -5.4012 C   0  0  2  0  0  0  0  0  0  0  0  0
   17.1087   69.9434   -2.2434 H   0  0  0  0  0  0  0  0  0  0  0  0
   17.3732   68.0785   -3.9737 H   0  0  0  0  0  0  0  0  0  0  0  0
   16.0261   70.6293   -7.3215 O   0  0  0  0  0  0  0  0  0  0  0  0
   19.0646   70.2528  -10.7663 O   0  0  0  0  0  0  0  0  0  0  0  0
   18.3007   70.7645   -6.8070 N   0  0  0  0  0  0  0  0  0  0  0  0
   17.5407   70.4423   -9.0352 N   0  0  0  0  0  0  0  0  0  0  0  0
   17.2034   70.6134   -7.6865 C   0  0  0  0  0  0  0  0  0  0  0  0
   19.6005   70.7372   -7.3006 C   0  0  0  0  0  0  0  0  0  0  0  0
   19.9053   70.5719   -8.5894 C   0  0  0  0  0  0  0  0  0  0  0  0
   18.8169   70.4069   -9.5743 C   0  0  0  0  0  0  0  0  0  0  0  0
   16.7925   70.3347   -9.6664 H   0  0  0  0  0  0  0  0  0  0  0  0
   22.3258   73.7991   -3.1146 O   0  0  0  0  0  0  0  0  0  0  0  0
   23.0888   74.6849   -1.9983 P   0  0  2  0  0  0  0  0  0  0  0  0
   22.3480   76.1200   -2.0934 O   0  0  0  0  0  0  0  0  0  0  0  0
   24.5788   74.7444   -2.1729 O   0  0  0  0  0  0  0  0  0  0  0  0
   22.6048   74.0689   -0.5872 O   0  0  0  0  0  0  0  0  0  0  0  0
   23.6343   73.7269    1.5199 O   0  0  0  0  0  0  0  0  0  0  0  0
   21.6876   70.1051    1.1411 O   0  0  0  0  0  0  0  0  0  0  0  0
   20.7146   72.0483    3.0187 O   0  0  0  0  0  0  0  0  0  0  0  0
   22.9012   71.3416   -1.1780 O   0  0  0  0  0  0  0  0  0  0  0  0
   21.8554   71.5167    0.9847 C   0  0  1  0  0  0  0  0  0  0  0  0
   21.9827   72.1415    2.3755 C   0  0  1  0  0  0  0  0  0  0  0  0
   23.1131   71.7815    0.1592 C   0  0  2  0  0  0  0  0  0  0  0  0
   22.4298   73.6068    2.2857 C   0  0  1  0  0  0  0  0  0  0  0  0
   23.4982   73.2619    0.1756 C   0  0  1  0  0  0  0  0  0  0  0  0
   20.8905   69.9301    1.6639 H   0  0  0  0  0  0  0  0  0  0  0  0
   20.4436   71.1181    3.0685 H   0  0  0  0  0  0  0  0  0  0  0  0
   22.6583   70.4031   -1.1748 H   0  0  0  0  0  0  0  0  0  0  0  0
   21.5195   74.1772    4.4199 O   0  0  0  0  0  0  0  0  0  0  0  0
   22.7152   74.2030    3.6624 C   0  0  0  0  0  0  0  0  0  0  0  0
   21.6861   74.5534    5.2988 H   0  0  0  0  0  0  0  0  0  0  0  0
 25 28  1  0
 25 24  1  0
 25 26  1  1
 25 27  2  0
  1  4  1  0
  1 24  1  0
  1  2  1  6
  1  3  2  0
  6 11  1  0
  6 12  1  0
 29 36  1  0
 29 37  1  0
  9  7  1  1
  7 13  1  0
 10  8  1  1
  8 14  1  0
 37 28  1  1
  4  5  1  0
 33 30  1  1
 30 38  1  0
 34 31  1  6
 31 39  1  0
 35 32  1  6
 32 40  1  0
 41 42  1  0
 41 43  1  0
 15 19  2  0
 16 22  2  0
 12 17  1  6
 17 19  1  0
 17 20  1  0
 18 19  1  0
 18 22  1  0
 18 23  1  0
  9 10  1  0
  9 11  1  0
 10 12  1  0
 11  5  1  6
 33 34  1  0
 33 35  1  0
 34 36  1  0
 35 37  1  0
 36 42  1  1
 20 21  2  0
 21 22  1  0
M  CHG  2   2  -1  26  -1
M  END
>  <COMPND>  (268) 
    8629 

>  <AUTHOR>  (268) 
    GENERATED BY OPEN BABEL 3.1.1

>  <MASTER>  (268) 
        0    0    0    0    0    0    0    0   58    0   58    0

>  <minimizedAffinity>  (268) 
-7.62611

>  <CNNscore>  (268) 
0.8084773421

>  <CNNaffinity>  (268) 
4.6317777634

>  <CNN_VS>  (268) 
3.7446873188

>  <CNNaffinity_variance>  (268) 
0.0406222418

$$$$
269
     RDKit          3D

 43 45  0  0  0  0  0  0  0  0999 V2000
   21.1309   71.8830   -3.2838 P   0  0  2  0  0  0  0  0  0  0  0  0
   21.2059   71.2762   -4.7817 O   0  0  0  0  0  0  0  0  0  0  0  0
   21.7519   71.0255   -2.2207 O   0  0  0  0  0  0  0  0  0  0  0  0
   19.5627   72.2268   -3.0822 O   0  0  0  0  0  0  0  0  0  0  0  0
   18.8635   72.8449   -4.1484 C   0  0  0  0  0  0  0  0  0  0  0  0
   17.0133   72.2346   -5.5548 O   0  0  0  0  0  0  0  0  0  0  0  0
   15.9515   70.7318   -3.1873 O   0  0  0  0  0  0  0  0  0  0  0  0
   17.0539   68.7509   -4.7031 O   0  0  0  0  0  0  0  0  0  0  0  0
   17.3020   70.9093   -3.6116 C   0  0  1  0  0  0  0  0  0  0  0  0
   17.5878   70.0533   -4.8279 C   0  0  2  0  0  0  0  0  0  0  0  0
   17.4352   72.3182   -4.1759 C   0  0  1  0  0  0  0  0  0  0  0  0
   16.9267   70.8524   -5.9380 C   0  0  2  0  0  0  0  0  0  0  0  0
   15.8420   69.8390   -2.8228 H   0  0  0  0  0  0  0  0  0  0  0  0
   17.5068   68.2831   -3.9843 H   0  0  0  0  0  0  0  0  0  0  0  0
   15.5987   70.8154   -8.4306 O   0  0  0  0  0  0  0  0  0  0  0  0
   19.5418   70.1727  -10.7285 O   0  0  0  0  0  0  0  0  0  0  0  0
   17.5818   70.6774   -7.2036 N   0  0  0  0  0  0  0  0  0  0  0  0
   17.5632   70.4956   -9.5728 N   0  0  0  0  0  0  0  0  0  0  0  0
   16.8228   70.6732   -8.3971 C   0  0  0  0  0  0  0  0  0  0  0  0
   18.9617   70.5128   -7.2527 C   0  0  0  0  0  0  0  0  0  0  0  0
   19.6526   70.3433   -8.3819 C   0  0  0  0  0  0  0  0  0  0  0  0
   18.9351   70.3266   -9.6730 C   0  0  0  0  0  0  0  0  0  0  0  0
   17.0555   70.4888  -10.4165 H   0  0  0  0  0  0  0  0  0  0  0  0
   21.8045   73.3431   -3.4491 O   0  0  0  0  0  0  0  0  0  0  0  0
   23.3507   73.7869   -3.6083 P   0  0  2  0  0  0  0  0  0  0  0  0
   24.1650   72.4686   -3.1430 O   0  0  0  0  0  0  0  0  0  0  0  0
   23.7129   75.0356   -2.8577 O   0  0  0  0  0  0  0  0  0  0  0  0
   23.5892   73.8718   -5.2024 O   0  0  0  0  0  0  0  0  0  0  0  0
   22.4276   75.6101   -6.3184 O   0  0  0  0  0  0  0  0  0  0  0  0
   23.4889   73.3210   -9.5872 O   0  0  0  0  0  0  0  0  0  0  0  0
   24.8149   75.8251   -9.1190 O   0  0  0  0  0  0  0  0  0  0  0  0
   22.6880   72.0333   -7.1214 O   0  0  0  0  0  0  0  0  0  0  0  0
   23.6612   73.9005   -8.2910 C   0  0  1  0  0  0  0  0  0  0  0  0
   23.6295   75.4230   -8.4383 C   0  0  1  0  0  0  0  0  0  0  0  0
   22.5329   73.4250   -7.3777 C   0  0  2  0  0  0  0  0  0  0  0  0
   23.5403   76.1102   -7.0691 C   0  0  1  0  0  0  0  0  0  0  0  0
   22.5034   74.2062   -6.0628 C   0  0  1  0  0  0  0  0  0  0  0  0
   24.2024   73.6185  -10.1719 H   0  0  0  0  0  0  0  0  0  0  0  0
   24.8594   75.3837   -9.9818 H   0  0  0  0  0  0  0  0  0  0  0  0
   22.7049   71.5499   -7.9616 H   0  0  0  0  0  0  0  0  0  0  0  0
   21.9636   77.8889   -7.3134 O   0  0  0  0  0  0  0  0  0  0  0  0
   23.3488   77.6198   -7.1983 C   0  0  0  0  0  0  0  0  0  0  0  0
   21.8265   78.8460   -7.3961 H   0  0  0  0  0  0  0  0  0  0  0  0
 25 28  1  0
 25 24  1  0
 25 26  1  1
 25 27  2  0
  1  4  1  0
  1 24  1  0
  1  2  1  6
  1  3  2  0
  6 11  1  0
  6 12  1  0
 29 36  1  0
 29 37  1  0
  9  7  1  6
  7 13  1  0
 10  8  1  1
  8 14  1  0
 37 28  1  6
  4  5  1  0
 33 30  1  6
 30 38  1  0
 34 31  1  1
 31 39  1  0
 35 32  1  1
 32 40  1  0
 41 42  1  0
 41 43  1  0
 15 19  2  0
 16 22  2  0
 12 17  1  6
 17 19  1  0
 17 20  1  0
 18 19  1  0
 18 22  1  0
 18 23  1  0
  9 10  1  0
  9 11  1  0
 10 12  1  0
 11  5  1  6
 33 34  1  0
 33 35  1  0
 34 36  1  0
 35 37  1  0
 36 42  1  6
 20 21  2  0
 21 22  1  0
M  CHG  2   2  -1  26  -1
M  END
>  <COMPND>  (269) 
    8629 

>  <AUTHOR>  (269) 
    GENERATED BY OPEN BABEL 3.1.1

>  <MASTER>  (269) 
        0    0    0    0    0    0    0    0   58    0   58    0

>  <minimizedAffinity>  (269) 
-6.54542

>  <CNNscore>  (269) 
0.7730534077

>  <CNNaffinity>  (269) 
4.6377229691

>  <CNN_VS>  (269) 
3.5852074623

>  <CNNaffinity_variance>  (269) 
0.1747570634

$$$$
270
     RDKit          3D

 43 45  0  0  0  0  0  0  0  0999 V2000
   21.8079   72.4184   -5.5834 P   0  0  2  0  0  0  0  0  0  0  0  0
   21.1312   73.8653   -5.3265 O   0  0  0  0  0  0  0  0  0  0  0  0
   23.0989   72.4492   -6.3475 O   0  0  0  0  0  0  0  0  0  0  0  0
   20.6186   71.5459   -6.2484 O   0  0  0  0  0  0  0  0  0  0  0  0
   20.1475   71.9134   -7.5332 C   0  0  0  0  0  0  0  0  0  0  0  0
   18.8708   69.9220   -7.1111 O   0  0  0  0  0  0  0  0  0  0  0  0
   18.0880   70.0357  -10.0033 O   0  0  0  0  0  0  0  0  0  0  0  0
   15.8904   71.0564   -8.7522 O   0  0  0  0  0  0  0  0  0  0  0  0
   18.2986   71.1052   -9.0829 C   0  0  1  0  0  0  0  0  0  0  0  0
   17.1414   71.1976   -8.1104 C   0  0  2  0  0  0  0  0  0  0  0  0
   19.4529   70.7163   -8.1677 C   0  0  1  0  0  0  0  0  0  0  0  0
   17.4407   70.0548   -7.1551 C   0  0  2  0  0  0  0  0  0  0  0  0
   17.3555   70.2613  -10.5987 H   0  0  0  0  0  0  0  0  0  0  0  0
   15.7464   71.8074   -9.3489 H   0  0  0  0  0  0  0  0  0  0  0  0
   16.2804   68.0995   -5.4792 O   0  0  0  0  0  0  0  0  0  0  0  0
   15.6109   71.1435   -2.0840 O   0  0  0  0  0  0  0  0  0  0  0  0
   16.9548   70.3087   -5.8281 N   0  0  0  0  0  0  0  0  0  0  0  0
   15.9481   69.6167   -3.7899 N   0  0  0  0  0  0  0  0  0  0  0  0
   16.3888   69.2573   -5.0700 C   0  0  0  0  0  0  0  0  0  0  0  0
   17.0425   71.5885   -5.2911 C   0  0  0  0  0  0  0  0  0  0  0  0
   16.6164   71.9151   -4.0692 C   0  0  0  0  0  0  0  0  0  0  0  0
   16.0122   70.8748   -3.2121 C   0  0  0  0  0  0  0  0  0  0  0  0
   15.5498   68.9006   -3.2437 H   0  0  0  0  0  0  0  0  0  0  0  0
   21.9224   71.8010   -4.0939 O   0  0  0  0  0  0  0  0  0  0  0  0
   23.0954   71.9097   -2.9870 P   0  0  2  0  0  0  0  0  0  0  0  0
   23.6384   73.4228   -3.1692 O   0  0  0  0  0  0  0  0  0  0  0  0
   24.1549   70.8528   -3.1074 O   0  0  0  0  0  0  0  0  0  0  0  0
   22.3210   71.9222   -1.5710 O   0  0  0  0  0  0  0  0  0  0  0  0
   24.0035   72.4445    0.0142 O   0  0  0  0  0  0  0  0  0  0  0  0
   20.7577   72.1967    2.5546 O   0  0  0  0  0  0  0  0  0  0  0  0
   21.8917   74.7649    1.9493 O   0  0  0  0  0  0  0  0  0  0  0  0
   21.0038   70.3468    0.3417 O   0  0  0  0  0  0  0  0  0  0  0  0
   21.4353   72.4996    1.3321 C   0  0  1  0  0  0  0  0  0  0  0  0
   22.5264   73.5296    1.6311 C   0  0  1  0  0  0  0  0  0  0  0  0
   22.0458   71.2176    0.7690 C   0  0  2  0  0  0  0  0  0  0  0  0
   23.4662   73.7053    0.4306 C   0  0  1  0  0  0  0  0  0  0  0  0
   23.0019   71.5086   -0.3892 C   0  0  1  0  0  0  0  0  0  0  0  0
   20.3673   73.0065    2.9172 H   0  0  0  0  0  0  0  0  0  0  0  0
   21.3008   74.6401    2.7085 H   0  0  0  0  0  0  0  0  0  0  0  0
   20.4057   70.1701    1.0839 H   0  0  0  0  0  0  0  0  0  0  0  0
   24.2361   75.9569    0.6458 O   0  0  0  0  0  0  0  0  0  0  0  0
   24.6525   74.6087    0.7604 C   0  0  0  0  0  0  0  0  0  0  0  0
   24.9809   76.5435    0.8532 H   0  0  0  0  0  0  0  0  0  0  0  0
 25 28  1  0
 25 24  1  0
 25 26  1  6
 25 27  2  0
  1  4  1  0
  1 24  1  0
  1  2  1  1
  1  3  2  0
  6 11  1  0
  6 12  1  0
 29 36  1  0
 29 37  1  0
  9  7  1  6
  7 13  1  0
 10  8  1  6
  8 14  1  0
 37 28  1  6
  4  5  1  0
 33 30  1  1
 30 38  1  0
 34 31  1  6
 31 39  1  0
 35 32  1  6
 32 40  1  0
 41 42  1  0
 41 43  1  0
 15 19  2  0
 16 22  2  0
 12 17  1  1
 17 19  1  0
 17 20  1  0
 18 19  1  0
 18 22  1  0
 18 23  1  0
  9 10  1  0
  9 11  1  0
 10 12  1  0
 11  5  1  1
 33 34  1  0
 33 35  1  0
 34 36  1  0
 35 37  1  0
 36 42  1  1
 20 21  2  0
 21 22  1  0
M  CHG  2   2  -1  26  -1
M  END
>  <COMPND>  (270) 
    8629 

>  <AUTHOR>  (270) 
    GENERATED BY OPEN BABEL 3.1.1

>  <MASTER>  (270) 
        0    0    0    0    0    0    0    0   58    0   58    0

>  <minimizedAffinity>  (270) 
-8.06519

>  <CNNscore>  (270) 
0.7527662516

>  <CNNaffinity>  (270) 
4.5546679497

>  <CNN_VS>  (270) 
3.4286003113

>  <CNNaffinity_variance>  (270) 
0.2163680047

$$$$
271
     RDKit          3D

 43 45  0  0  0  0  0  0  0  0999 V2000
   22.7256   71.3775   -2.5899 P   0  0  2  0  0  0  0  0  0  0  0  0
   24.1812   70.8978   -3.1082 O   0  0  0  0  0  0  0  0  0  0  0  0
   21.6365   70.3540   -2.7229 O   0  0  0  0  0  0  0  0  0  0  0  0
   22.4767   72.7736   -3.3689 O   0  0  0  0  0  0  0  0  0  0  0  0
   21.2004   73.0133   -3.9358 C   0  0  0  0  0  0  0  0  0  0  0  0
   20.8184   71.8527   -6.0048 O   0  0  0  0  0  0  0  0  0  0  0  0
   21.1011   74.5232   -7.3386 O   0  0  0  0  0  0  0  0  0  0  0  0
   18.3972   74.1748   -7.2729 O   0  0  0  0  0  0  0  0  0  0  0  0
   20.5147   74.2017   -6.0784 C   0  0  1  0  0  0  0  0  0  0  0  0
   19.1704   73.5336   -6.2791 C   0  0  2  0  0  0  0  0  0  0  0  0
   21.3357   73.0822   -5.4508 C   0  0  1  0  0  0  0  0  0  0  0  0
   19.5752   72.1232   -6.6727 C   0  0  2  0  0  0  0  0  0  0  0  0
   20.5940   75.2363   -7.7585 H   0  0  0  0  0  0  0  0  0  0  0  0
   18.1649   75.0684   -6.9756 H   0  0  0  0  0  0  0  0  0  0  0  0
   17.9877   70.6201   -8.4611 O   0  0  0  0  0  0  0  0  0  0  0  0
   15.8909   68.3914   -5.0147 O   0  0  0  0  0  0  0  0  0  0  0  0
   18.6066   71.1429   -6.2700 N   0  0  0  0  0  0  0  0  0  0  0  0
   16.9451   69.5114   -6.7436 N   0  0  0  0  0  0  0  0  0  0  0  0
   17.8607   70.4439   -7.2476 C   0  0  0  0  0  0  0  0  0  0  0  0
   18.4043   70.8828   -4.9190 C   0  0  0  0  0  0  0  0  0  0  0  0
   17.5263   69.9913   -4.4547 C   0  0  0  0  0  0  0  0  0  0  0  0
   16.7069   69.2182   -5.4102 C   0  0  0  0  0  0  0  0  0  0  0  0
   16.4140   69.0128   -7.4062 H   0  0  0  0  0  0  0  0  0  0  0  0
   23.0188   71.8548   -1.0736 O   0  0  0  0  0  0  0  0  0  0  0  0
   22.4884   71.2807    0.3413 P   0  0  2  0  0  0  0  0  0  0  0  0
   23.6647   70.2667    0.7948 O   0  0  0  0  0  0  0  0  0  0  0  0
   21.1236   70.6582    0.2801 O   0  0  0  0  0  0  0  0  0  0  0  0
   22.6099   72.5273    1.3593 O   0  0  0  0  0  0  0  0  0  0  0  0
   24.0063   72.8975    3.2380 O   0  0  0  0  0  0  0  0  0  0  0  0
   20.5139   74.5701    4.6720 O   0  0  0  0  0  0  0  0  0  0  0  0
   22.7018   76.2754    3.9285 O   0  0  0  0  0  0  0  0  0  0  0  0
   20.4091   72.1663    3.0626 O   0  0  0  0  0  0  0  0  0  0  0  0
   21.4841   74.2322    3.6770 C   0  0  1  0  0  0  0  0  0  0  0  0
   22.8197   74.8631    4.0758 C   0  0  1  0  0  0  0  0  0  0  0  0
   21.6098   72.7119    3.5983 C   0  0  2  0  0  0  0  0  0  0  0  0
   23.9661   74.3290    3.2066 C   0  0  1  0  0  0  0  0  0  0  0  0
   22.8098   72.2875    2.7499 C   0  0  1  0  0  0  0  0  0  0  0  0
   20.4289   75.5341    4.7266 H   0  0  0  0  0  0  0  0  0  0  0  0
   21.9742   76.5999    4.4821 H   0  0  0  0  0  0  0  0  0  0  0  0
   19.6569   72.4419    3.6086 H   0  0  0  0  0  0  0  0  0  0  0  0
   26.1926   73.7102    3.8135 O   0  0  0  0  0  0  0  0  0  0  0  0
   25.3279   74.8242    3.6886 C   0  0  0  0  0  0  0  0  0  0  0  0
   27.0634   74.0103    4.1193 H   0  0  0  0  0  0  0  0  0  0  0  0
 25 28  1  0
 25 24  1  0
 25 26  1  1
 25 27  2  0
  1  4  1  0
  1 24  1  0
  1  2  1  6
  1  3  2  0
  6 11  1  0
  6 12  1  0
 29 36  1  0
 29 37  1  0
  9  7  1  6
  7 13  1  0
 10  8  1  6
  8 14  1  0
 37 28  1  6
  4  5  1  0
 33 30  1  1
 30 38  1  0
 34 31  1  6
 31 39  1  0
 35 32  1  6
 32 40  1  0
 41 42  1  0
 41 43  1  0
 15 19  2  0
 16 22  2  0
 12 17  1  1
 17 19  1  0
 17 20  1  0
 18 19  1  0
 18 22  1  0
 18 23  1  0
  9 10  1  0
  9 11  1  0
 10 12  1  0
 11  5  1  1
 33 34  1  0
 33 35  1  0
 34 36  1  0
 35 37  1  0
 36 42  1  1
 20 21  2  0
 21 22  1  0
M  CHG  2   2  -1  26  -1
M  END
>  <COMPND>  (271) 
    8629 

>  <AUTHOR>  (271) 
    GENERATED BY OPEN BABEL 3.1.1

>  <MASTER>  (271) 
        0    0    0    0    0    0    0    0   58    0   58    0

>  <minimizedAffinity>  (271) 
-6.87713

>  <CNNscore>  (271) 
0.7140496969

>  <CNNaffinity>  (271) 
4.2773866653

>  <CNN_VS>  (271) 
3.0542666912

>  <CNNaffinity_variance>  (271) 
0.0812183768

$$$$
272
     RDKit          3D

 43 45  0  0  0  0  0  0  0  0999 V2000
   21.8527   72.4667   -5.5960 P   0  0  2  0  0  0  0  0  0  0  0  0
   21.1801   73.9279   -5.4227 O   0  0  0  0  0  0  0  0  0  0  0  0
   23.1235   72.4446   -6.3936 O   0  0  0  0  0  0  0  0  0  0  0  0
   20.6483   71.5500   -6.1677 O   0  0  0  0  0  0  0  0  0  0  0  0
   20.0043   71.9496   -7.3650 C   0  0  0  0  0  0  0  0  0  0  0  0
   18.7249   69.9567   -6.9581 O   0  0  0  0  0  0  0  0  0  0  0  0
   18.0713   70.0037   -9.8841 O   0  0  0  0  0  0  0  0  0  0  0  0
   15.8124   71.0316   -8.7538 O   0  0  0  0  0  0  0  0  0  0  0  0
   18.2326   71.0938   -8.9781 C   0  0  1  0  0  0  0  0  0  0  0  0
   17.0324   71.1967   -8.0602 C   0  0  2  0  0  0  0  0  0  0  0  0
   19.3478   70.7337   -8.0044 C   0  0  1  0  0  0  0  0  0  0  0  0
   17.2972   70.0765   -7.0685 C   0  0  2  0  0  0  0  0  0  0  0  0
   17.3644   70.2106  -10.5161 H   0  0  0  0  0  0  0  0  0  0  0  0
   15.6896   71.7688   -9.3721 H   0  0  0  0  0  0  0  0  0  0  0  0
   16.4838   68.0984   -5.2237 O   0  0  0  0  0  0  0  0  0  0  0  0
   15.2137   71.2574   -2.1174 O   0  0  0  0  0  0  0  0  0  0  0  0
   16.7508   70.3539   -5.7701 N   0  0  0  0  0  0  0  0  0  0  0  0
   15.8522   69.6730   -3.6785 N   0  0  0  0  0  0  0  0  0  0  0  0
   16.3727   69.2882   -4.9206 C   0  0  0  0  0  0  0  0  0  0  0  0
   16.5949   71.6706   -5.3508 C   0  0  0  0  0  0  0  0  0  0  0  0
   16.0957   72.0208   -4.1636 C   0  0  0  0  0  0  0  0  0  0  0  0
   15.6764   70.9677   -3.2164 C   0  0  0  0  0  0  0  0  0  0  0  0
   15.5816   68.9474   -3.0701 H   0  0  0  0  0  0  0  0  0  0  0  0
   22.0068   71.9542   -4.0707 O   0  0  0  0  0  0  0  0  0  0  0  0
   23.2532   72.0348   -3.0445 P   0  0  2  0  0  0  0  0  0  0  0  0
   23.9085   73.4779   -3.3693 O   0  0  0  0  0  0  0  0  0  0  0  0
   24.2103   70.8827   -3.1473 O   0  0  0  0  0  0  0  0  0  0  0  0
   22.5747   72.2130   -1.5910 O   0  0  0  0  0  0  0  0  0  0  0  0
   23.4913   70.6520   -0.0614 O   0  0  0  0  0  0  0  0  0  0  0  0
   20.4682   72.1877    2.2952 O   0  0  0  0  0  0  0  0  0  0  0  0
   23.1976   72.8786    2.8618 O   0  0  0  0  0  0  0  0  0  0  0  0
   20.0171   71.7542   -0.5311 O   0  0  0  0  0  0  0  0  0  0  0  0
   21.4997   72.2334    1.3056 C   0  0  1  0  0  0  0  0  0  0  0  0
   22.8191   71.8343    1.9694 C   0  0  1  0  0  0  0  0  0  0  0  0
   21.1514   71.2653    0.1765 C   0  0  2  0  0  0  0  0  0  0  0  0
   23.9173   71.6012    0.9231 C   0  0  1  0  0  0  0  0  0  0  0  0
   22.3283   71.0669   -0.7805 C   0  0  1  0  0  0  0  0  0  0  0  0
   20.6830   72.8006    3.0148 H   0  0  0  0  0  0  0  0  0  0  0  0
   22.4954   73.0160    3.5170 H   0  0  0  0  0  0  0  0  0  0  0  0
   19.2790   71.8753    0.0856 H   0  0  0  0  0  0  0  0  0  0  0  0
   24.8418   70.2276    2.6458 O   0  0  0  0  0  0  0  0  0  0  0  0
   25.1965   71.0504    1.5497 C   0  0  0  0  0  0  0  0  0  0  0  0
   25.6461   69.8697    3.0542 H   0  0  0  0  0  0  0  0  0  0  0  0
 25 28  1  0
 25 24  1  0
 25 26  1  6
 25 27  2  0
  1  4  1  0
  1 24  1  0
  1  2  1  1
  1  3  2  0
  6 11  1  0
  6 12  1  0
 29 36  1  0
 29 37  1  0
  9  7  1  6
  7 13  1  0
 10  8  1  6
  8 14  1  0
 37 28  1  1
  4  5  1  0
 33 30  1  1
 30 38  1  0
 34 31  1  1
 31 39  1  0
 35 32  1  6
 32 40  1  0
 41 42  1  0
 41 43  1  0
 15 19  2  0
 16 22  2  0
 12 17  1  1
 17 19  1  0
 17 20  1  0
 18 19  1  0
 18 22  1  0
 18 23  1  0
  9 10  1  0
  9 11  1  0
 10 12  1  0
 11  5  1  1
 33 34  1  0
 33 35  1  0
 34 36  1  0
 35 37  1  0
 36 42  1  1
 20 21  2  0
 21 22  1  0
M  CHG  2   2  -1  26  -1
M  END
>  <COMPND>  (272) 
    8629 

>  <AUTHOR>  (272) 
    GENERATED BY OPEN BABEL 3.1.1

>  <MASTER>  (272) 
        0    0    0    0    0    0    0    0   58    0   58    0

>  <minimizedAffinity>  (272) 
-8.37530

>  <CNNscore>  (272) 
0.6849917173

>  <CNNaffinity>  (272) 
4.4450302124

>  <CNN_VS>  (272) 
3.0448088646

>  <CNNaffinity_variance>  (272) 
0.3048908114

$$$$
273
     RDKit          3D

 43 45  0  0  0  0  0  0  0  0999 V2000
   19.4464   71.9775   -1.6328 P   0  0  2  0  0  0  0  0  0  0  0  0
   19.3891   70.3643   -1.5244 O   0  0  0  0  0  0  0  0  0  0  0  0
   18.1816   72.6842   -1.2424 O   0  0  0  0  0  0  0  0  0  0  0  0
   19.9651   72.2473   -3.1414 O   0  0  0  0  0  0  0  0  0  0  0  0
   20.6604   73.4519   -3.4120 C   0  0  0  0  0  0  0  0  0  0  0  0
   21.4055   72.0199   -5.1919 O   0  0  0  0  0  0  0  0  0  0  0  0
   23.3638   74.1884   -5.8652 O   0  0  0  0  0  0  0  0  0  0  0  0
   21.4004   74.5637   -7.7201 O   0  0  0  0  0  0  0  0  0  0  0  0
   22.0248   74.2991   -5.3853 C   0  0  1  0  0  0  0  0  0  0  0  0
   21.0417   73.9696   -6.4892 C   0  0  2  0  0  0  0  0  0  0  0  0
   21.7853   73.1645   -4.3970 C   0  0  1  0  0  0  0  0  0  0  0  0
   21.1107   72.4525   -6.5301 C   0  0  2  0  0  0  0  0  0  0  0  0
   23.5404   74.9028   -6.4979 H   0  0  0  0  0  0  0  0  0  0  0  0
   21.3407   75.5287   -7.6431 H   0  0  0  0  0  0  0  0  0  0  0  0
   20.8882   69.9057   -7.7311 O   0  0  0  0  0  0  0  0  0  0  0  0
   16.3094   70.2782   -8.1015 O   0  0  0  0  0  0  0  0  0  0  0  0
   19.8726   71.8591   -6.9500 N   0  0  0  0  0  0  0  0  0  0  0  0
   18.6085   70.0932   -7.9144 N   0  0  0  0  0  0  0  0  0  0  0  0
   19.8703   70.5753   -7.5436 C   0  0  0  0  0  0  0  0  0  0  0  0
   18.6781   72.5484   -6.7716 C   0  0  0  0  0  0  0  0  0  0  0  0
   17.4833   72.0753   -7.1319 C   0  0  0  0  0  0  0  0  0  0  0  0
   17.3932   70.7409   -7.7591 C   0  0  0  0  0  0  0  0  0  0  0  0
   18.5824   69.2009   -8.3302 H   0  0  0  0  0  0  0  0  0  0  0  0
   20.7343   72.3567   -0.7325 O   0  0  0  0  0  0  0  0  0  0  0  0
   21.8035   71.4209    0.0382 P   0  0  2  0  0  0  0  0  0  0  0  0
   22.8951   71.0838   -1.1073 O   0  0  0  0  0  0  0  0  0  0  0  0
   21.2023   70.2124    0.6955 O   0  0  0  0  0  0  0  0  0  0  0  0
   22.5681   72.4209    1.0484 O   0  0  0  0  0  0  0  0  0  0  0  0
   24.3241   72.3005    2.6354 O   0  0  0  0  0  0  0  0  0  0  0  0
   21.4988   74.2574    4.9244 O   0  0  0  0  0  0  0  0  0  0  0  0
   23.7822   75.7015    3.9503 O   0  0  0  0  0  0  0  0  0  0  0  0
   20.6827   72.1548    3.1099 O   0  0  0  0  0  0  0  0  0  0  0  0
   22.1982   73.9239    3.7224 C   0  0  1  0  0  0  0  0  0  0  0  0
   23.6738   74.2813    3.9112 C   0  0  1  0  0  0  0  0  0  0  0  0
   22.0376   72.4295    3.4497 C   0  0  2  0  0  0  0  0  0  0  0  0
   24.5318   73.7110    2.7737 C   0  0  1  0  0  0  0  0  0  0  0  0
   22.9706   71.9554    2.3340 C   0  0  1  0  0  0  0  0  0  0  0  0
   21.5965   75.2051    5.1031 H   0  0  0  0  0  0  0  0  0  0  0  0
   23.2354   76.0489    4.6725 H   0  0  0  0  0  0  0  0  0  0  0  0
   20.1023   72.4593    3.8242 H   0  0  0  0  0  0  0  0  0  0  0  0
   26.3591   75.2462    2.6591 O   0  0  0  0  0  0  0  0  0  0  0  0
   26.0240   73.9198    3.0230 C   0  0  0  0  0  0  0  0  0  0  0  0
   27.3059   75.3936    2.8127 H   0  0  0  0  0  0  0  0  0  0  0  0
 25 28  1  0
 25 24  1  0
 25 26  1  6
 25 27  2  0
  1  4  1  0
  1 24  1  0
  1  2  1  6
  1  3  2  0
  6 11  1  0
  6 12  1  0
 29 36  1  0
 29 37  1  0
  9  7  1  6
  7 13  1  0
 10  8  1  6
  8 14  1  0
 37 28  1  6
  4  5  1  0
 33 30  1  1
 30 38  1  0
 34 31  1  6
 31 39  1  0
 35 32  1  6
 32 40  1  0
 41 42  1  0
 41 43  1  0
 15 19  2  0
 16 22  2  0
 12 17  1  1
 17 19  1  0
 17 20  1  0
 18 19  1  0
 18 22  1  0
 18 23  1  0
  9 10  1  0
  9 11  1  0
 10 12  1  0
 11  5  1  1
 33 34  1  0
 33 35  1  0
 34 36  1  0
 35 37  1  0
 36 42  1  1
 20 21  2  0
 21 22  1  0
M  CHG  2   2  -1  26  -1
M  END
>  <COMPND>  (273) 
    8629 

>  <AUTHOR>  (273) 
    GENERATED BY OPEN BABEL 3.1.1

>  <MASTER>  (273) 
        0    0    0    0    0    0    0    0   58    0   58    0

>  <minimizedAffinity>  (273) 
-6.81771

>  <CNNscore>  (273) 
0.5924696326

>  <CNNaffinity>  (273) 
4.2830872536

>  <CNN_VS>  (273) 
2.5375990868

>  <CNNaffinity_variance>  (273) 
0.0326438285

$$$$
274
     RDKit          3D

 43 45  0  0  0  0  0  0  0  0999 V2000
   23.0437   73.6168   -4.5690 P   0  0  2  0  0  0  0  0  0  0  0  0
   24.3788   74.5304   -4.5564 O   0  0  0  0  0  0  0  0  0  0  0  0
   23.0479   72.5021   -5.5734 O   0  0  0  0  0  0  0  0  0  0  0  0
   21.8407   74.6890   -4.7144 O   0  0  0  0  0  0  0  0  0  0  0  0
   20.8283   74.4432   -5.6748 C   0  0  0  0  0  0  0  0  0  0  0  0
   18.4950   73.9304   -5.9328 O   0  0  0  0  0  0  0  0  0  0  0  0
   18.4265   73.6158   -2.9517 O   0  0  0  0  0  0  0  0  0  0  0  0
   18.5324   71.0328   -3.8197 O   0  0  0  0  0  0  0  0  0  0  0  0
   19.4639   73.2780   -3.8709 C   0  0  1  0  0  0  0  0  0  0  0  0
   19.0933   72.0315   -4.6472 C   0  0  2  0  0  0  0  0  0  0  0  0
   19.4857   74.3389   -4.9643 C   0  0  1  0  0  0  0  0  0  0  0  0
   18.1016   72.5752   -5.6616 C   0  0  2  0  0  0  0  0  0  0  0  0
   18.3934   72.9526   -2.2439 H   0  0  0  0  0  0  0  0  0  0  0  0
   19.2021   70.7190   -3.1921 H   0  0  0  0  0  0  0  0  0  0  0  0
   15.7858   71.8513   -7.1075 O   0  0  0  0  0  0  0  0  0  0  0  0
   18.2603   69.7224  -10.3611 O   0  0  0  0  0  0  0  0  0  0  0  0
   18.1116   71.8321   -6.8900 N   0  0  0  0  0  0  0  0  0  0  0  0
   17.0198   70.7920   -8.7265 N   0  0  0  0  0  0  0  0  0  0  0  0
   16.8929   71.5193   -7.5361 C   0  0  0  0  0  0  0  0  0  0  0  0
   19.3203   71.4217   -7.4418 C   0  0  0  0  0  0  0  0  0  0  0  0
   19.4241   70.7276   -8.5770 C   0  0  0  0  0  0  0  0  0  0  0  0
   18.1981   70.3602   -9.3145 C   0  0  0  0  0  0  0  0  0  0  0  0
   16.1840   70.5624   -9.1939 H   0  0  0  0  0  0  0  0  0  0  0  0
   22.9178   73.1359   -3.0308 O   0  0  0  0  0  0  0  0  0  0  0  0
   22.8985   71.6567   -2.3793 P   0  0  2  0  0  0  0  0  0  0  0  0
   24.2466   70.9774   -2.9612 O   0  0  0  0  0  0  0  0  0  0  0  0
   21.6443   70.8791   -2.6553 O   0  0  0  0  0  0  0  0  0  0  0  0
   23.2060   71.8962   -0.8130 O   0  0  0  0  0  0  0  0  0  0  0  0
   24.3694   70.6561    0.8378 O   0  0  0  0  0  0  0  0  0  0  0  0
   21.1011   71.8271    3.0734 O   0  0  0  0  0  0  0  0  0  0  0  0
   23.6604   73.0343    3.5637 O   0  0  0  0  0  0  0  0  0  0  0  0
   20.7597   71.0841    0.2966 O   0  0  0  0  0  0  0  0  0  0  0  0
   22.1175   71.9706    2.0776 C   0  0  1  0  0  0  0  0  0  0  0  0
   23.4804   71.8681    2.7651 C   0  0  1  0  0  0  0  0  0  0  0  0
   21.9559   70.8645    1.0365 C   0  0  2  0  0  0  0  0  0  0  0  0
   24.6122   71.7452    1.7360 C   0  0  1  0  0  0  0  0  0  0  0  0
   23.1581   70.7970    0.0929 C   0  0  1  0  0  0  0  0  0  0  0  0
   21.1977   72.5267    3.7373 H   0  0  0  0  0  0  0  0  0  0  0  0
   22.9390   73.1003    4.2090 H   0  0  0  0  0  0  0  0  0  0  0  0
   20.0061   71.1245    0.9051 H   0  0  0  0  0  0  0  0  0  0  0  0
   26.3878   72.6738    3.0373 O   0  0  0  0  0  0  0  0  0  0  0  0
   25.9625   71.4837    2.3994 C   0  0  0  0  0  0  0  0  0  0  0  0
   27.2460   72.5222    3.4642 H   0  0  0  0  0  0  0  0  0  0  0  0
 25 28  1  0
 25 24  1  0
 25 26  1  6
 25 27  2  0
  1  4  1  0
  1 24  1  0
  1  2  1  1
  1  3  2  0
  6 11  1  0
  6 12  1  0
 29 36  1  0
 29 37  1  0
  9  7  1  1
  7 13  1  0
 10  8  1  1
  8 14  1  0
 37 28  1  1
  4  5  1  0
 33 30  1  1
 30 38  1  0
 34 31  1  6
 31 39  1  0
 35 32  1  6
 32 40  1  0
 41 42  1  0
 41 43  1  0
 15 19  2  0
 16 22  2  0
 12 17  1  6
 17 19  1  0
 17 20  1  0
 18 19  1  0
 18 22  1  0
 18 23  1  0
  9 10  1  0
  9 11  1  0
 10 12  1  0
 11  5  1  6
 33 34  1  0
 33 35  1  0
 34 36  1  0
 35 37  1  0
 36 42  1  1
 20 21  2  0
 21 22  1  0
M  CHG  2   2  -1  26  -1
M  END
>  <COMPND>  (274) 
    8629 

>  <AUTHOR>  (274) 
    GENERATED BY OPEN BABEL 3.1.1

>  <MASTER>  (274) 
        0    0    0    0    0    0    0    0   58    0   58    0

>  <minimizedAffinity>  (274) 
-7.35994

>  <CNNscore>  (274) 
0.5730516911

>  <CNNaffinity>  (274) 
4.3039751053

>  <CNN_VS>  (274) 
2.4664001465

>  <CNNaffinity_variance>  (274) 
0.0437283143

$$$$
275
     RDKit          3D

 43 45  0  0  0  0  0  0  0  0999 V2000
   19.9335   73.1371   -3.4175 P   0  0  2  0  0  0  0  0  0  0  0  0
   18.6534   74.0311   -3.8411 O   0  0  0  0  0  0  0  0  0  0  0  0
   19.6549   71.6728   -3.2452 O   0  0  0  0  0  0  0  0  0  0  0  0
   20.5252   73.8975   -2.1176 O   0  0  0  0  0  0  0  0  0  0  0  0
   20.8331   73.1297   -0.9671 C   0  0  0  0  0  0  0  0  0  0  0  0
   22.9156   73.4677    0.1830 O   0  0  0  0  0  0  0  0  0  0  0  0
   23.9280   71.0926   -1.3418 O   0  0  0  0  0  0  0  0  0  0  0  0
   23.3716   70.0328    1.1085 O   0  0  0  0  0  0  0  0  0  0  0  0
   22.6278   71.3336   -0.8062 C   0  0  1  0  0  0  0  0  0  0  0  0
   22.6409   71.1710    0.6994 C   0  0  2  0  0  0  0  0  0  0  0  0
   22.3234   72.8182   -0.9632 C   0  0  1  0  0  0  0  0  0  0  0  0
   23.2834   72.4715    1.1512 C   0  0  2  0  0  0  0  0  0  0  0  0
   24.1446   70.1507   -1.2531 H   0  0  0  0  0  0  0  0  0  0  0  0
   22.9228   69.2313    0.7972 H   0  0  0  0  0  0  0  0  0  0  0  0
   20.6958   71.9679    2.1654 O   0  0  0  0  0  0  0  0  0  0  0  0
   21.6331   74.1186    6.1325 O   0  0  0  0  0  0  0  0  0  0  0  0
   22.8245   72.8882    2.4463 N   0  0  0  0  0  0  0  0  0  0  0  0
   21.1647   73.0390    4.1400 N   0  0  0  0  0  0  0  0  0  0  0  0
   21.5061   72.5857    2.8594 C   0  0  0  0  0  0  0  0  0  0  0  0
   23.6783   73.5882    3.2918 C   0  0  0  0  0  0  0  0  0  0  0  0
   23.3369   74.0146    4.5096 C   0  0  0  0  0  0  0  0  0  0  0  0
   21.9773   73.7397    5.0172 C   0  0  0  0  0  0  0  0  0  0  0  0
   20.2510   72.8401    4.4489 H   0  0  0  0  0  0  0  0  0  0  0  0
   21.0162   73.4853   -4.5662 O   0  0  0  0  0  0  0  0  0  0  0  0
   20.9412   73.3409   -6.1745 P   0  0  2  0  0  0  0  0  0  0  0  0
   22.1716   72.3473   -6.5156 O   0  0  0  0  0  0  0  0  0  0  0  0
   20.9779   74.6480   -6.9121 O   0  0  0  0  0  0  0  0  0  0  0  0
   19.6174   72.4578   -6.4440 O   0  0  0  0  0  0  0  0  0  0  0  0
   18.8542   70.2742   -5.9278 O   0  0  0  0  0  0  0  0  0  0  0  0
   17.9498   70.3542   -9.9560 O   0  0  0  0  0  0  0  0  0  0  0  0
   15.8304   70.5031   -8.0237 O   0  0  0  0  0  0  0  0  0  0  0  0
   20.3872   71.5880   -8.9986 O   0  0  0  0  0  0  0  0  0  0  0  0
   18.1054   70.9028   -8.6444 C   0  0  1  0  0  0  0  0  0  0  0  0
   17.1711   70.1494   -7.6956 C   0  0  1  0  0  0  0  0  0  0  0  0
   19.5599   70.7431   -8.2059 C   0  0  2  0  0  0  0  0  0  0  0  0
   17.4720   70.4958   -6.2311 C   0  0  1  0  0  0  0  0  0  0  0  0
   19.7409   71.0653   -6.7215 C   0  0  1  0  0  0  0  0  0  0  0  0
   17.0285   70.4528  -10.2406 H   0  0  0  0  0  0  0  0  0  0  0  0
   15.6535   70.2797   -8.9511 H   0  0  0  0  0  0  0  0  0  0  0  0
   20.2637   71.3740   -9.9360 H   0  0  0  0  0  0  0  0  0  0  0  0
   15.9200   68.6924   -6.0113 O   0  0  0  0  0  0  0  0  0  0  0  0
   16.6598   69.6390   -5.2624 C   0  0  0  0  0  0  0  0  0  0  0  0
   15.3985   68.1398   -5.4077 H   0  0  0  0  0  0  0  0  0  0  0  0
 25 28  1  0
 25 24  1  0
 25 26  1  6
 25 27  2  0
  1  4  1  0
  1 24  1  0
  1  2  1  6
  1  3  2  0
  6 11  1  0
  6 12  1  0
 29 36  1  0
 29 37  1  0
  9  7  1  1
  7 13  1  0
 10  8  1  6
  8 14  1  0
 37 28  1  6
  4  5  1  0
 33 30  1  6
 30 38  1  0
 34 31  1  6
 31 39  1  0
 35 32  1  6
 32 40  1  0
 41 42  1  0
 41 43  1  0
 15 19  2  0
 16 22  2  0
 12 17  1  1
 17 19  1  0
 17 20  1  0
 18 19  1  0
 18 22  1  0
 18 23  1  0
  9 10  1  0
  9 11  1  0
 10 12  1  0
 11  5  1  1
 33 34  1  0
 33 35  1  0
 34 36  1  0
 35 37  1  0
 36 42  1  1
 20 21  2  0
 21 22  1  0
M  CHG  2   2  -1  26  -1
M  END
>  <COMPND>  (275) 
    8629 

>  <AUTHOR>  (275) 
    GENERATED BY OPEN BABEL 3.1.1

>  <MASTER>  (275) 
        0    0    0    0    0    0    0    0   58    0   58    0

>  <minimizedAffinity>  (275) 
-7.18675

>  <CNNscore>  (275) 
0.5590158105

>  <CNNaffinity>  (275) 
4.1953368187

>  <CNN_VS>  (275) 
2.3452596664

>  <CNNaffinity_variance>  (275) 
0.0778166503

$$$$
276
     RDKit          3D

 43 45  0  0  0  0  0  0  0  0999 V2000
   21.1479   73.7885   -3.3400 P   0  0  2  0  0  0  0  0  0  0  0  0
   19.8480   73.3484   -2.4832 O   0  0  0  0  0  0  0  0  0  0  0  0
   21.8719   74.9949   -2.8187 O   0  0  0  0  0  0  0  0  0  0  0  0
   20.5937   73.9021   -4.8559 O   0  0  0  0  0  0  0  0  0  0  0  0
   19.3544   74.5529   -5.0756 C   0  0  0  0  0  0  0  0  0  0  0  0
   18.9800   72.7571   -6.6277 O   0  0  0  0  0  0  0  0  0  0  0  0
   17.1158   74.6253   -8.0509 O   0  0  0  0  0  0  0  0  0  0  0  0
   15.4046   73.0383   -6.6403 O   0  0  0  0  0  0  0  0  0  0  0  0
   17.3585   74.4851   -6.6521 C   0  0  1  0  0  0  0  0  0  0  0  0
   16.7096   73.2202   -6.1300 C   0  0  2  0  0  0  0  0  0  0  0  0
   18.8400   74.1850   -6.4606 C   0  0  1  0  0  0  0  0  0  0  0  0
   17.6777   72.1502   -6.6053 C   0  0  2  0  0  0  0  0  0  0  0  0
   16.1760   74.8178   -8.1981 H   0  0  0  0  0  0  0  0  0  0  0  0
   14.8267   73.7435   -6.3095 H   0  0  0  0  0  0  0  0  0  0  0  0
   16.0366   69.8697   -6.8953 O   0  0  0  0  0  0  0  0  0  0  0  0
   17.8821   67.8446   -3.1892 O   0  0  0  0  0  0  0  0  0  0  0  0
   17.7087   71.0120   -5.7306 N   0  0  0  0  0  0  0  0  0  0  0  0
   16.9570   68.8631   -5.0498 N   0  0  0  0  0  0  0  0  0  0  0  0
   16.8422   69.9186   -5.9634 C   0  0  0  0  0  0  0  0  0  0  0  0
   18.5914   70.9875   -4.6563 C   0  0  0  0  0  0  0  0  0  0  0  0
   18.6876   69.9739   -3.7935 C   0  0  0  0  0  0  0  0  0  0  0  0
   17.8176   68.7926   -3.9658 C   0  0  0  0  0  0  0  0  0  0  0  0
   16.3629   68.0907   -5.1919 H   0  0  0  0  0  0  0  0  0  0  0  0
   22.0334   72.4366   -3.3773 O   0  0  0  0  0  0  0  0  0  0  0  0
   23.5102   72.1187   -2.8020 P   0  0  2  0  0  0  0  0  0  0  0  0
   24.3696   73.4141   -3.2499 O   0  0  0  0  0  0  0  0  0  0  0  0
   24.0805   70.8081   -3.2613 O   0  0  0  0  0  0  0  0  0  0  0  0
   23.3641   72.2602   -1.2009 O   0  0  0  0  0  0  0  0  0  0  0  0
   24.2887   70.8900    0.4975 O   0  0  0  0  0  0  0  0  0  0  0  0
   20.7235   71.8906    2.3249 O   0  0  0  0  0  0  0  0  0  0  0  0
   23.1758   73.0475    3.2715 O   0  0  0  0  0  0  0  0  0  0  0  0
   20.7907   71.3703   -0.5219 O   0  0  0  0  0  0  0  0  0  0  0  0
   21.8712   72.1092    1.5000 C   0  0  1  0  0  0  0  0  0  0  0  0
   23.1220   71.9485    2.3661 C   0  0  1  0  0  0  0  0  0  0  0  0
   21.8700   71.0894    0.3627 C   0  0  2  0  0  0  0  0  0  0  0  0
   24.3908   71.9039    1.5040 C   0  0  1  0  0  0  0  0  0  0  0  0
   23.1958   71.0930   -0.4005 C   0  0  1  0  0  0  0  0  0  0  0  0
   20.7180   72.5352    3.0487 H   0  0  0  0  0  0  0  0  0  0  0  0
   22.3686   73.0645    3.8095 H   0  0  0  0  0  0  0  0  0  0  0  0
   19.9572   71.3648   -0.0268 H   0  0  0  0  0  0  0  0  0  0  0  0
   26.0947   72.7852    2.9285 O   0  0  0  0  0  0  0  0  0  0  0  0
   25.6341   71.5867    2.3321 C   0  0  0  0  0  0  0  0  0  0  0  0
   26.8855   72.5986    3.4590 H   0  0  0  0  0  0  0  0  0  0  0  0
 25 28  1  0
 25 24  1  0
 25 26  1  6
 25 27  2  0
  1  4  1  0
  1 24  1  0
  1  2  1  1
  1  3  2  0
  6 11  1  0
  6 12  1  0
 29 36  1  0
 29 37  1  0
  9  7  1  6
  7 13  1  0
 10  8  1  6
  8 14  1  0
 37 28  1  1
  4  5  1  0
 33 30  1  1
 30 38  1  0
 34 31  1  1
 31 39  1  0
 35 32  1  6
 32 40  1  0
 41 42  1  0
 41 43  1  0
 15 19  2  0
 16 22  2  0
 12 17  1  1
 17 19  1  0
 17 20  1  0
 18 19  1  0
 18 22  1  0
 18 23  1  0
  9 10  1  0
  9 11  1  0
 10 12  1  0
 11  5  1  1
 33 34  1  0
 33 35  1  0
 34 36  1  0
 35 37  1  0
 36 42  1  1
 20 21  2  0
 21 22  1  0
M  CHG  2   2  -1  26  -1
M  END
>  <COMPND>  (276) 
    8629 

>  <AUTHOR>  (276) 
    GENERATED BY OPEN BABEL 3.1.1

>  <MASTER>  (276) 
        0    0    0    0    0    0    0    0   58    0   58    0

>  <minimizedAffinity>  (276) 
-6.23834

>  <CNNscore>  (276) 
0.5468049049

>  <CNNaffinity>  (276) 
4.1953344345

>  <CNN_VS>  (276) 
2.2940294743

>  <CNNaffinity_variance>  (276) 
0.2303810865

$$$$
277
     RDKit          3D

 43 45  0  0  0  0  0  0  0  0999 V2000
   21.3681   72.3582   -5.4051 P   0  0  2  0  0  0  0  0  0  0  0  0
   20.8345   73.7908   -5.9346 O   0  0  0  0  0  0  0  0  0  0  0  0
   22.8107   72.3320   -4.9932 O   0  0  0  0  0  0  0  0  0  0  0  0
   20.9552   71.3300   -6.5841 O   0  0  0  0  0  0  0  0  0  0  0  0
   20.1083   71.7948   -7.6207 C   0  0  0  0  0  0  0  0  0  0  0  0
   18.7628   69.8572   -7.1637 O   0  0  0  0  0  0  0  0  0  0  0  0
   18.0010   69.9335  -10.0627 O   0  0  0  0  0  0  0  0  0  0  0  0
   15.8319   71.0547   -8.8485 O   0  0  0  0  0  0  0  0  0  0  0  0
   18.2422   71.0153   -9.1645 C   0  0  1  0  0  0  0  0  0  0  0  0
   17.0832   71.1679   -8.2018 C   0  0  2  0  0  0  0  0  0  0  0  0
   19.3775   70.6080   -8.2336 C   0  0  1  0  0  0  0  0  0  0  0  0
   17.3382   70.0369   -7.2199 C   0  0  2  0  0  0  0  0  0  0  0  0
   17.2799   70.1704  -10.6677 H   0  0  0  0  0  0  0  0  0  0  0  0
   15.7167   71.7968   -9.4623 H   0  0  0  0  0  0  0  0  0  0  0  0
   16.3874   68.1046   -5.3924 O   0  0  0  0  0  0  0  0  0  0  0  0
   15.5022   71.3004   -2.1918 O   0  0  0  0  0  0  0  0  0  0  0  0
   16.8536   70.3362   -5.9020 N   0  0  0  0  0  0  0  0  0  0  0  0
   15.9476   69.6974   -3.8002 N   0  0  0  0  0  0  0  0  0  0  0  0
   16.3976   69.2925   -5.0633 C   0  0  0  0  0  0  0  0  0  0  0  0
   16.8342   71.6522   -5.4530 C   0  0  0  0  0  0  0  0  0  0  0  0
   16.4007   72.0218   -4.2460 C   0  0  0  0  0  0  0  0  0  0  0  0
   15.9073   70.9925   -3.3084 C   0  0  0  0  0  0  0  0  0  0  0  0
   15.6248   68.9875   -3.1989 H   0  0  0  0  0  0  0  0  0  0  0  0
   20.3248   71.9955   -4.2248 O   0  0  0  0  0  0  0  0  0  0  0  0
   20.3721   70.8557   -3.0795 P   0  0  2  0  0  0  0  0  0  0  0  0
   21.4374   69.7871   -3.6631 O   0  0  0  0  0  0  0  0  0  0  0  0
   19.0323   70.2709   -2.7378 O   0  0  0  0  0  0  0  0  0  0  0  0
   21.1330   71.5542   -1.8393 O   0  0  0  0  0  0  0  0  0  0  0  0
   21.6736   70.5284    0.2276 O   0  0  0  0  0  0  0  0  0  0  0  0
   21.1797   74.4158    1.5296 O   0  0  0  0  0  0  0  0  0  0  0  0
   23.8189   73.2919    1.3894 O   0  0  0  0  0  0  0  0  0  0  0  0
   19.4274   73.3422   -0.5091 O   0  0  0  0  0  0  0  0  0  0  0  0
   21.5594   73.3878    0.6107 C   0  0  1  0  0  0  0  0  0  0  0  0
   22.6273   72.5186    1.2778 C   0  0  1  0  0  0  0  0  0  0  0  0
   20.3293   72.5531    0.2593 C   0  0  2  0  0  0  0  0  0  0  0  0
   22.8915   71.2441    0.4649 C   0  0  1  0  0  0  0  0  0  0  0  0
   20.7078   71.2838   -0.5061 C   0  0  1  0  0  0  0  0  0  0  0  0
   21.9562   74.9497    1.7564 H   0  0  0  0  0  0  0  0  0  0  0  0
   23.6383   74.0939    1.9044 H   0  0  0  0  0  0  0  0  0  0  0  0
   19.1953   74.1425   -0.0136 H   0  0  0  0  0  0  0  0  0  0  0  0
   25.1630   70.7516    1.0183 O   0  0  0  0  0  0  0  0  0  0  0  0
   23.8363   70.2886    1.1904 C   0  0  0  0  0  0  0  0  0  0  0  0
   25.7755   70.1532    1.4751 H   0  0  0  0  0  0  0  0  0  0  0  0
 25 28  1  0
 25 24  1  0
 25 26  1  6
 25 27  2  0
  1  4  1  0
  1 24  1  0
  1  2  1  6
  1  3  2  0
  6 11  1  0
  6 12  1  0
 29 36  1  0
 29 37  1  0
  9  7  1  6
  7 13  1  0
 10  8  1  6
  8 14  1  0
 37 28  1  6
  4  5  1  0
 33 30  1  1
 30 38  1  0
 34 31  1  6
 31 39  1  0
 35 32  1  6
 32 40  1  0
 41 42  1  0
 41 43  1  0
 15 19  2  0
 16 22  2  0
 12 17  1  1
 17 19  1  0
 17 20  1  0
 18 19  1  0
 18 22  1  0
 18 23  1  0
  9 10  1  0
  9 11  1  0
 10 12  1  0
 11  5  1  1
 33 34  1  0
 33 35  1  0
 34 36  1  0
 35 37  1  0
 36 42  1  1
 20 21  2  0
 21 22  1  0
M  CHG  2   2  -1  26  -1
M  END
>  <COMPND>  (277) 
    8629 

>  <AUTHOR>  (277) 
    GENERATED BY OPEN BABEL 3.1.1

>  <MASTER>  (277) 
        0    0    0    0    0    0    0    0   58    0   58    0

>  <minimizedAffinity>  (277) 
-6.95674

>  <CNNscore>  (277) 
0.5447443128

>  <CNNaffinity>  (277) 
4.4094214439

>  <CNN_VS>  (277) 
2.4020073414

>  <CNNaffinity_variance>  (277) 
0.2296793014

$$$$
278
     RDKit          3D

 43 45  0  0  0  0  0  0  0  0999 V2000
   21.6618   72.3832   -5.7190 P   0  0  2  0  0  0  0  0  0  0  0  0
   20.9021   73.8106   -5.7702 O   0  0  0  0  0  0  0  0  0  0  0  0
   23.0411   72.3778   -6.3098 O   0  0  0  0  0  0  0  0  0  0  0  0
   20.6061   71.3570   -6.3900 O   0  0  0  0  0  0  0  0  0  0  0  0
   19.9862   71.7260   -7.6096 C   0  0  0  0  0  0  0  0  0  0  0  0
   18.5631   69.8704   -7.0571 O   0  0  0  0  0  0  0  0  0  0  0  0
   17.8554   69.7875   -9.9697 O   0  0  0  0  0  0  0  0  0  0  0  0
   15.7077   71.0601   -8.8721 O   0  0  0  0  0  0  0  0  0  0  0  0
   18.1202   70.9155   -9.1373 C   0  0  1  0  0  0  0  0  0  0  0  0
   16.9508   71.1703   -8.2093 C   0  0  2  0  0  0  0  0  0  0  0  0
   19.2234   70.5289   -8.1602 C   0  0  1  0  0  0  0  0  0  0  0  0
   17.1473   70.0964   -7.1528 C   0  0  2  0  0  0  0  0  0  0  0  0
   17.1541   70.0104  -10.6025 H   0  0  0  0  0  0  0  0  0  0  0  0
   15.6304   71.7649   -9.5339 H   0  0  0  0  0  0  0  0  0  0  0  0
   16.7564   68.3392   -4.9762 O   0  0  0  0  0  0  0  0  0  0  0  0
   15.2368   71.7423   -2.2650 O   0  0  0  0  0  0  0  0  0  0  0  0
   16.6510   70.4964   -5.8663 N   0  0  0  0  0  0  0  0  0  0  0  0
   16.0002   70.0352   -3.6279 N   0  0  0  0  0  0  0  0  0  0  0  0
   16.4904   69.5353   -4.8411 C   0  0  0  0  0  0  0  0  0  0  0  0
   16.3295   71.8288   -5.6312 C   0  0  0  0  0  0  0  0  0  0  0  0
   15.8619   72.2891   -4.4690 C   0  0  0  0  0  0  0  0  0  0  0  0
   15.6651   71.3500   -3.3459 C   0  0  0  0  0  0  0  0  0  0  0  0
   15.8799   69.3837   -2.8993 H   0  0  0  0  0  0  0  0  0  0  0  0
   21.6000   71.9946   -4.1512 O   0  0  0  0  0  0  0  0  0  0  0  0
   20.5515   71.0840   -3.3238 P   0  0  2  0  0  0  0  0  0  0  0  0
   20.9346   69.5773   -3.7715 O   0  0  0  0  0  0  0  0  0  0  0  0
   19.1120   71.4486   -3.5446 O   0  0  0  0  0  0  0  0  0  0  0  0
   21.0405   71.1901   -1.7893 O   0  0  0  0  0  0  0  0  0  0  0  0
   21.2849   73.0336   -0.3200 O   0  0  0  0  0  0  0  0  0  0  0  0
   24.6612   70.9008    0.7300 O   0  0  0  0  0  0  0  0  0  0  0  0
   22.4291   71.0008    2.5344 O   0  0  0  0  0  0  0  0  0  0  0  0
   23.8302   71.0167   -2.0404 O   0  0  0  0  0  0  0  0  0  0  0  0
   23.3046   71.0688    0.3096 C   0  0  1  0  0  0  0  0  0  0  0  0
   22.5589   71.8471    1.3954 C   0  0  1  0  0  0  0  0  0  0  0  0
   23.2828   71.8347   -1.0119 C   0  0  2  0  0  0  0  0  0  0  0  0
   21.1766   72.2973    0.9039 C   0  0  1  0  0  0  0  0  0  0  0  0
   21.8670   72.2784   -1.3843 C   0  0  1  0  0  0  0  0  0  0  0  0
   24.6821   70.4148    1.5684 H   0  0  0  0  0  0  0  0  0  0  0  0
   23.3089   70.7232    2.8344 H   0  0  0  0  0  0  0  0  0  0  0  0
   24.7266   70.7428   -1.7928 H   0  0  0  0  0  0  0  0  0  0  0  0
   21.4576   73.7432    2.7853 O   0  0  0  0  0  0  0  0  0  0  0  0
   20.4798   73.2083    1.9122 C   0  0  0  0  0  0  0  0  0  0  0  0
   21.0287   74.3253    3.4324 H   0  0  0  0  0  0  0  0  0  0  0  0
 25 28  1  0
 25 24  1  0
 25 26  1  6
 25 27  2  0
  1  4  1  0
  1 24  1  0
  1  2  1  1
  1  3  2  0
  6 11  1  0
  6 12  1  0
 29 36  1  0
 29 37  1  0
  9  7  1  6
  7 13  1  0
 10  8  1  6
  8 14  1  0
 37 28  1  1
  4  5  1  0
 33 30  1  1
 30 38  1  0
 34 31  1  1
 31 39  1  0
 35 32  1  6
 32 40  1  0
 41 42  1  0
 41 43  1  0
 15 19  2  0
 16 22  2  0
 12 17  1  1
 17 19  1  0
 17 20  1  0
 18 19  1  0
 18 22  1  0
 18 23  1  0
  9 10  1  0
  9 11  1  0
 10 12  1  0
 11  5  1  1
 33 34  1  0
 33 35  1  0
 34 36  1  0
 35 37  1  0
 36 42  1  1
 20 21  2  0
 21 22  1  0
M  CHG  2   2  -1  26  -1
M  END
>  <COMPND>  (278) 
    8629 

>  <AUTHOR>  (278) 
    GENERATED BY OPEN BABEL 3.1.1

>  <MASTER>  (278) 
        0    0    0    0    0    0    0    0   58    0   58    0

>  <minimizedAffinity>  (278) 
-7.34866

>  <CNNscore>  (278) 
0.5232494473

>  <CNNaffinity>  (278) 
4.3614625931

>  <CNN_VS>  (278) 
2.2821328640

>  <CNNaffinity_variance>  (278) 
0.3109864593

$$$$
279
     RDKit          3D

 43 45  0  0  0  0  0  0  0  0999 V2000
   23.1215   73.6294   -4.2225 P   0  0  2  0  0  0  0  0  0  0  0  0
   24.0162   72.2848   -4.3159 O   0  0  0  0  0  0  0  0  0  0  0  0
   23.7404   74.8469   -4.8440 O   0  0  0  0  0  0  0  0  0  0  0  0
   22.7628   73.7488   -2.6493 O   0  0  0  0  0  0  0  0  0  0  0  0
   21.8617   74.7613   -2.2363 C   0  0  0  0  0  0  0  0  0  0  0  0
   21.0805   72.8301   -1.0388 O   0  0  0  0  0  0  0  0  0  0  0  0
   18.7841   74.5414   -0.1509 O   0  0  0  0  0  0  0  0  0  0  0  0
   20.4182   74.5602    2.0321 O   0  0  0  0  0  0  0  0  0  0  0  0
   20.1488   74.9006   -0.3601 C   0  0  1  0  0  0  0  0  0  0  0  0
   21.0114   74.3665    0.7643 C   0  0  2  0  0  0  0  0  0  0  0  0
   20.6633   74.1118   -1.5578 C   0  0  1  0  0  0  0  0  0  0  0  0
   21.1362   72.8980    0.3954 C   0  0  2  0  0  0  0  0  0  0  0  0
   18.4334   75.0328    0.6090 H   0  0  0  0  0  0  0  0  0  0  0  0
   20.3611   75.5099    2.2208 H   0  0  0  0  0  0  0  0  0  0  0  0
   21.5280   70.1482    0.9086 O   0  0  0  0  0  0  0  0  0  0  0  0
   25.9291   70.8113    2.1052 O   0  0  0  0  0  0  0  0  0  0  0  0
   22.3745   72.3245    0.8417 N   0  0  0  0  0  0  0  0  0  0  0  0
   23.7191   70.4806    1.5038 N   0  0  0  0  0  0  0  0  0  0  0  0
   22.4656   70.9318    1.0712 C   0  0  0  0  0  0  0  0  0  0  0  0
   23.4818   73.1403    1.0470 C   0  0  0  0  0  0  0  0  0  0  0  0
   24.6697   72.6945    1.4610 C   0  0  0  0  0  0  0  0  0  0  0  0
   24.8493   71.2520    1.7236 C   0  0  0  0  0  0  0  0  0  0  0  0
   23.8061   69.5139    1.6704 H   0  0  0  0  0  0  0  0  0  0  0  0
   21.7166   73.1777   -4.8822 O   0  0  0  0  0  0  0  0  0  0  0  0
   21.1633   73.3095   -6.3953 P   0  0  2  0  0  0  0  0  0  0  0  0
   22.2245   72.4424   -7.2552 O   0  0  0  0  0  0  0  0  0  0  0  0
   20.9930   74.7245   -6.8671 O   0  0  0  0  0  0  0  0  0  0  0  0
   19.8095   72.4310   -6.4131 O   0  0  0  0  0  0  0  0  0  0  0  0
   19.1402   70.2608   -5.7355 O   0  0  0  0  0  0  0  0  0  0  0  0
   17.5438   70.2846   -9.5436 O   0  0  0  0  0  0  0  0  0  0  0  0
   15.7966   70.4774   -7.2725 O   0  0  0  0  0  0  0  0  0  0  0  0
   20.1160   71.5167   -9.0485 O   0  0  0  0  0  0  0  0  0  0  0  0
   17.9291   70.8523   -8.2888 C   0  0  1  0  0  0  0  0  0  0  0  0
   17.1728   70.1199   -7.1787 C   0  0  1  0  0  0  0  0  0  0  0  0
   19.4373   70.6897   -8.1094 C   0  0  2  0  0  0  0  0  0  0  0  0
   17.7271   70.4868   -5.7955 C   0  0  1  0  0  0  0  0  0  0  0  0
   19.8771   71.0336   -6.6851 C   0  0  1  0  0  0  0  0  0  0  0  0
   16.5873   70.3849   -9.6639 H   0  0  0  0  0  0  0  0  0  0  0  0
   15.4590   70.2409   -8.1507 H   0  0  0  0  0  0  0  0  0  0  0  0
   19.8293   71.2891   -9.9462 H   0  0  0  0  0  0  0  0  0  0  0  0
   16.5274   68.4898   -5.2649 O   0  0  0  0  0  0  0  0  0  0  0  0
   17.0941   69.6506   -4.6854 C   0  0  0  0  0  0  0  0  0  0  0  0
   16.1211   67.9477   -4.5700 H   0  0  0  0  0  0  0  0  0  0  0  0
 25 28  1  0
 25 24  1  0
 25 26  1  6
 25 27  2  0
  1  4  1  0
  1 24  1  0
  1  2  1  1
  1  3  2  0
  6 11  1  0
  6 12  1  0
 29 36  1  0
 29 37  1  0
  9  7  1  1
  7 13  1  0
 10  8  1  1
  8 14  1  0
 37 28  1  1
  4  5  1  0
 33 30  1  6
 30 38  1  0
 34 31  1  1
 31 39  1  0
 35 32  1  6
 32 40  1  0
 41 42  1  0
 41 43  1  0
 15 19  2  0
 16 22  2  0
 12 17  1  6
 17 19  1  0
 17 20  1  0
 18 19  1  0
 18 22  1  0
 18 23  1  0
  9 10  1  0
  9 11  1  0
 10 12  1  0
 11  5  1  1
 33 34  1  0
 33 35  1  0
 34 36  1  0
 35 37  1  0
 36 42  1  1
 20 21  2  0
 21 22  1  0
M  CHG  2   2  -1  26  -1
M  END
>  <COMPND>  (279) 
    8629 

>  <AUTHOR>  (279) 
    GENERATED BY OPEN BABEL 3.1.1

>  <MASTER>  (279) 
        0    0    0    0    0    0    0    0   58    0   58    0

>  <minimizedAffinity>  (279) 
-7.69623

>  <CNNscore>  (279) 
0.5040686131

>  <CNNaffinity>  (279) 
4.3899774551

>  <CNN_VS>  (279) 
2.2128498554

>  <CNNaffinity_variance>  (279) 
0.1391235888

$$$$
280
     RDKit          3D

 43 45  0  0  0  0  0  0  0  0999 V2000
   23.4737   72.3257   -3.5452 P   0  0  2  0  0  0  0  0  0  0  0  0
   24.0992   70.8659   -3.2369 O   0  0  0  0  0  0  0  0  0  0  0  0
   24.4746   73.3760   -3.9283 O   0  0  0  0  0  0  0  0  0  0  0  0
   22.5809   72.6503   -2.2355 O   0  0  0  0  0  0  0  0  0  0  0  0
   23.2377   72.7938   -0.9882 C   0  0  0  0  0  0  0  0  0  0  0  0
   24.3291   71.2892    0.5346 O   0  0  0  0  0  0  0  0  0  0  0  0
   21.6015   70.1787    1.0982 O   0  0  0  0  0  0  0  0  0  0  0  0
   22.0374   71.8028    3.2451 O   0  0  0  0  0  0  0  0  0  0  0  0
   21.9897   71.5251    0.8302 C   0  0  1  0  0  0  0  0  0  0  0  0
   22.6917   72.1194    2.0333 C   0  0  2  0  0  0  0  0  0  0  0  0
   23.1061   71.4940   -0.2062 C   0  0  1  0  0  0  0  0  0  0  0  0
   24.0724   71.4934    1.9336 C   0  0  2  0  0  0  0  0  0  0  0  0
   20.8891   70.1730    1.7573 H   0  0  0  0  0  0  0  0  0  0  0  0
   21.1638   72.2239    3.2606 H   0  0  0  0  0  0  0  0  0  0  0  0
   26.7355   70.6750    2.3986 O   0  0  0  0  0  0  0  0  0  0  0  0
   27.9195   74.8220    4.0241 O   0  0  0  0  0  0  0  0  0  0  0  0
   25.0976   72.3389    2.4772 N   0  0  0  0  0  0  0  0  0  0  0  0
   27.3229   72.7406    3.2075 N   0  0  0  0  0  0  0  0  0  0  0  0
   26.4028   71.8300    2.6724 C   0  0  0  0  0  0  0  0  0  0  0  0
   24.8046   73.6569    2.8103 C   0  0  0  0  0  0  0  0  0  0  0  0
   25.6930   74.5120    3.3209 C   0  0  0  0  0  0  0  0  0  0  0  0
   27.0795   74.0597    3.5559 C   0  0  0  0  0  0  0  0  0  0  0  0
   28.2384   72.4082    3.3525 H   0  0  0  0  0  0  0  0  0  0  0  0
   22.3609   72.0130   -4.6752 O   0  0  0  0  0  0  0  0  0  0  0  0
   21.6596   72.9744   -5.7692 P   0  0  2  0  0  0  0  0  0  0  0  0
   22.5228   72.7019   -7.1102 O   0  0  0  0  0  0  0  0  0  0  0  0
   21.5860   74.4178   -5.3628 O   0  0  0  0  0  0  0  0  0  0  0  0
   20.2282   72.2873   -6.0591 O   0  0  0  0  0  0  0  0  0  0  0  0
   19.4421   70.1205   -5.5082 O   0  0  0  0  0  0  0  0  0  0  0  0
   17.5852   70.5856   -9.1669 O   0  0  0  0  0  0  0  0  0  0  0  0
   16.0245   70.7072   -6.7590 O   0  0  0  0  0  0  0  0  0  0  0  0
   20.2742   71.5833   -8.7752 O   0  0  0  0  0  0  0  0  0  0  0  0
   18.1019   71.0143   -7.9041 C   0  0  1  0  0  0  0  0  0  0  0  0
   17.3719   70.2453   -6.8012 C   0  0  1  0  0  0  0  0  0  0  0  0
   19.6018   70.7294   -7.8558 C   0  0  2  0  0  0  0  0  0  0  0  0
   18.0502   70.4514   -5.4401 C   0  0  1  0  0  0  0  0  0  0  0  0
   20.1673   70.9172   -6.4469 C   0  0  1  0  0  0  0  0  0  0  0  0
   16.6332   70.7641   -9.2043 H   0  0  0  0  0  0  0  0  0  0  0  0
   15.6078   70.5718   -7.6246 H   0  0  0  0  0  0  0  0  0  0  0  0
   19.9073   71.4547   -9.6633 H   0  0  0  0  0  0  0  0  0  0  0  0
   16.7000   68.5344   -4.9807 O   0  0  0  0  0  0  0  0  0  0  0  0
   17.4348   69.5703   -4.3552 C   0  0  0  0  0  0  0  0  0  0  0  0
   16.3028   67.9654   -4.3023 H   0  0  0  0  0  0  0  0  0  0  0  0
 25 28  1  0
 25 24  1  0
 25 26  1  6
 25 27  2  0
  1  4  1  0
  1 24  1  0
  1  2  1  1
  1  3  2  0
  6 11  1  0
  6 12  1  0
 29 36  1  0
 29 37  1  0
  9  7  1  1
  7 13  1  0
 10  8  1  1
  8 14  1  0
 37 28  1  1
  4  5  1  0
 33 30  1  6
 30 38  1  0
 34 31  1  1
 31 39  1  0
 35 32  1  6
 32 40  1  0
 41 42  1  0
 41 43  1  0
 15 19  2  0
 16 22  2  0
 12 17  1  6
 17 19  1  0
 17 20  1  0
 18 19  1  0
 18 22  1  0
 18 23  1  0
  9 10  1  0
  9 11  1  0
 10 12  1  0
 11  5  1  1
 33 34  1  0
 33 35  1  0
 34 36  1  0
 35 37  1  0
 36 42  1  1
 20 21  2  0
 21 22  1  0
M  CHG  2   2  -1  26  -1
M  END
>  <COMPND>  (280) 
    8629 

>  <AUTHOR>  (280) 
    GENERATED BY OPEN BABEL 3.1.1

>  <MASTER>  (280) 
        0    0    0    0    0    0    0    0   58    0   58    0

>  <minimizedAffinity>  (280) 
-8.12228

>  <CNNscore>  (280) 
0.4980423450

>  <CNNaffinity>  (280) 
4.2259449959

>  <CNN_VS>  (280) 
2.1046996117

>  <CNNaffinity_variance>  (280) 
0.1864090711

$$$$
281
     RDKit          3D

 43 45  0  0  0  0  0  0  0  0999 V2000
   22.5194   71.4933   -2.9040 P   0  0  2  0  0  0  0  0  0  0  0  0
   22.1973   73.0565   -2.6393 O   0  0  0  0  0  0  0  0  0  0  0  0
   23.9491   71.1893   -3.2429 O   0  0  0  0  0  0  0  0  0  0  0  0
   21.4257   71.0537   -4.0125 O   0  0  0  0  0  0  0  0  0  0  0  0
   20.5126   70.0198   -3.6885 C   0  0  0  0  0  0  0  0  0  0  0  0
   18.7825   71.3722   -4.6638 O   0  0  0  0  0  0  0  0  0  0  0  0
   16.9554   70.1923   -2.5997 O   0  0  0  0  0  0  0  0  0  0  0  0
   16.3375   68.7537   -4.8325 O   0  0  0  0  0  0  0  0  0  0  0  0
   18.0363   69.5816   -3.3027 C   0  0  1  0  0  0  0  0  0  0  0  0
   17.6379   69.2982   -4.7361 C   0  0  2  0  0  0  0  0  0  0  0  0
   19.1319   70.6258   -3.4776 C   0  0  1  0  0  0  0  0  0  0  0  0
   17.7439   70.6746   -5.3705 C   0  0  2  0  0  0  0  0  0  0  0  0
   16.2435   69.5444   -2.4757 H   0  0  0  0  0  0  0  0  0  0  0  0
   16.3216   67.8784   -4.4148 H   0  0  0  0  0  0  0  0  0  0  0  0
   15.8782   70.3281   -7.4627 O   0  0  0  0  0  0  0  0  0  0  0  0
   19.1819   70.4431  -10.6741 O   0  0  0  0  0  0  0  0  0  0  0  0
   18.0889   70.6108   -6.7628 N   0  0  0  0  0  0  0  0  0  0  0  0
   17.5247   70.3858   -9.0600 N   0  0  0  0  0  0  0  0  0  0  0  0
   17.0761   70.4335   -7.7340 C   0  0  0  0  0  0  0  0  0  0  0  0
   19.4189   70.7239   -7.1530 C   0  0  0  0  0  0  0  0  0  0  0  0
   19.8303   70.6751   -8.4217 C   0  0  0  0  0  0  0  0  0  0  0  0
   18.8353   70.4921   -9.4980 C   0  0  0  0  0  0  0  0  0  0  0  0
   16.8368   70.2626   -9.7539 H   0  0  0  0  0  0  0  0  0  0  0  0
   21.9803   70.7782   -1.5583 O   0  0  0  0  0  0  0  0  0  0  0  0
   21.4767   71.4008   -0.1541 P   0  0  2  0  0  0  0  0  0  0  0  0
   21.4974   70.1282    0.8447 O   0  0  0  0  0  0  0  0  0  0  0  0
   20.1530   72.1049   -0.2327 O   0  0  0  0  0  0  0  0  0  0  0  0
   22.6996   72.3292    0.3431 O   0  0  0  0  0  0  0  0  0  0  0  0
   22.1409   73.5229    2.3128 O   0  0  0  0  0  0  0  0  0  0  0  0
   25.7127   75.3848    1.4038 O   0  0  0  0  0  0  0  0  0  0  0  0
   25.5842   73.5726    3.6281 O   0  0  0  0  0  0  0  0  0  0  0  0
   23.8934   74.6359   -0.7196 O   0  0  0  0  0  0  0  0  0  0  0  0
   24.7991   74.2875    1.4849 C   0  0  1  0  0  0  0  0  0  0  0  0
   24.4333   74.0756    2.9553 C   0  0  1  0  0  0  0  0  0  0  0  0
   23.5536   74.6132    0.6626 C   0  0  2  0  0  0  0  0  0  0  0  0
   23.2600   73.0969    3.0989 C   0  0  1  0  0  0  0  0  0  0  0  0
   22.4303   73.6062    0.9160 C   0  0  1  0  0  0  0  0  0  0  0  0
   26.5060   75.1842    1.9235 H   0  0  0  0  0  0  0  0  0  0  0  0
   26.3179   74.1996    3.5294 H   0  0  0  0  0  0  0  0  0  0  0  0
   24.6053   75.2773   -0.8669 H   0  0  0  0  0  0  0  0  0  0  0  0
   23.2491   74.1186    5.2588 O   0  0  0  0  0  0  0  0  0  0  0  0
   22.7763   72.9920    4.5436 C   0  0  0  0  0  0  0  0  0  0  0  0
   22.9486   74.0654    6.1800 H   0  0  0  0  0  0  0  0  0  0  0  0
 25 28  1  0
 25 24  1  0
 25 26  1  1
 25 27  2  0
  1  4  1  0
  1 24  1  0
  1  2  1  1
  1  3  2  0
  6 11  1  0
  6 12  1  0
 29 36  1  0
 29 37  1  0
  9  7  1  1
  7 13  1  0
 10  8  1  1
  8 14  1  0
 37 28  1  1
  4  5  1  0
 33 30  1  1
 30 38  1  0
 34 31  1  1
 31 39  1  0
 35 32  1  6
 32 40  1  0
 41 42  1  0
 41 43  1  0
 15 19  2  0
 16 22  2  0
 12 17  1  6
 17 19  1  0
 17 20  1  0
 18 19  1  0
 18 22  1  0
 18 23  1  0
  9 10  1  0
  9 11  1  0
 10 12  1  0
 11  5  1  6
 33 34  1  0
 33 35  1  0
 34 36  1  0
 35 37  1  0
 36 42  1  1
 20 21  2  0
 21 22  1  0
M  CHG  2   2  -1  26  -1
M  END
>  <COMPND>  (281) 
    8629 

>  <AUTHOR>  (281) 
    GENERATED BY OPEN BABEL 3.1.1

>  <MASTER>  (281) 
        0    0    0    0    0    0    0    0   58    0   58    0

>  <minimizedAffinity>  (281) 
-7.56183

>  <CNNscore>  (281) 
0.9385759234

>  <CNNaffinity>  (281) 
4.7855806351

>  <CNN_VS>  (281) 
4.4916305542

>  <CNNaffinity_variance>  (281) 
0.0463330448

$$$$
282
     RDKit          3D

 43 45  0  0  0  0  0  0  0  0999 V2000
   23.1758   71.6843   -2.3441 P   0  0  2  0  0  0  0  0  0  0  0  0
   23.6607   73.1272   -1.7960 O   0  0  0  0  0  0  0  0  0  0  0  0
   24.2072   70.9236   -3.1246 O   0  0  0  0  0  0  0  0  0  0  0  0
   21.7992   72.0098   -3.1295 O   0  0  0  0  0  0  0  0  0  0  0  0
   21.0327   70.9270   -3.6274 C   0  0  0  0  0  0  0  0  0  0  0  0
   18.9361   71.7116   -4.5007 O   0  0  0  0  0  0  0  0  0  0  0  0
   17.6542   70.2706   -2.2048 O   0  0  0  0  0  0  0  0  0  0  0  0
   17.2556   68.5507   -4.2832 O   0  0  0  0  0  0  0  0  0  0  0  0
   18.7966   69.9028   -2.9761 C   0  0  1  0  0  0  0  0  0  0  0  0
   18.3717   69.4151   -4.3455 C   0  0  2  0  0  0  0  0  0  0  0  0
   19.5632   71.1750   -3.3153 C   0  0  1  0  0  0  0  0  0  0  0  0
   18.0625   70.7184   -5.0622 C   0  0  2  0  0  0  0  0  0  0  0  0
   17.1488   69.4743   -1.9758 H   0  0  0  0  0  0  0  0  0  0  0  0
   17.5029   67.7361   -3.8183 H   0  0  0  0  0  0  0  0  0  0  0  0
   16.1864   69.7513   -6.9391 O   0  0  0  0  0  0  0  0  0  0  0  0
   19.0778   70.4444  -10.4606 O   0  0  0  0  0  0  0  0  0  0  0  0
   18.2985   70.6354   -6.4760 N   0  0  0  0  0  0  0  0  0  0  0  0
   17.6275   70.0974   -8.6911 N   0  0  0  0  0  0  0  0  0  0  0  0
   17.2906   70.1336   -7.3320 C   0  0  0  0  0  0  0  0  0  0  0  0
   19.5182   71.0492   -7.0004 C   0  0  0  0  0  0  0  0  0  0  0  0
   19.8243   71.0069   -8.2987 C   0  0  0  0  0  0  0  0  0  0  0  0
   18.8265   70.4959   -9.2606 C   0  0  0  0  0  0  0  0  0  0  0  0
   16.9410   69.7512   -9.3063 H   0  0  0  0  0  0  0  0  0  0  0  0
   22.6624   70.9403   -1.0040 O   0  0  0  0  0  0  0  0  0  0  0  0
   21.6926   71.4466    0.1860 P   0  0  2  0  0  0  0  0  0  0  0  0
   21.3630   70.0875    0.9996 O   0  0  0  0  0  0  0  0  0  0  0  0
   20.4799   72.1958   -0.2852 O   0  0  0  0  0  0  0  0  0  0  0  0
   22.6576   72.2868    1.1698 O   0  0  0  0  0  0  0  0  0  0  0  0
   24.4127   71.9239    2.7205 O   0  0  0  0  0  0  0  0  0  0  0  0
   21.8623   74.1201    5.1127 O   0  0  0  0  0  0  0  0  0  0  0  0
   24.2792   75.3251    4.1357 O   0  0  0  0  0  0  0  0  0  0  0  0
   20.7859   72.1758    3.2578 O   0  0  0  0  0  0  0  0  0  0  0  0
   22.5010   73.7446    3.8894 C   0  0  1  0  0  0  0  0  0  0  0  0
   24.0103   73.9278    4.0605 C   0  0  1  0  0  0  0  0  0  0  0  0
   22.1681   72.2862    3.5798 C   0  0  2  0  0  0  0  0  0  0  0  0
   24.7808   73.2974    2.8926 C   0  0  1  0  0  0  0  0  0  0  0  0
   23.0244   71.7423    2.4348 C   0  0  1  0  0  0  0  0  0  0  0  0
   22.0692   75.0453    5.3148 H   0  0  0  0  0  0  0  0  0  0  0  0
   23.7863   75.7110    4.8768 H   0  0  0  0  0  0  0  0  0  0  0  0
   20.2546   72.5232    3.9905 H   0  0  0  0  0  0  0  0  0  0  0  0
   26.7403   74.6627    2.9637 O   0  0  0  0  0  0  0  0  0  0  0  0
   26.2906   73.3294    3.1199 C   0  0  0  0  0  0  0  0  0  0  0  0
   27.6996   74.6984    3.1059 H   0  0  0  0  0  0  0  0  0  0  0  0
 25 28  1  0
 25 24  1  0
 25 26  1  1
 25 27  2  0
  1  4  1  0
  1 24  1  0
  1  2  1  1
  1  3  2  0
  6 11  1  0
  6 12  1  0
 29 36  1  0
 29 37  1  0
  9  7  1  1
  7 13  1  0
 10  8  1  1
  8 14  1  0
 37 28  1  6
  4  5  1  0
 33 30  1  1
 30 38  1  0
 34 31  1  6
 31 39  1  0
 35 32  1  6
 32 40  1  0
 41 42  1  0
 41 43  1  0
 15 19  2  0
 16 22  2  0
 12 17  1  6
 17 19  1  0
 17 20  1  0
 18 19  1  0
 18 22  1  0
 18 23  1  0
  9 10  1  0
  9 11  1  0
 10 12  1  0
 11  5  1  6
 33 34  1  0
 33 35  1  0
 34 36  1  0
 35 37  1  0
 36 42  1  1
 20 21  2  0
 21 22  1  0
M  CHG  2   2  -1  26  -1
M  END
>  <COMPND>  (282) 
    8629 

>  <AUTHOR>  (282) 
    GENERATED BY OPEN BABEL 3.1.1

>  <MASTER>  (282) 
        0    0    0    0    0    0    0    0   58    0   58    0

>  <minimizedAffinity>  (282) 
-7.94560

>  <CNNscore>  (282) 
0.9280685782

>  <CNNaffinity>  (282) 
4.7134199142

>  <CNN_VS>  (282) 
4.3743767738

>  <CNNaffinity_variance>  (282) 
0.0638655722

$$$$
283
     RDKit          3D

 43 45  0  0  0  0  0  0  0  0999 V2000
   20.4052   71.2656   -1.2773 P   0  0  2  0  0  0  0  0  0  0  0  0
   20.8506   70.6243    0.1397 O   0  0  0  0  0  0  0  0  0  0  0  0
   19.8468   72.6559   -1.1962 O   0  0  0  0  0  0  0  0  0  0  0  0
   19.4230   70.1501   -1.9168 O   0  0  0  0  0  0  0  0  0  0  0  0
   19.1010   70.2422   -3.2936 C   0  0  0  0  0  0  0  0  0  0  0  0
   17.4672   71.3523   -4.6620 O   0  0  0  0  0  0  0  0  0  0  0  0
   15.4082   69.7827   -3.1494 O   0  0  0  0  0  0  0  0  0  0  0  0
   15.6207   68.3897   -5.4841 O   0  0  0  0  0  0  0  0  0  0  0  0
   16.7177   69.3927   -3.5601 C   0  0  1  0  0  0  0  0  0  0  0  0
   16.7443   69.1291   -5.0512 C   0  0  2  0  0  0  0  0  0  0  0  0
   17.6296   70.6069   -3.4354 C   0  0  1  0  0  0  0  0  0  0  0  0
   16.7717   70.5377   -5.6198 C   0  0  2  0  0  0  0  0  0  0  0  0
   14.8079   69.0234   -3.2201 H   0  0  0  0  0  0  0  0  0  0  0  0
   15.6488   67.5014   -5.0957 H   0  0  0  0  0  0  0  0  0  0  0  0
   15.5080   70.3754   -8.1407 O   0  0  0  0  0  0  0  0  0  0  0  0
   19.5120   70.8146  -10.3804 O   0  0  0  0  0  0  0  0  0  0  0  0
   17.4597   70.6071   -6.8780 N   0  0  0  0  0  0  0  0  0  0  0  0
   17.5027   70.5944   -9.2538 N   0  0  0  0  0  0  0  0  0  0  0  0
   16.7317   70.5144   -8.0871 C   0  0  0  0  0  0  0  0  0  0  0  0
   18.8410   70.7659   -6.9047 C   0  0  0  0  0  0  0  0  0  0  0  0
   19.5616   70.8391   -8.0257 C   0  0  0  0  0  0  0  0  0  0  0  0
   18.8775   70.7507   -9.3320 C   0  0  0  0  0  0  0  0  0  0  0  0
   17.0170   70.5317  -10.1082 H   0  0  0  0  0  0  0  0  0  0  0  0
   21.7428   71.1291   -2.1745 O   0  0  0  0  0  0  0  0  0  0  0  0
   22.8963   72.2040   -2.5308 P   0  0  2  0  0  0  0  0  0  0  0  0
   23.9566   71.3382   -3.3933 O   0  0  0  0  0  0  0  0  0  0  0  0
   23.4867   72.8924   -1.3344 O   0  0  0  0  0  0  0  0  0  0  0  0
   22.2122   73.1967   -3.6039 O   0  0  0  0  0  0  0  0  0  0  0  0
   20.0513   73.1708   -4.5767 O   0  0  0  0  0  0  0  0  0  0  0  0
   22.2327   74.4314   -7.8483 O   0  0  0  0  0  0  0  0  0  0  0  0
   20.5323   76.2942   -6.4747 O   0  0  0  0  0  0  0  0  0  0  0  0
   23.3313   72.4358   -6.0622 O   0  0  0  0  0  0  0  0  0  0  0  0
   21.9046   74.3352   -6.4596 C   0  0  1  0  0  0  0  0  0  0  0  0
   20.4910   74.8859   -6.2615 C   0  0  1  0  0  0  0  0  0  0  0  0
   21.9763   72.8711   -6.0300 C   0  0  2  0  0  0  0  0  0  0  0  0
   19.9671   74.5737   -4.8533 C   0  0  1  0  0  0  0  0  0  0  0  0
   21.3854   72.6623   -4.6345 C   0  0  1  0  0  0  0  0  0  0  0  0
   22.1895   75.3587   -8.1273 H   0  0  0  0  0  0  0  0  0  0  0  0
   20.8652   76.4777   -7.3672 H   0  0  0  0  0  0  0  0  0  0  0  0
   23.6938   72.5729   -6.9509 H   0  0  0  0  0  0  0  0  0  0  0  0
   17.7211   74.2029   -5.5791 O   0  0  0  0  0  0  0  0  0  0  0  0
   18.5030   74.9743   -4.6859 C   0  0  0  0  0  0  0  0  0  0  0  0
   16.7867   74.4469   -5.4835 H   0  0  0  0  0  0  0  0  0  0  0  0
 25 28  1  0
 25 24  1  0
 25 26  1  6
 25 27  2  0
  1  4  1  0
  1 24  1  0
  1  2  1  1
  1  3  2  0
  6 11  1  0
  6 12  1  0
 29 36  1  0
 29 37  1  0
  9  7  1  6
  7 13  1  0
 10  8  1  6
  8 14  1  0
 37 28  1  1
  4  5  1  0
 33 30  1  6
 30 38  1  0
 34 31  1  1
 31 39  1  0
 35 32  1  1
 32 40  1  0
 41 42  1  0
 41 43  1  0
 15 19  2  0
 16 22  2  0
 12 17  1  6
 17 19  1  0
 17 20  1  0
 18 19  1  0
 18 22  1  0
 18 23  1  0
  9 10  1  0
  9 11  1  0
 10 12  1  0
 11  5  1  6
 33 34  1  0
 33 35  1  0
 34 36  1  0
 35 37  1  0
 36 42  1  6
 20 21  2  0
 21 22  1  0
M  CHG  2   2  -1  26  -1
M  END
>  <COMPND>  (283) 
    8629 

>  <AUTHOR>  (283) 
    GENERATED BY OPEN BABEL 3.1.1

>  <MASTER>  (283) 
        0    0    0    0    0    0    0    0   58    0   58    0

>  <minimizedAffinity>  (283) 
-7.66960

>  <CNNscore>  (283) 
0.9116479754

>  <CNNaffinity>  (283) 
4.6421289444

>  <CNN_VS>  (283) 
4.2319874763

>  <CNNaffinity_variance>  (283) 
0.5974373221

$$$$
284
     RDKit          3D

 43 45  0  0  0  0  0  0  0  0999 V2000
   21.1778   72.0212   -3.1310 P   0  0  2  0  0  0  0  0  0  0  0  0
   22.2912   70.8481   -3.1719 O   0  0  0  0  0  0  0  0  0  0  0  0
   20.8032   72.4918   -1.7564 O   0  0  0  0  0  0  0  0  0  0  0  0
   19.9649   71.4370   -4.0285 O   0  0  0  0  0  0  0  0  0  0  0  0
   19.1972   70.3642   -3.5114 C   0  0  0  0  0  0  0  0  0  0  0  0
   17.5303   71.3800   -4.9126 O   0  0  0  0  0  0  0  0  0  0  0  0
   15.5139   69.8575   -3.2979 O   0  0  0  0  0  0  0  0  0  0  0  0
   15.7202   68.3528   -5.5629 O   0  0  0  0  0  0  0  0  0  0  0  0
   16.8243   69.4670   -3.7052 C   0  0  1  0  0  0  0  0  0  0  0  0
   16.8373   69.1296   -5.1815 C   0  0  2  0  0  0  0  0  0  0  0  0
   17.7187   70.6993   -3.6526 C   0  0  1  0  0  0  0  0  0  0  0  0
   16.8361   70.5083   -5.8199 C   0  0  2  0  0  0  0  0  0  0  0  0
   14.9246   69.0868   -3.3231 H   0  0  0  0  0  0  0  0  0  0  0  0
   15.7667   67.4856   -5.1311 H   0  0  0  0  0  0  0  0  0  0  0  0
   15.5249   70.6341   -8.3184 O   0  0  0  0  0  0  0  0  0  0  0  0
   19.5159   70.5653  -10.6224 O   0  0  0  0  0  0  0  0  0  0  0  0
   17.5080   70.5250   -7.0886 N   0  0  0  0  0  0  0  0  0  0  0  0
   17.5132   70.5999   -9.4636 N   0  0  0  0  0  0  0  0  0  0  0  0
   16.7564   70.5886   -8.2850 C   0  0  0  0  0  0  0  0  0  0  0  0
   18.8970   70.4789   -7.1378 C   0  0  0  0  0  0  0  0  0  0  0  0
   19.6036   70.4892   -8.2700 C   0  0  0  0  0  0  0  0  0  0  0  0
   18.8947   70.5544   -9.5642 C   0  0  0  0  0  0  0  0  0  0  0  0
   17.0109   70.6435  -10.3095 H   0  0  0  0  0  0  0  0  0  0  0  0
   21.8166   73.1618   -4.0817 O   0  0  0  0  0  0  0  0  0  0  0  0
   23.2099   73.2036   -4.9003 P   0  0  2  0  0  0  0  0  0  0  0  0
   22.9437   72.1959   -6.1377 O   0  0  0  0  0  0  0  0  0  0  0  0
   24.4184   72.8662   -4.0758 O   0  0  0  0  0  0  0  0  0  0  0  0
   23.2460   74.6714   -5.5705 O   0  0  0  0  0  0  0  0  0  0  0  0
   22.2300   76.7461   -5.0414 O   0  0  0  0  0  0  0  0  0  0  0  0
   21.6771   76.7654   -9.1334 O   0  0  0  0  0  0  0  0  0  0  0  0
   23.6216   78.5213   -7.9571 O   0  0  0  0  0  0  0  0  0  0  0  0
   21.4003   74.2947   -7.6506 O   0  0  0  0  0  0  0  0  0  0  0  0
   22.3684   76.4845   -7.9133 C   0  0  1  0  0  0  0  0  0  0  0  0
   22.6441   77.8107   -7.2021 C   0  0  1  0  0  0  0  0  0  0  0  0
   21.4984   75.5787   -7.0438 C   0  0  2  0  0  0  0  0  0  0  0  0
   23.1413   77.5779   -5.7690 C   0  0  1  0  0  0  0  0  0  0  0  0
   22.0557   75.4534   -5.6247 C   0  0  1  0  0  0  0  0  0  0  0  0
   22.2243   77.3397   -9.6904 H   0  0  0  0  0  0  0  0  0  0  0  0
   23.2955   78.6613   -8.8600 H   0  0  0  0  0  0  0  0  0  0  0  0
   21.0460   74.3876   -8.5482 H   0  0  0  0  0  0  0  0  0  0  0  0
   22.4581   79.8620   -5.6112 O   0  0  0  0  0  0  0  0  0  0  0  0
   23.2721   78.8846   -4.9896 C   0  0  0  0  0  0  0  0  0  0  0  0
   22.5311   80.6990   -5.1257 H   0  0  0  0  0  0  0  0  0  0  0  0
 25 28  1  0
 25 24  1  0
 25 26  1  6
 25 27  2  0
  1  4  1  0
  1 24  1  0
  1  2  1  1
  1  3  2  0
  6 11  1  0
  6 12  1  0
 29 36  1  0
 29 37  1  0
  9  7  1  6
  7 13  1  0
 10  8  1  6
  8 14  1  0
 37 28  1  6
  4  5  1  0
 33 30  1  6
 30 38  1  0
 34 31  1  6
 31 39  1  0
 35 32  1  6
 32 40  1  0
 41 42  1  0
 41 43  1  0
 15 19  2  0
 16 22  2  0
 12 17  1  6
 17 19  1  0
 17 20  1  0
 18 19  1  0
 18 22  1  0
 18 23  1  0
  9 10  1  0
  9 11  1  0
 10 12  1  0
 11  5  1  6
 33 34  1  0
 33 35  1  0
 34 36  1  0
 35 37  1  0
 36 42  1  1
 20 21  2  0
 21 22  1  0
M  CHG  2   2  -1  26  -1
M  END
>  <COMPND>  (284) 
    8629 

>  <AUTHOR>  (284) 
    GENERATED BY OPEN BABEL 3.1.1

>  <MASTER>  (284) 
        0    0    0    0    0    0    0    0   58    0   58    0

>  <minimizedAffinity>  (284) 
-7.14057

>  <CNNscore>  (284) 
0.8739413023

>  <CNNaffinity>  (284) 
4.5949602127

>  <CNN_VS>  (284) 
4.0157256126

>  <CNNaffinity_variance>  (284) 
0.2001685351

$$$$
285
     RDKit          3D

 43 45  0  0  0  0  0  0  0  0999 V2000
   20.6563   73.5746   -2.9575 P   0  0  2  0  0  0  0  0  0  0  0  0
   20.2242   73.0246   -1.4987 O   0  0  0  0  0  0  0  0  0  0  0  0
   20.7168   75.0689   -3.0790 O   0  0  0  0  0  0  0  0  0  0  0  0
   19.6399   72.8278   -3.9709 O   0  0  0  0  0  0  0  0  0  0  0  0
   19.0433   71.6114   -3.5557 C   0  0  0  0  0  0  0  0  0  0  0  0
   17.2932   72.1085   -5.1253 O   0  0  0  0  0  0  0  0  0  0  0  0
   15.4613   70.6354   -3.2638 O   0  0  0  0  0  0  0  0  0  0  0  0
   15.9402   68.7881   -5.2118 O   0  0  0  0  0  0  0  0  0  0  0  0
   16.8245   70.3670   -3.5880 C   0  0  1  0  0  0  0  0  0  0  0  0
   16.9272   69.7717   -4.9768 C   0  0  2  0  0  0  0  0  0  0  0  0
   17.5374   71.7023   -3.7608 C   0  0  1  0  0  0  0  0  0  0  0  0
   16.7534   70.9967   -5.8584 C   0  0  2  0  0  0  0  0  0  0  0  0
   14.9856   69.7974   -3.1483 H   0  0  0  0  0  0  0  0  0  0  0  0
   16.0939   68.0295   -4.6273 H   0  0  0  0  0  0  0  0  0  0  0  0
   15.5047   70.5427   -8.3509 O   0  0  0  0  0  0  0  0  0  0  0  0
   19.5384   70.5539  -10.5803 O   0  0  0  0  0  0  0  0  0  0  0  0
   17.4531   70.8771   -7.1064 N   0  0  0  0  0  0  0  0  0  0  0  0
   17.5142   70.5488   -9.4590 N   0  0  0  0  0  0  0  0  0  0  0  0
   16.7319   70.6485   -8.3014 C   0  0  0  0  0  0  0  0  0  0  0  0
   18.8391   70.9868   -7.1370 C   0  0  0  0  0  0  0  0  0  0  0  0
   19.5704   70.8881   -8.2490 C   0  0  0  0  0  0  0  0  0  0  0  0
   18.8940   70.6495   -9.5404 C   0  0  0  0  0  0  0  0  0  0  0  0
   17.0333   70.3893  -10.3035 H   0  0  0  0  0  0  0  0  0  0  0  0
   22.0599   72.8202   -3.2293 O   0  0  0  0  0  0  0  0  0  0  0  0
   22.6922   71.4854   -2.5724 P   0  0  2  0  0  0  0  0  0  0  0  0
   24.1477   71.3817   -3.2712 O   0  0  0  0  0  0  0  0  0  0  0  0
   21.8407   70.2591   -2.7302 O   0  0  0  0  0  0  0  0  0  0  0  0
   23.0031   71.8914   -1.0415 O   0  0  0  0  0  0  0  0  0  0  0  0
   24.2807   70.9809    0.7348 O   0  0  0  0  0  0  0  0  0  0  0  0
   20.8034   71.8330    2.7923 O   0  0  0  0  0  0  0  0  0  0  0  0
   23.1399   73.4454    3.2275 O   0  0  0  0  0  0  0  0  0  0  0  0
   20.6673   70.8185    0.0846 O   0  0  0  0  0  0  0  0  0  0  0  0
   21.8202   72.0431    1.8087 C   0  0  1  0  0  0  0  0  0  0  0  0
   23.1598   72.2029    2.5303 C   0  0  1  0  0  0  0  0  0  0  0  0
   21.8576   70.8425    0.8651 C   0  0  2  0  0  0  0  0  0  0  0  0
   24.3309   72.1650    1.5392 C   0  0  1  0  0  0  0  0  0  0  0  0
   23.0873   70.8768   -0.0442 C   0  0  1  0  0  0  0  0  0  0  0  0
   20.7741   72.5920    3.3944 H   0  0  0  0  0  0  0  0  0  0  0  0
   22.3956   73.4565    3.8496 H   0  0  0  0  0  0  0  0  0  0  0  0
   19.8962   70.7965    0.6717 H   0  0  0  0  0  0  0  0  0  0  0  0
   26.0742   70.8215    2.4691 O   0  0  0  0  0  0  0  0  0  0  0  0
   25.6823   72.1642    2.2504 C   0  0  0  0  0  0  0  0  0  0  0  0
   26.9329   70.8055    2.9208 H   0  0  0  0  0  0  0  0  0  0  0  0
 25 28  1  0
 25 24  1  0
 25 26  1  6
 25 27  2  0
  1  4  1  0
  1 24  1  0
  1  2  1  1
  1  3  2  0
  6 11  1  0
  6 12  1  0
 29 36  1  0
 29 37  1  0
  9  7  1  6
  7 13  1  0
 10  8  1  6
  8 14  1  0
 37 28  1  6
  4  5  1  0
 33 30  1  1
 30 38  1  0
 34 31  1  6
 31 39  1  0
 35 32  1  6
 32 40  1  0
 41 42  1  0
 41 43  1  0
 15 19  2  0
 16 22  2  0
 12 17  1  6
 17 19  1  0
 17 20  1  0
 18 19  1  0
 18 22  1  0
 18 23  1  0
  9 10  1  0
  9 11  1  0
 10 12  1  0
 11  5  1  6
 33 34  1  0
 33 35  1  0
 34 36  1  0
 35 37  1  0
 36 42  1  1
 20 21  2  0
 21 22  1  0
M  CHG  2   2  -1  26  -1
M  END
>  <COMPND>  (285) 
    8629 

>  <AUTHOR>  (285) 
    GENERATED BY OPEN BABEL 3.1.1

>  <MASTER>  (285) 
        0    0    0    0    0    0    0    0   58    0   58    0

>  <minimizedAffinity>  (285) 
-8.01112

>  <CNNscore>  (285) 
0.8639982939

>  <CNNaffinity>  (285) 
4.6338996887

>  <CNN_VS>  (285) 
4.0036816597

>  <CNNaffinity_variance>  (285) 
0.0883576125

$$$$
286
     RDKit          3D

 43 45  0  0  0  0  0  0  0  0999 V2000
   20.6398   71.1872   -1.1447 P   0  0  2  0  0  0  0  0  0  0  0  0
   20.9177   70.4928    0.2899 O   0  0  0  0  0  0  0  0  0  0  0  0
   20.2354   72.6308   -1.0823 O   0  0  0  0  0  0  0  0  0  0  0  0
   19.5834   70.1919   -1.8598 O   0  0  0  0  0  0  0  0  0  0  0  0
   19.2626   70.4122   -3.2223 C   0  0  0  0  0  0  0  0  0  0  0  0
   17.5856   71.4784   -4.5731 O   0  0  0  0  0  0  0  0  0  0  0  0
   15.5779   69.9367   -2.9659 O   0  0  0  0  0  0  0  0  0  0  0  0
   15.7354   68.4859   -5.2696 O   0  0  0  0  0  0  0  0  0  0  0  0
   16.8780   69.5434   -3.4022 C   0  0  1  0  0  0  0  0  0  0  0  0
   16.8659   69.2421   -4.8863 C   0  0  2  0  0  0  0  0  0  0  0  0
   17.7857   70.7652   -3.3331 C   0  0  1  0  0  0  0  0  0  0  0  0
   16.8692   70.6360   -5.4908 C   0  0  2  0  0  0  0  0  0  0  0  0
   14.9805   69.1726   -3.0009 H   0  0  0  0  0  0  0  0  0  0  0  0
   15.7794   67.6080   -4.8598 H   0  0  0  0  0  0  0  0  0  0  0  0
   15.5691   70.2106   -7.9620 O   0  0  0  0  0  0  0  0  0  0  0  0
   19.4762   70.8166  -10.3303 O   0  0  0  0  0  0  0  0  0  0  0  0
   17.5225   70.6771   -6.7687 N   0  0  0  0  0  0  0  0  0  0  0  0
   17.5156   70.5129   -9.1392 N   0  0  0  0  0  0  0  0  0  0  0  0
   16.7786   70.4487   -7.9497 C   0  0  0  0  0  0  0  0  0  0  0  0
   18.8857   70.9421   -6.8419 C   0  0  0  0  0  0  0  0  0  0  0  0
   19.5739   70.9985   -7.9840 C   0  0  0  0  0  0  0  0  0  0  0  0
   18.8714   70.7715   -9.2634 C   0  0  0  0  0  0  0  0  0  0  0  0
   17.0183   70.3566   -9.9747 H   0  0  0  0  0  0  0  0  0  0  0  0
   22.0096   70.9067   -1.9558 O   0  0  0  0  0  0  0  0  0  0  0  0
   23.1573   71.9160   -2.4820 P   0  0  2  0  0  0  0  0  0  0  0  0
   24.2855   70.9188   -3.0739 O   0  0  0  0  0  0  0  0  0  0  0  0
   23.6612   72.8720   -1.4398 O   0  0  0  0  0  0  0  0  0  0  0  0
   22.5148   72.6227   -3.7831 O   0  0  0  0  0  0  0  0  0  0  0  0
   23.2883   74.0762   -5.4876 O   0  0  0  0  0  0  0  0  0  0  0  0
   19.7435   75.9785   -4.5566 O   0  0  0  0  0  0  0  0  0  0  0  0
   19.9710   74.5342   -7.0285 O   0  0  0  0  0  0  0  0  0  0  0  0
   21.3452   74.7996   -2.4533 O   0  0  0  0  0  0  0  0  0  0  0  0
   20.6091   74.8559   -4.7459 C   0  0  1  0  0  0  0  0  0  0  0  0
   21.0845   74.8568   -6.2002 C   0  0  1  0  0  0  0  0  0  0  0  0
   21.7963   74.9746   -3.7921 C   0  0  2  0  0  0  0  0  0  0  0  0
   22.2192   73.8456   -6.4126 C   0  0  1  0  0  0  0  0  0  0  0  0
   22.8890   73.9557   -4.1208 C   0  0  1  0  0  0  0  0  0  0  0  0
   18.9873   75.9090   -5.1590 H   0  0  0  0  0  0  0  0  0  0  0  0
   19.2614   75.1799   -6.8844 H   0  0  0  0  0  0  0  0  0  0  0  0
   20.6541   75.4505   -2.2574 H   0  0  0  0  0  0  0  0  0  0  0  0
   22.5761   72.7188   -8.4891 O   0  0  0  0  0  0  0  0  0  0  0  0
   22.8150   73.9409   -7.8155 C   0  0  0  0  0  0  0  0  0  0  0  0
   22.9495   72.7650   -9.3836 H   0  0  0  0  0  0  0  0  0  0  0  0
 25 28  1  0
 25 24  1  0
 25 26  1  6
 25 27  2  0
  1  4  1  0
  1 24  1  0
  1  2  1  1
  1  3  2  0
  6 11  1  0
  6 12  1  0
 29 36  1  0
 29 37  1  0
  9  7  1  6
  7 13  1  0
 10  8  1  1
  8 14  1  0
 37 28  1  6
  4  5  1  0
 33 30  1  6
 30 38  1  0
 34 31  1  6
 31 39  1  0
 35 32  1  1
 32 40  1  0
 41 42  1  0
 41 43  1  0
 15 19  2  0
 16 22  2  0
 12 17  1  6
 17 19  1  0
 17 20  1  0
 18 19  1  0
 18 22  1  0
 18 23  1  0
  9 10  1  0
  9 11  1  0
 10 12  1  0
 11  5  1  6
 33 34  1  0
 33 35  1  0
 34 36  1  0
 35 37  1  0
 36 42  1  6
 20 21  2  0
 21 22  1  0
M  CHG  2   2  -1  26  -1
M  END
>  <COMPND>  (286) 
    8629 

>  <AUTHOR>  (286) 
    GENERATED BY OPEN BABEL 3.1.1

>  <MASTER>  (286) 
        0    0    0    0    0    0    0    0   58    0   58    0

>  <minimizedAffinity>  (286) 
-8.00371

>  <CNNscore>  (286) 
0.8480548263

>  <CNNaffinity>  (286) 
4.5879821777

>  <CNN_VS>  (286) 
3.8908603191

>  <CNNaffinity_variance>  (286) 
0.3494080603

$$$$
287
     RDKit          3D

 43 45  0  0  0  0  0  0  0  0999 V2000
   21.0903   71.7741   -3.3546 P   0  0  2  0  0  0  0  0  0  0  0  0
   21.0673   71.4249   -4.9342 O   0  0  0  0  0  0  0  0  0  0  0  0
   21.6270   70.6853   -2.4726 O   0  0  0  0  0  0  0  0  0  0  0  0
   19.5765   72.2510   -3.0402 O   0  0  0  0  0  0  0  0  0  0  0  0
   18.8104   72.8079   -4.0941 C   0  0  0  0  0  0  0  0  0  0  0  0
   16.9479   72.0970   -5.4355 O   0  0  0  0  0  0  0  0  0  0  0  0
   16.0753   70.5075   -3.0475 O   0  0  0  0  0  0  0  0  0  0  0  0
   17.2382   68.6145   -4.6289 O   0  0  0  0  0  0  0  0  0  0  0  0
   17.3944   70.7733   -3.5213 C   0  0  1  0  0  0  0  0  0  0  0  0
   17.6849   69.9488   -4.7581 C   0  0  2  0  0  0  0  0  0  0  0  0
   17.4176   72.1933   -4.0730 C   0  0  1  0  0  0  0  0  0  0  0  0
   16.9323   70.7159   -5.8320 C   0  0  2  0  0  0  0  0  0  0  0  0
   16.0358   69.6061   -2.6900 H   0  0  0  0  0  0  0  0  0  0  0  0
   17.7471   68.1688   -3.9339 H   0  0  0  0  0  0  0  0  0  0  0  0
   15.5258   70.7811   -8.2806 O   0  0  0  0  0  0  0  0  0  0  0  0
   19.3938   70.2400  -10.7273 O   0  0  0  0  0  0  0  0  0  0  0  0
   17.5468   70.5947   -7.1240 N   0  0  0  0  0  0  0  0  0  0  0  0
   17.4529   70.5118   -9.4969 N   0  0  0  0  0  0  0  0  0  0  0  0
   16.7503   70.6392   -8.2919 C   0  0  0  0  0  0  0  0  0  0  0  0
   18.9245   70.4342   -7.2237 C   0  0  0  0  0  0  0  0  0  0  0  0
   19.5792   70.3128   -8.3804 C   0  0  0  0  0  0  0  0  0  0  0  0
   18.8209   70.3490   -9.6476 C   0  0  0  0  0  0  0  0  0  0  0  0
   16.9186   70.5395  -10.3237 H   0  0  0  0  0  0  0  0  0  0  0  0
   21.9256   73.1570   -3.3002 O   0  0  0  0  0  0  0  0  0  0  0  0
   23.5112   73.4342   -3.1513 P   0  0  2  0  0  0  0  0  0  0  0  0
   23.6323   75.0304   -3.3861 O   0  0  0  0  0  0  0  0  0  0  0  0
   24.3689   72.6071   -4.0646 O   0  0  0  0  0  0  0  0  0  0  0  0
   23.8159   73.2291   -1.5797 O   0  0  0  0  0  0  0  0  0  0  0  0
   22.3152   73.2300    0.2545 O   0  0  0  0  0  0  0  0  0  0  0  0
   25.5776   74.9934    2.0704 O   0  0  0  0  0  0  0  0  0  0  0  0
   24.8698   72.2920    2.7410 O   0  0  0  0  0  0  0  0  0  0  0  0
   24.9278   75.6416   -0.6749 O   0  0  0  0  0  0  0  0  0  0  0  0
   24.9095   74.0999    1.1756 C   0  0  1  0  0  0  0  0  0  0  0  0
   24.0222   73.1675    2.0026 C   0  0  1  0  0  0  0  0  0  0  0  0
   24.0674   74.9133    0.1945 C   0  0  2  0  0  0  0  0  0  0  0  0
   23.0754   72.3617    1.1030 C   0  0  1  0  0  0  0  0  0  0  0  0
   23.1259   74.0211   -0.6165 C   0  0  1  0  0  0  0  0  0  0  0  0
   26.1145   74.4833    2.6958 H   0  0  0  0  0  0  0  0  0  0  0  0
   25.4629   72.8134    3.3046 H   0  0  0  0  0  0  0  0  0  0  0  0
   25.5185   76.2027   -0.1495 H   0  0  0  0  0  0  0  0  0  0  0  0
   21.9481   72.1295    3.1968 O   0  0  0  0  0  0  0  0  0  0  0  0
   22.0743   71.5425    1.9147 C   0  0  0  0  0  0  0  0  0  0  0  0
   21.3138   71.6188    3.7246 H   0  0  0  0  0  0  0  0  0  0  0  0
 25 28  1  0
 25 24  1  0
 25 26  1  6
 25 27  2  0
  1  4  1  0
  1 24  1  0
  1  2  1  6
  1  3  2  0
  6 11  1  0
  6 12  1  0
 29 36  1  0
 29 37  1  0
  9  7  1  6
  7 13  1  0
 10  8  1  1
  8 14  1  0
 37 28  1  6
  4  5  1  0
 33 30  1  1
 30 38  1  0
 34 31  1  6
 31 39  1  0
 35 32  1  6
 32 40  1  0
 41 42  1  0
 41 43  1  0
 15 19  2  0
 16 22  2  0
 12 17  1  6
 17 19  1  0
 17 20  1  0
 18 19  1  0
 18 22  1  0
 18 23  1  0
  9 10  1  0
  9 11  1  0
 10 12  1  0
 11  5  1  6
 33 34  1  0
 33 35  1  0
 34 36  1  0
 35 37  1  0
 36 42  1  1
 20 21  2  0
 21 22  1  0
M  CHG  2   2  -1  26  -1
M  END
>  <COMPND>  (287) 
    8629 

>  <AUTHOR>  (287) 
    GENERATED BY OPEN BABEL 3.1.1

>  <MASTER>  (287) 
        0    0    0    0    0    0    0    0   58    0   58    0

>  <minimizedAffinity>  (287) 
-6.80660

>  <CNNscore>  (287) 
0.8334226012

>  <CNNaffinity>  (287) 
4.5027809143

>  <CNN_VS>  (287) 
3.7527194023

>  <CNNaffinity_variance>  (287) 
0.0241457969

$$$$
288
     RDKit          3D

 43 45  0  0  0  0  0  0  0  0999 V2000
   22.9743   73.1647   -4.2979 P   0  0  2  0  0  0  0  0  0  0  0  0
   23.4305   74.1032   -5.5342 O   0  0  0  0  0  0  0  0  0  0  0  0
   24.0061   72.1773   -3.8374 O   0  0  0  0  0  0  0  0  0  0  0  0
   21.5673   72.5337   -4.7878 O   0  0  0  0  0  0  0  0  0  0  0  0
   20.9863   71.4967   -4.0164 C   0  0  0  0  0  0  0  0  0  0  0  0
   18.9383   72.2373   -5.0319 O   0  0  0  0  0  0  0  0  0  0  0  0
   17.5540   71.1025   -2.6263 O   0  0  0  0  0  0  0  0  0  0  0  0
   17.1535   69.1707   -4.5090 O   0  0  0  0  0  0  0  0  0  0  0  0
   18.7032   70.6172   -3.3184 C   0  0  1  0  0  0  0  0  0  0  0  0
   18.2977   69.9902   -4.6360 C   0  0  2  0  0  0  0  0  0  0  0  0
   19.5181   71.8205   -3.7763 C   0  0  1  0  0  0  0  0  0  0  0  0
   18.0480   71.2125   -5.5030 C   0  0  2  0  0  0  0  0  0  0  0  0
   17.0180   70.3520   -2.3239 H   0  0  0  0  0  0  0  0  0  0  0  0
   17.3631   68.4072   -3.9488 H   0  0  0  0  0  0  0  0  0  0  0  0
   16.1429   70.2404   -7.3479 O   0  0  0  0  0  0  0  0  0  0  0  0
   19.1920   70.2931  -10.8036 O   0  0  0  0  0  0  0  0  0  0  0  0
   18.3168   70.9634   -6.8912 N   0  0  0  0  0  0  0  0  0  0  0  0
   17.6626   70.2676   -9.0671 N   0  0  0  0  0  0  0  0  0  0  0  0
   17.2905   70.4744   -7.7326 C   0  0  0  0  0  0  0  0  0  0  0  0
   19.5863   71.2041   -7.4053 C   0  0  0  0  0  0  0  0  0  0  0  0
   19.9254   71.0005   -8.6800 C   0  0  0  0  0  0  0  0  0  0  0  0
   18.9113   70.4906   -9.6254 C   0  0  0  0  0  0  0  0  0  0  0  0
   16.9640   69.9268   -9.6717 H   0  0  0  0  0  0  0  0  0  0  0  0
   22.5209   74.2365   -3.1760 O   0  0  0  0  0  0  0  0  0  0  0  0
   23.2948   74.8027   -1.8747 P   0  0  2  0  0  0  0  0  0  0  0  0
   22.6777   76.2871   -1.6927 O   0  0  0  0  0  0  0  0  0  0  0  0
   24.7916   74.7633   -1.9833 O   0  0  0  0  0  0  0  0  0  0  0  0
   22.6913   73.9562   -0.6400 O   0  0  0  0  0  0  0  0  0  0  0  0
   23.6747   73.6113    1.4884 O   0  0  0  0  0  0  0  0  0  0  0  0
   21.6659   70.0245    1.1007 O   0  0  0  0  0  0  0  0  0  0  0  0
   20.6959   72.0008    2.9450 O   0  0  0  0  0  0  0  0  0  0  0  0
   22.9459   71.2191   -1.2045 O   0  0  0  0  0  0  0  0  0  0  0  0
   21.8637   71.4314    0.9368 C   0  0  1  0  0  0  0  0  0  0  0  0
   21.9772   72.0646    2.3250 C   0  0  1  0  0  0  0  0  0  0  0  0
   23.1414   71.6655    0.1330 C   0  0  2  0  0  0  0  0  0  0  0  0
   22.4541   73.5203    2.2325 C   0  0  1  0  0  0  0  0  0  0  0  0
   23.5546   73.1383    0.1454 C   0  0  1  0  0  0  0  0  0  0  0  0
   20.8559   69.8690    1.6099 H   0  0  0  0  0  0  0  0  0  0  0  0
   20.4061   71.0764    2.9968 H   0  0  0  0  0  0  0  0  0  0  0  0
   22.6850   70.2854   -1.1988 H   0  0  0  0  0  0  0  0  0  0  0  0
   21.4846   74.3588    4.2489 O   0  0  0  0  0  0  0  0  0  0  0  0
   22.7254   74.1219    3.6097 C   0  0  0  0  0  0  0  0  0  0  0  0
   21.6416   74.7414    5.1267 H   0  0  0  0  0  0  0  0  0  0  0  0
 25 28  1  0
 25 24  1  0
 25 26  1  1
 25 27  2  0
  1  4  1  0
  1 24  1  0
  1  2  1  6
  1  3  2  0
  6 11  1  0
  6 12  1  0
 29 36  1  0
 29 37  1  0
  9  7  1  6
  7 13  1  0
 10  8  1  1
  8 14  1  0
 37 28  1  6
  4  5  1  0
 33 30  1  1
 30 38  1  0
 34 31  1  6
 31 39  1  0
 35 32  1  6
 32 40  1  0
 41 42  1  0
 41 43  1  0
 15 19  2  0
 16 22  2  0
 12 17  1  6
 17 19  1  0
 17 20  1  0
 18 19  1  0
 18 22  1  0
 18 23  1  0
  9 10  1  0
  9 11  1  0
 10 12  1  0
 11  5  1  6
 33 34  1  0
 33 35  1  0
 34 36  1  0
 35 37  1  0
 36 42  1  1
 20 21  2  0
 21 22  1  0
M  CHG  2   2  -1  26  -1
M  END
>  <COMPND>  (288) 
    8629 

>  <AUTHOR>  (288) 
    GENERATED BY OPEN BABEL 3.1.1

>  <MASTER>  (288) 
        0    0    0    0    0    0    0    0   58    0   58    0

>  <minimizedAffinity>  (288) 
-7.46293

>  <CNNscore>  (288) 
0.7722967267

>  <CNNaffinity>  (288) 
4.5305404663

>  <CNN_VS>  (288) 
3.4989216328

>  <CNNaffinity_variance>  (288) 
0.0430761352

$$$$
289
     RDKit          3D

 43 45  0  0  0  0  0  0  0  0999 V2000
   21.9252   71.3042    0.2699 P   0  0  2  0  0  0  0  0  0  0  0  0
   20.6526   72.0971   -0.3378 O   0  0  0  0  0  0  0  0  0  0  0  0
   21.5842   70.1687    1.1896 O   0  0  0  0  0  0  0  0  0  0  0  0
   22.8430   72.4739    0.9080 O   0  0  0  0  0  0  0  0  0  0  0  0
   23.1567   72.4100    2.2884 C   0  0  0  0  0  0  0  0  0  0  0  0
   24.2446   73.8298    3.8928 O   0  0  0  0  0  0  0  0  0  0  0  0
   23.2882   76.1312    2.2256 O   0  0  0  0  0  0  0  0  0  0  0  0
   25.8989   75.8970    1.4735 O   0  0  0  0  0  0  0  0  0  0  0  0
   23.7350   74.8412    1.8112 C   0  0  1  0  0  0  0  0  0  0  0  0
   25.2401   74.7386    1.9435 C   0  0  2  0  0  0  0  0  0  0  0  0
   23.2552   73.8254    2.8405 C   0  0  1  0  0  0  0  0  0  0  0  0
   25.4118   74.5346    3.4392 C   0  0  2  0  0  0  0  0  0  0  0  0
   23.5823   76.7968    1.5834 H   0  0  0  0  0  0  0  0  0  0  0  0
   25.7600   75.9826    0.5174 H   0  0  0  0  0  0  0  0  0  0  0  0
   27.0726   74.9907    5.6779 O   0  0  0  0  0  0  0  0  0  0  0  0
   29.8583   71.4955    4.5535 O   0  0  0  0  0  0  0  0  0  0  0  0
   26.5776   73.7586    3.7559 N   0  0  0  0  0  0  0  0  0  0  0  0
   28.4582   73.2499    5.1163 N   0  0  0  0  0  0  0  0  0  0  0  0
   27.3435   74.0709    4.9032 C   0  0  0  0  0  0  0  0  0  0  0  0
   26.9506   72.7012    2.9334 C   0  0  0  0  0  0  0  0  0  0  0  0
   28.0172   71.9286    3.1499 C   0  0  0  0  0  0  0  0  0  0  0  0
   28.8708   72.1879    4.3272 C   0  0  0  0  0  0  0  0  0  0  0  0
   29.0070   73.4489    5.9094 H   0  0  0  0  0  0  0  0  0  0  0  0
   22.7509   70.8747   -1.0517 O   0  0  0  0  0  0  0  0  0  0  0  0
   22.9888   71.6463   -2.4521 P   0  0  2  0  0  0  0  0  0  0  0  0
   24.2785   70.8942   -3.0756 O   0  0  0  0  0  0  0  0  0  0  0  0
   23.1447   73.1333   -2.3166 O   0  0  0  0  0  0  0  0  0  0  0  0
   21.7566   71.1853   -3.3870 O   0  0  0  0  0  0  0  0  0  0  0  0
   20.9129   72.8424   -4.8563 O   0  0  0  0  0  0  0  0  0  0  0  0
   17.7995   70.1372   -5.0551 O   0  0  0  0  0  0  0  0  0  0  0  0
   19.5684   70.4305   -7.2985 O   0  0  0  0  0  0  0  0  0  0  0  0
   19.1459   70.6065   -2.5359 O   0  0  0  0  0  0  0  0  0  0  0  0
   19.1655   70.5456   -4.9437 C   0  0  1  0  0  0  0  0  0  0  0  0
   19.5334   71.3374   -6.2001 C   0  0  1  0  0  0  0  0  0  0  0  0
   19.3274   71.4116   -3.6958 C   0  0  2  0  0  0  0  0  0  0  0  0
   20.8914   72.0336   -6.0383 C   0  0  1  0  0  0  0  0  0  0  0  0
   20.6946   72.0966   -3.6571 C   0  0  1  0  0  0  0  0  0  0  0  0
   17.6900   69.5865   -5.8453 H   0  0  0  0  0  0  0  0  0  0  0  0
   18.7051   69.9974   -7.3894 H   0  0  0  0  0  0  0  0  0  0  0  0
   18.2767   70.1786   -2.5722 H   0  0  0  0  0  0  0  0  0  0  0  0
   21.6771   72.1648   -8.2910 O   0  0  0  0  0  0  0  0  0  0  0  0
   21.2056   72.9549   -7.2150 C   0  0  0  0  0  0  0  0  0  0  0  0
   21.8808   72.7379   -9.0472 H   0  0  0  0  0  0  0  0  0  0  0  0
 25 28  1  0
 25 24  1  0
 25 26  1  6
 25 27  2  0
  1  4  1  0
  1 24  1  0
  1  2  1  6
  1  3  2  0
  6 11  1  0
  6 12  1  0
 29 36  1  0
 29 37  1  0
  9  7  1  1
  7 13  1  0
 10  8  1  1
  8 14  1  0
 37 28  1  6
  4  5  1  0
 33 30  1  6
 30 38  1  0
 34 31  1  6
 31 39  1  0
 35 32  1  1
 32 40  1  0
 41 42  1  0
 41 43  1  0
 15 19  2  0
 16 22  2  0
 12 17  1  6
 17 19  1  0
 17 20  1  0
 18 19  1  0
 18 22  1  0
 18 23  1  0
  9 10  1  0
  9 11  1  0
 10 12  1  0
 11  5  1  6
 33 34  1  0
 33 35  1  0
 34 36  1  0
 35 37  1  0
 36 42  1  6
 20 21  2  0
 21 22  1  0
M  CHG  2   2  -1  26  -1
M  END
>  <COMPND>  (289) 
    8629 

>  <AUTHOR>  (289) 
    GENERATED BY OPEN BABEL 3.1.1

>  <MASTER>  (289) 
        0    0    0    0    0    0    0    0   58    0   58    0

>  <minimizedAffinity>  (289) 
-6.65671

>  <CNNscore>  (289) 
0.7133806348

>  <CNNaffinity>  (289) 
4.2676706314

>  <CNN_VS>  (289) 
3.0444736481

>  <CNNaffinity_variance>  (289) 
0.0254797284

$$$$
290
     RDKit          3D

 43 45  0  0  0  0  0  0  0  0999 V2000
   21.8380   72.4749   -5.5514 P   0  0  2  0  0  0  0  0  0  0  0  0
   21.2426   73.9573   -5.2957 O   0  0  0  0  0  0  0  0  0  0  0  0
   23.0686   72.4253   -6.4084 O   0  0  0  0  0  0  0  0  0  0  0  0
   20.5674   71.6348   -6.0971 O   0  0  0  0  0  0  0  0  0  0  0  0
   20.0022   71.9979   -7.3447 C   0  0  0  0  0  0  0  0  0  0  0  0
   18.7541   69.9876   -6.9268 O   0  0  0  0  0  0  0  0  0  0  0  0
   18.1021   70.0068   -9.8534 O   0  0  0  0  0  0  0  0  0  0  0  0
   15.8264   71.0057   -8.7309 O   0  0  0  0  0  0  0  0  0  0  0  0
   18.2455   71.1048   -8.9538 C   0  0  1  0  0  0  0  0  0  0  0  0
   17.0431   71.1941   -8.0374 C   0  0  2  0  0  0  0  0  0  0  0  0
   19.3654   70.7681   -7.9772 C   0  0  1  0  0  0  0  0  0  0  0  0
   17.3248   70.0842   -7.0389 C   0  0  2  0  0  0  0  0  0  0  0  0
   17.3926   70.1988  -10.4872 H   0  0  0  0  0  0  0  0  0  0  0  0
   15.6925   71.7372   -9.3536 H   0  0  0  0  0  0  0  0  0  0  0  0
   16.4755   68.1054   -5.2110 O   0  0  0  0  0  0  0  0  0  0  0  0
   15.2223   71.2614   -2.0949 O   0  0  0  0  0  0  0  0  0  0  0  0
   16.7730   70.3606   -5.7426 N   0  0  0  0  0  0  0  0  0  0  0  0
   15.8524   69.6784   -3.6609 N   0  0  0  0  0  0  0  0  0  0  0  0
   16.3766   69.2946   -4.9018 C   0  0  0  0  0  0  0  0  0  0  0  0
   16.6300   71.6767   -5.3166 C   0  0  0  0  0  0  0  0  0  0  0  0
   16.1271   72.0260   -4.1307 C   0  0  0  0  0  0  0  0  0  0  0  0
   15.6889   70.9725   -3.1925 C   0  0  0  0  0  0  0  0  0  0  0  0
   15.5692   68.9527   -3.0585 H   0  0  0  0  0  0  0  0  0  0  0  0
   22.0375   71.9000   -4.0538 O   0  0  0  0  0  0  0  0  0  0  0  0
   23.2959   71.9857   -3.0428 P   0  0  2  0  0  0  0  0  0  0  0  0
   23.9651   73.4138   -3.4034 O   0  0  0  0  0  0  0  0  0  0  0  0
   24.2378   70.8201   -3.1326 O   0  0  0  0  0  0  0  0  0  0  0  0
   22.6355   72.2012   -1.5859 O   0  0  0  0  0  0  0  0  0  0  0  0
   23.5463   70.7166    0.0212 O   0  0  0  0  0  0  0  0  0  0  0  0
   20.4139   72.2449    2.2354 O   0  0  0  0  0  0  0  0  0  0  0  0
   23.1057   73.0284    2.8584 O   0  0  0  0  0  0  0  0  0  0  0  0
   20.0600   71.7073   -0.5869 O   0  0  0  0  0  0  0  0  0  0  0  0
   21.4733   72.2865    1.2755 C   0  0  1  0  0  0  0  0  0  0  0  0
   22.7821   71.9455    1.9907 C   0  0  1  0  0  0  0  0  0  0  0  0
   21.1850   71.2730    0.1697 C   0  0  2  0  0  0  0  0  0  0  0  0
   23.9172   71.7087    0.9855 C   0  0  1  0  0  0  0  0  0  0  0  0
   22.3950   71.0758   -0.7452 C   0  0  1  0  0  0  0  0  0  0  0  0
   20.5906   72.8865    2.9401 H   0  0  0  0  0  0  0  0  0  0  0  0
   22.3807   73.1678    3.4878 H   0  0  0  0  0  0  0  0  0  0  0  0
   19.3007   71.8282    0.0035 H   0  0  0  0  0  0  0  0  0  0  0  0
   24.8785   70.0529    2.4149 O   0  0  0  0  0  0  0  0  0  0  0  0
   25.1910   71.2138    1.6673 C   0  0  0  0  0  0  0  0  0  0  0  0
   25.6799   69.7265    2.8542 H   0  0  0  0  0  0  0  0  0  0  0  0
 25 28  1  0
 25 24  1  0
 25 26  1  6
 25 27  2  0
  1  4  1  0
  1 24  1  0
  1  2  1  1
  1  3  2  0
  6 11  1  0
  6 12  1  0
 29 36  1  0
 29 37  1  0
  9  7  1  6
  7 13  1  0
 10  8  1  6
  8 14  1  0
 37 28  1  1
  4  5  1  0
 33 30  1  1
 30 38  1  0
 34 31  1  1
 31 39  1  0
 35 32  1  6
 32 40  1  0
 41 42  1  0
 41 43  1  0
 15 19  2  0
 16 22  2  0
 12 17  1  1
 17 19  1  0
 17 20  1  0
 18 19  1  0
 18 22  1  0
 18 23  1  0
  9 10  1  0
  9 11  1  0
 10 12  1  0
 11  5  1  1
 33 34  1  0
 33 35  1  0
 34 36  1  0
 35 37  1  0
 36 42  1  1
 20 21  2  0
 21 22  1  0
M  CHG  2   2  -1  26  -1
M  END
>  <COMPND>  (290) 
    8629 

>  <AUTHOR>  (290) 
    GENERATED BY OPEN BABEL 3.1.1

>  <MASTER>  (290) 
        0    0    0    0    0    0    0    0   58    0   58    0

>  <minimizedAffinity>  (290) 
-8.37675

>  <CNNscore>  (290) 
0.6937742829

>  <CNNaffinity>  (290) 
4.4654159546

>  <CNN_VS>  (290) 
3.0979907513

>  <CNNaffinity_variance>  (290) 
0.2981528640

$$$$
291
     RDKit          3D

 43 45  0  0  0  0  0  0  0  0999 V2000
   22.0699   71.5923   -2.3776 P   0  0  2  0  0  0  0  0  0  0  0  0
   23.6257   71.6774   -1.9423 O   0  0  0  0  0  0  0  0  0  0  0  0
   21.2338   70.6512   -1.5611 O   0  0  0  0  0  0  0  0  0  0  0  0
   22.1270   71.2846   -3.9651 O   0  0  0  0  0  0  0  0  0  0  0  0
   21.6189   72.2577   -4.8611 C   0  0  0  0  0  0  0  0  0  0  0  0
   20.5161   70.4352   -5.9729 O   0  0  0  0  0  0  0  0  0  0  0  0
   20.8133   72.0369   -8.4903 O   0  0  0  0  0  0  0  0  0  0  0  0
   18.2109   72.4810   -7.8070 O   0  0  0  0  0  0  0  0  0  0  0  0
   20.5548   72.4854   -7.1608 C   0  0  1  0  0  0  0  0  0  0  0  0
   19.1237   72.1788   -6.7715 C   0  0  2  0  0  0  0  0  0  0  0  0
   21.3416   71.5976   -6.2048 C   0  0  1  0  0  0  0  0  0  0  0  0
   19.1915   70.6919   -6.4673 C   0  0  2  0  0  0  0  0  0  0  0  0
   20.3217   72.5892   -9.1190 H   0  0  0  0  0  0  0  0  0  0  0  0
   18.2040   73.4382   -7.9631 H   0  0  0  0  0  0  0  0  0  0  0  0
   16.5420   69.8899   -7.0288 O   0  0  0  0  0  0  0  0  0  0  0  0
   15.6170   69.1817   -2.5697 O   0  0  0  0  0  0  0  0  0  0  0  0
   18.2368   70.2923   -5.4722 N   0  0  0  0  0  0  0  0  0  0  0  0
   16.0836   69.5378   -4.8081 N   0  0  0  0  0  0  0  0  0  0  0  0
   16.9317   69.9086   -5.8594 C   0  0  0  0  0  0  0  0  0  0  0  0
   18.5981   70.2834   -4.1294 C   0  0  0  0  0  0  0  0  0  0  0  0
   17.7771   69.9283   -3.1388 C   0  0  0  0  0  0  0  0  0  0  0  0
   16.3957   69.5137   -3.4580 C   0  0  0  0  0  0  0  0  0  0  0  0
   15.1693   69.2669   -5.0540 H   0  0  0  0  0  0  0  0  0  0  0  0
   21.5924   73.1357   -2.3237 O   0  0  0  0  0  0  0  0  0  0  0  0
   21.1342   74.0623   -1.0809 P   0  0  2  0  0  0  0  0  0  0  0  0
   19.8270   73.2984   -0.5107 O   0  0  0  0  0  0  0  0  0  0  0  0
   20.9031   75.5019   -1.4390 O   0  0  0  0  0  0  0  0  0  0  0  0
   22.2673   73.8265    0.0440 O   0  0  0  0  0  0  0  0  0  0  0  0
   22.6315   71.8300    1.2680 O   0  0  0  0  0  0  0  0  0  0  0  0
   23.8858   74.5717    4.0894 O   0  0  0  0  0  0  0  0  0  0  0  0
   25.8253   72.9462    2.7316 O   0  0  0  0  0  0  0  0  0  0  0  0
   21.5972   75.1635    2.4186 O   0  0  0  0  0  0  0  0  0  0  0  0
   23.7039   74.0501    2.7702 C   0  0  1  0  0  0  0  0  0  0  0  0
   24.4223   72.7021    2.6843 C   0  0  1  0  0  0  0  0  0  0  0  0
   22.2096   73.8811    2.5020 C   0  0  2  0  0  0  0  0  0  0  0  0
   24.0525   71.9586    1.3937 C   0  0  1  0  0  0  0  0  0  0  0  0
   21.9522   73.0863    1.2205 C   0  0  1  0  0  0  0  0  0  0  0  0
   24.8325   74.6819    4.2660 H   0  0  0  0  0  0  0  0  0  0  0  0
   26.0455   73.4165    3.5511 H   0  0  0  0  0  0  0  0  0  0  0  0
   21.7671   75.6566    3.2358 H   0  0  0  0  0  0  0  0  0  0  0  0
   24.9266   70.1504    2.6879 O   0  0  0  0  0  0  0  0  0  0  0  0
   24.6328   70.5464    1.3609 C   0  0  0  0  0  0  0  0  0  0  0  0
   25.2965   69.2532    2.6826 H   0  0  0  0  0  0  0  0  0  0  0  0
 25 28  1  0
 25 24  1  0
 25 26  1  1
 25 27  2  0
  1  4  1  0
  1 24  1  0
  1  2  1  1
  1  3  2  0
  6 11  1  0
  6 12  1  0
 29 36  1  0
 29 37  1  0
  9  7  1  6
  7 13  1  0
 10  8  1  6
  8 14  1  0
 37 28  1  6
  4  5  1  0
 33 30  1  1
 30 38  1  0
 34 31  1  6
 31 39  1  0
 35 32  1  6
 32 40  1  0
 41 42  1  0
 41 43  1  0
 15 19  2  0
 16 22  2  0
 12 17  1  1
 17 19  1  0
 17 20  1  0
 18 19  1  0
 18 22  1  0
 18 23  1  0
  9 10  1  0
  9 11  1  0
 10 12  1  0
 11  5  1  1
 33 34  1  0
 33 35  1  0
 34 36  1  0
 35 37  1  0
 36 42  1  1
 20 21  2  0
 21 22  1  0
M  CHG  2   2  -1  26  -1
M  END
>  <COMPND>  (291) 
    8629 

>  <AUTHOR>  (291) 
    GENERATED BY OPEN BABEL 3.1.1

>  <MASTER>  (291) 
        0    0    0    0    0    0    0    0   58    0   58    0

>  <minimizedAffinity>  (291) 
-6.46259

>  <CNNscore>  (291) 
0.6487593055

>  <CNNaffinity>  (291) 
4.3369474411

>  <CNN_VS>  (291) 
2.8136351109

>  <CNNaffinity_variance>  (291) 
0.1061107367

$$$$
292
     RDKit          3D

 43 45  0  0  0  0  0  0  0  0999 V2000
   22.8452   72.2058   -3.2337 P   0  0  2  0  0  0  0  0  0  0  0  0
   22.3508   71.1044   -2.1568 O   0  0  0  0  0  0  0  0  0  0  0  0
   24.2547   72.0309   -3.7177 O   0  0  0  0  0  0  0  0  0  0  0  0
   22.5177   73.6207   -2.5205 O   0  0  0  0  0  0  0  0  0  0  0  0
   21.5626   73.6453   -1.4741 C   0  0  0  0  0  0  0  0  0  0  0  0
   19.4736   73.8112   -2.6497 O   0  0  0  0  0  0  0  0  0  0  0  0
   18.9996   76.3171   -1.0728 O   0  0  0  0  0  0  0  0  0  0  0  0
   17.4827   74.4821    0.2570 O   0  0  0  0  0  0  0  0  0  0  0  0
   19.6406   75.1070   -0.6726 C   0  0  1  0  0  0  0  0  0  0  0  0
   18.6135   74.0164   -0.4509 C   0  0  2  0  0  0  0  0  0  0  0  0
   20.4201   74.5717   -1.8673 C   0  0  1  0  0  0  0  0  0  0  0  0
   18.2821   73.6015   -1.8743 C   0  0  2  0  0  0  0  0  0  0  0  0
   18.4956   76.6781   -0.3260 H   0  0  0  0  0  0  0  0  0  0  0  0
   17.7450   74.7336    1.1563 H   0  0  0  0  0  0  0  0  0  0  0  0
   15.6459   72.6453   -1.5361 O   0  0  0  0  0  0  0  0  0  0  0  0
   16.9415   68.2810   -2.2537 O   0  0  0  0  0  0  0  0  0  0  0  0
   17.9020   72.2201   -1.9678 N   0  0  0  0  0  0  0  0  0  0  0  0
   16.2931   70.4730   -1.8939 N   0  0  0  0  0  0  0  0  0  0  0  0
   16.5512   71.8451   -1.7803 C   0  0  0  0  0  0  0  0  0  0  0  0
   18.8636   71.2539   -2.2430 C   0  0  0  0  0  0  0  0  0  0  0  0
   18.6014   69.9494   -2.3467 C   0  0  0  0  0  0  0  0  0  0  0  0
   17.2147   69.4740   -2.1646 C   0  0  0  0  0  0  0  0  0  0  0  0
   15.3591   70.1883   -1.7667 H   0  0  0  0  0  0  0  0  0  0  0  0
   21.7203   72.1132   -4.3908 O   0  0  0  0  0  0  0  0  0  0  0  0
   21.5184   72.9707   -5.7462 P   0  0  2  0  0  0  0  0  0  0  0  0
   22.7699   72.5140   -6.6641 O   0  0  0  0  0  0  0  0  0  0  0  0
   21.4190   74.4527   -5.5276 O   0  0  0  0  0  0  0  0  0  0  0  0
   20.2286   72.3116   -6.4583 O   0  0  0  0  0  0  0  0  0  0  0  0
   19.2989   70.1419   -6.2474 O   0  0  0  0  0  0  0  0  0  0  0  0
   18.6316   70.7570  -10.2757 O   0  0  0  0  0  0  0  0  0  0  0  0
   16.4198   70.8273   -8.4451 O   0  0  0  0  0  0  0  0  0  0  0  0
   21.0848   71.6952   -9.0587 O   0  0  0  0  0  0  0  0  0  0  0  0
   18.7474   71.1357   -8.9014 C   0  0  1  0  0  0  0  0  0  0  0  0
   17.7143   70.3441   -8.0972 C   0  0  1  0  0  0  0  0  0  0  0  0
   20.1614   70.8237   -8.4151 C   0  0  2  0  0  0  0  0  0  0  0  0
   17.9531   70.4943   -6.5887 C   0  0  1  0  0  0  0  0  0  0  0  0
   20.2781   70.9561   -6.8955 C   0  0  1  0  0  0  0  0  0  0  0  0
   17.7362   70.9529  -10.5908 H   0  0  0  0  0  0  0  0  0  0  0  0
   16.2819   70.7272   -9.4002 H   0  0  0  0  0  0  0  0  0  0  0  0
   21.0013   71.6017  -10.0200 H   0  0  0  0  0  0  0  0  0  0  0  0
   15.8675   70.3182   -5.4363 O   0  0  0  0  0  0  0  0  0  0  0  0
   17.0340   69.5893   -5.7712 C   0  0  0  0  0  0  0  0  0  0  0  0
   15.2730   69.7546   -4.9161 H   0  0  0  0  0  0  0  0  0  0  0  0
 25 28  1  0
 25 24  1  0
 25 26  1  6
 25 27  2  0
  1  4  1  0
  1 24  1  0
  1  2  1  1
  1  3  2  0
  6 11  1  0
  6 12  1  0
 29 36  1  0
 29 37  1  0
  9  7  1  6
  7 13  1  0
 10  8  1  6
  8 14  1  0
 37 28  1  6
  4  5  1  0
 33 30  1  6
 30 38  1  0
 34 31  1  1
 31 39  1  0
 35 32  1  6
 32 40  1  0
 41 42  1  0
 41 43  1  0
 15 19  2  0
 16 22  2  0
 12 17  1  1
 17 19  1  0
 17 20  1  0
 18 19  1  0
 18 22  1  0
 18 23  1  0
  9 10  1  0
  9 11  1  0
 10 12  1  0
 11  5  1  1
 33 34  1  0
 33 35  1  0
 34 36  1  0
 35 37  1  0
 36 42  1  1
 20 21  2  0
 21 22  1  0
M  CHG  2   2  -1  26  -1
M  END
>  <COMPND>  (292) 
    8629 

>  <AUTHOR>  (292) 
    GENERATED BY OPEN BABEL 3.1.1

>  <MASTER>  (292) 
        0    0    0    0    0    0    0    0   58    0   58    0

>  <minimizedAffinity>  (292) 
-6.66663

>  <CNNscore>  (292) 
0.6389278769

>  <CNNaffinity>  (292) 
4.2373590469

>  <CNN_VS>  (292) 
2.7073667049

>  <CNNaffinity_variance>  (292) 
0.4861480594

$$$$
293
     RDKit          3D

 43 45  0  0  0  0  0  0  0  0999 V2000
   23.4978   72.2719   -3.4319 P   0  0  2  0  0  0  0  0  0  0  0  0
   24.1031   70.7882   -3.2095 O   0  0  0  0  0  0  0  0  0  0  0  0
   24.4673   73.2759   -3.9829 O   0  0  0  0  0  0  0  0  0  0  0  0
   22.8408   72.6420   -2.0003 O   0  0  0  0  0  0  0  0  0  0  0  0
   23.5843   73.4486   -1.1034 C   0  0  0  0  0  0  0  0  0  0  0  0
   22.9598   73.3115    1.2128 O   0  0  0  0  0  0  0  0  0  0  0  0
   24.0147   70.5057    1.1377 O   0  0  0  0  0  0  0  0  0  0  0  0
   21.3198   70.1327    0.9508 O   0  0  0  0  0  0  0  0  0  0  0  0
   23.3230   71.2369    0.1266 C   0  0  1  0  0  0  0  0  0  0  0  0
   21.8531   71.3508    0.4727 C   0  0  2  0  0  0  0  0  0  0  0  0
   23.7808   72.6882    0.2009 C   0  0  1  0  0  0  0  0  0  0  0  0
   21.8622   72.4405    1.5314 C   0  0  2  0  0  0  0  0  0  0  0  0
   23.7390   69.5756    1.1097 H   0  0  0  0  0  0  0  0  0  0  0  0
   21.3357   69.4719    0.2410 H   0  0  0  0  0  0  0  0  0  0  0  0
   20.7470   73.6372    3.8340 O   0  0  0  0  0  0  0  0  0  0  0  0
   17.1964   75.3512    1.4473 O   0  0  0  0  0  0  0  0  0  0  0  0
   20.6473   73.2056    1.5404 N   0  0  0  0  0  0  0  0  0  0  0  0
   18.9800   74.4898    2.6437 N   0  0  0  0  0  0  0  0  0  0  0  0
   20.1728   73.7631    2.7505 C   0  0  0  0  0  0  0  0  0  0  0  0
   19.9400   73.3967    0.3584 C   0  0  0  0  0  0  0  0  0  0  0  0
   18.8035   74.0913    0.2737 C   0  0  0  0  0  0  0  0  0  0  0  0
   18.2397   74.7068    1.4924 C   0  0  0  0  0  0  0  0  0  0  0  0
   18.6302   74.8872    3.4741 H   0  0  0  0  0  0  0  0  0  0  0  0
   22.2061   72.0014   -4.3653 O   0  0  0  0  0  0  0  0  0  0  0  0
   20.7441   72.6907   -4.3802 P   0  0  2  0  0  0  0  0  0  0  0  0
   21.0789   74.2683   -4.5082 O   0  0  0  0  0  0  0  0  0  0  0  0
   19.8835   72.3338   -3.2030 O   0  0  0  0  0  0  0  0  0  0  0  0
   20.1178   72.2894   -5.8127 O   0  0  0  0  0  0  0  0  0  0  0  0
   19.2994   70.0729   -5.9975 O   0  0  0  0  0  0  0  0  0  0  0  0
   19.4778   71.0469  -10.0063 O   0  0  0  0  0  0  0  0  0  0  0  0
   16.9239   70.8484   -8.7076 O   0  0  0  0  0  0  0  0  0  0  0  0
   21.5495   71.9633   -8.2042 O   0  0  0  0  0  0  0  0  0  0  0  0
   19.2718   71.2953   -8.6130 C   0  0  1  0  0  0  0  0  0  0  0  0
   18.1405   70.3876   -8.1262 C   0  0  1  0  0  0  0  0  0  0  0  0
   20.5645   70.9963   -7.8562 C   0  0  2  0  0  0  0  0  0  0  0  0
   18.0396   70.4009   -6.5949 C   0  0  1  0  0  0  0  0  0  0  0  0
   20.3433   70.9857   -6.3426 C   0  0  1  0  0  0  0  0  0  0  0  0
   18.6608   71.2353  -10.4926 H   0  0  0  0  0  0  0  0  0  0  0  0
   17.0011   70.8356   -9.6746 H   0  0  0  0  0  0  0  0  0  0  0  0
   21.6805   71.9600   -9.1647 H   0  0  0  0  0  0  0  0  0  0  0  0
   15.7380   69.7619   -6.5370 O   0  0  0  0  0  0  0  0  0  0  0  0
   17.0235   69.3838   -6.0799 C   0  0  0  0  0  0  0  0  0  0  0  0
   15.0810   69.1233   -6.2170 H   0  0  0  0  0  0  0  0  0  0  0  0
 25 28  1  0
 25 24  1  0
 25 26  1  6
 25 27  2  0
  1  4  1  0
  1 24  1  0
  1  2  1  1
  1  3  2  0
  6 11  1  0
  6 12  1  0
 29 36  1  0
 29 37  1  0
  9  7  1  1
  7 13  1  0
 10  8  1  1
  8 14  1  0
 37 28  1  6
  4  5  1  0
 33 30  1  6
 30 38  1  0
 34 31  1  6
 31 39  1  0
 35 32  1  1
 32 40  1  0
 41 42  1  0
 41 43  1  0
 15 19  2  0
 16 22  2  0
 12 17  1  6
 17 19  1  0
 17 20  1  0
 18 19  1  0
 18 22  1  0
 18 23  1  0
  9 10  1  0
  9 11  1  0
 10 12  1  0
 11  5  1  6
 33 34  1  0
 33 35  1  0
 34 36  1  0
 35 37  1  0
 36 42  1  6
 20 21  2  0
 21 22  1  0
M  CHG  2   2  -1  26  -1
M  END
>  <COMPND>  (293) 
    8629 

>  <AUTHOR>  (293) 
    GENERATED BY OPEN BABEL 3.1.1

>  <MASTER>  (293) 
        0    0    0    0    0    0    0    0   58    0   58    0

>  <minimizedAffinity>  (293) 
-7.50858

>  <CNNscore>  (293) 
0.6374022365

>  <CNNaffinity>  (293) 
4.1862344742

>  <CNN_VS>  (293) 
2.6683151722

>  <CNNaffinity_variance>  (293) 
0.1871574223

$$$$
294
     RDKit          3D

 43 45  0  0  0  0  0  0  0  0999 V2000
   21.6174   72.4299   -5.5383 P   0  0  2  0  0  0  0  0  0  0  0  0
   21.2043   73.9836   -5.3569 O   0  0  0  0  0  0  0  0  0  0  0  0
   22.9191   72.1990   -6.2482 O   0  0  0  0  0  0  0  0  0  0  0  0
   20.3145   71.7591   -6.2240 O   0  0  0  0  0  0  0  0  0  0  0  0
   20.0594   72.0228   -7.5927 C   0  0  0  0  0  0  0  0  0  0  0  0
   18.8653   69.9807   -7.1711 O   0  0  0  0  0  0  0  0  0  0  0  0
   18.1279   70.0315  -10.0771 O   0  0  0  0  0  0  0  0  0  0  0  0
   15.8660   70.9653   -8.8735 O   0  0  0  0  0  0  0  0  0  0  0  0
   18.2750   71.1182   -9.1645 C   0  0  1  0  0  0  0  0  0  0  0  0
   17.0983   71.1683   -8.2124 C   0  0  2  0  0  0  0  0  0  0  0  0
   19.4296   70.7899   -8.2262 C   0  0  1  0  0  0  0  0  0  0  0  0
   17.4316   70.0493   -7.2404 C   0  0  2  0  0  0  0  0  0  0  0  0
   17.3963   70.2184  -10.6869 H   0  0  0  0  0  0  0  0  0  0  0  0
   15.6991   71.7033   -9.4803 H   0  0  0  0  0  0  0  0  0  0  0  0
   16.4456   68.0422   -5.5150 O   0  0  0  0  0  0  0  0  0  0  0  0
   15.4628   71.1054   -2.2147 O   0  0  0  0  0  0  0  0  0  0  0  0
   16.9124   70.2942   -5.9244 N   0  0  0  0  0  0  0  0  0  0  0  0
   15.9572   69.5690   -3.8730 N   0  0  0  0  0  0  0  0  0  0  0  0
   16.4410   69.2163   -5.1393 C   0  0  0  0  0  0  0  0  0  0  0  0
   16.8745   71.5914   -5.4247 C   0  0  0  0  0  0  0  0  0  0  0  0
   16.4088   71.9112   -4.2156 C   0  0  0  0  0  0  0  0  0  0  0  0
   15.8976   70.8436   -3.3320 C   0  0  0  0  0  0  0  0  0  0  0  0
   15.6233   68.8345   -3.3085 H   0  0  0  0  0  0  0  0  0  0  0  0
   21.5657   71.8611   -4.0261 O   0  0  0  0  0  0  0  0  0  0  0  0
   20.3893   71.8972   -2.9181 P   0  0  2  0  0  0  0  0  0  0  0  0
   19.7613   70.4081   -2.9950 O   0  0  0  0  0  0  0  0  0  0  0  0
   19.3913   73.0012   -3.1159 O   0  0  0  0  0  0  0  0  0  0  0  0
   21.1630   71.9406   -1.5022 O   0  0  0  0  0  0  0  0  0  0  0  0
   21.0751   72.8182    0.6975 O   0  0  0  0  0  0  0  0  0  0  0  0
   24.5432   74.6434   -0.6030 O   0  0  0  0  0  0  0  0  0  0  0  0
   24.6977   72.4980    1.3000 O   0  0  0  0  0  0  0  0  0  0  0  0
   22.3069   74.3351   -2.4149 O   0  0  0  0  0  0  0  0  0  0  0  0
   23.5809   73.5894   -0.5117 C   0  0  1  0  0  0  0  0  0  0  0  0
   23.4823   73.1554    0.9521 C   0  0  1  0  0  0  0  0  0  0  0  0
   22.2315   74.1008   -1.0128 C   0  0  2  0  0  0  0  0  0  0  0  0
   22.2863   72.2196    1.1732 C   0  0  1  0  0  0  0  0  0  0  0  0
   21.1029   73.1168   -0.6996 C   0  0  1  0  0  0  0  0  0  0  0  0
   25.4024   74.3251   -0.2867 H   0  0  0  0  0  0  0  0  0  0  0  0
   25.4450   73.0995    1.1554 H   0  0  0  0  0  0  0  0  0  0  0  0
   23.0248   74.9597   -2.6001 H   0  0  0  0  0  0  0  0  0  0  0  0
   20.7142   72.1238    2.9699 O   0  0  0  0  0  0  0  0  0  0  0  0
   22.0755   71.9004    2.6516 C   0  0  0  0  0  0  0  0  0  0  0  0
   20.5651   71.9244    3.9078 H   0  0  0  0  0  0  0  0  0  0  0  0
 25 28  1  0
 25 24  1  0
 25 26  1  1
 25 27  2  0
  1  4  1  0
  1 24  1  0
  1  2  1  1
  1  3  2  0
  6 11  1  0
  6 12  1  0
 29 36  1  0
 29 37  1  0
  9  7  1  6
  7 13  1  0
 10  8  1  6
  8 14  1  0
 37 28  1  6
  4  5  1  0
 33 30  1  1
 30 38  1  0
 34 31  1  6
 31 39  1  0
 35 32  1  6
 32 40  1  0
 41 42  1  0
 41 43  1  0
 15 19  2  0
 16 22  2  0
 12 17  1  1
 17 19  1  0
 17 20  1  0
 18 19  1  0
 18 22  1  0
 18 23  1  0
  9 10  1  0
  9 11  1  0
 10 12  1  0
 11  5  1  1
 33 34  1  0
 33 35  1  0
 34 36  1  0
 35 37  1  0
 36 42  1  1
 20 21  2  0
 21 22  1  0
M  CHG  2   2  -1  26  -1
M  END
>  <COMPND>  (294) 
    8629 

>  <AUTHOR>  (294) 
    GENERATED BY OPEN BABEL 3.1.1

>  <MASTER>  (294) 
        0    0    0    0    0    0    0    0   58    0   58    0

>  <minimizedAffinity>  (294) 
-7.10210

>  <CNNscore>  (294) 
0.6129130721

>  <CNNaffinity>  (294) 
4.3173480034

>  <CNN_VS>  (294) 
2.6461589336

>  <CNNaffinity_variance>  (294) 
0.2486236542

$$$$
295
     RDKit          3D

 43 45  0  0  0  0  0  0  0  0999 V2000
   22.9252   73.5708   -4.2428 P   0  0  2  0  0  0  0  0  0  0  0  0
   24.1482   72.5224   -4.3922 O   0  0  0  0  0  0  0  0  0  0  0  0
   23.0383   74.8020   -5.0930 O   0  0  0  0  0  0  0  0  0  0  0  0
   22.8241   73.8250   -2.6481 O   0  0  0  0  0  0  0  0  0  0  0  0
   22.2393   75.0323   -2.1916 C   0  0  0  0  0  0  0  0  0  0  0  0
   20.9474   73.3700   -1.0334 O   0  0  0  0  0  0  0  0  0  0  0  0
   19.1663   75.6234   -0.1728 O   0  0  0  0  0  0  0  0  0  0  0  0
   20.6966   75.1955    2.0435 O   0  0  0  0  0  0  0  0  0  0  0  0
   20.5819   75.6093   -0.3496 C   0  0  1  0  0  0  0  0  0  0  0  0
   21.2462   74.8591    0.7859 C   0  0  2  0  0  0  0  0  0  0  0  0
   20.8965   74.7195   -1.5457 C   0  0  1  0  0  0  0  0  0  0  0  0
   20.9861   73.4122    0.4024 C   0  0  2  0  0  0  0  0  0  0  0  0
   18.9410   76.1857    0.5855 H   0  0  0  0  0  0  0  0  0  0  0  0
   20.8886   76.1253    2.2422 H   0  0  0  0  0  0  0  0  0  0  0  0
   20.9981   72.1673    2.9378 O   0  0  0  0  0  0  0  0  0  0  0  0
   24.9966   70.0425    2.0787 O   0  0  0  0  0  0  0  0  0  0  0  0
   22.0178   72.5285    0.8673 N   0  0  0  0  0  0  0  0  0  0  0  0
   22.9890   71.1102    2.5079 N   0  0  0  0  0  0  0  0  0  0  0  0
   21.9291   71.9565    2.1578 C   0  0  0  0  0  0  0  0  0  0  0  0
   23.1020   72.2368    0.0468 C   0  0  0  0  0  0  0  0  0  0  0  0
   24.1052   71.4287    0.3961 C   0  0  0  0  0  0  0  0  0  0  0  0
   24.0891   70.7903    1.7281 C   0  0  0  0  0  0  0  0  0  0  0  0
   22.9488   70.7005    3.4025 H   0  0  0  0  0  0  0  0  0  0  0  0
   21.6257   72.6593   -4.5485 O   0  0  0  0  0  0  0  0  0  0  0  0
   20.0909   73.0663   -4.8514 P   0  0  2  0  0  0  0  0  0  0  0  0
   20.1535   74.6776   -4.9835 O   0  0  0  0  0  0  0  0  0  0  0  0
   19.1089   72.5662   -3.8318 O   0  0  0  0  0  0  0  0  0  0  0  0
   19.8189   72.5444   -6.3543 O   0  0  0  0  0  0  0  0  0  0  0  0
   19.1334   70.2783   -6.2468 O   0  0  0  0  0  0  0  0  0  0  0  0
   19.3246   70.7160  -10.3484 O   0  0  0  0  0  0  0  0  0  0  0  0
   16.7644   70.5411   -9.0588 O   0  0  0  0  0  0  0  0  0  0  0  0
   21.3082   71.9873   -8.6665 O   0  0  0  0  0  0  0  0  0  0  0  0
   19.0804   71.1359   -9.0032 C   0  0  1  0  0  0  0  0  0  0  0  0
   17.9953   70.2356   -8.4093 C   0  0  1  0  0  0  0  0  0  0  0  0
   20.3750   71.0184   -8.2009 C   0  0  2  0  0  0  0  0  0  0  0  0
   17.8673   70.4476   -6.8948 C   0  0  1  0  0  0  0  0  0  0  0  0
   20.1286   71.1973   -6.7017 C   0  0  1  0  0  0  0  0  0  0  0  0
   18.5066   70.7886  -10.8633 H   0  0  0  0  0  0  0  0  0  0  0  0
   16.8589   70.4036  -10.0145 H   0  0  0  0  0  0  0  0  0  0  0  0
   21.4559   71.8633   -9.6166 H   0  0  0  0  0  0  0  0  0  0  0  0
   15.6055   69.6873   -6.7715 O   0  0  0  0  0  0  0  0  0  0  0  0
   16.9029   69.4498   -6.2571 C   0  0  0  0  0  0  0  0  0  0  0  0
   14.9811   69.0592   -6.3747 H   0  0  0  0  0  0  0  0  0  0  0  0
 25 28  1  0
 25 24  1  0
 25 26  1  6
 25 27  2  0
  1  4  1  0
  1 24  1  0
  1  2  1  1
  1  3  2  0
  6 11  1  0
  6 12  1  0
 29 36  1  0
 29 37  1  0
  9  7  1  1
  7 13  1  0
 10  8  1  1
  8 14  1  0
 37 28  1  6
  4  5  1  0
 33 30  1  6
 30 38  1  0
 34 31  1  6
 31 39  1  0
 35 32  1  6
 32 40  1  0
 41 42  1  0
 41 43  1  0
 15 19  2  0
 16 22  2  0
 12 17  1  6
 17 19  1  0
 17 20  1  0
 18 19  1  0
 18 22  1  0
 18 23  1  0
  9 10  1  0
  9 11  1  0
 10 12  1  0
 11  5  1  1
 33 34  1  0
 33 35  1  0
 34 36  1  0
 35 37  1  0
 36 42  1  1
 20 21  2  0
 21 22  1  0
M  CHG  2   2  -1  26  -1
M  END
>  <COMPND>  (295) 
    8629 

>  <AUTHOR>  (295) 
    GENERATED BY OPEN BABEL 3.1.1

>  <MASTER>  (295) 
        0    0    0    0    0    0    0    0   58    0   58    0

>  <minimizedAffinity>  (295) 
-7.25124

>  <CNNscore>  (295) 
0.5927141905

>  <CNNaffinity>  (295) 
4.2691206932

>  <CNN_VS>  (295) 
2.5303683281

>  <CNNaffinity_variance>  (295) 
0.2396002263

$$$$
296
     RDKit          3D

 43 45  0  0  0  0  0  0  0  0999 V2000
   23.0747   71.5704   -2.6950 P   0  0  2  0  0  0  0  0  0  0  0  0
   23.2004   73.1534   -2.3855 O   0  0  0  0  0  0  0  0  0  0  0  0
   24.3232   70.9267   -3.2227 O   0  0  0  0  0  0  0  0  0  0  0  0
   21.7720   71.4634   -3.6487 O   0  0  0  0  0  0  0  0  0  0  0  0
   21.5792   72.4539   -4.6435 C   0  0  0  0  0  0  0  0  0  0  0  0
   20.5954   70.5871   -5.7927 O   0  0  0  0  0  0  0  0  0  0  0  0
   20.9797   72.1730   -8.3082 O   0  0  0  0  0  0  0  0  0  0  0  0
   18.3314   72.5415   -7.7720 O   0  0  0  0  0  0  0  0  0  0  0  0
   20.6353   72.6259   -6.9999 C   0  0  1  0  0  0  0  0  0  0  0  0
   19.1953   72.2782   -6.6852 C   0  0  2  0  0  0  0  0  0  0  0  0
   21.3960   71.7725   -5.9927 C   0  0  1  0  0  0  0  0  0  0  0  0
   19.2924   70.7971   -6.3610 C   0  0  2  0  0  0  0  0  0  0  0  0
   20.5062   72.7035   -8.9688 H   0  0  0  0  0  0  0  0  0  0  0  0
   18.3034   73.4965   -7.9390 H   0  0  0  0  0  0  0  0  0  0  0  0
   16.7053   69.9018   -7.0564 O   0  0  0  0  0  0  0  0  0  0  0  0
   15.5592   69.2129   -2.6458 O   0  0  0  0  0  0  0  0  0  0  0  0
   18.2977   70.3773   -5.4146 N   0  0  0  0  0  0  0  0  0  0  0  0
   16.1368   69.5593   -4.8597 N   0  0  0  0  0  0  0  0  0  0  0  0
   17.0291   69.9463   -5.8677 C   0  0  0  0  0  0  0  0  0  0  0  0
   18.5845   70.3952   -4.0539 C   0  0  0  0  0  0  0  0  0  0  0  0
   17.7221   70.0242   -3.1053 C   0  0  0  0  0  0  0  0  0  0  0  0
   16.3746   69.5606   -3.4943 C   0  0  0  0  0  0  0  0  0  0  0  0
   15.2467   69.2557   -5.1517 H   0  0  0  0  0  0  0  0  0  0  0  0
   22.5479   70.9663   -1.2913 O   0  0  0  0  0  0  0  0  0  0  0  0
   21.6545   71.6295   -0.1187 P   0  0  2  0  0  0  0  0  0  0  0  0
   21.2332   70.3591    0.7903 O   0  0  0  0  0  0  0  0  0  0  0  0
   20.4971   72.4471   -0.6147 O   0  0  0  0  0  0  0  0  0  0  0  0
   22.7111   72.4465    0.7873 O   0  0  0  0  0  0  0  0  0  0  0  0
   21.8777   74.0886    2.2792 O   0  0  0  0  0  0  0  0  0  0  0  0
   25.8097   75.3306    2.0606 O   0  0  0  0  0  0  0  0  0  0  0  0
   24.8536   74.0647    4.4546 O   0  0  0  0  0  0  0  0  0  0  0  0
   24.4767   74.3331   -0.3075 O   0  0  0  0  0  0  0  0  0  0  0  0
   24.7439   74.3772    2.0858 C   0  0  1  0  0  0  0  0  0  0  0  0
   23.9980   74.5269    3.4132 C   0  0  1  0  0  0  0  0  0  0  0  0
   23.8070   74.6447    0.9094 C   0  0  2  0  0  0  0  0  0  0  0  0
   22.6871   73.7291    3.4050 C   0  0  1  0  0  0  0  0  0  0  0  0
   22.5123   73.8379    1.0237 C   0  0  1  0  0  0  0  0  0  0  0  0
   26.4086   75.1660    2.8047 H   0  0  0  0  0  0  0  0  0  0  0  0
   25.6779   74.5763    4.4485 H   0  0  0  0  0  0  0  0  0  0  0  0
   25.2944   74.8504   -0.3681 H   0  0  0  0  0  0  0  0  0  0  0  0
   22.1280   75.2990    5.1172 O   0  0  0  0  0  0  0  0  0  0  0  0
   21.8514   73.9892    4.6564 C   0  0  0  0  0  0  0  0  0  0  0  0
   21.6028   75.4786    5.9132 H   0  0  0  0  0  0  0  0  0  0  0  0
 25 28  1  0
 25 24  1  0
 25 26  1  1
 25 27  2  0
  1  4  1  0
  1 24  1  0
  1  2  1  1
  1  3  2  0
  6 11  1  0
  6 12  1  0
 29 36  1  0
 29 37  1  0
  9  7  1  6
  7 13  1  0
 10  8  1  6
  8 14  1  0
 37 28  1  1
  4  5  1  0
 33 30  1  1
 30 38  1  0
 34 31  1  1
 31 39  1  0
 35 32  1  6
 32 40  1  0
 41 42  1  0
 41 43  1  0
 15 19  2  0
 16 22  2  0
 12 17  1  1
 17 19  1  0
 17 20  1  0
 18 19  1  0
 18 22  1  0
 18 23  1  0
  9 10  1  0
  9 11  1  0
 10 12  1  0
 11  5  1  1
 33 34  1  0
 33 35  1  0
 34 36  1  0
 35 37  1  0
 36 42  1  1
 20 21  2  0
 21 22  1  0
M  CHG  2   2  -1  26  -1
M  END
>  <COMPND>  (296) 
    8629 

>  <AUTHOR>  (296) 
    GENERATED BY OPEN BABEL 3.1.1

>  <MASTER>  (296) 
        0    0    0    0    0    0    0    0   58    0   58    0

>  <minimizedAffinity>  (296) 
-6.99686

>  <CNNscore>  (296) 
0.5811365247

>  <CNNaffinity>  (296) 
4.1789159775

>  <CNN_VS>  (296) 
2.4285206795

>  <CNNaffinity_variance>  (296) 
0.1782156378

$$$$
297
     RDKit          3D

 43 45  0  0  0  0  0  0  0  0999 V2000
   16.7218   69.7962   -3.0182 P   0  0  2  0  0  0  0  0  0  0  0  0
   17.1752   68.7049   -4.1231 O   0  0  0  0  0  0  0  0  0  0  0  0
   17.8452   70.4103   -2.2356 O   0  0  0  0  0  0  0  0  0  0  0  0
   15.5988   69.0232   -2.1468 O   0  0  0  0  0  0  0  0  0  0  0  0
   15.1003   69.6500   -0.9779 C   0  0  0  0  0  0  0  0  0  0  0  0
   12.8146   68.9188   -0.8554 O   0  0  0  0  0  0  0  0  0  0  0  0
   12.0760   71.8231   -0.9583 O   0  0  0  0  0  0  0  0  0  0  0  0
   11.8348   71.2421    1.6952 O   0  0  0  0  0  0  0  0  0  0  0  0
   13.1897   71.1974   -0.3231 C   0  0  1  0  0  0  0  0  0  0  0  0
   12.7424   70.4750    0.9306 C   0  0  2  0  0  0  0  0  0  0  0  0
   13.6479   70.0448   -1.2080 C   0  0  1  0  0  0  0  0  0  0  0  0
   12.1094   69.2171    0.3605 C   0  0  2  0  0  0  0  0  0  0  0  0
   11.7660   72.5628   -0.4118 H   0  0  0  0  0  0  0  0  0  0  0  0
   12.2847   72.0310    2.0356 H   0  0  0  0  0  0  0  0  0  0  0  0
    9.9629   67.5236    1.0696 O   0  0  0  0  0  0  0  0  0  0  0  0
   12.6520   64.9486    3.7862 O   0  0  0  0  0  0  0  0  0  0  0  0
   12.2204   68.0962    1.2509 N   0  0  0  0  0  0  0  0  0  0  0  0
   11.3037   66.2427    2.4216 N   0  0  0  0  0  0  0  0  0  0  0  0
   11.0813   67.3101    1.5422 C   0  0  0  0  0  0  0  0  0  0  0  0
   13.4486   67.7861    1.8247 C   0  0  0  0  0  0  0  0  0  0  0  0
   13.6437   66.7656    2.6624 C   0  0  0  0  0  0  0  0  0  0  0  0
   12.5049   65.8948    3.0187 C   0  0  0  0  0  0  0  0  0  0  0  0
   10.5244   65.6814    2.6393 H   0  0  0  0  0  0  0  0  0  0  0  0
   15.8504   70.8482   -3.8826 O   0  0  0  0  0  0  0  0  0  0  0  0
   16.3049   72.0578   -4.8538 P   0  0  2  0  0  0  0  0  0  0  0  0
   17.2963   72.9310   -3.9199 O   0  0  0  0  0  0  0  0  0  0  0  0
   15.1640   72.8358   -5.4428 O   0  0  0  0  0  0  0  0  0  0  0  0
   17.2748   71.3654   -5.9422 O   0  0  0  0  0  0  0  0  0  0  0  0
   18.9748   72.7028   -6.9107 O   0  0  0  0  0  0  0  0  0  0  0  0
   18.8735   69.6502   -9.6896 O   0  0  0  0  0  0  0  0  0  0  0  0
   21.0954   69.8478   -7.8808 O   0  0  0  0  0  0  0  0  0  0  0  0
   16.4119   70.6037   -8.5016 O   0  0  0  0  0  0  0  0  0  0  0  0
   18.7879   70.2265   -8.3835 C   0  0  1  0  0  0  0  0  0  0  0  0
   20.1318   70.8821   -8.0596 C   0  0  1  0  0  0  0  0  0  0  0  0
   17.6663   71.2634   -8.3679 C   0  0  2  0  0  0  0  0  0  0  0  0
   20.0358   71.7474   -6.7958 C   0  0  1  0  0  0  0  0  0  0  0  0
   17.6904   72.1025   -7.0891 C   0  0  1  0  0  0  0  0  0  0  0  0
   19.5835   68.9906   -9.7061 H   0  0  0  0  0  0  0  0  0  0  0  0
   21.1459   69.3085   -8.6857 H   0  0  0  0  0  0  0  0  0  0  0  0
   16.4092   70.0762   -9.3150 H   0  0  0  0  0  0  0  0  0  0  0  0
   22.2339   71.6964   -5.8605 O   0  0  0  0  0  0  0  0  0  0  0  0
   21.3197   72.5347   -6.5429 C   0  0  0  0  0  0  0  0  0  0  0  0
   23.0560   72.1842   -5.6931 H   0  0  0  0  0  0  0  0  0  0  0  0
 25 28  1  0
 25 24  1  0
 25 26  1  1
 25 27  2  0
  1  4  1  0
  1 24  1  0
  1  2  1  6
  1  3  2  0
  6 11  1  0
  6 12  1  0
 29 36  1  0
 29 37  1  0
  9  7  1  6
  7 13  1  0
 10  8  1  6
  8 14  1  0
 37 28  1  1
  4  5  1  0
 33 30  1  6
 30 38  1  0
 34 31  1  1
 31 39  1  0
 35 32  1  1
 32 40  1  0
 41 42  1  0
 41 43  1  0
 15 19  2  0
 16 22  2  0
 12 17  1  1
 17 19  1  0
 17 20  1  0
 18 19  1  0
 18 22  1  0
 18 23  1  0
  9 10  1  0
  9 11  1  0
 10 12  1  0
 11  5  1  1
 33 34  1  0
 33 35  1  0
 34 36  1  0
 35 37  1  0
 36 42  1  6
 20 21  2  0
 21 22  1  0
M  CHG  2   2  -1  26  -1
M  END
>  <COMPND>  (297) 
    8629 

>  <AUTHOR>  (297) 
    GENERATED BY OPEN BABEL 3.1.1

>  <MASTER>  (297) 
        0    0    0    0    0    0    0    0   58    0   58    0

>  <minimizedAffinity>  (297) 
-6.50374

>  <CNNscore>  (297) 
0.5215954185

>  <CNNaffinity>  (297) 
4.1794586182

>  <CNN_VS>  (297) 
2.1799864769

>  <CNNaffinity_variance>  (297) 
0.0444746129

$$$$
298
     RDKit          3D

 43 45  0  0  0  0  0  0  0  0999 V2000
   23.2825   72.1486   -3.5096 P   0  0  2  0  0  0  0  0  0  0  0  0
   23.7347   70.6209   -3.2286 O   0  0  0  0  0  0  0  0  0  0  0  0
   24.3451   73.0247   -4.1052 O   0  0  0  0  0  0  0  0  0  0  0  0
   22.6783   72.6419   -2.0920 O   0  0  0  0  0  0  0  0  0  0  0  0
   23.5394   72.6824   -0.9674 C   0  0  0  0  0  0  0  0  0  0  0  0
   24.5050   71.2179    0.6747 O   0  0  0  0  0  0  0  0  0  0  0  0
   21.7179   70.2200    1.1510 O   0  0  0  0  0  0  0  0  0  0  0  0
   22.1027   71.9289    3.2411 O   0  0  0  0  0  0  0  0  0  0  0  0
   22.1632   71.5397    0.8419 C   0  0  1  0  0  0  0  0  0  0  0  0
   22.8253   72.1678    2.0504 C   0  0  2  0  0  0  0  0  0  0  0  0
   23.3270   71.4255   -0.1349 C   0  0  1  0  0  0  0  0  0  0  0  0
   24.1877   71.4955    2.0484 C   0  0  2  0  0  0  0  0  0  0  0  0
   20.9746   70.2673    1.7732 H   0  0  0  0  0  0  0  0  0  0  0  0
   21.2439   72.3771    3.1937 H   0  0  0  0  0  0  0  0  0  0  0  0
   26.8667   70.6917    2.4413 O   0  0  0  0  0  0  0  0  0  0  0  0
   28.0335   74.7940    4.1881 O   0  0  0  0  0  0  0  0  0  0  0  0
   25.2128   72.3334    2.6037 N   0  0  0  0  0  0  0  0  0  0  0  0
   27.4456   72.7350    3.3106 N   0  0  0  0  0  0  0  0  0  0  0  0
   26.5264   71.8329    2.7599 C   0  0  0  0  0  0  0  0  0  0  0  0
   24.9113   73.6359    2.9865 C   0  0  0  0  0  0  0  0  0  0  0  0
   25.7990   74.4831    3.5114 C   0  0  0  0  0  0  0  0  0  0  0  0
   27.1940   74.0387    3.7079 C   0  0  0  0  0  0  0  0  0  0  0  0
   28.3669   72.4082    3.4291 H   0  0  0  0  0  0  0  0  0  0  0  0
   21.9626   71.9742   -4.4262 O   0  0  0  0  0  0  0  0  0  0  0  0
   21.4324   72.8223   -5.6962 P   0  0  2  0  0  0  0  0  0  0  0  0
   22.3552   72.2859   -6.9119 O   0  0  0  0  0  0  0  0  0  0  0  0
   21.4690   74.3104   -5.5009 O   0  0  0  0  0  0  0  0  0  0  0  0
   19.9653   72.2238   -6.0033 O   0  0  0  0  0  0  0  0  0  0  0  0
   18.9913   70.1328   -5.4596 O   0  0  0  0  0  0  0  0  0  0  0  0
   17.3729   70.6561   -9.2223 O   0  0  0  0  0  0  0  0  0  0  0  0
   15.6989   70.9429   -6.9064 O   0  0  0  0  0  0  0  0  0  0  0  0
   20.1040   71.4613   -8.7004 O   0  0  0  0  0  0  0  0  0  0  0  0
   17.8518   71.0722   -7.9405 C   0  0  1  0  0  0  0  0  0  0  0  0
   17.0084   70.3824   -6.8664 C   0  0  1  0  0  0  0  0  0  0  0  0
   19.3215   70.6787   -7.8049 C   0  0  2  0  0  0  0  0  0  0  0  0
   17.6262   70.5666   -5.4738 C   0  0  1  0  0  0  0  0  0  0  0  0
   19.8232   70.8541   -6.3705 C   0  0  1  0  0  0  0  0  0  0  0  0
   16.4403   70.9034   -9.3150 H   0  0  0  0  0  0  0  0  0  0  0  0
   15.3203   70.8203   -7.7911 H   0  0  0  0  0  0  0  0  0  0  0  0
   19.7767   71.3414   -9.6050 H   0  0  0  0  0  0  0  0  0  0  0  0
   16.0543   68.8157   -5.0590 O   0  0  0  0  0  0  0  0  0  0  0  0
   16.8896   69.7563   -4.4095 C   0  0  0  0  0  0  0  0  0  0  0  0
   15.5793   68.2925   -4.3940 H   0  0  0  0  0  0  0  0  0  0  0  0
 25 28  1  0
 25 24  1  0
 25 26  1  6
 25 27  2  0
  1  4  1  0
  1 24  1  0
  1  2  1  1
  1  3  2  0
  6 11  1  0
  6 12  1  0
 29 36  1  0
 29 37  1  0
  9  7  1  1
  7 13  1  0
 10  8  1  1
  8 14  1  0
 37 28  1  1
  4  5  1  0
 33 30  1  6
 30 38  1  0
 34 31  1  1
 31 39  1  0
 35 32  1  6
 32 40  1  0
 41 42  1  0
 41 43  1  0
 15 19  2  0
 16 22  2  0
 12 17  1  6
 17 19  1  0
 17 20  1  0
 18 19  1  0
 18 22  1  0
 18 23  1  0
  9 10  1  0
  9 11  1  0
 10 12  1  0
 11  5  1  1
 33 34  1  0
 33 35  1  0
 34 36  1  0
 35 37  1  0
 36 42  1  1
 20 21  2  0
 21 22  1  0
M  CHG  2   2  -1  26  -1
M  END
>  <COMPND>  (298) 
    8629 

>  <AUTHOR>  (298) 
    GENERATED BY OPEN BABEL 3.1.1

>  <MASTER>  (298) 
        0    0    0    0    0    0    0    0   58    0   58    0

>  <minimizedAffinity>  (298) 
-8.10333

>  <CNNscore>  (298) 
0.5139352679

>  <CNNaffinity>  (298) 
4.2493820190

>  <CNN_VS>  (298) 
2.1839072704

>  <CNNaffinity_variance>  (298) 
0.1538471282

$$$$
299
     RDKit          3D

 43 45  0  0  0  0  0  0  0  0999 V2000
   21.9211   72.3845   -5.8096 P   0  0  2  0  0  0  0  0  0  0  0  0
   21.2361   73.6934   -5.1501 O   0  0  0  0  0  0  0  0  0  0  0  0
   23.0382   72.6696   -6.7699 O   0  0  0  0  0  0  0  0  0  0  0  0
   20.6705   71.5539   -6.4130 O   0  0  0  0  0  0  0  0  0  0  0  0
   20.2101   71.8753   -7.7140 C   0  0  0  0  0  0  0  0  0  0  0  0
   18.8958   69.9335   -7.1890 O   0  0  0  0  0  0  0  0  0  0  0  0
   18.0365   69.9692  -10.0615 O   0  0  0  0  0  0  0  0  0  0  0  0
   15.9007   71.0889   -8.7881 O   0  0  0  0  0  0  0  0  0  0  0  0
   18.2993   71.0635   -9.1847 C   0  0  1  0  0  0  0  0  0  0  0  0
   17.1721   71.2191   -8.1853 C   0  0  2  0  0  0  0  0  0  0  0  0
   19.4684   70.6759   -8.2878 C   0  0  1  0  0  0  0  0  0  0  0  0
   17.4688   70.1020   -7.1993 C   0  0  2  0  0  0  0  0  0  0  0  0
   17.2937   70.1934  -10.6445 H   0  0  0  0  0  0  0  0  0  0  0  0
   15.7592   71.8227   -9.4064 H   0  0  0  0  0  0  0  0  0  0  0  0
   16.5179   68.1944   -5.3460 O   0  0  0  0  0  0  0  0  0  0  0  0
   15.7970   71.4120   -2.1260 O   0  0  0  0  0  0  0  0  0  0  0  0
   17.0264   70.4135   -5.8694 N   0  0  0  0  0  0  0  0  0  0  0  0
   16.1599   69.7980   -3.7442 N   0  0  0  0  0  0  0  0  0  0  0  0
   16.5664   69.3818   -5.0183 C   0  0  0  0  0  0  0  0  0  0  0  0
   17.0518   71.7297   -5.4212 C   0  0  0  0  0  0  0  0  0  0  0  0
   16.6594   72.1103   -4.2036 C   0  0  0  0  0  0  0  0  0  0  0  0
   16.1650   71.0938   -3.2526 C   0  0  0  0  0  0  0  0  0  0  0  0
   15.8352   69.0965   -3.1341 H   0  0  0  0  0  0  0  0  0  0  0  0
   22.3497   71.5096   -4.5197 O   0  0  0  0  0  0  0  0  0  0  0  0
   23.3763   71.8304   -3.3129 P   0  0  2  0  0  0  0  0  0  0  0  0
   24.1192   73.1802   -3.8067 O   0  0  0  0  0  0  0  0  0  0  0  0
   24.3051   70.6994   -2.9781 O   0  0  0  0  0  0  0  0  0  0  0  0
   22.4349   72.3068   -2.0915 O   0  0  0  0  0  0  0  0  0  0  0  0
   21.8712   71.2524   -0.0453 O   0  0  0  0  0  0  0  0  0  0  0  0
   18.2212   72.9681   -0.9310 O   0  0  0  0  0  0  0  0  0  0  0  0
   19.8222   74.0567    1.1901 O   0  0  0  0  0  0  0  0  0  0  0  0
   19.8390   71.8408   -3.0503 O   0  0  0  0  0  0  0  0  0  0  0  0
   19.6486   72.8899   -0.8906 C   0  0  1  0  0  0  0  0  0  0  0  0
   20.0826   72.7988    0.5737 C   0  0  1  0  0  0  0  0  0  0  0  0
   20.1030   71.6535   -1.6640 C   0  0  2  0  0  0  0  0  0  0  0  0
   21.5714   72.4450    0.6893 C   0  0  1  0  0  0  0  0  0  0  0  0
   21.5882   71.3624   -1.4416 C   0  0  1  0  0  0  0  0  0  0  0  0
   17.9261   73.7513   -0.4421 H   0  0  0  0  0  0  0  0  0  0  0  0
   18.8789   74.2685    1.1098 H   0  0  0  0  0  0  0  0  0  0  0  0
   18.8956   72.0240   -3.1778 H   0  0  0  0  0  0  0  0  0  0  0  0
   20.8209   72.0244    2.9184 O   0  0  0  0  0  0  0  0  0  0  0  0
   21.9890   72.1942    2.1366 C   0  0  0  0  0  0  0  0  0  0  0  0
   21.0714   71.8636    3.8420 H   0  0  0  0  0  0  0  0  0  0  0  0
 25 28  1  0
 25 24  1  0
 25 26  1  6
 25 27  2  0
  1  4  1  0
  1 24  1  0
  1  2  1  1
  1  3  2  0
  6 11  1  0
  6 12  1  0
 29 36  1  0
 29 37  1  0
  9  7  1  6
  7 13  1  0
 10  8  1  6
  8 14  1  0
 37 28  1  1
  4  5  1  0
 33 30  1  1
 30 38  1  0
 34 31  1  6
 31 39  1  0
 35 32  1  6
 32 40  1  0
 41 42  1  0
 41 43  1  0
 15 19  2  0
 16 22  2  0
 12 17  1  1
 17 19  1  0
 17 20  1  0
 18 19  1  0
 18 22  1  0
 18 23  1  0
  9 10  1  0
  9 11  1  0
 10 12  1  0
 11  5  1  1
 33 34  1  0
 33 35  1  0
 34 36  1  0
 35 37  1  0
 36 42  1  1
 20 21  2  0
 21 22  1  0
M  CHG  2   2  -1  26  -1
M  END
>  <COMPND>  (299) 
    8629 

>  <AUTHOR>  (299) 
    GENERATED BY OPEN BABEL 3.1.1

>  <MASTER>  (299) 
        0    0    0    0    0    0    0    0   58    0   58    0

>  <minimizedAffinity>  (299) 
-7.62065

>  <CNNscore>  (299) 
0.5102035999

>  <CNNaffinity>  (299) 
4.2006912231

>  <CNN_VS>  (299) 
2.1432077885

>  <CNNaffinity_variance>  (299) 
0.4980240762

$$$$
300
     RDKit          3D

 43 45  0  0  0  0  0  0  0  0999 V2000
   23.4999   72.3604   -3.2483 P   0  0  2  0  0  0  0  0  0  0  0  0
   24.0766   70.8545   -3.1171 O   0  0  0  0  0  0  0  0  0  0  0  0
   24.5158   73.3972   -3.6283 O   0  0  0  0  0  0  0  0  0  0  0  0
   22.7355   72.6073   -1.8438 O   0  0  0  0  0  0  0  0  0  0  0  0
   23.5114   72.7346   -0.6650 C   0  0  0  0  0  0  0  0  0  0  0  0
   24.0316   71.6933    1.4371 O   0  0  0  0  0  0  0  0  0  0  0  0
   21.5113   70.1122    1.0645 O   0  0  0  0  0  0  0  0  0  0  0  0
   20.7454   72.0442    2.8301 O   0  0  0  0  0  0  0  0  0  0  0  0
   21.7874   71.4664    0.7107 C   0  0  1  0  0  0  0  0  0  0  0  0
   21.8094   72.3391    1.9482 C   0  0  2  0  0  0  0  0  0  0  0  0
   23.2350   71.5431    0.2416 C   0  0  1  0  0  0  0  0  0  0  0  0
   23.1688   72.0103    2.5415 C   0  0  2  0  0  0  0  0  0  0  0  0
   20.5921   70.0382    1.3670 H   0  0  0  0  0  0  0  0  0  0  0  0
   19.9025   72.2707    2.4072 H   0  0  0  0  0  0  0  0  0  0  0  0
   22.5094   72.6607    5.2099 O   0  0  0  0  0  0  0  0  0  0  0  0
   25.3825   76.2644    5.2344 O   0  0  0  0  0  0  0  0  0  0  0  0
   23.7298   73.1130    3.2700 N   0  0  0  0  0  0  0  0  0  0  0  0
   23.9407   74.4544    5.2200 N   0  0  0  0  0  0  0  0  0  0  0  0
   23.3304   73.3536    4.6053 C   0  0  0  0  0  0  0  0  0  0  0  0
   24.6652   73.9421    2.6604 C   0  0  0  0  0  0  0  0  0  0  0  0
   25.2368   74.9885    3.2599 C   0  0  0  0  0  0  0  0  0  0  0  0
   24.8746   75.3089    4.6557 C   0  0  0  0  0  0  0  0  0  0  0  0
   23.6776   74.6416    6.1503 H   0  0  0  0  0  0  0  0  0  0  0  0
   22.2834   72.1934   -4.2996 O   0  0  0  0  0  0  0  0  0  0  0  0
   21.9115   73.0269   -5.6338 P   0  0  2  0  0  0  0  0  0  0  0  0
   23.0080   72.5161   -6.7082 O   0  0  0  0  0  0  0  0  0  0  0  0
   21.8803   74.5154   -5.4407 O   0  0  0  0  0  0  0  0  0  0  0  0
   20.5178   72.3886   -6.1389 O   0  0  0  0  0  0  0  0  0  0  0  0
   19.5564   70.2311   -5.9453 O   0  0  0  0  0  0  0  0  0  0  0  0
   18.5363   71.0590   -9.8599 O   0  0  0  0  0  0  0  0  0  0  0  0
   16.5053   71.0849   -7.8295 O   0  0  0  0  0  0  0  0  0  0  0  0
   21.1144   71.8841   -8.8342 O   0  0  0  0  0  0  0  0  0  0  0  0
   18.7879   71.3666   -8.4861 C   0  0  1  0  0  0  0  0  0  0  0  0
   17.8136   70.5579   -7.6273 C   0  0  1  0  0  0  0  0  0  0  0  0
   20.2324   71.0013   -8.1492 C   0  0  2  0  0  0  0  0  0  0  0  0
   18.1943   70.6281   -6.1423 C   0  0  1  0  0  0  0  0  0  0  0  0
   20.4921   71.0556   -6.6427 C   0  0  1  0  0  0  0  0  0  0  0  0
   17.6209   71.2891  -10.0804 H   0  0  0  0  0  0  0  0  0  0  0  0
   16.2773   71.0351   -8.7712 H   0  0  0  0  0  0  0  0  0  0  0  0
   20.9401   71.8402   -9.7869 H   0  0  0  0  0  0  0  0  0  0  0  0
   16.0655   70.3096   -5.1053 O   0  0  0  0  0  0  0  0  0  0  0  0
   17.3318   69.7031   -5.2864 C   0  0  0  0  0  0  0  0  0  0  0  0
   15.5056   69.7320   -4.5625 H   0  0  0  0  0  0  0  0  0  0  0  0
 25 28  1  0
 25 24  1  0
 25 26  1  6
 25 27  2  0
  1  4  1  0
  1 24  1  0
  1  2  1  1
  1  3  2  0
  6 11  1  0
  6 12  1  0
 29 36  1  0
 29 37  1  0
  9  7  1  1
  7 13  1  0
 10  8  1  1
  8 14  1  0
 37 28  1  1
  4  5  1  0
 33 30  1  6
 30 38  1  0
 34 31  1  1
 31 39  1  0
 35 32  1  6
 32 40  1  0
 41 42  1  0
 41 43  1  0
 15 19  2  0
 16 22  2  0
 12 17  1  6
 17 19  1  0
 17 20  1  0
 18 19  1  0
 18 22  1  0
 18 23  1  0
  9 10  1  0
  9 11  1  0
 10 12  1  0
 11  5  1  6
 33 34  1  0
 33 35  1  0
 34 36  1  0
 35 37  1  0
 36 42  1  1
 20 21  2  0
 21 22  1  0
M  CHG  2   2  -1  26  -1
M  END
>  <COMPND>  (300) 
    8629 

>  <AUTHOR>  (300) 
    GENERATED BY OPEN BABEL 3.1.1

>  <MASTER>  (300) 
        0    0    0    0    0    0    0    0   58    0   58    0

>  <minimizedAffinity>  (300) 
-8.00663

>  <CNNscore>  (300) 
0.4976449311

>  <CNNaffinity>  (300) 
4.0981092453

>  <CNN_VS>  (300) 
2.0394032001

>  <CNNaffinity_variance>  (300) 
0.2274489850

$$$$
301
     RDKit          3D

 43 45  0  0  0  0  0  0  0  0999 V2000
   20.5592   71.3451   -1.5799 P   0  0  2  0  0  0  0  0  0  0  0  0
   21.1988   70.5944   -0.2974 O   0  0  0  0  0  0  0  0  0  0  0  0
   20.0092   72.7136   -1.3040 O   0  0  0  0  0  0  0  0  0  0  0  0
   19.5049   70.2706   -2.1730 O   0  0  0  0  0  0  0  0  0  0  0  0
   19.1755   70.3356   -3.5496 C   0  0  0  0  0  0  0  0  0  0  0  0
   17.5105   71.3381   -4.9626 O   0  0  0  0  0  0  0  0  0  0  0  0
   15.4892   69.8646   -3.3092 O   0  0  0  0  0  0  0  0  0  0  0  0
   15.6719   68.3144   -5.5453 O   0  0  0  0  0  0  0  0  0  0  0  0
   16.7942   69.4551   -3.7149 C   0  0  1  0  0  0  0  0  0  0  0  0
   16.7973   69.0889   -5.1844 C   0  0  2  0  0  0  0  0  0  0  0  0
   17.6993   70.6805   -3.6905 C   0  0  1  0  0  0  0  0  0  0  0  0
   16.8047   70.4548   -5.8495 C   0  0  2  0  0  0  0  0  0  0  0  0
   14.8932   69.0986   -3.3166 H   0  0  0  0  0  0  0  0  0  0  0  0
   15.7131   67.4554   -5.0969 H   0  0  0  0  0  0  0  0  0  0  0  0
   15.4944   70.7014   -8.3395 O   0  0  0  0  0  0  0  0  0  0  0  0
   19.4611   70.3872  -10.6649 O   0  0  0  0  0  0  0  0  0  0  0  0
   17.4706   70.4411   -7.1214 N   0  0  0  0  0  0  0  0  0  0  0  0
   17.4706   70.5449   -9.4953 N   0  0  0  0  0  0  0  0  0  0  0  0
   16.7199   70.5710   -8.3130 C   0  0  0  0  0  0  0  0  0  0  0  0
   18.8530   70.3003   -7.1783 C   0  0  0  0  0  0  0  0  0  0  0  0
   19.5537   70.2761   -8.3140 C   0  0  0  0  0  0  0  0  0  0  0  0
   18.8452   70.4059   -9.6036 C   0  0  0  0  0  0  0  0  0  0  0  0
   16.9688   70.6334  -10.3380 H   0  0  0  0  0  0  0  0  0  0  0  0
   21.7616   71.3084   -2.6596 O   0  0  0  0  0  0  0  0  0  0  0  0
   23.2148   72.0163   -2.6546 P   0  0  2  0  0  0  0  0  0  0  0  0
   24.2281   70.7854   -2.9294 O   0  0  0  0  0  0  0  0  0  0  0  0
   23.5140   72.7984   -1.4085 O   0  0  0  0  0  0  0  0  0  0  0  0
   23.2506   72.8851   -4.0143 O   0  0  0  0  0  0  0  0  0  0  0  0
   22.0796   74.8176   -4.7289 O   0  0  0  0  0  0  0  0  0  0  0  0
   21.9992   72.6586   -8.2479 O   0  0  0  0  0  0  0  0  0  0  0  0
   23.7070   74.9576   -8.0336 O   0  0  0  0  0  0  0  0  0  0  0  0
   21.6764   71.2997   -5.7124 O   0  0  0  0  0  0  0  0  0  0  0  0
   22.5591   73.1224   -7.0163 C   0  0  1  0  0  0  0  0  0  0  0  0
   22.6857   74.6453   -7.0904 C   0  0  1  0  0  0  0  0  0  0  0  0
   21.6409   72.7145   -5.8657 C   0  0  2  0  0  0  0  0  0  0  0  0
   23.0262   75.2403   -5.7174 C   0  0  1  0  0  0  0  0  0  0  0  0
   22.0372   73.3998   -4.5567 C   0  0  1  0  0  0  0  0  0  0  0  0
   22.5777   72.9139   -8.9825 H   0  0  0  0  0  0  0  0  0  0  0  0
   23.4801   74.5758   -8.8961 H   0  0  0  0  0  0  0  0  0  0  0  0
   21.4233   70.8777   -6.5477 H   0  0  0  0  0  0  0  0  0  0  0  0
   22.5510   77.1958   -7.0055 O   0  0  0  0  0  0  0  0  0  0  0  0
   23.0021   76.7672   -5.7339 C   0  0  0  0  0  0  0  0  0  0  0  0
   22.5303   78.1656   -7.0306 H   0  0  0  0  0  0  0  0  0  0  0  0
 25 28  1  0
 25 24  1  0
 25 26  1  6
 25 27  2  0
  1  4  1  0
  1 24  1  0
  1  2  1  1
  1  3  2  0
  6 11  1  0
  6 12  1  0
 29 36  1  0
 29 37  1  0
  9  7  1  6
  7 13  1  0
 10  8  1  6
  8 14  1  0
 37 28  1  6
  4  5  1  0
 33 30  1  6
 30 38  1  0
 34 31  1  6
 31 39  1  0
 35 32  1  1
 32 40  1  0
 41 42  1  0
 41 43  1  0
 15 19  2  0
 16 22  2  0
 12 17  1  6
 17 19  1  0
 17 20  1  0
 18 19  1  0
 18 22  1  0
 18 23  1  0
  9 10  1  0
  9 11  1  0
 10 12  1  0
 11  5  1  6
 33 34  1  0
 33 35  1  0
 34 36  1  0
 35 37  1  0
 36 42  1  6
 20 21  2  0
 21 22  1  0
M  CHG  2   2  -1  26  -1
M  END
>  <COMPND>  (301) 
    8629 

>  <AUTHOR>  (301) 
    GENERATED BY OPEN BABEL 3.1.1

>  <MASTER>  (301) 
        0    0    0    0    0    0    0    0   58    0   58    0

>  <minimizedAffinity>  (301) 
-7.88930

>  <CNNscore>  (301) 
0.9286033511

>  <CNNaffinity>  (301) 
4.8559432030

>  <CNN_VS>  (301) 
4.5092449188

>  <CNNaffinity_variance>  (301) 
0.3910151422

$$$$
302
     RDKit          3D

 43 45  0  0  0  0  0  0  0  0999 V2000
   22.1723   71.4547   -2.8749 P   0  0  2  0  0  0  0  0  0  0  0  0
   22.0168   73.0572   -2.7163 O   0  0  0  0  0  0  0  0  0  0  0  0
   23.5632   70.9797   -3.1768 O   0  0  0  0  0  0  0  0  0  0  0  0
   21.0432   71.0608   -3.9648 O   0  0  0  0  0  0  0  0  0  0  0  0
   20.1239   70.0314   -3.6442 C   0  0  0  0  0  0  0  0  0  0  0  0
   18.4583   71.3736   -4.7387 O   0  0  0  0  0  0  0  0  0  0  0  0
   16.4992   70.1865   -2.8039 O   0  0  0  0  0  0  0  0  0  0  0  0
   16.0443   68.7421   -5.0718 O   0  0  0  0  0  0  0  0  0  0  0  0
   17.6291   69.5807   -3.4297 C   0  0  1  0  0  0  0  0  0  0  0  0
   17.3321   69.2936   -4.8867 C   0  0  2  0  0  0  0  0  0  0  0  0
   18.7288   70.6304   -3.5300 C   0  0  1  0  0  0  0  0  0  0  0  0
   17.4746   70.6698   -5.5144 C   0  0  2  0  0  0  0  0  0  0  0  0
   15.7837   69.5351   -2.7284 H   0  0  0  0  0  0  0  0  0  0  0  0
   16.0041   67.8673   -4.6549 H   0  0  0  0  0  0  0  0  0  0  0  0
   15.7595   70.3128   -7.7300 O   0  0  0  0  0  0  0  0  0  0  0  0
   19.2767   70.4396  -10.7056 O   0  0  0  0  0  0  0  0  0  0  0  0
   17.9153   70.6062   -6.8794 N   0  0  0  0  0  0  0  0  0  0  0  0
   17.5121   70.3764   -9.2098 N   0  0  0  0  0  0  0  0  0  0  0  0
   16.9728   70.4233   -7.9180 C   0  0  0  0  0  0  0  0  0  0  0  0
   19.2685   70.7250   -7.1769 C   0  0  0  0  0  0  0  0  0  0  0  0
   19.7668   70.6767   -8.4141 C   0  0  0  0  0  0  0  0  0  0  0  0
   18.8494   70.4882   -9.5563 C   0  0  0  0  0  0  0  0  0  0  0  0
   16.8744   70.2493   -9.9494 H   0  0  0  0  0  0  0  0  0  0  0  0
   21.5543   70.8909   -1.4917 O   0  0  0  0  0  0  0  0  0  0  0  0
   22.0410   71.0701    0.0393 P   0  0  2  0  0  0  0  0  0  0  0  0
   23.6333   71.3179   -0.1040 O   0  0  0  0  0  0  0  0  0  0  0  0
   21.6706   69.9279    0.9404 O   0  0  0  0  0  0  0  0  0  0  0  0
   21.4452   72.5000    0.4927 O   0  0  0  0  0  0  0  0  0  0  0  0
   21.1151   72.1739    2.8167 O   0  0  0  0  0  0  0  0  0  0  0  0
   20.1591   76.1835    2.5707 O   0  0  0  0  0  0  0  0  0  0  0  0
   22.6320   75.3880    3.7955 O   0  0  0  0  0  0  0  0  0  0  0  0
   19.3582   74.3757    0.4565 O   0  0  0  0  0  0  0  0  0  0  0  0
   20.8690   74.9899    2.2289 C   0  0  1  0  0  0  0  0  0  0  0  0
   21.5801   74.4789    3.4835 C   0  0  1  0  0  0  0  0  0  0  0  0
   19.8769   73.9498    1.7119 C   0  0  2  0  0  0  0  0  0  0  0  0
   22.1409   73.0670    3.2661 C   0  0  1  0  0  0  0  0  0  0  0  0
   20.5237   72.5700    1.5777 C   0  0  1  0  0  0  0  0  0  0  0  0
   20.7834   76.8482    2.8993 H   0  0  0  0  0  0  0  0  0  0  0  0
   22.2645   76.2757    3.9299 H   0  0  0  0  0  0  0  0  0  0  0  0
   18.9512   75.2501    0.5548 H   0  0  0  0  0  0  0  0  0  0  0  0
   21.9228   72.9120    5.6404 O   0  0  0  0  0  0  0  0  0  0  0  0
   22.7155   72.4757    4.5515 C   0  0  0  0  0  0  0  0  0  0  0  0
   22.2766   72.5431    6.4654 H   0  0  0  0  0  0  0  0  0  0  0  0
 25 28  1  0
 25 24  1  0
 25 26  1  6
 25 27  2  0
  1  4  1  0
  1 24  1  0
  1  2  1  1
  1  3  2  0
  6 11  1  0
  6 12  1  0
 29 36  1  0
 29 37  1  0
  9  7  1  6
  7 13  1  0
 10  8  1  1
  8 14  1  0
 37 28  1  6
  4  5  1  0
 33 30  1  1
 30 38  1  0
 34 31  1  6
 31 39  1  0
 35 32  1  6
 32 40  1  0
 41 42  1  0
 41 43  1  0
 15 19  2  0
 16 22  2  0
 12 17  1  6
 17 19  1  0
 17 20  1  0
 18 19  1  0
 18 22  1  0
 18 23  1  0
  9 10  1  0
  9 11  1  0
 10 12  1  0
 11  5  1  6
 33 34  1  0
 33 35  1  0
 34 36  1  0
 35 37  1  0
 36 42  1  1
 20 21  2  0
 21 22  1  0
M  CHG  2   2  -1  26  -1
M  END
>  <COMPND>  (302) 
    8629 

>  <AUTHOR>  (302) 
    GENERATED BY OPEN BABEL 3.1.1

>  <MASTER>  (302) 
        0    0    0    0    0    0    0    0   58    0   58    0

>  <minimizedAffinity>  (302) 
-7.90833

>  <CNNscore>  (302) 
0.9266529083

>  <CNNaffinity>  (302) 
4.7052669525

>  <CNN_VS>  (302) 
4.3601493835

>  <CNNaffinity_variance>  (302) 
0.0433725342

$$$$
303
     RDKit          3D

 43 45  0  0  0  0  0  0  0  0999 V2000
   20.5526   71.2121   -1.4299 P   0  0  2  0  0  0  0  0  0  0  0  0
   21.1500   70.5162   -0.0972 O   0  0  0  0  0  0  0  0  0  0  0  0
   20.0406   72.6097   -1.2400 O   0  0  0  0  0  0  0  0  0  0  0  0
   19.4748   70.1376   -1.9793 O   0  0  0  0  0  0  0  0  0  0  0  0
   19.1321   70.1662   -3.3539 C   0  0  0  0  0  0  0  0  0  0  0  0
   17.5365   71.3336   -4.7196 O   0  0  0  0  0  0  0  0  0  0  0  0
   15.4254   69.8405   -3.2015 O   0  0  0  0  0  0  0  0  0  0  0  0
   15.5823   68.4391   -5.5356 O   0  0  0  0  0  0  0  0  0  0  0  0
   16.7190   69.4032   -3.6147 C   0  0  1  0  0  0  0  0  0  0  0  0
   16.7329   69.1377   -5.1056 C   0  0  2  0  0  0  0  0  0  0  0  0
   17.6745   70.5837   -3.4929 C   0  0  1  0  0  0  0  0  0  0  0  0
   16.8099   70.5440   -5.6754 C   0  0  2  0  0  0  0  0  0  0  0  0
   14.7978   69.1034   -3.2703 H   0  0  0  0  0  0  0  0  0  0  0  0
   15.5791   67.5506   -5.1465 H   0  0  0  0  0  0  0  0  0  0  0  0
   15.5331   70.4636   -8.1935 O   0  0  0  0  0  0  0  0  0  0  0  0
   19.5483   70.7163  -10.4420 O   0  0  0  0  0  0  0  0  0  0  0  0
   17.4973   70.5876   -6.9351 N   0  0  0  0  0  0  0  0  0  0  0  0
   17.5334   70.5897   -9.3111 N   0  0  0  0  0  0  0  0  0  0  0  0
   16.7624   70.5403   -8.1427 C   0  0  0  0  0  0  0  0  0  0  0  0
   18.8848   70.6767   -6.9648 C   0  0  0  0  0  0  0  0  0  0  0  0
   19.6052   70.7215   -8.0874 C   0  0  0  0  0  0  0  0  0  0  0  0
   18.9141   70.6770   -9.3922 C   0  0  0  0  0  0  0  0  0  0  0  0
   17.0429   70.5577  -10.1644 H   0  0  0  0  0  0  0  0  0  0  0  0
   21.7691   71.0790   -2.4860 O   0  0  0  0  0  0  0  0  0  0  0  0
   23.1184   71.9506   -2.6663 P   0  0  2  0  0  0  0  0  0  0  0  0
   24.2239   70.8427   -3.0763 O   0  0  0  0  0  0  0  0  0  0  0  0
   23.4835   72.7750   -1.4659 O   0  0  0  0  0  0  0  0  0  0  0  0
   22.8765   72.8036   -4.0150 O   0  0  0  0  0  0  0  0  0  0  0  0
   20.5589   73.1518   -4.3670 O   0  0  0  0  0  0  0  0  0  0  0  0
   21.9998   74.6416   -7.9384 O   0  0  0  0  0  0  0  0  0  0  0  0
   20.9825   76.4518   -5.9544 O   0  0  0  0  0  0  0  0  0  0  0  0
   23.2197   72.2988   -6.7541 O   0  0  0  0  0  0  0  0  0  0  0  0
   22.0226   74.3771   -6.5331 C   0  0  1  0  0  0  0  0  0  0  0  0
   20.7974   75.0400   -5.9005 C   0  0  1  0  0  0  0  0  0  0  0  0
   21.9924   72.8664   -6.3090 C   0  0  2  0  0  0  0  0  0  0  0  0
   20.6071   74.5811   -4.4485 C   0  0  1  0  0  0  0  0  0  0  0  0
   21.7494   72.5182   -4.8393 C   0  0  1  0  0  0  0  0  0  0  0  0
   22.0193   75.5991   -8.0877 H   0  0  0  0  0  0  0  0  0  0  0  0
   21.1019   76.7284   -6.8765 H   0  0  0  0  0  0  0  0  0  0  0  0
   23.3618   72.5261   -7.6858 H   0  0  0  0  0  0  0  0  0  0  0  0
   18.4771   74.0014   -3.5342 O   0  0  0  0  0  0  0  0  0  0  0  0
   19.3046   75.1062   -3.8487 C   0  0  0  0  0  0  0  0  0  0  0  0
   17.6445   74.3205   -3.1512 H   0  0  0  0  0  0  0  0  0  0  0  0
 25 28  1  0
 25 24  1  0
 25 26  1  6
 25 27  2  0
  1  4  1  0
  1 24  1  0
  1  2  1  1
  1  3  2  0
  6 11  1  0
  6 12  1  0
 29 36  1  0
 29 37  1  0
  9  7  1  6
  7 13  1  0
 10  8  1  6
  8 14  1  0
 37 28  1  1
  4  5  1  0
 33 30  1  6
 30 38  1  0
 34 31  1  1
 31 39  1  0
 35 32  1  1
 32 40  1  0
 41 42  1  0
 41 43  1  0
 15 19  2  0
 16 22  2  0
 12 17  1  6
 17 19  1  0
 17 20  1  0
 18 19  1  0
 18 22  1  0
 18 23  1  0
  9 10  1  0
  9 11  1  0
 10 12  1  0
 11  5  1  6
 33 34  1  0
 33 35  1  0
 34 36  1  0
 35 37  1  0
 36 42  1  6
 20 21  2  0
 21 22  1  0
M  CHG  2   2  -1  26  -1
M  END
>  <COMPND>  (303) 
    8629 

>  <AUTHOR>  (303) 
    GENERATED BY OPEN BABEL 3.1.1

>  <MASTER>  (303) 
        0    0    0    0    0    0    0    0   58    0   58    0

>  <minimizedAffinity>  (303) 
-7.98903

>  <CNNscore>  (303) 
0.9242447019

>  <CNNaffinity>  (303) 
4.6643610001

>  <CNN_VS>  (303) 
4.3110108376

>  <CNNaffinity_variance>  (303) 
0.6112372875

$$$$
304
     RDKit          3D

 43 45  0  0  0  0  0  0  0  0999 V2000
   23.0739   71.6108   -2.4412 P   0  0  2  0  0  0  0  0  0  0  0  0
   23.3872   73.1027   -1.8997 O   0  0  0  0  0  0  0  0  0  0  0  0
   24.2157   70.9396   -3.1463 O   0  0  0  0  0  0  0  0  0  0  0  0
   21.7196   71.7888   -3.3085 O   0  0  0  0  0  0  0  0  0  0  0  0
   20.9245   70.6439   -3.5633 C   0  0  0  0  0  0  0  0  0  0  0  0
   18.9141   71.5880   -4.4800 O   0  0  0  0  0  0  0  0  0  0  0  0
   17.4657   70.1828   -2.2623 O   0  0  0  0  0  0  0  0  0  0  0  0
   17.0211   68.5429   -4.3953 O   0  0  0  0  0  0  0  0  0  0  0  0
   18.6055   69.7572   -3.0073 C   0  0  1  0  0  0  0  0  0  0  0  0
   18.1936   69.3316   -4.4012 C   0  0  2  0  0  0  0  0  0  0  0  0
   19.4655   70.9827   -3.2901 C   0  0  1  0  0  0  0  0  0  0  0  0
   17.9949   70.6693   -5.0933 C   0  0  2  0  0  0  0  0  0  0  0  0
   16.9014   69.4170   -2.0694 H   0  0  0  0  0  0  0  0  0  0  0  0
   17.1985   67.7028   -3.9442 H   0  0  0  0  0  0  0  0  0  0  0  0
   16.1256   69.8584   -7.0493 O   0  0  0  0  0  0  0  0  0  0  0  0
   19.1634   70.4558  -10.4635 O   0  0  0  0  0  0  0  0  0  0  0  0
   18.2705   70.6040   -6.5009 N   0  0  0  0  0  0  0  0  0  0  0  0
   17.6397   70.1567   -8.7477 N   0  0  0  0  0  0  0  0  0  0  0  0
   17.2624   70.1827   -7.3990 C   0  0  0  0  0  0  0  0  0  0  0  0
   19.5286   70.9556   -6.9778 C   0  0  0  0  0  0  0  0  0  0  0  0
   19.8728   70.9241   -8.2669 C   0  0  0  0  0  0  0  0  0  0  0  0
   18.8776   70.4954   -9.2707 C   0  0  0  0  0  0  0  0  0  0  0  0
   16.9537   69.8661   -9.3918 H   0  0  0  0  0  0  0  0  0  0  0  0
   22.5579   70.8437   -1.1151 O   0  0  0  0  0  0  0  0  0  0  0  0
   21.7500   71.3835    0.1768 P   0  0  2  0  0  0  0  0  0  0  0  0
   21.4048   70.0288    0.9911 O   0  0  0  0  0  0  0  0  0  0  0  0
   20.5543   72.2288   -0.1542 O   0  0  0  0  0  0  0  0  0  0  0  0
   22.8661   72.1262    1.0755 O   0  0  0  0  0  0  0  0  0  0  0  0
   24.5689   71.7539    2.6812 O   0  0  0  0  0  0  0  0  0  0  0  0
   22.0714   74.1666    4.9155 O   0  0  0  0  0  0  0  0  0  0  0  0
   24.5616   75.2171    3.9442 O   0  0  0  0  0  0  0  0  0  0  0  0
   20.9469   72.1923    3.1219 O   0  0  0  0  0  0  0  0  0  0  0  0
   22.7183   73.7088    3.7250 C   0  0  1  0  0  0  0  0  0  0  0  0
   24.2304   73.8314    3.9233 C   0  0  1  0  0  0  0  0  0  0  0  0
   22.3255   72.2546    3.4712 C   0  0  2  0  0  0  0  0  0  0  0  0
   24.9960   73.1158    2.8023 C   0  0  1  0  0  0  0  0  0  0  0  0
   23.1803   71.6224    2.3712 C   0  0  1  0  0  0  0  0  0  0  0  0
   22.3163   75.0896    5.0821 H   0  0  0  0  0  0  0  0  0  0  0  0
   24.0712   75.6573    4.6561 H   0  0  0  0  0  0  0  0  0  0  0  0
   20.4165   72.5953    3.8262 H   0  0  0  0  0  0  0  0  0  0  0  0
   26.9713   71.7722    2.8483 O   0  0  0  0  0  0  0  0  0  0  0  0
   26.5005   73.0899    3.0633 C   0  0  0  0  0  0  0  0  0  0  0  0
   27.9275   71.7407    3.0105 H   0  0  0  0  0  0  0  0  0  0  0  0
 25 28  1  0
 25 24  1  0
 25 26  1  1
 25 27  2  0
  1  4  1  0
  1 24  1  0
  1  2  1  1
  1  3  2  0
  6 11  1  0
  6 12  1  0
 29 36  1  0
 29 37  1  0
  9  7  1  1
  7 13  1  0
 10  8  1  1
  8 14  1  0
 37 28  1  6
  4  5  1  0
 33 30  1  1
 30 38  1  0
 34 31  1  6
 31 39  1  0
 35 32  1  6
 32 40  1  0
 41 42  1  0
 41 43  1  0
 15 19  2  0
 16 22  2  0
 12 17  1  6
 17 19  1  0
 17 20  1  0
 18 19  1  0
 18 22  1  0
 18 23  1  0
  9 10  1  0
  9 11  1  0
 10 12  1  0
 11  5  1  6
 33 34  1  0
 33 35  1  0
 34 36  1  0
 35 37  1  0
 36 42  1  1
 20 21  2  0
 21 22  1  0
M  CHG  2   2  -1  26  -1
M  END
>  <COMPND>  (304) 
    8629 

>  <AUTHOR>  (304) 
    GENERATED BY OPEN BABEL 3.1.1

>  <MASTER>  (304) 
        0    0    0    0    0    0    0    0   58    0   58    0

>  <minimizedAffinity>  (304) 
-8.12066

>  <CNNscore>  (304) 
0.9144999385

>  <CNNaffinity>  (304) 
4.7379126549

>  <CNN_VS>  (304) 
4.3328208923

>  <CNNaffinity_variance>  (304) 
0.0624383688

$$$$
305
     RDKit          3D

 43 45  0  0  0  0  0  0  0  0999 V2000
   20.8481   71.6112   -1.4668 P   0  0  2  0  0  0  0  0  0  0  0  0
   20.7380   70.6592   -0.1633 O   0  0  0  0  0  0  0  0  0  0  0  0
   20.0320   72.8687   -1.4039 O   0  0  0  0  0  0  0  0  0  0  0  0
   20.5165   70.6193   -2.7013 O   0  0  0  0  0  0  0  0  0  0  0  0
   20.1131   71.1872   -3.9353 C   0  0  0  0  0  0  0  0  0  0  0  0
   18.1925   71.8363   -5.2251 O   0  0  0  0  0  0  0  0  0  0  0  0
   16.5464   70.5502   -3.0741 O   0  0  0  0  0  0  0  0  0  0  0  0
   16.5460   68.6557   -5.0356 O   0  0  0  0  0  0  0  0  0  0  0  0
   17.8123   70.1543   -3.5996 C   0  0  1  0  0  0  0  0  0  0  0  0
   17.6429   69.5445   -4.9755 C   0  0  2  0  0  0  0  0  0  0  0  0
   18.6082   71.4166   -3.9070 C   0  0  1  0  0  0  0  0  0  0  0  0
   17.4462   70.7756   -5.8438 C   0  0  2  0  0  0  0  0  0  0  0  0
   16.0201   69.7607   -2.8698 H   0  0  0  0  0  0  0  0  0  0  0  0
   16.7191   67.8893   -4.4670 H   0  0  0  0  0  0  0  0  0  0  0  0
   15.7943   70.6224   -8.1298 O   0  0  0  0  0  0  0  0  0  0  0  0
   19.4096   70.0399  -10.9284 O   0  0  0  0  0  0  0  0  0  0  0  0
   17.9292   70.5847   -7.1823 N   0  0  0  0  0  0  0  0  0  0  0  0
   17.5958   70.3326   -9.5214 N   0  0  0  0  0  0  0  0  0  0  0  0
   17.0159   70.5208   -8.2603 C   0  0  0  0  0  0  0  0  0  0  0  0
   19.2948   70.4634   -7.4154 C   0  0  0  0  0  0  0  0  0  0  0  0
   19.8317   70.2830   -8.6239 C   0  0  0  0  0  0  0  0  0  0  0  0
   18.9466   70.2052   -9.8040 C   0  0  0  0  0  0  0  0  0  0  0  0
   16.9789   70.2846  -10.2875 H   0  0  0  0  0  0  0  0  0  0  0  0
   22.4406   71.8491   -1.6095 O   0  0  0  0  0  0  0  0  0  0  0  0
   23.2875   72.7878   -2.6168 P   0  0  2  0  0  0  0  0  0  0  0  0
   24.0414   71.7215   -3.5720 O   0  0  0  0  0  0  0  0  0  0  0  0
   24.2031   73.7590   -1.9295 O   0  0  0  0  0  0  0  0  0  0  0  0
   22.1775   73.4729   -3.5673 O   0  0  0  0  0  0  0  0  0  0  0  0
   22.8559   73.9244   -5.7928 O   0  0  0  0  0  0  0  0  0  0  0  0
   19.4722   76.2864   -5.6422 O   0  0  0  0  0  0  0  0  0  0  0  0
   19.4388   73.8574   -7.1742 O   0  0  0  0  0  0  0  0  0  0  0  0
   21.2026   76.0936   -3.3296 O   0  0  0  0  0  0  0  0  0  0  0  0
   20.2782   75.1441   -5.3410 C   0  0  1  0  0  0  0  0  0  0  0  0
   20.6291   74.4445   -6.6556 C   0  0  1  0  0  0  0  0  0  0  0  0
   21.5451   75.6029   -4.6213 C   0  0  2  0  0  0  0  0  0  0  0  0
   21.7051   73.3714   -6.4421 C   0  0  1  0  0  0  0  0  0  0  0  0
   22.5692   74.4725   -4.5046 C   0  0  1  0  0  0  0  0  0  0  0  0
   18.6659   76.0020   -6.0989 H   0  0  0  0  0  0  0  0  0  0  0  0
   18.7674   74.5456   -7.3040 H   0  0  0  0  0  0  0  0  0  0  0  0
   20.5540   76.8088   -3.4171 H   0  0  0  0  0  0  0  0  0  0  0  0
   23.4292   73.3541   -8.0962 O   0  0  0  0  0  0  0  0  0  0  0  0
   22.1834   72.7705   -7.7620 C   0  0  0  0  0  0  0  0  0  0  0  0
   23.7461   72.9809   -8.9340 H   0  0  0  0  0  0  0  0  0  0  0  0
 25 28  1  0
 25 24  1  0
 25 26  1  6
 25 27  2  0
  1  4  1  0
  1 24  1  0
  1  2  1  1
  1  3  2  0
  6 11  1  0
  6 12  1  0
 29 36  1  0
 29 37  1  0
  9  7  1  6
  7 13  1  0
 10  8  1  1
  8 14  1  0
 37 28  1  1
  4  5  1  0
 33 30  1  6
 30 38  1  0
 34 31  1  1
 31 39  1  0
 35 32  1  1
 32 40  1  0
 41 42  1  0
 41 43  1  0
 15 19  2  0
 16 22  2  0
 12 17  1  6
 17 19  1  0
 17 20  1  0
 18 19  1  0
 18 22  1  0
 18 23  1  0
  9 10  1  0
  9 11  1  0
 10 12  1  0
 11  5  1  6
 33 34  1  0
 33 35  1  0
 34 36  1  0
 35 37  1  0
 36 42  1  6
 20 21  2  0
 21 22  1  0
M  CHG  2   2  -1  26  -1
M  END
>  <COMPND>  (305) 
    8629 

>  <AUTHOR>  (305) 
    GENERATED BY OPEN BABEL 3.1.1

>  <MASTER>  (305) 
        0    0    0    0    0    0    0    0   58    0   58    0

>  <minimizedAffinity>  (305) 
-7.10700

>  <CNNscore>  (305) 
0.8766788840

>  <CNNaffinity>  (305) 
4.5705747604

>  <CNN_VS>  (305) 
4.0069265366

>  <CNNaffinity_variance>  (305) 
0.4892877042

$$$$
306
     RDKit          3D

 43 45  0  0  0  0  0  0  0  0999 V2000
   22.7917   72.5208   -4.1769 P   0  0  2  0  0  0  0  0  0  0  0  0
   23.1056   73.5290   -5.4027 O   0  0  0  0  0  0  0  0  0  0  0  0
   23.9732   71.7415   -3.6788 O   0  0  0  0  0  0  0  0  0  0  0  0
   21.5427   71.6403   -4.7083 O   0  0  0  0  0  0  0  0  0  0  0  0
   20.9489   70.7062   -3.8236 C   0  0  0  0  0  0  0  0  0  0  0  0
   18.9818   71.7279   -4.7512 O   0  0  0  0  0  0  0  0  0  0  0  0
   17.4826   70.4608   -2.4846 O   0  0  0  0  0  0  0  0  0  0  0  0
   16.9350   68.7886   -4.5680 O   0  0  0  0  0  0  0  0  0  0  0  0
   18.5922   69.9565   -3.2260 C   0  0  1  0  0  0  0  0  0  0  0  0
   18.1466   69.5149   -4.6044 C   0  0  2  0  0  0  0  0  0  0  0  0
   19.5118   71.1275   -3.5491 C   0  0  1  0  0  0  0  0  0  0  0  0
   18.0111   70.8417   -5.3319 C   0  0  2  0  0  0  0  0  0  0  0  0
   16.8812   69.7309   -2.2664 H   0  0  0  0  0  0  0  0  0  0  0  0
   17.0728   67.9530   -4.0951 H   0  0  0  0  0  0  0  0  0  0  0  0
   16.0368   70.3031   -7.2787 O   0  0  0  0  0  0  0  0  0  0  0  0
   19.1217   70.4095  -10.7012 O   0  0  0  0  0  0  0  0  0  0  0  0
   18.2704   70.7238   -6.7391 N   0  0  0  0  0  0  0  0  0  0  0  0
   17.5744   70.3567   -8.9813 N   0  0  0  0  0  0  0  0  0  0  0  0
   17.2085   70.4505   -7.6325 C   0  0  0  0  0  0  0  0  0  0  0  0
   19.5659   70.8789   -7.2204 C   0  0  0  0  0  0  0  0  0  0  0  0
   19.8984   70.7852   -8.5096 C   0  0  0  0  0  0  0  0  0  0  0  0
   18.8479   70.5018   -9.5086 C   0  0  0  0  0  0  0  0  0  0  0  0
   16.8512   70.1665   -9.6220 H   0  0  0  0  0  0  0  0  0  0  0  0
   22.1114   73.4887   -3.0754 O   0  0  0  0  0  0  0  0  0  0  0  0
   22.7683   74.5189   -2.0171 P   0  0  2  0  0  0  0  0  0  0  0  0
   21.8220   75.8258   -2.1352 O   0  0  0  0  0  0  0  0  0  0  0  0
   24.2275   74.7883   -2.2452 O   0  0  0  0  0  0  0  0  0  0  0  0
   22.4217   73.8942   -0.5698 O   0  0  0  0  0  0  0  0  0  0  0  0
   23.1452   71.6655   -0.2143 O   0  0  0  0  0  0  0  0  0  0  0  0
   20.4916   72.0074    2.9309 O   0  0  0  0  0  0  0  0  0  0  0  0
   23.3153   71.9802    3.4546 O   0  0  0  0  0  0  0  0  0  0  0  0
   19.8677   73.2192    0.3771 O   0  0  0  0  0  0  0  0  0  0  0  0
   21.4779   72.4665    2.0025 C   0  0  1  0  0  0  0  0  0  0  0  0
   22.7448   71.6309    2.1965 C   0  0  1  0  0  0  0  0  0  0  0  0
   20.9397   72.3053    0.5821 C   0  0  2  0  0  0  0  0  0  0  0  0
   23.7516   71.8805    1.0655 C   0  0  1  0  0  0  0  0  0  0  0  0
   22.0330   72.5270   -0.4647 C   0  0  1  0  0  0  0  0  0  0  0  0
   20.8269   72.1075    3.8348 H   0  0  0  0  0  0  0  0  0  0  0  0
   22.6693   71.8183    4.1600 H   0  0  0  0  0  0  0  0  0  0  0  0
   19.1821   73.0684    1.0458 H   0  0  0  0  0  0  0  0  0  0  0  0
   24.5916   69.8193    1.9344 O   0  0  0  0  0  0  0  0  0  0  0  0
   24.9537   70.9427    1.1526 C   0  0  0  0  0  0  0  0  0  0  0  0
   25.3470   69.2136    1.9983 H   0  0  0  0  0  0  0  0  0  0  0  0
 25 28  1  0
 25 24  1  0
 25 26  1  1
 25 27  2  0
  1  4  1  0
  1 24  1  0
  1  2  1  6
  1  3  2  0
  6 11  1  0
  6 12  1  0
 29 36  1  0
 29 37  1  0
  9  7  1  1
  7 13  1  0
 10  8  1  1
  8 14  1  0
 37 28  1  1
  4  5  1  0
 33 30  1  1
 30 38  1  0
 34 31  1  1
 31 39  1  0
 35 32  1  6
 32 40  1  0
 41 42  1  0
 41 43  1  0
 15 19  2  0
 16 22  2  0
 12 17  1  6
 17 19  1  0
 17 20  1  0
 18 19  1  0
 18 22  1  0
 18 23  1  0
  9 10  1  0
  9 11  1  0
 10 12  1  0
 11  5  1  6
 33 34  1  0
 33 35  1  0
 34 36  1  0
 35 37  1  0
 36 42  1  1
 20 21  2  0
 21 22  1  0
M  CHG  2   2  -1  26  -1
M  END
>  <COMPND>  (306) 
    8629 

>  <AUTHOR>  (306) 
    GENERATED BY OPEN BABEL 3.1.1

>  <MASTER>  (306) 
        0    0    0    0    0    0    0    0   58    0   58    0

>  <minimizedAffinity>  (306) 
-7.77162

>  <CNNscore>  (306) 
0.8222734332

>  <CNNaffinity>  (306) 
4.6668386459

>  <CNN_VS>  (306) 
3.8374173641

>  <CNNaffinity_variance>  (306) 
0.0420372374

$$$$
307
     RDKit          3D

 43 45  0  0  0  0  0  0  0  0999 V2000
   21.8010   72.4193   -5.5736 P   0  0  2  0  0  0  0  0  0  0  0  0
   21.1146   73.8594   -5.3046 O   0  0  0  0  0  0  0  0  0  0  0  0
   23.0906   72.4650   -6.3393 O   0  0  0  0  0  0  0  0  0  0  0  0
   20.6168   71.5437   -6.2435 O   0  0  0  0  0  0  0  0  0  0  0  0
   20.1522   71.9081   -7.5316 C   0  0  0  0  0  0  0  0  0  0  0  0
   18.8793   69.9131   -7.1148 O   0  0  0  0  0  0  0  0  0  0  0  0
   18.1147   70.0203  -10.0122 O   0  0  0  0  0  0  0  0  0  0  0  0
   15.9058   71.0356   -8.7766 O   0  0  0  0  0  0  0  0  0  0  0  0
   18.3159   71.0918   -9.0920 C   0  0  1  0  0  0  0  0  0  0  0  0
   17.1522   71.1817   -8.1270 C   0  0  2  0  0  0  0  0  0  0  0  0
   19.4656   70.7078   -8.1689 C   0  0  1  0  0  0  0  0  0  0  0  0
   17.4490   70.0412   -7.1682 C   0  0  2  0  0  0  0  0  0  0  0  0
   17.3853   70.2426  -10.6126 H   0  0  0  0  0  0  0  0  0  0  0  0
   15.7632   71.7853   -9.3753 H   0  0  0  0  0  0  0  0  0  0  0  0
   16.2709   68.0878   -5.5027 O   0  0  0  0  0  0  0  0  0  0  0  0
   15.5840   71.1310   -2.1102 O   0  0  0  0  0  0  0  0  0  0  0  0
   16.9539   70.2954   -5.8447 N   0  0  0  0  0  0  0  0  0  0  0  0
   15.9300   69.6046   -3.8148 N   0  0  0  0  0  0  0  0  0  0  0  0
   16.3793   69.2450   -5.0918 C   0  0  0  0  0  0  0  0  0  0  0  0
   17.0409   71.5746   -5.3061 C   0  0  0  0  0  0  0  0  0  0  0  0
   16.6065   71.9014   -4.0872 C   0  0  0  0  0  0  0  0  0  0  0  0
   15.9931   70.8620   -3.2355 C   0  0  0  0  0  0  0  0  0  0  0  0
   15.5256   68.8892   -3.2722 H   0  0  0  0  0  0  0  0  0  0  0  0
   21.9220   71.7913   -4.0890 O   0  0  0  0  0  0  0  0  0  0  0  0
   23.0943   71.9025   -2.9817 P   0  0  2  0  0  0  0  0  0  0  0  0
   23.6295   73.4190   -3.1588 O   0  0  0  0  0  0  0  0  0  0  0  0
   24.1593   70.8516   -3.1054 O   0  0  0  0  0  0  0  0  0  0  0  0
   22.3198   71.9064   -1.5657 O   0  0  0  0  0  0  0  0  0  0  0  0
   24.0086   72.4279    0.0131 O   0  0  0  0  0  0  0  0  0  0  0  0
   20.7698   72.1951    2.5640 O   0  0  0  0  0  0  0  0  0  0  0  0
   21.9090   74.7587    1.9490 O   0  0  0  0  0  0  0  0  0  0  0  0
   21.0042   70.3392    0.3548 O   0  0  0  0  0  0  0  0  0  0  0  0
   21.4445   72.4932    1.3387 C   0  0  1  0  0  0  0  0  0  0  0  0
   22.5394   73.5209    1.6319 C   0  0  1  0  0  0  0  0  0  0  0  0
   22.0499   71.2082    0.7768 C   0  0  2  0  0  0  0  0  0  0  0  0
   23.4760   73.6912    0.4281 C   0  0  1  0  0  0  0  0  0  0  0  0
   23.0031   71.4938   -0.3850 C   0  0  1  0  0  0  0  0  0  0  0  0
   20.3828   73.0068    2.9258 H   0  0  0  0  0  0  0  0  0  0  0  0
   21.3200   74.6373    2.7103 H   0  0  0  0  0  0  0  0  0  0  0  0
   20.4078   70.1659    1.0993 H   0  0  0  0  0  0  0  0  0  0  0  0
   24.7437   74.7454    2.1574 O   0  0  0  0  0  0  0  0  0  0  0  0
   24.6657   74.5921    0.7521 C   0  0  0  0  0  0  0  0  0  0  0  0
   25.4967   75.3163    2.3784 H   0  0  0  0  0  0  0  0  0  0  0  0
 25 28  1  0
 25 24  1  0
 25 26  1  6
 25 27  2  0
  1  4  1  0
  1 24  1  0
  1  2  1  1
  1  3  2  0
  6 11  1  0
  6 12  1  0
 29 36  1  0
 29 37  1  0
  9  7  1  6
  7 13  1  0
 10  8  1  6
  8 14  1  0
 37 28  1  6
  4  5  1  0
 33 30  1  1
 30 38  1  0
 34 31  1  6
 31 39  1  0
 35 32  1  6
 32 40  1  0
 41 42  1  0
 41 43  1  0
 15 19  2  0
 16 22  2  0
 12 17  1  1
 17 19  1  0
 17 20  1  0
 18 19  1  0
 18 22  1  0
 18 23  1  0
  9 10  1  0
  9 11  1  0
 10 12  1  0
 11  5  1  1
 33 34  1  0
 33 35  1  0
 34 36  1  0
 35 37  1  0
 36 42  1  1
 20 21  2  0
 21 22  1  0
M  CHG  2   2  -1  26  -1
M  END
>  <COMPND>  (307) 
    8629 

>  <AUTHOR>  (307) 
    GENERATED BY OPEN BABEL 3.1.1

>  <MASTER>  (307) 
        0    0    0    0    0    0    0    0   58    0   58    0

>  <minimizedAffinity>  (307) 
-8.11315

>  <CNNscore>  (307) 
0.8094706535

>  <CNNaffinity>  (307) 
4.5776805878

>  <CNN_VS>  (307) 
3.7054979801

>  <CNNaffinity_variance>  (307) 
0.1848070025

$$$$
308
     RDKit          3D

 43 45  0  0  0  0  0  0  0  0999 V2000
   22.9617   71.4093   -2.3407 P   0  0  2  0  0  0  0  0  0  0  0  0
   22.7365   73.0113   -2.3638 O   0  0  0  0  0  0  0  0  0  0  0  0
   24.1863   70.9310   -3.0639 O   0  0  0  0  0  0  0  0  0  0  0  0
   21.5545   70.8116   -2.8702 O   0  0  0  0  0  0  0  0  0  0  0  0
   20.9134   71.4545   -3.9580 C   0  0  0  0  0  0  0  0  0  0  0  0
   21.0475   70.5140   -6.1651 O   0  0  0  0  0  0  0  0  0  0  0  0
   23.2683   72.4671   -6.6595 O   0  0  0  0  0  0  0  0  0  0  0  0
   21.1443   73.6591   -7.8861 O   0  0  0  0  0  0  0  0  0  0  0  0
   22.0777   72.6304   -5.8906 C   0  0  1  0  0  0  0  0  0  0  0  0
   20.8799   72.7902   -6.8036 C   0  0  2  0  0  0  0  0  0  0  0  0
   21.7782   71.3046   -5.2021 C   0  0  1  0  0  0  0  0  0  0  0  0
   20.6308   71.3595   -7.2497 C   0  0  2  0  0  0  0  0  0  0  0  0
   23.4800   73.3012   -7.1084 H   0  0  0  0  0  0  0  0  0  0  0  0
   21.2960   74.5566   -7.5509 H   0  0  0  0  0  0  0  0  0  0  0  0
   19.5930   70.8614   -9.8290 O   0  0  0  0  0  0  0  0  0  0  0  0
   15.3006   70.4058   -8.2138 O   0  0  0  0  0  0  0  0  0  0  0  0
   19.2459   71.1071   -7.5320 N   0  0  0  0  0  0  0  0  0  0  0  0
   17.4566   70.6348   -9.0227 N   0  0  0  0  0  0  0  0  0  0  0  0
   18.8282   70.8696   -8.8623 C   0  0  0  0  0  0  0  0  0  0  0  0
   18.3182   71.0966   -6.4961 C   0  0  0  0  0  0  0  0  0  0  0  0
   17.0135   70.8724   -6.6659 C   0  0  0  0  0  0  0  0  0  0  0  0
   16.4949   70.6154   -8.0249 C   0  0  0  0  0  0  0  0  0  0  0  0
   17.1425   70.4672   -9.9408 H   0  0  0  0  0  0  0  0  0  0  0  0
   22.9335   71.0611   -0.7624 O   0  0  0  0  0  0  0  0  0  0  0  0
   21.8248   71.3688    0.3729 P   0  0  2  0  0  0  0  0  0  0  0  0
   21.5422   69.9130    1.0198 O   0  0  0  0  0  0  0  0  0  0  0  0
   20.5984   72.0679   -0.1381 O   0  0  0  0  0  0  0  0  0  0  0  0
   22.6261   72.1753    1.5185 O   0  0  0  0  0  0  0  0  0  0  0  0
   21.9768   73.9876    2.9008 O   0  0  0  0  0  0  0  0  0  0  0  0
   25.8891   75.0861    2.1670 O   0  0  0  0  0  0  0  0  0  0  0  0
   25.1550   74.1054    4.7646 O   0  0  0  0  0  0  0  0  0  0  0  0
   24.3071   73.8854    0.0609 O   0  0  0  0  0  0  0  0  0  0  0  0
   24.8139   74.1717    2.3981 C   0  0  1  0  0  0  0  0  0  0  0  0
   24.2078   74.4807    3.7685 C   0  0  1  0  0  0  0  0  0  0  0  0
   23.7687   74.3417    1.2972 C   0  0  2  0  0  0  0  0  0  0  0  0
   22.8883   73.7245    3.9739 C   0  0  1  0  0  0  0  0  0  0  0  0
   22.4775   73.5889    1.6232 C   0  0  1  0  0  0  0  0  0  0  0  0
   26.5564   74.9829    2.8623 H   0  0  0  0  0  0  0  0  0  0  0  0
   25.9837   74.5896    4.6232 H   0  0  0  0  0  0  0  0  0  0  0  0
   25.1239   74.3698   -0.1343 H   0  0  0  0  0  0  0  0  0  0  0  0
   22.7465   73.3995    6.3368 O   0  0  0  0  0  0  0  0  0  0  0  0
   22.1873   74.1379    5.2661 C   0  0  0  0  0  0  0  0  0  0  0  0
   22.3102   73.6525    7.1658 H   0  0  0  0  0  0  0  0  0  0  0  0
 25 28  1  0
 25 24  1  0
 25 26  1  1
 25 27  2  0
  1  4  1  0
  1 24  1  0
  1  2  1  1
  1  3  2  0
  6 11  1  0
  6 12  1  0
 29 36  1  0
 29 37  1  0
  9  7  1  6
  7 13  1  0
 10  8  1  6
  8 14  1  0
 37 28  1  1
  4  5  1  0
 33 30  1  6
 30 38  1  0
 34 31  1  1
 31 39  1  0
 35 32  1  6
 32 40  1  0
 41 42  1  0
 41 43  1  0
 15 19  2  0
 16 22  2  0
 12 17  1  1
 17 19  1  0
 17 20  1  0
 18 19  1  0
 18 22  1  0
 18 23  1  0
  9 10  1  0
  9 11  1  0
 10 12  1  0
 11  5  1  1
 33 34  1  0
 33 35  1  0
 34 36  1  0
 35 37  1  0
 36 42  1  1
 20 21  2  0
 21 22  1  0
M  CHG  2   2  -1  26  -1
M  END
>  <COMPND>  (308) 
    8629 

>  <AUTHOR>  (308) 
    GENERATED BY OPEN BABEL 3.1.1

>  <MASTER>  (308) 
        0    0    0    0    0    0    0    0   58    0   58    0

>  <minimizedAffinity>  (308) 
-7.34396

>  <CNNscore>  (308) 
0.8094009161

>  <CNNaffinity>  (308) 
4.4786062241

>  <CNN_VS>  (308) 
3.6249880791

>  <CNNaffinity_variance>  (308) 
0.2572614551

$$$$
309
     RDKit          3D

 43 45  0  0  0  0  0  0  0  0999 V2000
   22.9813   71.3665   -2.4130 P   0  0  2  0  0  0  0  0  0  0  0  0
   22.7310   72.9637   -2.4730 O   0  0  0  0  0  0  0  0  0  0  0  0
   24.2362   70.8959   -3.0877 O   0  0  0  0  0  0  0  0  0  0  0  0
   21.6018   70.7357   -2.9760 O   0  0  0  0  0  0  0  0  0  0  0  0
   20.9406   71.3975   -4.0403 C   0  0  0  0  0  0  0  0  0  0  0  0
   21.0643   70.5324   -6.2786 O   0  0  0  0  0  0  0  0  0  0  0  0
   23.2662   72.5182   -6.7243 O   0  0  0  0  0  0  0  0  0  0  0  0
   21.1236   73.7340   -7.8939 O   0  0  0  0  0  0  0  0  0  0  0  0
   22.0806   72.6464   -5.9413 C   0  0  1  0  0  0  0  0  0  0  0  0
   20.8744   72.8272   -6.8391 C   0  0  2  0  0  0  0  0  0  0  0  0
   21.7966   71.2960   -5.2953 C   0  0  1  0  0  0  0  0  0  0  0  0
   20.6325   71.4103   -7.3310 C   0  0  2  0  0  0  0  0  0  0  0  0
   23.4680   73.3685   -7.1466 H   0  0  0  0  0  0  0  0  0  0  0  0
   21.2712   74.6208   -7.5300 H   0  0  0  0  0  0  0  0  0  0  0  0
   19.5987   70.8601   -9.9013 O   0  0  0  0  0  0  0  0  0  0  0  0
   15.3012   70.4546   -8.2864 O   0  0  0  0  0  0  0  0  0  0  0  0
   19.2474   71.1568   -7.6110 N   0  0  0  0  0  0  0  0  0  0  0  0
   17.4598   70.6585   -9.0951 N   0  0  0  0  0  0  0  0  0  0  0  0
   18.8318   70.8919   -8.9367 C   0  0  0  0  0  0  0  0  0  0  0  0
   18.3174   71.1719   -6.5772 C   0  0  0  0  0  0  0  0  0  0  0  0
   17.0123   70.9486   -6.7451 C   0  0  0  0  0  0  0  0  0  0  0  0
   16.4958   70.6640   -8.0994 C   0  0  0  0  0  0  0  0  0  0  0  0
   17.1471   70.4721  -10.0101 H   0  0  0  0  0  0  0  0  0  0  0  0
   22.9079   71.0463   -0.8303 O   0  0  0  0  0  0  0  0  0  0  0  0
   21.8143   71.4583    0.2865 P   0  0  2  0  0  0  0  0  0  0  0  0
   21.5632   70.0755    1.0879 O   0  0  0  0  0  0  0  0  0  0  0  0
   20.5698   72.0849   -0.2726 O   0  0  0  0  0  0  0  0  0  0  0  0
   22.6235   72.3907    1.3262 O   0  0  0  0  0  0  0  0  0  0  0  0
   24.3871   72.0884    2.8803 O   0  0  0  0  0  0  0  0  0  0  0  0
   21.7796   74.2398    5.2516 O   0  0  0  0  0  0  0  0  0  0  0  0
   24.1645   75.4982    4.2633 O   0  0  0  0  0  0  0  0  0  0  0  0
   20.7548   72.2507    3.4151 O   0  0  0  0  0  0  0  0  0  0  0  0
   22.4282   73.8695    4.0319 C   0  0  1  0  0  0  0  0  0  0  0  0
   23.9321   74.0937    4.2014 C   0  0  1  0  0  0  0  0  0  0  0  0
   22.1336   72.4001    3.7361 C   0  0  2  0  0  0  0  0  0  0  0  0
   24.7192   73.4726    3.0395 C   0  0  1  0  0  0  0  0  0  0  0  0
   23.0041   71.8679    2.5963 C   0  0  1  0  0  0  0  0  0  0  0  0
   21.9622   75.1719    5.4449 H   0  0  0  0  0  0  0  0  0  0  0  0
   23.6615   75.8781    5.0008 H   0  0  0  0  0  0  0  0  0  0  0  0
   20.2144   72.5909    4.1445 H   0  0  0  0  0  0  0  0  0  0  0  0
   26.6588   74.8672    2.9957 O   0  0  0  0  0  0  0  0  0  0  0  0
   26.2275   73.5462    3.2665 C   0  0  0  0  0  0  0  0  0  0  0  0
   27.6170   74.9291    3.1363 H   0  0  0  0  0  0  0  0  0  0  0  0
 25 28  1  0
 25 24  1  0
 25 26  1  1
 25 27  2  0
  1  4  1  0
  1 24  1  0
  1  2  1  1
  1  3  2  0
  6 11  1  0
  6 12  1  0
 29 36  1  0
 29 37  1  0
  9  7  1  6
  7 13  1  0
 10  8  1  6
  8 14  1  0
 37 28  1  6
  4  5  1  0
 33 30  1  1
 30 38  1  0
 34 31  1  6
 31 39  1  0
 35 32  1  6
 32 40  1  0
 41 42  1  0
 41 43  1  0
 15 19  2  0
 16 22  2  0
 12 17  1  1
 17 19  1  0
 17 20  1  0
 18 19  1  0
 18 22  1  0
 18 23  1  0
  9 10  1  0
  9 11  1  0
 10 12  1  0
 11  5  1  1
 33 34  1  0
 33 35  1  0
 34 36  1  0
 35 37  1  0
 36 42  1  1
 20 21  2  0
 21 22  1  0
M  CHG  2   2  -1  26  -1
M  END
>  <COMPND>  (309) 
    8629 

>  <AUTHOR>  (309) 
    GENERATED BY OPEN BABEL 3.1.1

>  <MASTER>  (309) 
        0    0    0    0    0    0    0    0   58    0   58    0

>  <minimizedAffinity>  (309) 
-7.74271

>  <CNNscore>  (309) 
0.8070964217

>  <CNNaffinity>  (309) 
4.5354390144

>  <CNN_VS>  (309) 
3.6605365276

>  <CNNaffinity_variance>  (309) 
0.2522273958

$$$$
310
     RDKit          3D

 43 45  0  0  0  0  0  0  0  0999 V2000
   22.4374   73.0585   -1.8384 P   0  0  2  0  0  0  0  0  0  0  0  0
   21.2367   74.1349   -1.7089 O   0  0  0  0  0  0  0  0  0  0  0  0
   23.7940   73.5731   -1.4558 O   0  0  0  0  0  0  0  0  0  0  0  0
   22.2983   72.5014   -3.3511 O   0  0  0  0  0  0  0  0  0  0  0  0
   21.6463   73.3124   -4.3129 C   0  0  0  0  0  0  0  0  0  0  0  0
   21.1185   71.2225   -5.3746 O   0  0  0  0  0  0  0  0  0  0  0  0
   21.0000   72.7700   -7.9401 O   0  0  0  0  0  0  0  0  0  0  0  0
   18.3656   72.4854   -7.2956 O   0  0  0  0  0  0  0  0  0  0  0  0
   20.6024   73.1660   -6.6285 C   0  0  1  0  0  0  0  0  0  0  0  0
   19.3078   72.4815   -6.2424 C   0  0  2  0  0  0  0  0  0  0  0  0
   21.5892   72.5626   -5.6368 C   0  0  1  0  0  0  0  0  0  0  0  0
   19.7841   71.0827   -5.8892 C   0  0  2  0  0  0  0  0  0  0  0  0
   20.3847   73.1438   -8.5910 H   0  0  0  0  0  0  0  0  0  0  0  0
   18.0936   73.3973   -7.4828 H   0  0  0  0  0  0  0  0  0  0  0  0
   17.3447   69.7638   -6.4255 O   0  0  0  0  0  0  0  0  0  0  0  0
   16.7137   68.7320   -1.9782 O   0  0  0  0  0  0  0  0  0  0  0  0
   18.9619   70.4601   -4.8904 N   0  0  0  0  0  0  0  0  0  0  0  0
   17.0326   69.2510   -4.2107 N   0  0  0  0  0  0  0  0  0  0  0  0
   17.7548   69.8251   -5.2646 C   0  0  0  0  0  0  0  0  0  0  0  0
   19.3550   70.4828   -3.5566 C   0  0  0  0  0  0  0  0  0  0  0  0
   18.6542   69.9318   -2.5634 C   0  0  0  0  0  0  0  0  0  0  0  0
   17.3809   69.2484   -2.8693 C   0  0  0  0  0  0  0  0  0  0  0  0
   16.1880   68.8033   -4.4476 H   0  0  0  0  0  0  0  0  0  0  0  0
   21.9117   71.8183   -0.9447 O   0  0  0  0  0  0  0  0  0  0  0  0
   21.4348   71.7487    0.5982 P   0  0  2  0  0  0  0  0  0  0  0  0
   21.4719   70.1650    0.9269 O   0  0  0  0  0  0  0  0  0  0  0  0
   20.1110   72.4053    0.8633 O   0  0  0  0  0  0  0  0  0  0  0  0
   22.6680   72.3678    1.4353 O   0  0  0  0  0  0  0  0  0  0  0  0
   24.4560   71.5624    2.7662 O   0  0  0  0  0  0  0  0  0  0  0  0
   22.9960   74.4680    5.3111 O   0  0  0  0  0  0  0  0  0  0  0  0
   25.4863   74.8990    3.9469 O   0  0  0  0  0  0  0  0  0  0  0  0
   21.1622   72.8605    3.7515 O   0  0  0  0  0  0  0  0  0  0  0  0
   23.3204   73.8889    4.0443 C   0  0  1  0  0  0  0  0  0  0  0  0
   24.8288   73.6362    4.0046 C   0  0  1  0  0  0  0  0  0  0  0  0
   22.5514   72.5790    3.8827 C   0  0  2  0  0  0  0  0  0  0  0  0
   25.2149   72.7769    2.7932 C   0  0  1  0  0  0  0  0  0  0  0  0
   23.0464   71.7785    2.6767 C   0  0  1  0  0  0  0  0  0  0  0  0
   23.4807   75.3003    5.4198 H   0  0  0  0  0  0  0  0  0  0  0  0
   25.2336   75.4320    4.7172 H   0  0  0  0  0  0  0  0  0  0  0  0
   20.8610   73.3672    4.5212 H   0  0  0  0  0  0  0  0  0  0  0  0
   26.7974   71.0235    2.4324 O   0  0  0  0  0  0  0  0  0  0  0  0
   26.6896   72.3810    2.8195 C   0  0  0  0  0  0  0  0  0  0  0  0
   27.7306   70.7576    2.4442 H   0  0  0  0  0  0  0  0  0  0  0  0
 25 28  1  0
 25 24  1  0
 25 26  1  1
 25 27  2  0
  1  4  1  0
  1 24  1  0
  1  2  1  6
  1  3  2  0
  6 11  1  0
  6 12  1  0
 29 36  1  0
 29 37  1  0
  9  7  1  6
  7 13  1  0
 10  8  1  6
  8 14  1  0
 37 28  1  6
  4  5  1  0
 33 30  1  1
 30 38  1  0
 34 31  1  6
 31 39  1  0
 35 32  1  6
 32 40  1  0
 41 42  1  0
 41 43  1  0
 15 19  2  0
 16 22  2  0
 12 17  1  1
 17 19  1  0
 17 20  1  0
 18 19  1  0
 18 22  1  0
 18 23  1  0
  9 10  1  0
  9 11  1  0
 10 12  1  0
 11  5  1  1
 33 34  1  0
 33 35  1  0
 34 36  1  0
 35 37  1  0
 36 42  1  1
 20 21  2  0
 21 22  1  0
M  CHG  2   2  -1  26  -1
M  END
>  <COMPND>  (310) 
    8629 

>  <AUTHOR>  (310) 
    GENERATED BY OPEN BABEL 3.1.1

>  <MASTER>  (310) 
        0    0    0    0    0    0    0    0   58    0   58    0

>  <minimizedAffinity>  (310) 
-6.76754

>  <CNNscore>  (310) 
0.6655034423

>  <CNNaffinity>  (310) 
4.2483758926

>  <CNN_VS>  (310) 
2.8273088932

>  <CNNaffinity_variance>  (310) 
0.0586682372

$$$$
311
     RDKit          3D

 43 45  0  0  0  0  0  0  0  0999 V2000
   21.5660   72.6798   -5.4958 P   0  0  2  0  0  0  0  0  0  0  0  0
   21.0737   74.1332   -6.0084 O   0  0  0  0  0  0  0  0  0  0  0  0
   23.0138   72.3761   -5.7469 O   0  0  0  0  0  0  0  0  0  0  0  0
   20.5071   71.6538   -6.1619 O   0  0  0  0  0  0  0  0  0  0  0  0
   19.9810   71.9610   -7.4412 C   0  0  0  0  0  0  0  0  0  0  0  0
   18.6535   70.0250   -6.9280 O   0  0  0  0  0  0  0  0  0  0  0  0
   18.0447   69.8964   -9.8612 O   0  0  0  0  0  0  0  0  0  0  0  0
   15.7917   71.0409   -8.8361 O   0  0  0  0  0  0  0  0  0  0  0  0
   18.2157   71.0392   -9.0245 C   0  0  1  0  0  0  0  0  0  0  0  0
   17.0044   71.2255   -8.1347 C   0  0  2  0  0  0  0  0  0  0  0  0
   19.3083   70.7201   -8.0118 C   0  0  1  0  0  0  0  0  0  0  0  0
   17.2305   70.1665   -7.0691 C   0  0  2  0  0  0  0  0  0  0  0  0
   17.3519   70.0765  -10.5166 H   0  0  0  0  0  0  0  0  0  0  0  0
   15.6938   71.7390   -9.5023 H   0  0  0  0  0  0  0  0  0  0  0  0
   16.7378   68.3624   -4.9524 O   0  0  0  0  0  0  0  0  0  0  0  0
   15.0789   71.7044   -2.2468 O   0  0  0  0  0  0  0  0  0  0  0  0
   16.6708   70.5382   -5.8002 N   0  0  0  0  0  0  0  0  0  0  0  0
   15.9124   70.0280   -3.6068 N   0  0  0  0  0  0  0  0  0  0  0  0
   16.4626   69.5550   -4.8050 C   0  0  0  0  0  0  0  0  0  0  0  0
   16.3350   71.8648   -5.5528 C   0  0  0  0  0  0  0  0  0  0  0  0
   15.8099   72.2993   -4.4053 C   0  0  0  0  0  0  0  0  0  0  0  0
   15.5607   71.3360   -3.3136 C   0  0  0  0  0  0  0  0  0  0  0  0
   15.7581   69.3609   -2.8991 H   0  0  0  0  0  0  0  0  0  0  0  0
   21.1395   72.6808   -3.9366 O   0  0  0  0  0  0  0  0  0  0  0  0
   19.6948   72.8495   -3.2314 P   0  0  2  0  0  0  0  0  0  0  0  0
   19.0516   71.3693   -3.3443 O   0  0  0  0  0  0  0  0  0  0  0  0
   18.8466   73.9398   -3.8194 O   0  0  0  0  0  0  0  0  0  0  0  0
   20.0251   73.0318   -1.6621 O   0  0  0  0  0  0  0  0  0  0  0  0
   21.6330   73.9972   -0.2133 O   0  0  0  0  0  0  0  0  0  0  0  0
   21.8023   70.0932    1.1211 O   0  0  0  0  0  0  0  0  0  0  0  0
   20.5515   72.0970    2.7546 O   0  0  0  0  0  0  0  0  0  0  0  0
   21.4943   70.6413   -1.7045 O   0  0  0  0  0  0  0  0  0  0  0  0
   21.1710   71.2655    0.5992 C   0  0  1  0  0  0  0  0  0  0  0  0
   21.3490   72.3977    1.6127 C   0  0  1  0  0  0  0  0  0  0  0  0
   21.8205   71.6306   -0.7343 C   0  0  2  0  0  0  0  0  0  0  0  0
   20.9356   73.7484    1.0128 C   0  0  1  0  0  0  0  0  0  0  0  0
   21.3792   73.0132   -1.2178 C   0  0  1  0  0  0  0  0  0  0  0  0
   21.3942   69.8557    1.9676 H   0  0  0  0  0  0  0  0  0  0  0  0
   20.8224   71.2416    3.1235 H   0  0  0  0  0  0  0  0  0  0  0  0
   21.7791   69.7707   -1.3868 H   0  0  0  0  0  0  0  0  0  0  0  0
   22.1503   74.4551    2.9451 O   0  0  0  0  0  0  0  0  0  0  0  0
   21.2524   74.9115    1.9503 C   0  0  0  0  0  0  0  0  0  0  0  0
   22.3612   75.1850    3.5489 H   0  0  0  0  0  0  0  0  0  0  0  0
 25 28  1  0
 25 24  1  0
 25 26  1  1
 25 27  2  0
  1  4  1  0
  1 24  1  0
  1  2  1  6
  1  3  2  0
  6 11  1  0
  6 12  1  0
 29 36  1  0
 29 37  1  0
  9  7  1  6
  7 13  1  0
 10  8  1  6
  8 14  1  0
 37 28  1  1
  4  5  1  0
 33 30  1  1
 30 38  1  0
 34 31  1  1
 31 39  1  0
 35 32  1  6
 32 40  1  0
 41 42  1  0
 41 43  1  0
 15 19  2  0
 16 22  2  0
 12 17  1  1
 17 19  1  0
 17 20  1  0
 18 19  1  0
 18 22  1  0
 18 23  1  0
  9 10  1  0
  9 11  1  0
 10 12  1  0
 11  5  1  1
 33 34  1  0
 33 35  1  0
 34 36  1  0
 35 37  1  0
 36 42  1  1
 20 21  2  0
 21 22  1  0
M  CHG  2   2  -1  26  -1
M  END
>  <COMPND>  (311) 
    8629 

>  <AUTHOR>  (311) 
    GENERATED BY OPEN BABEL 3.1.1

>  <MASTER>  (311) 
        0    0    0    0    0    0    0    0   58    0   58    0

>  <minimizedAffinity>  (311) 
-7.33119

>  <CNNscore>  (311) 
0.6053663492

>  <CNNaffinity>  (311) 
4.3595566750

>  <CNN_VS>  (311) 
2.6391289234

>  <CNNaffinity_variance>  (311) 
0.2230836600

$$$$
312
     RDKit          3D

 43 45  0  0  0  0  0  0  0  0999 V2000
   21.9155   72.3948   -5.8063 P   0  0  2  0  0  0  0  0  0  0  0  0
   21.2176   73.7014   -5.1559 O   0  0  0  0  0  0  0  0  0  0  0  0
   23.0407   72.6837   -6.7559 O   0  0  0  0  0  0  0  0  0  0  0  0
   20.6750   71.5573   -6.4209 O   0  0  0  0  0  0  0  0  0  0  0  0
   20.2421   71.8576   -7.7362 C   0  0  0  0  0  0  0  0  0  0  0  0
   18.8992   69.9434   -7.1826 O   0  0  0  0  0  0  0  0  0  0  0  0
   18.0329   69.9549  -10.0532 O   0  0  0  0  0  0  0  0  0  0  0  0
   15.9182   71.1242   -8.7894 O   0  0  0  0  0  0  0  0  0  0  0  0
   18.3150   71.0564   -9.1915 C   0  0  1  0  0  0  0  0  0  0  0  0
   17.1930   71.2425   -8.1915 C   0  0  2  0  0  0  0  0  0  0  0  0
   19.4803   70.6624   -8.2925 C   0  0  1  0  0  0  0  0  0  0  0  0
   17.4750   70.1339   -7.1917 C   0  0  2  0  0  0  0  0  0  0  0  0
   17.2921   70.1830  -10.6373 H   0  0  0  0  0  0  0  0  0  0  0  0
   15.7864   71.8519   -9.4170 H   0  0  0  0  0  0  0  0  0  0  0  0
   16.5222   68.2624   -5.3029 O   0  0  0  0  0  0  0  0  0  0  0  0
   15.8359   71.5361   -2.1323 O   0  0  0  0  0  0  0  0  0  0  0  0
   17.0410   70.4697   -5.8649 N   0  0  0  0  0  0  0  0  0  0  0  0
   16.1814   69.8939   -3.7257 N   0  0  0  0  0  0  0  0  0  0  0  0
   16.5792   69.4546   -4.9949 C   0  0  0  0  0  0  0  0  0  0  0  0
   17.0762   71.7928   -5.4383 C   0  0  0  0  0  0  0  0  0  0  0  0
   16.6921   72.1954   -4.2252 C   0  0  0  0  0  0  0  0  0  0  0  0
   16.1965   71.1975   -3.2554 C   0  0  0  0  0  0  0  0  0  0  0  0
   15.8557   69.2044   -3.1027 H   0  0  0  0  0  0  0  0  0  0  0  0
   22.3353   71.5240   -4.5107 O   0  0  0  0  0  0  0  0  0  0  0  0
   23.3697   71.8397   -3.3093 P   0  0  2  0  0  0  0  0  0  0  0  0
   24.1032   73.1964   -3.7981 O   0  0  0  0  0  0  0  0  0  0  0  0
   24.3057   70.7101   -2.9903 O   0  0  0  0  0  0  0  0  0  0  0  0
   22.4356   72.3026   -2.0771 O   0  0  0  0  0  0  0  0  0  0  0  0
   21.8546   71.1910   -0.0663 O   0  0  0  0  0  0  0  0  0  0  0  0
   18.2494   73.0396   -0.8637 O   0  0  0  0  0  0  0  0  0  0  0  0
   19.8935   74.0052    1.2839 O   0  0  0  0  0  0  0  0  0  0  0  0
   19.8218   71.9448   -3.0336 O   0  0  0  0  0  0  0  0  0  0  0  0
   19.6743   72.9199   -0.8362 C   0  0  1  0  0  0  0  0  0  0  0  0
   20.1143   72.7635    0.6207 C   0  0  1  0  0  0  0  0  0  0  0  0
   20.0887   71.7001   -1.6569 C   0  0  2  0  0  0  0  0  0  0  0  0
   21.5932   72.3641    0.7129 C   0  0  1  0  0  0  0  0  0  0  0  0
   21.5664   71.3594   -1.4557 C   0  0  1  0  0  0  0  0  0  0  0  0
   17.9797   73.8125   -0.3448 H   0  0  0  0  0  0  0  0  0  0  0  0
   18.9561   74.2461    1.2179 H   0  0  0  0  0  0  0  0  0  0  0  0
   18.8832   72.1589   -3.1478 H   0  0  0  0  0  0  0  0  0  0  0  0
   20.8519   72.0171    2.9577 O   0  0  0  0  0  0  0  0  0  0  0  0
   22.0123   72.0494    2.1473 C   0  0  0  0  0  0  0  0  0  0  0  0
   21.1033   71.8176    3.8735 H   0  0  0  0  0  0  0  0  0  0  0  0
 25 28  1  0
 25 24  1  0
 25 26  1  6
 25 27  2  0
  1  4  1  0
  1 24  1  0
  1  2  1  1
  1  3  2  0
  6 11  1  0
  6 12  1  0
 29 36  1  0
 29 37  1  0
  9  7  1  6
  7 13  1  0
 10  8  1  6
  8 14  1  0
 37 28  1  1
  4  5  1  0
 33 30  1  1
 30 38  1  0
 34 31  1  1
 31 39  1  0
 35 32  1  6
 32 40  1  0
 41 42  1  0
 41 43  1  0
 15 19  2  0
 16 22  2  0
 12 17  1  1
 17 19  1  0
 17 20  1  0
 18 19  1  0
 18 22  1  0
 18 23  1  0
  9 10  1  0
  9 11  1  0
 10 12  1  0
 11  5  1  1
 33 34  1  0
 33 35  1  0
 34 36  1  0
 35 37  1  0
 36 42  1  1
 20 21  2  0
 21 22  1  0
M  CHG  2   2  -1  26  -1
M  END
>  <COMPND>  (312) 
    8629 

>  <AUTHOR>  (312) 
    GENERATED BY OPEN BABEL 3.1.1

>  <MASTER>  (312) 
        0    0    0    0    0    0    0    0   58    0   58    0

>  <minimizedAffinity>  (312) 
-7.61968

>  <CNNscore>  (312) 
0.5014930964

>  <CNNaffinity>  (312) 
4.1901459694

>  <CNN_VS>  (312) 
2.1013293266

>  <CNNaffinity_variance>  (312) 
0.4998878539

$$$$
313
     RDKit          3D

 43 45  0  0  0  0  0  0  0  0999 V2000
   23.5005   72.3067   -3.2710 P   0  0  2  0  0  0  0  0  0  0  0  0
   24.0819   70.8037   -3.1280 O   0  0  0  0  0  0  0  0  0  0  0  0
   24.5195   73.3493   -3.6261 O   0  0  0  0  0  0  0  0  0  0  0  0
   22.7023   72.5479   -1.8845 O   0  0  0  0  0  0  0  0  0  0  0  0
   23.4514   72.7183   -0.6939 C   0  0  0  0  0  0  0  0  0  0  0  0
   24.0071   71.6992    1.4100 O   0  0  0  0  0  0  0  0  0  0  0  0
   21.4966   70.0928    1.0822 O   0  0  0  0  0  0  0  0  0  0  0  0
   20.7355   72.0327    2.8413 O   0  0  0  0  0  0  0  0  0  0  0  0
   21.7561   71.4464    0.7138 C   0  0  1  0  0  0  0  0  0  0  0  0
   21.7858   72.3296    1.9437 C   0  0  2  0  0  0  0  0  0  0  0  0
   23.1970   71.5320    0.2260 C   0  0  1  0  0  0  0  0  0  0  0  0
   23.1553   72.0177    2.5226 C   0  0  2  0  0  0  0  0  0  0  0  0
   20.5819   70.0132    1.3968 H   0  0  0  0  0  0  0  0  0  0  0  0
   19.8854   72.2482    2.4271 H   0  0  0  0  0  0  0  0  0  0  0  0
   22.5336   72.6768    5.1979 O   0  0  0  0  0  0  0  0  0  0  0  0
   25.3638   76.3140    5.1521 O   0  0  0  0  0  0  0  0  0  0  0  0
   23.7155   73.1315    3.2348 N   0  0  0  0  0  0  0  0  0  0  0  0
   23.9435   74.4872    5.1730 N   0  0  0  0  0  0  0  0  0  0  0  0
   23.3360   73.3756    4.5753 C   0  0  0  0  0  0  0  0  0  0  0  0
   24.6305   73.9677    2.6045 C   0  0  0  0  0  0  0  0  0  0  0  0
   25.1998   75.0244    3.1880 C   0  0  0  0  0  0  0  0  0  0  0  0
   24.8575   75.3491    4.5878 C   0  0  0  0  0  0  0  0  0  0  0  0
   23.6940   74.6770    6.1065 H   0  0  0  0  0  0  0  0  0  0  0  0
   22.3098   72.1345   -4.3506 O   0  0  0  0  0  0  0  0  0  0  0  0
   21.8962   73.0353   -5.6275 P   0  0  2  0  0  0  0  0  0  0  0  0
   22.9852   72.6138   -6.7473 O   0  0  0  0  0  0  0  0  0  0  0  0
   21.8350   74.5089   -5.3471 O   0  0  0  0  0  0  0  0  0  0  0  0
   20.5087   72.3951   -6.1469 O   0  0  0  0  0  0  0  0  0  0  0  0
   19.5564   70.2346   -5.9414 O   0  0  0  0  0  0  0  0  0  0  0  0
   18.5324   71.0370   -9.8604 O   0  0  0  0  0  0  0  0  0  0  0  0
   16.5016   71.0653   -7.8299 O   0  0  0  0  0  0  0  0  0  0  0  0
   21.1071   71.8785   -8.8395 O   0  0  0  0  0  0  0  0  0  0  0  0
   18.7829   71.3531   -8.4883 C   0  0  1  0  0  0  0  0  0  0  0  0
   17.8121   70.5450   -7.6250 C   0  0  1  0  0  0  0  0  0  0  0  0
   20.2289   70.9957   -8.1496 C   0  0  2  0  0  0  0  0  0  0  0  0
   18.1927   70.6248   -6.1405 C   0  0  1  0  0  0  0  0  0  0  0  0
   20.4886   71.0593   -6.6435 C   0  0  1  0  0  0  0  0  0  0  0  0
   17.6160   71.2621  -10.0820 H   0  0  0  0  0  0  0  0  0  0  0  0
   16.2737   71.0095   -8.7713 H   0  0  0  0  0  0  0  0  0  0  0  0
   20.9330   71.8287   -9.7919 H   0  0  0  0  0  0  0  0  0  0  0  0
   16.0693   70.3084   -5.0917 O   0  0  0  0  0  0  0  0  0  0  0  0
   17.3341   69.7008   -5.2795 C   0  0  0  0  0  0  0  0  0  0  0  0
   15.5120   69.7314   -4.5456 H   0  0  0  0  0  0  0  0  0  0  0  0
 25 28  1  0
 25 24  1  0
 25 26  1  6
 25 27  2  0
  1  4  1  0
  1 24  1  0
  1  2  1  1
  1  3  2  0
  6 11  1  0
  6 12  1  0
 29 36  1  0
 29 37  1  0
  9  7  1  1
  7 13  1  0
 10  8  1  1
  8 14  1  0
 37 28  1  1
  4  5  1  0
 33 30  1  6
 30 38  1  0
 34 31  1  1
 31 39  1  0
 35 32  1  6
 32 40  1  0
 41 42  1  0
 41 43  1  0
 15 19  2  0
 16 22  2  0
 12 17  1  6
 17 19  1  0
 17 20  1  0
 18 19  1  0
 18 22  1  0
 18 23  1  0
  9 10  1  0
  9 11  1  0
 10 12  1  0
 11  5  1  6
 33 34  1  0
 33 35  1  0
 34 36  1  0
 35 37  1  0
 36 42  1  1
 20 21  2  0
 21 22  1  0
M  CHG  2   2  -1  26  -1
M  END
>  <COMPND>  (313) 
    8629 

>  <AUTHOR>  (313) 
    GENERATED BY OPEN BABEL 3.1.1

>  <MASTER>  (313) 
        0    0    0    0    0    0    0    0   58    0   58    0

>  <minimizedAffinity>  (313) 
-7.98730

>  <CNNscore>  (313) 
0.4990326166

>  <CNNaffinity>  (313) 
4.1056637764

>  <CNN_VS>  (313) 
2.0488600731

>  <CNNaffinity_variance>  (313) 
0.2312401235

$$$$
314
     RDKit          3D

 43 45  0  0  0  0  0  0  0  0999 V2000
   22.6512   75.0850   -4.1122 P   0  0  2  0  0  0  0  0  0  0  0  0
   24.1046   74.8880   -4.7951 O   0  0  0  0  0  0  0  0  0  0  0  0
   22.0624   76.4572   -4.2599 O   0  0  0  0  0  0  0  0  0  0  0  0
   22.8632   74.5713   -2.5926 O   0  0  0  0  0  0  0  0  0  0  0  0
   21.7733   73.9553   -1.9290 C   0  0  0  0  0  0  0  0  0  0  0  0
   23.2468   72.1121   -1.4762 O   0  0  0  0  0  0  0  0  0  0  0  0
   20.8157   70.3665   -1.6591 O   0  0  0  0  0  0  0  0  0  0  0  0
   21.1730   70.6078    1.0336 O   0  0  0  0  0  0  0  0  0  0  0  0
   20.9410   71.6866   -1.1328 C   0  0  1  0  0  0  0  0  0  0  0  0
   21.6439   71.6536    0.2082 C   0  0  2  0  0  0  0  0  0  0  0  0
   21.9413   72.4436   -1.9976 C   0  0  1  0  0  0  0  0  0  0  0  0
   23.0950   71.4670   -0.2012 C   0  0  2  0  0  0  0  0  0  0  0  0
   20.1816   69.8639   -1.1232 H   0  0  0  0  0  0  0  0  0  0  0  0
   20.2460   70.7722    1.2669 H   0  0  0  0  0  0  0  0  0  0  0  0
   24.5990   70.0180    1.7006 O   0  0  0  0  0  0  0  0  0  0  0  0
   26.5673   73.8513    3.3355 O   0  0  0  0  0  0  0  0  0  0  0  0
   24.0086   72.0610    0.7337 N   0  0  0  0  0  0  0  0  0  0  0  0
   25.5780   71.9278    2.5130 N   0  0  0  0  0  0  0  0  0  0  0  0
   24.7141   71.2442    1.6478 C   0  0  0  0  0  0  0  0  0  0  0  0
   24.1978   73.4387    0.7377 C   0  0  0  0  0  0  0  0  0  0  0  0
   25.0243   74.0753    1.5701 C   0  0  0  0  0  0  0  0  0  0  0  0
   25.7992   73.2953    2.5565 C   0  0  0  0  0  0  0  0  0  0  0  0
   26.0798   71.3794    3.1588 H   0  0  0  0  0  0  0  0  0  0  0  0
   21.7738   73.9013   -4.7769 O   0  0  0  0  0  0  0  0  0  0  0  0
   21.6749   73.3830   -6.3048 P   0  0  2  0  0  0  0  0  0  0  0  0
   22.8664   72.2932   -6.4048 O   0  0  0  0  0  0  0  0  0  0  0  0
   21.7477   74.4761   -7.3313 O   0  0  0  0  0  0  0  0  0  0  0  0
   20.3185   72.5096   -6.3529 O   0  0  0  0  0  0  0  0  0  0  0  0
   19.4774   70.3263   -5.9755 O   0  0  0  0  0  0  0  0  0  0  0  0
   18.4617   70.7457   -9.9558 O   0  0  0  0  0  0  0  0  0  0  0  0
   16.4071   70.8349   -7.9512 O   0  0  0  0  0  0  0  0  0  0  0  0
   20.9764   71.8038   -8.9881 O   0  0  0  0  0  0  0  0  0  0  0  0
   18.6784   71.1873   -8.6129 C   0  0  1  0  0  0  0  0  0  0  0  0
   17.7403   70.4033   -7.6930 C   0  0  1  0  0  0  0  0  0  0  0  0
   20.1367   70.9360   -8.2340 C   0  0  2  0  0  0  0  0  0  0  0  0
   18.0978   70.6260   -6.2173 C   0  0  1  0  0  0  0  0  0  0  0  0
   20.3741   71.1380   -6.7364 C   0  0  1  0  0  0  0  0  0  0  0  0
   17.5377   70.9028  -10.2028 H   0  0  0  0  0  0  0  0  0  0  0  0
   16.1942   70.6892   -8.8864 H   0  0  0  0  0  0  0  0  0  0  0  0
   20.8169   71.6661   -9.9343 H   0  0  0  0  0  0  0  0  0  0  0  0
   15.9479   70.2169   -5.2585 O   0  0  0  0  0  0  0  0  0  0  0  0
   17.2778   69.7326   -5.2891 C   0  0  0  0  0  0  0  0  0  0  0  0
   15.4142   69.6577   -4.6718 H   0  0  0  0  0  0  0  0  0  0  0  0
 25 28  1  0
 25 24  1  0
 25 26  1  6
 25 27  2  0
  1  4  1  0
  1 24  1  0
  1  2  1  6
  1  3  2  0
  6 11  1  0
  6 12  1  0
 29 36  1  0
 29 37  1  0
  9  7  1  6
  7 13  1  0
 10  8  1  1
  8 14  1  0
 37 28  1  1
  4  5  1  0
 33 30  1  6
 30 38  1  0
 34 31  1  1
 31 39  1  0
 35 32  1  6
 32 40  1  0
 41 42  1  0
 41 43  1  0
 15 19  2  0
 16 22  2  0
 12 17  1  1
 17 19  1  0
 17 20  1  0
 18 19  1  0
 18 22  1  0
 18 23  1  0
  9 10  1  0
  9 11  1  0
 10 12  1  0
 11  5  1  1
 33 34  1  0
 33 35  1  0
 34 36  1  0
 35 37  1  0
 36 42  1  1
 20 21  2  0
 21 22  1  0
M  CHG  2   2  -1  26  -1
M  END
>  <COMPND>  (314) 
    8629 

>  <AUTHOR>  (314) 
    GENERATED BY OPEN BABEL 3.1.1

>  <MASTER>  (314) 
        0    0    0    0    0    0    0    0   58    0   58    0

>  <minimizedAffinity>  (314) 
-7.31737

>  <CNNscore>  (314) 
0.4817273319

>  <CNNaffinity>  (314) 
4.2229261398

>  <CNN_VS>  (314) 
2.0342988968

>  <CNNaffinity_variance>  (314) 
0.1071129218

$$$$
315
     RDKit          3D

 43 45  0  0  0  0  0  0  0  0999 V2000
   22.5789   72.8782   -4.7755 P   0  0  2  0  0  0  0  0  0  0  0  0
   22.8932   72.2013   -6.2110 O   0  0  0  0  0  0  0  0  0  0  0  0
   22.8232   74.3570   -4.7051 O   0  0  0  0  0  0  0  0  0  0  0  0
   23.4204   71.9765   -3.7283 O   0  0  0  0  0  0  0  0  0  0  0  0
   23.4599   72.3778   -2.3699 C   0  0  0  0  0  0  0  0  0  0  0  0
   23.6836   70.9348   -0.4616 O   0  0  0  0  0  0  0  0  0  0  0  0
   20.6961   70.6882   -0.5327 O   0  0  0  0  0  0  0  0  0  0  0  0
   21.0958   72.4960    1.4694 O   0  0  0  0  0  0  0  0  0  0  0  0
   21.5153   71.8183   -0.8275 C   0  0  1  0  0  0  0  0  0  0  0  0
   22.0707   72.4128    0.4499 C   0  0  2  0  0  0  0  0  0  0  0  0
   22.7765   71.3160   -1.5192 C   0  0  1  0  0  0  0  0  0  0  0  0
   23.1895   71.4424    0.7886 C   0  0  2  0  0  0  0  0  0  0  0  0
   19.8842   70.9841   -0.0907 H   0  0  0  0  0  0  0  0  0  0  0  0
   20.4061   73.1254    1.2069 H   0  0  0  0  0  0  0  0  0  0  0  0
   25.0215   70.0829    2.4539 O   0  0  0  0  0  0  0  0  0  0  0  0
   27.2872   73.9719    3.4457 O   0  0  0  0  0  0  0  0  0  0  0  0
   24.2683   72.0749    1.4940 N   0  0  0  0  0  0  0  0  0  0  0  0
   26.1483   72.0204    2.9463 N   0  0  0  0  0  0  0  0  0  0  0  0
   25.1311   71.3017    2.3052 C   0  0  0  0  0  0  0  0  0  0  0  0
   24.4622   73.4470    1.3775 C   0  0  0  0  0  0  0  0  0  0  0  0
   25.4362   74.1175    1.9965 C   0  0  0  0  0  0  0  0  0  0  0  0
   26.3813   73.3840    2.8630 C   0  0  0  0  0  0  0  0  0  0  0  0
   26.7614   71.5026    3.5170 H   0  0  0  0  0  0  0  0  0  0  0  0
   21.0508   72.4345   -4.4912 O   0  0  0  0  0  0  0  0  0  0  0  0
   20.2606   71.0673   -4.8366 P   0  0  2  0  0  0  0  0  0  0  0  0
   19.9913   70.4163   -3.3802 O   0  0  0  0  0  0  0  0  0  0  0  0
   20.9826   70.1645   -5.7946 O   0  0  0  0  0  0  0  0  0  0  0  0
   18.8064   71.5523   -5.3416 O   0  0  0  0  0  0  0  0  0  0  0  0
   19.0462   72.1770   -7.6151 O   0  0  0  0  0  0  0  0  0  0  0  0
   15.0597   73.1166   -7.0896 O   0  0  0  0  0  0  0  0  0  0  0  0
   15.7806   70.8175   -8.6524 O   0  0  0  0  0  0  0  0  0  0  0  0
   16.9562   73.6281   -4.9633 O   0  0  0  0  0  0  0  0  0  0  0  0
   16.2578   72.3617   -6.8893 C   0  0  1  0  0  0  0  0  0  0  0  0
   16.7123   71.8152   -8.2441 C   0  0  1  0  0  0  0  0  0  0  0  0
   17.3278   73.2729   -6.2908 C   0  0  2  0  0  0  0  0  0  0  0  0
   18.1254   71.2229   -8.1567 C   0  0  1  0  0  0  0  0  0  0  0  0
   18.7046   72.6062   -6.2956 C   0  0  1  0  0  0  0  0  0  0  0  0
   14.3761   72.5437   -7.4690 H   0  0  0  0  0  0  0  0  0  0  0  0
   14.8923   71.2043   -8.7032 H   0  0  0  0  0  0  0  0  0  0  0  0
   16.0832   74.0494   -4.9738 H   0  0  0  0  0  0  0  0  0  0  0  0
   17.8545   69.7655  -10.0307 O   0  0  0  0  0  0  0  0  0  0  0  0
   18.6604   70.8152   -9.5277 C   0  0  0  0  0  0  0  0  0  0  0  0
   18.1831   69.4959  -10.9031 H   0  0  0  0  0  0  0  0  0  0  0  0
 25 28  1  0
 25 24  1  0
 25 26  1  1
 25 27  2  0
  1  4  1  0
  1 24  1  0
  1  2  1  6
  1  3  2  0
  6 11  1  0
  6 12  1  0
 29 36  1  0
 29 37  1  0
  9  7  1  1
  7 13  1  0
 10  8  1  1
  8 14  1  0
 37 28  1  1
  4  5  1  0
 33 30  1  6
 30 38  1  0
 34 31  1  1
 31 39  1  0
 35 32  1  1
 32 40  1  0
 41 42  1  0
 41 43  1  0
 15 19  2  0
 16 22  2  0
 12 17  1  6
 17 19  1  0
 17 20  1  0
 18 19  1  0
 18 22  1  0
 18 23  1  0
  9 10  1  0
  9 11  1  0
 10 12  1  0
 11  5  1  1
 33 34  1  0
 33 35  1  0
 34 36  1  0
 35 37  1  0
 36 42  1  6
 20 21  2  0
 21 22  1  0
M  CHG  2   2  -1  26  -1
M  END
>  <COMPND>  (315) 
    8629 

>  <AUTHOR>  (315) 
    GENERATED BY OPEN BABEL 3.1.1

>  <MASTER>  (315) 
        0    0    0    0    0    0    0    0   58    0   58    0

>  <minimizedAffinity>  (315) 
-7.07462

>  <CNNscore>  (315) 
0.4804840684

>  <CNNaffinity>  (315) 
4.2064762115

>  <CNN_VS>  (315) 
2.0211448669

>  <CNNaffinity_variance>  (315) 
0.0052071218

$$$$
316
     RDKit          3D

 43 45  0  0  0  0  0  0  0  0999 V2000
   22.5942   73.3326   -3.9324 P   0  0  2  0  0  0  0  0  0  0  0  0
   23.2322   72.5123   -2.6924 O   0  0  0  0  0  0  0  0  0  0  0  0
   23.5929   73.9000   -4.8978 O   0  0  0  0  0  0  0  0  0  0  0  0
   21.6132   74.4067   -3.2239 O   0  0  0  0  0  0  0  0  0  0  0  0
   22.1320   75.2085   -2.1771 C   0  0  0  0  0  0  0  0  0  0  0  0
   20.9060   74.1554   -0.3989 O   0  0  0  0  0  0  0  0  0  0  0  0
   20.2048   76.9265    0.5068 O   0  0  0  0  0  0  0  0  0  0  0  0
   22.2150   76.2339    2.2144 O   0  0  0  0  0  0  0  0  0  0  0  0
   21.4169   76.4463   -0.0724 C   0  0  1  0  0  0  0  0  0  0  0  0
   22.1945   75.6285    0.9377 C   0  0  2  0  0  0  0  0  0  0  0  0
   21.0547   75.3991   -1.1182 C   0  0  1  0  0  0  0  0  0  0  0  0
   21.4368   74.3117    0.9272 C   0  0  2  0  0  0  0  0  0  0  0  0
   20.4106   77.5969    1.1777 H   0  0  0  0  0  0  0  0  0  0  0  0
   22.7083   77.0678    2.1690 H   0  0  0  0  0  0  0  0  0  0  0  0
   20.6227   72.0480    2.4075 O   0  0  0  0  0  0  0  0  0  0  0  0
   24.7677   70.0720    2.0133 O   0  0  0  0  0  0  0  0  0  0  0  0
   22.2827   73.1907    1.2260 N   0  0  0  0  0  0  0  0  0  0  0  0
   22.6872   71.0659    2.2098 N   0  0  0  0  0  0  0  0  0  0  0  0
   21.7767   72.1046    1.9775 C   0  0  0  0  0  0  0  0  0  0  0  0
   23.5981   73.1756    0.7751 C   0  0  0  0  0  0  0  0  0  0  0  0
   24.4541   72.1780    1.0062 C   0  0  0  0  0  0  0  0  0  0  0  0
   24.0046   71.0052    1.7839 C   0  0  0  0  0  0  0  0  0  0  0  0
   22.3570   70.2988    2.7316 H   0  0  0  0  0  0  0  0  0  0  0  0
   21.5624   72.2694   -4.5790 O   0  0  0  0  0  0  0  0  0  0  0  0
   20.5905   71.1783   -3.8878 P   0  0  2  0  0  0  0  0  0  0  0  0
   19.9005   72.0071   -2.6818 O   0  0  0  0  0  0  0  0  0  0  0  0
   21.2866   69.9203   -3.4557 O   0  0  0  0  0  0  0  0  0  0  0  0
   19.4038   70.9521   -4.9582 O   0  0  0  0  0  0  0  0  0  0  0  0
   19.2999   71.5285   -7.2546 O   0  0  0  0  0  0  0  0  0  0  0  0
   15.3627   72.2224   -6.2214 O   0  0  0  0  0  0  0  0  0  0  0  0
   16.0259   69.9328   -7.8232 O   0  0  0  0  0  0  0  0  0  0  0  0
   17.4831   72.9135   -4.3760 O   0  0  0  0  0  0  0  0  0  0  0  0
   16.6250   71.5523   -6.1682 C   0  0  1  0  0  0  0  0  0  0  0  0
   16.9335   70.9994   -7.5610 C   0  0  1  0  0  0  0  0  0  0  0  0
   17.7002   72.5468   -5.7342 C   0  0  2  0  0  0  0  0  0  0  0  0
   18.3826   70.5023   -7.6512 C   0  0  1  0  0  0  0  0  0  0  0  0
   19.1064   71.9707   -5.9097 C   0  0  1  0  0  0  0  0  0  0  0  0
   14.6755   71.5964   -6.4958 H   0  0  0  0  0  0  0  0  0  0  0  0
   15.1145   70.2599   -7.7626 H   0  0  0  0  0  0  0  0  0  0  0  0
   16.5898   73.2771   -4.2781 H   0  0  0  0  0  0  0  0  0  0  0  0
   17.6831   70.4169   -9.9343 O   0  0  0  0  0  0  0  0  0  0  0  0
   18.7592   70.0927   -9.0734 C   0  0  0  0  0  0  0  0  0  0  0  0
   17.9088   70.1621  -10.8430 H   0  0  0  0  0  0  0  0  0  0  0  0
 25 28  1  0
 25 24  1  0
 25 26  1  1
 25 27  2  0
  1  4  1  0
  1 24  1  0
  1  2  1  1
  1  3  2  0
  6 11  1  0
  6 12  1  0
 29 36  1  0
 29 37  1  0
  9  7  1  1
  7 13  1  0
 10  8  1  1
  8 14  1  0
 37 28  1  1
  4  5  1  0
 33 30  1  6
 30 38  1  0
 34 31  1  1
 31 39  1  0
 35 32  1  1
 32 40  1  0
 41 42  1  0
 41 43  1  0
 15 19  2  0
 16 22  2  0
 12 17  1  6
 17 19  1  0
 17 20  1  0
 18 19  1  0
 18 22  1  0
 18 23  1  0
  9 10  1  0
  9 11  1  0
 10 12  1  0
 11  5  1  6
 33 34  1  0
 33 35  1  0
 34 36  1  0
 35 37  1  0
 36 42  1  6
 20 21  2  0
 21 22  1  0
M  CHG  2   2  -1  26  -1
M  END
>  <COMPND>  (316) 
    8629 

>  <AUTHOR>  (316) 
    GENERATED BY OPEN BABEL 3.1.1

>  <MASTER>  (316) 
        0    0    0    0    0    0    0    0   58    0   58    0

>  <minimizedAffinity>  (316) 
-6.19365

>  <CNNscore>  (316) 
0.4735973179

>  <CNNaffinity>  (316) 
4.1861653328

>  <CNN_VS>  (316) 
1.9825567007

>  <CNNaffinity_variance>  (316) 
0.3068757355

$$$$
317
     RDKit          3D

 43 45  0  0  0  0  0  0  0  0999 V2000
   22.2231   72.9672   -3.8246 P   0  0  2  0  0  0  0  0  0  0  0  0
   22.6646   72.2397   -5.2005 O   0  0  0  0  0  0  0  0  0  0  0  0
   22.1512   74.4644   -3.8941 O   0  0  0  0  0  0  0  0  0  0  0  0
   23.2412   72.3631   -2.7217 O   0  0  0  0  0  0  0  0  0  0  0  0
   23.0527   72.7162   -1.3624 C   0  0  0  0  0  0  0  0  0  0  0  0
   24.0122   71.2382    0.2712 O   0  0  0  0  0  0  0  0  0  0  0  0
   21.2264   70.2207    0.7126 O   0  0  0  0  0  0  0  0  0  0  0  0
   21.5847   71.9077    2.8250 O   0  0  0  0  0  0  0  0  0  0  0  0
   21.6673   71.5460    0.4222 C   0  0  1  0  0  0  0  0  0  0  0  0
   22.3159   72.1638    1.6433 C   0  0  2  0  0  0  0  0  0  0  0  0
   22.8399   71.4488   -0.5459 C   0  0  1  0  0  0  0  0  0  0  0  0
   23.6818   71.4985    1.6452 C   0  0  2  0  0  0  0  0  0  0  0  0
   20.4776   70.2570    1.3290 H   0  0  0  0  0  0  0  0  0  0  0  0
   20.7239   72.3520    2.7755 H   0  0  0  0  0  0  0  0  0  0  0  0
   26.2707   70.6130    2.3460 O   0  0  0  0  0  0  0  0  0  0  0  0
   27.4968   74.7972    3.8393 O   0  0  0  0  0  0  0  0  0  0  0  0
   24.6978   72.3354    2.2186 N   0  0  0  0  0  0  0  0  0  0  0  0
   26.8792   72.6972    3.0888 N   0  0  0  0  0  0  0  0  0  0  0  0
   25.9648   71.7921    2.5350 C   0  0  0  0  0  0  0  0  0  0  0  0
   24.4335   73.6789    2.4613 C   0  0  0  0  0  0  0  0  0  0  0  0
   25.3159   74.5285    2.9912 C   0  0  0  0  0  0  0  0  0  0  0  0
   26.6633   74.0409    3.3503 C   0  0  0  0  0  0  0  0  0  0  0  0
   27.7683   72.3410    3.3175 H   0  0  0  0  0  0  0  0  0  0  0  0
   20.8241   72.2427   -3.4630 O   0  0  0  0  0  0  0  0  0  0  0  0
   20.4108   70.6800   -3.4477 P   0  0  2  0  0  0  0  0  0  0  0  0
   19.6152   70.5203   -2.0480 O   0  0  0  0  0  0  0  0  0  0  0  0
   21.5664   69.7362   -3.6143 O   0  0  0  0  0  0  0  0  0  0  0  0
   19.2704   70.5479   -4.5822 O   0  0  0  0  0  0  0  0  0  0  0  0
   17.4787   72.0068   -5.1094 O   0  0  0  0  0  0  0  0  0  0  0  0
   15.6196   68.3909   -5.8307 O   0  0  0  0  0  0  0  0  0  0  0  0
   16.3592   70.0706   -8.0397 O   0  0  0  0  0  0  0  0  0  0  0  0
   17.4451   68.6563   -3.5999 O   0  0  0  0  0  0  0  0  0  0  0  0
   16.7154   69.3094   -5.8004 C   0  0  1  0  0  0  0  0  0  0  0  0
   16.3615   70.5076   -6.6835 C   0  0  1  0  0  0  0  0  0  0  0  0
   16.9531   69.7555   -4.3589 C   0  0  2  0  0  0  0  0  0  0  0  0
   17.3656   71.6523   -6.4926 C   0  0  1  0  0  0  0  0  0  0  0  0
   17.9300   70.9304   -4.2851 C   0  0  1  0  0  0  0  0  0  0  0  0
   15.4637   68.1034   -6.7432 H   0  0  0  0  0  0  0  0  0  0  0  0
   15.7214   69.3474   -8.1466 H   0  0  0  0  0  0  0  0  0  0  0  0
   16.8176   67.9193   -3.6544 H   0  0  0  0  0  0  0  0  0  0  0  0
   16.9750   72.6412   -8.6323 O   0  0  0  0  0  0  0  0  0  0  0  0
   16.9445   72.9137   -7.2434 C   0  0  0  0  0  0  0  0  0  0  0  0
   16.7089   73.4351   -9.1229 H   0  0  0  0  0  0  0  0  0  0  0  0
 25 28  1  0
 25 24  1  0
 25 26  1  1
 25 27  2  0
  1  4  1  0
  1 24  1  0
  1  2  1  6
  1  3  2  0
  6 11  1  0
  6 12  1  0
 29 36  1  0
 29 37  1  0
  9  7  1  1
  7 13  1  0
 10  8  1  1
  8 14  1  0
 37 28  1  6
  4  5  1  0
 33 30  1  1
 30 38  1  0
 34 31  1  6
 31 39  1  0
 35 32  1  1
 32 40  1  0
 41 42  1  0
 41 43  1  0
 15 19  2  0
 16 22  2  0
 12 17  1  6
 17 19  1  0
 17 20  1  0
 18 19  1  0
 18 22  1  0
 18 23  1  0
  9 10  1  0
  9 11  1  0
 10 12  1  0
 11  5  1  1
 33 34  1  0
 33 35  1  0
 34 36  1  0
 35 37  1  0
 36 42  1  6
 20 21  2  0
 21 22  1  0
M  CHG  2   2  -1  26  -1
M  END
>  <COMPND>  (317) 
    8629 

>  <AUTHOR>  (317) 
    GENERATED BY OPEN BABEL 3.1.1

>  <MASTER>  (317) 
        0    0    0    0    0    0    0    0   58    0   58    0

>  <minimizedAffinity>  (317) 
-7.26480

>  <CNNscore>  (317) 
0.4709345698

>  <CNNaffinity>  (317) 
4.2017817497

>  <CNN_VS>  (317) 
1.9787642956

>  <CNNaffinity_variance>  (317) 
0.1380563229

$$$$
318
     RDKit          3D

 43 45  0  0  0  0  0  0  0  0999 V2000
   22.9615   71.3397   -2.5595 P   0  0  2  0  0  0  0  0  0  0  0  0
   22.6753   72.9316   -2.5930 O   0  0  0  0  0  0  0  0  0  0  0  0
   24.2714   70.9185   -3.1581 O   0  0  0  0  0  0  0  0  0  0  0  0
   21.6405   70.6933   -3.2342 O   0  0  0  0  0  0  0  0  0  0  0  0
   21.0195   71.3857   -4.3032 C   0  0  0  0  0  0  0  0  0  0  0  0
   19.2400   70.1154   -5.2999 O   0  0  0  0  0  0  0  0  0  0  0  0
   21.0412   69.8106   -7.6776 O   0  0  0  0  0  0  0  0  0  0  0  0
   19.3409   71.7899   -8.4699 O   0  0  0  0  0  0  0  0  0  0  0  0
   20.8842   70.9257   -6.8018 C   0  0  1  0  0  0  0  0  0  0  0  0
   19.5776   71.6371   -7.0852 C   0  0  2  0  0  0  0  0  0  0  0  0
   20.6552   70.3885   -5.3946 C   0  0  1  0  0  0  0  0  0  0  0  0
   18.5679   70.7193   -6.4173 C   0  0  2  0  0  0  0  0  0  0  0  0
   21.1891   70.1287   -8.5826 H   0  0  0  0  0  0  0  0  0  0  0  0
   20.0090   72.3821   -8.8489 H   0  0  0  0  0  0  0  0  0  0  0  0
   16.2381   71.1889   -7.9435 O   0  0  0  0  0  0  0  0  0  0  0  0
   14.2064   73.4548   -4.4825 O   0  0  0  0  0  0  0  0  0  0  0  0
   17.4147   71.4289   -5.9398 N   0  0  0  0  0  0  0  0  0  0  0  0
   15.2283   72.3166   -6.2189 N   0  0  0  0  0  0  0  0  0  0  0  0
   16.2968   71.6110   -6.7868 C   0  0  0  0  0  0  0  0  0  0  0  0
   17.3998   71.9353   -4.6447 C   0  0  0  0  0  0  0  0  0  0  0  0
   16.3735   72.6071   -4.1186 C   0  0  0  0  0  0  0  0  0  0  0  0
   15.1665   72.8407   -4.9374 C   0  0  0  0  0  0  0  0  0  0  0  0
   14.4386   72.4560   -6.7906 H   0  0  0  0  0  0  0  0  0  0  0  0
   22.7875   70.9719   -0.9951 O   0  0  0  0  0  0  0  0  0  0  0  0
   21.6736   71.4260    0.0846 P   0  0  2  0  0  0  0  0  0  0  0  0
   21.4203   70.0796    0.9451 O   0  0  0  0  0  0  0  0  0  0  0  0
   20.4333   72.0159   -0.5218 O   0  0  0  0  0  0  0  0  0  0  0  0
   22.4595   72.4120    1.0923 O   0  0  0  0  0  0  0  0  0  0  0  0
   24.2785   72.2320    2.6007 O   0  0  0  0  0  0  0  0  0  0  0  0
   21.6046   74.2350    5.0274 O   0  0  0  0  0  0  0  0  0  0  0  0
   23.8797   75.6318    3.9687 O   0  0  0  0  0  0  0  0  0  0  0  0
   20.6584   72.1719    3.2308 O   0  0  0  0  0  0  0  0  0  0  0  0
   22.2430   73.8965    3.7933 C   0  0  1  0  0  0  0  0  0  0  0  0
   23.7339   74.2152    3.9213 C   0  0  1  0  0  0  0  0  0  0  0  0
   22.0331   72.4094    3.5142 C   0  0  2  0  0  0  0  0  0  0  0  0
   24.5276   73.6354    2.7427 C   0  0  1  0  0  0  0  0  0  0  0  0
   22.9050   71.9237    2.3549 C   0  0  1  0  0  0  0  0  0  0  0  0
   21.7337   75.1781    5.2103 H   0  0  0  0  0  0  0  0  0  0  0  0
   23.3734   75.9853    4.7169 H   0  0  0  0  0  0  0  0  0  0  0  0
   20.1171   72.4834    3.9723 H   0  0  0  0  0  0  0  0  0  0  0  0
   26.3835   75.1316    2.5814 O   0  0  0  0  0  0  0  0  0  0  0  0
   26.0338   73.8045    2.9291 C   0  0  0  0  0  0  0  0  0  0  0  0
   27.3394   75.2539    2.6955 H   0  0  0  0  0  0  0  0  0  0  0  0
 25 28  1  0
 25 24  1  0
 25 26  1  1
 25 27  2  0
  1  4  1  0
  1 24  1  0
  1  2  1  1
  1  3  2  0
  6 11  1  0
  6 12  1  0
 29 36  1  0
 29 37  1  0
  9  7  1  6
  7 13  1  0
 10  8  1  6
  8 14  1  0
 37 28  1  6
  4  5  1  0
 33 30  1  1
 30 38  1  0
 34 31  1  6
 31 39  1  0
 35 32  1  6
 32 40  1  0
 41 42  1  0
 41 43  1  0
 15 19  2  0
 16 22  2  0
 12 17  1  1
 17 19  1  0
 17 20  1  0
 18 19  1  0
 18 22  1  0
 18 23  1  0
  9 10  1  0
  9 11  1  0
 10 12  1  0
 11  5  1  1
 33 34  1  0
 33 35  1  0
 34 36  1  0
 35 37  1  0
 36 42  1  1
 20 21  2  0
 21 22  1  0
M  CHG  2   2  -1  26  -1
M  END
>  <COMPND>  (318) 
    8629 

>  <AUTHOR>  (318) 
    GENERATED BY OPEN BABEL 3.1.1

>  <MASTER>  (318) 
        0    0    0    0    0    0    0    0   58    0   58    0

>  <minimizedAffinity>  (318) 
-7.20647

>  <CNNscore>  (318) 
0.4672784805

>  <CNNaffinity>  (318) 
4.2155280113

>  <CNN_VS>  (318) 
1.9698255062

>  <CNNaffinity_variance>  (318) 
0.0213569906

$$$$
319
     RDKit          3D

 43 45  0  0  0  0  0  0  0  0999 V2000
   22.7582   71.7594   -2.6431 P   0  0  2  0  0  0  0  0  0  0  0  0
   22.9192   73.2664   -2.0772 O   0  0  0  0  0  0  0  0  0  0  0  0
   24.0018   71.1711   -3.2420 O   0  0  0  0  0  0  0  0  0  0  0  0
   21.4782   71.8493   -3.6288 O   0  0  0  0  0  0  0  0  0  0  0  0
   21.5507   72.7068   -4.7545 C   0  0  0  0  0  0  0  0  0  0  0  0
   20.7691   70.6593   -5.7397 O   0  0  0  0  0  0  0  0  0  0  0  0
   21.2560   71.9689   -8.3928 O   0  0  0  0  0  0  0  0  0  0  0  0
   18.5572   72.2193   -8.0928 O   0  0  0  0  0  0  0  0  0  0  0  0
   20.7852   72.5446   -7.1754 C   0  0  1  0  0  0  0  0  0  0  0  0
   19.3475   72.1402   -6.9241 C   0  0  2  0  0  0  0  0  0  0  0  0
   21.5130   71.8647   -6.0224 C   0  0  1  0  0  0  0  0  0  0  0  0
   19.5044   70.7158   -6.4197 C   0  0  2  0  0  0  0  0  0  0  0  0
   20.8056   72.3875   -9.1437 H   0  0  0  0  0  0  0  0  0  0  0  0
   18.4872   73.1449   -8.3739 H   0  0  0  0  0  0  0  0  0  0  0  0
   16.9333   69.8389   -7.1934 O   0  0  0  0  0  0  0  0  0  0  0  0
   15.5961   69.3090   -2.8148 O   0  0  0  0  0  0  0  0  0  0  0  0
   18.4649   70.3418   -5.5026 N   0  0  0  0  0  0  0  0  0  0  0  0
   16.2696   69.5756   -5.0125 N   0  0  0  0  0  0  0  0  0  0  0  0
   17.2088   69.9163   -5.9943 C   0  0  0  0  0  0  0  0  0  0  0  0
   18.6960   70.3987   -4.1325 C   0  0  0  0  0  0  0  0  0  0  0  0
   17.7893   70.0716   -3.2093 C   0  0  0  0  0  0  0  0  0  0  0  0
   16.4513   69.6168   -3.6392 C   0  0  0  0  0  0  0  0  0  0  0  0
   15.3873   69.2766   -5.3316 H   0  0  0  0  0  0  0  0  0  0  0  0
   22.1788   70.9523   -1.3680 O   0  0  0  0  0  0  0  0  0  0  0  0
   22.4433   71.1385    0.2158 P   0  0  2  0  0  0  0  0  0  0  0  0
   24.0422   71.3706    0.3002 O   0  0  0  0  0  0  0  0  0  0  0  0
   21.9363   70.0065    1.0616 O   0  0  0  0  0  0  0  0  0  0  0  0
   21.8033   72.5771    0.5704 O   0  0  0  0  0  0  0  0  0  0  0  0
   20.1956   73.0885    2.2349 O   0  0  0  0  0  0  0  0  0  0  0  0
   19.1023   75.8695   -0.6150 O   0  0  0  0  0  0  0  0  0  0  0  0
   20.4316   76.7388    1.7777 O   0  0  0  0  0  0  0  0  0  0  0  0
   19.9426   73.2217   -1.4290 O   0  0  0  0  0  0  0  0  0  0  0  0
   20.0128   75.0563    0.1300 C   0  0  1  0  0  0  0  0  0  0  0  0
   19.8912   75.4313    1.6083 C   0  0  1  0  0  0  0  0  0  0  0  0
   19.6577   73.5859   -0.0827 C   0  0  2  0  0  0  0  0  0  0  0  0
   20.6353   74.4262    2.4978 C   0  0  1  0  0  0  0  0  0  0  0  0
   20.4167   72.6759    0.8848 C   0  0  1  0  0  0  0  0  0  0  0  0
   19.3226   76.8044   -0.4847 H   0  0  0  0  0  0  0  0  0  0  0  0
   19.9534   77.3636    1.2103 H   0  0  0  0  0  0  0  0  0  0  0  0
   19.4560   73.8048   -2.0315 H   0  0  0  0  0  0  0  0  0  0  0  0
   21.6501   74.8835    4.6120 O   0  0  0  0  0  0  0  0  0  0  0  0
   20.3966   74.6904    3.9828 C   0  0  0  0  0  0  0  0  0  0  0  0
   21.5137   75.0530    5.5578 H   0  0  0  0  0  0  0  0  0  0  0  0
 25 28  1  0
 25 24  1  0
 25 26  1  6
 25 27  2  0
  1  4  1  0
  1 24  1  0
  1  2  1  1
  1  3  2  0
  6 11  1  0
  6 12  1  0
 29 36  1  0
 29 37  1  0
  9  7  1  6
  7 13  1  0
 10  8  1  6
  8 14  1  0
 37 28  1  6
  4  5  1  0
 33 30  1  6
 30 38  1  0
 34 31  1  6
 31 39  1  0
 35 32  1  6
 32 40  1  0
 41 42  1  0
 41 43  1  0
 15 19  2  0
 16 22  2  0
 12 17  1  1
 17 19  1  0
 17 20  1  0
 18 19  1  0
 18 22  1  0
 18 23  1  0
  9 10  1  0
  9 11  1  0
 10 12  1  0
 11  5  1  1
 33 34  1  0
 33 35  1  0
 34 36  1  0
 35 37  1  0
 36 42  1  1
 20 21  2  0
 21 22  1  0
M  CHG  2   2  -1  26  -1
M  END
>  <COMPND>  (319) 
    8629 

>  <AUTHOR>  (319) 
    GENERATED BY OPEN BABEL 3.1.1

>  <MASTER>  (319) 
        0    0    0    0    0    0    0    0   58    0   58    0

>  <minimizedAffinity>  (319) 
-6.69295

>  <CNNscore>  (319) 
0.4553858638

>  <CNNaffinity>  (319) 
3.9591491222

>  <CNN_VS>  (319) 
1.8029404879

>  <CNNaffinity_variance>  (319) 
0.2576503456

$$$$
320
     RDKit          3D

 43 45  0  0  0  0  0  0  0  0999 V2000
   22.8605   73.0090   -4.8557 P   0  0  2  0  0  0  0  0  0  0  0  0
   22.9109   72.0855   -6.1831 O   0  0  0  0  0  0  0  0  0  0  0  0
   23.3339   74.4200   -5.0470 O   0  0  0  0  0  0  0  0  0  0  0  0
   23.6624   72.1427   -3.7492 O   0  0  0  0  0  0  0  0  0  0  0  0
   23.5668   72.5287   -2.3892 C   0  0  0  0  0  0  0  0  0  0  0  0
   23.8404   71.0132   -0.5446 O   0  0  0  0  0  0  0  0  0  0  0  0
   20.8700   70.6228   -0.6677 O   0  0  0  0  0  0  0  0  0  0  0  0
   21.1559   72.3553    1.4188 O   0  0  0  0  0  0  0  0  0  0  0  0
   21.6351   71.8043   -0.9003 C   0  0  1  0  0  0  0  0  0  0  0  0
   22.1453   72.3667    0.4100 C   0  0  2  0  0  0  0  0  0  0  0  0
   22.9277   71.3968   -1.5964 C   0  0  1  0  0  0  0  0  0  0  0  0
   23.3073   71.4384    0.7202 C   0  0  2  0  0  0  0  0  0  0  0  0
   20.0393   70.8578   -0.2242 H   0  0  0  0  0  0  0  0  0  0  0  0
   20.4386   72.9611    1.1753 H   0  0  0  0  0  0  0  0  0  0  0  0
   25.1190   70.1079    2.4306 O   0  0  0  0  0  0  0  0  0  0  0  0
   27.2461   74.0432    3.5398 O   0  0  0  0  0  0  0  0  0  0  0  0
   24.3449   72.0907    1.4680 N   0  0  0  0  0  0  0  0  0  0  0  0
   26.1767   72.0684    2.9814 N   0  0  0  0  0  0  0  0  0  0  0  0
   25.2009   71.3308    2.2989 C   0  0  0  0  0  0  0  0  0  0  0  0
   24.5059   73.4687    1.3731 C   0  0  0  0  0  0  0  0  0  0  0  0
   25.4407   74.1572    2.0315 C   0  0  0  0  0  0  0  0  0  0  0  0
   26.3759   73.4386    2.9209 C   0  0  0  0  0  0  0  0  0  0  0  0
   26.7843   71.5602    3.5665 H   0  0  0  0  0  0  0  0  0  0  0  0
   21.3223   72.8745   -4.3775 O   0  0  0  0  0  0  0  0  0  0  0  0
   20.2966   71.6266   -4.4394 P   0  0  2  0  0  0  0  0  0  0  0  0
   19.0448   72.1305   -3.5469 O   0  0  0  0  0  0  0  0  0  0  0  0
   20.8887   70.3208   -3.9943 O   0  0  0  0  0  0  0  0  0  0  0  0
   19.7430   71.6277   -5.9555 O   0  0  0  0  0  0  0  0  0  0  0  0
   17.4703   70.9605   -6.0340 O   0  0  0  0  0  0  0  0  0  0  0  0
   18.2895   70.9899  -10.0811 O   0  0  0  0  0  0  0  0  0  0  0  0
   16.6378   73.0512   -8.9537 O   0  0  0  0  0  0  0  0  0  0  0  0
   20.2876   70.0483   -8.2102 O   0  0  0  0  0  0  0  0  0  0  0  0
   18.3917   71.4408   -8.7277 C   0  0  1  0  0  0  0  0  0  0  0  0
   16.9986   71.8623   -8.2561 C   0  0  1  0  0  0  0  0  0  0  0  0
   18.9311   70.3036   -7.8621 C   0  0  2  0  0  0  0  0  0  0  0  0
   16.9764   72.1042   -6.7408 C   0  0  1  0  0  0  0  0  0  0  0  0
   18.8181   70.6262   -6.3711 C   0  0  1  0  0  0  0  0  0  0  0  0
   17.9480   71.7074  -10.6361 H   0  0  0  0  0  0  0  0  0  0  0  0
   16.6562   72.8850   -9.9093 H   0  0  0  0  0  0  0  0  0  0  0  0
   20.3458   69.8451   -9.1563 H   0  0  0  0  0  0  0  0  0  0  0  0
   15.2282   73.7168   -6.5122 O   0  0  0  0  0  0  0  0  0  0  0  0
   15.5642   72.3718   -6.2250 C   0  0  0  0  0  0  0  0  0  0  0  0
   14.3317   73.9014   -6.1898 H   0  0  0  0  0  0  0  0  0  0  0  0
 25 28  1  0
 25 24  1  0
 25 26  1  1
 25 27  2  0
  1  4  1  0
  1 24  1  0
  1  2  1  6
  1  3  2  0
  6 11  1  0
  6 12  1  0
 29 36  1  0
 29 37  1  0
  9  7  1  1
  7 13  1  0
 10  8  1  1
  8 14  1  0
 37 28  1  6
  4  5  1  0
 33 30  1  6
 30 38  1  0
 34 31  1  6
 31 39  1  0
 35 32  1  6
 32 40  1  0
 41 42  1  0
 41 43  1  0
 15 19  2  0
 16 22  2  0
 12 17  1  1
 17 19  1  0
 17 20  1  0
 18 19  1  0
 18 22  1  0
 18 23  1  0
  9 10  1  0
  9 11  1  0
 10 12  1  0
 11  5  1  1
 33 34  1  0
 33 35  1  0
 34 36  1  0
 35 37  1  0
 36 42  1  1
 20 21  2  0
 21 22  1  0
M  CHG  2   2  -1  26  -1
M  END
>  <COMPND>  (320) 
    8629 

>  <AUTHOR>  (320) 
    GENERATED BY OPEN BABEL 3.1.1

>  <MASTER>  (320) 
        0    0    0    0    0    0    0    0   58    0   58    0

>  <minimizedAffinity>  (320) 
-7.13560

>  <CNNscore>  (320) 
0.4537611306

>  <CNNaffinity>  (320) 
4.1653733253

>  <CNN_VS>  (320) 
1.8900845051

>  <CNNaffinity_variance>  (320) 
0.0205972530

$$$$
321
     RDKit          3D

 43 45  0  0  0  0  0  0  0  0999 V2000
   22.8801   71.5556   -2.6627 P   0  0  2  0  0  0  0  0  0  0  0  0
   22.8739   73.1183   -2.2439 O   0  0  0  0  0  0  0  0  0  0  0  0
   24.2071   71.0283   -3.1236 O   0  0  0  0  0  0  0  0  0  0  0  0
   21.6676   71.4339   -3.7270 O   0  0  0  0  0  0  0  0  0  0  0  0
   20.7996   70.3174   -3.6383 C   0  0  0  0  0  0  0  0  0  0  0  0
   18.9252   71.5003   -4.5664 O   0  0  0  0  0  0  0  0  0  0  0  0
   17.2855   70.2156   -2.4096 O   0  0  0  0  0  0  0  0  0  0  0  0
   16.7045   68.6842   -4.5899 O   0  0  0  0  0  0  0  0  0  0  0  0
   18.3857   69.6826   -3.1450 C   0  0  1  0  0  0  0  0  0  0  0  0
   17.9572   69.3371   -4.5559 C   0  0  2  0  0  0  0  0  0  0  0  0
   19.3820   70.8106   -3.3824 C   0  0  1  0  0  0  0  0  0  0  0  0
   17.9223   70.7040   -5.2181 C   0  0  2  0  0  0  0  0  0  0  0  0
   16.6359   69.5134   -2.2456 H   0  0  0  0  0  0  0  0  0  0  0  0
   16.7784   67.8196   -4.1567 H   0  0  0  0  0  0  0  0  0  0  0  0
   16.0077   70.1844   -7.2288 O   0  0  0  0  0  0  0  0  0  0  0  0
   19.1677   70.4811  -10.5706 O   0  0  0  0  0  0  0  0  0  0  0  0
   18.2171   70.6401   -6.6218 N   0  0  0  0  0  0  0  0  0  0  0  0
   17.5827   70.3328   -8.8911 N   0  0  0  0  0  0  0  0  0  0  0  0
   17.1833   70.3718   -7.5491 C   0  0  0  0  0  0  0  0  0  0  0  0
   19.5191   70.8426   -7.0664 C   0  0  0  0  0  0  0  0  0  0  0  0
   19.8838   70.8007   -8.3496 C   0  0  0  0  0  0  0  0  0  0  0  0
   18.8640   70.5262   -9.3825 C   0  0  0  0  0  0  0  0  0  0  0  0
   16.8795   70.1471   -9.5550 H   0  0  0  0  0  0  0  0  0  0  0  0
   22.2853   70.8249   -1.3492 O   0  0  0  0  0  0  0  0  0  0  0  0
   21.6226   71.4316   -0.0054 P   0  0  2  0  0  0  0  0  0  0  0  0
   21.2632   70.1123    0.8593 O   0  0  0  0  0  0  0  0  0  0  0  0
   20.4581   72.3464   -0.2524 O   0  0  0  0  0  0  0  0  0  0  0  0
   22.8534   72.1141    0.7848 O   0  0  0  0  0  0  0  0  0  0  0  0
   24.5807   71.8730    2.3894 O   0  0  0  0  0  0  0  0  0  0  0  0
   21.9420   74.1552    4.5984 O   0  0  0  0  0  0  0  0  0  0  0  0
   24.3582   75.3466    3.6033 O   0  0  0  0  0  0  0  0  0  0  0  0
   20.9395   72.0883    2.8370 O   0  0  0  0  0  0  0  0  0  0  0  0
   22.6132   73.7220    3.4122 C   0  0  1  0  0  0  0  0  0  0  0  0
   24.1151   73.9426    3.6033 C   0  0  1  0  0  0  0  0  0  0  0  0
   22.3124   72.2425    3.1803 C   0  0  2  0  0  0  0  0  0  0  0  0
   24.9213   73.2607    2.4897 C   0  0  1  0  0  0  0  0  0  0  0  0
   23.2023   71.6498    2.0863 C   0  0  1  0  0  0  0  0  0  0  0  0
   22.1285   75.0940    4.7511 H   0  0  0  0  0  0  0  0  0  0  0  0
   23.8429   75.7652    4.3107 H   0  0  0  0  0  0  0  0  0  0  0  0
   20.3866   72.4671    3.5375 H   0  0  0  0  0  0  0  0  0  0  0  0
   26.6340   73.7829    4.0718 O   0  0  0  0  0  0  0  0  0  0  0  0
   26.4251   73.3336    2.7456 C   0  0  0  0  0  0  0  0  0  0  0  0
   27.5867   73.8339    4.2489 H   0  0  0  0  0  0  0  0  0  0  0  0
 25 28  1  0
 25 24  1  0
 25 26  1  1
 25 27  2  0
  1  4  1  0
  1 24  1  0
  1  2  1  1
  1  3  2  0
  6 11  1  0
  6 12  1  0
 29 36  1  0
 29 37  1  0
  9  7  1  1
  7 13  1  0
 10  8  1  1
  8 14  1  0
 37 28  1  6
  4  5  1  0
 33 30  1  1
 30 38  1  0
 34 31  1  6
 31 39  1  0
 35 32  1  6
 32 40  1  0
 41 42  1  0
 41 43  1  0
 15 19  2  0
 16 22  2  0
 12 17  1  6
 17 19  1  0
 17 20  1  0
 18 19  1  0
 18 22  1  0
 18 23  1  0
  9 10  1  0
  9 11  1  0
 10 12  1  0
 11  5  1  6
 33 34  1  0
 33 35  1  0
 34 36  1  0
 35 37  1  0
 36 42  1  1
 20 21  2  0
 21 22  1  0
M  CHG  2   2  -1  26  -1
M  END
>  <COMPND>  (321) 
    8629 

>  <AUTHOR>  (321) 
    GENERATED BY OPEN BABEL 3.1.1

>  <MASTER>  (321) 
        0    0    0    0    0    0    0    0   58    0   58    0

>  <minimizedAffinity>  (321) 
-7.91500

>  <CNNscore>  (321) 
0.9370282292

>  <CNNaffinity>  (321) 
4.8240680695

>  <CNN_VS>  (321) 
4.5202879906

>  <CNNaffinity_variance>  (321) 
0.0477769598

$$$$
322
     RDKit          3D

 43 45  0  0  0  0  0  0  0  0999 V2000
   22.3521   71.4862   -3.0078 P   0  0  2  0  0  0  0  0  0  0  0  0
   22.0214   73.0470   -2.7398 O   0  0  0  0  0  0  0  0  0  0  0  0
   23.7752   71.1954   -3.3840 O   0  0  0  0  0  0  0  0  0  0  0  0
   21.2336   71.0315   -4.0849 O   0  0  0  0  0  0  0  0  0  0  0  0
   20.2937   70.0410   -3.7064 C   0  0  0  0  0  0  0  0  0  0  0  0
   18.6393   71.4220   -4.7692 O   0  0  0  0  0  0  0  0  0  0  0  0
   16.7051   70.3310   -2.7544 O   0  0  0  0  0  0  0  0  0  0  0  0
   16.1297   68.8688   -4.9832 O   0  0  0  0  0  0  0  0  0  0  0  0
   17.7935   69.6780   -3.4058 C   0  0  1  0  0  0  0  0  0  0  0  0
   17.4404   69.3792   -4.8479 C   0  0  2  0  0  0  0  0  0  0  0  0
   18.9237   70.6884   -3.5579 C   0  0  1  0  0  0  0  0  0  0  0  0
   17.6083   70.7401   -5.5019 C   0  0  2  0  0  0  0  0  0  0  0  0
   15.9711   69.7053   -2.6458 H   0  0  0  0  0  0  0  0  0  0  0  0
   16.0738   68.0022   -4.5512 H   0  0  0  0  0  0  0  0  0  0  0  0
   15.8227   70.2955   -7.6448 O   0  0  0  0  0  0  0  0  0  0  0  0
   19.2332   70.3768  -10.7438 O   0  0  0  0  0  0  0  0  0  0  0  0
   18.0024   70.6411   -6.8790 N   0  0  0  0  0  0  0  0  0  0  0  0
   17.5223   70.3365   -9.1861 N   0  0  0  0  0  0  0  0  0  0  0  0
   17.0272   70.4155   -7.8782 C   0  0  0  0  0  0  0  0  0  0  0  0
   19.3428   70.7678   -7.2269 C   0  0  0  0  0  0  0  0  0  0  0  0
   19.7988   70.6887   -8.4787 C   0  0  0  0  0  0  0  0  0  0  0  0
   18.8451   70.4546   -9.5822 C   0  0  0  0  0  0  0  0  0  0  0  0
   16.8612   70.1794   -9.8989 H   0  0  0  0  0  0  0  0  0  0  0  0
   21.8567   70.7706   -1.6456 O   0  0  0  0  0  0  0  0  0  0  0  0
   21.3302   71.3937   -0.2500 P   0  0  2  0  0  0  0  0  0  0  0  0
   21.3290   70.1202    0.7479 O   0  0  0  0  0  0  0  0  0  0  0  0
   20.0106   72.1023   -0.3514 O   0  0  0  0  0  0  0  0  0  0  0  0
   22.5473   72.3176    0.2697 O   0  0  0  0  0  0  0  0  0  0  0  0
   21.7575   73.7775    1.9614 O   0  0  0  0  0  0  0  0  0  0  0  0
   25.5901   75.2578    1.5490 O   0  0  0  0  0  0  0  0  0  0  0  0
   24.8998   73.7419    3.8885 O   0  0  0  0  0  0  0  0  0  0  0  0
   24.1189   74.3882   -0.7875 O   0  0  0  0  0  0  0  0  0  0  0  0
   24.5797   74.2459    1.5724 C   0  0  1  0  0  0  0  0  0  0  0  0
   23.9390   74.2401    2.9617 C   0  0  1  0  0  0  0  0  0  0  0  0
   23.5367   74.5571    0.5006 C   0  0  2  0  0  0  0  0  0  0  0  0
   22.6740   73.3716    2.9846 C   0  0  1  0  0  0  0  0  0  0  0  0
   22.2984   73.6704    0.6431 C   0  0  1  0  0  0  0  0  0  0  0  0
   26.2558   75.0659    2.2269 H   0  0  0  0  0  0  0  0  0  0  0  0
   25.6937   74.2988    3.8637 H   0  0  0  0  0  0  0  0  0  0  0  0
   24.9016   74.9550   -0.8653 H   0  0  0  0  0  0  0  0  0  0  0  0
   22.4316   72.4806    5.1884 O   0  0  0  0  0  0  0  0  0  0  0  0
   21.9320   73.4768    4.3153 C   0  0  0  0  0  0  0  0  0  0  0  0
   21.9688   72.5358    6.0395 H   0  0  0  0  0  0  0  0  0  0  0  0
 25 28  1  0
 25 24  1  0
 25 26  1  1
 25 27  2  0
  1  4  1  0
  1 24  1  0
  1  2  1  1
  1  3  2  0
  6 11  1  0
  6 12  1  0
 29 36  1  0
 29 37  1  0
  9  7  1  1
  7 13  1  0
 10  8  1  1
  8 14  1  0
 37 28  1  1
  4  5  1  0
 33 30  1  1
 30 38  1  0
 34 31  1  1
 31 39  1  0
 35 32  1  6
 32 40  1  0
 41 42  1  0
 41 43  1  0
 15 19  2  0
 16 22  2  0
 12 17  1  6
 17 19  1  0
 17 20  1  0
 18 19  1  0
 18 22  1  0
 18 23  1  0
  9 10  1  0
  9 11  1  0
 10 12  1  0
 11  5  1  6
 33 34  1  0
 33 35  1  0
 34 36  1  0
 35 37  1  0
 36 42  1  1
 20 21  2  0
 21 22  1  0
M  CHG  2   2  -1  26  -1
M  END
>  <COMPND>  (322) 
    8629 

>  <AUTHOR>  (322) 
    GENERATED BY OPEN BABEL 3.1.1

>  <MASTER>  (322) 
        0    0    0    0    0    0    0    0   58    0   58    0

>  <minimizedAffinity>  (322) 
-7.73354

>  <CNNscore>  (322) 
0.9294649959

>  <CNNaffinity>  (322) 
4.7795615196

>  <CNN_VS>  (322) 
4.4424352646

>  <CNNaffinity_variance>  (322) 
0.0456358865

$$$$
323
     RDKit          3D

 43 45  0  0  0  0  0  0  0  0999 V2000
   20.4167   71.2747   -1.3358 P   0  0  2  0  0  0  0  0  0  0  0  0
   20.9411   70.5863    0.0312 O   0  0  0  0  0  0  0  0  0  0  0  0
   19.8603   72.6589   -1.1753 O   0  0  0  0  0  0  0  0  0  0  0  0
   19.4034   70.1780   -1.9590 O   0  0  0  0  0  0  0  0  0  0  0  0
   19.0913   70.2531   -3.3391 C   0  0  0  0  0  0  0  0  0  0  0  0
   17.4537   71.3264   -4.7320 O   0  0  0  0  0  0  0  0  0  0  0  0
   15.4037   69.7479   -3.2167 O   0  0  0  0  0  0  0  0  0  0  0  0
   15.6513   68.3312   -5.5336 O   0  0  0  0  0  0  0  0  0  0  0  0
   16.7210   69.3701   -3.6133 C   0  0  1  0  0  0  0  0  0  0  0  0
   16.7622   69.0899   -5.1010 C   0  0  2  0  0  0  0  0  0  0  0  0
   17.6164   70.5972   -3.4958 C   0  0  1  0  0  0  0  0  0  0  0  0
   16.7758   70.4921   -5.6855 C   0  0  2  0  0  0  0  0  0  0  0  0
   14.8136   68.9802   -3.2830 H   0  0  0  0  0  0  0  0  0  0  0  0
   15.6879   67.4478   -5.1348 H   0  0  0  0  0  0  0  0  0  0  0  0
   15.5127   70.5542   -8.2112 O   0  0  0  0  0  0  0  0  0  0  0  0
   19.5487   70.7361  -10.4290 O   0  0  0  0  0  0  0  0  0  0  0  0
   17.4723   70.5561   -6.9394 N   0  0  0  0  0  0  0  0  0  0  0  0
   17.5234   70.6449   -9.3134 N   0  0  0  0  0  0  0  0  0  0  0  0
   16.7437   70.5818   -8.1514 C   0  0  0  0  0  0  0  0  0  0  0  0
   18.8623   70.5930   -6.9589 C   0  0  0  0  0  0  0  0  0  0  0  0
   19.5909   70.6518   -8.0755 C   0  0  0  0  0  0  0  0  0  0  0  0
   18.9069   70.6822   -9.3845 C   0  0  0  0  0  0  0  0  0  0  0  0
   17.0375   70.6634  -10.1697 H   0  0  0  0  0  0  0  0  0  0  0  0
   21.7031   71.1754   -2.3095 O   0  0  0  0  0  0  0  0  0  0  0  0
   22.8874   72.2324   -2.6150 P   0  0  2  0  0  0  0  0  0  0  0  0
   23.9804   71.3449   -3.4120 O   0  0  0  0  0  0  0  0  0  0  0  0
   23.4228   72.9259   -1.3958 O   0  0  0  0  0  0  0  0  0  0  0  0
   22.2733   73.2223   -3.7321 O   0  0  0  0  0  0  0  0  0  0  0  0
   20.0798   73.3211   -4.6240 O   0  0  0  0  0  0  0  0  0  0  0  0
   22.2180   74.2866   -8.0221 O   0  0  0  0  0  0  0  0  0  0  0  0
   20.7145   76.3236   -6.6663 O   0  0  0  0  0  0  0  0  0  0  0  0
   23.2360   72.2848   -6.1956 O   0  0  0  0  0  0  0  0  0  0  0  0
   21.9384   74.2692   -6.6196 C   0  0  1  0  0  0  0  0  0  0  0  0
   20.5780   74.9318   -6.3935 C   0  0  1  0  0  0  0  0  0  0  0  0
   21.9191   72.8216   -6.1324 C   0  0  2  0  0  0  0  0  0  0  0  0
   20.0883   74.7146   -4.9554 C   0  0  1  0  0  0  0  0  0  0  0  0
   21.3696   72.7120   -4.7089 C   0  0  1  0  0  0  0  0  0  0  0  0
   22.2322   75.2030   -8.3377 H   0  0  0  0  0  0  0  0  0  0  0  0
   21.0247   76.4469   -7.5772 H   0  0  0  0  0  0  0  0  0  0  0  0
   23.5724   72.3598   -7.1018 H   0  0  0  0  0  0  0  0  0  0  0  0
   17.7710   74.1388   -4.8677 O   0  0  0  0  0  0  0  0  0  0  0  0
   18.6653   75.2302   -4.7518 C   0  0  0  0  0  0  0  0  0  0  0  0
   16.8614   74.4520   -4.7401 H   0  0  0  0  0  0  0  0  0  0  0  0
 25 28  1  0
 25 24  1  0
 25 26  1  6
 25 27  2  0
  1  4  1  0
  1 24  1  0
  1  2  1  1
  1  3  2  0
  6 11  1  0
  6 12  1  0
 29 36  1  0
 29 37  1  0
  9  7  1  6
  7 13  1  0
 10  8  1  6
  8 14  1  0
 37 28  1  1
  4  5  1  0
 33 30  1  6
 30 38  1  0
 34 31  1  1
 31 39  1  0
 35 32  1  1
 32 40  1  0
 41 42  1  0
 41 43  1  0
 15 19  2  0
 16 22  2  0
 12 17  1  6
 17 19  1  0
 17 20  1  0
 18 19  1  0
 18 22  1  0
 18 23  1  0
  9 10  1  0
  9 11  1  0
 10 12  1  0
 11  5  1  6
 33 34  1  0
 33 35  1  0
 34 36  1  0
 35 37  1  0
 36 42  1  6
 20 21  2  0
 21 22  1  0
M  CHG  2   2  -1  26  -1
M  END
>  <COMPND>  (323) 
    8629 

>  <AUTHOR>  (323) 
    GENERATED BY OPEN BABEL 3.1.1

>  <MASTER>  (323) 
        0    0    0    0    0    0    0    0   58    0   58    0

>  <minimizedAffinity>  (323) 
-7.72191

>  <CNNscore>  (323) 
0.9181765318

>  <CNNaffinity>  (323) 
4.6667046547

>  <CNN_VS>  (323) 
4.2848587036

>  <CNNaffinity_variance>  (323) 
0.6299039125

$$$$
324
     RDKit          3D

 43 45  0  0  0  0  0  0  0  0999 V2000
   20.9456   72.4880   -4.2628 P   0  0  2  0  0  0  0  0  0  0  0  0
   19.9446   73.6802   -4.7031 O   0  0  0  0  0  0  0  0  0  0  0  0
   21.5212   71.6923   -5.3972 O   0  0  0  0  0  0  0  0  0  0  0  0
   20.0926   71.6462   -3.1757 O   0  0  0  0  0  0  0  0  0  0  0  0
   19.3950   70.4921   -3.6105 C   0  0  0  0  0  0  0  0  0  0  0  0
   17.6536   71.4428   -4.9661 O   0  0  0  0  0  0  0  0  0  0  0  0
   15.7307   69.9714   -3.1974 O   0  0  0  0  0  0  0  0  0  0  0  0
   15.8384   68.3817   -5.4105 O   0  0  0  0  0  0  0  0  0  0  0  0
   17.0227   69.5736   -3.6532 C   0  0  1  0  0  0  0  0  0  0  0  0
   16.9665   69.1795   -5.1144 C   0  0  2  0  0  0  0  0  0  0  0  0
   17.9087   70.8125   -3.6918 C   0  0  1  0  0  0  0  0  0  0  0  0
   16.9230   70.5325   -5.8042 C   0  0  2  0  0  0  0  0  0  0  0  0
   15.1470   69.1967   -3.1642 H   0  0  0  0  0  0  0  0  0  0  0  0
   15.9128   67.5321   -4.9487 H   0  0  0  0  0  0  0  0  0  0  0  0
   15.4922   70.5965   -8.2386 O   0  0  0  0  0  0  0  0  0  0  0  0
   19.3648   70.4183  -10.7311 O   0  0  0  0  0  0  0  0  0  0  0  0
   17.5321   70.5043   -7.1041 N   0  0  0  0  0  0  0  0  0  0  0  0
   17.4216   70.5079   -9.4777 N   0  0  0  0  0  0  0  0  0  0  0  0
   16.7233   70.5396   -8.2638 C   0  0  0  0  0  0  0  0  0  0  0  0
   18.9166   70.4428   -7.2194 C   0  0  0  0  0  0  0  0  0  0  0  0
   19.5670   70.4119   -8.3845 C   0  0  0  0  0  0  0  0  0  0  0  0
   18.7960   70.4454   -9.6440 C   0  0  0  0  0  0  0  0  0  0  0  0
   16.8789   70.5311  -10.2991 H   0  0  0  0  0  0  0  0  0  0  0  0
   22.0417   73.2514   -3.3523 O   0  0  0  0  0  0  0  0  0  0  0  0
   23.4310   72.7351   -2.7073 P   0  0  2  0  0  0  0  0  0  0  0  0
   24.4157   74.0071   -2.8800 O   0  0  0  0  0  0  0  0  0  0  0  0
   23.9528   71.4620   -3.3080 O   0  0  0  0  0  0  0  0  0  0  0  0
   23.1408   72.6566   -1.1215 O   0  0  0  0  0  0  0  0  0  0  0  0
   23.9624   70.9345    0.2843 O   0  0  0  0  0  0  0  0  0  0  0  0
   20.5885   71.9793    2.4235 O   0  0  0  0  0  0  0  0  0  0  0  0
   23.1818   72.7028    3.4232 O   0  0  0  0  0  0  0  0  0  0  0  0
   20.5080   71.9366   -0.4698 O   0  0  0  0  0  0  0  0  0  0  0  0
   21.7265   72.2127    1.5893 C   0  0  1  0  0  0  0  0  0  0  0  0
   22.9789   71.7816    2.3552 C   0  0  1  0  0  0  0  0  0  0  0  0
   21.5773   71.4022    0.3031 C   0  0  2  0  0  0  0  0  0  0  0  0
   24.2072   71.7505    1.4357 C   0  0  1  0  0  0  0  0  0  0  0  0
   22.8706   71.3960   -0.5138 C   0  0  1  0  0  0  0  0  0  0  0  0
   20.6768   72.4914    3.2417 H   0  0  0  0  0  0  0  0  0  0  0  0
   22.3988   72.7132    3.9959 H   0  0  0  0  0  0  0  0  0  0  0  0
   19.6950   71.9348    0.0583 H   0  0  0  0  0  0  0  0  0  0  0  0
   25.1033   69.8895    2.6369 O   0  0  0  0  0  0  0  0  0  0  0  0
   25.4336   71.1730    2.1391 C   0  0  0  0  0  0  0  0  0  0  0  0
   25.8746   69.5096    3.0869 H   0  0  0  0  0  0  0  0  0  0  0  0
 25 28  1  0
 25 24  1  0
 25 26  1  1
 25 27  2  0
  1  4  1  0
  1 24  1  0
  1  2  1  6
  1  3  2  0
  6 11  1  0
  6 12  1  0
 29 36  1  0
 29 37  1  0
  9  7  1  6
  7 13  1  0
 10  8  1  1
  8 14  1  0
 37 28  1  1
  4  5  1  0
 33 30  1  1
 30 38  1  0
 34 31  1  1
 31 39  1  0
 35 32  1  6
 32 40  1  0
 41 42  1  0
 41 43  1  0
 15 19  2  0
 16 22  2  0
 12 17  1  6
 17 19  1  0
 17 20  1  0
 18 19  1  0
 18 22  1  0
 18 23  1  0
  9 10  1  0
  9 11  1  0
 10 12  1  0
 11  5  1  6
 33 34  1  0
 33 35  1  0
 34 36  1  0
 35 37  1  0
 36 42  1  1
 20 21  2  0
 21 22  1  0
M  CHG  2   2  -1  26  -1
M  END
>  <COMPND>  (324) 
    8629 

>  <AUTHOR>  (324) 
    GENERATED BY OPEN BABEL 3.1.1

>  <MASTER>  (324) 
        0    0    0    0    0    0    0    0   58    0   58    0

>  <minimizedAffinity>  (324) 
-8.15438

>  <CNNscore>  (324) 
0.8807711601

>  <CNNaffinity>  (324) 
4.6988463402

>  <CNN_VS>  (324) 
4.1386084557

>  <CNNaffinity_variance>  (324) 
0.0998955742

$$$$
325
     RDKit          3D

 43 45  0  0  0  0  0  0  0  0999 V2000
   20.5253   71.2272   -1.5453 P   0  0  2  0  0  0  0  0  0  0  0  0
   21.2197   70.5625   -0.2440 O   0  0  0  0  0  0  0  0  0  0  0  0
   19.9249   72.5837   -1.3199 O   0  0  0  0  0  0  0  0  0  0  0  0
   19.5049   70.0851   -2.0672 O   0  0  0  0  0  0  0  0  0  0  0  0
   19.1470   70.0735   -3.4381 C   0  0  0  0  0  0  0  0  0  0  0  0
   17.5627   71.2629   -4.7980 O   0  0  0  0  0  0  0  0  0  0  0  0
   15.4373   69.7839   -3.2861 O   0  0  0  0  0  0  0  0  0  0  0  0
   15.5797   68.3917   -5.6266 O   0  0  0  0  0  0  0  0  0  0  0  0
   16.7264   69.3357   -3.7017 C   0  0  1  0  0  0  0  0  0  0  0  0
   16.7373   69.0769   -5.1938 C   0  0  2  0  0  0  0  0  0  0  0  0
   17.6936   70.5061   -3.5747 C   0  0  1  0  0  0  0  0  0  0  0  0
   16.8281   70.4850   -5.7571 C   0  0  2  0  0  0  0  0  0  0  0  0
   14.8024   69.0533   -3.3581 H   0  0  0  0  0  0  0  0  0  0  0  0
   15.5679   67.5015   -5.2416 H   0  0  0  0  0  0  0  0  0  0  0  0
   15.5461   70.5782   -8.2722 O   0  0  0  0  0  0  0  0  0  0  0  0
   19.5669   70.6445  -10.5240 O   0  0  0  0  0  0  0  0  0  0  0  0
   17.5155   70.5276   -7.0169 N   0  0  0  0  0  0  0  0  0  0  0  0
   17.5492   70.6113   -9.3914 N   0  0  0  0  0  0  0  0  0  0  0  0
   16.7779   70.5717   -8.2228 C   0  0  0  0  0  0  0  0  0  0  0  0
   18.9058   70.5259   -7.0480 C   0  0  0  0  0  0  0  0  0  0  0  0
   19.6264   70.5626   -8.1708 C   0  0  0  0  0  0  0  0  0  0  0  0
   18.9326   70.6100   -9.4740 C   0  0  0  0  0  0  0  0  0  0  0  0
   17.0568   70.6420  -10.2436 H   0  0  0  0  0  0  0  0  0  0  0  0
   21.7074   71.1894   -2.6473 O   0  0  0  0  0  0  0  0  0  0  0  0
   23.0727   72.0461   -2.7693 P   0  0  2  0  0  0  0  0  0  0  0  0
   24.1903   70.9199   -3.0861 O   0  0  0  0  0  0  0  0  0  0  0  0
   23.3741   72.8975   -1.5701 O   0  0  0  0  0  0  0  0  0  0  0  0
   22.9180   72.8667   -4.1505 O   0  0  0  0  0  0  0  0  0  0  0  0
   22.9252   75.2101   -4.5037 O   0  0  0  0  0  0  0  0  0  0  0  0
   20.2016   74.1136   -7.4072 O   0  0  0  0  0  0  0  0  0  0  0  0
   22.8327   74.9661   -8.1807 O   0  0  0  0  0  0  0  0  0  0  0  0
   20.2008   72.7674   -4.8445 O   0  0  0  0  0  0  0  0  0  0  0  0
   21.3617   73.9611   -6.5848 C   0  0  1  0  0  0  0  0  0  0  0  0
   22.3066   75.1309   -6.8668 C   0  0  1  0  0  0  0  0  0  0  0  0
   20.9363   73.9552   -5.1177 C   0  0  2  0  0  0  0  0  0  0  0  0
   23.4444   75.1843   -5.8384 C   0  0  1  0  0  0  0  0  0  0  0  0
   22.1404   74.0607   -4.1801 C   0  0  1  0  0  0  0  0  0  0  0  0
   20.4647   74.1177   -8.3400 H   0  0  0  0  0  0  0  0  0  0  0  0
   22.1041   74.9334   -8.8204 H   0  0  0  0  0  0  0  0  0  0  0  0
   19.4411   72.7125   -5.4443 H   0  0  0  0  0  0  0  0  0  0  0  0
   25.2828   76.1751   -6.9993 O   0  0  0  0  0  0  0  0  0  0  0  0
   24.3081   76.4326   -6.0053 C   0  0  0  0  0  0  0  0  0  0  0  0
   25.8397   76.9611   -7.1165 H   0  0  0  0  0  0  0  0  0  0  0  0
 25 28  1  0
 25 24  1  0
 25 26  1  6
 25 27  2  0
  1  4  1  0
  1 24  1  0
  1  2  1  1
  1  3  2  0
  6 11  1  0
  6 12  1  0
 29 36  1  0
 29 37  1  0
  9  7  1  6
  7 13  1  0
 10  8  1  6
  8 14  1  0
 37 28  1  6
  4  5  1  0
 33 30  1  6
 30 38  1  0
 34 31  1  6
 31 39  1  0
 35 32  1  1
 32 40  1  0
 41 42  1  0
 41 43  1  0
 15 19  2  0
 16 22  2  0
 12 17  1  6
 17 19  1  0
 17 20  1  0
 18 19  1  0
 18 22  1  0
 18 23  1  0
  9 10  1  0
  9 11  1  0
 10 12  1  0
 11  5  1  6
 33 34  1  0
 33 35  1  0
 34 36  1  0
 35 37  1  0
 36 42  1  6
 20 21  2  0
 21 22  1  0
M  CHG  2   2  -1  26  -1
M  END
>  <COMPND>  (325) 
    8629 

>  <AUTHOR>  (325) 
    GENERATED BY OPEN BABEL 3.1.1

>  <MASTER>  (325) 
        0    0    0    0    0    0    0    0   58    0   58    0

>  <minimizedAffinity>  (325) 
-7.77456

>  <CNNscore>  (325) 
0.8593655229

>  <CNNaffinity>  (325) 
4.6564126015

>  <CNN_VS>  (325) 
4.0015606880

>  <CNNaffinity_variance>  (325) 
0.5277131200

$$$$
326
     RDKit          3D

 43 45  0  0  0  0  0  0  0  0999 V2000
   20.2402   73.5766   -3.3942 P   0  0  2  0  0  0  0  0  0  0  0  0
   20.8659   72.9712   -2.0306 O   0  0  0  0  0  0  0  0  0  0  0  0
   19.1218   74.5574   -3.1975 O   0  0  0  0  0  0  0  0  0  0  0  0
   19.8791   72.2658   -4.2712 O   0  0  0  0  0  0  0  0  0  0  0  0
   19.3363   71.1372   -3.6083 C   0  0  0  0  0  0  0  0  0  0  0  0
   17.4820   71.6484   -5.0484 O   0  0  0  0  0  0  0  0  0  0  0  0
   15.8177   69.9943   -3.1817 O   0  0  0  0  0  0  0  0  0  0  0  0
   16.2581   68.2839   -5.2594 O   0  0  0  0  0  0  0  0  0  0  0  0
   17.1699   69.8032   -3.5946 C   0  0  1  0  0  0  0  0  0  0  0  0
   17.2173   69.2935   -5.0200 C   0  0  2  0  0  0  0  0  0  0  0  0
   17.8188   71.1755   -3.7258 C   0  0  1  0  0  0  0  0  0  0  0  0
   16.9458   70.5586   -5.8162 C   0  0  2  0  0  0  0  0  0  0  0  0
   15.3826   69.1315   -3.0907 H   0  0  0  0  0  0  0  0  0  0  0  0
   16.4744   67.5002   -4.7304 H   0  0  0  0  0  0  0  0  0  0  0  0
   15.5587   70.6394   -8.2753 O   0  0  0  0  0  0  0  0  0  0  0  0
   19.4754   70.4835  -10.6993 O   0  0  0  0  0  0  0  0  0  0  0  0
   17.5781   70.5407   -7.1051 N   0  0  0  0  0  0  0  0  0  0  0  0
   17.5100   70.5619   -9.4803 N   0  0  0  0  0  0  0  0  0  0  0  0
   16.7901   70.5839   -8.2789 C   0  0  0  0  0  0  0  0  0  0  0  0
   18.9645   70.4814   -7.1962 C   0  0  0  0  0  0  0  0  0  0  0  0
   19.6356   70.4598   -8.3495 C   0  0  0  0  0  0  0  0  0  0  0  0
   18.8873   70.5020   -9.6224 C   0  0  0  0  0  0  0  0  0  0  0  0
   16.9821   70.5907  -10.3110 H   0  0  0  0  0  0  0  0  0  0  0  0
   21.5351   74.1763   -4.1534 O   0  0  0  0  0  0  0  0  0  0  0  0
   23.0481   73.6198   -4.2726 P   0  0  2  0  0  0  0  0  0  0  0  0
   22.8491   72.1289   -4.8686 O   0  0  0  0  0  0  0  0  0  0  0  0
   23.8270   73.6752   -2.9903 O   0  0  0  0  0  0  0  0  0  0  0  0
   23.6982   74.4609   -5.4870 O   0  0  0  0  0  0  0  0  0  0  0  0
   23.5376   76.7830   -5.9324 O   0  0  0  0  0  0  0  0  0  0  0  0
   23.6381   75.3725   -9.8120 O   0  0  0  0  0  0  0  0  0  0  0  0
   25.9318   76.7238   -8.7348 O   0  0  0  0  0  0  0  0  0  0  0  0
   22.1793   73.9126   -7.7821 O   0  0  0  0  0  0  0  0  0  0  0  0
   23.9734   75.3869   -8.4218 C   0  0  1  0  0  0  0  0  0  0  0  0
   24.6531   76.7208   -8.1062 C   0  0  1  0  0  0  0  0  0  0  0  0
   22.6967   75.2261   -7.5986 C   0  0  2  0  0  0  0  0  0  0  0  0
   24.8014   76.9224   -6.5921 C   0  0  1  0  0  0  0  0  0  0  0  0
   22.9445   75.4957   -6.1134 C   0  0  1  0  0  0  0  0  0  0  0  0
   24.4444   75.4737  -10.3402 H   0  0  0  0  0  0  0  0  0  0  0  0
   25.8241   76.5951   -9.6903 H   0  0  0  0  0  0  0  0  0  0  0  0
   22.0264   73.7544   -8.7263 H   0  0  0  0  0  0  0  0  0  0  0  0
   26.4089   78.1713   -5.3410 O   0  0  0  0  0  0  0  0  0  0  0  0
   25.3324   78.3127   -6.2496 C   0  0  0  0  0  0  0  0  0  0  0  0
   26.7571   79.0483   -5.1143 H   0  0  0  0  0  0  0  0  0  0  0  0
 25 28  1  0
 25 24  1  0
 25 26  1  6
 25 27  2  0
  1  4  1  0
  1 24  1  0
  1  2  1  1
  1  3  2  0
  6 11  1  0
  6 12  1  0
 29 36  1  0
 29 37  1  0
  9  7  1  6
  7 13  1  0
 10  8  1  1
  8 14  1  0
 37 28  1  6
  4  5  1  0
 33 30  1  6
 30 38  1  0
 34 31  1  6
 31 39  1  0
 35 32  1  1
 32 40  1  0
 41 42  1  0
 41 43  1  0
 15 19  2  0
 16 22  2  0
 12 17  1  6
 17 19  1  0
 17 20  1  0
 18 19  1  0
 18 22  1  0
 18 23  1  0
  9 10  1  0
  9 11  1  0
 10 12  1  0
 11  5  1  6
 33 34  1  0
 33 35  1  0
 34 36  1  0
 35 37  1  0
 36 42  1  6
 20 21  2  0
 21 22  1  0
M  CHG  2   2  -1  26  -1
M  END
>  <COMPND>  (326) 
    8629 

>  <AUTHOR>  (326) 
    GENERATED BY OPEN BABEL 3.1.1

>  <MASTER>  (326) 
        0    0    0    0    0    0    0    0   58    0   58    0

>  <minimizedAffinity>  (326) 
-6.55365

>  <CNNscore>  (326) 
0.8495973945

>  <CNNaffinity>  (326) 
4.6542062759

>  <CNN_VS>  (326) 
3.9542014599

>  <CNNaffinity_variance>  (326) 
0.1513270736

$$$$
327
     RDKit          3D

 43 45  0  0  0  0  0  0  0  0999 V2000
   21.7886   72.4440   -5.5904 P   0  0  2  0  0  0  0  0  0  0  0  0
   21.1320   73.8856   -5.2617 O   0  0  0  0  0  0  0  0  0  0  0  0
   23.0571   72.4930   -6.3904 O   0  0  0  0  0  0  0  0  0  0  0  0
   20.5731   71.6051   -6.2511 O   0  0  0  0  0  0  0  0  0  0  0  0
   20.1233   71.9712   -7.5440 C   0  0  0  0  0  0  0  0  0  0  0  0
   18.8994   69.9396   -7.1587 O   0  0  0  0  0  0  0  0  0  0  0  0
   18.1306   70.0741  -10.0538 O   0  0  0  0  0  0  0  0  0  0  0  0
   15.8985   71.0157   -8.8017 O   0  0  0  0  0  0  0  0  0  0  0  0
   18.3064   71.1354   -9.1167 C   0  0  1  0  0  0  0  0  0  0  0  0
   17.1414   71.1818   -8.1502 C   0  0  2  0  0  0  0  0  0  0  0  0
   19.4657   70.7649   -8.2001 C   0  0  1  0  0  0  0  0  0  0  0  0
   17.4665   70.0337   -7.2097 C   0  0  2  0  0  0  0  0  0  0  0  0
   17.3956   70.2882  -10.6504 H   0  0  0  0  0  0  0  0  0  0  0  0
   15.7374   71.7711   -9.3883 H   0  0  0  0  0  0  0  0  0  0  0  0
   16.2745   68.0412   -5.6012 O   0  0  0  0  0  0  0  0  0  0  0  0
   15.5820   70.9966   -2.1332 O   0  0  0  0  0  0  0  0  0  0  0  0
   16.9662   70.2548   -5.8822 N   0  0  0  0  0  0  0  0  0  0  0  0
   15.9308   69.5144   -3.8756 N   0  0  0  0  0  0  0  0  0  0  0  0
   16.3848   69.1869   -5.1596 C   0  0  0  0  0  0  0  0  0  0  0  0
   17.0549   71.5191   -5.3098 C   0  0  0  0  0  0  0  0  0  0  0  0
   16.6160   71.8152   -4.0847 C   0  0  0  0  0  0  0  0  0  0  0  0
   15.9954   70.7559   -3.2632 C   0  0  0  0  0  0  0  0  0  0  0  0
   15.5218   68.7863   -3.3538 H   0  0  0  0  0  0  0  0  0  0  0  0
   21.9410   71.7722   -4.1281 O   0  0  0  0  0  0  0  0  0  0  0  0
   23.1075   71.9019   -3.0165 P   0  0  2  0  0  0  0  0  0  0  0  0
   23.6319   73.4209   -3.2047 O   0  0  0  0  0  0  0  0  0  0  0  0
   24.1809   70.8581   -3.1263 O   0  0  0  0  0  0  0  0  0  0  0  0
   22.3265   71.9123   -1.6041 O   0  0  0  0  0  0  0  0  0  0  0  0
   24.0073   72.4378   -0.0181 O   0  0  0  0  0  0  0  0  0  0  0  0
   20.7554   72.2121    2.5168 O   0  0  0  0  0  0  0  0  0  0  0  0
   21.8980   74.7740    1.9009 O   0  0  0  0  0  0  0  0  0  0  0  0
   21.0009   70.3504    0.3138 O   0  0  0  0  0  0  0  0  0  0  0  0
   21.4365   72.5069    1.2942 C   0  0  1  0  0  0  0  0  0  0  0  0
   22.5299   73.5352    1.5903 C   0  0  1  0  0  0  0  0  0  0  0  0
   22.0445   71.2203    0.7388 C   0  0  2  0  0  0  0  0  0  0  0  0
   23.4727   73.7022    0.3910 C   0  0  1  0  0  0  0  0  0  0  0  0
   23.0038   71.5028   -0.4188 C   0  0  1  0  0  0  0  0  0  0  0  0
   20.3666   73.0247    2.8745 H   0  0  0  0  0  0  0  0  0  0  0  0
   21.3052   74.6546    2.6595 H   0  0  0  0  0  0  0  0  0  0  0  0
   20.4007   70.1791    1.0556 H   0  0  0  0  0  0  0  0  0  0  0  0
   24.8508   74.6048    2.1216 O   0  0  0  0  0  0  0  0  0  0  0  0
   24.6608   74.6039    0.7187 C   0  0  0  0  0  0  0  0  0  0  0  0
   25.6040   75.1744    2.3449 H   0  0  0  0  0  0  0  0  0  0  0  0
 25 28  1  0
 25 24  1  0
 25 26  1  6
 25 27  2  0
  1  4  1  0
  1 24  1  0
  1  2  1  1
  1  3  2  0
  6 11  1  0
  6 12  1  0
 29 36  1  0
 29 37  1  0
  9  7  1  6
  7 13  1  0
 10  8  1  6
  8 14  1  0
 37 28  1  6
  4  5  1  0
 33 30  1  1
 30 38  1  0
 34 31  1  6
 31 39  1  0
 35 32  1  6
 32 40  1  0
 41 42  1  0
 41 43  1  0
 15 19  2  0
 16 22  2  0
 12 17  1  1
 17 19  1  0
 17 20  1  0
 18 19  1  0
 18 22  1  0
 18 23  1  0
  9 10  1  0
  9 11  1  0
 10 12  1  0
 11  5  1  1
 33 34  1  0
 33 35  1  0
 34 36  1  0
 35 37  1  0
 36 42  1  1
 20 21  2  0
 21 22  1  0
M  CHG  2   2  -1  26  -1
M  END
>  <COMPND>  (327) 
    8629 

>  <AUTHOR>  (327) 
    GENERATED BY OPEN BABEL 3.1.1

>  <MASTER>  (327) 
        0    0    0    0    0    0    0    0   58    0   58    0

>  <minimizedAffinity>  (327) 
-8.13535

>  <CNNscore>  (327) 
0.8156359792

>  <CNNaffinity>  (327) 
4.5790572166

>  <CNN_VS>  (327) 
3.7348437309

>  <CNNaffinity_variance>  (327) 
0.1734920442

$$$$
328
     RDKit          3D

 43 45  0  0  0  0  0  0  0  0999 V2000
   20.5272   74.3938   -2.6180 P   0  0  2  0  0  0  0  0  0  0  0  0
   20.5958   75.9058   -3.1893 O   0  0  0  0  0  0  0  0  0  0  0  0
   21.6459   73.4975   -3.0613 O   0  0  0  0  0  0  0  0  0  0  0  0
   19.0358   73.8998   -3.0045 O   0  0  0  0  0  0  0  0  0  0  0  0
   18.8757   73.0429   -4.1216 C   0  0  0  0  0  0  0  0  0  0  0  0
   17.0116   72.2228   -5.3970 O   0  0  0  0  0  0  0  0  0  0  0  0
   16.2398   70.6949   -2.9351 O   0  0  0  0  0  0  0  0  0  0  0  0
   17.4334   68.7837   -4.4710 O   0  0  0  0  0  0  0  0  0  0  0  0
   17.5397   70.9858   -3.4459 C   0  0  1  0  0  0  0  0  0  0  0  0
   17.8329   70.1262   -4.6579 C   0  0  2  0  0  0  0  0  0  0  0  0
   17.5048   72.3845   -4.0490 C   0  0  1  0  0  0  0  0  0  0  0  0
   17.0341   70.8283   -5.7428 C   0  0  2  0  0  0  0  0  0  0  0  0
   16.2374   69.8065   -2.5445 H   0  0  0  0  0  0  0  0  0  0  0  0
   17.9706   68.3807   -3.7712 H   0  0  0  0  0  0  0  0  0  0  0  0
   15.5709   70.6337   -8.1510 O   0  0  0  0  0  0  0  0  0  0  0  0
   19.4129   70.2587  -10.6689 O   0  0  0  0  0  0  0  0  0  0  0  0
   17.6265   70.6796   -7.0421 N   0  0  0  0  0  0  0  0  0  0  0  0
   17.4851   70.4473   -9.4028 N   0  0  0  0  0  0  0  0  0  0  0  0
   16.8023   70.5900   -8.1881 C   0  0  0  0  0  0  0  0  0  0  0  0
   19.0101   70.6243   -7.1707 C   0  0  0  0  0  0  0  0  0  0  0  0
   19.6457   70.4867   -8.3362 C   0  0  0  0  0  0  0  0  0  0  0  0
   18.8580   70.3860   -9.5818 C   0  0  0  0  0  0  0  0  0  0  0  0
   16.9315   70.3826  -10.2146 H   0  0  0  0  0  0  0  0  0  0  0  0
   20.4343   74.6133   -1.0192 O   0  0  0  0  0  0  0  0  0  0  0  0
   20.0509   73.5903    0.1722 P   0  0  2  0  0  0  0  0  0  0  0  0
   19.8958   72.1725   -0.5916 O   0  0  0  0  0  0  0  0  0  0  0  0
   18.8467   73.9987    0.9703 O   0  0  0  0  0  0  0  0  0  0  0  0
   21.4066   73.4420    1.0355 O   0  0  0  0  0  0  0  0  0  0  0  0
   22.3994   71.4059    1.7319 O   0  0  0  0  0  0  0  0  0  0  0  0
   23.6187   73.8325    4.8426 O   0  0  0  0  0  0  0  0  0  0  0  0
   25.5326   72.9706    2.8824 O   0  0  0  0  0  0  0  0  0  0  0  0
   20.9712   74.1500    3.7158 O   0  0  0  0  0  0  0  0  0  0  0  0
   23.2848   73.5202    3.4875 C   0  0  1  0  0  0  0  0  0  0  0  0
   24.2261   72.4152    3.0040 C   0  0  1  0  0  0  0  0  0  0  0  0
   21.8316   73.0535    3.4263 C   0  0  2  0  0  0  0  0  0  0  0  0
   23.7620   71.8415    1.6584 C   0  0  1  0  0  0  0  0  0  0  0  0
   21.4874   72.4556    2.0610 C   0  0  1  0  0  0  0  0  0  0  0  0
   24.5401   74.1300    4.8883 H   0  0  0  0  0  0  0  0  0  0  0  0
   25.8136   73.3298    3.7388 H   0  0  0  0  0  0  0  0  0  0  0  0
   21.1990   74.5195    4.5827 H   0  0  0  0  0  0  0  0  0  0  0  0
   24.9459   69.9006    2.3933 O   0  0  0  0  0  0  0  0  0  0  0  0
   24.5943   70.6335    1.2342 C   0  0  0  0  0  0  0  0  0  0  0  0
   25.4757   69.1285    2.1385 H   0  0  0  0  0  0  0  0  0  0  0  0
 25 28  1  0
 25 24  1  0
 25 26  1  6
 25 27  2  0
  1  4  1  0
  1 24  1  0
  1  2  1  6
  1  3  2  0
  6 11  1  0
  6 12  1  0
 29 36  1  0
 29 37  1  0
  9  7  1  6
  7 13  1  0
 10  8  1  1
  8 14  1  0
 37 28  1  6
  4  5  1  0
 33 30  1  1
 30 38  1  0
 34 31  1  6
 31 39  1  0
 35 32  1  6
 32 40  1  0
 41 42  1  0
 41 43  1  0
 15 19  2  0
 16 22  2  0
 12 17  1  6
 17 19  1  0
 17 20  1  0
 18 19  1  0
 18 22  1  0
 18 23  1  0
  9 10  1  0
  9 11  1  0
 10 12  1  0
 11  5  1  6
 33 34  1  0
 33 35  1  0
 34 36  1  0
 35 37  1  0
 36 42  1  1
 20 21  2  0
 21 22  1  0
M  CHG  2   2  -1  26  -1
M  END
>  <COMPND>  (328) 
    8629 

>  <AUTHOR>  (328) 
    GENERATED BY OPEN BABEL 3.1.1

>  <MASTER>  (328) 
        0    0    0    0    0    0    0    0   58    0   58    0

>  <minimizedAffinity>  (328) 
-6.42645

>  <CNNscore>  (328) 
0.7493696809

>  <CNNaffinity>  (328) 
4.3231458664

>  <CNN_VS>  (328) 
3.2396345139

>  <CNNaffinity_variance>  (328) 
0.0255085584

$$$$
329
     RDKit          3D

 43 45  0  0  0  0  0  0  0  0999 V2000
   23.4274   71.9178   -3.2980 P   0  0  2  0  0  0  0  0  0  0  0  0
   24.1410   72.9379   -4.3313 O   0  0  0  0  0  0  0  0  0  0  0  0
   24.2240   70.6898   -2.9678 O   0  0  0  0  0  0  0  0  0  0  0  0
   21.9718   71.6556   -3.9540 O   0  0  0  0  0  0  0  0  0  0  0  0
   21.5197   72.5343   -4.9696 C   0  0  0  0  0  0  0  0  0  0  0  0
   20.5905   70.5539   -5.9638 O   0  0  0  0  0  0  0  0  0  0  0  0
   20.8831   71.9633   -8.5941 O   0  0  0  0  0  0  0  0  0  0  0  0
   18.2303   72.2750   -8.0446 O   0  0  0  0  0  0  0  0  0  0  0  0
   20.5394   72.4985   -7.3171 C   0  0  1  0  0  0  0  0  0  0  0  0
   19.1174   72.1235   -6.9552 C   0  0  2  0  0  0  0  0  0  0  0  0
   21.3442   71.7494   -6.2624 C   0  0  1  0  0  0  0  0  0  0  0  0
   19.2733   70.6747   -6.5253 C   0  0  2  0  0  0  0  0  0  0  0  0
   20.3817   72.4264   -9.2842 H   0  0  0  0  0  0  0  0  0  0  0  0
   18.1649   73.2135   -8.2804 H   0  0  0  0  0  0  0  0  0  0  0  0
   16.6483   69.8103   -7.1082 O   0  0  0  0  0  0  0  0  0  0  0  0
   15.6534   69.2264   -2.6461 O   0  0  0  0  0  0  0  0  0  0  0  0
   18.3073   70.2902   -5.5352 N   0  0  0  0  0  0  0  0  0  0  0  0
   16.1551   69.5201   -4.8860 N   0  0  0  0  0  0  0  0  0  0  0  0
   17.0161   69.8722   -5.9333 C   0  0  0  0  0  0  0  0  0  0  0  0
   18.6440   70.3295   -4.1865 C   0  0  0  0  0  0  0  0  0  0  0  0
   17.8110   69.9917   -3.2000 C   0  0  0  0  0  0  0  0  0  0  0  0
   16.4428   69.5437   -3.5305 C   0  0  0  0  0  0  0  0  0  0  0  0
   15.2501   69.2261   -5.1394 H   0  0  0  0  0  0  0  0  0  0  0  0
   23.0898   72.8618   -2.0301 O   0  0  0  0  0  0  0  0  0  0  0  0
   21.8302   72.8683   -1.0170 P   0  0  2  0  0  0  0  0  0  0  0  0
   21.4735   71.2982   -0.8584 O   0  0  0  0  0  0  0  0  0  0  0  0
   20.6810   73.7218   -1.4694 O   0  0  0  0  0  0  0  0  0  0  0  0
   22.4557   73.2903    0.4098 O   0  0  0  0  0  0  0  0  0  0  0  0
   24.5667   72.8666    1.4001 O   0  0  0  0  0  0  0  0  0  0  0  0
   22.1741   72.4385    4.7382 O   0  0  0  0  0  0  0  0  0  0  0  0
   23.8458   74.7595    4.4801 O   0  0  0  0  0  0  0  0  0  0  0  0
   21.2592   71.4624    2.1711 O   0  0  0  0  0  0  0  0  0  0  0  0
   22.5720   72.9974    3.4833 C   0  0  1  0  0  0  0  0  0  0  0  0
   23.9652   73.6073    3.6502 C   0  0  1  0  0  0  0  0  0  0  0  0
   22.5916   71.8926    2.4286 C   0  0  2  0  0  0  0  0  0  0  0  0
   24.5698   73.9875    2.2919 C   0  0  1  0  0  0  0  0  0  0  0  0
   23.2574   72.3602    1.1332 C   0  0  1  0  0  0  0  0  0  0  0  0
   22.1591   73.1349    5.4122 H   0  0  0  0  0  0  0  0  0  0  0  0
   23.4624   74.5058    5.3344 H   0  0  0  0  0  0  0  0  0  0  0  0
   20.8488   71.1687    2.9988 H   0  0  0  0  0  0  0  0  0  0  0  0
   26.0238   75.7841    2.8976 O   0  0  0  0  0  0  0  0  0  0  0  0
   26.0191   74.4511    2.4206 C   0  0  0  0  0  0  0  0  0  0  0  0
   26.9398   76.0924    2.9848 H   0  0  0  0  0  0  0  0  0  0  0  0
 25 28  1  0
 25 24  1  0
 25 26  1  1
 25 27  2  0
  1  4  1  0
  1 24  1  0
  1  2  1  6
  1  3  2  0
  6 11  1  0
  6 12  1  0
 29 36  1  0
 29 37  1  0
  9  7  1  6
  7 13  1  0
 10  8  1  6
  8 14  1  0
 37 28  1  1
  4  5  1  0
 33 30  1  1
 30 38  1  0
 34 31  1  1
 31 39  1  0
 35 32  1  6
 32 40  1  0
 41 42  1  0
 41 43  1  0
 15 19  2  0
 16 22  2  0
 12 17  1  1
 17 19  1  0
 17 20  1  0
 18 19  1  0
 18 22  1  0
 18 23  1  0
  9 10  1  0
  9 11  1  0
 10 12  1  0
 11  5  1  1
 33 34  1  0
 33 35  1  0
 34 36  1  0
 35 37  1  0
 36 42  1  1
 20 21  2  0
 21 22  1  0
M  CHG  2   2  -1  26  -1
M  END
>  <COMPND>  (329) 
    8629 

>  <AUTHOR>  (329) 
    GENERATED BY OPEN BABEL 3.1.1

>  <MASTER>  (329) 
        0    0    0    0    0    0    0    0   58    0   58    0

>  <minimizedAffinity>  (329) 
-7.54634

>  <CNNscore>  (329) 
0.6756361723

>  <CNNaffinity>  (329) 
4.4308013916

>  <CNN_VS>  (329) 
2.9936096668

>  <CNNaffinity_variance>  (329) 
0.0850151405

$$$$
330
     RDKit          3D

 43 45  0  0  0  0  0  0  0  0999 V2000
   22.9972   71.9351   -2.7572 P   0  0  2  0  0  0  0  0  0  0  0  0
   24.1396   70.8249   -3.0396 O   0  0  0  0  0  0  0  0  0  0  0  0
   23.5112   73.3179   -2.4831 O   0  0  0  0  0  0  0  0  0  0  0  0
   22.0957   71.2757   -1.5866 O   0  0  0  0  0  0  0  0  0  0  0  0
   22.7422   70.8203   -0.4108 C   0  0  0  0  0  0  0  0  0  0  0  0
   22.7410   71.1087    1.9747 O   0  0  0  0  0  0  0  0  0  0  0  0
   20.2808   72.7777    1.5839 O   0  0  0  0  0  0  0  0  0  0  0  0
   22.2301   74.6579    1.9031 O   0  0  0  0  0  0  0  0  0  0  0  0
   21.4368   72.6668    0.7552 C   0  0  1  0  0  0  0  0  0  0  0  0
   22.6051   73.3992    1.3816 C   0  0  2  0  0  0  0  0  0  0  0  0
   21.9087   71.2187    0.7994 C   0  0  1  0  0  0  0  0  0  0  0  0
   23.0442   72.4259    2.4624 C   0  0  2  0  0  0  0  0  0  0  0  0
   19.9610   73.6939    1.5714 H   0  0  0  0  0  0  0  0  0  0  0  0
   21.9591   75.2411    1.1770 H   0  0  0  0  0  0  0  0  0  0  0  0
   24.2695   74.5306    3.8931 O   0  0  0  0  0  0  0  0  0  0  0  0
   28.4505   72.6426    3.4499 O   0  0  0  0  0  0  0  0  0  0  0  0
   24.4512   72.5095    2.7358 N   0  0  0  0  0  0  0  0  0  0  0  0
   26.3503   73.5887    3.6714 N   0  0  0  0  0  0  0  0  0  0  0  0
   24.9655   73.6089    3.4620 C   0  0  0  0  0  0  0  0  0  0  0  0
   25.3053   71.5085    2.2859 C   0  0  0  0  0  0  0  0  0  0  0  0
   26.6238   71.5046    2.4929 C   0  0  0  0  0  0  0  0  0  0  0  0
   27.2411   72.6172    3.2432 C   0  0  0  0  0  0  0  0  0  0  0  0
   26.7310   74.3447    4.1747 H   0  0  0  0  0  0  0  0  0  0  0  0
   22.0458   71.8168   -4.0587 O   0  0  0  0  0  0  0  0  0  0  0  0
   21.8240   72.8204   -5.3063 P   0  0  2  0  0  0  0  0  0  0  0  0
   23.0113   72.4120   -6.3266 O   0  0  0  0  0  0  0  0  0  0  0  0
   21.8029   74.2738   -4.9307 O   0  0  0  0  0  0  0  0  0  0  0  0
   20.4749   72.2941   -6.0191 O   0  0  0  0  0  0  0  0  0  0  0  0
   19.4676   70.1504   -5.9404 O   0  0  0  0  0  0  0  0  0  0  0  0
   18.5619   71.1623   -9.8400 O   0  0  0  0  0  0  0  0  0  0  0  0
   16.4816   71.1443   -7.8600 O   0  0  0  0  0  0  0  0  0  0  0  0
   21.1290   71.8911   -8.7181 O   0  0  0  0  0  0  0  0  0  0  0  0
   18.7850   71.4069   -8.4486 C   0  0  1  0  0  0  0  0  0  0  0  0
   17.7741   70.5828   -7.6488 C   0  0  1  0  0  0  0  0  0  0  0  0
   20.2132   70.9984   -8.0928 C   0  0  2  0  0  0  0  0  0  0  0  0
   18.1188   70.5829   -6.1534 C   0  0  1  0  0  0  0  0  0  0  0  0
   20.4362   70.9843   -6.5794 C   0  0  1  0  0  0  0  0  0  0  0  0
   17.6569   71.4200  -10.0726 H   0  0  0  0  0  0  0  0  0  0  0  0
   16.2764   71.1387   -8.8082 H   0  0  0  0  0  0  0  0  0  0  0  0
   20.9778   71.8907   -9.6757 H   0  0  0  0  0  0  0  0  0  0  0  0
   15.9761   70.2849   -5.1390 O   0  0  0  0  0  0  0  0  0  0  0  0
   17.2175   69.6405   -5.3586 C   0  0  0  0  0  0  0  0  0  0  0  0
   15.3920   69.6967   -4.6344 H   0  0  0  0  0  0  0  0  0  0  0  0
 25 28  1  0
 25 24  1  0
 25 26  1  6
 25 27  2  0
  1  4  1  0
  1 24  1  0
  1  2  1  6
  1  3  2  0
  6 11  1  0
  6 12  1  0
 29 36  1  0
 29 37  1  0
  9  7  1  1
  7 13  1  0
 10  8  1  1
  8 14  1  0
 37 28  1  1
  4  5  1  0
 33 30  1  6
 30 38  1  0
 34 31  1  1
 31 39  1  0
 35 32  1  6
 32 40  1  0
 41 42  1  0
 41 43  1  0
 15 19  2  0
 16 22  2  0
 12 17  1  6
 17 19  1  0
 17 20  1  0
 18 19  1  0
 18 22  1  0
 18 23  1  0
  9 10  1  0
  9 11  1  0
 10 12  1  0
 11  5  1  6
 33 34  1  0
 33 35  1  0
 34 36  1  0
 35 37  1  0
 36 42  1  1
 20 21  2  0
 21 22  1  0
M  CHG  2   2  -1  26  -1
M  END
>  <COMPND>  (330) 
    8629 

>  <AUTHOR>  (330) 
    GENERATED BY OPEN BABEL 3.1.1

>  <MASTER>  (330) 
        0    0    0    0    0    0    0    0   58    0   58    0

>  <minimizedAffinity>  (330) 
-7.51921

>  <CNNscore>  (330) 
0.6729386449

>  <CNNaffinity>  (330) 
4.3317775726

>  <CNN_VS>  (330) 
2.9150204659

>  <CNNaffinity_variance>  (330) 
0.1160874143

$$$$
331
     RDKit          3D

 43 45  0  0  0  0  0  0  0  0999 V2000
   22.4742   71.5084   -2.2641 P   0  0  2  0  0  0  0  0  0  0  0  0
   23.9647   71.0213   -1.8662 O   0  0  0  0  0  0  0  0  0  0  0  0
   21.5350   70.4098   -2.6673 O   0  0  0  0  0  0  0  0  0  0  0  0
   22.7249   72.6604   -3.3722 O   0  0  0  0  0  0  0  0  0  0  0  0
   21.5999   73.3065   -3.9422 C   0  0  0  0  0  0  0  0  0  0  0  0
   20.8670   71.7194   -5.5907 O   0  0  0  0  0  0  0  0  0  0  0  0
   21.1801   73.9327   -7.5892 O   0  0  0  0  0  0  0  0  0  0  0  0
   18.4885   73.9024   -7.1526 O   0  0  0  0  0  0  0  0  0  0  0  0
   20.7377   73.9964   -6.2343 C   0  0  1  0  0  0  0  0  0  0  0  0
   19.3315   73.4471   -6.1140 C   0  0  2  0  0  0  0  0  0  0  0  0
   21.5442   72.9850   -5.4294 C   0  0  1  0  0  0  0  0  0  0  0  0
   19.5728   71.9482   -6.1715 C   0  0  2  0  0  0  0  0  0  0  0  0
   20.6795   74.5703   -8.1229 H   0  0  0  0  0  0  0  0  0  0  0  0
   18.3656   74.8612   -7.0727 H   0  0  0  0  0  0  0  0  0  0  0  0
   17.8742   69.9883   -7.2902 O   0  0  0  0  0  0  0  0  0  0  0  0
   15.8453   69.1686   -3.2339 O   0  0  0  0  0  0  0  0  0  0  0  0
   18.5915   71.2068   -5.4306 N   0  0  0  0  0  0  0  0  0  0  0  0
   16.8655   69.5816   -5.2695 N   0  0  0  0  0  0  0  0  0  0  0  0
   17.7885   70.2455   -6.0876 C   0  0  0  0  0  0  0  0  0  0  0  0
   18.4334   71.4356   -4.0681 C   0  0  0  0  0  0  0  0  0  0  0  0
   17.5477   70.7949   -3.3024 C   0  0  0  0  0  0  0  0  0  0  0  0
   16.6698   69.7748   -3.9112 C   0  0  0  0  0  0  0  0  0  0  0  0
   16.2949   68.9078   -5.7056 H   0  0  0  0  0  0  0  0  0  0  0  0
   22.0076   72.3494   -0.9649 O   0  0  0  0  0  0  0  0  0  0  0  0
   20.7853   72.1173    0.0671 P   0  0  2  0  0  0  0  0  0  0  0  0
   20.8561   70.5306    0.3753 O   0  0  0  0  0  0  0  0  0  0  0  0
   19.4538   72.5908   -0.4395 O   0  0  0  0  0  0  0  0  0  0  0  0
   21.2682   72.8206    1.4372 O   0  0  0  0  0  0  0  0  0  0  0  0
   22.8865   71.2877    2.2422 O   0  0  0  0  0  0  0  0  0  0  0  0
   23.3320   74.2631    5.0704 O   0  0  0  0  0  0  0  0  0  0  0  0
   25.3703   73.8781    3.0842 O   0  0  0  0  0  0  0  0  0  0  0  0
   20.6965   73.6043    4.0704 O   0  0  0  0  0  0  0  0  0  0  0  0
   23.0824   73.7320    3.7662 C   0  0  1  0  0  0  0  0  0  0  0  0
   24.3187   72.9469    3.3235 C   0  0  1  0  0  0  0  0  0  0  0  0
   21.8586   72.8197    3.8245 C   0  0  2  0  0  0  0  0  0  0  0  0
   24.0312   72.1286    2.0574 C   0  0  1  0  0  0  0  0  0  0  0  0
   21.6918   72.0152    2.5341 C   0  0  1  0  0  0  0  0  0  0  0  0
   24.1076   74.8437    5.0402 H   0  0  0  0  0  0  0  0  0  0  0  0
   25.5415   74.3887    3.8912 H   0  0  0  0  0  0  0  0  0  0  0  0
   20.8145   74.1085    4.8900 H   0  0  0  0  0  0  0  0  0  0  0  0
   24.6787   70.0065    1.1707 O   0  0  0  0  0  0  0  0  0  0  0  0
   25.1995   71.2170    1.6881 C   0  0  0  0  0  0  0  0  0  0  0  0
   25.4110   69.4165    0.9310 H   0  0  0  0  0  0  0  0  0  0  0  0
 25 28  1  0
 25 24  1  0
 25 26  1  1
 25 27  2  0
  1  4  1  0
  1 24  1  0
  1  2  1  1
  1  3  2  0
  6 11  1  0
  6 12  1  0
 29 36  1  0
 29 37  1  0
  9  7  1  6
  7 13  1  0
 10  8  1  6
  8 14  1  0
 37 28  1  6
  4  5  1  0
 33 30  1  1
 30 38  1  0
 34 31  1  6
 31 39  1  0
 35 32  1  6
 32 40  1  0
 41 42  1  0
 41 43  1  0
 15 19  2  0
 16 22  2  0
 12 17  1  1
 17 19  1  0
 17 20  1  0
 18 19  1  0
 18 22  1  0
 18 23  1  0
  9 10  1  0
  9 11  1  0
 10 12  1  0
 11  5  1  1
 33 34  1  0
 33 35  1  0
 34 36  1  0
 35 37  1  0
 36 42  1  1
 20 21  2  0
 21 22  1  0
M  CHG  2   2  -1  26  -1
M  END
>  <COMPND>  (331) 
    8629 

>  <AUTHOR>  (331) 
    GENERATED BY OPEN BABEL 3.1.1

>  <MASTER>  (331) 
        0    0    0    0    0    0    0    0   58    0   58    0

>  <minimizedAffinity>  (331) 
-6.54640

>  <CNNscore>  (331) 
0.6644738913

>  <CNNaffinity>  (331) 
4.2664003372

>  <CNN_VS>  (331) 
2.8349115849

>  <CNNaffinity_variance>  (331) 
0.2023802102

$$$$
332
     RDKit          3D

 43 45  0  0  0  0  0  0  0  0999 V2000
   20.9489   72.9313   -2.4308 P   0  0  2  0  0  0  0  0  0  0  0  0
   22.1955   72.8612   -3.4596 O   0  0  0  0  0  0  0  0  0  0  0  0
   20.5184   74.3175   -2.0502 O   0  0  0  0  0  0  0  0  0  0  0  0
   21.4013   71.9751   -1.2065 O   0  0  0  0  0  0  0  0  0  0  0  0
   22.0824   72.5581   -0.1093 C   0  0  0  0  0  0  0  0  0  0  0  0
   22.6755   71.1860    1.7720 O   0  0  0  0  0  0  0  0  0  0  0  0
   20.2350   72.2974    3.1137 O   0  0  0  0  0  0  0  0  0  0  0  0
   22.2468   73.7569    4.2357 O   0  0  0  0  0  0  0  0  0  0  0  0
   21.1484   72.9403    2.2262 C   0  0  1  0  0  0  0  0  0  0  0  0
   22.4519   73.2374    2.9377 C   0  0  2  0  0  0  0  0  0  0  0  0
   21.5821   71.9212    1.1800 C   0  0  1  0  0  0  0  0  0  0  0  0
   23.1205   71.8732    2.9530 C   0  0  2  0  0  0  0  0  0  0  0  0
   19.9437   72.9287    3.7908 H   0  0  0  0  0  0  0  0  0  0  0  0
   21.8193   74.6252    4.1727 H   0  0  0  0  0  0  0  0  0  0  0  0
   24.8444   69.7401    2.2777 O   0  0  0  0  0  0  0  0  0  0  0  0
   28.6002   72.3404    2.8885 O   0  0  0  0  0  0  0  0  0  0  0  0
   24.5531   71.9651    2.9270 N   0  0  0  0  0  0  0  0  0  0  0  0
   26.7131   71.0366    2.5822 N   0  0  0  0  0  0  0  0  0  0  0  0
   25.3270   70.8347    2.5753 C   0  0  0  0  0  0  0  0  0  0  0  0
   25.1764   73.1661    3.2476 C   0  0  0  0  0  0  0  0  0  0  0  0
   26.4994   73.3419    3.2507 C   0  0  0  0  0  0  0  0  0  0  0  0
   27.3800   72.2106    2.8948 C   0  0  0  0  0  0  0  0  0  0  0  0
   27.2724   70.2629    2.3408 H   0  0  0  0  0  0  0  0  0  0  0  0
   19.8131   72.0549   -3.1758 O   0  0  0  0  0  0  0  0  0  0  0  0
   19.6778   70.4592   -3.3956 P   0  0  2  0  0  0  0  0  0  0  0  0
   18.9459   69.9590   -2.0423 O   0  0  0  0  0  0  0  0  0  0  0  0
   20.9767   69.7662   -3.6896 O   0  0  0  0  0  0  0  0  0  0  0  0
   18.5585   70.2990   -4.5474 O   0  0  0  0  0  0  0  0  0  0  0  0
   19.1335   71.8108   -6.2797 O   0  0  0  0  0  0  0  0  0  0  0  0
   15.6231   70.3093   -7.8525 O   0  0  0  0  0  0  0  0  0  0  0  0
   18.1374   69.5423   -9.0093 O   0  0  0  0  0  0  0  0  0  0  0  0
   15.8364   70.8020   -5.0080 O   0  0  0  0  0  0  0  0  0  0  0  0
   16.8518   70.2554   -7.1226 C   0  0  1  0  0  0  0  0  0  0  0  0
   17.9930   70.6107   -8.0776 C   0  0  1  0  0  0  0  0  0  0  0  0
   16.7892   71.2509   -5.9656 C   0  0  2  0  0  0  0  0  0  0  0  0
   19.3051   70.8348   -7.3139 C   0  0  1  0  0  0  0  0  0  0  0  0
   18.1568   71.4369   -5.3059 C   0  0  1  0  0  0  0  0  0  0  0  0
   15.6561   69.6791   -8.5883 H   0  0  0  0  0  0  0  0  0  0  0  0
   17.3019   69.4109   -9.4845 H   0  0  0  0  0  0  0  0  0  0  0  0
   14.9749   70.6884   -5.4379 H   0  0  0  0  0  0  0  0  0  0  0  0
   21.6110   71.4410   -7.4699 O   0  0  0  0  0  0  0  0  0  0  0  0
   20.4186   71.3434   -8.2269 C   0  0  0  0  0  0  0  0  0  0  0  0
   22.3285   71.7633   -8.0382 H   0  0  0  0  0  0  0  0  0  0  0  0
 25 28  1  0
 25 24  1  0
 25 26  1  1
 25 27  2  0
  1  4  1  0
  1 24  1  0
  1  2  1  6
  1  3  2  0
  6 11  1  0
  6 12  1  0
 29 36  1  0
 29 37  1  0
  9  7  1  1
  7 13  1  0
 10  8  1  1
  8 14  1  0
 37 28  1  6
  4  5  1  0
 33 30  1  6
 30 38  1  0
 34 31  1  6
 31 39  1  0
 35 32  1  1
 32 40  1  0
 41 42  1  0
 41 43  1  0
 15 19  2  0
 16 22  2  0
 12 17  1  6
 17 19  1  0
 17 20  1  0
 18 19  1  0
 18 22  1  0
 18 23  1  0
  9 10  1  0
  9 11  1  0
 10 12  1  0
 11  5  1  6
 33 34  1  0
 33 35  1  0
 34 36  1  0
 35 37  1  0
 36 42  1  6
 20 21  2  0
 21 22  1  0
M  CHG  2   2  -1  26  -1
M  END
>  <COMPND>  (332) 
    8629 

>  <AUTHOR>  (332) 
    GENERATED BY OPEN BABEL 3.1.1

>  <MASTER>  (332) 
        0    0    0    0    0    0    0    0   58    0   58    0

>  <minimizedAffinity>  (332) 
-7.46658

>  <CNNscore>  (332) 
0.6153785586

>  <CNNaffinity>  (332) 
4.4808354378

>  <CNN_VS>  (332) 
2.7574100494

>  <CNNaffinity_variance>  (332) 
0.2035106122

$$$$
333
     RDKit          3D

 43 45  0  0  0  0  0  0  0  0999 V2000
   21.5621   72.6760   -5.5096 P   0  0  2  0  0  0  0  0  0  0  0  0
   21.1168   74.1383   -6.0394 O   0  0  0  0  0  0  0  0  0  0  0  0
   22.9995   72.3231   -5.7565 O   0  0  0  0  0  0  0  0  0  0  0  0
   20.4709   71.6768   -6.1643 O   0  0  0  0  0  0  0  0  0  0  0  0
   19.9689   71.9760   -7.4551 C   0  0  0  0  0  0  0  0  0  0  0  0
   18.6526   70.0323   -6.9422 O   0  0  0  0  0  0  0  0  0  0  0  0
   18.0300   69.9110   -9.8728 O   0  0  0  0  0  0  0  0  0  0  0  0
   15.7769   71.0418   -8.8328 O   0  0  0  0  0  0  0  0  0  0  0  0
   18.2000   71.0517   -9.0330 C   0  0  1  0  0  0  0  0  0  0  0  0
   16.9923   71.2294   -8.1367 C   0  0  2  0  0  0  0  0  0  0  0  0
   19.2989   70.7340   -8.0267 C   0  0  1  0  0  0  0  0  0  0  0  0
   17.2283   70.1678   -7.0759 C   0  0  2  0  0  0  0  0  0  0  0  0
   17.3332   70.0902  -10.5242 H   0  0  0  0  0  0  0  0  0  0  0  0
   15.6727   71.7417   -9.4962 H   0  0  0  0  0  0  0  0  0  0  0  0
   16.7597   68.3553   -4.9609 O   0  0  0  0  0  0  0  0  0  0  0  0
   15.0930   71.6793   -2.2380 O   0  0  0  0  0  0  0  0  0  0  0  0
   16.6731   70.5325   -5.8030 N   0  0  0  0  0  0  0  0  0  0  0  0
   15.9303   70.0119   -3.6067 N   0  0  0  0  0  0  0  0  0  0  0  0
   16.4771   69.5456   -4.8090 C   0  0  0  0  0  0  0  0  0  0  0  0
   16.3295   71.8562   -5.5505 C   0  0  0  0  0  0  0  0  0  0  0  0
   15.8079   72.2844   -4.3991 C   0  0  0  0  0  0  0  0  0  0  0  0
   15.5713   71.3168   -3.3083 C   0  0  0  0  0  0  0  0  0  0  0  0
   15.7845   69.3421   -2.8998 H   0  0  0  0  0  0  0  0  0  0  0  0
   21.1357   72.7087   -3.9507 O   0  0  0  0  0  0  0  0  0  0  0  0
   19.6853   72.8421   -3.2496 P   0  0  2  0  0  0  0  0  0  0  0  0
   19.0743   71.3492   -3.3740 O   0  0  0  0  0  0  0  0  0  0  0  0
   18.8159   73.9176   -3.8338 O   0  0  0  0  0  0  0  0  0  0  0  0
   20.0063   73.0215   -1.6780 O   0  0  0  0  0  0  0  0  0  0  0  0
   21.5954   74.0095   -0.2237 O   0  0  0  0  0  0  0  0  0  0  0  0
   21.8105   70.1094    1.1157 O   0  0  0  0  0  0  0  0  0  0  0  0
   20.5267   72.0983    2.7418 O   0  0  0  0  0  0  0  0  0  0  0  0
   21.5070   70.6505   -1.7118 O   0  0  0  0  0  0  0  0  0  0  0  0
   21.1659   71.2728    0.5899 C   0  0  1  0  0  0  0  0  0  0  0  0
   21.3249   72.4082    1.6029 C   0  0  1  0  0  0  0  0  0  0  0  0
   21.8161   71.6450   -0.7414 C   0  0  2  0  0  0  0  0  0  0  0  0
   20.8963   73.7527    0.9998 C   0  0  1  0  0  0  0  0  0  0  0  0
   21.3587   73.0211   -1.2282 C   0  0  1  0  0  0  0  0  0  0  0  0
   21.4020   69.8675    1.9607 H   0  0  0  0  0  0  0  0  0  0  0  0
   20.8072   71.2469    3.1127 H   0  0  0  0  0  0  0  0  0  0  0  0
   21.8018   69.7840   -1.3920 H   0  0  0  0  0  0  0  0  0  0  0  0
   22.3188   74.5863    2.7291 O   0  0  0  0  0  0  0  0  0  0  0  0
   21.1939   74.9209    1.9373 C   0  0  0  0  0  0  0  0  0  0  0  0
   22.5201   75.3208    3.3305 H   0  0  0  0  0  0  0  0  0  0  0  0
 25 28  1  0
 25 24  1  0
 25 26  1  1
 25 27  2  0
  1  4  1  0
  1 24  1  0
  1  2  1  6
  1  3  2  0
  6 11  1  0
  6 12  1  0
 29 36  1  0
 29 37  1  0
  9  7  1  6
  7 13  1  0
 10  8  1  6
  8 14  1  0
 37 28  1  1
  4  5  1  0
 33 30  1  1
 30 38  1  0
 34 31  1  1
 31 39  1  0
 35 32  1  6
 32 40  1  0
 41 42  1  0
 41 43  1  0
 15 19  2  0
 16 22  2  0
 12 17  1  1
 17 19  1  0
 17 20  1  0
 18 19  1  0
 18 22  1  0
 18 23  1  0
  9 10  1  0
  9 11  1  0
 10 12  1  0
 11  5  1  1
 33 34  1  0
 33 35  1  0
 34 36  1  0
 35 37  1  0
 36 42  1  1
 20 21  2  0
 21 22  1  0
M  CHG  2   2  -1  26  -1
M  END
>  <COMPND>  (333) 
    8629 

>  <AUTHOR>  (333) 
    GENERATED BY OPEN BABEL 3.1.1

>  <MASTER>  (333) 
        0    0    0    0    0    0    0    0   58    0   58    0

>  <minimizedAffinity>  (333) 
-7.31651

>  <CNNscore>  (333) 
0.6012727618

>  <CNNaffinity>  (333) 
4.3634285927

>  <CNN_VS>  (333) 
2.6236107349

>  <CNNaffinity_variance>  (333) 
0.2203056812

$$$$
334
     RDKit          3D

 43 45  0  0  0  0  0  0  0  0999 V2000
   19.4369   71.7697   -1.7487 P   0  0  2  0  0  0  0  0  0  0  0  0
   19.0100   70.2101   -1.6974 O   0  0  0  0  0  0  0  0  0  0  0  0
   18.6301   72.6770   -0.8670 O   0  0  0  0  0  0  0  0  0  0  0  0
   19.4189   72.1256   -3.3270 O   0  0  0  0  0  0  0  0  0  0  0  0
   20.3888   73.0293   -3.8274 C   0  0  0  0  0  0  0  0  0  0  0  0
   20.7279   71.1767   -5.3196 O   0  0  0  0  0  0  0  0  0  0  0  0
   23.3185   72.4911   -6.0626 O   0  0  0  0  0  0  0  0  0  0  0  0
   21.6908   73.1669   -8.1435 O   0  0  0  0  0  0  0  0  0  0  0  0
   22.0631   73.0883   -5.7422 C   0  0  1  0  0  0  0  0  0  0  0  0
   21.0901   72.9146   -6.8896 C   0  0  2  0  0  0  0  0  0  0  0  0
   21.4132   72.2545   -4.6450 C   0  0  1  0  0  0  0  0  0  0  0  0
   20.6654   71.4651   -6.7259 C   0  0  2  0  0  0  0  0  0  0  0  0
   23.7526   73.0065   -6.7610 H   0  0  0  0  0  0  0  0  0  0  0  0
   21.9432   74.1017   -8.1991 H   0  0  0  0  0  0  0  0  0  0  0  0
   19.9684   69.5499   -8.6814 O   0  0  0  0  0  0  0  0  0  0  0  0
   15.5006   70.6536   -8.4334 O   0  0  0  0  0  0  0  0  0  0  0  0
   19.3274   71.2306   -7.1909 N   0  0  0  0  0  0  0  0  0  0  0  0
   17.7443   70.1009   -8.5562 N   0  0  0  0  0  0  0  0  0  0  0  0
   19.0849   70.2459   -8.1768 C   0  0  0  0  0  0  0  0  0  0  0  0
   18.2727   71.9724   -6.6702 C   0  0  0  0  0  0  0  0  0  0  0  0
   17.0001   71.8229   -7.0435 C   0  0  0  0  0  0  0  0  0  0  0  0
   16.6611   70.8151   -8.0689 C   0  0  0  0  0  0  0  0  0  0  0  0
   17.5514   69.4211   -9.2420 H   0  0  0  0  0  0  0  0  0  0  0  0
   21.0156   71.7260   -1.4041 O   0  0  0  0  0  0  0  0  0  0  0  0
   21.7917   71.4241   -0.0187 P   0  0  2  0  0  0  0  0  0  0  0  0
   23.3450   71.3692   -0.4680 O   0  0  0  0  0  0  0  0  0  0  0  0
   21.3115   70.1971    0.7009 O   0  0  0  0  0  0  0  0  0  0  0  0
   21.6607   72.7911    0.8293 O   0  0  0  0  0  0  0  0  0  0  0  0
   22.6980   74.7115    1.7526 O   0  0  0  0  0  0  0  0  0  0  0  0
   22.4570   72.3898    5.1588 O   0  0  0  0  0  0  0  0  0  0  0  0
   20.7230   74.6602    4.8647 O   0  0  0  0  0  0  0  0  0  0  0  0
   23.0846   71.1600    2.6146 O   0  0  0  0  0  0  0  0  0  0  0  0
   22.0204   72.8998    3.8960 C   0  0  1  0  0  0  0  0  0  0  0  0
   21.8472   74.4145    4.0244 C   0  0  1  0  0  0  0  0  0  0  0  0
   23.0668   72.5664    2.8343 C   0  0  2  0  0  0  0  0  0  0  0  0
   21.6404   75.0668    2.6508 C   0  0  1  0  0  0  0  0  0  0  0  0
   22.7953   73.3046    1.5222 C   0  0  1  0  0  0  0  0  0  0  0  0
   21.7968   72.5978    5.8373 H   0  0  0  0  0  0  0  0  0  0  0  0
   20.8661   74.2426    5.7286 H   0  0  0  0  0  0  0  0  0  0  0  0
   23.2577   70.7042    3.4525 H   0  0  0  0  0  0  0  0  0  0  0  0
   22.2671   76.9799    3.9379 O   0  0  0  0  0  0  0  0  0  0  0  0
   21.6230   76.5914    2.7385 C   0  0  0  0  0  0  0  0  0  0  0  0
   22.2638   77.9478    4.0070 H   0  0  0  0  0  0  0  0  0  0  0  0
 25 28  1  0
 25 24  1  0
 25 26  1  6
 25 27  2  0
  1  4  1  0
  1 24  1  0
  1  2  1  6
  1  3  2  0
  6 11  1  0
  6 12  1  0
 29 36  1  0
 29 37  1  0
  9  7  1  6
  7 13  1  0
 10  8  1  6
  8 14  1  0
 37 28  1  1
  4  5  1  0
 33 30  1  1
 30 38  1  0
 34 31  1  1
 31 39  1  0
 35 32  1  6
 32 40  1  0
 41 42  1  0
 41 43  1  0
 15 19  2  0
 16 22  2  0
 12 17  1  1
 17 19  1  0
 17 20  1  0
 18 19  1  0
 18 22  1  0
 18 23  1  0
  9 10  1  0
  9 11  1  0
 10 12  1  0
 11  5  1  6
 33 34  1  0
 33 35  1  0
 34 36  1  0
 35 37  1  0
 36 42  1  1
 20 21  2  0
 21 22  1  0
M  CHG  2   2  -1  26  -1
M  END
>  <COMPND>  (334) 
    8629 

>  <AUTHOR>  (334) 
    GENERATED BY OPEN BABEL 3.1.1

>  <MASTER>  (334) 
        0    0    0    0    0    0    0    0   58    0   58    0

>  <minimizedAffinity>  (334) 
-6.97667

>  <CNNscore>  (334) 
0.5824776888

>  <CNNaffinity>  (334) 
4.2939786911

>  <CNN_VS>  (334) 
2.5011467934

>  <CNNaffinity_variance>  (334) 
0.0666746646

$$$$
335
     RDKit          3D

 43 45  0  0  0  0  0  0  0  0999 V2000
   23.3354   74.6141   -3.3906 P   0  0  2  0  0  0  0  0  0  0  0  0
   24.6991   74.1004   -4.0933 O   0  0  0  0  0  0  0  0  0  0  0  0
   23.1153   76.0974   -3.4429 O   0  0  0  0  0  0  0  0  0  0  0  0
   23.3926   73.9640   -1.9101 O   0  0  0  0  0  0  0  0  0  0  0  0
   22.1720   73.6803   -1.2486 C   0  0  0  0  0  0  0  0  0  0  0  0
   23.4710   71.8997   -0.2915 O   0  0  0  0  0  0  0  0  0  0  0  0
   20.8571   70.5297    0.2392 O   0  0  0  0  0  0  0  0  0  0  0  0
   21.4885   71.5711    2.6792 O   0  0  0  0  0  0  0  0  0  0  0  0
   21.1746   71.9195    0.2935 C   0  0  1  0  0  0  0  0  0  0  0  0
   21.9918   72.2242    1.5316 C   0  0  2  0  0  0  0  0  0  0  0  0
   22.1665   72.2182   -0.8238 C   0  0  1  0  0  0  0  0  0  0  0  0
   23.3692   71.7237    1.1310 C   0  0  2  0  0  0  0  0  0  0  0  0
   20.2246   70.3150    0.9433 H   0  0  0  0  0  0  0  0  0  0  0  0
   20.6109   71.9242    2.8935 H   0  0  0  0  0  0  0  0  0  0  0  0
   25.6249   70.5398    2.3511 O   0  0  0  0  0  0  0  0  0  0  0  0
   27.3579   74.6395    3.5472 O   0  0  0  0  0  0  0  0  0  0  0  0
   24.4255   72.4580    1.7685 N   0  0  0  0  0  0  0  0  0  0  0  0
   26.4861   72.5821    2.9455 N   0  0  0  0  0  0  0  0  0  0  0  0
   25.5134   71.7675    2.3519 C   0  0  0  0  0  0  0  0  0  0  0  0
   24.3765   73.8471    1.8104 C   0  0  0  0  0  0  0  0  0  0  0  0
   25.3115   74.6092    2.3814 C   0  0  0  0  0  0  0  0  0  0  0  0
   26.4814   73.9663    3.0138 C   0  0  0  0  0  0  0  0  0  0  0  0
   27.2531   72.1230    3.3586 H   0  0  0  0  0  0  0  0  0  0  0  0
   22.1943   73.7383   -4.1281 O   0  0  0  0  0  0  0  0  0  0  0  0
   22.3042   72.4305   -5.0719 P   0  0  2  0  0  0  0  0  0  0  0  0
   22.8829   71.2985   -4.0714 O   0  0  0  0  0  0  0  0  0  0  0  0
   23.1216   72.6353   -6.3144 O   0  0  0  0  0  0  0  0  0  0  0  0
   20.7746   71.9922   -5.3423 O   0  0  0  0  0  0  0  0  0  0  0  0
   20.0011   72.0269   -7.5821 O   0  0  0  0  0  0  0  0  0  0  0  0
   16.3634   72.0025   -5.6282 O   0  0  0  0  0  0  0  0  0  0  0  0
   17.2547   69.6391   -6.9950 O   0  0  0  0  0  0  0  0  0  0  0  0
   18.5694   73.5383   -4.5536 O   0  0  0  0  0  0  0  0  0  0  0  0
   17.7399   71.6670   -5.8233 C   0  0  1  0  0  0  0  0  0  0  0  0
   17.8672   70.9162   -7.1502 C   0  0  1  0  0  0  0  0  0  0  0  0
   18.5676   72.9507   -5.8503 C   0  0  2  0  0  0  0  0  0  0  0  0
   19.3381   70.7574   -7.5580 C   0  0  1  0  0  0  0  0  0  0  0  0
   20.0010   72.6888   -6.3157 C   0  0  1  0  0  0  0  0  0  0  0  0
   15.8325   71.1918   -5.6096 H   0  0  0  0  0  0  0  0  0  0  0  0
   16.3265   69.7535   -6.7370 H   0  0  0  0  0  0  0  0  0  0  0  0
   17.6563   73.6994   -4.2705 H   0  0  0  0  0  0  0  0  0  0  0  0
   19.0162   71.0932   -9.9016 O   0  0  0  0  0  0  0  0  0  0  0  0
   19.4828   70.1521   -8.9526 C   0  0  0  0  0  0  0  0  0  0  0  0
   19.1026   70.7217  -10.7939 H   0  0  0  0  0  0  0  0  0  0  0  0
 25 28  1  0
 25 24  1  0
 25 26  1  1
 25 27  2  0
  1  4  1  0
  1 24  1  0
  1  2  1  6
  1  3  2  0
  6 11  1  0
  6 12  1  0
 29 36  1  0
 29 37  1  0
  9  7  1  1
  7 13  1  0
 10  8  1  1
  8 14  1  0
 37 28  1  1
  4  5  1  0
 33 30  1  6
 30 38  1  0
 34 31  1  1
 31 39  1  0
 35 32  1  1
 32 40  1  0
 41 42  1  0
 41 43  1  0
 15 19  2  0
 16 22  2  0
 12 17  1  1
 17 19  1  0
 17 20  1  0
 18 19  1  0
 18 22  1  0
 18 23  1  0
  9 10  1  0
  9 11  1  0
 10 12  1  0
 11  5  1  1
 33 34  1  0
 33 35  1  0
 34 36  1  0
 35 37  1  0
 36 42  1  6
 20 21  2  0
 21 22  1  0
M  CHG  2   2  -1  26  -1
M  END
>  <COMPND>  (335) 
    8629 

>  <AUTHOR>  (335) 
    GENERATED BY OPEN BABEL 3.1.1

>  <MASTER>  (335) 
        0    0    0    0    0    0    0    0   58    0   58    0

>  <minimizedAffinity>  (335) 
-6.62962

>  <CNNscore>  (335) 
0.5731239915

>  <CNNaffinity>  (335) 
4.2542638779

>  <CNN_VS>  (335) 
2.4382207394

>  <CNNaffinity_variance>  (335) 
0.0870333761

$$$$
336
     RDKit          3D

 43 45  0  0  0  0  0  0  0  0999 V2000
   23.1321   71.6956   -2.4643 P   0  0  2  0  0  0  0  0  0  0  0  0
   23.2860   73.2518   -2.0497 O   0  0  0  0  0  0  0  0  0  0  0  0
   24.3122   71.1118   -3.1841 O   0  0  0  0  0  0  0  0  0  0  0  0
   21.7259   71.6437   -3.2630 O   0  0  0  0  0  0  0  0  0  0  0  0
   21.4530   72.6544   -4.2179 C   0  0  0  0  0  0  0  0  0  0  0  0
   20.6023   70.8103   -5.5021 O   0  0  0  0  0  0  0  0  0  0  0  0
   21.1106   72.5046   -7.9231 O   0  0  0  0  0  0  0  0  0  0  0  0
   18.4229   72.7835   -7.5562 O   0  0  0  0  0  0  0  0  0  0  0  0
   20.6661   72.8960   -6.6253 C   0  0  1  0  0  0  0  0  0  0  0  0
   19.2185   72.4993   -6.4235 C   0  0  2  0  0  0  0  0  0  0  0  0
   21.3808   72.0229   -5.6014 C   0  0  1  0  0  0  0  0  0  0  0  0
   19.3352   71.0094   -6.1500 C   0  0  2  0  0  0  0  0  0  0  0  0
   20.6681   73.0487   -8.5940 H   0  0  0  0  0  0  0  0  0  0  0  0
   18.3792   73.7434   -7.6883 H   0  0  0  0  0  0  0  0  0  0  0  0
   16.8223   70.0895   -7.0538 O   0  0  0  0  0  0  0  0  0  0  0  0
   15.4061   69.1825   -2.7627 O   0  0  0  0  0  0  0  0  0  0  0  0
   18.2911   70.5268   -5.2907 N   0  0  0  0  0  0  0  0  0  0  0  0
   16.1193   69.6385   -4.9164 N   0  0  0  0  0  0  0  0  0  0  0  0
   17.0660   70.0887   -5.8454 C   0  0  0  0  0  0  0  0  0  0  0  0
   18.4874   70.4911   -3.9145 C   0  0  0  0  0  0  0  0  0  0  0  0
   17.5739   70.0601   -3.0421 C   0  0  0  0  0  0  0  0  0  0  0  0
   16.2667   69.5849   -3.5395 C   0  0  0  0  0  0  0  0  0  0  0  0
   15.2580   69.3287   -5.2798 H   0  0  0  0  0  0  0  0  0  0  0  0
   22.7787   70.9784   -1.0595 O   0  0  0  0  0  0  0  0  0  0  0  0
   21.4448   71.0289   -0.1478 P   0  0  2  0  0  0  0  0  0  0  0  0
   21.7517   69.9508    1.0188 O   0  0  0  0  0  0  0  0  0  0  0  0
   20.1726   70.7775   -0.9043 O   0  0  0  0  0  0  0  0  0  0  0  0
   21.5104   72.4612    0.5933 O   0  0  0  0  0  0  0  0  0  0  0  0
   21.0465   72.3149    2.9127 O   0  0  0  0  0  0  0  0  0  0  0  0
   20.9092   76.4181    2.4699 O   0  0  0  0  0  0  0  0  0  0  0  0
   23.1349   75.2120    3.8262 O   0  0  0  0  0  0  0  0  0  0  0  0
   19.8370   74.7053    0.3971 O   0  0  0  0  0  0  0  0  0  0  0  0
   21.3804   75.0940    2.2049 C   0  0  1  0  0  0  0  0  0  0  0  0
   21.9351   74.5128    3.5069 C   0  0  1  0  0  0  0  0  0  0  0  0
   20.2200   74.2452    1.6886 C   0  0  2  0  0  0  0  0  0  0  0  0
   22.2130   73.0099    3.3687 C   0  0  1  0  0  0  0  0  0  0  0  0
   20.5858   72.7608    1.6357 C   0  0  1  0  0  0  0  0  0  0  0  0
   21.6412   76.9623    2.7976 H   0  0  0  0  0  0  0  0  0  0  0  0
   22.9456   76.1598    3.9102 H   0  0  0  0  0  0  0  0  0  0  0  0
   19.6076   75.6461    0.4440 H   0  0  0  0  0  0  0  0  0  0  0  0
   21.9677   73.0780    5.7444 O   0  0  0  0  0  0  0  0  0  0  0  0
   22.6171   72.3783    4.6990 C   0  0  0  0  0  0  0  0  0  0  0  0
   22.2154   72.6868    6.5972 H   0  0  0  0  0  0  0  0  0  0  0  0
 25 28  1  0
 25 24  1  0
 25 26  1  1
 25 27  2  0
  1  4  1  0
  1 24  1  0
  1  2  1  1
  1  3  2  0
  6 11  1  0
  6 12  1  0
 29 36  1  0
 29 37  1  0
  9  7  1  6
  7 13  1  0
 10  8  1  6
  8 14  1  0
 37 28  1  6
  4  5  1  0
 33 30  1  1
 30 38  1  0
 34 31  1  6
 31 39  1  0
 35 32  1  6
 32 40  1  0
 41 42  1  0
 41 43  1  0
 15 19  2  0
 16 22  2  0
 12 17  1  1
 17 19  1  0
 17 20  1  0
 18 19  1  0
 18 22  1  0
 18 23  1  0
  9 10  1  0
  9 11  1  0
 10 12  1  0
 11  5  1  1
 33 34  1  0
 33 35  1  0
 34 36  1  0
 35 37  1  0
 36 42  1  1
 20 21  2  0
 21 22  1  0
M  CHG  2   2  -1  26  -1
M  END
>  <COMPND>  (336) 
    8629 

>  <AUTHOR>  (336) 
    GENERATED BY OPEN BABEL 3.1.1

>  <MASTER>  (336) 
        0    0    0    0    0    0    0    0   58    0   58    0

>  <minimizedAffinity>  (336) 
-7.38911

>  <CNNscore>  (336) 
0.5687492490

>  <CNNaffinity>  (336) 
4.1230382919

>  <CNN_VS>  (336) 
2.3449749947

>  <CNNaffinity_variance>  (336) 
0.3287357986

$$$$
337
     RDKit          3D

 43 45  0  0  0  0  0  0  0  0999 V2000
   23.0309   73.3672   -4.4313 P   0  0  2  0  0  0  0  0  0  0  0  0
   24.0191   72.1309   -4.0957 O   0  0  0  0  0  0  0  0  0  0  0  0
   23.7147   74.6108   -4.9185 O   0  0  0  0  0  0  0  0  0  0  0  0
   22.1455   73.5327   -3.0872 O   0  0  0  0  0  0  0  0  0  0  0  0
   22.7750   73.3312   -1.8339 C   0  0  0  0  0  0  0  0  0  0  0  0
   23.5381   71.4325   -0.5743 O   0  0  0  0  0  0  0  0  0  0  0  0
   20.6489   70.6677   -0.3325 O   0  0  0  0  0  0  0  0  0  0  0  0
   21.1688   71.8004    2.0930 O   0  0  0  0  0  0  0  0  0  0  0  0
   21.2418   71.9653   -0.3316 C   0  0  1  0  0  0  0  0  0  0  0  0
   21.9402   72.2234    0.9871 C   0  0  2  0  0  0  0  0  0  0  0  0
   22.4084   71.9488   -1.3115 C   0  0  1  0  0  0  0  0  0  0  0  0
   23.2212   71.4224    0.8273 C   0  0  2  0  0  0  0  0  0  0  0  0
   19.9010   70.6537    0.2858 H   0  0  0  0  0  0  0  0  0  0  0  0
   20.3650   72.3400    2.1520 H   0  0  0  0  0  0  0  0  0  0  0  0
   25.0502   69.9322    2.3804 O   0  0  0  0  0  0  0  0  0  0  0  0
   27.3900   73.7153    3.5865 O   0  0  0  0  0  0  0  0  0  0  0  0
   24.3182   71.9923    1.5575 N   0  0  0  0  0  0  0  0  0  0  0  0
   26.2139   71.8171    2.9795 N   0  0  0  0  0  0  0  0  0  0  0  0
   25.1778   71.1561    2.3074 C   0  0  0  0  0  0  0  0  0  0  0  0
   24.5331   73.3659    1.5252 C   0  0  0  0  0  0  0  0  0  0  0  0
   25.5249   73.9808    2.1728 C   0  0  0  0  0  0  0  0  0  0  0  0
   26.4680   73.1795    2.9794 C   0  0  0  0  0  0  0  0  0  0  0  0
   26.8251   71.2548    3.5087 H   0  0  0  0  0  0  0  0  0  0  0  0
   21.9834   72.7210   -5.4792 O   0  0  0  0  0  0  0  0  0  0  0  0
   21.2367   73.3584   -6.7633 P   0  0  2  0  0  0  0  0  0  0  0  0
   22.1873   72.9248   -7.9985 O   0  0  0  0  0  0  0  0  0  0  0  0
   20.9897   74.8358   -6.6610 O   0  0  0  0  0  0  0  0  0  0  0  0
   19.9025   72.4682   -6.9437 O   0  0  0  0  0  0  0  0  0  0  0  0
   19.2464   70.3135   -6.2064 O   0  0  0  0  0  0  0  0  0  0  0  0
   17.8429   70.1392  -10.0860 O   0  0  0  0  0  0  0  0  0  0  0  0
   15.9803   70.3869   -7.9141 O   0  0  0  0  0  0  0  0  0  0  0  0
   20.3603   71.4509   -9.5187 O   0  0  0  0  0  0  0  0  0  0  0  0
   18.1526   70.7683   -8.8395 C   0  0  1  0  0  0  0  0  0  0  0  0
   17.3572   70.0659   -7.7372 C   0  0  1  0  0  0  0  0  0  0  0  0
   19.6530   70.6487   -8.5792 C   0  0  2  0  0  0  0  0  0  0  0  0
   17.8335   70.5037   -6.3456 C   0  0  1  0  0  0  0  0  0  0  0  0
   20.0133   71.0625   -7.1512 C   0  0  1  0  0  0  0  0  0  0  0  0
   16.8917   70.2121  -10.2575 H   0  0  0  0  0  0  0  0  0  0  0  0
   15.6922   70.1057   -8.7968 H   0  0  0  0  0  0  0  0  0  0  0  0
   20.1238   71.1790  -10.4187 H   0  0  0  0  0  0  0  0  0  0  0  0
   15.9975   70.3896   -4.8208 O   0  0  0  0  0  0  0  0  0  0  0  0
   17.1635   69.7005   -5.2329 C   0  0  0  0  0  0  0  0  0  0  0  0
   15.5604   69.8898   -4.1131 H   0  0  0  0  0  0  0  0  0  0  0  0
 25 28  1  0
 25 24  1  0
 25 26  1  6
 25 27  2  0
  1  4  1  0
  1 24  1  0
  1  2  1  1
  1  3  2  0
  6 11  1  0
  6 12  1  0
 29 36  1  0
 29 37  1  0
  9  7  1  1
  7 13  1  0
 10  8  1  1
  8 14  1  0
 37 28  1  6
  4  5  1  0
 33 30  1  6
 30 38  1  0
 34 31  1  6
 31 39  1  0
 35 32  1  6
 32 40  1  0
 41 42  1  0
 41 43  1  0
 15 19  2  0
 16 22  2  0
 12 17  1  1
 17 19  1  0
 17 20  1  0
 18 19  1  0
 18 22  1  0
 18 23  1  0
  9 10  1  0
  9 11  1  0
 10 12  1  0
 11  5  1  1
 33 34  1  0
 33 35  1  0
 34 36  1  0
 35 37  1  0
 36 42  1  1
 20 21  2  0
 21 22  1  0
M  CHG  2   2  -1  26  -1
M  END
>  <COMPND>  (337) 
    8629 

>  <AUTHOR>  (337) 
    GENERATED BY OPEN BABEL 3.1.1

>  <MASTER>  (337) 
        0    0    0    0    0    0    0    0   58    0   58    0

>  <minimizedAffinity>  (337) 
-8.01203

>  <CNNscore>  (337) 
0.5607088208

>  <CNNaffinity>  (337) 
4.3603672981

>  <CNN_VS>  (337) 
2.4448964596

>  <CNNaffinity_variance>  (337) 
0.0752203092

$$$$
338
     RDKit          3D

 43 45  0  0  0  0  0  0  0  0999 V2000
   22.4578   73.7812   -4.2846 P   0  0  2  0  0  0  0  0  0  0  0  0
   23.3399   72.5281   -4.8032 O   0  0  0  0  0  0  0  0  0  0  0  0
   22.7943   75.0987   -4.9189 O   0  0  0  0  0  0  0  0  0  0  0  0
   22.6037   73.7190   -2.6744 O   0  0  0  0  0  0  0  0  0  0  0  0
   22.0902   74.7938   -1.9070 C   0  0  0  0  0  0  0  0  0  0  0  0
   21.2050   73.0021   -0.5728 O   0  0  0  0  0  0  0  0  0  0  0  0
   19.1885   74.9871    0.4193 O   0  0  0  0  0  0  0  0  0  0  0  0
   20.9887   74.8952    2.4656 O   0  0  0  0  0  0  0  0  0  0  0  0
   20.5624   75.1847    0.0896 C   0  0  1  0  0  0  0  0  0  0  0  0
   21.4513   74.5950    1.1646 C   0  0  2  0  0  0  0  0  0  0  0  0
   20.8882   74.3046   -1.1107 C   0  0  1  0  0  0  0  0  0  0  0  0
   21.3853   73.1104    0.8487 C   0  0  2  0  0  0  0  0  0  0  0  0
   18.9568   75.5392    1.1831 H   0  0  0  0  0  0  0  0  0  0  0  0
   21.0507   75.8510    2.6185 H   0  0  0  0  0  0  0  0  0  0  0  0
   21.6022   70.3036    1.0778 O   0  0  0  0  0  0  0  0  0  0  0  0
   26.0429   70.5618    2.2840 O   0  0  0  0  0  0  0  0  0  0  0  0
   22.5864   72.4174    1.2206 N   0  0  0  0  0  0  0  0  0  0  0  0
   23.8132   70.4344    1.6780 N   0  0  0  0  0  0  0  0  0  0  0  0
   22.5891   71.0057    1.3076 C   0  0  0  0  0  0  0  0  0  0  0  0
   23.7449   73.1364    1.4941 C   0  0  0  0  0  0  0  0  0  0  0  0
   24.9039   72.5766    1.8473 C   0  0  0  0  0  0  0  0  0  0  0  0
   24.9917   71.1065    1.9613 C   0  0  0  0  0  0  0  0  0  0  0  0
   23.8388   69.4523    1.7455 H   0  0  0  0  0  0  0  0  0  0  0  0
   20.9397   73.2839   -4.5313 O   0  0  0  0  0  0  0  0  0  0  0  0
   20.1966   71.9046   -4.1336 P   0  0  2  0  0  0  0  0  0  0  0  0
   19.0651   72.3830   -3.0807 O   0  0  0  0  0  0  0  0  0  0  0  0
   21.1161   70.8383   -3.6126 O   0  0  0  0  0  0  0  0  0  0  0  0
   19.3719   71.4885   -5.4571 O   0  0  0  0  0  0  0  0  0  0  0  0
   19.5736   71.5853   -7.8164 O   0  0  0  0  0  0  0  0  0  0  0  0
   15.8859   73.3947   -7.3947 O   0  0  0  0  0  0  0  0  0  0  0  0
   16.0456   70.7328   -8.4609 O   0  0  0  0  0  0  0  0  0  0  0  0
   17.9839   73.9274   -5.4727 O   0  0  0  0  0  0  0  0  0  0  0  0
   16.9276   72.4693   -7.0726 C   0  0  1  0  0  0  0  0  0  0  0  0
   17.1768   71.5832   -8.2947 C   0  0  1  0  0  0  0  0  0  0  0  0
   18.1903   73.2469   -6.7059 C   0  0  2  0  0  0  0  0  0  0  0  0
   18.4526   70.7478   -8.1224 C   0  0  1  0  0  0  0  0  0  0  0  0
   19.4102   72.3292   -6.6073 C   0  0  1  0  0  0  0  0  0  0  0  0
   15.0812   72.9073   -7.6280 H   0  0  0  0  0  0  0  0  0  0  0  0
   15.2467   71.2726   -8.5681 H   0  0  0  0  0  0  0  0  0  0  0  0
   17.2091   74.5053   -5.5482 H   0  0  0  0  0  0  0  0  0  0  0  0
   19.9629   69.1996   -9.1377 O   0  0  0  0  0  0  0  0  0  0  0  0
   18.8061   69.9754   -9.3914 C   0  0  0  0  0  0  0  0  0  0  0  0
   20.1995   68.7022   -9.9367 H   0  0  0  0  0  0  0  0  0  0  0  0
 25 28  1  0
 25 24  1  0
 25 26  1  1
 25 27  2  0
  1  4  1  0
  1 24  1  0
  1  2  1  6
  1  3  2  0
  6 11  1  0
  6 12  1  0
 29 36  1  0
 29 37  1  0
  9  7  1  1
  7 13  1  0
 10  8  1  1
  8 14  1  0
 37 28  1  1
  4  5  1  0
 33 30  1  6
 30 38  1  0
 34 31  1  1
 31 39  1  0
 35 32  1  1
 32 40  1  0
 41 42  1  0
 41 43  1  0
 15 19  2  0
 16 22  2  0
 12 17  1  6
 17 19  1  0
 17 20  1  0
 18 19  1  0
 18 22  1  0
 18 23  1  0
  9 10  1  0
  9 11  1  0
 10 12  1  0
 11  5  1  1
 33 34  1  0
 33 35  1  0
 34 36  1  0
 35 37  1  0
 36 42  1  6
 20 21  2  0
 21 22  1  0
M  CHG  2   2  -1  26  -1
M  END
>  <COMPND>  (338) 
    8629 

>  <AUTHOR>  (338) 
    GENERATED BY OPEN BABEL 3.1.1

>  <MASTER>  (338) 
        0    0    0    0    0    0    0    0   58    0   58    0

>  <minimizedAffinity>  (338) 
-6.40799

>  <CNNscore>  (338) 
0.5346463919

>  <CNNaffinity>  (338) 
4.2748265266

>  <CNN_VS>  (338) 
2.2855205536

>  <CNNaffinity_variance>  (338) 
0.0467994697

$$$$
339
     RDKit          3D

 43 45  0  0  0  0  0  0  0  0999 V2000
   23.3281   73.6078   -4.0422 P   0  0  2  0  0  0  0  0  0  0  0  0
   24.1981   72.2439   -4.0592 O   0  0  0  0  0  0  0  0  0  0  0  0
   24.0419   74.8214   -4.5608 O   0  0  0  0  0  0  0  0  0  0  0  0
   22.7900   73.7062   -2.5194 O   0  0  0  0  0  0  0  0  0  0  0  0
   21.8827   74.7432   -2.1887 C   0  0  0  0  0  0  0  0  0  0  0  0
   21.0593   72.8544   -0.9525 O   0  0  0  0  0  0  0  0  0  0  0  0
   18.8213   74.6445   -0.0704 O   0  0  0  0  0  0  0  0  0  0  0  0
   20.4774   74.6516    2.0961 O   0  0  0  0  0  0  0  0  0  0  0  0
   20.1935   74.9612   -0.2986 C   0  0  1  0  0  0  0  0  0  0  0  0
   21.0520   74.4208    0.8260 C   0  0  2  0  0  0  0  0  0  0  0  0
   20.6733   74.1390   -1.4883 C   0  0  1  0  0  0  0  0  0  0  0  0
   21.1313   72.9436    0.4799 C   0  0  2  0  0  0  0  0  0  0  0  0
   18.4925   75.1578    0.6847 H   0  0  0  0  0  0  0  0  0  0  0  0
   20.4491   75.6054    2.2699 H   0  0  0  0  0  0  0  0  0  0  0  0
   21.4671   70.1831    0.9746 O   0  0  0  0  0  0  0  0  0  0  0  0
   25.8793   70.7492    2.1801 O   0  0  0  0  0  0  0  0  0  0  0  0
   22.3573   72.3423    0.9235 N   0  0  0  0  0  0  0  0  0  0  0  0
   23.6638   70.4672    1.5743 N   0  0  0  0  0  0  0  0  0  0  0  0
   22.4202   70.9465    1.1435 C   0  0  0  0  0  0  0  0  0  0  0  0
   23.4806   73.1342    1.1354 C   0  0  0  0  0  0  0  0  0  0  0  0
   24.6589   72.6618    1.5475 C   0  0  0  0  0  0  0  0  0  0  0  0
   24.8090   71.2142    1.8005 C   0  0  0  0  0  0  0  0  0  0  0  0
   23.7312   69.4979    1.7344 H   0  0  0  0  0  0  0  0  0  0  0  0
   22.0007   73.2025   -4.8710 O   0  0  0  0  0  0  0  0  0  0  0  0
   21.6825   73.2504   -6.4551 P   0  0  2  0  0  0  0  0  0  0  0  0
   22.7879   72.2515   -7.0860 O   0  0  0  0  0  0  0  0  0  0  0  0
   21.6892   74.6319   -7.0427 O   0  0  0  0  0  0  0  0  0  0  0  0
   20.2829   72.4625   -6.6146 O   0  0  0  0  0  0  0  0  0  0  0  0
   19.7539   70.3152   -5.7626 O   0  0  0  0  0  0  0  0  0  0  0  0
   17.4153   70.2695   -9.1655 O   0  0  0  0  0  0  0  0  0  0  0  0
   16.1685   70.5315   -6.5916 O   0  0  0  0  0  0  0  0  0  0  0  0
   20.0411   71.4859   -9.2343 O   0  0  0  0  0  0  0  0  0  0  0  0
   18.0512   70.8614   -8.0295 C   0  0  1  0  0  0  0  0  0  0  0  0
   17.5329   70.1621   -6.7713 C   0  0  1  0  0  0  0  0  0  0  0  0
   19.5635   70.6874   -8.1570 C   0  0  2  0  0  0  0  0  0  0  0  0
   18.3594   70.5544   -5.5392 C   0  0  1  0  0  0  0  0  0  0  0  0
   20.2860   71.0587   -6.8608 C   0  0  1  0  0  0  0  0  0  0  0  0
   16.4548   70.3770   -9.0910 H   0  0  0  0  0  0  0  0  0  0  0  0
   15.6577   70.2788   -7.3768 H   0  0  0  0  0  0  0  0  0  0  0  0
   19.5762   71.2410  -10.0491 H   0  0  0  0  0  0  0  0  0  0  0  0
   17.0572   68.7352   -4.7002 O   0  0  0  0  0  0  0  0  0  0  0  0
   17.9612   69.7499   -4.3036 C   0  0  0  0  0  0  0  0  0  0  0  0
   16.7953   68.2149   -3.9240 H   0  0  0  0  0  0  0  0  0  0  0  0
 25 28  1  0
 25 24  1  0
 25 26  1  6
 25 27  2  0
  1  4  1  0
  1 24  1  0
  1  2  1  1
  1  3  2  0
  6 11  1  0
  6 12  1  0
 29 36  1  0
 29 37  1  0
  9  7  1  1
  7 13  1  0
 10  8  1  1
  8 14  1  0
 37 28  1  1
  4  5  1  0
 33 30  1  6
 30 38  1  0
 34 31  1  1
 31 39  1  0
 35 32  1  6
 32 40  1  0
 41 42  1  0
 41 43  1  0
 15 19  2  0
 16 22  2  0
 12 17  1  6
 17 19  1  0
 17 20  1  0
 18 19  1  0
 18 22  1  0
 18 23  1  0
  9 10  1  0
  9 11  1  0
 10 12  1  0
 11  5  1  1
 33 34  1  0
 33 35  1  0
 34 36  1  0
 35 37  1  0
 36 42  1  1
 20 21  2  0
 21 22  1  0
M  CHG  2   2  -1  26  -1
M  END
>  <COMPND>  (339) 
    8629 

>  <AUTHOR>  (339) 
    GENERATED BY OPEN BABEL 3.1.1

>  <MASTER>  (339) 
        0    0    0    0    0    0    0    0   58    0   58    0

>  <minimizedAffinity>  (339) 
-7.50228

>  <CNNscore>  (339) 
0.5021051168

>  <CNNaffinity>  (339) 
4.3443155289

>  <CNN_VS>  (339) 
2.1813030243

>  <CNNaffinity_variance>  (339) 
0.1402812600

$$$$
340
     RDKit          3D

 43 45  0  0  0  0  0  0  0  0999 V2000
   21.8591   72.3771   -5.8195 P   0  0  2  0  0  0  0  0  0  0  0  0
   21.1418   73.7116   -5.2519 O   0  0  0  0  0  0  0  0  0  0  0  0
   23.0085   72.6232   -6.7522 O   0  0  0  0  0  0  0  0  0  0  0  0
   20.6368   71.5068   -6.4251 O   0  0  0  0  0  0  0  0  0  0  0  0
   20.2164   71.7646   -7.7534 C   0  0  0  0  0  0  0  0  0  0  0  0
   18.8384   69.8988   -7.1260 O   0  0  0  0  0  0  0  0  0  0  0  0
   17.9464   69.8353   -9.9880 O   0  0  0  0  0  0  0  0  0  0  0  0
   15.8685   71.0903   -8.7456 O   0  0  0  0  0  0  0  0  0  0  0  0
   18.2596   70.9580   -9.1654 C   0  0  1  0  0  0  0  0  0  0  0  0
   17.1510   71.2007   -8.1626 C   0  0  2  0  0  0  0  0  0  0  0  0
   19.4244   70.5686   -8.2637 C   0  0  1  0  0  0  0  0  0  0  0  0
   17.4185   70.1195   -7.1293 C   0  0  2  0  0  0  0  0  0  0  0  0
   17.2053   70.0601  -10.5731 H   0  0  0  0  0  0  0  0  0  0  0  0
   15.7465   71.7999   -9.3955 H   0  0  0  0  0  0  0  0  0  0  0  0
   16.5589   68.3171   -5.1318 O   0  0  0  0  0  0  0  0  0  0  0  0
   15.8497   71.7215   -2.1072 O   0  0  0  0  0  0  0  0  0  0  0  0
   17.0038   70.5076   -5.8107 N   0  0  0  0  0  0  0  0  0  0  0  0
   16.2066   70.0137   -3.6273 N   0  0  0  0  0  0  0  0  0  0  0  0
   16.5892   69.5240   -4.8827 C   0  0  0  0  0  0  0  0  0  0  0  0
   17.0112   71.8503   -5.4490 C   0  0  0  0  0  0  0  0  0  0  0  0
   16.6421   72.3010   -4.2482 C   0  0  0  0  0  0  0  0  0  0  0  0
   16.1954   71.3385   -3.2206 C   0  0  0  0  0  0  0  0  0  0  0  0
   15.9136   69.3467   -2.9647 H   0  0  0  0  0  0  0  0  0  0  0  0
   22.2462   71.5717   -4.4726 O   0  0  0  0  0  0  0  0  0  0  0  0
   23.3068   71.9108   -3.3007 P   0  0  2  0  0  0  0  0  0  0  0  0
   23.9962   73.2830   -3.8099 O   0  0  0  0  0  0  0  0  0  0  0  0
   24.2760   70.8022   -3.0082 O   0  0  0  0  0  0  0  0  0  0  0  0
   22.3977   72.3537   -2.0427 O   0  0  0  0  0  0  0  0  0  0  0  0
   21.7991   71.2003   -0.0608 O   0  0  0  0  0  0  0  0  0  0  0  0
   18.2293   73.1399   -0.7993 O   0  0  0  0  0  0  0  0  0  0  0  0
   19.8965   74.0153    1.3691 O   0  0  0  0  0  0  0  0  0  0  0  0
   19.7754   72.0729   -3.0017 O   0  0  0  0  0  0  0  0  0  0  0  0
   19.6516   72.9916   -0.7787 C   0  0  1  0  0  0  0  0  0  0  0  0
   20.0915   72.7878    0.6724 C   0  0  1  0  0  0  0  0  0  0  0  0
   20.0403   71.7862   -1.6327 C   0  0  2  0  0  0  0  0  0  0  0  0
   21.5624   72.3571    0.7501 C   0  0  1  0  0  0  0  0  0  0  0  0
   21.5114   71.4114   -1.4445 C   0  0  1  0  0  0  0  0  0  0  0  0
   17.9759   73.9039   -0.2593 H   0  0  0  0  0  0  0  0  0  0  0  0
   18.9638   74.2763    1.3120 H   0  0  0  0  0  0  0  0  0  0  0  0
   18.8410   72.3083   -3.1077 H   0  0  0  0  0  0  0  0  0  0  0  0
   20.8281   72.0259    2.9996 O   0  0  0  0  0  0  0  0  0  0  0  0
   21.9782   71.9960    2.1745 C   0  0  0  0  0  0  0  0  0  0  0  0
   21.0775   71.7978    3.9092 H   0  0  0  0  0  0  0  0  0  0  0  0
 25 28  1  0
 25 24  1  0
 25 26  1  6
 25 27  2  0
  1  4  1  0
  1 24  1  0
  1  2  1  1
  1  3  2  0
  6 11  1  0
  6 12  1  0
 29 36  1  0
 29 37  1  0
  9  7  1  6
  7 13  1  0
 10  8  1  6
  8 14  1  0
 37 28  1  1
  4  5  1  0
 33 30  1  1
 30 38  1  0
 34 31  1  1
 31 39  1  0
 35 32  1  6
 32 40  1  0
 41 42  1  0
 41 43  1  0
 15 19  2  0
 16 22  2  0
 12 17  1  1
 17 19  1  0
 17 20  1  0
 18 19  1  0
 18 22  1  0
 18 23  1  0
  9 10  1  0
  9 11  1  0
 10 12  1  0
 11  5  1  1
 33 34  1  0
 33 35  1  0
 34 36  1  0
 35 37  1  0
 36 42  1  1
 20 21  2  0
 21 22  1  0
M  CHG  2   2  -1  26  -1
M  END
>  <COMPND>  (340) 
    8629 

>  <AUTHOR>  (340) 
    GENERATED BY OPEN BABEL 3.1.1

>  <MASTER>  (340) 
        0    0    0    0    0    0    0    0   58    0   58    0

>  <minimizedAffinity>  (340) 
-7.62420

>  <CNNscore>  (340) 
0.4928777218

>  <CNNaffinity>  (340) 
4.1612014771

>  <CNN_VS>  (340) 
2.0509634018

>  <CNNaffinity_variance>  (340) 
0.5546655059

$$$$
341
     RDKit          3D

 43 45  0  0  0  0  0  0  0  0999 V2000
   20.5681   71.2381   -1.4902 P   0  0  2  0  0  0  0  0  0  0  0  0
   21.1909   70.5128   -0.1850 O   0  0  0  0  0  0  0  0  0  0  0  0
   20.0632   72.6322   -1.2602 O   0  0  0  0  0  0  0  0  0  0  0  0
   19.4771   70.1775   -2.0404 O   0  0  0  0  0  0  0  0  0  0  0  0
   19.1446   70.2025   -3.4176 C   0  0  0  0  0  0  0  0  0  0  0  0
   17.5360   71.3274   -4.8036 O   0  0  0  0  0  0  0  0  0  0  0  0
   15.4430   69.8193   -3.2753 O   0  0  0  0  0  0  0  0  0  0  0  0
   15.6317   68.3922   -5.5914 O   0  0  0  0  0  0  0  0  0  0  0  0
   16.7451   69.3978   -3.6782 C   0  0  1  0  0  0  0  0  0  0  0  0
   16.7692   69.1144   -5.1657 C   0  0  2  0  0  0  0  0  0  0  0  0
   17.6811   70.5949   -3.5672 C   0  0  1  0  0  0  0  0  0  0  0  0
   16.8260   70.5146   -5.7523 C   0  0  2  0  0  0  0  0  0  0  0  0
   14.8276   69.0714   -3.3374 H   0  0  0  0  0  0  0  0  0  0  0  0
   15.6411   67.5086   -5.1914 H   0  0  0  0  0  0  0  0  0  0  0  0
   15.5523   70.5879   -8.2723 O   0  0  0  0  0  0  0  0  0  0  0  0
   19.5806   70.6621  -10.5105 O   0  0  0  0  0  0  0  0  0  0  0  0
   17.5176   70.5539   -7.0099 N   0  0  0  0  0  0  0  0  0  0  0  0
   17.5591   70.6250   -9.3847 N   0  0  0  0  0  0  0  0  0  0  0  0
   16.7839   70.5878   -8.2186 C   0  0  0  0  0  0  0  0  0  0  0  0
   18.9080   70.5589   -7.0362 C   0  0  0  0  0  0  0  0  0  0  0  0
   19.6323   70.5933   -8.1567 C   0  0  0  0  0  0  0  0  0  0  0  0
   18.9428   70.6302   -9.4626 C   0  0  0  0  0  0  0  0  0  0  0  0
   17.0696   70.6486  -10.2388 H   0  0  0  0  0  0  0  0  0  0  0  0
   21.7627   71.1254   -2.5734 O   0  0  0  0  0  0  0  0  0  0  0  0
   23.1292   71.9729   -2.7386 P   0  0  2  0  0  0  0  0  0  0  0  0
   24.2345   70.8359   -3.0594 O   0  0  0  0  0  0  0  0  0  0  0  0
   23.4598   72.8432   -1.5608 O   0  0  0  0  0  0  0  0  0  0  0  0
   22.9494   72.7706   -4.1301 O   0  0  0  0  0  0  0  0  0  0  0  0
   20.6541   73.3026   -4.3859 O   0  0  0  0  0  0  0  0  0  0  0  0
   22.0609   74.6897   -8.0119 O   0  0  0  0  0  0  0  0  0  0  0  0
   21.2723   76.5658   -5.9854 O   0  0  0  0  0  0  0  0  0  0  0  0
   23.1389   72.2525   -6.8816 O   0  0  0  0  0  0  0  0  0  0  0  0
   22.1203   74.4180   -6.6090 C   0  0  1  0  0  0  0  0  0  0  0  0
   20.9783   75.1728   -5.9256 C   0  0  1  0  0  0  0  0  0  0  0  0
   21.9798   72.9134   -6.3856 C   0  0  2  0  0  0  0  0  0  0  0  0
   20.8120   74.7239   -4.4676 C   0  0  1  0  0  0  0  0  0  0  0  0
   21.7704   72.5790   -4.9076 C   0  0  1  0  0  0  0  0  0  0  0  0
   22.1500   75.6433   -8.1606 H   0  0  0  0  0  0  0  0  0  0  0  0
   21.3754   76.8362   -6.9114 H   0  0  0  0  0  0  0  0  0  0  0  0
   23.2603   72.4720   -7.8181 H   0  0  0  0  0  0  0  0  0  0  0  0
   18.7676   74.3076   -3.3031 O   0  0  0  0  0  0  0  0  0  0  0  0
   19.5808   75.3477   -3.8140 C   0  0  0  0  0  0  0  0  0  0  0  0
   17.9802   74.6898   -2.8839 H   0  0  0  0  0  0  0  0  0  0  0  0
 25 28  1  0
 25 24  1  0
 25 26  1  6
 25 27  2  0
  1  4  1  0
  1 24  1  0
  1  2  1  1
  1  3  2  0
  6 11  1  0
  6 12  1  0
 29 36  1  0
 29 37  1  0
  9  7  1  6
  7 13  1  0
 10  8  1  6
  8 14  1  0
 37 28  1  1
  4  5  1  0
 33 30  1  6
 30 38  1  0
 34 31  1  1
 31 39  1  0
 35 32  1  1
 32 40  1  0
 41 42  1  0
 41 43  1  0
 15 19  2  0
 16 22  2  0
 12 17  1  6
 17 19  1  0
 17 20  1  0
 18 19  1  0
 18 22  1  0
 18 23  1  0
  9 10  1  0
  9 11  1  0
 10 12  1  0
 11  5  1  6
 33 34  1  0
 33 35  1  0
 34 36  1  0
 35 37  1  0
 36 42  1  6
 20 21  2  0
 21 22  1  0
M  CHG  2   2  -1  26  -1
M  END
>  <COMPND>  (341) 
    8629 

>  <AUTHOR>  (341) 
    GENERATED BY OPEN BABEL 3.1.1

>  <MASTER>  (341) 
        0    0    0    0    0    0    0    0   58    0   58    0

>  <minimizedAffinity>  (341) 
-8.02471

>  <CNNscore>  (341) 
0.9290456176

>  <CNNaffinity>  (341) 
4.6843581200

>  <CNN_VS>  (341) 
4.3519825935

>  <CNNaffinity_variance>  (341) 
0.6183367372

$$$$
342
     RDKit          3D

 43 45  0  0  0  0  0  0  0  0999 V2000
   22.4390   71.6615   -2.9221 P   0  0  2  0  0  0  0  0  0  0  0  0
   23.8268   71.8275   -3.7368 O   0  0  0  0  0  0  0  0  0  0  0  0
   22.5131   70.7673   -1.7194 O   0  0  0  0  0  0  0  0  0  0  0  0
   21.3719   71.2251   -4.0573 O   0  0  0  0  0  0  0  0  0  0  0  0
   20.4938   70.1478   -3.7814 C   0  0  0  0  0  0  0  0  0  0  0  0
   18.7160   71.3965   -4.8082 O   0  0  0  0  0  0  0  0  0  0  0  0
   16.9169   70.1728   -2.7450 O   0  0  0  0  0  0  0  0  0  0  0  0
   16.4003   68.6618   -4.9556 O   0  0  0  0  0  0  0  0  0  0  0  0
   18.0355   69.6002   -3.4204 C   0  0  1  0  0  0  0  0  0  0  0  0
   17.6720   69.2694   -4.8528 C   0  0  2  0  0  0  0  0  0  0  0  0
   19.0830   70.6916   -3.6020 C   0  0  1  0  0  0  0  0  0  0  0  0
   17.7220   70.6362   -5.5143 C   0  0  2  0  0  0  0  0  0  0  0  0
   16.2346   69.4945   -2.6173 H   0  0  0  0  0  0  0  0  0  0  0  0
   16.4197   67.7953   -4.5200 H   0  0  0  0  0  0  0  0  0  0  0  0
   15.8951   70.2355   -7.6309 O   0  0  0  0  0  0  0  0  0  0  0  0
   19.2471   70.3626  -10.7915 O   0  0  0  0  0  0  0  0  0  0  0  0
   18.0899   70.5608   -6.9001 N   0  0  0  0  0  0  0  0  0  0  0  0
   17.5656   70.2993   -9.2029 N   0  0  0  0  0  0  0  0  0  0  0  0
   17.0954   70.3561   -7.8847 C   0  0  0  0  0  0  0  0  0  0  0  0
   19.4240   70.6898   -7.2708 C   0  0  0  0  0  0  0  0  0  0  0  0
   19.8562   70.6319   -8.5322 C   0  0  0  0  0  0  0  0  0  0  0  0
   18.8812   70.4205   -9.6216 C   0  0  0  0  0  0  0  0  0  0  0  0
   16.8908   70.1570   -9.9058 H   0  0  0  0  0  0  0  0  0  0  0  0
   22.0218   73.1896   -2.5996 O   0  0  0  0  0  0  0  0  0  0  0  0
   21.2940   74.3067   -3.5135 P   0  0  2  0  0  0  0  0  0  0  0  0
   21.7798   75.7011   -2.8522 O   0  0  0  0  0  0  0  0  0  0  0  0
   19.8037   74.1509   -3.6054 O   0  0  0  0  0  0  0  0  0  0  0  0
   22.0623   74.2385   -4.9313 O   0  0  0  0  0  0  0  0  0  0  0  0
   20.6367   74.9620   -6.6808 O   0  0  0  0  0  0  0  0  0  0  0  0
   23.8113   73.5941   -8.9395 O   0  0  0  0  0  0  0  0  0  0  0  0
   23.3511   76.4192   -8.7050 O   0  0  0  0  0  0  0  0  0  0  0  0
   23.0079   72.1570   -6.5586 O   0  0  0  0  0  0  0  0  0  0  0  0
   23.1847   74.2075   -7.8097 C   0  0  1  0  0  0  0  0  0  0  0  0
   22.4079   75.4318   -8.2982 C   0  0  1  0  0  0  0  0  0  0  0  0
   22.2429   73.2000   -7.1531 C   0  0  2  0  0  0  0  0  0  0  0  0
   21.4964   75.9859   -7.1949 C   0  0  1  0  0  0  0  0  0  0  0  0
   21.3471   73.8636   -6.1056 C   0  0  1  0  0  0  0  0  0  0  0  0
   24.4111   74.2285   -9.3607 H   0  0  0  0  0  0  0  0  0  0  0  0
   23.9207   76.0565   -9.4015 H   0  0  0  0  0  0  0  0  0  0  0  0
   23.5705   71.7447   -7.2319 H   0  0  0  0  0  0  0  0  0  0  0  0
   20.4832   76.9880   -9.1127 O   0  0  0  0  0  0  0  0  0  0  0  0
   20.5965   77.1086   -7.7067 C   0  0  0  0  0  0  0  0  0  0  0  0
   19.9129   77.6959   -9.4524 H   0  0  0  0  0  0  0  0  0  0  0  0
 25 28  1  0
 25 24  1  0
 25 26  1  1
 25 27  2  0
  1  4  1  0
  1 24  1  0
  1  2  1  6
  1  3  2  0
  6 11  1  0
  6 12  1  0
 29 36  1  0
 29 37  1  0
  9  7  1  1
  7 13  1  0
 10  8  1  1
  8 14  1  0
 37 28  1  1
  4  5  1  0
 33 30  1  6
 30 38  1  0
 34 31  1  1
 31 39  1  0
 35 32  1  1
 32 40  1  0
 41 42  1  0
 41 43  1  0
 15 19  2  0
 16 22  2  0
 12 17  1  6
 17 19  1  0
 17 20  1  0
 18 19  1  0
 18 22  1  0
 18 23  1  0
  9 10  1  0
  9 11  1  0
 10 12  1  0
 11  5  1  6
 33 34  1  0
 33 35  1  0
 34 36  1  0
 35 37  1  0
 36 42  1  6
 20 21  2  0
 21 22  1  0
M  CHG  2   2  -1  26  -1
M  END
>  <COMPND>  (342) 
    8629 

>  <AUTHOR>  (342) 
    GENERATED BY OPEN BABEL 3.1.1

>  <MASTER>  (342) 
        0    0    0    0    0    0    0    0   58    0   58    0

>  <minimizedAffinity>  (342) 
-7.09800

>  <CNNscore>  (342) 
0.9283874035

>  <CNNaffinity>  (342) 
4.7096261978

>  <CNN_VS>  (342) 
4.3723578453

>  <CNNaffinity_variance>  (342) 
0.2510833144

$$$$
343
     RDKit          3D

 43 45  0  0  0  0  0  0  0  0999 V2000
   20.6461   71.2301   -1.2536 P   0  0  2  0  0  0  0  0  0  0  0  0
   20.7980   70.4609    0.1616 O   0  0  0  0  0  0  0  0  0  0  0  0
   20.0667   72.6114   -1.1652 O   0  0  0  0  0  0  0  0  0  0  0  0
   19.8297   70.1835   -2.1788 O   0  0  0  0  0  0  0  0  0  0  0  0
   19.5047   70.5639   -3.5046 C   0  0  0  0  0  0  0  0  0  0  0  0
   17.7805   71.5867   -4.8292 O   0  0  0  0  0  0  0  0  0  0  0  0
   15.8304   70.1392   -3.0706 O   0  0  0  0  0  0  0  0  0  0  0  0
   15.8762   68.5861   -5.3117 O   0  0  0  0  0  0  0  0  0  0  0  0
   17.1072   69.7132   -3.5437 C   0  0  1  0  0  0  0  0  0  0  0  0
   17.0286   69.3466   -5.0110 C   0  0  2  0  0  0  0  0  0  0  0  0
   18.0275   70.9272   -3.5681 C   0  0  1  0  0  0  0  0  0  0  0  0
   17.0181   70.7121   -5.6769 C   0  0  2  0  0  0  0  0  0  0  0  0
   15.2254   69.3807   -3.0460 H   0  0  0  0  0  0  0  0  0  0  0  0
   15.9301   67.7267   -4.8652 H   0  0  0  0  0  0  0  0  0  0  0  0
   15.5893   70.3110   -8.0802 O   0  0  0  0  0  0  0  0  0  0  0  0
   19.4170   70.6441  -10.6256 O   0  0  0  0  0  0  0  0  0  0  0  0
   17.6161   70.6896   -6.9820 N   0  0  0  0  0  0  0  0  0  0  0  0
   17.4964   70.4774   -9.3457 N   0  0  0  0  0  0  0  0  0  0  0  0
   16.8097   70.4798   -8.1249 C   0  0  0  0  0  0  0  0  0  0  0  0
   18.9875   70.8747   -7.1191 C   0  0  0  0  0  0  0  0  0  0  0  0
   19.6273   70.8683   -8.2904 C   0  0  0  0  0  0  0  0  0  0  0  0
   18.8579   70.6555   -9.5333 C   0  0  0  0  0  0  0  0  0  0  0  0
   16.9551   70.3326  -10.1555 H   0  0  0  0  0  0  0  0  0  0  0  0
   22.1413   71.1656   -1.8647 O   0  0  0  0  0  0  0  0  0  0  0  0
   23.0924   72.3251   -2.4680 P   0  0  2  0  0  0  0  0  0  0  0  0
   22.0429   73.4774   -2.9019 O   0  0  0  0  0  0  0  0  0  0  0  0
   23.9984   71.8647   -3.5730 O   0  0  0  0  0  0  0  0  0  0  0  0
   23.8587   72.9338   -1.1846 O   0  0  0  0  0  0  0  0  0  0  0  0
   23.3390   72.3869    1.0621 O   0  0  0  0  0  0  0  0  0  0  0  0
   24.8680   76.1785    1.6427 O   0  0  0  0  0  0  0  0  0  0  0  0
   26.4006   73.8912    2.4596 O   0  0  0  0  0  0  0  0  0  0  0  0
   23.2306   75.6217   -0.6786 O   0  0  0  0  0  0  0  0  0  0  0  0
   24.7718   74.8932    1.0229 C   0  0  1  0  0  0  0  0  0  0  0  0
   25.0261   73.8262    2.0896 C   0  0  1  0  0  0  0  0  0  0  0  0
   23.3765   74.7316    0.4227 C   0  0  2  0  0  0  0  0  0  0  0  0
   24.6792   72.4259    1.5661 C   0  0  1  0  0  0  0  0  0  0  0  0
   23.1162   73.2911   -0.0217 C   0  0  1  0  0  0  0  0  0  0  0  0
   25.7518   76.2877    2.0254 H   0  0  0  0  0  0  0  0  0  0  0  0
   26.6066   74.7805    2.7879 H   0  0  0  0  0  0  0  0  0  0  0  0
   23.3976   76.5302   -0.3843 H   0  0  0  0  0  0  0  0  0  0  0  0
   23.4854   71.1717    3.2125 O   0  0  0  0  0  0  0  0  0  0  0  0
   24.7749   71.3660    2.6614 C   0  0  0  0  0  0  0  0  0  0  0  0
   23.5309   70.4994    3.9109 H   0  0  0  0  0  0  0  0  0  0  0  0
 25 28  1  0
 25 24  1  0
 25 26  1  6
 25 27  2  0
  1  4  1  0
  1 24  1  0
  1  2  1  1
  1  3  2  0
  6 11  1  0
  6 12  1  0
 29 36  1  0
 29 37  1  0
  9  7  1  6
  7 13  1  0
 10  8  1  1
  8 14  1  0
 37 28  1  6
  4  5  1  0
 33 30  1  1
 30 38  1  0
 34 31  1  6
 31 39  1  0
 35 32  1  6
 32 40  1  0
 41 42  1  0
 41 43  1  0
 15 19  2  0
 16 22  2  0
 12 17  1  6
 17 19  1  0
 17 20  1  0
 18 19  1  0
 18 22  1  0
 18 23  1  0
  9 10  1  0
  9 11  1  0
 10 12  1  0
 11  5  1  6
 33 34  1  0
 33 35  1  0
 34 36  1  0
 35 37  1  0
 36 42  1  1
 20 21  2  0
 21 22  1  0
M  CHG  2   2  -1  26  -1
M  END
>  <COMPND>  (343) 
    8629 

>  <AUTHOR>  (343) 
    GENERATED BY OPEN BABEL 3.1.1

>  <MASTER>  (343) 
        0    0    0    0    0    0    0    0   58    0   58    0

>  <minimizedAffinity>  (343) 
-7.46988

>  <CNNscore>  (343) 
0.9231479764

>  <CNNaffinity>  (343) 
4.7969007492

>  <CNN_VS>  (343) 
4.4282493591

>  <CNNaffinity_variance>  (343) 
0.1118711680

$$$$
344
     RDKit          3D

 43 45  0  0  0  0  0  0  0  0999 V2000
   22.7824   71.4801   -2.5566 P   0  0  2  0  0  0  0  0  0  0  0  0
   22.2682   72.7386   -3.4337 O   0  0  0  0  0  0  0  0  0  0  0  0
   24.1388   70.9588   -2.9306 O   0  0  0  0  0  0  0  0  0  0  0  0
   21.5683   70.4152   -2.6564 O   0  0  0  0  0  0  0  0  0  0  0  0
   20.8208   70.3529   -3.8586 C   0  0  0  0  0  0  0  0  0  0  0  0
   18.9506   71.5312   -4.8007 O   0  0  0  0  0  0  0  0  0  0  0  0
   17.3292   70.3665   -2.5634 O   0  0  0  0  0  0  0  0  0  0  0  0
   16.6801   68.7581   -4.6677 O   0  0  0  0  0  0  0  0  0  0  0  0
   18.4057   69.7835   -3.2959 C   0  0  1  0  0  0  0  0  0  0  0  0
   17.9447   69.3885   -4.6833 C   0  0  2  0  0  0  0  0  0  0  0  0
   19.4173   70.8822   -3.5976 C   0  0  1  0  0  0  0  0  0  0  0  0
   17.9216   70.7275   -5.4007 C   0  0  2  0  0  0  0  0  0  0  0  0
   16.6705   69.6838   -2.3588 H   0  0  0  0  0  0  0  0  0  0  0  0
   16.7469   67.9107   -4.2005 H   0  0  0  0  0  0  0  0  0  0  0  0
   15.9464   70.2595   -7.3648 O   0  0  0  0  0  0  0  0  0  0  0  0
   19.0626   70.2575  -10.7605 O   0  0  0  0  0  0  0  0  0  0  0  0
   18.1887   70.6008   -6.8057 N   0  0  0  0  0  0  0  0  0  0  0  0
   17.4996   70.2591   -9.0540 N   0  0  0  0  0  0  0  0  0  0  0  0
   17.1255   70.3654   -7.7083 C   0  0  0  0  0  0  0  0  0  0  0  0
   19.4929   70.7101   -7.2758 C   0  0  0  0  0  0  0  0  0  0  0  0
   19.8331   70.6050   -8.5620 C   0  0  0  0  0  0  0  0  0  0  0  0
   18.7818   70.3591   -9.5702 C   0  0  0  0  0  0  0  0  0  0  0  0
   16.7756   70.0947   -9.7010 H   0  0  0  0  0  0  0  0  0  0  0  0
   22.6655   72.0232   -1.0386 O   0  0  0  0  0  0  0  0  0  0  0  0
   22.8005   71.2547    0.3771 P   0  0  2  0  0  0  0  0  0  0  0  0
   24.2857   70.6162    0.3125 O   0  0  0  0  0  0  0  0  0  0  0  0
   21.7092   70.2585    0.6431 O   0  0  0  0  0  0  0  0  0  0  0  0
   22.9111   72.4341    1.4732 O   0  0  0  0  0  0  0  0  0  0  0  0
   24.2440   72.6050    3.4254 O   0  0  0  0  0  0  0  0  0  0  0  0
   20.8098   74.4335    4.8090 O   0  0  0  0  0  0  0  0  0  0  0  0
   23.1371   76.0222    4.2540 O   0  0  0  0  0  0  0  0  0  0  0  0
   20.6175   72.1334    3.0619 O   0  0  0  0  0  0  0  0  0  0  0  0
   21.7988   74.0842    3.8367 C   0  0  1  0  0  0  0  0  0  0  0  0
   23.1542   74.5992    4.3251 C   0  0  1  0  0  0  0  0  0  0  0  0
   21.8267   72.5653    3.6765 C   0  0  2  0  0  0  0  0  0  0  0  0
   24.3003   74.0354    3.4742 C   0  0  1  0  0  0  0  0  0  0  0  0
   23.0326   72.1061    2.8549 C   0  0  1  0  0  0  0  0  0  0  0  0
   20.7867   75.3967    4.9151 H   0  0  0  0  0  0  0  0  0  0  0  0
   22.4087   76.3654    4.7951 H   0  0  0  0  0  0  0  0  0  0  0  0
   19.8618   72.4301    3.5917 H   0  0  0  0  0  0  0  0  0  0  0  0
   25.5025   74.8278    5.3810 O   0  0  0  0  0  0  0  0  0  0  0  0
   25.6691   74.4090    4.0389 C   0  0  0  0  0  0  0  0  0  0  0  0
   26.3657   75.0685    5.7534 H   0  0  0  0  0  0  0  0  0  0  0  0
 25 28  1  0
 25 24  1  0
 25 26  1  6
 25 27  2  0
  1  4  1  0
  1 24  1  0
  1  2  1  6
  1  3  2  0
  6 11  1  0
  6 12  1  0
 29 36  1  0
 29 37  1  0
  9  7  1  1
  7 13  1  0
 10  8  1  1
  8 14  1  0
 37 28  1  6
  4  5  1  0
 33 30  1  1
 30 38  1  0
 34 31  1  6
 31 39  1  0
 35 32  1  6
 32 40  1  0
 41 42  1  0
 41 43  1  0
 15 19  2  0
 16 22  2  0
 12 17  1  6
 17 19  1  0
 17 20  1  0
 18 19  1  0
 18 22  1  0
 18 23  1  0
  9 10  1  0
  9 11  1  0
 10 12  1  0
 11  5  1  6
 33 34  1  0
 33 35  1  0
 34 36  1  0
 35 37  1  0
 36 42  1  1
 20 21  2  0
 21 22  1  0
M  CHG  2   2  -1  26  -1
M  END
>  <COMPND>  (344) 
    8629 

>  <AUTHOR>  (344) 
    GENERATED BY OPEN BABEL 3.1.1

>  <MASTER>  (344) 
        0    0    0    0    0    0    0    0   58    0   58    0

>  <minimizedAffinity>  (344) 
-7.73904

>  <CNNscore>  (344) 
0.9096738696

>  <CNNaffinity>  (344) 
4.6565494537

>  <CNN_VS>  (344) 
4.2359414101

>  <CNNaffinity_variance>  (344) 
0.0519776419

$$$$
345
     RDKit          3D

 43 45  0  0  0  0  0  0  0  0999 V2000
   20.9256   72.7289   -4.4209 P   0  0  2  0  0  0  0  0  0  0  0  0
   19.9564   73.9062   -4.9612 O   0  0  0  0  0  0  0  0  0  0  0  0
   21.5002   71.8421   -5.4861 O   0  0  0  0  0  0  0  0  0  0  0  0
   20.0396   71.9849   -3.2897 O   0  0  0  0  0  0  0  0  0  0  0  0
   19.3864   70.7745   -3.6304 C   0  0  0  0  0  0  0  0  0  0  0  0
   17.6213   71.5959   -5.0388 O   0  0  0  0  0  0  0  0  0  0  0  0
   15.7419   70.1269   -3.2221 O   0  0  0  0  0  0  0  0  0  0  0  0
   15.9322   68.4488   -5.3632 O   0  0  0  0  0  0  0  0  0  0  0  0
   17.0526   69.7615   -3.6506 C   0  0  1  0  0  0  0  0  0  0  0  0
   17.0253   69.3028   -5.0937 C   0  0  2  0  0  0  0  0  0  0  0  0
   17.8895   71.0318   -3.7365 C   0  0  1  0  0  0  0  0  0  0  0  0
   16.9349   70.6219   -5.8419 C   0  0  2  0  0  0  0  0  0  0  0  0
   15.1889   69.3318   -3.1595 H   0  0  0  0  0  0  0  0  0  0  0  0
   16.0358   67.6235   -4.8643 H   0  0  0  0  0  0  0  0  0  0  0  0
   15.5291   70.6582   -8.2915 O   0  0  0  0  0  0  0  0  0  0  0  0
   19.4237   70.3854  -10.7408 O   0  0  0  0  0  0  0  0  0  0  0  0
   17.5564   70.5619   -7.1348 N   0  0  0  0  0  0  0  0  0  0  0  0
   17.4695   70.5225   -9.5091 N   0  0  0  0  0  0  0  0  0  0  0  0
   16.7597   70.5856   -8.3032 C   0  0  0  0  0  0  0  0  0  0  0  0
   18.9411   70.4810   -7.2350 C   0  0  0  0  0  0  0  0  0  0  0  0
   19.6025   70.4203   -8.3926 C   0  0  0  0  0  0  0  0  0  0  0  0
   18.8446   70.4399   -9.6603 C   0  0  0  0  0  0  0  0  0  0  0  0
   16.9353   70.5372  -10.3363 H   0  0  0  0  0  0  0  0  0  0  0  0
   22.0246   73.5336   -3.5504 O   0  0  0  0  0  0  0  0  0  0  0  0
   23.3897   73.0357   -2.8423 P   0  0  2  0  0  0  0  0  0  0  0  0
   24.3213   74.3583   -2.8614 O   0  0  0  0  0  0  0  0  0  0  0  0
   24.0123   71.8304   -3.4854 O   0  0  0  0  0  0  0  0  0  0  0  0
   22.9957   72.8370   -1.2898 O   0  0  0  0  0  0  0  0  0  0  0  0
   23.8102   70.9389   -0.1278 O   0  0  0  0  0  0  0  0  0  0  0  0
   20.6396   71.9088    2.3333 O   0  0  0  0  0  0  0  0  0  0  0  0
   23.3261   72.3994    3.2220 O   0  0  0  0  0  0  0  0  0  0  0  0
   20.3742   72.1767   -0.5367 O   0  0  0  0  0  0  0  0  0  0  0  0
   21.7336   72.1754    1.4516 C   0  0  1  0  0  0  0  0  0  0  0  0
   23.0067   71.6071    2.0816 C   0  0  1  0  0  0  0  0  0  0  0  0
   21.4598   71.5137    0.1023 C   0  0  2  0  0  0  0  0  0  0  0  0
   24.1710   71.6158    1.0819 C   0  0  1  0  0  0  0  0  0  0  0  0
   22.6967   71.5333   -0.7977 C   0  0  1  0  0  0  0  0  0  0  0  0
   20.8069   72.3266    3.1918 H   0  0  0  0  0  0  0  0  0  0  0  0
   22.5826   72.3858    3.8451 H   0  0  0  0  0  0  0  0  0  0  0  0
   19.5973   72.1573    0.0429 H   0  0  0  0  0  0  0  0  0  0  0  0
   25.0065   70.0862    2.7162 O   0  0  0  0  0  0  0  0  0  0  0  0
   25.4064   70.9100    1.6365 C   0  0  0  0  0  0  0  0  0  0  0  0
   25.7826   69.6303    3.0790 H   0  0  0  0  0  0  0  0  0  0  0  0
 25 28  1  0
 25 24  1  0
 25 26  1  1
 25 27  2  0
  1  4  1  0
  1 24  1  0
  1  2  1  6
  1  3  2  0
  6 11  1  0
  6 12  1  0
 29 36  1  0
 29 37  1  0
  9  7  1  6
  7 13  1  0
 10  8  1  1
  8 14  1  0
 37 28  1  1
  4  5  1  0
 33 30  1  1
 30 38  1  0
 34 31  1  1
 31 39  1  0
 35 32  1  6
 32 40  1  0
 41 42  1  0
 41 43  1  0
 15 19  2  0
 16 22  2  0
 12 17  1  6
 17 19  1  0
 17 20  1  0
 18 19  1  0
 18 22  1  0
 18 23  1  0
  9 10  1  0
  9 11  1  0
 10 12  1  0
 11  5  1  6
 33 34  1  0
 33 35  1  0
 34 36  1  0
 35 37  1  0
 36 42  1  1
 20 21  2  0
 21 22  1  0
M  CHG  2   2  -1  26  -1
M  END
>  <COMPND>  (345) 
    8629 

>  <AUTHOR>  (345) 
    GENERATED BY OPEN BABEL 3.1.1

>  <MASTER>  (345) 
        0    0    0    0    0    0    0    0   58    0   58    0

>  <minimizedAffinity>  (345) 
-8.01508

>  <CNNscore>  (345) 
0.8664652109

>  <CNNaffinity>  (345) 
4.6900033951

>  <CNN_VS>  (345) 
4.0637249947

>  <CNNaffinity_variance>  (345) 
0.0701029524

$$$$
346
     RDKit          3D

 43 45  0  0  0  0  0  0  0  0999 V2000
   20.5036   71.1640   -1.3125 P   0  0  2  0  0  0  0  0  0  0  0  0
   20.7775   70.5027    0.1384 O   0  0  0  0  0  0  0  0  0  0  0  0
   20.0792   72.6029   -1.2832 O   0  0  0  0  0  0  0  0  0  0  0  0
   19.4676   70.1400   -2.0168 O   0  0  0  0  0  0  0  0  0  0  0  0
   19.1690   70.3186   -3.3904 C   0  0  0  0  0  0  0  0  0  0  0  0
   17.5157   71.3691   -4.7820 O   0  0  0  0  0  0  0  0  0  0  0  0
   15.4833   69.8131   -3.2202 O   0  0  0  0  0  0  0  0  0  0  0  0
   15.7070   68.3607   -5.5174 O   0  0  0  0  0  0  0  0  0  0  0  0
   16.7966   69.4300   -3.6251 C   0  0  1  0  0  0  0  0  0  0  0  0
   16.8219   69.1267   -5.1087 C   0  0  2  0  0  0  0  0  0  0  0  0
   17.6923   70.6593   -3.5365 C   0  0  1  0  0  0  0  0  0  0  0  0
   16.8281   70.5196   -5.7150 C   0  0  2  0  0  0  0  0  0  0  0  0
   14.8932   69.0441   -3.2682 H   0  0  0  0  0  0  0  0  0  0  0  0
   15.7485   67.4836   -5.1053 H   0  0  0  0  0  0  0  0  0  0  0  0
   15.5376   70.5505   -8.2273 O   0  0  0  0  0  0  0  0  0  0  0  0
   19.5494   70.6909  -10.4915 O   0  0  0  0  0  0  0  0  0  0  0  0
   17.5109   70.5645   -6.9772 N   0  0  0  0  0  0  0  0  0  0  0  0
   17.5362   70.6206   -9.3526 N   0  0  0  0  0  0  0  0  0  0  0  0
   16.7692   70.5756   -8.1814 C   0  0  0  0  0  0  0  0  0  0  0  0
   18.9008   70.5973   -7.0125 C   0  0  0  0  0  0  0  0  0  0  0  0
   19.6172   70.6388   -8.1377 C   0  0  0  0  0  0  0  0  0  0  0  0
   18.9190   70.6531   -9.4393 C   0  0  0  0  0  0  0  0  0  0  0  0
   17.0409   70.6287  -10.2038 H   0  0  0  0  0  0  0  0  0  0  0  0
   21.8847   70.8860   -2.1051 O   0  0  0  0  0  0  0  0  0  0  0  0
   23.0734   71.8870   -2.5500 P   0  0  2  0  0  0  0  0  0  0  0  0
   24.2145   70.8840   -3.1062 O   0  0  0  0  0  0  0  0  0  0  0  0
   23.5383   72.8119   -1.4626 O   0  0  0  0  0  0  0  0  0  0  0  0
   22.5090   72.6320   -3.8658 O   0  0  0  0  0  0  0  0  0  0  0  0
   23.3205   74.1395   -5.5046 O   0  0  0  0  0  0  0  0  0  0  0  0
   19.8031   76.0657   -4.5205 O   0  0  0  0  0  0  0  0  0  0  0  0
   20.0232   74.7190   -7.0476 O   0  0  0  0  0  0  0  0  0  0  0  0
   21.3684   74.7739   -2.4563 O   0  0  0  0  0  0  0  0  0  0  0  0
   20.6502   74.9363   -4.7496 C   0  0  1  0  0  0  0  0  0  0  0  0
   21.1362   74.9877   -6.1994 C   0  0  1  0  0  0  0  0  0  0  0  0
   21.8323   74.9949   -3.7839 C   0  0  2  0  0  0  0  0  0  0  0  0
   22.2544   73.9658   -6.4454 C   0  0  1  0  0  0  0  0  0  0  0  0
   22.9092   73.9708   -4.1466 C   0  0  1  0  0  0  0  0  0  0  0  0
   19.0503   76.0343   -5.1302 H   0  0  0  0  0  0  0  0  0  0  0  0
   19.3241   75.3709   -6.8820 H   0  0  0  0  0  0  0  0  0  0  0  0
   20.6873   75.4286   -2.2387 H   0  0  0  0  0  0  0  0  0  0  0  0
   22.7478   72.8643   -8.5074 O   0  0  0  0  0  0  0  0  0  0  0  0
   22.8620   74.1072   -7.8393 C   0  0  0  0  0  0  0  0  0  0  0  0
   23.1302   72.9394   -9.3962 H   0  0  0  0  0  0  0  0  0  0  0  0
 25 28  1  0
 25 24  1  0
 25 26  1  6
 25 27  2  0
  1  4  1  0
  1 24  1  0
  1  2  1  1
  1  3  2  0
  6 11  1  0
  6 12  1  0
 29 36  1  0
 29 37  1  0
  9  7  1  6
  7 13  1  0
 10  8  1  6
  8 14  1  0
 37 28  1  6
  4  5  1  0
 33 30  1  1
 30 38  1  0
 34 31  1  6
 31 39  1  0
 35 32  1  1
 32 40  1  0
 41 42  1  0
 41 43  1  0
 15 19  2  0
 16 22  2  0
 12 17  1  6
 17 19  1  0
 17 20  1  0
 18 19  1  0
 18 22  1  0
 18 23  1  0
  9 10  1  0
  9 11  1  0
 10 12  1  0
 11  5  1  6
 33 34  1  0
 33 35  1  0
 34 36  1  0
 35 37  1  0
 36 42  1  6
 20 21  2  0
 21 22  1  0
M  CHG  2   2  -1  26  -1
M  END
>  <COMPND>  (346) 
    8629 

>  <AUTHOR>  (346) 
    GENERATED BY OPEN BABEL 3.1.1

>  <MASTER>  (346) 
        0    0    0    0    0    0    0    0   58    0   58    0

>  <minimizedAffinity>  (346) 
-8.11249

>  <CNNscore>  (346) 
0.8537563086

>  <CNNaffinity>  (346) 
4.6258101463

>  <CNN_VS>  (346) 
3.9493145943

>  <CNNaffinity_variance>  (346) 
0.4057932794

$$$$
347
     RDKit          3D

 43 45  0  0  0  0  0  0  0  0999 V2000
   23.0040   72.6573   -4.2682 P   0  0  2  0  0  0  0  0  0  0  0  0
   23.1681   72.7876   -5.8724 O   0  0  0  0  0  0  0  0  0  0  0  0
   23.8785   71.6223   -3.6237 O   0  0  0  0  0  0  0  0  0  0  0  0
   21.4118   72.4633   -4.0552 O   0  0  0  0  0  0  0  0  0  0  0  0
   20.9428   71.2235   -3.5545 C   0  0  0  0  0  0  0  0  0  0  0  0
   18.7878   71.8164   -4.4368 O   0  0  0  0  0  0  0  0  0  0  0  0
   17.6311   70.2811   -2.1356 O   0  0  0  0  0  0  0  0  0  0  0  0
   17.3905   68.5215   -4.2051 O   0  0  0  0  0  0  0  0  0  0  0  0
   18.8034   70.0107   -2.9023 C   0  0  1  0  0  0  0  0  0  0  0  0
   18.4266   69.4801   -4.2698 C   0  0  2  0  0  0  0  0  0  0  0  0
   19.4564   71.3434   -3.2470 C   0  0  1  0  0  0  0  0  0  0  0  0
   18.0062   70.7475   -4.9946 C   0  0  2  0  0  0  0  0  0  0  0  0
   17.1969   69.4447   -1.9033 H   0  0  0  0  0  0  0  0  0  0  0  0
   17.7070   67.7343   -3.7352 H   0  0  0  0  0  0  0  0  0  0  0  0
   16.2008   69.6642   -6.8775 O   0  0  0  0  0  0  0  0  0  0  0  0
   19.0573   70.5314  -10.3888 O   0  0  0  0  0  0  0  0  0  0  0  0
   18.2524   70.6778   -6.4073 N   0  0  0  0  0  0  0  0  0  0  0  0
   17.6245   70.0971   -8.6243 N   0  0  0  0  0  0  0  0  0  0  0  0
   17.2807   70.1138   -7.2666 C   0  0  0  0  0  0  0  0  0  0  0  0
   19.4461   71.1657   -6.9276 C   0  0  0  0  0  0  0  0  0  0  0  0
   19.7593   71.1412   -8.2248 C   0  0  0  0  0  0  0  0  0  0  0  0
   18.7987   70.5685   -9.1898 C   0  0  0  0  0  0  0  0  0  0  0  0
   16.9631   69.7084   -9.2417 H   0  0  0  0  0  0  0  0  0  0  0  0
   23.2580   74.1682   -3.7529 O   0  0  0  0  0  0  0  0  0  0  0  0
   23.4955   74.7569   -2.2663 P   0  0  2  0  0  0  0  0  0  0  0  0
   22.4774   76.0125   -2.1975 O   0  0  0  0  0  0  0  0  0  0  0  0
   24.9247   75.1012   -1.9619 O   0  0  0  0  0  0  0  0  0  0  0  0
   22.8490   73.6534   -1.2818 O   0  0  0  0  0  0  0  0  0  0  0  0
   23.4003   73.9702    1.0012 O   0  0  0  0  0  0  0  0  0  0  0  0
   21.8218   70.1612    1.2260 O   0  0  0  0  0  0  0  0  0  0  0  0
   20.3318   72.3780    2.2812 O   0  0  0  0  0  0  0  0  0  0  0  0
   23.4427   70.9206   -1.0490 O   0  0  0  0  0  0  0  0  0  0  0  0
   21.9304   71.4996    0.7340 C   0  0  1  0  0  0  0  0  0  0  0  0
   21.7031   72.4602    1.9029 C   0  0  1  0  0  0  0  0  0  0  0  0
   23.3215   71.7003    0.1358 C   0  0  2  0  0  0  0  0  0  0  0  0
   22.0651   73.9002    1.5150 C   0  0  1  0  0  0  0  0  0  0  0  0
   23.5984   73.1737   -0.1685 C   0  0  1  0  0  0  0  0  0  0  0  0
   20.9406   70.0270    1.6067 H   0  0  0  0  0  0  0  0  0  0  0  0
   20.1162   71.4636    2.5233 H   0  0  0  0  0  0  0  0  0  0  0  0
   23.2654   69.9900   -0.8431 H   0  0  0  0  0  0  0  0  0  0  0  0
   21.9283   74.0758    3.8939 O   0  0  0  0  0  0  0  0  0  0  0  0
   21.9966   74.8488    2.7098 C   0  0  0  0  0  0  0  0  0  0  0  0
   21.8845   74.6663    4.6628 H   0  0  0  0  0  0  0  0  0  0  0  0
 25 28  1  0
 25 24  1  0
 25 26  1  6
 25 27  2  0
  1  4  1  0
  1 24  1  0
  1  2  1  6
  1  3  2  0
  6 11  1  0
  6 12  1  0
 29 36  1  0
 29 37  1  0
  9  7  1  1
  7 13  1  0
 10  8  1  1
  8 14  1  0
 37 28  1  6
  4  5  1  0
 33 30  1  1
 30 38  1  0
 34 31  1  6
 31 39  1  0
 35 32  1  6
 32 40  1  0
 41 42  1  0
 41 43  1  0
 15 19  2  0
 16 22  2  0
 12 17  1  6
 17 19  1  0
 17 20  1  0
 18 19  1  0
 18 22  1  0
 18 23  1  0
  9 10  1  0
  9 11  1  0
 10 12  1  0
 11  5  1  6
 33 34  1  0
 33 35  1  0
 34 36  1  0
 35 37  1  0
 36 42  1  1
 20 21  2  0
 21 22  1  0
M  CHG  2   2  -1  26  -1
M  END
>  <COMPND>  (347) 
    8629 

>  <AUTHOR>  (347) 
    GENERATED BY OPEN BABEL 3.1.1

>  <MASTER>  (347) 
        0    0    0    0    0    0    0    0   58    0   58    0

>  <minimizedAffinity>  (347) 
-7.42958

>  <CNNscore>  (347) 
0.7564845085

>  <CNNaffinity>  (347) 
4.5797662735

>  <CNN_VS>  (347) 
3.4645221233

>  <CNNaffinity_variance>  (347) 
0.0583265796

$$$$
348
     RDKit          3D

 43 45  0  0  0  0  0  0  0  0999 V2000
   22.8730   72.5359   -4.4054 P   0  0  2  0  0  0  0  0  0  0  0  0
   22.9430   72.5142   -6.0216 O   0  0  0  0  0  0  0  0  0  0  0  0
   23.7252   71.5084   -3.7203 O   0  0  0  0  0  0  0  0  0  0  0  0
   21.2889   72.4623   -4.0842 O   0  0  0  0  0  0  0  0  0  0  0  0
   20.7145   71.1984   -3.8009 C   0  0  0  0  0  0  0  0  0  0  0  0
   18.6261   71.8516   -4.7938 O   0  0  0  0  0  0  0  0  0  0  0  0
   17.3080   70.3924   -2.5301 O   0  0  0  0  0  0  0  0  0  0  0  0
   17.1044   68.6106   -4.5845 O   0  0  0  0  0  0  0  0  0  0  0  0
   18.5053   70.0700   -3.2358 C   0  0  1  0  0  0  0  0  0  0  0  0
   18.1755   69.5319   -4.6125 C   0  0  2  0  0  0  0  0  0  0  0  0
   19.2203   71.3741   -3.5669 C   0  0  1  0  0  0  0  0  0  0  0  0
   17.8348   70.8017   -5.3738 C   0  0  2  0  0  0  0  0  0  0  0  0
   16.8342   69.5752   -2.3074 H   0  0  0  0  0  0  0  0  0  0  0  0
   17.3704   67.8203   -4.0892 H   0  0  0  0  0  0  0  0  0  0  0  0
   15.9359   70.2704   -7.3962 O   0  0  0  0  0  0  0  0  0  0  0  0
   19.1404   70.4399  -10.7043 O   0  0  0  0  0  0  0  0  0  0  0  0
   18.1453   70.7019   -6.7720 N   0  0  0  0  0  0  0  0  0  0  0  0
   17.5330   70.3554   -9.0417 N   0  0  0  0  0  0  0  0  0  0  0  0
   17.1182   70.4308   -7.7059 C   0  0  0  0  0  0  0  0  0  0  0  0
   19.4558   70.8726   -7.2048 C   0  0  0  0  0  0  0  0  0  0  0  0
   19.8351   70.7963   -8.4821 C   0  0  0  0  0  0  0  0  0  0  0  0
   18.8233   70.5163   -9.5213 C   0  0  0  0  0  0  0  0  0  0  0  0
   16.8347   70.1671   -9.7101 H   0  0  0  0  0  0  0  0  0  0  0  0
   23.2458   74.0672   -4.0460 O   0  0  0  0  0  0  0  0  0  0  0  0
   24.3988   74.6840   -3.0957 P   0  0  2  0  0  0  0  0  0  0  0  0
   23.7880   76.1151   -2.6524 O   0  0  0  0  0  0  0  0  0  0  0  0
   25.7521   74.7615   -3.7411 O   0  0  0  0  0  0  0  0  0  0  0  0
   24.3473   73.7861   -1.7555 O   0  0  0  0  0  0  0  0  0  0  0  0
   22.3467   73.0644   -0.7098 O   0  0  0  0  0  0  0  0  0  0  0  0
   24.8250   73.1455    2.5921 O   0  0  0  0  0  0  0  0  0  0  0  0
   24.0146   70.6207    1.4891 O   0  0  0  0  0  0  0  0  0  0  0  0
   25.0538   75.1985    0.5642 O   0  0  0  0  0  0  0  0  0  0  0  0
   24.4960   72.9474    1.2144 C   0  0  1  0  0  0  0  0  0  0  0  0
   23.4189   71.8641    1.1295 C   0  0  1  0  0  0  0  0  0  0  0  0
   23.9835   74.2622    0.6296 C   0  0  2  0  0  0  0  0  0  0  0  0
   22.8246   71.7833   -0.2830 C   0  0  1  0  0  0  0  0  0  0  0  0
   23.3687   74.0620   -0.7568 C   0  0  1  0  0  0  0  0  0  0  0  0
   25.1516   72.3145    2.9693 H   0  0  0  0  0  0  0  0  0  0  0  0
   24.3864   70.6853    2.3828 H   0  0  0  0  0  0  0  0  0  0  0  0
   25.4343   75.3167    1.4480 H   0  0  0  0  0  0  0  0  0  0  0  0
   21.3884   70.3260    0.9508 O   0  0  0  0  0  0  0  0  0  0  0  0
   21.6414   70.8204   -0.3514 C   0  0  0  0  0  0  0  0  0  0  0  0
   20.6375   69.7120    0.9227 H   0  0  0  0  0  0  0  0  0  0  0  0
 25 28  1  0
 25 24  1  0
 25 26  1  1
 25 27  2  0
  1  4  1  0
  1 24  1  0
  1  2  1  6
  1  3  2  0
  6 11  1  0
  6 12  1  0
 29 36  1  0
 29 37  1  0
  9  7  1  1
  7 13  1  0
 10  8  1  1
  8 14  1  0
 37 28  1  6
  4  5  1  0
 33 30  1  1
 30 38  1  0
 34 31  1  6
 31 39  1  0
 35 32  1  6
 32 40  1  0
 41 42  1  0
 41 43  1  0
 15 19  2  0
 16 22  2  0
 12 17  1  6
 17 19  1  0
 17 20  1  0
 18 19  1  0
 18 22  1  0
 18 23  1  0
  9 10  1  0
  9 11  1  0
 10 12  1  0
 11  5  1  6
 33 34  1  0
 33 35  1  0
 34 36  1  0
 35 37  1  0
 36 42  1  1
 20 21  2  0
 21 22  1  0
M  CHG  2   2  -1  26  -1
M  END
>  <COMPND>  (348) 
    8629 

>  <AUTHOR>  (348) 
    GENERATED BY OPEN BABEL 3.1.1

>  <MASTER>  (348) 
        0    0    0    0    0    0    0    0   58    0   58    0

>  <minimizedAffinity>  (348) 
-7.67713

>  <CNNscore>  (348) 
0.7388114929

>  <CNNaffinity>  (348) 
4.5643324852

>  <CNN_VS>  (348) 
3.3721814156

>  <CNNaffinity_variance>  (348) 
0.0709094629

$$$$
349
     RDKit          3D

 43 45  0  0  0  0  0  0  0  0999 V2000
   21.8812   72.5257   -5.6753 P   0  0  2  0  0  0  0  0  0  0  0  0
   21.1725   73.9714   -5.5167 O   0  0  0  0  0  0  0  0  0  0  0  0
   23.1785   72.5352   -6.4291 O   0  0  0  0  0  0  0  0  0  0  0  0
   20.7164   71.5878   -6.2930 O   0  0  0  0  0  0  0  0  0  0  0  0
   20.0966   71.9879   -7.5027 C   0  0  0  0  0  0  0  0  0  0  0  0
   18.8833   69.9513   -7.1108 O   0  0  0  0  0  0  0  0  0  0  0  0
   18.1319   70.0606  -10.0115 O   0  0  0  0  0  0  0  0  0  0  0  0
   15.8860   70.9967   -8.7800 O   0  0  0  0  0  0  0  0  0  0  0  0
   18.2950   71.1296   -9.0809 C   0  0  1  0  0  0  0  0  0  0  0  0
   17.1237   71.1752   -8.1220 C   0  0  2  0  0  0  0  0  0  0  0  0
   19.4508   70.7729   -8.1544 C   0  0  1  0  0  0  0  0  0  0  0  0
   17.4501   70.0359   -7.1714 C   0  0  2  0  0  0  0  0  0  0  0  0
   17.3993   70.2658  -10.6142 H   0  0  0  0  0  0  0  0  0  0  0  0
   15.7238   71.7469   -9.3730 H   0  0  0  0  0  0  0  0  0  0  0  0
   16.2951   68.0390   -5.5417 O   0  0  0  0  0  0  0  0  0  0  0  0
   15.5258   71.0228   -2.1144 O   0  0  0  0  0  0  0  0  0  0  0  0
   16.9400   70.2631   -5.8486 N   0  0  0  0  0  0  0  0  0  0  0  0
   15.9132   69.5263   -3.8364 N   0  0  0  0  0  0  0  0  0  0  0  0
   16.3790   69.1923   -5.1145 C   0  0  0  0  0  0  0  0  0  0  0  0
   16.9993   71.5362   -5.2922 C   0  0  0  0  0  0  0  0  0  0  0  0
   16.5495   71.8385   -4.0726 C   0  0  0  0  0  0  0  0  0  0  0  0
   15.9486   70.7767   -3.2398 C   0  0  0  0  0  0  0  0  0  0  0  0
   15.5178   68.7963   -3.3067 H   0  0  0  0  0  0  0  0  0  0  0  0
   21.9940   72.0069   -4.1485 O   0  0  0  0  0  0  0  0  0  0  0  0
   23.2135   72.0797   -3.0899 P   0  0  2  0  0  0  0  0  0  0  0  0
   23.8759   73.5258   -3.3860 O   0  0  0  0  0  0  0  0  0  0  0  0
   24.1738   70.9291   -3.1774 O   0  0  0  0  0  0  0  0  0  0  0  0
   22.4976   72.2458   -1.6529 O   0  0  0  0  0  0  0  0  0  0  0  0
   23.4191   70.6584   -0.1537 O   0  0  0  0  0  0  0  0  0  0  0  0
   20.4554   72.2096    2.2673 O   0  0  0  0  0  0  0  0  0  0  0  0
   23.2024   72.8602    2.7949 O   0  0  0  0  0  0  0  0  0  0  0  0
   19.9521   71.8093   -0.5552 O   0  0  0  0  0  0  0  0  0  0  0  0
   21.4709   72.2518    1.2611 C   0  0  1  0  0  0  0  0  0  0  0  0
   22.7958   71.8294    1.8991 C   0  0  1  0  0  0  0  0  0  0  0  0
   21.0916   71.2992    0.1288 C   0  0  2  0  0  0  0  0  0  0  0  0
   23.8736   71.5925    0.8326 C   0  0  1  0  0  0  0  0  0  0  0  0
   22.2498   71.0951   -0.8494 C   0  0  1  0  0  0  0  0  0  0  0  0
   20.6899   72.8127    2.9889 H   0  0  0  0  0  0  0  0  0  0  0  0
   22.5130   73.0002    3.4630 H   0  0  0  0  0  0  0  0  0  0  0  0
   19.2259   71.9339    0.0748 H   0  0  0  0  0  0  0  0  0  0  0  0
   24.8146   70.2530    2.5729 O   0  0  0  0  0  0  0  0  0  0  0  0
   25.1556   71.0194    1.4325 C   0  0  0  0  0  0  0  0  0  0  0  0
   25.6209   69.8817    2.9651 H   0  0  0  0  0  0  0  0  0  0  0  0
 25 28  1  0
 25 24  1  0
 25 26  1  6
 25 27  2  0
  1  4  1  0
  1 24  1  0
  1  2  1  1
  1  3  2  0
  6 11  1  0
  6 12  1  0
 29 36  1  0
 29 37  1  0
  9  7  1  6
  7 13  1  0
 10  8  1  6
  8 14  1  0
 37 28  1  1
  4  5  1  0
 33 30  1  1
 30 38  1  0
 34 31  1  1
 31 39  1  0
 35 32  1  6
 32 40  1  0
 41 42  1  0
 41 43  1  0
 15 19  2  0
 16 22  2  0
 12 17  1  1
 17 19  1  0
 17 20  1  0
 18 19  1  0
 18 22  1  0
 18 23  1  0
  9 10  1  0
  9 11  1  0
 10 12  1  0
 11  5  1  1
 33 34  1  0
 33 35  1  0
 34 36  1  0
 35 37  1  0
 36 42  1  1
 20 21  2  0
 21 22  1  0
M  CHG  2   2  -1  26  -1
M  END
>  <COMPND>  (349) 
    8629 

>  <AUTHOR>  (349) 
    GENERATED BY OPEN BABEL 3.1.1

>  <MASTER>  (349) 
        0    0    0    0    0    0    0    0   58    0   58    0

>  <minimizedAffinity>  (349) 
-8.38710

>  <CNNscore>  (349) 
0.7066618800

>  <CNNaffinity>  (349) 
4.4709615707

>  <CNN_VS>  (349) 
3.1594581604

>  <CNNaffinity_variance>  (349) 
0.2802810073

$$$$
350
     RDKit          3D

 43 45  0  0  0  0  0  0  0  0999 V2000
   20.5241   71.9656   -0.4168 P   0  0  2  0  0  0  0  0  0  0  0  0
   20.8643   70.6284    0.4281 O   0  0  0  0  0  0  0  0  0  0  0  0
   19.7004   72.9847    0.3142 O   0  0  0  0  0  0  0  0  0  0  0  0
   19.8867   71.4035   -1.7936 O   0  0  0  0  0  0  0  0  0  0  0  0
   18.8065   72.1110   -2.3769 C   0  0  0  0  0  0  0  0  0  0  0  0
   16.8190   71.3781   -3.5112 O   0  0  0  0  0  0  0  0  0  0  0  0
   16.6827   69.1912   -1.4643 O   0  0  0  0  0  0  0  0  0  0  0  0
   17.7359   67.9128   -3.6306 O   0  0  0  0  0  0  0  0  0  0  0  0
   17.8269   69.7820   -2.0785 C   0  0  1  0  0  0  0  0  0  0  0  0
   17.9625   69.3022   -3.5085 C   0  0  2  0  0  0  0  0  0  0  0  0
   17.5439   71.2672   -2.2668 C   0  0  1  0  0  0  0  0  0  0  0  0
   16.9073   70.1315   -4.2205 C   0  0  2  0  0  0  0  0  0  0  0  0
   16.8399   68.2425   -1.3335 H   0  0  0  0  0  0  0  0  0  0  0  0
   18.4332   67.4288   -3.1614 H   0  0  0  0  0  0  0  0  0  0  0  0
   16.0354   68.5810   -6.4145 O   0  0  0  0  0  0  0  0  0  0  0  0
   18.2894   71.2434   -9.4266 O   0  0  0  0  0  0  0  0  0  0  0  0
   17.2509   70.3971   -5.5890 N   0  0  0  0  0  0  0  0  0  0  0  0
   17.1583   69.9080   -7.9125 N   0  0  0  0  0  0  0  0  0  0  0  0
   16.7615   69.5566   -6.6159 C   0  0  0  0  0  0  0  0  0  0  0  0
   18.0643   71.4809   -5.9015 C   0  0  0  0  0  0  0  0  0  0  0  0
   18.4346   71.8017   -7.1430 C   0  0  0  0  0  0  0  0  0  0  0  0
   17.9663   70.9745   -8.2737 C   0  0  0  0  0  0  0  0  0  0  0  0
   16.8297   69.3365   -8.6441 H   0  0  0  0  0  0  0  0  0  0  0  0
   21.9837   72.4854   -0.8778 O   0  0  0  0  0  0  0  0  0  0  0  0
   23.3735   72.6078   -0.0615 P   0  0  2  0  0  0  0  0  0  0  0  0
   24.0766   73.9082   -0.7189 O   0  0  0  0  0  0  0  0  0  0  0  0
   24.2167   71.3659   -0.0923 O   0  0  0  0  0  0  0  0  0  0  0  0
   22.9379   73.0839    1.4178 O   0  0  0  0  0  0  0  0  0  0  0  0
   24.5673   72.6439    3.0816 O   0  0  0  0  0  0  0  0  0  0  0  0
   21.3676   73.5725    5.5209 O   0  0  0  0  0  0  0  0  0  0  0  0
   23.5399   75.4331    5.2619 O   0  0  0  0  0  0  0  0  0  0  0  0
   20.9407   72.0500    3.0962 O   0  0  0  0  0  0  0  0  0  0  0  0
   22.1919   73.6768    4.3569 C   0  0  1  0  0  0  0  0  0  0  0  0
   23.5978   74.0864    4.8000 C   0  0  1  0  0  0  0  0  0  0  0  0
   22.2247   72.3253    3.6457 C   0  0  2  0  0  0  0  0  0  0  0  0
   24.6012   73.9601    3.6457 C   0  0  1  0  0  0  0  0  0  0  0  0
   23.2897   72.2903    2.5482 C   0  0  1  0  0  0  0  0  0  0  0  0
   21.3421   74.4275    5.9769 H   0  0  0  0  0  0  0  0  0  0  0  0
   22.9025   75.4992    5.9903 H   0  0  0  0  0  0  0  0  0  0  0  0
   20.2754   72.0748    3.8010 H   0  0  0  0  0  0  0  0  0  0  0  0
   26.8935   73.3314    3.4022 O   0  0  0  0  0  0  0  0  0  0  0  0
   26.0358   74.2118    4.1048 C   0  0  0  0  0  0  0  0  0  0  0  0
   27.8101   73.4805    3.6840 H   0  0  0  0  0  0  0  0  0  0  0  0
 25 28  1  0
 25 24  1  0
 25 26  1  6
 25 27  2  0
  1  4  1  0
  1 24  1  0
  1  2  1  1
  1  3  2  0
  6 11  1  0
  6 12  1  0
 29 36  1  0
 29 37  1  0
  9  7  1  6
  7 13  1  0
 10  8  1  1
  8 14  1  0
 37 28  1  6
  4  5  1  0
 33 30  1  1
 30 38  1  0
 34 31  1  6
 31 39  1  0
 35 32  1  6
 32 40  1  0
 41 42  1  0
 41 43  1  0
 15 19  2  0
 16 22  2  0
 12 17  1  6
 17 19  1  0
 17 20  1  0
 18 19  1  0
 18 22  1  0
 18 23  1  0
  9 10  1  0
  9 11  1  0
 10 12  1  0
 11  5  1  6
 33 34  1  0
 33 35  1  0
 34 36  1  0
 35 37  1  0
 36 42  1  1
 20 21  2  0
 21 22  1  0
M  CHG  2   2  -1  26  -1
M  END
>  <COMPND>  (350) 
    8629 

>  <AUTHOR>  (350) 
    GENERATED BY OPEN BABEL 3.1.1

>  <MASTER>  (350) 
        0    0    0    0    0    0    0    0   58    0   58    0

>  <minimizedAffinity>  (350) 
-6.57314

>  <CNNscore>  (350) 
0.6517947912

>  <CNNaffinity>  (350) 
4.1199636459

>  <CNN_VS>  (350) 
2.6853709221

>  <CNNaffinity_variance>  (350) 
0.0821343511

$$$$
351
     RDKit          3D

 43 45  0  0  0  0  0  0  0  0999 V2000
   20.3674   73.2041   -1.1420 P   0  0  2  0  0  0  0  0  0  0  0  0
   19.0966   72.2029   -1.1313 O   0  0  0  0  0  0  0  0  0  0  0  0
   20.0892   74.5866   -0.6296 O   0  0  0  0  0  0  0  0  0  0  0  0
   20.9192   73.1152   -2.6604 O   0  0  0  0  0  0  0  0  0  0  0  0
   20.3557   72.1479   -3.5290 C   0  0  0  0  0  0  0  0  0  0  0  0
   20.7831   70.8137   -5.4812 O   0  0  0  0  0  0  0  0  0  0  0  0
   23.1940   72.5448   -5.9070 O   0  0  0  0  0  0  0  0  0  0  0  0
   21.3971   73.5827   -7.6763 O   0  0  0  0  0  0  0  0  0  0  0  0
   21.9081   72.8978   -5.4000 C   0  0  1  0  0  0  0  0  0  0  0  0
   20.8933   72.9393   -6.5235 C   0  0  2  0  0  0  0  0  0  0  0  0
   21.4010   71.7350   -4.5561 C   0  0  1  0  0  0  0  0  0  0  0  0
   20.6157   71.4632   -6.7520 C   0  0  2  0  0  0  0  0  0  0  0  0
   23.5386   73.2724   -6.4490 H   0  0  0  0  0  0  0  0  0  0  0  0
   21.5575   74.5190   -7.4801 H   0  0  0  0  0  0  0  0  0  0  0  0
   19.9402   69.5521   -8.7191 O   0  0  0  0  0  0  0  0  0  0  0  0
   15.4655   70.6323   -8.4938 O   0  0  0  0  0  0  0  0  0  0  0  0
   19.2818   71.2237   -7.2260 N   0  0  0  0  0  0  0  0  0  0  0  0
   17.7127   70.0914   -8.6052 N   0  0  0  0  0  0  0  0  0  0  0  0
   19.0502   70.2417   -8.2172 C   0  0  0  0  0  0  0  0  0  0  0  0
   18.2203   71.9582   -6.7088 C   0  0  0  0  0  0  0  0  0  0  0  0
   16.9507   71.8036   -7.0904 C   0  0  0  0  0  0  0  0  0  0  0  0
   16.6230   70.7981   -8.1216 C   0  0  0  0  0  0  0  0  0  0  0  0
   17.5274   69.4132   -9.2947 H   0  0  0  0  0  0  0  0  0  0  0  0
   21.4810   72.3869   -0.3023 O   0  0  0  0  0  0  0  0  0  0  0  0
   21.4708   71.8338    1.2165 P   0  0  2  0  0  0  0  0  0  0  0  0
   21.5178   70.2277    1.0269 O   0  0  0  0  0  0  0  0  0  0  0  0
   20.3183   72.3263    2.0430 O   0  0  0  0  0  0  0  0  0  0  0  0
   22.9254   72.2179    1.8009 O   0  0  0  0  0  0  0  0  0  0  0  0
   24.5957   73.5838    0.8205 O   0  0  0  0  0  0  0  0  0  0  0  0
   27.0224   70.8601    2.7552 O   0  0  0  0  0  0  0  0  0  0  0  0
   26.8022   73.5365    3.7731 O   0  0  0  0  0  0  0  0  0  0  0  0
   24.5762   69.9702    1.4889 O   0  0  0  0  0  0  0  0  0  0  0  0
   25.8659   71.6839    2.5849 C   0  0  1  0  0  0  0  0  0  0  0  0
   26.3243   73.1405    2.4905 C   0  0  1  0  0  0  0  0  0  0  0  0
   25.1385   71.2654    1.3085 C   0  0  2  0  0  0  0  0  0  0  0  0
   25.1761   74.0548    2.0425 C   0  0  1  0  0  0  0  0  0  0  0  0
   24.0486   72.2679    0.9249 C   0  0  1  0  0  0  0  0  0  0  0  0
   27.4886   71.1203    3.5642 H   0  0  0  0  0  0  0  0  0  0  0  0
   27.5266   72.9510    4.0446 H   0  0  0  0  0  0  0  0  0  0  0  0
   25.2763   69.3447    1.7310 H   0  0  0  0  0  0  0  0  0  0  0  0
   26.0465   76.0515    3.0246 O   0  0  0  0  0  0  0  0  0  0  0  0
   25.6488   75.4847    1.7897 C   0  0  0  0  0  0  0  0  0  0  0  0
   26.3501   76.9616    2.8791 H   0  0  0  0  0  0  0  0  0  0  0  0
 25 28  1  0
 25 24  1  0
 25 26  1  6
 25 27  2  0
  1  4  1  0
  1 24  1  0
  1  2  1  6
  1  3  2  0
  6 11  1  0
  6 12  1  0
 29 36  1  0
 29 37  1  0
  9  7  1  6
  7 13  1  0
 10  8  1  6
  8 14  1  0
 37 28  1  1
  4  5  1  0
 33 30  1  6
 30 38  1  0
 34 31  1  1
 31 39  1  0
 35 32  1  1
 32 40  1  0
 41 42  1  0
 41 43  1  0
 15 19  2  0
 16 22  2  0
 12 17  1  1
 17 19  1  0
 17 20  1  0
 18 19  1  0
 18 22  1  0
 18 23  1  0
  9 10  1  0
  9 11  1  0
 10 12  1  0
 11  5  1  1
 33 34  1  0
 33 35  1  0
 34 36  1  0
 35 37  1  0
 36 42  1  6
 20 21  2  0
 21 22  1  0
M  CHG  2   2  -1  26  -1
M  END
>  <COMPND>  (351) 
    8629 

>  <AUTHOR>  (351) 
    GENERATED BY OPEN BABEL 3.1.1

>  <MASTER>  (351) 
        0    0    0    0    0    0    0    0   58    0   58    0

>  <minimizedAffinity>  (351) 
-7.29235

>  <CNNscore>  (351) 
0.6375198960

>  <CNNaffinity>  (351) 
4.3193902969

>  <CNN_VS>  (351) 
2.7536971569

>  <CNNaffinity_variance>  (351) 
0.1304811090

$$$$
352
     RDKit          3D

 43 45  0  0  0  0  0  0  0  0999 V2000
   15.7478   71.5451   -2.1014 P   0  0  2  0  0  0  0  0  0  0  0  0
   16.4492   72.6766   -1.1821 O   0  0  0  0  0  0  0  0  0  0  0  0
   14.6423   72.0426   -2.9856 O   0  0  0  0  0  0  0  0  0  0  0  0
   15.3378   70.3878   -1.0476 O   0  0  0  0  0  0  0  0  0  0  0  0
   14.0361   70.4129   -0.4884 C   0  0  0  0  0  0  0  0  0  0  0  0
   13.5733   68.2246    0.3896 O   0  0  0  0  0  0  0  0  0  0  0  0
   11.3934   68.0667   -1.6631 O   0  0  0  0  0  0  0  0  0  0  0  0
   10.0224   68.6757    0.6142 O   0  0  0  0  0  0  0  0  0  0  0  0
   11.8444   69.1918   -0.9108 C   0  0  1  0  0  0  0  0  0  0  0  0
   11.3707   69.0889    0.5240 C   0  0  2  0  0  0  0  0  0  0  0  0
   13.3557   69.0773   -0.7558 C   0  0  1  0  0  0  0  0  0  0  0  0
   12.3352   68.0671    1.1018 C   0  0  2  0  0  0  0  0  0  0  0  0
   10.4307   68.1179   -1.7755 H   0  0  0  0  0  0  0  0  0  0  0  0
    9.4486   69.3589    0.2338 H   0  0  0  0  0  0  0  0  0  0  0  0
   13.7392   66.2620    2.7596 O   0  0  0  0  0  0  0  0  0  0  0  0
   13.1897   68.9502    6.4627 O   0  0  0  0  0  0  0  0  0  0  0  0
   12.5741   68.2704    2.5028 N   0  0  0  0  0  0  0  0  0  0  0  0
   13.4646   67.6021    4.6020 N   0  0  0  0  0  0  0  0  0  0  0  0
   13.2894   67.3020    3.2451 C   0  0  0  0  0  0  0  0  0  0  0  0
   12.1015   69.4199    3.1267 C   0  0  0  0  0  0  0  0  0  0  0  0
   12.2759   69.6905    4.4219 C   0  0  0  0  0  0  0  0  0  0  0  0
   13.0129   68.7301    5.2684 C   0  0  0  0  0  0  0  0  0  0  0  0
   13.9597   66.9416    5.1391 H   0  0  0  0  0  0  0  0  0  0  0  0
   16.9980   70.8915   -2.8906 O   0  0  0  0  0  0  0  0  0  0  0  0
   17.1838   69.4334   -3.5630 P   0  0  2  0  0  0  0  0  0  0  0  0
   15.6777   69.0285   -3.9932 O   0  0  0  0  0  0  0  0  0  0  0  0
   17.8660   68.4302   -2.6786 O   0  0  0  0  0  0  0  0  0  0  0  0
   17.9430   69.7206   -4.9581 O   0  0  0  0  0  0  0  0  0  0  0  0
   19.1004   71.5761   -5.8714 O   0  0  0  0  0  0  0  0  0  0  0  0
   16.8996   70.4741   -9.1870 O   0  0  0  0  0  0  0  0  0  0  0  0
   19.7268   69.9723   -9.1309 O   0  0  0  0  0  0  0  0  0  0  0  0
   15.7128   70.3239   -6.5510 O   0  0  0  0  0  0  0  0  0  0  0  0
   17.6456   70.2550   -7.9866 C   0  0  1  0  0  0  0  0  0  0  0  0
   19.0572   70.8085   -8.1914 C   0  0  1  0  0  0  0  0  0  0  0  0
   16.9504   70.9699   -6.8294 C   0  0  2  0  0  0  0  0  0  0  0  0
   19.8323   70.8526   -6.8677 C   0  0  1  0  0  0  0  0  0  0  0  0
   17.8267   70.9997   -5.5759 C   0  0  1  0  0  0  0  0  0  0  0  0
   17.3355   70.0224   -9.9256 H   0  0  0  0  0  0  0  0  0  0  0  0
   19.2269   69.9527   -9.9621 H   0  0  0  0  0  0  0  0  0  0  0  0
   15.1671   70.3118   -7.3523 H   0  0  0  0  0  0  0  0  0  0  0  0
   21.1523   72.3419   -8.1901 O   0  0  0  0  0  0  0  0  0  0  0  0
   21.1843   71.5463   -7.0195 C   0  0  0  0  0  0  0  0  0  0  0  0
   22.0062   72.7897   -8.2994 H   0  0  0  0  0  0  0  0  0  0  0  0
 25 28  1  0
 25 24  1  0
 25 26  1  6
 25 27  2  0
  1  4  1  0
  1 24  1  0
  1  2  1  1
  1  3  2  0
  6 11  1  0
  6 12  1  0
 29 36  1  0
 29 37  1  0
  9  7  1  6
  7 13  1  0
 10  8  1  6
  8 14  1  0
 37 28  1  6
  4  5  1  0
 33 30  1  6
 30 38  1  0
 34 31  1  6
 31 39  1  0
 35 32  1  1
 32 40  1  0
 41 42  1  0
 41 43  1  0
 15 19  2  0
 16 22  2  0
 12 17  1  1
 17 19  1  0
 17 20  1  0
 18 19  1  0
 18 22  1  0
 18 23  1  0
  9 10  1  0
  9 11  1  0
 10 12  1  0
 11  5  1  1
 33 34  1  0
 33 35  1  0
 34 36  1  0
 35 37  1  0
 36 42  1  6
 20 21  2  0
 21 22  1  0
M  CHG  2   2  -1  26  -1
M  END
>  <COMPND>  (352) 
    8629 

>  <AUTHOR>  (352) 
    GENERATED BY OPEN BABEL 3.1.1

>  <MASTER>  (352) 
        0    0    0    0    0    0    0    0   58    0   58    0

>  <minimizedAffinity>  (352) 
-6.85640

>  <CNNscore>  (352) 
0.5845118165

>  <CNNaffinity>  (352) 
4.1488046646

>  <CNN_VS>  (352) 
2.4250254631

>  <CNNaffinity_variance>  (352) 
0.2341264039

$$$$
353
     RDKit          3D

 43 45  0  0  0  0  0  0  0  0999 V2000
   23.1036   72.0233   -2.8636 P   0  0  2  0  0  0  0  0  0  0  0  0
   23.6827   73.4760   -3.2778 O   0  0  0  0  0  0  0  0  0  0  0  0
   24.0542   70.8804   -3.0677 O   0  0  0  0  0  0  0  0  0  0  0  0
   21.7008   71.9218   -3.6635 O   0  0  0  0  0  0  0  0  0  0  0  0
   21.4931   72.7757   -4.7751 C   0  0  0  0  0  0  0  0  0  0  0  0
   20.7436   70.7159   -5.7597 O   0  0  0  0  0  0  0  0  0  0  0  0
   21.1798   72.0430   -8.4129 O   0  0  0  0  0  0  0  0  0  0  0  0
   18.4793   72.2384   -8.0874 O   0  0  0  0  0  0  0  0  0  0  0  0
   20.7087   72.6055   -7.1894 C   0  0  1  0  0  0  0  0  0  0  0  0
   19.2818   72.1716   -6.9262 C   0  0  2  0  0  0  0  0  0  0  0  0
   21.4606   71.9368   -6.0453 C   0  0  1  0  0  0  0  0  0  0  0  0
   19.4718   70.7491   -6.4278 C   0  0  2  0  0  0  0  0  0  0  0  0
   20.7142   72.4548   -9.1583 H   0  0  0  0  0  0  0  0  0  0  0  0
   18.3882   73.1633   -8.3650 H   0  0  0  0  0  0  0  0  0  0  0  0
   16.9506   69.7225   -7.1812 O   0  0  0  0  0  0  0  0  0  0  0  0
   15.6237   69.2586   -2.7920 O   0  0  0  0  0  0  0  0  0  0  0  0
   18.4484   70.3516   -5.5026 N   0  0  0  0  0  0  0  0  0  0  0  0
   16.2920   69.4922   -4.9951 N   0  0  0  0  0  0  0  0  0  0  0  0
   17.2171   69.8495   -5.9843 C   0  0  0  0  0  0  0  0  0  0  0  0
   18.6709   70.4611   -4.1342 C   0  0  0  0  0  0  0  0  0  0  0  0
   17.7779   70.1172   -3.2039 C   0  0  0  0  0  0  0  0  0  0  0  0
   16.4659   69.5836   -3.6232 C   0  0  0  0  0  0  0  0  0  0  0  0
   15.4269   69.1402   -5.3072 H   0  0  0  0  0  0  0  0  0  0  0  0
   22.6338   72.2423   -1.3325 O   0  0  0  0  0  0  0  0  0  0  0  0
   21.2012   72.0156   -0.6190 P   0  0  2  0  0  0  0  0  0  0  0  0
   20.8353   70.4862   -0.9990 O   0  0  0  0  0  0  0  0  0  0  0  0
   20.1539   73.0181   -1.0090 O   0  0  0  0  0  0  0  0  0  0  0  0
   21.5331   71.9751    0.9600 O   0  0  0  0  0  0  0  0  0  0  0  0
   21.9404   74.2219    1.5945 O   0  0  0  0  0  0  0  0  0  0  0  0
   22.5698   72.3831    5.2377 O   0  0  0  0  0  0  0  0  0  0  0  0
   20.1961   73.9475    4.8304 O   0  0  0  0  0  0  0  0  0  0  0  0
   23.4635   71.1024    2.8004 O   0  0  0  0  0  0  0  0  0  0  0  0
   21.9492   72.5709    3.9630 C   0  0  1  0  0  0  0  0  0  0  0  0
   21.3094   73.9605    3.9412 C   0  0  1  0  0  0  0  0  0  0  0  0
   23.0087   72.4495    2.8693 C   0  0  2  0  0  0  0  0  0  0  0  0
   20.8575   74.3401    2.5246 C   0  0  1  0  0  0  0  0  0  0  0  0
   22.4704   72.8976    1.5093 C   0  0  1  0  0  0  0  0  0  0  0  0
   21.9024   72.4584    5.9366 H   0  0  0  0  0  0  0  0  0  0  0  0
   20.4950   73.7059    5.7211 H   0  0  0  0  0  0  0  0  0  0  0  0
   23.8021   70.8308    3.6673 H   0  0  0  0  0  0  0  0  0  0  0  0
   19.0068   75.8131    2.8625 O   0  0  0  0  0  0  0  0  0  0  0  0
   20.3608   75.7822    2.4499 C   0  0  0  0  0  0  0  0  0  0  0  0
   18.6773   76.7249    2.8204 H   0  0  0  0  0  0  0  0  0  0  0  0
 25 28  1  0
 25 24  1  0
 25 26  1  6
 25 27  2  0
  1  4  1  0
  1 24  1  0
  1  2  1  6
  1  3  2  0
  6 11  1  0
  6 12  1  0
 29 36  1  0
 29 37  1  0
  9  7  1  6
  7 13  1  0
 10  8  1  6
  8 14  1  0
 37 28  1  1
  4  5  1  0
 33 30  1  1
 30 38  1  0
 34 31  1  1
 31 39  1  0
 35 32  1  6
 32 40  1  0
 41 42  1  0
 41 43  1  0
 15 19  2  0
 16 22  2  0
 12 17  1  1
 17 19  1  0
 17 20  1  0
 18 19  1  0
 18 22  1  0
 18 23  1  0
  9 10  1  0
  9 11  1  0
 10 12  1  0
 11  5  1  1
 33 34  1  0
 33 35  1  0
 34 36  1  0
 35 37  1  0
 36 42  1  1
 20 21  2  0
 21 22  1  0
M  CHG  2   2  -1  26  -1
M  END
>  <COMPND>  (353) 
    8629 

>  <AUTHOR>  (353) 
    GENERATED BY OPEN BABEL 3.1.1

>  <MASTER>  (353) 
        0    0    0    0    0    0    0    0   58    0   58    0

>  <minimizedAffinity>  (353) 
-6.95001

>  <CNNscore>  (353) 
0.5417162180

>  <CNNaffinity>  (353) 
4.1385235786

>  <CNN_VS>  (353) 
2.2419054508

>  <CNNaffinity_variance>  (353) 
0.2185838968

$$$$
354
     RDKit          3D

 43 45  0  0  0  0  0  0  0  0999 V2000
   21.8957   72.3944   -5.7852 P   0  0  2  0  0  0  0  0  0  0  0  0
   21.1717   73.6804   -5.1222 O   0  0  0  0  0  0  0  0  0  0  0  0
   23.0160   72.7151   -6.7305 O   0  0  0  0  0  0  0  0  0  0  0  0
   20.6724   71.5392   -6.4098 O   0  0  0  0  0  0  0  0  0  0  0  0
   20.2068   71.8726   -7.7059 C   0  0  0  0  0  0  0  0  0  0  0  0
   18.9061   69.9140   -7.2101 O   0  0  0  0  0  0  0  0  0  0  0  0
   18.0760   69.9648  -10.0909 O   0  0  0  0  0  0  0  0  0  0  0  0
   15.9165   71.0534   -8.8308 O   0  0  0  0  0  0  0  0  0  0  0  0
   18.3192   71.0544   -9.2028 C   0  0  1  0  0  0  0  0  0  0  0  0
   17.1803   71.1910   -8.2139 C   0  0  2  0  0  0  0  0  0  0  0  0
   19.4827   70.6708   -8.2969 C   0  0  1  0  0  0  0  0  0  0  0  0
   17.4777   70.0688   -7.2339 C   0  0  2  0  0  0  0  0  0  0  0  0
   17.3371   70.1866  -10.6798 H   0  0  0  0  0  0  0  0  0  0  0  0
   15.7742   71.7908   -9.4447 H   0  0  0  0  0  0  0  0  0  0  0  0
   16.3177   68.1766   -5.4869 O   0  0  0  0  0  0  0  0  0  0  0  0
   15.7521   71.3194   -2.1636 O   0  0  0  0  0  0  0  0  0  0  0  0
   17.0187   70.3652   -5.9061 N   0  0  0  0  0  0  0  0  0  0  0  0
   16.0372   69.7430   -3.8335 N   0  0  0  0  0  0  0  0  0  0  0  0
   16.4503   69.3431   -5.1108 C   0  0  0  0  0  0  0  0  0  0  0  0
   17.1346   71.6573   -5.4052 C   0  0  0  0  0  0  0  0  0  0  0  0
   16.7345   72.0226   -4.1854 C   0  0  0  0  0  0  0  0  0  0  0  0
   16.1299   71.0148   -3.2907 C   0  0  0  0  0  0  0  0  0  0  0  0
   15.6378   69.0478   -3.2617 H   0  0  0  0  0  0  0  0  0  0  0  0
   22.3313   71.5188   -4.4982 O   0  0  0  0  0  0  0  0  0  0  0  0
   23.3734   71.8338   -3.3033 P   0  0  2  0  0  0  0  0  0  0  0  0
   24.1097   73.1861   -3.8000 O   0  0  0  0  0  0  0  0  0  0  0  0
   24.3066   70.7014   -2.9862 O   0  0  0  0  0  0  0  0  0  0  0  0
   22.4479   72.3040   -2.0674 O   0  0  0  0  0  0  0  0  0  0  0  0
   21.8832   71.2842   -0.0039 O   0  0  0  0  0  0  0  0  0  0  0  0
   18.2043   72.8878   -0.9761 O   0  0  0  0  0  0  0  0  0  0  0  0
   19.7502   74.0652    1.1385 O   0  0  0  0  0  0  0  0  0  0  0  0
   19.8771   71.7514   -3.0474 O   0  0  0  0  0  0  0  0  0  0  0  0
   19.6326   72.8460   -0.9158 C   0  0  1  0  0  0  0  0  0  0  0  0
   20.0493   72.7999    0.5556 C   0  0  1  0  0  0  0  0  0  0  0  0
   20.1272   71.6033   -1.6538 C   0  0  2  0  0  0  0  0  0  0  0  0
   21.5447   72.4860    0.6982 C   0  0  1  0  0  0  0  0  0  0  0  0
   21.6161   71.3544   -1.4059 C   0  0  1  0  0  0  0  0  0  0  0  0
   17.8838   73.6747   -0.5097 H   0  0  0  0  0  0  0  0  0  0  0  0
   18.8031   74.2516    1.0413 H   0  0  0  0  0  0  0  0  0  0  0  0
   18.9312   71.9081   -3.1911 H   0  0  0  0  0  0  0  0  0  0  0  0
   20.7794   72.0452    2.9183 O   0  0  0  0  0  0  0  0  0  0  0  0
   21.9492   72.2797    2.1563 C   0  0  0  0  0  0  0  0  0  0  0  0
   21.0215   71.9118    3.8485 H   0  0  0  0  0  0  0  0  0  0  0  0
 25 28  1  0
 25 24  1  0
 25 26  1  6
 25 27  2  0
  1  4  1  0
  1 24  1  0
  1  2  1  1
  1  3  2  0
  6 11  1  0
  6 12  1  0
 29 36  1  0
 29 37  1  0
  9  7  1  6
  7 13  1  0
 10  8  1  6
  8 14  1  0
 37 28  1  1
  4  5  1  0
 33 30  1  1
 30 38  1  0
 34 31  1  6
 31 39  1  0
 35 32  1  6
 32 40  1  0
 41 42  1  0
 41 43  1  0
 15 19  2  0
 16 22  2  0
 12 17  1  1
 17 19  1  0
 17 20  1  0
 18 19  1  0
 18 22  1  0
 18 23  1  0
  9 10  1  0
  9 11  1  0
 10 12  1  0
 11  5  1  1
 33 34  1  0
 33 35  1  0
 34 36  1  0
 35 37  1  0
 36 42  1  1
 20 21  2  0
 21 22  1  0
M  CHG  2   2  -1  26  -1
M  END
>  <COMPND>  (354) 
    8629 

>  <AUTHOR>  (354) 
    GENERATED BY OPEN BABEL 3.1.1

>  <MASTER>  (354) 
        0    0    0    0    0    0    0    0   58    0   58    0

>  <minimizedAffinity>  (354) 
-7.69807

>  <CNNscore>  (354) 
0.5257499218

>  <CNNaffinity>  (354) 
4.2196621895

>  <CNN_VS>  (354) 
2.2184870243

>  <CNNaffinity_variance>  (354) 
0.4780476093

$$$$
355
     RDKit          3D

 43 45  0  0  0  0  0  0  0  0999 V2000
   23.1687   71.9193   -2.5246 P   0  0  2  0  0  0  0  0  0  0  0  0
   24.2617   70.8860   -3.1204 O   0  0  0  0  0  0  0  0  0  0  0  0
   23.7040   73.2771   -2.1766 O   0  0  0  0  0  0  0  0  0  0  0  0
   22.4836   71.1013   -1.3083 O   0  0  0  0  0  0  0  0  0  0  0  0
   23.2190   70.9309   -0.1092 C   0  0  0  0  0  0  0  0  0  0  0  0
   23.0831   71.1565    2.2792 O   0  0  0  0  0  0  0  0  0  0  0  0
   20.3401   72.2810    1.8293 O   0  0  0  0  0  0  0  0  0  0  0  0
   21.8391   74.5202    2.2479 O   0  0  0  0  0  0  0  0  0  0  0  0
   21.5187   72.4345    1.0402 C   0  0  1  0  0  0  0  0  0  0  0  0
   22.4866   73.3808    1.7194 C   0  0  2  0  0  0  0  0  0  0  0  0
   22.2831   71.1170    1.0772 C   0  0  1  0  0  0  0  0  0  0  0  0
   23.0870   72.4962    2.7988 C   0  0  2  0  0  0  0  0  0  0  0  0
   19.8351   73.1097    1.8205 H   0  0  0  0  0  0  0  0  0  0  0  0
   21.4741   75.0504    1.5224 H   0  0  0  0  0  0  0  0  0  0  0  0
   23.7873   74.6080    4.5388 O   0  0  0  0  0  0  0  0  0  0  0  0
   28.2936   73.8278    3.9681 O   0  0  0  0  0  0  0  0  0  0  0  0
   24.4357   72.8666    3.1231 N   0  0  0  0  0  0  0  0  0  0  0  0
   26.0305   74.2177    4.2534 N   0  0  0  0  0  0  0  0  0  0  0  0
   24.6791   73.9434    4.0073 C   0  0  0  0  0  0  0  0  0  0  0  0
   25.4998   72.1650    2.5670 C   0  0  0  0  0  0  0  0  0  0  0  0
   26.7828   72.4400    2.8109 C   0  0  0  0  0  0  0  0  0  0  0  0
   27.1235   73.5501    3.7238 C   0  0  0  0  0  0  0  0  0  0  0  0
   26.2243   74.9639    4.8660 H   0  0  0  0  0  0  0  0  0  0  0  0
   22.0150   71.9208   -3.6567 O   0  0  0  0  0  0  0  0  0  0  0  0
   21.8049   72.8579   -4.9570 P   0  0  2  0  0  0  0  0  0  0  0  0
   22.9657   72.3572   -5.9667 O   0  0  0  0  0  0  0  0  0  0  0  0
   21.8309   74.3304   -4.6650 O   0  0  0  0  0  0  0  0  0  0  0  0
   20.4315   72.3321   -5.6220 O   0  0  0  0  0  0  0  0  0  0  0  0
   19.5018   70.1528   -5.5677 O   0  0  0  0  0  0  0  0  0  0  0  0
   18.2651   71.3041   -9.3354 O   0  0  0  0  0  0  0  0  0  0  0  0
   16.3460   71.1251   -7.2063 O   0  0  0  0  0  0  0  0  0  0  0  0
   20.8869   72.0723   -8.3788 O   0  0  0  0  0  0  0  0  0  0  0  0
   18.5874   71.4944   -7.9551 C   0  0  1  0  0  0  0  0  0  0  0  0
   17.6681   70.6006   -7.1203 C   0  0  1  0  0  0  0  0  0  0  0  0
   20.0512   71.1211   -7.7283 C   0  0  2  0  0  0  0  0  0  0  0  0
   18.1275   70.5466   -5.6571 C   0  0  1  0  0  0  0  0  0  0  0  0
   20.3910   71.0478   -6.2386 C   0  0  1  0  0  0  0  0  0  0  0  0
   17.3371   71.5398   -9.4863 H   0  0  0  0  0  0  0  0  0  0  0  0
   16.0683   71.1543   -8.1354 H   0  0  0  0  0  0  0  0  0  0  0  0
   20.6622   72.1091   -9.3211 H   0  0  0  0  0  0  0  0  0  0  0  0
   16.0412   70.0885   -4.5863 O   0  0  0  0  0  0  0  0  0  0  0  0
   17.3207   69.5388   -4.8412 C   0  0  0  0  0  0  0  0  0  0  0  0
   15.5164   69.4579   -4.0680 H   0  0  0  0  0  0  0  0  0  0  0  0
 25 28  1  0
 25 24  1  0
 25 26  1  6
 25 27  2  0
  1  4  1  0
  1 24  1  0
  1  2  1  6
  1  3  2  0
  6 11  1  0
  6 12  1  0
 29 36  1  0
 29 37  1  0
  9  7  1  1
  7 13  1  0
 10  8  1  1
  8 14  1  0
 37 28  1  1
  4  5  1  0
 33 30  1  6
 30 38  1  0
 34 31  1  1
 31 39  1  0
 35 32  1  6
 32 40  1  0
 41 42  1  0
 41 43  1  0
 15 19  2  0
 16 22  2  0
 12 17  1  6
 17 19  1  0
 17 20  1  0
 18 19  1  0
 18 22  1  0
 18 23  1  0
  9 10  1  0
  9 11  1  0
 10 12  1  0
 11  5  1  6
 33 34  1  0
 33 35  1  0
 34 36  1  0
 35 37  1  0
 36 42  1  1
 20 21  2  0
 21 22  1  0
M  CHG  2   2  -1  26  -1
M  END
>  <COMPND>  (355) 
    8629 

>  <AUTHOR>  (355) 
    GENERATED BY OPEN BABEL 3.1.1

>  <MASTER>  (355) 
        0    0    0    0    0    0    0    0   58    0   58    0

>  <minimizedAffinity>  (355) 
-7.33415

>  <CNNscore>  (355) 
0.5114705563

>  <CNNaffinity>  (355) 
4.2168998718

>  <CNN_VS>  (355) 
2.1568200588

>  <CNNaffinity_variance>  (355) 
0.1552099288

$$$$
356
     RDKit          3D

 43 45  0  0  0  0  0  0  0  0999 V2000
   22.3225   72.9708   -6.6895 P   0  0  2  0  0  0  0  0  0  0  0  0
   23.0581   73.7836   -7.8794 O   0  0  0  0  0  0  0  0  0  0  0  0
   23.2364   72.4444   -5.6223 O   0  0  0  0  0  0  0  0  0  0  0  0
   21.4372   71.8615   -7.4664 O   0  0  0  0  0  0  0  0  0  0  0  0
   20.0395   72.0671   -7.5754 C   0  0  0  0  0  0  0  0  0  0  0  0
   18.8699   70.0071   -7.1730 O   0  0  0  0  0  0  0  0  0  0  0  0
   18.0753   70.1111  -10.0624 O   0  0  0  0  0  0  0  0  0  0  0  0
   15.8302   71.0016   -8.7961 O   0  0  0  0  0  0  0  0  0  0  0  0
   18.2318   71.1801   -9.1307 C   0  0  1  0  0  0  0  0  0  0  0  0
   17.0736   71.2011   -8.1550 C   0  0  2  0  0  0  0  0  0  0  0  0
   19.4071   70.8422   -8.2219 C   0  0  1  0  0  0  0  0  0  0  0  0
   17.4346   70.0652   -7.2129 C   0  0  2  0  0  0  0  0  0  0  0  0
   17.3305   70.3045  -10.6539 H   0  0  0  0  0  0  0  0  0  0  0  0
   15.6456   71.7504   -9.3842 H   0  0  0  0  0  0  0  0  0  0  0  0
   16.3238   68.0457   -5.5803 O   0  0  0  0  0  0  0  0  0  0  0  0
   15.5655   71.0007   -2.1256 O   0  0  0  0  0  0  0  0  0  0  0  0
   16.9394   70.2789   -5.8824 N   0  0  0  0  0  0  0  0  0  0  0  0
   15.9473   69.5187   -3.8614 N   0  0  0  0  0  0  0  0  0  0  0  0
   16.4002   69.1974   -5.1474 C   0  0  0  0  0  0  0  0  0  0  0  0
   16.9915   71.5493   -5.3192 C   0  0  0  0  0  0  0  0  0  0  0  0
   16.5542   71.8394   -4.0921 C   0  0  0  0  0  0  0  0  0  0  0  0
   15.9763   70.7659   -3.2579 C   0  0  0  0  0  0  0  0  0  0  0  0
   15.5672   68.7812   -3.3309 H   0  0  0  0  0  0  0  0  0  0  0  0
   21.2108   74.0208   -6.1654 O   0  0  0  0  0  0  0  0  0  0  0  0
   21.3515   75.3511   -5.2579 P   0  0  2  0  0  0  0  0  0  0  0  0
   19.8192   75.8340   -5.0674 O   0  0  0  0  0  0  0  0  0  0  0  0
   22.2629   76.3956   -5.8342 O   0  0  0  0  0  0  0  0  0  0  0  0
   21.7917   74.8084   -3.8030 O   0  0  0  0  0  0  0  0  0  0  0  0
   21.4855   72.6130   -2.9643 O   0  0  0  0  0  0  0  0  0  0  0  0
   21.2308   74.7152    0.5807 O   0  0  0  0  0  0  0  0  0  0  0  0
   23.5668   73.1370    0.0328 O   0  0  0  0  0  0  0  0  0  0  0  0
   20.0609   75.8059   -1.8321 O   0  0  0  0  0  0  0  0  0  0  0  0
   21.7118   74.4361   -0.7369 C   0  0  1  0  0  0  0  0  0  0  0  0
   22.3639   73.0520   -0.7261 C   0  0  1  0  0  0  0  0  0  0  0  0
   20.5384   74.4700   -1.7143 C   0  0  2  0  0  0  0  0  0  0  0  0
   22.6644   72.5702   -2.1518 C   0  0  1  0  0  0  0  0  0  0  0  0
   20.9319   73.9245   -3.0883 C   0  0  1  0  0  0  0  0  0  0  0  0
   21.9710   74.6957    1.2061 H   0  0  0  0  0  0  0  0  0  0  0  0
   23.3632   73.4428    0.9307 H   0  0  0  0  0  0  0  0  0  0  0  0
   19.8149   76.1396   -0.9558 H   0  0  0  0  0  0  0  0  0  0  0  0
   24.2316   71.0393   -3.1054 O   0  0  0  0  0  0  0  0  0  0  0  0
   23.1692   71.1290   -2.1739 C   0  0  0  0  0  0  0  0  0  0  0  0
   24.5631   70.1275   -3.1299 H   0  0  0  0  0  0  0  0  0  0  0  0
 25 28  1  0
 25 24  1  0
 25 26  1  1
 25 27  2  0
  1  4  1  0
  1 24  1  0
  1  2  1  6
  1  3  2  0
  6 11  1  0
  6 12  1  0
 29 36  1  0
 29 37  1  0
  9  7  1  6
  7 13  1  0
 10  8  1  6
  8 14  1  0
 37 28  1  1
  4  5  1  0
 33 30  1  1
 30 38  1  0
 34 31  1  1
 31 39  1  0
 35 32  1  6
 32 40  1  0
 41 42  1  0
 41 43  1  0
 15 19  2  0
 16 22  2  0
 12 17  1  1
 17 19  1  0
 17 20  1  0
 18 19  1  0
 18 22  1  0
 18 23  1  0
  9 10  1  0
  9 11  1  0
 10 12  1  0
 11  5  1  1
 33 34  1  0
 33 35  1  0
 34 36  1  0
 35 37  1  0
 36 42  1  1
 20 21  2  0
 21 22  1  0
M  CHG  2   2  -1  26  -1
M  END
>  <COMPND>  (356) 
    8629 

>  <AUTHOR>  (356) 
    GENERATED BY OPEN BABEL 3.1.1

>  <MASTER>  (356) 
        0    0    0    0    0    0    0    0   58    0   58    0

>  <minimizedAffinity>  (356) 
-7.00411

>  <CNNscore>  (356) 
0.5097373724

>  <CNNaffinity>  (356) 
4.2896466255

>  <CNN_VS>  (356) 
2.1865932941

>  <CNNaffinity_variance>  (356) 
0.3401386142

$$$$
357
     RDKit          3D

 43 45  0  0  0  0  0  0  0  0999 V2000
   23.4507   71.8633   -3.1376 P   0  0  2  0  0  0  0  0  0  0  0  0
   24.0701   73.1340   -3.9243 O   0  0  0  0  0  0  0  0  0  0  0  0
   24.3263   70.6450   -3.1126 O   0  0  0  0  0  0  0  0  0  0  0  0
   21.9910   71.6658   -3.8071 O   0  0  0  0  0  0  0  0  0  0  0  0
   21.5964   72.5502   -4.8415 C   0  0  0  0  0  0  0  0  0  0  0  0
   20.7065   70.5729   -5.8769 O   0  0  0  0  0  0  0  0  0  0  0  0
   21.1070   71.9877   -8.4901 O   0  0  0  0  0  0  0  0  0  0  0  0
   18.4344   72.3010   -8.0482 O   0  0  0  0  0  0  0  0  0  0  0  0
   20.7123   72.5205   -7.2270 C   0  0  1  0  0  0  0  0  0  0  0  0
   19.2764   72.1463   -6.9240 C   0  0  2  0  0  0  0  0  0  0  0  0
   21.4728   71.7682   -6.1420 C   0  0  1  0  0  0  0  0  0  0  0  0
   19.4133   70.6964   -6.4912 C   0  0  2  0  0  0  0  0  0  0  0  0
   20.6346   72.4528   -9.1990 H   0  0  0  0  0  0  0  0  0  0  0  0
   18.3796   73.2402   -8.2844 H   0  0  0  0  0  0  0  0  0  0  0  0
   16.8085   69.8500   -7.1816 O   0  0  0  0  0  0  0  0  0  0  0  0
   15.6376   69.2428   -2.7656 O   0  0  0  0  0  0  0  0  0  0  0  0
   18.4074   70.3108   -5.5421 N   0  0  0  0  0  0  0  0  0  0  0  0
   16.2277   69.5482   -4.9822 N   0  0  0  0  0  0  0  0  0  0  0  0
   17.1306   69.9024   -5.9928 C   0  0  0  0  0  0  0  0  0  0  0  0
   18.6916   70.3397   -4.1810 C   0  0  0  0  0  0  0  0  0  0  0  0
   17.8190   70.0000   -3.2299 C   0  0  0  0  0  0  0  0  0  0  0  0
   16.4624   69.5615   -3.6164 C   0  0  0  0  0  0  0  0  0  0  0  0
   15.3317   69.2607   -5.2726 H   0  0  0  0  0  0  0  0  0  0  0  0
   23.1030   72.4718   -1.6809 O   0  0  0  0  0  0  0  0  0  0  0  0
   23.1073   73.9943   -1.1380 P   0  0  2  0  0  0  0  0  0  0  0  0
   21.8662   74.6721   -1.9240 O   0  0  0  0  0  0  0  0  0  0  0  0
   24.4165   74.7073   -1.3157 O   0  0  0  0  0  0  0  0  0  0  0  0
   22.6085   73.8835    0.3930 O   0  0  0  0  0  0  0  0  0  0  0  0
   24.0549   72.3679    1.5010 O   0  0  0  0  0  0  0  0  0  0  0  0
   21.4136   73.1312    4.5819 O   0  0  0  0  0  0  0  0  0  0  0  0
   24.0664   74.2269    4.6842 O   0  0  0  0  0  0  0  0  0  0  0  0
   20.4361   72.8928    1.8676 O   0  0  0  0  0  0  0  0  0  0  0  0
   22.1899   73.4467    3.4229 C   0  0  1  0  0  0  0  0  0  0  0  0
   23.6655   73.2210    3.7580 C   0  0  1  0  0  0  0  0  0  0  0  0
   21.7559   72.5431    2.2703 C   0  0  2  0  0  0  0  0  0  0  0  0
   24.5357   73.2800    2.4953 C   0  0  1  0  0  0  0  0  0  0  0  0
   22.7159   72.6412    1.0833 C   0  0  1  0  0  0  0  0  0  0  0  0
   21.6839   73.7019    5.3173 H   0  0  0  0  0  0  0  0  0  0  0  0
   23.5089   74.1791    5.4767 H   0  0  0  0  0  0  0  0  0  0  0  0
   19.8380   72.8264    2.6277 H   0  0  0  0  0  0  0  0  0  0  0  0
   26.6493   74.0345    3.3152 O   0  0  0  0  0  0  0  0  0  0  0  0
   25.9871   72.9021    2.7827 C   0  0  0  0  0  0  0  0  0  0  0  0
   27.5741   73.8087    3.5033 H   0  0  0  0  0  0  0  0  0  0  0  0
 25 28  1  0
 25 24  1  0
 25 26  1  6
 25 27  2  0
  1  4  1  0
  1 24  1  0
  1  2  1  6
  1  3  2  0
  6 11  1  0
  6 12  1  0
 29 36  1  0
 29 37  1  0
  9  7  1  6
  7 13  1  0
 10  8  1  6
  8 14  1  0
 37 28  1  1
  4  5  1  0
 33 30  1  1
 30 38  1  0
 34 31  1  1
 31 39  1  0
 35 32  1  6
 32 40  1  0
 41 42  1  0
 41 43  1  0
 15 19  2  0
 16 22  2  0
 12 17  1  1
 17 19  1  0
 17 20  1  0
 18 19  1  0
 18 22  1  0
 18 23  1  0
  9 10  1  0
  9 11  1  0
 10 12  1  0
 11  5  1  1
 33 34  1  0
 33 35  1  0
 34 36  1  0
 35 37  1  0
 36 42  1  1
 20 21  2  0
 21 22  1  0
M  CHG  2   2  -1  26  -1
M  END
>  <COMPND>  (357) 
    8629 

>  <AUTHOR>  (357) 
    GENERATED BY OPEN BABEL 3.1.1

>  <MASTER>  (357) 
        0    0    0    0    0    0    0    0   58    0   58    0

>  <minimizedAffinity>  (357) 
-7.01881

>  <CNNscore>  (357) 
0.5076003671

>  <CNNaffinity>  (357) 
4.1260023117

>  <CNN_VS>  (357) 
2.0943603516

>  <CNNaffinity_variance>  (357) 
0.1716718674

$$$$
358
     RDKit          3D

 43 45  0  0  0  0  0  0  0  0999 V2000
   23.4951   72.3091   -3.2692 P   0  0  2  0  0  0  0  0  0  0  0  0
   24.0621   70.8013   -3.1193 O   0  0  0  0  0  0  0  0  0  0  0  0
   24.5227   73.3392   -3.6356 O   0  0  0  0  0  0  0  0  0  0  0  0
   22.7057   72.5671   -1.8806 O   0  0  0  0  0  0  0  0  0  0  0  0
   23.4617   72.7276   -0.6929 C   0  0  0  0  0  0  0  0  0  0  0  0
   24.0165   71.6993    1.4067 O   0  0  0  0  0  0  0  0  0  0  0  0
   21.5036   70.0979    1.0732 O   0  0  0  0  0  0  0  0  0  0  0  0
   20.7459   72.0318    2.8402 O   0  0  0  0  0  0  0  0  0  0  0  0
   21.7650   71.4526    0.7102 C   0  0  1  0  0  0  0  0  0  0  0  0
   21.7963   72.3308    1.9436 C   0  0  2  0  0  0  0  0  0  0  0  0
   23.2058   71.5380    0.2222 C   0  0  1  0  0  0  0  0  0  0  0  0
   23.1655   72.0146    2.5208 C   0  0  2  0  0  0  0  0  0  0  0  0
   20.5889   70.0184    1.3877 H   0  0  0  0  0  0  0  0  0  0  0  0
   19.8959   72.2502    2.4272 H   0  0  0  0  0  0  0  0  0  0  0  0
   22.5315   72.6748    5.1929 O   0  0  0  0  0  0  0  0  0  0  0  0
   25.3817   76.2966    5.1671 O   0  0  0  0  0  0  0  0  0  0  0  0
   23.7275   73.1247    3.2373 N   0  0  0  0  0  0  0  0  0  0  0  0
   23.9514   74.4775    5.1780 N   0  0  0  0  0  0  0  0  0  0  0  0
   23.3414   73.3697    4.5757 C   0  0  0  0  0  0  0  0  0  0  0  0
   24.6508   73.9565    2.6132 C   0  0  0  0  0  0  0  0  0  0  0  0
   25.2223   75.0096    3.2010 C   0  0  0  0  0  0  0  0  0  0  0  0
   24.8735   75.3349    4.5990 C   0  0  0  0  0  0  0  0  0  0  0  0
   23.6974   74.6679    6.1102 H   0  0  0  0  0  0  0  0  0  0  0  0
   22.2976   72.1422   -4.3422 O   0  0  0  0  0  0  0  0  0  0  0  0
   21.8929   73.0336   -5.6284 P   0  0  2  0  0  0  0  0  0  0  0  0
   22.9860   72.5997   -6.7395 O   0  0  0  0  0  0  0  0  0  0  0  0
   21.8346   74.5096   -5.3605 O   0  0  0  0  0  0  0  0  0  0  0  0
   20.5060   72.3931   -6.1493 O   0  0  0  0  0  0  0  0  0  0  0  0
   19.5514   70.2336   -5.9450 O   0  0  0  0  0  0  0  0  0  0  0  0
   18.5403   71.0336   -9.8679 O   0  0  0  0  0  0  0  0  0  0  0  0
   16.5031   71.0651   -7.8438 O   0  0  0  0  0  0  0  0  0  0  0  0
   21.1125   71.8738   -8.8395 O   0  0  0  0  0  0  0  0  0  0  0  0
   18.7868   71.3506   -8.4952 C   0  0  1  0  0  0  0  0  0  0  0  0
   17.8126   70.5439   -7.6344 C   0  0  1  0  0  0  0  0  0  0  0  0
   20.2314   70.9923   -8.1518 C   0  0  2  0  0  0  0  0  0  0  0  0
   18.1886   70.6247   -6.1487 C   0  0  1  0  0  0  0  0  0  0  0  0
   20.4864   71.0570   -6.6448 C   0  0  1  0  0  0  0  0  0  0  0  0
   17.6248   71.2592  -10.0926 H   0  0  0  0  0  0  0  0  0  0  0  0
   16.2782   71.0088   -8.7858 H   0  0  0  0  0  0  0  0  0  0  0  0
   20.9413   71.8234   -9.7924 H   0  0  0  0  0  0  0  0  0  0  0  0
   16.0678   70.3190   -5.0914 O   0  0  0  0  0  0  0  0  0  0  0  0
   17.3266   69.7021   -5.2896 C   0  0  0  0  0  0  0  0  0  0  0  0
   15.5084   69.7429   -4.5464 H   0  0  0  0  0  0  0  0  0  0  0  0
 25 28  1  0
 25 24  1  0
 25 26  1  6
 25 27  2  0
  1  4  1  0
  1 24  1  0
  1  2  1  1
  1  3  2  0
  6 11  1  0
  6 12  1  0
 29 36  1  0
 29 37  1  0
  9  7  1  1
  7 13  1  0
 10  8  1  1
  8 14  1  0
 37 28  1  1
  4  5  1  0
 33 30  1  6
 30 38  1  0
 34 31  1  1
 31 39  1  0
 35 32  1  6
 32 40  1  0
 41 42  1  0
 41 43  1  0
 15 19  2  0
 16 22  2  0
 12 17  1  6
 17 19  1  0
 17 20  1  0
 18 19  1  0
 18 22  1  0
 18 23  1  0
  9 10  1  0
  9 11  1  0
 10 12  1  0
 11  5  1  6
 33 34  1  0
 33 35  1  0
 34 36  1  0
 35 37  1  0
 36 42  1  1
 20 21  2  0
 21 22  1  0
M  CHG  2   2  -1  26  -1
M  END
>  <COMPND>  (358) 
    8629 

>  <AUTHOR>  (358) 
    GENERATED BY OPEN BABEL 3.1.1

>  <MASTER>  (358) 
        0    0    0    0    0    0    0    0   58    0   58    0

>  <minimizedAffinity>  (358) 
-8.00078

>  <CNNscore>  (358) 
0.5001633167

>  <CNNaffinity>  (358) 
4.1060199738

>  <CNN_VS>  (358) 
2.0536806583

>  <CNNaffinity_variance>  (358) 
0.2284818590

$$$$
359
     RDKit          3D

 43 45  0  0  0  0  0  0  0  0999 V2000
   22.9478   71.9285   -2.3765 P   0  0  2  0  0  0  0  0  0  0  0  0
   23.9924   71.5007   -3.5355 O   0  0  0  0  0  0  0  0  0  0  0  0
   22.8694   73.4024   -2.1065 O   0  0  0  0  0  0  0  0  0  0  0  0
   23.3663   71.0045   -1.1160 O   0  0  0  0  0  0  0  0  0  0  0  0
   23.8640   71.6370    0.0502 C   0  0  0  0  0  0  0  0  0  0  0  0
   23.6129   71.4893    2.4354 O   0  0  0  0  0  0  0  0  0  0  0  0
   20.6851   71.9360    1.9670 O   0  0  0  0  0  0  0  0  0  0  0  0
   21.5438   74.4012    2.7557 O   0  0  0  0  0  0  0  0  0  0  0  0
   21.8040   72.4894    1.2763 C   0  0  1  0  0  0  0  0  0  0  0  0
   22.4769   73.5463    2.1270 C   0  0  2  0  0  0  0  0  0  0  0  0
   22.8815   71.4154    1.1920 C   0  0  1  0  0  0  0  0  0  0  0  0
   23.2573   72.7017    3.1199 C   0  0  2  0  0  0  0  0  0  0  0  0
   19.9836   72.6035    2.0329 H   0  0  0  0  0  0  0  0  0  0  0  0
   21.0731   74.9170    2.0825 H   0  0  0  0  0  0  0  0  0  0  0  0
   23.3743   74.5143    5.2829 O   0  0  0  0  0  0  0  0  0  0  0  0
   27.9100   75.1374    4.7536 O   0  0  0  0  0  0  0  0  0  0  0  0
   24.4559   73.3521    3.5692 N   0  0  0  0  0  0  0  0  0  0  0  0
   25.6327   74.8229    5.0177 N   0  0  0  0  0  0  0  0  0  0  0  0
   24.4063   74.2458    4.6643 C   0  0  0  0  0  0  0  0  0  0  0  0
   25.6632   73.1013    2.9263 C   0  0  0  0  0  0  0  0  0  0  0  0
   26.8237   73.6608    3.2747 C   0  0  0  0  0  0  0  0  0  0  0  0
   26.8588   74.6065    4.4089 C   0  0  0  0  0  0  0  0  0  0  0  0
   25.6224   75.4492    5.7776 H   0  0  0  0  0  0  0  0  0  0  0  0
   21.5616   71.2607   -2.8721 O   0  0  0  0  0  0  0  0  0  0  0  0
   20.1117   71.1745   -2.1628 P   0  0  2  0  0  0  0  0  0  0  0  0
   19.6335   72.7191   -2.1070 O   0  0  0  0  0  0  0  0  0  0  0  0
   20.1180   70.4797   -0.8320 O   0  0  0  0  0  0  0  0  0  0  0  0
   19.1556   70.4915   -3.2694 O   0  0  0  0  0  0  0  0  0  0  0  0
   17.9744   72.0125   -4.6507 O   0  0  0  0  0  0  0  0  0  0  0  0
   15.8696   68.5663   -5.5135 O   0  0  0  0  0  0  0  0  0  0  0  0
   17.6498   69.6699   -7.4783 O   0  0  0  0  0  0  0  0  0  0  0  0
   16.7849   69.0611   -2.8122 O   0  0  0  0  0  0  0  0  0  0  0  0
   17.0297   69.3386   -5.1922 C   0  0  1  0  0  0  0  0  0  0  0  0
   17.2439   70.3675   -6.3041 C   0  0  1  0  0  0  0  0  0  0  0  0
   16.8101   70.0348   -3.8504 C   0  0  2  0  0  0  0  0  0  0  0  0
   18.3039   71.4026   -5.9042 C   0  0  1  0  0  0  0  0  0  0  0  0
   17.8928   71.0789   -3.5720 C   0  0  1  0  0  0  0  0  0  0  0  0
   16.0027   68.1213   -6.3642 H   0  0  0  0  0  0  0  0  0  0  0  0
   16.9721   69.0191   -7.7198 H   0  0  0  0  0  0  0  0  0  0  0  0
   16.0953   68.4061   -3.0000 H   0  0  0  0  0  0  0  0  0  0  0  0
   17.3382   72.4227   -7.8370 O   0  0  0  0  0  0  0  0  0  0  0  0
   18.4206   72.5274   -6.9305 C   0  0  0  0  0  0  0  0  0  0  0  0
   17.3993   73.1325   -8.4959 H   0  0  0  0  0  0  0  0  0  0  0  0
 25 28  1  0
 25 24  1  0
 25 26  1  1
 25 27  2  0
  1  4  1  0
  1 24  1  0
  1  2  1  6
  1  3  2  0
  6 11  1  0
  6 12  1  0
 29 36  1  0
 29 37  1  0
  9  7  1  1
  7 13  1  0
 10  8  1  1
  8 14  1  0
 37 28  1  6
  4  5  1  0
 33 30  1  6
 30 38  1  0
 34 31  1  6
 31 39  1  0
 35 32  1  1
 32 40  1  0
 41 42  1  0
 41 43  1  0
 15 19  2  0
 16 22  2  0
 12 17  1  6
 17 19  1  0
 17 20  1  0
 18 19  1  0
 18 22  1  0
 18 23  1  0
  9 10  1  0
  9 11  1  0
 10 12  1  0
 11  5  1  6
 33 34  1  0
 33 35  1  0
 34 36  1  0
 35 37  1  0
 36 42  1  6
 20 21  2  0
 21 22  1  0
M  CHG  2   2  -1  26  -1
M  END
>  <COMPND>  (359) 
    8629 

>  <AUTHOR>  (359) 
    GENERATED BY OPEN BABEL 3.1.1

>  <MASTER>  (359) 
        0    0    0    0    0    0    0    0   58    0   58    0

>  <minimizedAffinity>  (359) 
-6.56736

>  <CNNscore>  (359) 
0.4992434978

>  <CNNaffinity>  (359) 
4.1261429787

>  <CNN_VS>  (359) 
2.0599501133

>  <CNNaffinity_variance>  (359) 
0.0980436802

$$$$
360
     RDKit          3D

 43 45  0  0  0  0  0  0  0  0999 V2000
   22.3602   73.3293   -4.9430 P   0  0  2  0  0  0  0  0  0  0  0  0
   21.1453   74.3374   -5.2966 O   0  0  0  0  0  0  0  0  0  0  0  0
   23.7161   73.9688   -4.8791 O   0  0  0  0  0  0  0  0  0  0  0  0
   22.1978   72.1325   -6.0197 O   0  0  0  0  0  0  0  0  0  0  0  0
   21.1361   72.2043   -6.9553 C   0  0  0  0  0  0  0  0  0  0  0  0
   19.9067   70.2598   -6.2615 O   0  0  0  0  0  0  0  0  0  0  0  0
   19.9522   69.4332   -9.1434 O   0  0  0  0  0  0  0  0  0  0  0  0
   17.4398   70.4544   -8.8576 O   0  0  0  0  0  0  0  0  0  0  0  0
   19.8385   70.7394   -8.5812 C   0  0  1  0  0  0  0  0  0  0  0  0
   18.4536   70.9447   -8.0039 C   0  0  2  0  0  0  0  0  0  0  0  0
   20.7136   70.7917   -7.3351 C   0  0  1  0  0  0  0  0  0  0  0  0
   18.5399   70.1753   -6.6968 C   0  0  2  0  0  0  0  0  0  0  0  0
   19.4022   69.3756   -9.9410 H   0  0  0  0  0  0  0  0  0  0  0  0
   17.4250   70.9762   -9.6751 H   0  0  0  0  0  0  0  0  0  0  0  0
   16.5300   68.7301   -5.3366 O   0  0  0  0  0  0  0  0  0  0  0  0
   15.3446   72.3989   -2.8115 O   0  0  0  0  0  0  0  0  0  0  0  0
   17.6914   70.7279   -5.6789 N   0  0  0  0  0  0  0  0  0  0  0  0
   15.9415   70.5580   -4.0803 N   0  0  0  0  0  0  0  0  0  0  0  0
   16.7124   69.9172   -5.0586 C   0  0  0  0  0  0  0  0  0  0  0  0
   17.8347   72.0597   -5.3050 C   0  0  0  0  0  0  0  0  0  0  0  0
   17.0907   72.6561   -4.3712 C   0  0  0  0  0  0  0  0  0  0  0  0
   16.0451   71.8792   -3.6746 C   0  0  0  0  0  0  0  0  0  0  0  0
   15.2529   70.0129   -3.6348 H   0  0  0  0  0  0  0  0  0  0  0  0
   21.8738   72.6442   -3.5621 O   0  0  0  0  0  0  0  0  0  0  0  0
   22.2826   71.2409   -2.8717 P   0  0  2  0  0  0  0  0  0  0  0  0
   23.8884   71.1878   -3.0618 O   0  0  0  0  0  0  0  0  0  0  0  0
   21.5541   70.0491   -3.4220 O   0  0  0  0  0  0  0  0  0  0  0  0
   22.0671   71.4853   -1.2909 O   0  0  0  0  0  0  0  0  0  0  0  0
   22.1352   73.5473   -0.1246 O   0  0  0  0  0  0  0  0  0  0  0  0
   23.6051   71.0679    2.8323 O   0  0  0  0  0  0  0  0  0  0  0  0
   20.9485   72.1338    3.0664 O   0  0  0  0  0  0  0  0  0  0  0  0
   24.3670   70.6343    0.0735 O   0  0  0  0  0  0  0  0  0  0  0  0
   22.7862   71.4178    1.7132 C   0  0  1  0  0  0  0  0  0  0  0  0
   21.9027   72.6000    2.1164 C   0  0  1  0  0  0  0  0  0  0  0  0
   23.6840   71.7944    0.5361 C   0  0  2  0  0  0  0  0  0  0  0  0
   21.1921   73.2019    0.8966 C   0  0  1  0  0  0  0  0  0  0  0  0
   22.8847   72.4289   -0.6035 C   0  0  1  0  0  0  0  0  0  0  0  0
   23.0411   70.8273    3.5830 H   0  0  0  0  0  0  0  0  0  0  0  0
   21.4102   71.7557    3.8313 H   0  0  0  0  0  0  0  0  0  0  0  0
   24.8694   70.2421    0.8040 H   0  0  0  0  0  0  0  0  0  0  0  0
   19.2396   74.1171    1.9259 O   0  0  0  0  0  0  0  0  0  0  0  0
   20.4304   74.4774    1.2502 C   0  0  0  0  0  0  0  0  0  0  0  0
   18.7446   74.9190    2.1574 H   0  0  0  0  0  0  0  0  0  0  0  0
 25 28  1  0
 25 24  1  0
 25 26  1  1
 25 27  2  0
  1  4  1  0
  1 24  1  0
  1  2  1  6
  1  3  2  0
  6 11  1  0
  6 12  1  0
 29 36  1  0
 29 37  1  0
  9  7  1  1
  7 13  1  0
 10  8  1  6
  8 14  1  0
 37 28  1  1
  4  5  1  0
 33 30  1  1
 30 38  1  0
 34 31  1  1
 31 39  1  0
 35 32  1  6
 32 40  1  0
 41 42  1  0
 41 43  1  0
 15 19  2  0
 16 22  2  0
 12 17  1  1
 17 19  1  0
 17 20  1  0
 18 19  1  0
 18 22  1  0
 18 23  1  0
  9 10  1  0
  9 11  1  0
 10 12  1  0
 11  5  1  1
 33 34  1  0
 33 35  1  0
 34 36  1  0
 35 37  1  0
 36 42  1  1
 20 21  2  0
 21 22  1  0
M  CHG  2   2  -1  26  -1
M  END
>  <COMPND>  (360) 
    8629 

>  <AUTHOR>  (360) 
    GENERATED BY OPEN BABEL 3.1.1

>  <MASTER>  (360) 
        0    0    0    0    0    0    0    0   58    0   58    0

>  <minimizedAffinity>  (360) 
-6.95162

>  <CNNscore>  (360) 
0.4696048498

>  <CNNaffinity>  (360) 
4.3089418411

>  <CNN_VS>  (360) 
2.0234999657

>  <CNNaffinity_variance>  (360) 
0.1370133162

$$$$
361
     RDKit          3D

 43 45  0  0  0  0  0  0  0  0999 V2000
   20.5738   71.2426   -1.5699 P   0  0  2  0  0  0  0  0  0  0  0  0
   21.2523   70.5225   -0.2898 O   0  0  0  0  0  0  0  0  0  0  0  0
   20.0676   72.6329   -1.3205 O   0  0  0  0  0  0  0  0  0  0  0  0
   19.4703   70.1735   -2.0772 O   0  0  0  0  0  0  0  0  0  0  0  0
   19.1250   70.1588   -3.4514 C   0  0  0  0  0  0  0  0  0  0  0  0
   17.5308   71.3147   -4.8284 O   0  0  0  0  0  0  0  0  0  0  0  0
   15.4197   69.8083   -3.3234 O   0  0  0  0  0  0  0  0  0  0  0  0
   15.6016   68.4066   -5.6555 O   0  0  0  0  0  0  0  0  0  0  0  0
   16.7189   69.3795   -3.7277 C   0  0  1  0  0  0  0  0  0  0  0  0
   16.7445   69.1132   -5.2184 C   0  0  2  0  0  0  0  0  0  0  0  0
   17.6656   70.5664   -3.6003 C   0  0  1  0  0  0  0  0  0  0  0  0
   16.8159   70.5197   -5.7884 C   0  0  2  0  0  0  0  0  0  0  0  0
   14.7976   69.0669   -3.3959 H   0  0  0  0  0  0  0  0  0  0  0  0
   15.6018   67.5184   -5.2659 H   0  0  0  0  0  0  0  0  0  0  0  0
   15.5502   70.5752   -8.3129 O   0  0  0  0  0  0  0  0  0  0  0  0
   19.5848   70.7002  -10.5371 O   0  0  0  0  0  0  0  0  0  0  0  0
   17.5113   70.5673   -7.0436 N   0  0  0  0  0  0  0  0  0  0  0  0
   17.5601   70.6376   -9.4183 N   0  0  0  0  0  0  0  0  0  0  0  0
   16.7814   70.5911   -8.2549 C   0  0  0  0  0  0  0  0  0  0  0  0
   18.9016   70.5902   -7.0651 C   0  0  0  0  0  0  0  0  0  0  0  0
   19.6293   70.6333   -8.1831 C   0  0  0  0  0  0  0  0  0  0  0  0
   18.9439   70.6606   -9.4914 C   0  0  0  0  0  0  0  0  0  0  0  0
   17.0733   70.6545  -10.2741 H   0  0  0  0  0  0  0  0  0  0  0  0
   21.7262   71.1386   -2.6986 O   0  0  0  0  0  0  0  0  0  0  0  0
   23.1370   71.9131   -2.8498 P   0  0  2  0  0  0  0  0  0  0  0  0
   24.2147   70.7090   -2.9288 O   0  0  0  0  0  0  0  0  0  0  0  0
   23.4075   72.9163   -1.7661 O   0  0  0  0  0  0  0  0  0  0  0  0
   23.1061   72.5309   -4.3406 O   0  0  0  0  0  0  0  0  0  0  0  0
   21.0277   73.6694   -4.3669 O   0  0  0  0  0  0  0  0  0  0  0  0
   22.4530   74.8123   -8.0701 O   0  0  0  0  0  0  0  0  0  0  0  0
   22.3720   76.7254   -5.9297 O   0  0  0  0  0  0  0  0  0  0  0  0
   22.9202   72.1214   -7.1106 O   0  0  0  0  0  0  0  0  0  0  0  0
   22.5522   74.4637   -6.6866 C   0  0  1  0  0  0  0  0  0  0  0  0
   21.7178   75.4606   -5.8798 C   0  0  1  0  0  0  0  0  0  0  0  0
   22.0285   73.0421   -6.4912 C   0  0  2  0  0  0  0  0  0  0  0  0
   21.5572   74.9990   -4.4251 C   0  0  1  0  0  0  0  0  0  0  0  0
   21.8592   72.7012   -5.0096 C   0  0  1  0  0  0  0  0  0  0  0  0
   22.7844   75.7137   -8.2010 H   0  0  0  0  0  0  0  0  0  0  0  0
   22.4677   77.0052   -6.8537 H   0  0  0  0  0  0  0  0  0  0  0  0
   23.0187   72.3478   -8.0481 H   0  0  0  0  0  0  0  0  0  0  0  0
   19.6674   75.0732   -2.9650 O   0  0  0  0  0  0  0  0  0  0  0  0
   20.5993   75.8952   -3.6432 C   0  0  0  0  0  0  0  0  0  0  0  0
   19.0514   75.6300   -2.4627 H   0  0  0  0  0  0  0  0  0  0  0  0
 25 28  1  0
 25 24  1  0
 25 26  1  6
 25 27  2  0
  1  4  1  0
  1 24  1  0
  1  2  1  1
  1  3  2  0
  6 11  1  0
  6 12  1  0
 29 36  1  0
 29 37  1  0
  9  7  1  6
  7 13  1  0
 10  8  1  6
  8 14  1  0
 37 28  1  1
  4  5  1  0
 33 30  1  6
 30 38  1  0
 34 31  1  1
 31 39  1  0
 35 32  1  1
 32 40  1  0
 41 42  1  0
 41 43  1  0
 15 19  2  0
 16 22  2  0
 12 17  1  6
 17 19  1  0
 17 20  1  0
 18 19  1  0
 18 22  1  0
 18 23  1  0
  9 10  1  0
  9 11  1  0
 10 12  1  0
 11  5  1  6
 33 34  1  0
 33 35  1  0
 34 36  1  0
 35 37  1  0
 36 42  1  1
 20 21  2  0
 21 22  1  0
M  CHG  2   2  -1  26  -1
M  END
>  <COMPND>  (361) 
    8629 

>  <AUTHOR>  (361) 
    GENERATED BY OPEN BABEL 3.1.1

>  <MASTER>  (361) 
        0    0    0    0    0    0    0    0   58    0   58    0

>  <minimizedAffinity>  (361) 
-7.91873

>  <CNNscore>  (361) 
0.9259009361

>  <CNNaffinity>  (361) 
4.7223305702

>  <CNN_VS>  (361) 
4.3724102974

>  <CNNaffinity_variance>  (361) 
0.4966490865

$$$$
362
     RDKit          3D

 43 45  0  0  0  0  0  0  0  0999 V2000
   22.7064   71.3952   -2.6240 P   0  0  2  0  0  0  0  0  0  0  0  0
   24.1143   70.7407   -3.0790 O   0  0  0  0  0  0  0  0  0  0  0  0
   22.2121   70.9610   -1.2754 O   0  0  0  0  0  0  0  0  0  0  0  0
   21.7165   71.0900   -3.8669 O   0  0  0  0  0  0  0  0  0  0  0  0
   20.7451   70.0686   -3.7225 C   0  0  0  0  0  0  0  0  0  0  0  0
   19.0065   71.4452   -4.6478 O   0  0  0  0  0  0  0  0  0  0  0  0
   17.2396   70.3359   -2.4941 O   0  0  0  0  0  0  0  0  0  0  0  0
   16.5005   68.8797   -4.6781 O   0  0  0  0  0  0  0  0  0  0  0  0
   18.2775   69.6913   -3.2307 C   0  0  1  0  0  0  0  0  0  0  0  0
   17.8152   69.3965   -4.6424 C   0  0  2  0  0  0  0  0  0  0  0  0
   19.3875   70.7082   -3.4654 C   0  0  1  0  0  0  0  0  0  0  0  0
   17.9251   70.7609   -5.3014 C   0  0  2  0  0  0  0  0  0  0  0  0
   16.5194   69.7059   -2.3317 H   0  0  0  0  0  0  0  0  0  0  0  0
   16.4825   68.0111   -4.2469 H   0  0  0  0  0  0  0  0  0  0  0  0
   15.9724   70.3891   -7.3081 O   0  0  0  0  0  0  0  0  0  0  0  0
   19.1411   70.4238  -10.6546 O   0  0  0  0  0  0  0  0  0  0  0  0
   18.2119   70.6696   -6.7053 N   0  0  0  0  0  0  0  0  0  0  0  0
   17.5517   70.4069   -8.9728 N   0  0  0  0  0  0  0  0  0  0  0  0
   17.1587   70.4816   -7.6304 C   0  0  0  0  0  0  0  0  0  0  0  0
   19.5252   70.7668   -7.1521 C   0  0  0  0  0  0  0  0  0  0  0  0
   19.8835   70.6922   -8.4355 C   0  0  0  0  0  0  0  0  0  0  0  0
   18.8437   70.4964   -9.4663 C   0  0  0  0  0  0  0  0  0  0  0  0
   16.8350   70.2757   -9.6352 H   0  0  0  0  0  0  0  0  0  0  0  0
   22.9823   72.9821   -2.7604 O   0  0  0  0  0  0  0  0  0  0  0  0
   21.9631   74.2278   -2.9095 P   0  0  2  0  0  0  0  0  0  0  0  0
   22.6912   75.4052   -2.0722 O   0  0  0  0  0  0  0  0  0  0  0  0
   20.5594   73.9307   -2.4675 O   0  0  0  0  0  0  0  0  0  0  0  0
   22.0965   74.6824   -4.4524 O   0  0  0  0  0  0  0  0  0  0  0  0
   20.3849   74.9311   -6.0727 O   0  0  0  0  0  0  0  0  0  0  0  0
   23.4353   73.6246   -8.5302 O   0  0  0  0  0  0  0  0  0  0  0  0
   22.6021   76.3708   -8.6418 O   0  0  0  0  0  0  0  0  0  0  0  0
   23.1347   72.5006   -5.8796 O   0  0  0  0  0  0  0  0  0  0  0  0
   22.8642   74.3288   -7.4242 C   0  0  1  0  0  0  0  0  0  0  0  0
   21.8663   75.3518   -7.9706 C   0  0  1  0  0  0  0  0  0  0  0  0
   22.1621   73.3305   -6.5056 C   0  0  2  0  0  0  0  0  0  0  0  0
   21.0208   75.9581   -6.8426 C   0  0  1  0  0  0  0  0  0  0  0  0
   21.3095   74.0370   -5.4501 C   0  0  1  0  0  0  0  0  0  0  0  0
   23.8830   74.2527   -9.1171 H   0  0  0  0  0  0  0  0  0  0  0  0
   23.1320   75.9746   -9.3513 H   0  0  0  0  0  0  0  0  0  0  0  0
   23.6676   72.0588   -6.5583 H   0  0  0  0  0  0  0  0  0  0  0  0
   18.8321   76.0497   -7.7967 O   0  0  0  0  0  0  0  0  0  0  0  0
   19.9139   76.8625   -7.3803 C   0  0  0  0  0  0  0  0  0  0  0  0
   18.1199   76.6118   -8.1410 H   0  0  0  0  0  0  0  0  0  0  0  0
 25 28  1  0
 25 24  1  0
 25 26  1  1
 25 27  2  0
  1  4  1  0
  1 24  1  0
  1  2  1  6
  1  3  2  0
  6 11  1  0
  6 12  1  0
 29 36  1  0
 29 37  1  0
  9  7  1  1
  7 13  1  0
 10  8  1  1
  8 14  1  0
 37 28  1  1
  4  5  1  0
 33 30  1  6
 30 38  1  0
 34 31  1  1
 31 39  1  0
 35 32  1  1
 32 40  1  0
 41 42  1  0
 41 43  1  0
 15 19  2  0
 16 22  2  0
 12 17  1  6
 17 19  1  0
 17 20  1  0
 18 19  1  0
 18 22  1  0
 18 23  1  0
  9 10  1  0
  9 11  1  0
 10 12  1  0
 11  5  1  6
 33 34  1  0
 33 35  1  0
 34 36  1  0
 35 37  1  0
 36 42  1  6
 20 21  2  0
 21 22  1  0
M  CHG  2   2  -1  26  -1
M  END
>  <COMPND>  (362) 
    8629 

>  <AUTHOR>  (362) 
    GENERATED BY OPEN BABEL 3.1.1

>  <MASTER>  (362) 
        0    0    0    0    0    0    0    0   58    0   58    0

>  <minimizedAffinity>  (362) 
-7.23549

>  <CNNscore>  (362) 
0.9034813046

>  <CNNaffinity>  (362) 
4.6638860703

>  <CNN_VS>  (362) 
4.2137336731

>  <CNNaffinity_variance>  (362) 
0.3557060659

$$$$
363
     RDKit          3D

 43 45  0  0  0  0  0  0  0  0999 V2000
   22.9685   71.9298   -2.4999 P   0  0  2  0  0  0  0  0  0  0  0  0
   23.3916   73.3485   -1.8474 O   0  0  0  0  0  0  0  0  0  0  0  0
   24.0087   71.3018   -3.3802 O   0  0  0  0  0  0  0  0  0  0  0  0
   21.5440   72.2354   -3.2036 O   0  0  0  0  0  0  0  0  0  0  0  0
   20.7905   71.1456   -3.7061 C   0  0  0  0  0  0  0  0  0  0  0  0
   18.7300   71.9268   -4.6642 O   0  0  0  0  0  0  0  0  0  0  0  0
   17.3607   70.5254   -2.3944 O   0  0  0  0  0  0  0  0  0  0  0  0
   17.0270   68.7770   -4.4604 O   0  0  0  0  0  0  0  0  0  0  0  0
   18.5277   70.1411   -3.1194 C   0  0  1  0  0  0  0  0  0  0  0  0
   18.1490   69.6353   -4.4958 C   0  0  2  0  0  0  0  0  0  0  0  0
   19.3122   71.4048   -3.4498 C   0  0  1  0  0  0  0  0  0  0  0  0
   17.8717   70.9295   -5.2418 C   0  0  2  0  0  0  0  0  0  0  0  0
   16.8436   69.7348   -2.1719 H   0  0  0  0  0  0  0  0  0  0  0  0
   17.2536   67.9682   -3.9754 H   0  0  0  0  0  0  0  0  0  0  0  0
   15.9485   71.2316   -7.2882 O   0  0  0  0  0  0  0  0  0  0  0  0
   19.0803   70.5049  -10.5905 O   0  0  0  0  0  0  0  0  0  0  0  0
   18.1571   70.8247   -6.6450 N   0  0  0  0  0  0  0  0  0  0  0  0
   17.5095   70.8697   -8.9308 N   0  0  0  0  0  0  0  0  0  0  0  0
   17.1192   70.9923   -7.5911 C   0  0  0  0  0  0  0  0  0  0  0  0
   19.4540   70.5588   -7.0704 C   0  0  0  0  0  0  0  0  0  0  0  0
   19.8095   70.4437   -8.3517 C   0  0  0  0  0  0  0  0  0  0  0  0
   18.7850   70.6050   -9.4036 C   0  0  0  0  0  0  0  0  0  0  0  0
   16.8031   70.9822   -9.6077 H   0  0  0  0  0  0  0  0  0  0  0  0
   22.5550   71.0459   -1.2113 O   0  0  0  0  0  0  0  0  0  0  0  0
   21.7194   71.4326    0.1173 P   0  0  2  0  0  0  0  0  0  0  0  0
   21.5003   70.0050    0.8464 O   0  0  0  0  0  0  0  0  0  0  0  0
   20.4522   72.1914   -0.1518 O   0  0  0  0  0  0  0  0  0  0  0  0
   22.7787   72.2104    1.0542 O   0  0  0  0  0  0  0  0  0  0  0  0
   24.4938   71.8494    2.6494 O   0  0  0  0  0  0  0  0  0  0  0  0
   21.9237   74.1224    4.9470 O   0  0  0  0  0  0  0  0  0  0  0  0
   24.3788   75.2760    4.0038 O   0  0  0  0  0  0  0  0  0  0  0  0
   20.8602   72.1619    3.1017 O   0  0  0  0  0  0  0  0  0  0  0  0
   22.5836   73.7168    3.7447 C   0  0  1  0  0  0  0  0  0  0  0  0
   24.0913   73.8816    3.9462 C   0  0  1  0  0  0  0  0  0  0  0  0
   22.2365   72.2583    3.4525 C   0  0  2  0  0  0  0  0  0  0  0  0
   24.8780   73.2204    2.8065 C   0  0  1  0  0  0  0  0  0  0  0  0
   23.1097   71.6826    2.3361 C   0  0  1  0  0  0  0  0  0  0  0  0
   22.1396   75.0478    5.1380 H   0  0  0  0  0  0  0  0  0  0  0  0
   23.8754   75.6816    4.7272 H   0  0  0  0  0  0  0  0  0  0  0  0
   20.3180   72.5293    3.8165 H   0  0  0  0  0  0  0  0  0  0  0  0
   26.8958   71.9408    2.8093 O   0  0  0  0  0  0  0  0  0  0  0  0
   26.3827   73.2349    3.0667 C   0  0  0  0  0  0  0  0  0  0  0  0
   27.8527   71.9351    2.9704 H   0  0  0  0  0  0  0  0  0  0  0  0
 25 28  1  0
 25 24  1  0
 25 26  1  1
 25 27  2  0
  1  4  1  0
  1 24  1  0
  1  2  1  1
  1  3  2  0
  6 11  1  0
  6 12  1  0
 29 36  1  0
 29 37  1  0
  9  7  1  1
  7 13  1  0
 10  8  1  1
  8 14  1  0
 37 28  1  6
  4  5  1  0
 33 30  1  1
 30 38  1  0
 34 31  1  6
 31 39  1  0
 35 32  1  6
 32 40  1  0
 41 42  1  0
 41 43  1  0
 15 19  2  0
 16 22  2  0
 12 17  1  6
 17 19  1  0
 17 20  1  0
 18 19  1  0
 18 22  1  0
 18 23  1  0
  9 10  1  0
  9 11  1  0
 10 12  1  0
 11  5  1  6
 33 34  1  0
 33 35  1  0
 34 36  1  0
 35 37  1  0
 36 42  1  1
 20 21  2  0
 21 22  1  0
M  CHG  2   2  -1  26  -1
M  END
>  <COMPND>  (363) 
    8629 

>  <AUTHOR>  (363) 
    GENERATED BY OPEN BABEL 3.1.1

>  <MASTER>  (363) 
        0    0    0    0    0    0    0    0   58    0   58    0

>  <minimizedAffinity>  (363) 
-7.76186

>  <CNNscore>  (363) 
0.9013140798

>  <CNNaffinity>  (363) 
4.7121133804

>  <CNN_VS>  (363) 
4.2470941544

>  <CNNaffinity_variance>  (363) 
0.0566694029

$$$$
364
     RDKit          3D

 43 45  0  0  0  0  0  0  0  0999 V2000
   22.5505   72.0259   -3.7688 P   0  0  2  0  0  0  0  0  0  0  0  0
   23.4401   72.4139   -5.0633 O   0  0  0  0  0  0  0  0  0  0  0  0
   23.1754   71.0181   -2.8495 O   0  0  0  0  0  0  0  0  0  0  0  0
   21.1159   71.6132   -4.3929 O   0  0  0  0  0  0  0  0  0  0  0  0
   20.3780   70.5790   -3.7655 C   0  0  0  0  0  0  0  0  0  0  0  0
   18.5269   71.6341   -4.8764 O   0  0  0  0  0  0  0  0  0  0  0  0
   16.7915   70.3665   -2.7853 O   0  0  0  0  0  0  0  0  0  0  0  0
   16.4371   68.7198   -4.9299 O   0  0  0  0  0  0  0  0  0  0  0  0
   17.9642   69.8545   -3.4161 C   0  0  1  0  0  0  0  0  0  0  0  0
   17.6547   69.4308   -4.8368 C   0  0  2  0  0  0  0  0  0  0  0  0
   18.9256   71.0164   -3.6331 C   0  0  1  0  0  0  0  0  0  0  0  0
   17.6092   70.7656   -5.5609 C   0  0  2  0  0  0  0  0  0  0  0  0
   16.1625   69.6425   -2.6362 H   0  0  0  0  0  0  0  0  0  0  0  0
   16.5165   67.8785   -4.4539 H   0  0  0  0  0  0  0  0  0  0  0  0
   15.8346   70.2742   -7.7027 O   0  0  0  0  0  0  0  0  0  0  0  0
   19.2509   70.3659  -10.7949 O   0  0  0  0  0  0  0  0  0  0  0  0
   18.0078   70.6566   -6.9359 N   0  0  0  0  0  0  0  0  0  0  0  0
   17.5370   70.3204   -9.2406 N   0  0  0  0  0  0  0  0  0  0  0  0
   17.0379   70.4073   -7.9347 C   0  0  0  0  0  0  0  0  0  0  0  0
   19.3473   70.7969   -7.2823 C   0  0  0  0  0  0  0  0  0  0  0  0
   19.8072   70.7100   -8.5322 C   0  0  0  0  0  0  0  0  0  0  0  0
   18.8591   70.4513   -9.6351 C   0  0  0  0  0  0  0  0  0  0  0  0
   16.8797   70.1469   -9.9530 H   0  0  0  0  0  0  0  0  0  0  0  0
   22.2517   73.4619   -3.0895 O   0  0  0  0  0  0  0  0  0  0  0  0
   21.1380   73.9137   -2.0085 P   0  0  2  0  0  0  0  0  0  0  0  0
   21.7340   75.2968   -1.4175 O   0  0  0  0  0  0  0  0  0  0  0  0
   20.8342   72.8755   -0.9674 O   0  0  0  0  0  0  0  0  0  0  0  0
   19.8667   74.3636   -2.8953 O   0  0  0  0  0  0  0  0  0  0  0  0
   20.7096   75.4189   -4.8428 O   0  0  0  0  0  0  0  0  0  0  0  0
   16.6676   75.9436   -5.5048 O   0  0  0  0  0  0  0  0  0  0  0  0
   18.1271   74.0380   -7.0817 O   0  0  0  0  0  0  0  0  0  0  0  0
   17.7356   76.1880   -2.8254 O   0  0  0  0  0  0  0  0  0  0  0  0
   17.8340   75.2560   -5.0442 C   0  0  1  0  0  0  0  0  0  0  0  0
   18.7499   75.0082   -6.2444 C   0  0  1  0  0  0  0  0  0  0  0  0
   18.5399   76.1163   -3.9978 C   0  0  2  0  0  0  0  0  0  0  0  0
   20.1324   74.5171   -5.7942 C   0  0  1  0  0  0  0  0  0  0  0  0
   19.9263   75.5669   -3.6568 C   0  0  1  0  0  0  0  0  0  0  0  0
   16.2145   75.4025   -6.1692 H   0  0  0  0  0  0  0  0  0  0  0  0
   17.2549   74.3602   -7.3586 H   0  0  0  0  0  0  0  0  0  0  0  0
   16.8609   76.5375   -3.0545 H   0  0  0  0  0  0  0  0  0  0  0  0
   22.4117   74.7066   -6.4854 O   0  0  0  0  0  0  0  0  0  0  0  0
   21.1111   74.4143   -6.9620 C   0  0  0  0  0  0  0  0  0  0  0  0
   23.0453   74.6447   -7.2178 H   0  0  0  0  0  0  0  0  0  0  0  0
 25 28  1  0
 25 24  1  0
 25 26  1  1
 25 27  2  0
  1  4  1  0
  1 24  1  0
  1  2  1  6
  1  3  2  0
  6 11  1  0
  6 12  1  0
 29 36  1  0
 29 37  1  0
  9  7  1  6
  7 13  1  0
 10  8  1  1
  8 14  1  0
 37 28  1  6
  4  5  1  0
 33 30  1  6
 30 38  1  0
 34 31  1  6
 31 39  1  0
 35 32  1  1
 32 40  1  0
 41 42  1  0
 41 43  1  0
 15 19  2  0
 16 22  2  0
 12 17  1  6
 17 19  1  0
 17 20  1  0
 18 19  1  0
 18 22  1  0
 18 23  1  0
  9 10  1  0
  9 11  1  0
 10 12  1  0
 11  5  1  6
 33 34  1  0
 33 35  1  0
 34 36  1  0
 35 37  1  0
 36 42  1  6
 20 21  2  0
 21 22  1  0
M  CHG  2   2  -1  26  -1
M  END
>  <COMPND>  (364) 
    8629 

>  <AUTHOR>  (364) 
    GENERATED BY OPEN BABEL 3.1.1

>  <MASTER>  (364) 
        0    0    0    0    0    0    0    0   58    0   58    0

>  <minimizedAffinity>  (364) 
-6.22539

>  <CNNscore>  (364) 
0.9005556107

>  <CNNaffinity>  (364) 
4.5355606079

>  <CNN_VS>  (364) 
4.0845246315

>  <CNNaffinity_variance>  (364) 
0.2121720314

$$$$
365
     RDKit          3D

 43 45  0  0  0  0  0  0  0  0999 V2000
   23.0003   71.5350   -2.5592 P   0  0  2  0  0  0  0  0  0  0  0  0
   23.1777   73.0973   -2.1785 O   0  0  0  0  0  0  0  0  0  0  0  0
   24.2153   70.8857   -3.1539 O   0  0  0  0  0  0  0  0  0  0  0  0
   21.6685   71.5077   -3.4776 O   0  0  0  0  0  0  0  0  0  0  0  0
   20.8676   70.3388   -3.4726 C   0  0  0  0  0  0  0  0  0  0  0  0
   18.9121   71.4072   -4.3719 O   0  0  0  0  0  0  0  0  0  0  0  0
   17.3753   69.9774   -2.2307 O   0  0  0  0  0  0  0  0  0  0  0  0
   16.8876   68.4474   -4.4347 O   0  0  0  0  0  0  0  0  0  0  0  0
   18.5051   69.5330   -2.9799 C   0  0  1  0  0  0  0  0  0  0  0  0
   18.0933   69.1833   -4.3947 C   0  0  2  0  0  0  0  0  0  0  0  0
   19.4212   70.7300   -3.2020 C   0  0  1  0  0  0  0  0  0  0  0  0
   17.9620   70.5557   -5.0330 C   0  0  2  0  0  0  0  0  0  0  0  0
   16.7758   69.2300   -2.0760 H   0  0  0  0  0  0  0  0  0  0  0  0
   17.0225   67.5825   -4.0168 H   0  0  0  0  0  0  0  0  0  0  0  0
   16.1014   69.8501   -7.0375 O   0  0  0  0  0  0  0  0  0  0  0  0
   19.1890   70.5139  -10.3942 O   0  0  0  0  0  0  0  0  0  0  0  0
   18.2527   70.5359   -6.4389 N   0  0  0  0  0  0  0  0  0  0  0  0
   17.6402   70.1814   -8.7073 N   0  0  0  0  0  0  0  0  0  0  0  0
   17.2478   70.1657   -7.3628 C   0  0  0  0  0  0  0  0  0  0  0  0
   19.5224   70.8813   -6.8889 C   0  0  0  0  0  0  0  0  0  0  0  0
   19.8810   70.8899   -8.1744 C   0  0  0  0  0  0  0  0  0  0  0  0
   18.8900   70.5159   -9.2040 C   0  0  0  0  0  0  0  0  0  0  0  0
   16.9567   69.9267   -9.3689 H   0  0  0  0  0  0  0  0  0  0  0  0
   22.4977   70.8773   -1.1708 O   0  0  0  0  0  0  0  0  0  0  0  0
   21.7119   71.5222    0.0861 P   0  0  2  0  0  0  0  0  0  0  0  0
   21.4379   70.2486    1.0454 O   0  0  0  0  0  0  0  0  0  0  0  0
   20.4785   72.2919   -0.2886 O   0  0  0  0  0  0  0  0  0  0  0  0
   22.8290   72.3873    0.8661 O   0  0  0  0  0  0  0  0  0  0  0  0
   21.9256   73.9473    2.4046 O   0  0  0  0  0  0  0  0  0  0  0  0
   25.8228   75.3077    2.2973 O   0  0  0  0  0  0  0  0  0  0  0  0
   24.8671   73.9254    4.6262 O   0  0  0  0  0  0  0  0  0  0  0  0
   24.5558   74.3634   -0.1280 O   0  0  0  0  0  0  0  0  0  0  0  0
   24.7848   74.3243    2.2693 C   0  0  1  0  0  0  0  0  0  0  0  0
   24.0145   74.4023    3.5889 C   0  0  1  0  0  0  0  0  0  0  0  0
   23.8587   74.6095    1.0885 C   0  0  2  0  0  0  0  0  0  0  0  0
   22.7276   73.5684    3.5293 C   0  0  1  0  0  0  0  0  0  0  0  0
   22.5864   73.7625    1.1511 C   0  0  1  0  0  0  0  0  0  0  0  0
   26.4147   75.1321    3.0446 H   0  0  0  0  0  0  0  0  0  0  0  0
   25.6762   74.4600    4.6529 H   0  0  0  0  0  0  0  0  0  0  0  0
   25.3590   74.9056   -0.1557 H   0  0  0  0  0  0  0  0  0  0  0  0
   22.2679   72.8098    5.7479 O   0  0  0  0  0  0  0  0  0  0  0  0
   21.8656   73.7570    4.7756 C   0  0  0  0  0  0  0  0  0  0  0  0
   21.7280   72.9183    6.5469 H   0  0  0  0  0  0  0  0  0  0  0  0
 25 28  1  0
 25 24  1  0
 25 26  1  1
 25 27  2  0
  1  4  1  0
  1 24  1  0
  1  2  1  1
  1  3  2  0
  6 11  1  0
  6 12  1  0
 29 36  1  0
 29 37  1  0
  9  7  1  1
  7 13  1  0
 10  8  1  1
  8 14  1  0
 37 28  1  1
  4  5  1  0
 33 30  1  1
 30 38  1  0
 34 31  1  1
 31 39  1  0
 35 32  1  6
 32 40  1  0
 41 42  1  0
 41 43  1  0
 15 19  2  0
 16 22  2  0
 12 17  1  6
 17 19  1  0
 17 20  1  0
 18 19  1  0
 18 22  1  0
 18 23  1  0
  9 10  1  0
  9 11  1  0
 10 12  1  0
 11  5  1  6
 33 34  1  0
 33 35  1  0
 34 36  1  0
 35 37  1  0
 36 42  1  1
 20 21  2  0
 21 22  1  0
M  CHG  2   2  -1  26  -1
M  END
>  <COMPND>  (365) 
    8629 

>  <AUTHOR>  (365) 
    GENERATED BY OPEN BABEL 3.1.1

>  <MASTER>  (365) 
        0    0    0    0    0    0    0    0   58    0   58    0

>  <minimizedAffinity>  (365) 
-7.67304

>  <CNNscore>  (365) 
0.8997713327

>  <CNNaffinity>  (365) 
4.7475070953

>  <CNN_VS>  (365) 
4.2716708183

>  <CNNaffinity_variance>  (365) 
0.0792931318

$$$$
366
     RDKit          3D

 43 45  0  0  0  0  0  0  0  0999 V2000
   20.9480   71.4425   -2.9386 P   0  0  2  0  0  0  0  0  0  0  0  0
   20.9612   70.6856   -4.3684 O   0  0  0  0  0  0  0  0  0  0  0  0
   21.5392   70.6609   -1.8023 O   0  0  0  0  0  0  0  0  0  0  0  0
   19.4057   71.8949   -2.7529 O   0  0  0  0  0  0  0  0  0  0  0  0
   18.7563   72.5425   -3.8330 C   0  0  0  0  0  0  0  0  0  0  0  0
   16.9132   72.0889   -5.3065 O   0  0  0  0  0  0  0  0  0  0  0  0
   15.8073   70.3908   -3.0965 O   0  0  0  0  0  0  0  0  0  0  0  0
   16.8998   68.5418   -4.7770 O   0  0  0  0  0  0  0  0  0  0  0  0
   17.1643   70.5877   -3.4902 C   0  0  1  0  0  0  0  0  0  0  0  0
   17.4518   69.8425   -4.7770 C   0  0  2  0  0  0  0  0  0  0  0  0
   17.3217   72.0403   -3.9219 C   0  0  1  0  0  0  0  0  0  0  0  0
   16.8128   70.7488   -5.8154 C   0  0  2  0  0  0  0  0  0  0  0  0
   15.6824   69.4701   -2.8162 H   0  0  0  0  0  0  0  0  0  0  0  0
   17.3391   68.0040   -4.0998 H   0  0  0  0  0  0  0  0  0  0  0  0
   15.4884   70.6059   -8.3061 O   0  0  0  0  0  0  0  0  0  0  0  0
   19.4705   70.4920  -10.6238 O   0  0  0  0  0  0  0  0  0  0  0  0
   17.4788   70.6812   -7.0856 N   0  0  0  0  0  0  0  0  0  0  0  0
   17.4723   70.5495   -9.4581 N   0  0  0  0  0  0  0  0  0  0  0  0
   16.7208   70.6113   -8.2776 C   0  0  0  0  0  0  0  0  0  0  0  0
   18.8684   70.6850   -7.1405 C   0  0  0  0  0  0  0  0  0  0  0  0
   19.5699   70.6242   -8.2742 C   0  0  0  0  0  0  0  0  0  0  0  0
   18.8541   70.5490   -9.5642 C   0  0  0  0  0  0  0  0  0  0  0  0
   16.9655   70.4998  -10.3010 H   0  0  0  0  0  0  0  0  0  0  0  0
   21.6997   72.8372   -3.2588 O   0  0  0  0  0  0  0  0  0  0  0  0
   23.2670   73.2311   -3.2223 P   0  0  2  0  0  0  0  0  0  0  0  0
   23.2565   74.8226   -3.5129 O   0  0  0  0  0  0  0  0  0  0  0  0
   24.1236   72.4353   -4.1640 O   0  0  0  0  0  0  0  0  0  0  0  0
   23.6843   73.1033   -1.6684 O   0  0  0  0  0  0  0  0  0  0  0  0
   22.2622   73.0671    0.2271 O   0  0  0  0  0  0  0  0  0  0  0  0
   25.5191   74.9918    1.8823 O   0  0  0  0  0  0  0  0  0  0  0  0
   24.9554   72.2728    2.6156 O   0  0  0  0  0  0  0  0  0  0  0  0
   24.7290   75.5730   -0.8412 O   0  0  0  0  0  0  0  0  0  0  0  0
   24.8531   74.0584    1.0275 C   0  0  1  0  0  0  0  0  0  0  0  0
   24.0413   73.1013    1.9026 C   0  0  1  0  0  0  0  0  0  0  0  0
   23.9371   74.8217    0.0726 C   0  0  2  0  0  0  0  0  0  0  0  0
   23.0932   72.2437    1.0536 C   0  0  1  0  0  0  0  0  0  0  0  0
   23.0017   73.8792   -0.6870 C   0  0  1  0  0  0  0  0  0  0  0  0
   26.1026   74.5136    2.4908 H   0  0  0  0  0  0  0  0  0  0  0  0
   25.5486   72.8266    3.1472 H   0  0  0  0  0  0  0  0  0  0  0  0
   25.3165   76.1659   -0.3481 H   0  0  0  0  0  0  0  0  0  0  0  0
   21.6149   70.3675    1.1112 O   0  0  0  0  0  0  0  0  0  0  0  0
   22.1625   71.3948    1.9168 C   0  0  0  0  0  0  0  0  0  0  0  0
   21.0205   69.8190    1.6474 H   0  0  0  0  0  0  0  0  0  0  0  0
 25 28  1  0
 25 24  1  0
 25 26  1  6
 25 27  2  0
  1  4  1  0
  1 24  1  0
  1  2  1  6
  1  3  2  0
  6 11  1  0
  6 12  1  0
 29 36  1  0
 29 37  1  0
  9  7  1  6
  7 13  1  0
 10  8  1  1
  8 14  1  0
 37 28  1  6
  4  5  1  0
 33 30  1  1
 30 38  1  0
 34 31  1  6
 31 39  1  0
 35 32  1  6
 32 40  1  0
 41 42  1  0
 41 43  1  0
 15 19  2  0
 16 22  2  0
 12 17  1  6
 17 19  1  0
 17 20  1  0
 18 19  1  0
 18 22  1  0
 18 23  1  0
  9 10  1  0
  9 11  1  0
 10 12  1  0
 11  5  1  6
 33 34  1  0
 33 35  1  0
 34 36  1  0
 35 37  1  0
 36 42  1  1
 20 21  2  0
 21 22  1  0
M  CHG  2   2  -1  26  -1
M  END
>  <COMPND>  (366) 
    8629 

>  <AUTHOR>  (366) 
    GENERATED BY OPEN BABEL 3.1.1

>  <MASTER>  (366) 
        0    0    0    0    0    0    0    0   58    0   58    0

>  <minimizedAffinity>  (366) 
-7.41108

>  <CNNscore>  (366) 
0.8736749887

>  <CNNaffinity>  (366) 
4.6580953598

>  <CNN_VS>  (366) 
4.0696616173

>  <CNNaffinity_variance>  (366) 
0.0174454227

$$$$
367
     RDKit          3D

 43 45  0  0  0  0  0  0  0  0999 V2000
   20.8852   71.2489   -1.7177 P   0  0  2  0  0  0  0  0  0  0  0  0
   22.4819   71.0247   -1.5844 O   0  0  0  0  0  0  0  0  0  0  0  0
   20.0557   70.5174   -0.7037 O   0  0  0  0  0  0  0  0  0  0  0  0
   20.5718   70.8993   -3.2661 O   0  0  0  0  0  0  0  0  0  0  0  0
   19.6606   69.8524   -3.5517 C   0  0  0  0  0  0  0  0  0  0  0  0
   18.0561   71.2157   -4.7095 O   0  0  0  0  0  0  0  0  0  0  0  0
   15.9737   69.8651   -3.0271 O   0  0  0  0  0  0  0  0  0  0  0  0
   15.7611   68.5490   -5.4060 O   0  0  0  0  0  0  0  0  0  0  0  0
   17.1715   69.3268   -3.5847 C   0  0  1  0  0  0  0  0  0  0  0  0
   17.0107   69.1206   -5.0764 C   0  0  2  0  0  0  0  0  0  0  0  0
   18.2433   70.4081   -3.5267 C   0  0  1  0  0  0  0  0  0  0  0  0
   17.1651   70.5353   -5.6084 C   0  0  2  0  0  0  0  0  0  0  0  0
   15.2745   69.1925   -3.0528 H   0  0  0  0  0  0  0  0  0  0  0  0
   15.7115   67.6499   -5.0456 H   0  0  0  0  0  0  0  0  0  0  0  0
   15.6557   70.3045   -7.9847 O   0  0  0  0  0  0  0  0  0  0  0  0
   19.4164   70.6621  -10.6249 O   0  0  0  0  0  0  0  0  0  0  0  0
   17.7240   70.5652   -6.9306 N   0  0  0  0  0  0  0  0  0  0  0  0
   17.5295   70.4829   -9.2974 N   0  0  0  0  0  0  0  0  0  0  0  0
   16.8788   70.4401   -8.0577 C   0  0  0  0  0  0  0  0  0  0  0  0
   19.0959   70.7176   -7.0996 C   0  0  0  0  0  0  0  0  0  0  0  0
   19.7010   70.7551   -8.2886 C   0  0  0  0  0  0  0  0  0  0  0  0
   18.8898   70.6314   -9.5169 C   0  0  0  0  0  0  0  0  0  0  0  0
   16.9608   70.3973  -10.0968 H   0  0  0  0  0  0  0  0  0  0  0  0
   20.7391   72.8581   -1.6719 O   0  0  0  0  0  0  0  0  0  0  0  0
   19.5538   73.8314   -2.1826 P   0  0  2  0  0  0  0  0  0  0  0  0
   19.9584   75.2680   -1.5583 O   0  0  0  0  0  0  0  0  0  0  0  0
   18.1742   73.3643   -1.8187 O   0  0  0  0  0  0  0  0  0  0  0  0
   19.8098   73.9894   -3.7684 O   0  0  0  0  0  0  0  0  0  0  0  0
   22.0840   74.6529   -3.8351 O   0  0  0  0  0  0  0  0  0  0  0  0
   21.3884   74.2727   -7.8875 O   0  0  0  0  0  0  0  0  0  0  0  0
   23.0046   72.3203   -6.5370 O   0  0  0  0  0  0  0  0  0  0  0  0
   19.3344   75.3673   -6.1664 O   0  0  0  0  0  0  0  0  0  0  0  0
   21.2449   73.9399   -6.5041 C   0  0  1  0  0  0  0  0  0  0  0  0
   22.6229   73.5640   -5.9558 C   0  0  1  0  0  0  0  0  0  0  0  0
   20.6796   75.1462   -5.7565 C   0  0  2  0  0  0  0  0  0  0  0  0
   22.5989   73.4536   -4.4253 C   0  0  1  0  0  0  0  0  0  0  0  0
   20.7472   74.9536   -4.2405 C   0  0  1  0  0  0  0  0  0  0  0  0
   21.7465   73.5109   -8.3680 H   0  0  0  0  0  0  0  0  0  0  0  0
   23.0153   72.4034   -7.5035 H   0  0  0  0  0  0  0  0  0  0  0  0
   19.3051   75.4881   -7.1278 H   0  0  0  0  0  0  0  0  0  0  0  0
   24.2300   71.8418   -3.7542 O   0  0  0  0  0  0  0  0  0  0  0  0
   23.9947   73.2349   -3.8457 C   0  0  0  0  0  0  0  0  0  0  0  0
   25.1150   71.6875   -3.3872 H   0  0  0  0  0  0  0  0  0  0  0  0
 25 28  1  0
 25 24  1  0
 25 26  1  1
 25 27  2  0
  1  4  1  0
  1 24  1  0
  1  2  1  1
  1  3  2  0
  6 11  1  0
  6 12  1  0
 29 36  1  0
 29 37  1  0
  9  7  1  6
  7 13  1  0
 10  8  1  1
  8 14  1  0
 37 28  1  6
  4  5  1  0
 33 30  1  6
 30 38  1  0
 34 31  1  6
 31 39  1  0
 35 32  1  6
 32 40  1  0
 41 42  1  0
 41 43  1  0
 15 19  2  0
 16 22  2  0
 12 17  1  6
 17 19  1  0
 17 20  1  0
 18 19  1  0
 18 22  1  0
 18 23  1  0
  9 10  1  0
  9 11  1  0
 10 12  1  0
 11  5  1  6
 33 34  1  0
 33 35  1  0
 34 36  1  0
 35 37  1  0
 36 42  1  1
 20 21  2  0
 21 22  1  0
M  CHG  2   2  -1  26  -1
M  END
>  <COMPND>  (367) 
    8629 

>  <AUTHOR>  (367) 
    GENERATED BY OPEN BABEL 3.1.1

>  <MASTER>  (367) 
        0    0    0    0    0    0    0    0   58    0   58    0

>  <minimizedAffinity>  (367) 
-7.58046

>  <CNNscore>  (367) 
0.8645913005

>  <CNNaffinity>  (367) 
4.5378389359

>  <CNN_VS>  (367) 
3.9233760834

>  <CNNaffinity_variance>  (367) 
0.6778093576

$$$$
368
     RDKit          3D

 43 45  0  0  0  0  0  0  0  0999 V2000
   22.1398   71.4053   -2.8546 P   0  0  2  0  0  0  0  0  0  0  0  0
   23.6854   71.2923   -3.3191 O   0  0  0  0  0  0  0  0  0  0  0  0
   21.8439   70.8435   -1.4951 O   0  0  0  0  0  0  0  0  0  0  0  0
   21.3163   70.7465   -4.0816 O   0  0  0  0  0  0  0  0  0  0  0  0
   20.3200   69.7829   -3.7871 C   0  0  0  0  0  0  0  0  0  0  0  0
   18.7275   71.2642   -4.8086 O   0  0  0  0  0  0  0  0  0  0  0  0
   16.7523   70.2159   -2.8109 O   0  0  0  0  0  0  0  0  0  0  0  0
   16.1012   68.8358   -5.0710 O   0  0  0  0  0  0  0  0  0  0  0  0
   17.8068   69.5291   -3.4829 C   0  0  1  0  0  0  0  0  0  0  0  0
   17.4347   69.2816   -4.9300 C   0  0  2  0  0  0  0  0  0  0  0  0
   18.9821   70.4894   -3.6164 C   0  0  1  0  0  0  0  0  0  0  0  0
   17.6631   70.6486   -5.5522 C   0  0  2  0  0  0  0  0  0  0  0  0
   15.9905   69.6225   -2.7136 H   0  0  0  0  0  0  0  0  0  0  0  0
   16.0068   67.9626   -4.6594 H   0  0  0  0  0  0  0  0  0  0  0  0
   15.8549   70.2899   -7.6922 O   0  0  0  0  0  0  0  0  0  0  0  0
   19.2493   70.3390  -10.8093 O   0  0  0  0  0  0  0  0  0  0  0  0
   18.0470   70.5646   -6.9331 N   0  0  0  0  0  0  0  0  0  0  0  0
   17.5465   70.3148   -9.2426 N   0  0  0  0  0  0  0  0  0  0  0  0
   17.0608   70.3827   -7.9305 C   0  0  0  0  0  0  0  0  0  0  0  0
   19.3884   70.6626   -7.2867 C   0  0  0  0  0  0  0  0  0  0  0  0
   19.8353   70.5945   -8.5424 C   0  0  0  0  0  0  0  0  0  0  0  0
   18.8698   70.4055   -9.6443 C   0  0  0  0  0  0  0  0  0  0  0  0
   16.8776   70.1880   -9.9541 H   0  0  0  0  0  0  0  0  0  0  0  0
   21.8271   72.9833   -3.0130 O   0  0  0  0  0  0  0  0  0  0  0  0
   22.3633   74.2606   -2.1799 P   0  0  2  0  0  0  0  0  0  0  0  0
   21.4633   75.4789   -2.7486 O   0  0  0  0  0  0  0  0  0  0  0  0
   23.8442   74.4845   -2.2822 O   0  0  0  0  0  0  0  0  0  0  0  0
   21.8249   74.0233   -0.6769 O   0  0  0  0  0  0  0  0  0  0  0  0
   22.0295   74.9860    1.4790 O   0  0  0  0  0  0  0  0  0  0  0  0
   23.0049   71.0818    2.4046 O   0  0  0  0  0  0  0  0  0  0  0  0
   20.4685   72.1442    3.2330 O   0  0  0  0  0  0  0  0  0  0  0  0
   23.9144   72.2460   -0.0847 O   0  0  0  0  0  0  0  0  0  0  0  0
   22.3120   72.1219    1.7092 C   0  0  1  0  0  0  0  0  0  0  0  0
   21.5339   72.9486    2.7348 C   0  0  1  0  0  0  0  0  0  0  0  0
   23.3284   72.9944    0.9750 C   0  0  2  0  0  0  0  0  0  0  0  0
   20.9828   74.2354    2.1058 C   0  0  1  0  0  0  0  0  0  0  0  0
   22.6871   74.2720    0.4304 C   0  0  1  0  0  0  0  0  0  0  0  0
   22.3652   70.5239    2.8726 H   0  0  0  0  0  0  0  0  0  0  0  0
   20.8299   71.3347    3.6270 H   0  0  0  0  0  0  0  0  0  0  0  0
   24.3172   71.4400    0.2730 H   0  0  0  0  0  0  0  0  0  0  0  0
   19.0056   74.7235    3.3553 O   0  0  0  0  0  0  0  0  0  0  0  0
   20.3392   75.1501    3.1456 C   0  0  0  0  0  0  0  0  0  0  0  0
   18.5835   75.2964    4.0151 H   0  0  0  0  0  0  0  0  0  0  0  0
 25 28  1  0
 25 24  1  0
 25 26  1  6
 25 27  2  0
  1  4  1  0
  1 24  1  0
  1  2  1  6
  1  3  2  0
  6 11  1  0
  6 12  1  0
 29 36  1  0
 29 37  1  0
  9  7  1  1
  7 13  1  0
 10  8  1  1
  8 14  1  0
 37 28  1  6
  4  5  1  0
 33 30  1  1
 30 38  1  0
 34 31  1  6
 31 39  1  0
 35 32  1  6
 32 40  1  0
 41 42  1  0
 41 43  1  0
 15 19  2  0
 16 22  2  0
 12 17  1  6
 17 19  1  0
 17 20  1  0
 18 19  1  0
 18 22  1  0
 18 23  1  0
  9 10  1  0
  9 11  1  0
 10 12  1  0
 11  5  1  6
 33 34  1  0
 33 35  1  0
 34 36  1  0
 35 37  1  0
 36 42  1  1
 20 21  2  0
 21 22  1  0
M  CHG  2   2  -1  26  -1
M  END
>  <COMPND>  (368) 
    8629 

>  <AUTHOR>  (368) 
    GENERATED BY OPEN BABEL 3.1.1

>  <MASTER>  (368) 
        0    0    0    0    0    0    0    0   58    0   58    0

>  <minimizedAffinity>  (368) 
-7.25694

>  <CNNscore>  (368) 
0.8582623005

>  <CNNaffinity>  (368) 
4.6179451942

>  <CNN_VS>  (368) 
3.9634082317

>  <CNNaffinity_variance>  (368) 
0.0303713866

$$$$
369
     RDKit          3D

 43 45  0  0  0  0  0  0  0  0999 V2000
   23.4278   71.9638   -3.3497 P   0  0  2  0  0  0  0  0  0  0  0  0
   24.2055   72.9367   -4.3822 O   0  0  0  0  0  0  0  0  0  0  0  0
   24.1517   70.6950   -3.0070 O   0  0  0  0  0  0  0  0  0  0  0  0
   21.9649   71.7802   -4.0160 O   0  0  0  0  0  0  0  0  0  0  0  0
   21.2145   70.6229   -3.6913 C   0  0  0  0  0  0  0  0  0  0  0  0
   19.2055   71.6412   -4.5283 O   0  0  0  0  0  0  0  0  0  0  0  0
   17.8087   70.3512   -2.2097 O   0  0  0  0  0  0  0  0  0  0  0  0
   17.1818   68.6906   -4.2800 O   0  0  0  0  0  0  0  0  0  0  0  0
   18.8885   69.8575   -3.0006 C   0  0  1  0  0  0  0  0  0  0  0  0
   18.3874   69.4232   -4.3622 C   0  0  2  0  0  0  0  0  0  0  0  0
   19.7883   71.0352   -3.3538 C   0  0  1  0  0  0  0  0  0  0  0  0
   18.2153   70.7543   -5.0740 C   0  0  2  0  0  0  0  0  0  0  0  0
   17.2205   69.6169   -1.9715 H   0  0  0  0  0  0  0  0  0  0  0  0
   17.3432   67.8526   -3.8192 H   0  0  0  0  0  0  0  0  0  0  0  0
   16.2329   69.9268   -6.9079 O   0  0  0  0  0  0  0  0  0  0  0  0
   19.0978   70.3795  -10.4897 O   0  0  0  0  0  0  0  0  0  0  0  0
   18.4158   70.6472   -6.4916 N   0  0  0  0  0  0  0  0  0  0  0  0
   17.6610   70.1531   -8.6899 N   0  0  0  0  0  0  0  0  0  0  0  0
   17.3552   70.2211   -7.3246 C   0  0  0  0  0  0  0  0  0  0  0  0
   19.6530   70.9633   -7.0424 C   0  0  0  0  0  0  0  0  0  0  0  0
   19.9288   70.8920   -8.3462 C   0  0  0  0  0  0  0  0  0  0  0  0
   18.8754   70.4555   -9.2853 C   0  0  0  0  0  0  0  0  0  0  0  0
   16.9375   69.8582   -9.2894 H   0  0  0  0  0  0  0  0  0  0  0  0
   23.1339   72.9321   -2.0891 O   0  0  0  0  0  0  0  0  0  0  0  0
   22.4495   72.6309   -0.6560 P   0  0  2  0  0  0  0  0  0  0  0  0
   23.0950   73.7586    0.3079 O   0  0  0  0  0  0  0  0  0  0  0  0
   22.6332   71.2222   -0.1703 O   0  0  0  0  0  0  0  0  0  0  0  0
   20.9100   73.0809   -0.8358 O   0  0  0  0  0  0  0  0  0  0  0  0
   21.0599   75.1471   -1.9870 O   0  0  0  0  0  0  0  0  0  0  0  0
   16.9501   74.7919   -1.8013 O   0  0  0  0  0  0  0  0  0  0  0  0
   18.2949   74.4053   -4.3093 O   0  0  0  0  0  0  0  0  0  0  0  0
   18.5743   73.9615    0.4464 O   0  0  0  0  0  0  0  0  0  0  0  0
   18.2948   74.3192   -1.9190 C   0  0  1  0  0  0  0  0  0  0  0  0
   18.9223   74.9620   -3.1575 C   0  0  1  0  0  0  0  0  0  0  0  0
   19.0713   74.7047   -0.6613 C   0  0  2  0  0  0  0  0  0  0  0  0
   20.4364   74.7159   -3.2024 C   0  0  1  0  0  0  0  0  0  0  0  0
   20.5729   74.4657   -0.8292 C   0  0  1  0  0  0  0  0  0  0  0  0
   16.4515   74.5500   -2.5965 H   0  0  0  0  0  0  0  0  0  0  0  0
   17.3392   74.5671   -4.2684 H   0  0  0  0  0  0  0  0  0  0  0  0
   17.6229   74.1215    0.5423 H   0  0  0  0  0  0  0  0  0  0  0  0
   22.5099   75.3907   -4.1792 O   0  0  0  0  0  0  0  0  0  0  0  0
   21.1064   75.4794   -4.3427 C   0  0  0  0  0  0  0  0  0  0  0  0
   22.9496   75.8720   -4.8981 H   0  0  0  0  0  0  0  0  0  0  0  0
 25 28  1  0
 25 24  1  0
 25 26  1  1
 25 27  2  0
  1  4  1  0
  1 24  1  0
  1  2  1  6
  1  3  2  0
  6 11  1  0
  6 12  1  0
 29 36  1  0
 29 37  1  0
  9  7  1  1
  7 13  1  0
 10  8  1  1
  8 14  1  0
 37 28  1  6
  4  5  1  0
 33 30  1  1
 30 38  1  0
 34 31  1  6
 31 39  1  0
 35 32  1  1
 32 40  1  0
 41 42  1  0
 41 43  1  0
 15 19  2  0
 16 22  2  0
 12 17  1  6
 17 19  1  0
 17 20  1  0
 18 19  1  0
 18 22  1  0
 18 23  1  0
  9 10  1  0
  9 11  1  0
 10 12  1  0
 11  5  1  6
 33 34  1  0
 33 35  1  0
 34 36  1  0
 35 37  1  0
 36 42  1  6
 20 21  2  0
 21 22  1  0
M  CHG  2   2  -1  26  -1
M  END
>  <COMPND>  (369) 
    8629 

>  <AUTHOR>  (369) 
    GENERATED BY OPEN BABEL 3.1.1

>  <MASTER>  (369) 
        0    0    0    0    0    0    0    0   58    0   58    0

>  <minimizedAffinity>  (369) 
-6.39246

>  <CNNscore>  (369) 
0.8551238179

>  <CNNaffinity>  (369) 
4.5456304550

>  <CNN_VS>  (369) 
3.8870768547

>  <CNNaffinity_variance>  (369) 
0.0716813430

$$$$
370
     RDKit          3D

 43 45  0  0  0  0  0  0  0  0999 V2000
   22.8456   72.2897   -3.9126 P   0  0  2  0  0  0  0  0  0  0  0  0
   23.3520   73.2808   -5.0868 O   0  0  0  0  0  0  0  0  0  0  0  0
   23.9043   71.3952   -3.3378 O   0  0  0  0  0  0  0  0  0  0  0  0
   21.5680   71.5388   -4.5621 O   0  0  0  0  0  0  0  0  0  0  0  0
   20.9049   70.5479   -3.7965 C   0  0  0  0  0  0  0  0  0  0  0  0
   18.9740   71.6431   -4.7164 O   0  0  0  0  0  0  0  0  0  0  0  0
   17.4240   70.3764   -2.4840 O   0  0  0  0  0  0  0  0  0  0  0  0
   16.8430   68.7607   -4.6026 O   0  0  0  0  0  0  0  0  0  0  0  0
   18.5237   69.8548   -3.2281 C   0  0  1  0  0  0  0  0  0  0  0  0
   18.0750   69.4526   -4.6175 C   0  0  2  0  0  0  0  0  0  0  0  0
   19.4785   71.0050   -3.5228 C   0  0  1  0  0  0  0  0  0  0  0  0
   17.9824   70.7964   -5.3201 C   0  0  2  0  0  0  0  0  0  0  0  0
   16.8006   69.6600   -2.2836 H   0  0  0  0  0  0  0  0  0  0  0  0
   16.9537   67.9127   -4.1451 H   0  0  0  0  0  0  0  0  0  0  0  0
   16.0227   70.2481   -7.2789 O   0  0  0  0  0  0  0  0  0  0  0  0
   19.1157   70.4406  -10.6903 O   0  0  0  0  0  0  0  0  0  0  0  0
   18.2477   70.6980   -6.7277 N   0  0  0  0  0  0  0  0  0  0  0  0
   17.5643   70.3446   -8.9759 N   0  0  0  0  0  0  0  0  0  0  0  0
   17.1929   70.4178   -7.6273 C   0  0  0  0  0  0  0  0  0  0  0  0
   19.5420   70.8788   -7.2032 C   0  0  0  0  0  0  0  0  0  0  0  0
   19.8798   70.8044   -8.4922 C   0  0  0  0  0  0  0  0  0  0  0  0
   18.8369   70.5154   -9.4976 C   0  0  0  0  0  0  0  0  0  0  0  0
   16.8461   70.1501   -9.6209 H   0  0  0  0  0  0  0  0  0  0  0  0
   22.1699   73.3020   -2.8488 O   0  0  0  0  0  0  0  0  0  0  0  0
   22.8266   74.4148   -1.8775 P   0  0  2  0  0  0  0  0  0  0  0  0
   21.7422   75.6152   -1.9020 O   0  0  0  0  0  0  0  0  0  0  0  0
   24.2166   74.8279   -2.2665 O   0  0  0  0  0  0  0  0  0  0  0  0
   22.7057   73.7863   -0.3958 O   0  0  0  0  0  0  0  0  0  0  0  0
   23.4556   71.6107    0.1707 O   0  0  0  0  0  0  0  0  0  0  0  0
   20.5128   72.0603    3.0323 O   0  0  0  0  0  0  0  0  0  0  0  0
   23.2753   72.1627    3.8110 O   0  0  0  0  0  0  0  0  0  0  0  0
   20.0949   73.0859    0.3578 O   0  0  0  0  0  0  0  0  0  0  0  0
   21.5678   72.4931    2.1691 C   0  0  1  0  0  0  0  0  0  0  0  0
   22.8342   71.7152    2.5322 C   0  0  1  0  0  0  0  0  0  0  0  0
   21.1685   72.2239    0.7194 C   0  0  2  0  0  0  0  0  0  0  0  0
   23.9342   71.9269    1.4832 C   0  0  1  0  0  0  0  0  0  0  0  0
   22.3476   72.4161   -0.2361 C   0  0  1  0  0  0  0  0  0  0  0  0
   20.7598   72.2288    3.9544 H   0  0  0  0  0  0  0  0  0  0  0  0
   22.5714   72.0239    4.4640 H   0  0  0  0  0  0  0  0  0  0  0  0
   19.3547   72.9544    0.9700 H   0  0  0  0  0  0  0  0  0  0  0  0
   24.8123   70.0964    2.7431 O   0  0  0  0  0  0  0  0  0  0  0  0
   25.1490   71.0382    1.7411 C   0  0  0  0  0  0  0  0  0  0  0  0
   25.5760   69.5237    2.9174 H   0  0  0  0  0  0  0  0  0  0  0  0
 25 28  1  0
 25 24  1  0
 25 26  1  1
 25 27  2  0
  1  4  1  0
  1 24  1  0
  1  2  1  6
  1  3  2  0
  6 11  1  0
  6 12  1  0
 29 36  1  0
 29 37  1  0
  9  7  1  1
  7 13  1  0
 10  8  1  1
  8 14  1  0
 37 28  1  1
  4  5  1  0
 33 30  1  1
 30 38  1  0
 34 31  1  1
 31 39  1  0
 35 32  1  6
 32 40  1  0
 41 42  1  0
 41 43  1  0
 15 19  2  0
 16 22  2  0
 12 17  1  6
 17 19  1  0
 17 20  1  0
 18 19  1  0
 18 22  1  0
 18 23  1  0
  9 10  1  0
  9 11  1  0
 10 12  1  0
 11  5  1  6
 33 34  1  0
 33 35  1  0
 34 36  1  0
 35 37  1  0
 36 42  1  1
 20 21  2  0
 21 22  1  0
M  CHG  2   2  -1  26  -1
M  END
>  <COMPND>  (370) 
    8629 

>  <AUTHOR>  (370) 
    GENERATED BY OPEN BABEL 3.1.1

>  <MASTER>  (370) 
        0    0    0    0    0    0    0    0   58    0   58    0

>  <minimizedAffinity>  (370) 
-7.81182

>  <CNNscore>  (370) 
0.8364280462

>  <CNNaffinity>  (370) 
4.6681442261

>  <CNN_VS>  (370) 
3.9045667648

>  <CNNaffinity_variance>  (370) 
0.0532661565

$$$$
371
     RDKit          3D

 43 45  0  0  0  0  0  0  0  0999 V2000
   20.5027   71.2014   -1.2911 P   0  0  2  0  0  0  0  0  0  0  0  0
   20.7428   70.5272    0.1598 O   0  0  0  0  0  0  0  0  0  0  0  0
   20.0881   72.6431   -1.2593 O   0  0  0  0  0  0  0  0  0  0  0  0
   19.4736   70.1904   -2.0237 O   0  0  0  0  0  0  0  0  0  0  0  0
   19.1857   70.3957   -3.3958 C   0  0  0  0  0  0  0  0  0  0  0  0
   17.5338   71.4265   -4.8040 O   0  0  0  0  0  0  0  0  0  0  0  0
   15.4991   69.9002   -3.2161 O   0  0  0  0  0  0  0  0  0  0  0  0
   15.7191   68.4098   -5.4892 O   0  0  0  0  0  0  0  0  0  0  0  0
   16.8114   69.5080   -3.6151 C   0  0  1  0  0  0  0  0  0  0  0  0
   16.8356   69.1803   -5.0935 C   0  0  2  0  0  0  0  0  0  0  0  0
   17.7095   70.7369   -3.5470 C   0  0  1  0  0  0  0  0  0  0  0  0
   16.8443   70.5631   -5.7227 C   0  0  2  0  0  0  0  0  0  0  0  0
   14.9074   69.1317   -3.2512 H   0  0  0  0  0  0  0  0  0  0  0  0
   15.7590   67.5396   -5.0627 H   0  0  0  0  0  0  0  0  0  0  0  0
   15.5529   70.5526   -8.2347 O   0  0  0  0  0  0  0  0  0  0  0  0
   19.5640   70.6507  -10.5022 O   0  0  0  0  0  0  0  0  0  0  0  0
   17.5267   70.5859   -6.9857 N   0  0  0  0  0  0  0  0  0  0  0  0
   17.5512   70.6016   -9.3617 N   0  0  0  0  0  0  0  0  0  0  0  0
   16.7845   70.5772   -8.1896 C   0  0  0  0  0  0  0  0  0  0  0  0
   18.9165   70.6168   -7.0219 C   0  0  0  0  0  0  0  0  0  0  0  0
   19.6326   70.6385   -8.1479 C   0  0  0  0  0  0  0  0  0  0  0  0
   18.9340   70.6314   -9.4494 C   0  0  0  0  0  0  0  0  0  0  0  0
   17.0556   70.5958  -10.2127 H   0  0  0  0  0  0  0  0  0  0  0  0
   21.8973   70.9193   -2.0583 O   0  0  0  0  0  0  0  0  0  0  0  0
   23.0713   71.9249   -2.5307 P   0  0  2  0  0  0  0  0  0  0  0  0
   24.2074   70.9258   -3.1039 O   0  0  0  0  0  0  0  0  0  0  0  0
   23.5516   72.8577   -1.4569 O   0  0  0  0  0  0  0  0  0  0  0  0
   22.4775   72.6603   -3.8390 O   0  0  0  0  0  0  0  0  0  0  0  0
   23.2295   74.1961   -5.4798 O   0  0  0  0  0  0  0  0  0  0  0  0
   19.6795   76.0297   -4.4376 O   0  0  0  0  0  0  0  0  0  0  0  0
   19.8983   74.7025   -6.9750 O   0  0  0  0  0  0  0  0  0  0  0  0
   21.3038   74.7657   -2.4020 O   0  0  0  0  0  0  0  0  0  0  0  0
   20.5508   74.9228   -4.6845 C   0  0  1  0  0  0  0  0  0  0  0  0
   21.0157   74.9939   -6.1404 C   0  0  1  0  0  0  0  0  0  0  0  0
   21.7441   75.0052   -3.7344 C   0  0  2  0  0  0  0  0  0  0  0  0
   22.1553   74.0013   -6.4071 C   0  0  1  0  0  0  0  0  0  0  0  0
   22.8408   74.0100   -4.1174 C   0  0  1  0  0  0  0  0  0  0  0  0
   18.9194   75.9830   -5.0373 H   0  0  0  0  0  0  0  0  0  0  0  0
   19.1857   75.3361   -6.7963 H   0  0  0  0  0  0  0  0  0  0  0  0
   20.6099   75.4023   -2.1715 H   0  0  0  0  0  0  0  0  0  0  0  0
   23.3872   72.9587   -8.1690 O   0  0  0  0  0  0  0  0  0  0  0  0
   22.7402   74.1652   -7.8082 C   0  0  0  0  0  0  0  0  0  0  0  0
   23.7641   73.0482   -9.0588 H   0  0  0  0  0  0  0  0  0  0  0  0
 25 28  1  0
 25 24  1  0
 25 26  1  6
 25 27  2  0
  1  4  1  0
  1 24  1  0
  1  2  1  1
  1  3  2  0
  6 11  1  0
  6 12  1  0
 29 36  1  0
 29 37  1  0
  9  7  1  6
  7 13  1  0
 10  8  1  6
  8 14  1  0
 37 28  1  6
  4  5  1  0
 33 30  1  1
 30 38  1  0
 34 31  1  6
 31 39  1  0
 35 32  1  1
 32 40  1  0
 41 42  1  0
 41 43  1  0
 15 19  2  0
 16 22  2  0
 12 17  1  6
 17 19  1  0
 17 20  1  0
 18 19  1  0
 18 22  1  0
 18 23  1  0
  9 10  1  0
  9 11  1  0
 10 12  1  0
 11  5  1  6
 33 34  1  0
 33 35  1  0
 34 36  1  0
 35 37  1  0
 36 42  1  6
 20 21  2  0
 21 22  1  0
M  CHG  2   2  -1  26  -1
M  END
>  <COMPND>  (371) 
    8629 

>  <AUTHOR>  (371) 
    GENERATED BY OPEN BABEL 3.1.1

>  <MASTER>  (371) 
        0    0    0    0    0    0    0    0   58    0   58    0

>  <minimizedAffinity>  (371) 
-7.97782

>  <CNNscore>  (371) 
0.8298973441

>  <CNNaffinity>  (371) 
4.5962486267

>  <CNN_VS>  (371) 
3.8144145012

>  <CNNaffinity_variance>  (371) 
0.4300699830

$$$$
372
     RDKit          3D

 43 45  0  0  0  0  0  0  0  0999 V2000
   20.6151   71.4320   -1.8082 P   0  0  2  0  0  0  0  0  0  0  0  0
   21.3643   71.1123   -3.2060 O   0  0  0  0  0  0  0  0  0  0  0  0
   20.7867   70.3882   -0.7440 O   0  0  0  0  0  0  0  0  0  0  0  0
   19.0893   71.7431   -2.2477 O   0  0  0  0  0  0  0  0  0  0  0  0
   18.7963   71.8727   -3.6280 C   0  0  0  0  0  0  0  0  0  0  0  0
   17.0163   71.8308   -5.2416 O   0  0  0  0  0  0  0  0  0  0  0  0
   15.5396   70.0984   -3.2899 O   0  0  0  0  0  0  0  0  0  0  0  0
   16.4871   68.2866   -5.0945 O   0  0  0  0  0  0  0  0  0  0  0  0
   16.9349   70.1388   -3.5844 C   0  0  1  0  0  0  0  0  0  0  0  0
   17.2084   69.4899   -4.9252 C   0  0  2  0  0  0  0  0  0  0  0  0
   17.3168   71.5897   -3.8494 C   0  0  1  0  0  0  0  0  0  0  0  0
   16.7716   70.5747   -5.8951 C   0  0  2  0  0  0  0  0  0  0  0  0
   15.2723   69.1816   -3.1167 H   0  0  0  0  0  0  0  0  0  0  0  0
   16.8014   67.6284   -4.4551 H   0  0  0  0  0  0  0  0  0  0  0  0
   15.5956   70.6292   -8.4626 O   0  0  0  0  0  0  0  0  0  0  0  0
   19.7008   70.4280  -10.5478 O   0  0  0  0  0  0  0  0  0  0  0  0
   17.5095   70.5381   -7.1262 N   0  0  0  0  0  0  0  0  0  0  0  0
   17.6406   70.5291   -9.4988 N   0  0  0  0  0  0  0  0  0  0  0  0
   16.8228   70.5691   -8.3623 C   0  0  0  0  0  0  0  0  0  0  0  0
   18.8983   70.4725   -7.1001 C   0  0  0  0  0  0  0  0  0  0  0  0
   19.6636   70.4337   -8.1928 C   0  0  0  0  0  0  0  0  0  0  0  0
   19.0247   70.4624   -9.5243 C   0  0  0  0  0  0  0  0  0  0  0  0
   17.1842   70.5493  -10.3712 H   0  0  0  0  0  0  0  0  0  0  0  0
   21.1852   72.8928   -1.4160 O   0  0  0  0  0  0  0  0  0  0  0  0
   21.1158   73.7225   -0.0305 P   0  0  2  0  0  0  0  0  0  0  0  0
   19.7609   73.1740    0.6630 O   0  0  0  0  0  0  0  0  0  0  0  0
   21.1636   75.2131   -0.2028 O   0  0  0  0  0  0  0  0  0  0  0  0
   22.3094   73.1147    0.8699 O   0  0  0  0  0  0  0  0  0  0  0  0
   24.4680   73.9632    0.3829 O   0  0  0  0  0  0  0  0  0  0  0  0
   25.5445   70.6782    2.6414 O   0  0  0  0  0  0  0  0  0  0  0  0
   25.8197   73.3131    3.7503 O   0  0  0  0  0  0  0  0  0  0  0  0
   23.3191   70.4973    0.7990 O   0  0  0  0  0  0  0  0  0  0  0  0
   24.7265   71.7895    2.2655 C   0  0  1  0  0  0  0  0  0  0  0  0
   25.5691   73.0622    2.3702 C   0  0  1  0  0  0  0  0  0  0  0  0
   24.2355   71.5861    0.8334 C   0  0  2  0  0  0  0  0  0  0  0  0
   24.8488   74.2576    1.7320 C   0  0  1  0  0  0  0  0  0  0  0  0
   23.5781   72.8503    0.2768 C   0  0  1  0  0  0  0  0  0  0  0  0
   25.8591   70.8009    3.5499 H   0  0  0  0  0  0  0  0  0  0  0  0
   26.2744   72.5505    4.1414 H   0  0  0  0  0  0  0  0  0  0  0  0
   23.7473   69.7031    1.1536 H   0  0  0  0  0  0  0  0  0  0  0  0
   25.6809   76.1396    2.9465 O   0  0  0  0  0  0  0  0  0  0  0  0
   25.7349   75.5004    1.6844 C   0  0  0  0  0  0  0  0  0  0  0  0
   26.2405   76.9322    2.9310 H   0  0  0  0  0  0  0  0  0  0  0  0
 25 28  1  0
 25 24  1  0
 25 26  1  1
 25 27  2  0
  1  4  1  0
  1 24  1  0
  1  2  1  6
  1  3  2  0
  6 11  1  0
  6 12  1  0
 29 36  1  0
 29 37  1  0
  9  7  1  6
  7 13  1  0
 10  8  1  6
  8 14  1  0
 37 28  1  1
  4  5  1  0
 33 30  1  6
 30 38  1  0
 34 31  1  1
 31 39  1  0
 35 32  1  1
 32 40  1  0
 41 42  1  0
 41 43  1  0
 15 19  2  0
 16 22  2  0
 12 17  1  6
 17 19  1  0
 17 20  1  0
 18 19  1  0
 18 22  1  0
 18 23  1  0
  9 10  1  0
  9 11  1  0
 10 12  1  0
 11  5  1  6
 33 34  1  0
 33 35  1  0
 34 36  1  0
 35 37  1  0
 36 42  1  6
 20 21  2  0
 21 22  1  0
M  CHG  2   2  -1  26  -1
M  END
>  <COMPND>  (372) 
    8629 

>  <AUTHOR>  (372) 
    GENERATED BY OPEN BABEL 3.1.1

>  <MASTER>  (372) 
        0    0    0    0    0    0    0    0   58    0   58    0

>  <minimizedAffinity>  (372) 
-6.86905

>  <CNNscore>  (372) 
0.8289257288

>  <CNNaffinity>  (372) 
4.6204099655

>  <CNN_VS>  (372) 
3.8299767971

>  <CNNaffinity_variance>  (372) 
0.1150018573

$$$$
373
     RDKit          3D

 43 45  0  0  0  0  0  0  0  0999 V2000
   23.1284   71.9691   -2.3775 P   0  0  2  0  0  0  0  0  0  0  0  0
   23.7656   73.3215   -1.7589 O   0  0  0  0  0  0  0  0  0  0  0  0
   24.1273   70.9822   -2.9063 O   0  0  0  0  0  0  0  0  0  0  0  0
   22.0385   72.5066   -3.4458 O   0  0  0  0  0  0  0  0  0  0  0  0
   21.5574   71.6087   -4.4307 C   0  0  0  0  0  0  0  0  0  0  0  0
   21.4278   71.2769   -6.8070 O   0  0  0  0  0  0  0  0  0  0  0  0
   23.0180   73.8065   -7.0584 O   0  0  0  0  0  0  0  0  0  0  0  0
   20.4777   74.6467   -7.5847 O   0  0  0  0  0  0  0  0  0  0  0  0
   22.0082   73.4662   -6.1099 C   0  0  1  0  0  0  0  0  0  0  0  0
   20.6405   73.5118   -6.7587 C   0  0  2  0  0  0  0  0  0  0  0  0
   22.1543   71.9860   -5.7796 C   0  0  1  0  0  0  0  0  0  0  0  0
   20.6201   72.2105   -7.5425 C   0  0  2  0  0  0  0  0  0  0  0  0
   22.9451   74.7475   -7.2846 H   0  0  0  0  0  0  0  0  0  0  0  0
   20.4976   75.4489   -7.0398 H   0  0  0  0  0  0  0  0  0  0  0  0
   19.6620   70.8935   -9.8503 O   0  0  0  0  0  0  0  0  0  0  0  0
   15.5192   70.1956   -7.9553 O   0  0  0  0  0  0  0  0  0  0  0  0
   19.2953   71.6743   -7.6793 N   0  0  0  0  0  0  0  0  0  0  0  0
   17.6000   70.5470   -8.9048 N   0  0  0  0  0  0  0  0  0  0  0  0
   18.9138   71.0323   -8.8805 C   0  0  0  0  0  0  0  0  0  0  0  0
   18.3901   71.7873   -6.6296 C   0  0  0  0  0  0  0  0  0  0  0  0
   17.1405   71.3203   -6.6692 C   0  0  0  0  0  0  0  0  0  0  0  0
   16.6626   70.6360   -7.8879 C   0  0  0  0  0  0  0  0  0  0  0  0
   17.3119   70.0963   -9.7316 H   0  0  0  0  0  0  0  0  0  0  0  0
   22.2096   71.4144   -1.1689 O   0  0  0  0  0  0  0  0  0  0  0  0
   22.5568   71.1289    0.3838 P   0  0  2  0  0  0  0  0  0  0  0  0
   24.1652   70.9540    0.3782 O   0  0  0  0  0  0  0  0  0  0  0  0
   21.8100   69.9703    0.9785 O   0  0  0  0  0  0  0  0  0  0  0  0
   22.3029   72.5398    1.1253 O   0  0  0  0  0  0  0  0  0  0  0  0
   23.2313   74.5429    1.9868 O   0  0  0  0  0  0  0  0  0  0  0  0
   22.4824   72.5803    5.5419 O   0  0  0  0  0  0  0  0  0  0  0  0
   20.8418   74.8112    4.7809 O   0  0  0  0  0  0  0  0  0  0  0  0
   23.4389   71.0971    3.2473 O   0  0  0  0  0  0  0  0  0  0  0  0
   22.2339   72.9596    4.1855 C   0  0  1  0  0  0  0  0  0  0  0  0
   22.0680   74.4798    4.1354 C   0  0  1  0  0  0  0  0  0  0  0  0
   23.4126   72.5185    3.3198 C   0  0  2  0  0  0  0  0  0  0  0  0
   22.0646   74.9892    2.6878 C   0  0  1  0  0  0  0  0  0  0  0  0
   23.3378   73.1197    1.9151 C   0  0  1  0  0  0  0  0  0  0  0  0
   21.7375   72.8571    6.0968 H   0  0  0  0  0  0  0  0  0  0  0  0
   20.8567   74.4836    5.6939 H   0  0  0  0  0  0  0  0  0  0  0  0
   23.4865   70.7286    4.1428 H   0  0  0  0  0  0  0  0  0  0  0  0
   22.5960   77.0216    3.8262 O   0  0  0  0  0  0  0  0  0  0  0  0
   22.0588   76.5147    2.6184 C   0  0  0  0  0  0  0  0  0  0  0  0
   22.5989   77.9915    3.7962 H   0  0  0  0  0  0  0  0  0  0  0  0
 25 28  1  0
 25 24  1  0
 25 26  1  6
 25 27  2  0
  1  4  1  0
  1 24  1  0
  1  2  1  1
  1  3  2  0
  6 11  1  0
  6 12  1  0
 29 36  1  0
 29 37  1  0
  9  7  1  6
  7 13  1  0
 10  8  1  6
  8 14  1  0
 37 28  1  1
  4  5  1  0
 33 30  1  1
 30 38  1  0
 34 31  1  6
 31 39  1  0
 35 32  1  6
 32 40  1  0
 41 42  1  0
 41 43  1  0
 15 19  2  0
 16 22  2  0
 12 17  1  1
 17 19  1  0
 17 20  1  0
 18 19  1  0
 18 22  1  0
 18 23  1  0
  9 10  1  0
  9 11  1  0
 10 12  1  0
 11  5  1  1
 33 34  1  0
 33 35  1  0
 34 36  1  0
 35 37  1  0
 36 42  1  1
 20 21  2  0
 21 22  1  0
M  CHG  2   2  -1  26  -1
M  END
>  <COMPND>  (373) 
    8629 

>  <AUTHOR>  (373) 
    GENERATED BY OPEN BABEL 3.1.1

>  <MASTER>  (373) 
        0    0    0    0    0    0    0    0   58    0   58    0

>  <minimizedAffinity>  (373) 
-7.20066

>  <CNNscore>  (373) 
0.8067469597

>  <CNNaffinity>  (373) 
4.4225416183

>  <CNN_VS>  (373) 
3.5678720474

>  <CNNaffinity_variance>  (373) 
0.0906237885

$$$$
374
     RDKit          3D

 43 45  0  0  0  0  0  0  0  0999 V2000
   23.3873   71.7995   -3.2808 P   0  0  2  0  0  0  0  0  0  0  0  0
   24.0901   72.9738   -4.1436 O   0  0  0  0  0  0  0  0  0  0  0  0
   24.2747   70.6339   -2.9560 O   0  0  0  0  0  0  0  0  0  0  0  0
   22.0477   71.4506   -4.1185 O   0  0  0  0  0  0  0  0  0  0  0  0
   21.6024   72.3738   -5.0968 C   0  0  0  0  0  0  0  0  0  0  0  0
   20.5500   70.4470   -6.0734 O   0  0  0  0  0  0  0  0  0  0  0  0
   20.7219   71.9095   -8.6854 O   0  0  0  0  0  0  0  0  0  0  0  0
   18.1201   72.2886   -7.9620 O   0  0  0  0  0  0  0  0  0  0  0  0
   20.4762   72.4241   -7.3777 C   0  0  1  0  0  0  0  0  0  0  0  0
   19.0685   72.0841   -6.9347 C   0  0  2  0  0  0  0  0  0  0  0  0
   21.3212   71.6258   -6.3928 C   0  0  1  0  0  0  0  0  0  0  0  0
   19.2048   70.6213   -6.5475 C   0  0  2  0  0  0  0  0  0  0  0  0
   20.1933   72.4040   -9.3319 H   0  0  0  0  0  0  0  0  0  0  0  0
   18.0700   73.2340   -8.1725 H   0  0  0  0  0  0  0  0  0  0  0  0
   16.5330   69.8162   -6.9849 O   0  0  0  0  0  0  0  0  0  0  0  0
   15.7902   69.1932   -2.4792 O   0  0  0  0  0  0  0  0  0  0  0  0
   18.2909   70.2429   -5.5068 N   0  0  0  0  0  0  0  0  0  0  0  0
   16.1654   69.5065   -4.7411 N   0  0  0  0  0  0  0  0  0  0  0  0
   16.9703   69.8555   -5.8330 C   0  0  0  0  0  0  0  0  0  0  0  0
   18.7070   70.2578   -4.1799 C   0  0  0  0  0  0  0  0  0  0  0  0
   17.9267   69.9234   -3.1501 C   0  0  0  0  0  0  0  0  0  0  0  0
   16.5326   69.5066   -3.4047 C   0  0  0  0  0  0  0  0  0  0  0  0
   15.2412   69.2336   -4.9442 H   0  0  0  0  0  0  0  0  0  0  0  0
   22.8144   72.5887   -1.9917 O   0  0  0  0  0  0  0  0  0  0  0  0
   21.4712   72.3653   -1.1207 P   0  0  2  0  0  0  0  0  0  0  0  0
   21.3288   70.7546   -1.0649 O   0  0  0  0  0  0  0  0  0  0  0  0
   20.2632   73.0755   -1.6594 O   0  0  0  0  0  0  0  0  0  0  0  0
   21.8826   72.7903    0.3810 O   0  0  0  0  0  0  0  0  0  0  0  0
   23.0412   71.1738    1.6698 O   0  0  0  0  0  0  0  0  0  0  0  0
   21.8328   73.6967    4.7072 O   0  0  0  0  0  0  0  0  0  0  0  0
   24.5962   73.6387    3.9271 O   0  0  0  0  0  0  0  0  0  0  0  0
   20.0599   73.1633    2.4819 O   0  0  0  0  0  0  0  0  0  0  0  0
   22.2815   73.3642    3.3906 C   0  0  1  0  0  0  0  0  0  0  0  0
   23.6396   72.6694    3.5079 C   0  0  1  0  0  0  0  0  0  0  0  0
   21.2591   72.4387    2.7337 C   0  0  2  0  0  0  0  0  0  0  0  0
   24.0607   72.0468    2.1700 C   0  0  1  0  0  0  0  0  0  0  0  0
   21.7963   71.8348    1.4349 C   0  0  1  0  0  0  0  0  0  0  0  0
   22.4774   74.2846    5.1297 H   0  0  0  0  0  0  0  0  0  0  0  0
   24.3182   74.0245    4.7727 H   0  0  0  0  0  0  0  0  0  0  0  0
   19.7298   73.5403    3.3118 H   0  0  0  0  0  0  0  0  0  0  0  0
   24.9766   69.9043    2.6994 O   0  0  0  0  0  0  0  0  0  0  0  0
   25.3347   71.2151    2.3020 C   0  0  0  0  0  0  0  0  0  0  0  0
   25.7775   69.3635    2.7871 H   0  0  0  0  0  0  0  0  0  0  0  0
 25 28  1  0
 25 24  1  0
 25 26  1  1
 25 27  2  0
  1  4  1  0
  1 24  1  0
  1  2  1  6
  1  3  2  0
  6 11  1  0
  6 12  1  0
 29 36  1  0
 29 37  1  0
  9  7  1  6
  7 13  1  0
 10  8  1  6
  8 14  1  0
 37 28  1  6
  4  5  1  0
 33 30  1  1
 30 38  1  0
 34 31  1  6
 31 39  1  0
 35 32  1  6
 32 40  1  0
 41 42  1  0
 41 43  1  0
 15 19  2  0
 16 22  2  0
 12 17  1  1
 17 19  1  0
 17 20  1  0
 18 19  1  0
 18 22  1  0
 18 23  1  0
  9 10  1  0
  9 11  1  0
 10 12  1  0
 11  5  1  1
 33 34  1  0
 33 35  1  0
 34 36  1  0
 35 37  1  0
 36 42  1  1
 20 21  2  0
 21 22  1  0
M  CHG  2   2  -1  26  -1
M  END
>  <COMPND>  (374) 
    8629 

>  <AUTHOR>  (374) 
    GENERATED BY OPEN BABEL 3.1.1

>  <MASTER>  (374) 
        0    0    0    0    0    0    0    0   58    0   58    0

>  <minimizedAffinity>  (374) 
-7.78125

>  <CNNscore>  (374) 
0.7334125638

>  <CNNaffinity>  (374) 
4.4501318932

>  <CNN_VS>  (374) 
3.2637827396

>  <CNNaffinity_variance>  (374) 
0.1826694757

$$$$
375
     RDKit          3D

 43 45  0  0  0  0  0  0  0  0999 V2000
   20.7437   72.5105   -5.1422 P   0  0  2  0  0  0  0  0  0  0  0  0
   19.8807   73.7904   -5.6266 O   0  0  0  0  0  0  0  0  0  0  0  0
   22.2218   72.7460   -5.0367 O   0  0  0  0  0  0  0  0  0  0  0  0
   20.2905   71.3313   -6.1532 O   0  0  0  0  0  0  0  0  0  0  0  0
   20.1098   71.6471   -7.5226 C   0  0  0  0  0  0  0  0  0  0  0  0
   18.6637   69.7626   -7.1604 O   0  0  0  0  0  0  0  0  0  0  0  0
   17.9465   69.9929  -10.0627 O   0  0  0  0  0  0  0  0  0  0  0  0
   15.8192   71.1718   -8.8294 O   0  0  0  0  0  0  0  0  0  0  0  0
   18.2287   71.0245   -9.1186 C   0  0  1  0  0  0  0  0  0  0  0  0
   17.0656   71.1962   -8.1640 C   0  0  2  0  0  0  0  0  0  0  0  0
   19.3295   70.5239   -8.1917 C   0  0  1  0  0  0  0  0  0  0  0  0
   17.2507   70.0156   -7.2260 C   0  0  2  0  0  0  0  0  0  0  0  0
   17.2464   70.2896  -10.6659 H   0  0  0  0  0  0  0  0  0  0  0  0
   15.7494   71.9427   -9.4139 H   0  0  0  0  0  0  0  0  0  0  0  0
   16.3756   68.0350   -5.4124 O   0  0  0  0  0  0  0  0  0  0  0  0
   15.4006   71.1686   -2.1765 O   0  0  0  0  0  0  0  0  0  0  0  0
   16.7635   70.2858   -5.9027 N   0  0  0  0  0  0  0  0  0  0  0  0
   15.8910   69.5969   -3.8026 N   0  0  0  0  0  0  0  0  0  0  0  0
   16.3475   69.2194   -5.0719 C   0  0  0  0  0  0  0  0  0  0  0  0
   16.7022   71.5961   -5.4410 C   0  0  0  0  0  0  0  0  0  0  0  0
   16.2631   71.9394   -4.2283 C   0  0  0  0  0  0  0  0  0  0  0  0
   15.8098   70.8852   -3.2982 C   0  0  0  0  0  0  0  0  0  0  0  0
   15.5956   68.8708   -3.2066 H   0  0  0  0  0  0  0  0  0  0  0  0
   20.0281   72.0939   -3.7539 O   0  0  0  0  0  0  0  0  0  0  0  0
   20.1429   70.7509   -2.8617 P   0  0  2  0  0  0  0  0  0  0  0  0
   21.3638   69.9477   -3.5558 O   0  0  0  0  0  0  0  0  0  0  0  0
   18.8655   69.9686   -2.7600 O   0  0  0  0  0  0  0  0  0  0  0  0
   20.7360   71.2503   -1.4462 O   0  0  0  0  0  0  0  0  0  0  0  0
   22.9420   72.0360   -1.8101 O   0  0  0  0  0  0  0  0  0  0  0  0
   22.7756   72.4162    2.2983 O   0  0  0  0  0  0  0  0  0  0  0  0
   22.7042   74.7687    0.6526 O   0  0  0  0  0  0  0  0  0  0  0  0
   21.5316   70.1436    1.0068 O   0  0  0  0  0  0  0  0  0  0  0  0
   22.2573   72.4399    0.9655 C   0  0  1  0  0  0  0  0  0  0  0  0
   23.0469   73.4755    0.1624 C   0  0  1  0  0  0  0  0  0  0  0  0
   22.4073   71.0514    0.3468 C   0  0  2  0  0  0  0  0  0  0  0  0
   22.7326   73.3714   -1.3361 C   0  0  1  0  0  0  0  0  0  0  0  0
   22.1193   71.0683   -1.1555 C   0  0  1  0  0  0  0  0  0  0  0  0
   22.6829   73.2948    2.6970 H   0  0  0  0  0  0  0  0  0  0  0  0
   22.9071   74.8210    1.5998 H   0  0  0  0  0  0  0  0  0  0  0  0
   21.7242   70.1419    1.9570 H   0  0  0  0  0  0  0  0  0  0  0  0
   22.8163   74.9535   -3.1247 O   0  0  0  0  0  0  0  0  0  0  0  0
   23.6243   74.2866   -2.1724 C   0  0  0  0  0  0  0  0  0  0  0  0
   23.3704   75.5398   -3.6640 H   0  0  0  0  0  0  0  0  0  0  0  0
 25 28  1  0
 25 24  1  0
 25 26  1  6
 25 27  2  0
  1  4  1  0
  1 24  1  0
  1  2  1  6
  1  3  2  0
  6 11  1  0
  6 12  1  0
 29 36  1  0
 29 37  1  0
  9  7  1  6
  7 13  1  0
 10  8  1  6
  8 14  1  0
 37 28  1  1
  4  5  1  0
 33 30  1  1
 30 38  1  0
 34 31  1  1
 31 39  1  0
 35 32  1  1
 32 40  1  0
 41 42  1  0
 41 43  1  0
 15 19  2  0
 16 22  2  0
 12 17  1  1
 17 19  1  0
 17 20  1  0
 18 19  1  0
 18 22  1  0
 18 23  1  0
  9 10  1  0
  9 11  1  0
 10 12  1  0
 11  5  1  1
 33 34  1  0
 33 35  1  0
 34 36  1  0
 35 37  1  0
 36 42  1  6
 20 21  2  0
 21 22  1  0
M  CHG  2   2  -1  26  -1
M  END
>  <COMPND>  (375) 
    8629 

>  <AUTHOR>  (375) 
    GENERATED BY OPEN BABEL 3.1.1

>  <MASTER>  (375) 
        0    0    0    0    0    0    0    0   58    0   58    0

>  <minimizedAffinity>  (375) 
-7.15597

>  <CNNscore>  (375) 
0.7310686707

>  <CNNaffinity>  (375) 
4.5293207169

>  <CNN_VS>  (375) 
3.3112444878

>  <CNNaffinity_variance>  (375) 
0.2414260656

$$$$
376
     RDKit          3D

 43 45  0  0  0  0  0  0  0  0999 V2000
   21.8604   72.5532   -5.6862 P   0  0  2  0  0  0  0  0  0  0  0  0
   21.1635   73.9967   -5.4670 O   0  0  0  0  0  0  0  0  0  0  0  0
   23.1445   72.5806   -6.4618 O   0  0  0  0  0  0  0  0  0  0  0  0
   20.6794   71.6430   -6.3144 O   0  0  0  0  0  0  0  0  0  0  0  0
   20.1421   72.0076   -7.5739 C   0  0  0  0  0  0  0  0  0  0  0  0
   18.9549   69.9601   -7.1590 O   0  0  0  0  0  0  0  0  0  0  0  0
   18.1676   70.0494  -10.0509 O   0  0  0  0  0  0  0  0  0  0  0  0
   15.9271   70.9672   -8.7962 O   0  0  0  0  0  0  0  0  0  0  0  0
   18.3307   71.1239   -9.1266 C   0  0  1  0  0  0  0  0  0  0  0  0
   17.1706   71.1614   -8.1539 C   0  0  2  0  0  0  0  0  0  0  0  0
   19.5012   70.7832   -8.2128 C   0  0  1  0  0  0  0  0  0  0  0  0
   17.5203   70.0296   -7.2027 C   0  0  2  0  0  0  0  0  0  0  0  0
   17.4258   70.2444  -10.6455 H   0  0  0  0  0  0  0  0  0  0  0  0
   15.7499   71.7132   -9.3903 H   0  0  0  0  0  0  0  0  0  0  0  0
   16.2599   68.0650   -5.6121 O   0  0  0  0  0  0  0  0  0  0  0  0
   15.6543   71.0157   -2.1238 O   0  0  0  0  0  0  0  0  0  0  0  0
   17.0239   70.2570   -5.8748 N   0  0  0  0  0  0  0  0  0  0  0  0
   15.9596   69.5358   -3.8764 N   0  0  0  0  0  0  0  0  0  0  0  0
   16.4062   69.2032   -5.1617 C   0  0  0  0  0  0  0  0  0  0  0  0
   17.1520   71.5134   -5.2928 C   0  0  0  0  0  0  0  0  0  0  0  0
   16.7196   71.8146   -4.0666 C   0  0  0  0  0  0  0  0  0  0  0  0
   16.0627   70.7701   -3.2546 C   0  0  0  0  0  0  0  0  0  0  0  0
   15.5257   68.8175   -3.3610 H   0  0  0  0  0  0  0  0  0  0  0  0
   21.9964   71.9828   -4.1798 O   0  0  0  0  0  0  0  0  0  0  0  0
   23.2101   72.0733   -3.1160 P   0  0  2  0  0  0  0  0  0  0  0  0
   23.8661   73.5198   -3.4236 O   0  0  0  0  0  0  0  0  0  0  0  0
   24.1771   70.9271   -3.1867 O   0  0  0  0  0  0  0  0  0  0  0  0
   22.4861   72.2502   -1.6843 O   0  0  0  0  0  0  0  0  0  0  0  0
   23.3742   70.6261   -0.2044 O   0  0  0  0  0  0  0  0  0  0  0  0
   20.4874   72.2544    2.2584 O   0  0  0  0  0  0  0  0  0  0  0  0
   23.2591   72.8160    2.7586 O   0  0  0  0  0  0  0  0  0  0  0  0
   19.9406   71.8866   -0.5603 O   0  0  0  0  0  0  0  0  0  0  0  0
   21.4925   72.2709    1.2411 C   0  0  1  0  0  0  0  0  0  0  0  0
   22.8106   71.8038    1.8617 C   0  0  1  0  0  0  0  0  0  0  0  0
   21.0711   71.3373    0.1079 C   0  0  2  0  0  0  0  0  0  0  0  0
   23.8685   71.5398    0.7818 C   0  0  1  0  0  0  0  0  0  0  0  0
   22.2115   71.1030   -0.8844 C   0  0  1  0  0  0  0  0  0  0  0  0
   20.7486   72.8456    2.9808 H   0  0  0  0  0  0  0  0  0  0  0  0
   22.5819   72.9735    3.4352 H   0  0  0  0  0  0  0  0  0  0  0  0
   19.2256   72.0300    0.0786 H   0  0  0  0  0  0  0  0  0  0  0  0
   24.8077   70.2741    2.5776 O   0  0  0  0  0  0  0  0  0  0  0  0
   25.1387   70.9235    1.3640 C   0  0  0  0  0  0  0  0  0  0  0  0
   25.6065   69.8769    2.9595 H   0  0  0  0  0  0  0  0  0  0  0  0
 25 28  1  0
 25 24  1  0
 25 26  1  6
 25 27  2  0
  1  4  1  0
  1 24  1  0
  1  2  1  1
  1  3  2  0
  6 11  1  0
  6 12  1  0
 29 36  1  0
 29 37  1  0
  9  7  1  6
  7 13  1  0
 10  8  1  6
  8 14  1  0
 37 28  1  1
  4  5  1  0
 33 30  1  1
 30 38  1  0
 34 31  1  1
 31 39  1  0
 35 32  1  6
 32 40  1  0
 41 42  1  0
 41 43  1  0
 15 19  2  0
 16 22  2  0
 12 17  1  1
 17 19  1  0
 17 20  1  0
 18 19  1  0
 18 22  1  0
 18 23  1  0
  9 10  1  0
  9 11  1  0
 10 12  1  0
 11  5  1  1
 33 34  1  0
 33 35  1  0
 34 36  1  0
 35 37  1  0
 36 42  1  1
 20 21  2  0
 21 22  1  0
M  CHG  2   2  -1  26  -1
M  END
>  <COMPND>  (376) 
    8629 

>  <AUTHOR>  (376) 
    GENERATED BY OPEN BABEL 3.1.1

>  <MASTER>  (376) 
        0    0    0    0    0    0    0    0   58    0   58    0

>  <minimizedAffinity>  (376) 
-8.35528

>  <CNNscore>  (376) 
0.7111044526

>  <CNNaffinity>  (376) 
4.4794859886

>  <CNN_VS>  (376) 
3.1853823662

>  <CNNaffinity_variance>  (376) 
0.2587301731

$$$$
377
     RDKit          3D

 43 45  0  0  0  0  0  0  0  0999 V2000
   21.5245   71.9609   -5.5691 P   0  0  2  0  0  0  0  0  0  0  0  0
   23.0531   72.4907   -5.5816 O   0  0  0  0  0  0  0  0  0  0  0  0
   21.1753   71.0603   -4.4209 O   0  0  0  0  0  0  0  0  0  0  0  0
   21.3202   71.3294   -7.0447 O   0  0  0  0  0  0  0  0  0  0  0  0
   20.2474   71.8029   -7.8401 C   0  0  0  0  0  0  0  0  0  0  0  0
   18.9893   69.8200   -7.3311 O   0  0  0  0  0  0  0  0  0  0  0  0
   18.0044   69.9445  -10.1605 O   0  0  0  0  0  0  0  0  0  0  0  0
   15.9085   70.9789   -8.7555 O   0  0  0  0  0  0  0  0  0  0  0  0
   18.2875   71.0109   -9.2560 C   0  0  1  0  0  0  0  0  0  0  0  0
   17.2028   71.1099   -8.2038 C   0  0  2  0  0  0  0  0  0  0  0  0
   19.5009   70.6119   -8.4254 C   0  0  1  0  0  0  0  0  0  0  0  0
   17.5606   69.9632   -7.2735 C   0  0  2  0  0  0  0  0  0  0  0  0
   17.2332   70.1764  -10.7022 H   0  0  0  0  0  0  0  0  0  0  0  0
   15.7281   71.7319   -9.3395 H   0  0  0  0  0  0  0  0  0  0  0  0
   16.0355   68.1897   -5.6902 O   0  0  0  0  0  0  0  0  0  0  0  0
   16.1274   71.0474   -2.0755 O   0  0  0  0  0  0  0  0  0  0  0  0
   17.1719   70.2183   -5.9151 N   0  0  0  0  0  0  0  0  0  0  0  0
   16.0827   69.6140   -3.8916 N   0  0  0  0  0  0  0  0  0  0  0  0
   16.4052   69.2626   -5.2086 C   0  0  0  0  0  0  0  0  0  0  0  0
   17.5510   71.4050   -5.2971 C   0  0  0  0  0  0  0  0  0  0  0  0
   17.2342   71.7255   -4.0408 C   0  0  0  0  0  0  0  0  0  0  0  0
   16.4348   70.7816   -3.2334 C   0  0  0  0  0  0  0  0  0  0  0  0
   15.5486   68.9636   -3.3801 H   0  0  0  0  0  0  0  0  0  0  0  0
   20.6653   73.3284   -5.6370 O   0  0  0  0  0  0  0  0  0  0  0  0
   20.6981   74.6500   -4.7068 P   0  0  2  0  0  0  0  0  0  0  0  0
   19.1378   74.8963   -4.3570 O   0  0  0  0  0  0  0  0  0  0  0  0
   21.3853   75.8277   -5.3349 O   0  0  0  0  0  0  0  0  0  0  0  0
   21.3542   74.1555   -3.3175 O   0  0  0  0  0  0  0  0  0  0  0  0
   20.3437   72.8717   -1.6007 O   0  0  0  0  0  0  0  0  0  0  0  0
   22.8352   75.2182    0.7096 O   0  0  0  0  0  0  0  0  0  0  0  0
   23.4541   72.4396    0.3299 O   0  0  0  0  0  0  0  0  0  0  0  0
   21.4964   76.3612   -1.5884 O   0  0  0  0  0  0  0  0  0  0  0  0
   22.4545   74.4687   -0.4475 C   0  0  1  0  0  0  0  0  0  0  0  0
   22.2015   73.0217   -0.0197 C   0  0  1  0  0  0  0  0  0  0  0  0
   21.1895   75.0816   -1.0453 C   0  0  2  0  0  0  0  0  0  0  0  0
   21.5350   72.2196   -1.1456 C   0  0  1  0  0  0  0  0  0  0  0  0
   20.5797   74.1814   -2.1213 C   0  0  1  0  0  0  0  0  0  0  0  0
   23.6381   74.8344    1.0937 H   0  0  0  0  0  0  0  0  0  0  0  0
   23.8646   72.9557    1.0414 H   0  0  0  0  0  0  0  0  0  0  0  0
   21.8814   76.9217   -0.8974 H   0  0  0  0  0  0  0  0  0  0  0  0
   21.0537   70.8133    0.7251 O   0  0  0  0  0  0  0  0  0  0  0  0
   21.1305   70.8198   -0.6885 C   0  0  0  0  0  0  0  0  0  0  0  0
   20.7969   69.9287    1.0303 H   0  0  0  0  0  0  0  0  0  0  0  0
 25 28  1  0
 25 24  1  0
 25 26  1  1
 25 27  2  0
  1  4  1  0
  1 24  1  0
  1  2  1  1
  1  3  2  0
  6 11  1  0
  6 12  1  0
 29 36  1  0
 29 37  1  0
  9  7  1  6
  7 13  1  0
 10  8  1  6
  8 14  1  0
 37 28  1  6
  4  5  1  0
 33 30  1  1
 30 38  1  0
 34 31  1  6
 31 39  1  0
 35 32  1  6
 32 40  1  0
 41 42  1  0
 41 43  1  0
 15 19  2  0
 16 22  2  0
 12 17  1  1
 17 19  1  0
 17 20  1  0
 18 19  1  0
 18 22  1  0
 18 23  1  0
  9 10  1  0
  9 11  1  0
 10 12  1  0
 11  5  1  1
 33 34  1  0
 33 35  1  0
 34 36  1  0
 35 37  1  0
 36 42  1  1
 20 21  2  0
 21 22  1  0
M  CHG  2   2  -1  26  -1
M  END
>  <COMPND>  (377) 
    8629 

>  <AUTHOR>  (377) 
    GENERATED BY OPEN BABEL 3.1.1

>  <MASTER>  (377) 
        0    0    0    0    0    0    0    0   58    0   58    0

>  <minimizedAffinity>  (377) 
-6.68176

>  <CNNscore>  (377) 
0.6658661962

>  <CNNaffinity>  (377) 
4.4188833237

>  <CNN_VS>  (377) 
2.9423849583

>  <CNNaffinity_variance>  (377) 
0.1775743663

$$$$
378
     RDKit          3D

 43 45  0  0  0  0  0  0  0  0999 V2000
   22.9311   71.4679   -2.7032 P   0  0  2  0  0  0  0  0  0  0  0  0
   22.9290   73.0467   -2.3500 O   0  0  0  0  0  0  0  0  0  0  0  0
   24.2614   70.9139   -3.1215 O   0  0  0  0  0  0  0  0  0  0  0  0
   21.7339   71.3093   -3.7800 O   0  0  0  0  0  0  0  0  0  0  0  0
   21.5869   72.3034   -4.7789 C   0  0  0  0  0  0  0  0  0  0  0  0
   20.5296   70.4607   -5.9016 O   0  0  0  0  0  0  0  0  0  0  0  0
   20.8924   72.0348   -8.4278 O   0  0  0  0  0  0  0  0  0  0  0  0
   18.2678   72.4693   -7.8284 O   0  0  0  0  0  0  0  0  0  0  0  0
   20.5911   72.4970   -7.1122 C   0  0  1  0  0  0  0  0  0  0  0  0
   19.1509   72.1854   -6.7624 C   0  0  2  0  0  0  0  0  0  0  0  0
   21.3544   71.6258   -6.1224 C   0  0  1  0  0  0  0  0  0  0  0  0
   19.2189   70.7027   -6.4386 C   0  0  2  0  0  0  0  0  0  0  0  0
   20.4164   72.5763   -9.0775 H   0  0  0  0  0  0  0  0  0  0  0  0
   18.2595   73.4246   -7.9959 H   0  0  0  0  0  0  0  0  0  0  0  0
   16.5883   69.8900   -7.0689 O   0  0  0  0  0  0  0  0  0  0  0  0
   15.5386   69.2135   -2.6325 O   0  0  0  0  0  0  0  0  0  0  0  0
   18.2373   70.3084   -5.4679 N   0  0  0  0  0  0  0  0  0  0  0  0
   16.0678   69.5536   -4.8594 N   0  0  0  0  0  0  0  0  0  0  0  0
   16.9445   69.9185   -5.8891 C   0  0  0  0  0  0  0  0  0  0  0  0
   18.5603   70.3105   -4.1154 C   0  0  0  0  0  0  0  0  0  0  0  0
   17.7124   69.9610   -3.1458 C   0  0  0  0  0  0  0  0  0  0  0  0
   16.3415   69.5406   -3.5009 C   0  0  0  0  0  0  0  0  0  0  0  0
   15.1614   69.2788   -5.1290 H   0  0  0  0  0  0  0  0  0  0  0  0
   22.3118   70.7963   -1.3697 O   0  0  0  0  0  0  0  0  0  0  0  0
   21.6293   71.4622   -0.0645 P   0  0  2  0  0  0  0  0  0  0  0  0
   21.4711   70.2120    0.9502 O   0  0  0  0  0  0  0  0  0  0  0  0
   20.3507   72.1970   -0.3459 O   0  0  0  0  0  0  0  0  0  0  0  0
   22.7935   72.3708    0.5866 O   0  0  0  0  0  0  0  0  0  0  0  0
   22.1283   73.5174    2.5511 O   0  0  0  0  0  0  0  0  0  0  0  0
   25.6741   75.4961    1.8011 O   0  0  0  0  0  0  0  0  0  0  0  0
   25.5184   73.6471    3.9931 O   0  0  0  0  0  0  0  0  0  0  0  0
   23.9565   74.7272   -0.3984 O   0  0  0  0  0  0  0  0  0  0  0  0
   24.7910   74.3716    1.8328 C   0  0  1  0  0  0  0  0  0  0  0  0
   24.3783   74.1268    3.2856 C   0  0  1  0  0  0  0  0  0  0  0  0
   23.5673   74.6735    0.9698 C   0  0  2  0  0  0  0  0  0  0  0  0
   23.2301   73.1123    3.3718 C   0  0  1  0  0  0  0  0  0  0  0  0
   22.4658   73.6305    1.1672 C   0  0  1  0  0  0  0  0  0  0  0  0
   26.4535   75.3107    2.3467 H   0  0  0  0  0  0  0  0  0  0  0  0
   26.2362   74.2967    3.9304 H   0  0  0  0  0  0  0  0  0  0  0  0
   24.6539   75.3912   -0.5103 H   0  0  0  0  0  0  0  0  0  0  0  0
   21.3760   73.4782    4.8338 O   0  0  0  0  0  0  0  0  0  0  0  0
   22.6973   72.9712    4.7960 C   0  0  0  0  0  0  0  0  0  0  0  0
   21.0239   73.3946    5.7342 H   0  0  0  0  0  0  0  0  0  0  0  0
 25 28  1  0
 25 24  1  0
 25 26  1  1
 25 27  2  0
  1  4  1  0
  1 24  1  0
  1  2  1  1
  1  3  2  0
  6 11  1  0
  6 12  1  0
 29 36  1  0
 29 37  1  0
  9  7  1  6
  7 13  1  0
 10  8  1  6
  8 14  1  0
 37 28  1  1
  4  5  1  0
 33 30  1  1
 30 38  1  0
 34 31  1  1
 31 39  1  0
 35 32  1  6
 32 40  1  0
 41 42  1  0
 41 43  1  0
 15 19  2  0
 16 22  2  0
 12 17  1  1
 17 19  1  0
 17 20  1  0
 18 19  1  0
 18 22  1  0
 18 23  1  0
  9 10  1  0
  9 11  1  0
 10 12  1  0
 11  5  1  1
 33 34  1  0
 33 35  1  0
 34 36  1  0
 35 37  1  0
 36 42  1  1
 20 21  2  0
 21 22  1  0
M  CHG  2   2  -1  26  -1
M  END
>  <COMPND>  (378) 
    8629 

>  <AUTHOR>  (378) 
    GENERATED BY OPEN BABEL 3.1.1

>  <MASTER>  (378) 
        0    0    0    0    0    0    0    0   58    0   58    0

>  <minimizedAffinity>  (378) 
-7.39867

>  <CNNscore>  (378) 
0.6175165176

>  <CNNaffinity>  (378) 
4.2371149063

>  <CNN_VS>  (378) 
2.6164884567

>  <CNNaffinity_variance>  (378) 
0.1763297319

$$$$
379
     RDKit          3D

 43 45  0  0  0  0  0  0  0  0999 V2000
   23.0459   71.3806   -2.0423 P   0  0  2  0  0  0  0  0  0  0  0  0
   24.1831   70.7945   -3.0326 O   0  0  0  0  0  0  0  0  0  0  0  0
   21.7180   70.6863   -2.1209 O   0  0  0  0  0  0  0  0  0  0  0  0
   23.0298   72.9661   -2.3645 O   0  0  0  0  0  0  0  0  0  0  0  0
   22.1281   73.4475   -3.3458 C   0  0  0  0  0  0  0  0  0  0  0  0
   22.3267   72.2059   -5.3934 O   0  0  0  0  0  0  0  0  0  0  0  0
   23.4825   74.7059   -6.5785 O   0  0  0  0  0  0  0  0  0  0  0  0
   20.9126   74.7493   -7.4896 O   0  0  0  0  0  0  0  0  0  0  0  0
   22.4443   74.5627   -5.6107 C   0  0  1  0  0  0  0  0  0  0  0  0
   21.1711   74.0788   -6.2729 C   0  0  2  0  0  0  0  0  0  0  0  0
   22.8012   73.3867   -4.7101 C   0  0  1  0  0  0  0  0  0  0  0  0
   21.4608   72.6005   -6.4702 C   0  0  2  0  0  0  0  0  0  0  0  0
   23.2769   75.4513   -7.1651 H   0  0  0  0  0  0  0  0  0  0  0  0
   20.7342   75.6859   -7.3112 H   0  0  0  0  0  0  0  0  0  0  0  0
   20.3167   71.3262   -8.7163 O   0  0  0  0  0  0  0  0  0  0  0  0
   16.8917   69.5515   -6.1941 O   0  0  0  0  0  0  0  0  0  0  0  0
   20.2704   71.7989   -6.4290 N   0  0  0  0  0  0  0  0  0  0  0  0
   18.6124   70.4434   -7.4586 N   0  0  0  0  0  0  0  0  0  0  0  0
   19.7784   71.2038   -7.6140 C   0  0  0  0  0  0  0  0  0  0  0  0
   19.6040   71.6092   -5.2233 C   0  0  0  0  0  0  0  0  0  0  0  0
   18.4925   70.8823   -5.0921 C   0  0  0  0  0  0  0  0  0  0  0  0
   17.9128   70.2264   -6.2820 C   0  0  0  0  0  0  0  0  0  0  0  0
   18.2510   70.0196   -8.2707 H   0  0  0  0  0  0  0  0  0  0  0  0
   23.7563   71.3117   -0.5920 O   0  0  0  0  0  0  0  0  0  0  0  0
   23.1643   70.9300    0.8630 P   0  0  2  0  0  0  0  0  0  0  0  0
   24.3514   70.0552    1.5286 O   0  0  0  0  0  0  0  0  0  0  0  0
   21.8326   70.2381    0.8233 O   0  0  0  0  0  0  0  0  0  0  0  0
   23.1720   72.3193    1.6844 O   0  0  0  0  0  0  0  0  0  0  0  0
   21.7551   72.8622    3.5049 O   0  0  0  0  0  0  0  0  0  0  0  0
   22.3357   76.6506    1.9681 O   0  0  0  0  0  0  0  0  0  0  0  0
   23.6063   75.9113    4.4353 O   0  0  0  0  0  0  0  0  0  0  0  0
   22.0362   74.3962    0.1772 O   0  0  0  0  0  0  0  0  0  0  0  0
   22.7041   75.3100    2.3033 C   0  0  1  0  0  0  0  0  0  0  0  0
   22.5771   75.1424    3.8188 C   0  0  1  0  0  0  0  0  0  0  0  0
   21.7750   74.3402    1.5755 C   0  0  2  0  0  0  0  0  0  0  0  0
   22.6960   73.6673    4.2249 C   0  0  1  0  0  0  0  0  0  0  0  0
   21.9388   72.9085    2.0886 C   0  0  1  0  0  0  0  0  0  0  0  0
   22.9222   77.2714    2.4266 H   0  0  0  0  0  0  0  0  0  0  0  0
   23.5202   76.8405    4.1703 H   0  0  0  0  0  0  0  0  0  0  0  0
   21.9289   75.3075   -0.1354 H   0  0  0  0  0  0  0  0  0  0  0  0
   21.0344   73.6674    5.9419 O   0  0  0  0  0  0  0  0  0  0  0  0
   22.4156   73.4591    5.7116 C   0  0  0  0  0  0  0  0  0  0  0  0
   20.8412   73.5379    6.8840 H   0  0  0  0  0  0  0  0  0  0  0  0
 25 28  1  0
 25 24  1  0
 25 26  1  1
 25 27  2  0
  1  4  1  0
  1 24  1  0
  1  2  1  6
  1  3  2  0
  6 11  1  0
  6 12  1  0
 29 36  1  0
 29 37  1  0
  9  7  1  6
  7 13  1  0
 10  8  1  6
  8 14  1  0
 37 28  1  1
  4  5  1  0
 33 30  1  1
 30 38  1  0
 34 31  1  1
 31 39  1  0
 35 32  1  6
 32 40  1  0
 41 42  1  0
 41 43  1  0
 15 19  2  0
 16 22  2  0
 12 17  1  1
 17 19  1  0
 17 20  1  0
 18 19  1  0
 18 22  1  0
 18 23  1  0
  9 10  1  0
  9 11  1  0
 10 12  1  0
 11  5  1  1
 33 34  1  0
 33 35  1  0
 34 36  1  0
 35 37  1  0
 36 42  1  1
 20 21  2  0
 21 22  1  0
M  CHG  2   2  -1  26  -1
M  END
>  <COMPND>  (379) 
    8629 

>  <AUTHOR>  (379) 
    GENERATED BY OPEN BABEL 3.1.1

>  <MASTER>  (379) 
        0    0    0    0    0    0    0    0   58    0   58    0

>  <minimizedAffinity>  (379) 
-6.90315

>  <CNNscore>  (379) 
0.5995599627

>  <CNNaffinity>  (379) 
4.1731419563

>  <CNN_VS>  (379) 
2.5020487309

>  <CNNaffinity_variance>  (379) 
0.0167566203

$$$$
380
     RDKit          3D

 43 45  0  0  0  0  0  0  0  0999 V2000
   19.4997   74.7304   -2.8977 P   0  0  2  0  0  0  0  0  0  0  0  0
   19.2515   76.1237   -3.6816 O   0  0  0  0  0  0  0  0  0  0  0  0
   18.5741   74.4787   -1.7439 O   0  0  0  0  0  0  0  0  0  0  0  0
   21.0771   74.7621   -2.5391 O   0  0  0  0  0  0  0  0  0  0  0  0
   21.5099   74.1471   -1.3382 C   0  0  0  0  0  0  0  0  0  0  0  0
   23.2945   72.5548   -1.1069 O   0  0  0  0  0  0  0  0  0  0  0  0
   21.2470   70.4522   -1.7211 O   0  0  0  0  0  0  0  0  0  0  0  0
   21.4755   70.2850    0.9912 O   0  0  0  0  0  0  0  0  0  0  0  0
   21.1034   71.6615   -0.9781 C   0  0  1  0  0  0  0  0  0  0  0  0
   21.7615   71.5261    0.3792 C   0  0  2  0  0  0  0  0  0  0  0  0
   21.9650   72.7268   -1.6445 C   0  0  1  0  0  0  0  0  0  0  0  0
   23.2326   71.6820    0.0330 C   0  0  2  0  0  0  0  0  0  0  0  0
   20.7055   69.7569   -1.3146 H   0  0  0  0  0  0  0  0  0  0  0  0
   20.5279   70.2341    1.1919 H   0  0  0  0  0  0  0  0  0  0  0  0
   25.5112   70.4928    1.2041 O   0  0  0  0  0  0  0  0  0  0  0  0
   26.0552   73.9988    4.1457 O   0  0  0  0  0  0  0  0  0  0  0  0
   23.9893   72.2623    1.1063 N   0  0  0  0  0  0  0  0  0  0  0  0
   25.7803   72.2396    2.6677 N   0  0  0  0  0  0  0  0  0  0  0  0
   25.1168   71.5829    1.6234 C   0  0  0  0  0  0  0  0  0  0  0  0
   23.6116   73.4920    1.6348 C   0  0  0  0  0  0  0  0  0  0  0  0
   24.2542   74.1042    2.6315 C   0  0  0  0  0  0  0  0  0  0  0  0
   25.4429   73.4613    3.2281 C   0  0  0  0  0  0  0  0  0  0  0  0
   26.5686   71.7848    3.0440 H   0  0  0  0  0  0  0  0  0  0  0  0
   19.4176   73.6295   -4.0785 O   0  0  0  0  0  0  0  0  0  0  0  0
   20.4861   73.2130   -5.2177 P   0  0  2  0  0  0  0  0  0  0  0  0
   21.2865   71.9796   -4.5425 O   0  0  0  0  0  0  0  0  0  0  0  0
   21.3626   74.3404   -5.6810 O   0  0  0  0  0  0  0  0  0  0  0  0
   19.5982   72.5341   -6.3820 O   0  0  0  0  0  0  0  0  0  0  0  0
   18.8461   70.3020   -6.1200 O   0  0  0  0  0  0  0  0  0  0  0  0
   18.5244   70.6292  -10.2237 O   0  0  0  0  0  0  0  0  0  0  0  0
   16.1467   70.5936   -8.6134 O   0  0  0  0  0  0  0  0  0  0  0  0
   20.7552   71.8580   -8.8477 O   0  0  0  0  0  0  0  0  0  0  0  0
   18.4717   71.0922   -8.8716 C   0  0  1  0  0  0  0  0  0  0  0  0
   17.4383   70.2532   -8.1174 C   0  0  1  0  0  0  0  0  0  0  0  0
   19.8533   70.9408   -8.2379 C   0  0  2  0  0  0  0  0  0  0  0  0
   17.5145   70.5079   -6.6059 C   0  0  1  0  0  0  0  0  0  0  0  0
   19.8088   71.1671   -6.7256 C   0  0  1  0  0  0  0  0  0  0  0  0
   17.6504   70.7231  -10.6321 H   0  0  0  0  0  0  0  0  0  0  0  0
   16.1121   70.4285   -9.5688 H   0  0  0  0  0  0  0  0  0  0  0  0
   20.7745   71.7043   -9.8047 H   0  0  0  0  0  0  0  0  0  0  0  0
   15.9204   70.3215   -4.8359 O   0  0  0  0  0  0  0  0  0  0  0  0
   16.6027   69.5675   -5.8208 C   0  0  0  0  0  0  0  0  0  0  0  0
   15.3361   69.7360   -4.3285 H   0  0  0  0  0  0  0  0  0  0  0  0
 25 28  1  0
 25 24  1  0
 25 26  1  1
 25 27  2  0
  1  4  1  0
  1 24  1  0
  1  2  1  6
  1  3  2  0
  6 11  1  0
  6 12  1  0
 29 36  1  0
 29 37  1  0
  9  7  1  6
  7 13  1  0
 10  8  1  6
  8 14  1  0
 37 28  1  6
  4  5  1  0
 33 30  1  6
 30 38  1  0
 34 31  1  6
 31 39  1  0
 35 32  1  6
 32 40  1  0
 41 42  1  0
 41 43  1  0
 15 19  2  0
 16 22  2  0
 12 17  1  1
 17 19  1  0
 17 20  1  0
 18 19  1  0
 18 22  1  0
 18 23  1  0
  9 10  1  0
  9 11  1  0
 10 12  1  0
 11  5  1  1
 33 34  1  0
 33 35  1  0
 34 36  1  0
 35 37  1  0
 36 42  1  1
 20 21  2  0
 21 22  1  0
M  CHG  2   2  -1  26  -1
M  END
>  <COMPND>  (380) 
    8629 

>  <AUTHOR>  (380) 
    GENERATED BY OPEN BABEL 3.1.1

>  <MASTER>  (380) 
        0    0    0    0    0    0    0    0   58    0   58    0

>  <minimizedAffinity>  (380) 
-6.94443

>  <CNNscore>  (380) 
0.5784056783

>  <CNNaffinity>  (380) 
4.2581110001

>  <CNN_VS>  (380) 
2.4629156590

>  <CNNaffinity_variance>  (380) 
0.2239976823

$$$$
381
     RDKit          3D

 43 45  0  0  0  0  0  0  0  0999 V2000
   22.6225   71.5207   -2.5250 P   0  0  2  0  0  0  0  0  0  0  0  0
   22.1924   72.7924   -3.4279 O   0  0  0  0  0  0  0  0  0  0  0  0
   23.9205   70.8767   -2.9149 O   0  0  0  0  0  0  0  0  0  0  0  0
   21.3217   70.5593   -2.5635 O   0  0  0  0  0  0  0  0  0  0  0  0
   20.6183   70.4220   -3.7858 C   0  0  0  0  0  0  0  0  0  0  0  0
   18.7575   71.5497   -4.8054 O   0  0  0  0  0  0  0  0  0  0  0  0
   17.0673   70.2932   -2.6711 O   0  0  0  0  0  0  0  0  0  0  0  0
   16.5833   68.6975   -4.8289 O   0  0  0  0  0  0  0  0  0  0  0  0
   18.1997   69.7599   -3.3559 C   0  0  1  0  0  0  0  0  0  0  0  0
   17.8238   69.3717   -4.7706 C   0  0  2  0  0  0  0  0  0  0  0  0
   19.1855   70.8979   -3.5895 C   0  0  1  0  0  0  0  0  0  0  0  0
   17.7895   70.7206   -5.4689 C   0  0  2  0  0  0  0  0  0  0  0  0
   16.4237   69.5847   -2.5104 H   0  0  0  0  0  0  0  0  0  0  0  0
   16.6564   67.8455   -4.3712 H   0  0  0  0  0  0  0  0  0  0  0  0
   15.9431   70.1627   -7.5323 O   0  0  0  0  0  0  0  0  0  0  0  0
   19.2162   70.3803  -10.7697 O   0  0  0  0  0  0  0  0  0  0  0  0
   18.1318   70.6260   -6.8600 N   0  0  0  0  0  0  0  0  0  0  0  0
   17.5743   70.2717   -9.1426 N   0  0  0  0  0  0  0  0  0  0  0  0
   17.1295   70.3404   -7.8162 C   0  0  0  0  0  0  0  0  0  0  0  0
   19.4489   70.8158   -7.2641 C   0  0  0  0  0  0  0  0  0  0  0  0
   19.8570   70.7457   -8.5328 C   0  0  0  0  0  0  0  0  0  0  0  0
   18.8723   70.4515   -9.5939 C   0  0  0  0  0  0  0  0  0  0  0  0
   16.8936   70.0735   -9.8261 H   0  0  0  0  0  0  0  0  0  0  0  0
   22.5910   72.1147   -1.0220 O   0  0  0  0  0  0  0  0  0  0  0  0
   22.6181   71.3723    0.4136 P   0  0  2  0  0  0  0  0  0  0  0  0
   24.0618   70.6422    0.4267 O   0  0  0  0  0  0  0  0  0  0  0  0
   21.4564   70.4517    0.6523 O   0  0  0  0  0  0  0  0  0  0  0  0
   22.7561   72.5678    1.4892 O   0  0  0  0  0  0  0  0  0  0  0  0
   24.0769   72.8100    3.4420 O   0  0  0  0  0  0  0  0  0  0  0  0
   20.5748   74.5279    4.7968 O   0  0  0  0  0  0  0  0  0  0  0  0
   22.8439   76.1939    4.2280 O   0  0  0  0  0  0  0  0  0  0  0  0
   20.4710   72.2021    3.0765 O   0  0  0  0  0  0  0  0  0  0  0  0
   21.5783   74.2036    3.8308 C   0  0  1  0  0  0  0  0  0  0  0  0
   22.9128   74.7734    4.3158 C   0  0  1  0  0  0  0  0  0  0  0  0
   21.6621   72.6850    3.6885 C   0  0  2  0  0  0  0  0  0  0  0  0
   24.0808   74.2420    3.4740 C   0  0  1  0  0  0  0  0  0  0  0  0
   22.8859   72.2606    2.8748 C   0  0  1  0  0  0  0  0  0  0  0  0
   20.5162   75.4908    4.8915 H   0  0  0  0  0  0  0  0  0  0  0  0
   22.1021   76.5166    4.7635 H   0  0  0  0  0  0  0  0  0  0  0  0
   19.7036   72.4771    3.6012 H   0  0  0  0  0  0  0  0  0  0  0  0
   25.7405   75.9597    3.5355 O   0  0  0  0  0  0  0  0  0  0  0  0
   25.4336   74.6719    4.0372 C   0  0  0  0  0  0  0  0  0  0  0  0
   26.5989   76.2464    3.8858 H   0  0  0  0  0  0  0  0  0  0  0  0
 25 28  1  0
 25 24  1  0
 25 26  1  6
 25 27  2  0
  1  4  1  0
  1 24  1  0
  1  2  1  6
  1  3  2  0
  6 11  1  0
  6 12  1  0
 29 36  1  0
 29 37  1  0
  9  7  1  1
  7 13  1  0
 10  8  1  1
  8 14  1  0
 37 28  1  6
  4  5  1  0
 33 30  1  1
 30 38  1  0
 34 31  1  6
 31 39  1  0
 35 32  1  6
 32 40  1  0
 41 42  1  0
 41 43  1  0
 15 19  2  0
 16 22  2  0
 12 17  1  6
 17 19  1  0
 17 20  1  0
 18 19  1  0
 18 22  1  0
 18 23  1  0
  9 10  1  0
  9 11  1  0
 10 12  1  0
 11  5  1  6
 33 34  1  0
 33 35  1  0
 34 36  1  0
 35 37  1  0
 36 42  1  1
 20 21  2  0
 21 22  1  0
M  CHG  2   2  -1  26  -1
M  END
>  <COMPND>  (381) 
    8629 

>  <AUTHOR>  (381) 
    GENERATED BY OPEN BABEL 3.1.1

>  <MASTER>  (381) 
        0    0    0    0    0    0    0    0   58    0   58    0

>  <minimizedAffinity>  (381) 
-7.60205

>  <CNNscore>  (381) 
0.9015137553

>  <CNNaffinity>  (381) 
4.6795754433

>  <CNN_VS>  (381) 
4.2187018394

>  <CNNaffinity_variance>  (381) 
0.0607785508

$$$$
382
     RDKit          3D

 43 45  0  0  0  0  0  0  0  0999 V2000
   22.9483   71.5035   -2.1735 P   0  0  2  0  0  0  0  0  0  0  0  0
   22.4168   72.9996   -1.8631 O   0  0  0  0  0  0  0  0  0  0  0  0
   23.9130   71.3983   -3.3179 O   0  0  0  0  0  0  0  0  0  0  0  0
   21.5929   70.6312   -2.3147 O   0  0  0  0  0  0  0  0  0  0  0  0
   20.8930   70.6641   -3.5463 C   0  0  0  0  0  0  0  0  0  0  0  0
   18.8880   71.6091   -4.4741 O   0  0  0  0  0  0  0  0  0  0  0  0
   17.4297   70.2253   -2.2494 O   0  0  0  0  0  0  0  0  0  0  0  0
   16.9834   68.5719   -4.3716 O   0  0  0  0  0  0  0  0  0  0  0  0
   18.5695   69.7901   -2.9890 C   0  0  1  0  0  0  0  0  0  0  0  0
   18.1589   69.3561   -4.3806 C   0  0  2  0  0  0  0  0  0  0  0  0
   19.4347   71.0103   -3.2787 C   0  0  1  0  0  0  0  0  0  0  0  0
   17.9668   70.6895   -5.0828 C   0  0  2  0  0  0  0  0  0  0  0  0
   16.8621   69.4631   -2.0523 H   0  0  0  0  0  0  0  0  0  0  0  0
   17.1568   67.7344   -3.9141 H   0  0  0  0  0  0  0  0  0  0  0  0
   16.0962   69.8791   -7.0378 O   0  0  0  0  0  0  0  0  0  0  0  0
   19.1459   70.4328  -10.4487 O   0  0  0  0  0  0  0  0  0  0  0  0
   18.2451   70.6131   -6.4892 N   0  0  0  0  0  0  0  0  0  0  0  0
   17.6162   70.1556   -8.7346 N   0  0  0  0  0  0  0  0  0  0  0  0
   17.2361   70.1931   -7.3870 C   0  0  0  0  0  0  0  0  0  0  0  0
   19.5067   70.9527   -6.9655 C   0  0  0  0  0  0  0  0  0  0  0  0
   19.8536   70.9104   -8.2535 C   0  0  0  0  0  0  0  0  0  0  0  0
   18.8577   70.4822   -9.2569 C   0  0  0  0  0  0  0  0  0  0  0  0
   16.9297   69.8656   -9.3783 H   0  0  0  0  0  0  0  0  0  0  0  0
   23.5412   71.0253   -0.7477 O   0  0  0  0  0  0  0  0  0  0  0  0
   22.8655   70.9748    0.7199 P   0  0  2  0  0  0  0  0  0  0  0  0
   24.0542   70.4022    1.6562 O   0  0  0  0  0  0  0  0  0  0  0  0
   21.5912   70.1835    0.7837 O   0  0  0  0  0  0  0  0  0  0  0  0
   22.7144   72.5221    1.1536 O   0  0  0  0  0  0  0  0  0  0  0  0
   21.5795   72.5965    3.2328 O   0  0  0  0  0  0  0  0  0  0  0  0
   21.8557   76.6484    2.4863 O   0  0  0  0  0  0  0  0  0  0  0  0
   23.4969   75.4672    4.5258 O   0  0  0  0  0  0  0  0  0  0  0  0
   21.3282   74.8122    0.3116 O   0  0  0  0  0  0  0  0  0  0  0  0
   22.2936   75.2870    2.4665 C   0  0  1  0  0  0  0  0  0  0  0  0
   22.4000   74.7964    3.9118 C   0  0  1  0  0  0  0  0  0  0  0  0
   21.2822   74.4486    1.6871 C   0  0  2  0  0  0  0  0  0  0  0  0
   22.6043   73.2764    3.9672 C   0  0  1  0  0  0  0  0  0  0  0  0
   21.5464   72.9506    1.8488 C   0  0  1  0  0  0  0  0  0  0  0  0
   22.4939   77.1862    2.9793 H   0  0  0  0  0  0  0  0  0  0  0  0
   23.3557   76.4261    4.4836 H   0  0  0  0  0  0  0  0  0  0  0  0
   21.1592   75.7626    0.2226 H   0  0  0  0  0  0  0  0  0  0  0  0
   21.6263   73.5190    6.1337 O   0  0  0  0  0  0  0  0  0  0  0  0
   22.5553   72.7446    5.3979 C   0  0  0  0  0  0  0  0  0  0  0  0
   21.5844   73.1917    7.0462 H   0  0  0  0  0  0  0  0  0  0  0  0
 25 28  1  0
 25 24  1  0
 25 26  1  1
 25 27  2  0
  1  4  1  0
  1 24  1  0
  1  2  1  1
  1  3  2  0
  6 11  1  0
  6 12  1  0
 29 36  1  0
 29 37  1  0
  9  7  1  1
  7 13  1  0
 10  8  1  1
  8 14  1  0
 37 28  1  1
  4  5  1  0
 33 30  1  1
 30 38  1  0
 34 31  1  6
 31 39  1  0
 35 32  1  6
 32 40  1  0
 41 42  1  0
 41 43  1  0
 15 19  2  0
 16 22  2  0
 12 17  1  6
 17 19  1  0
 17 20  1  0
 18 19  1  0
 18 22  1  0
 18 23  1  0
  9 10  1  0
  9 11  1  0
 10 12  1  0
 11  5  1  6
 33 34  1  0
 33 35  1  0
 34 36  1  0
 35 37  1  0
 36 42  1  1
 20 21  2  0
 21 22  1  0
M  CHG  2   2  -1  26  -1
M  END
>  <COMPND>  (382) 
    8629 

>  <AUTHOR>  (382) 
    GENERATED BY OPEN BABEL 3.1.1

>  <MASTER>  (382) 
        0    0    0    0    0    0    0    0   58    0   58    0

>  <minimizedAffinity>  (382) 
-7.63706

>  <CNNscore>  (382) 
0.8829720020

>  <CNNaffinity>  (382) 
4.6848921776

>  <CNN_VS>  (382) 
4.1366286278

>  <CNNaffinity_variance>  (382) 
0.0651676804

$$$$
383
     RDKit          3D

 43 45  0  0  0  0  0  0  0  0999 V2000
   20.9713   72.5097   -4.5325 P   0  0  2  0  0  0  0  0  0  0  0  0
   20.1984   73.6220   -5.4172 O   0  0  0  0  0  0  0  0  0  0  0  0
   21.5896   71.3916   -5.3193 O   0  0  0  0  0  0  0  0  0  0  0  0
   19.8792   72.0682   -3.4233 O   0  0  0  0  0  0  0  0  0  0  0  0
   19.2296   70.8180   -3.5743 C   0  0  0  0  0  0  0  0  0  0  0  0
   17.5151   71.6088   -5.0606 O   0  0  0  0  0  0  0  0  0  0  0  0
   15.5804   70.1197   -3.3198 O   0  0  0  0  0  0  0  0  0  0  0  0
   15.8861   68.4366   -5.4435 O   0  0  0  0  0  0  0  0  0  0  0  0
   16.9134   69.7715   -3.6902 C   0  0  1  0  0  0  0  0  0  0  0  0
   16.9544   69.3072   -5.1311 C   0  0  2  0  0  0  0  0  0  0  0  0
   17.7351   71.0534   -3.7455 C   0  0  1  0  0  0  0  0  0  0  0  0
   16.8776   70.6222   -5.8882 C   0  0  2  0  0  0  0  0  0  0  0  0
   15.0366   69.3170   -3.2775 H   0  0  0  0  0  0  0  0  0  0  0  0
   15.9800   67.6148   -4.9371 H   0  0  0  0  0  0  0  0  0  0  0  0
   15.5811   70.6883   -8.3967 O   0  0  0  0  0  0  0  0  0  0  0  0
   19.5771   70.4004  -10.6749 O   0  0  0  0  0  0  0  0  0  0  0  0
   17.5547   70.5664   -7.1530 N   0  0  0  0  0  0  0  0  0  0  0  0
   17.5718   70.5450   -9.5290 N   0  0  0  0  0  0  0  0  0  0  0  0
   16.8103   70.6053   -8.3549 C   0  0  0  0  0  0  0  0  0  0  0  0
   18.9418   70.4745   -7.1929 C   0  0  0  0  0  0  0  0  0  0  0  0
   19.6529   70.4167   -8.3208 C   0  0  0  0  0  0  0  0  0  0  0  0
   18.9516   70.4519   -9.6204 C   0  0  0  0  0  0  0  0  0  0  0  0
   17.0746   70.5702  -10.3787 H   0  0  0  0  0  0  0  0  0  0  0  0
   22.0219   73.3914   -3.6771 O   0  0  0  0  0  0  0  0  0  0  0  0
   23.3900   72.9758   -2.9230 P   0  0  2  0  0  0  0  0  0  0  0  0
   24.2704   74.3321   -2.9774 O   0  0  0  0  0  0  0  0  0  0  0  0
   24.0717   71.7712   -3.5044 O   0  0  0  0  0  0  0  0  0  0  0  0
   22.9713   72.8237   -1.3716 O   0  0  0  0  0  0  0  0  0  0  0  0
   23.7209   70.9198   -0.1759 O   0  0  0  0  0  0  0  0  0  0  0  0
   20.5925   72.0470    2.2722 O   0  0  0  0  0  0  0  0  0  0  0  0
   23.2968   72.4584    3.1470 O   0  0  0  0  0  0  0  0  0  0  0  0
   20.3299   72.2709   -0.6019 O   0  0  0  0  0  0  0  0  0  0  0  0
   21.6931   72.2582    1.3838 C   0  0  1  0  0  0  0  0  0  0  0  0
   22.9469   71.6570    2.0221 C   0  0  1  0  0  0  0  0  0  0  0  0
   21.3929   71.5818    0.0475 C   0  0  2  0  0  0  0  0  0  0  0  0
   24.1083   71.6058    1.0204 C   0  0  1  0  0  0  0  0  0  0  0  0
   22.6276   71.5408   -0.8548 C   0  0  1  0  0  0  0  0  0  0  0  0
   20.7765   72.4745    3.1225 H   0  0  0  0  0  0  0  0  0  0  0  0
   22.5548   72.4828    3.7715 H   0  0  0  0  0  0  0  0  0  0  0  0
   19.5542   72.2898   -0.0207 H   0  0  0  0  0  0  0  0  0  0  0  0
   24.8896   70.0633    2.6693 O   0  0  0  0  0  0  0  0  0  0  0  0
   25.3193   70.8670    1.5860 C   0  0  0  0  0  0  0  0  0  0  0  0
   25.6499   69.5868    3.0391 H   0  0  0  0  0  0  0  0  0  0  0  0
 25 28  1  0
 25 24  1  0
 25 26  1  1
 25 27  2  0
  1  4  1  0
  1 24  1  0
  1  2  1  6
  1  3  2  0
  6 11  1  0
  6 12  1  0
 29 36  1  0
 29 37  1  0
  9  7  1  6
  7 13  1  0
 10  8  1  6
  8 14  1  0
 37 28  1  1
  4  5  1  0
 33 30  1  1
 30 38  1  0
 34 31  1  1
 31 39  1  0
 35 32  1  6
 32 40  1  0
 41 42  1  0
 41 43  1  0
 15 19  2  0
 16 22  2  0
 12 17  1  6
 17 19  1  0
 17 20  1  0
 18 19  1  0
 18 22  1  0
 18 23  1  0
  9 10  1  0
  9 11  1  0
 10 12  1  0
 11  5  1  6
 33 34  1  0
 33 35  1  0
 34 36  1  0
 35 37  1  0
 36 42  1  1
 20 21  2  0
 21 22  1  0
M  CHG  2   2  -1  26  -1
M  END
>  <COMPND>  (383) 
    8629 

>  <AUTHOR>  (383) 
    GENERATED BY OPEN BABEL 3.1.1

>  <MASTER>  (383) 
        0    0    0    0    0    0    0    0   58    0   58    0

>  <minimizedAffinity>  (383) 
-7.99131

>  <CNNscore>  (383) 
0.8741436601

>  <CNNaffinity>  (383) 
4.7163591385

>  <CNN_VS>  (383) 
4.1227755547

>  <CNNaffinity_variance>  (383) 
0.0847481936

$$$$
384
     RDKit          3D

 43 45  0  0  0  0  0  0  0  0999 V2000
   21.9921   71.5990   -2.5267 P   0  0  2  0  0  0  0  0  0  0  0  0
   23.3459   70.7520   -2.2671 O   0  0  0  0  0  0  0  0  0  0  0  0
   21.8185   72.8018   -1.6466 O   0  0  0  0  0  0  0  0  0  0  0  0
   20.8174   70.4897   -2.4403 O   0  0  0  0  0  0  0  0  0  0  0  0
   20.1021   70.1691   -3.6207 C   0  0  0  0  0  0  0  0  0  0  0  0
   18.4314   71.4697   -4.7568 O   0  0  0  0  0  0  0  0  0  0  0  0
   16.4727   70.3186   -2.7999 O   0  0  0  0  0  0  0  0  0  0  0  0
   16.0385   68.8122   -5.0312 O   0  0  0  0  0  0  0  0  0  0  0  0
   17.6098   69.7053   -3.4049 C   0  0  1  0  0  0  0  0  0  0  0  0
   17.3214   69.3780   -4.8552 C   0  0  2  0  0  0  0  0  0  0  0  0
   18.7021   70.7603   -3.5281 C   0  0  1  0  0  0  0  0  0  0  0  0
   17.4563   70.7384   -5.5180 C   0  0  2  0  0  0  0  0  0  0  0  0
   15.7617   69.6640   -2.7104 H   0  0  0  0  0  0  0  0  0  0  0  0
   16.0030   67.9483   -4.5918 H   0  0  0  0  0  0  0  0  0  0  0  0
   15.7569   70.2825   -7.7276 O   0  0  0  0  0  0  0  0  0  0  0  0
   19.2826   70.3880  -10.6940 O   0  0  0  0  0  0  0  0  0  0  0  0
   17.9034   70.6426   -6.8790 N   0  0  0  0  0  0  0  0  0  0  0  0
   17.5138   70.3356   -9.2029 N   0  0  0  0  0  0  0  0  0  0  0  0
   16.9686   70.4107   -7.9148 C   0  0  0  0  0  0  0  0  0  0  0  0
   19.2553   70.7784   -7.1755 C   0  0  0  0  0  0  0  0  0  0  0  0
   19.7592   70.7029   -8.4090 C   0  0  0  0  0  0  0  0  0  0  0  0
   18.8500   70.4627   -9.5481 C   0  0  0  0  0  0  0  0  0  0  0  0
   16.8815   70.1743   -9.9404 H   0  0  0  0  0  0  0  0  0  0  0  0
   22.0662   71.9273   -4.1077 O   0  0  0  0  0  0  0  0  0  0  0  0
   23.0214   72.9313   -4.9398 P   0  0  2  0  0  0  0  0  0  0  0  0
   23.0427   72.2809   -6.4210 O   0  0  0  0  0  0  0  0  0  0  0  0
   24.3795   73.1332   -4.3325 O   0  0  0  0  0  0  0  0  0  0  0  0
   22.1530   74.2823   -5.1002 O   0  0  0  0  0  0  0  0  0  0  0  0
   20.0927   74.9645   -4.1481 O   0  0  0  0  0  0  0  0  0  0  0  0
   19.5833   76.4589   -7.9636 O   0  0  0  0  0  0  0  0  0  0  0  0
   20.0763   78.2664   -5.7869 O   0  0  0  0  0  0  0  0  0  0  0  0
   20.8869   73.9036   -7.5758 O   0  0  0  0  0  0  0  0  0  0  0  0
   20.3204   76.1085   -6.7892 C   0  0  1  0  0  0  0  0  0  0  0  0
   19.7432   76.8925   -5.6089 C   0  0  1  0  0  0  0  0  0  0  0  0
   20.1929   74.6052   -6.5499 C   0  0  2  0  0  0  0  0  0  0  0  0
   20.3001   76.3761   -4.2754 C   0  0  1  0  0  0  0  0  0  0  0  0
   20.7319   74.2043   -5.1755 C   0  0  1  0  0  0  0  0  0  0  0  0
   19.6605   77.4122   -8.1215 H   0  0  0  0  0  0  0  0  0  0  0  0
   19.7193   78.5800   -6.6327 H   0  0  0  0  0  0  0  0  0  0  0  0
   20.5363   74.1658   -8.4408 H   0  0  0  0  0  0  0  0  0  0  0  0
   20.4408   78.0979   -2.6248 O   0  0  0  0  0  0  0  0  0  0  0  0
   19.6207   77.0365   -3.0778 C   0  0  0  0  0  0  0  0  0  0  0  0
   20.0208   78.5277   -1.8629 H   0  0  0  0  0  0  0  0  0  0  0  0
 25 28  1  0
 25 24  1  0
 25 26  1  6
 25 27  2  0
  1  4  1  0
  1 24  1  0
  1  2  1  1
  1  3  2  0
  6 11  1  0
  6 12  1  0
 29 36  1  0
 29 37  1  0
  9  7  1  6
  7 13  1  0
 10  8  1  1
  8 14  1  0
 37 28  1  6
  4  5  1  0
 33 30  1  6
 30 38  1  0
 34 31  1  6
 31 39  1  0
 35 32  1  6
 32 40  1  0
 41 42  1  0
 41 43  1  0
 15 19  2  0
 16 22  2  0
 12 17  1  6
 17 19  1  0
 17 20  1  0
 18 19  1  0
 18 22  1  0
 18 23  1  0
  9 10  1  0
  9 11  1  0
 10 12  1  0
 11  5  1  6
 33 34  1  0
 33 35  1  0
 34 36  1  0
 35 37  1  0
 36 42  1  1
 20 21  2  0
 21 22  1  0
M  CHG  2   2  -1  26  -1
M  END
>  <COMPND>  (384) 
    8629 

>  <AUTHOR>  (384) 
    GENERATED BY OPEN BABEL 3.1.1

>  <MASTER>  (384) 
        0    0    0    0    0    0    0    0   58    0   58    0

>  <minimizedAffinity>  (384) 
-6.94516

>  <CNNscore>  (384) 
0.8705235124

>  <CNNaffinity>  (384) 
4.5636582375

>  <CNN_VS>  (384) 
3.9727718830

>  <CNNaffinity_variance>  (384) 
0.3027454615

$$$$
385
     RDKit          3D

 43 45  0  0  0  0  0  0  0  0999 V2000
   21.1745   71.3860   -2.2331 P   0  0  2  0  0  0  0  0  0  0  0  0
   20.7889   72.7718   -2.9736 O   0  0  0  0  0  0  0  0  0  0  0  0
   22.3928   70.6965   -2.7731 O   0  0  0  0  0  0  0  0  0  0  0  0
   19.8037   70.5276   -2.2773 O   0  0  0  0  0  0  0  0  0  0  0  0
   19.2937   70.1327   -3.5390 C   0  0  0  0  0  0  0  0  0  0  0  0
   17.6652   71.2913   -4.8729 O   0  0  0  0  0  0  0  0  0  0  0  0
   15.5913   69.8366   -3.2686 O   0  0  0  0  0  0  0  0  0  0  0  0
   15.6670   68.3993   -5.5849 O   0  0  0  0  0  0  0  0  0  0  0  0
   16.8686   69.3837   -3.7144 C   0  0  1  0  0  0  0  0  0  0  0  0
   16.8350   69.0958   -5.2009 C   0  0  2  0  0  0  0  0  0  0  0  0
   17.8355   70.5588   -3.6397 C   0  0  1  0  0  0  0  0  0  0  0  0
   16.9043   70.4928   -5.7940 C   0  0  2  0  0  0  0  0  0  0  0  0
   14.9568   69.1032   -3.3070 H   0  0  0  0  0  0  0  0  0  0  0  0
   15.6696   67.5169   -5.1824 H   0  0  0  0  0  0  0  0  0  0  0  0
   15.5472   70.6001   -8.2688 O   0  0  0  0  0  0  0  0  0  0  0  0
   19.4965   70.5626  -10.6442 O   0  0  0  0  0  0  0  0  0  0  0  0
   17.5530   70.5126   -7.0746 N   0  0  0  0  0  0  0  0  0  0  0  0
   17.5148   70.5815   -9.4495 N   0  0  0  0  0  0  0  0  0  0  0  0
   16.7794   70.5662   -8.2575 C   0  0  0  0  0  0  0  0  0  0  0  0
   18.9413   70.4793   -7.1487 C   0  0  0  0  0  0  0  0  0  0  0  0
   19.6273   70.4933   -8.2935 C   0  0  0  0  0  0  0  0  0  0  0  0
   18.8946   70.5486   -9.5749 C   0  0  0  0  0  0  0  0  0  0  0  0
   16.9970   70.6183  -10.2863 H   0  0  0  0  0  0  0  0  0  0  0  0
   21.2807   71.8212   -0.6799 O   0  0  0  0  0  0  0  0  0  0  0  0
   21.0634   73.2527    0.0387 P   0  0  2  0  0  0  0  0  0  0  0  0
   19.4633   73.4740   -0.0514 O   0  0  0  0  0  0  0  0  0  0  0  0
   21.8770   74.3676   -0.5521 O   0  0  0  0  0  0  0  0  0  0  0  0
   21.3487   72.9724    1.6023 O   0  0  0  0  0  0  0  0  0  0  0  0
   21.8162   75.0249    2.6910 O   0  0  0  0  0  0  0  0  0  0  0  0
   22.5892   72.4323    5.8106 O   0  0  0  0  0  0  0  0  0  0  0  0
   20.2209   74.0559    5.8699 O   0  0  0  0  0  0  0  0  0  0  0  0
   23.3505   71.7122    3.1122 O   0  0  0  0  0  0  0  0  0  0  0  0
   21.9125   72.8962    4.6391 C   0  0  1  0  0  0  0  0  0  0  0  0
   21.2917   74.2591    4.9520 C   0  0  1  0  0  0  0  0  0  0  0  0
   22.9181   73.0133    3.4953 C   0  0  2  0  0  0  0  0  0  0  0  0
   20.7796   74.9406    3.6759 C   0  0  1  0  0  0  0  0  0  0  0  0
   22.3233   73.7495    2.2935 C   0  0  1  0  0  0  0  0  0  0  0  0
   21.9561   72.3553    6.5406 H   0  0  0  0  0  0  0  0  0  0  0  0
   20.5576   73.6245    6.6709 H   0  0  0  0  0  0  0  0  0  0  0  0
   23.7253   71.2566    3.8815 H   0  0  0  0  0  0  0  0  0  0  0  0
   20.8713   76.8129    5.1575 O   0  0  0  0  0  0  0  0  0  0  0  0
   20.2999   76.3659    3.9418 C   0  0  0  0  0  0  0  0  0  0  0  0
   20.5750   77.7189    5.3395 H   0  0  0  0  0  0  0  0  0  0  0  0
 25 28  1  0
 25 24  1  0
 25 26  1  1
 25 27  2  0
  1  4  1  0
  1 24  1  0
  1  2  1  6
  1  3  2  0
  6 11  1  0
  6 12  1  0
 29 36  1  0
 29 37  1  0
  9  7  1  6
  7 13  1  0
 10  8  1  1
  8 14  1  0
 37 28  1  1
  4  5  1  0
 33 30  1  1
 30 38  1  0
 34 31  1  1
 31 39  1  0
 35 32  1  6
 32 40  1  0
 41 42  1  0
 41 43  1  0
 15 19  2  0
 16 22  2  0
 12 17  1  6
 17 19  1  0
 17 20  1  0
 18 19  1  0
 18 22  1  0
 18 23  1  0
  9 10  1  0
  9 11  1  0
 10 12  1  0
 11  5  1  6
 33 34  1  0
 33 35  1  0
 34 36  1  0
 35 37  1  0
 36 42  1  1
 20 21  2  0
 21 22  1  0
M  CHG  2   2  -1  26  -1
M  END
>  <COMPND>  (385) 
    8629 

>  <AUTHOR>  (385) 
    GENERATED BY OPEN BABEL 3.1.1

>  <MASTER>  (385) 
        0    0    0    0    0    0    0    0   58    0   58    0

>  <minimizedAffinity>  (385) 
-6.90581

>  <CNNscore>  (385) 
0.8565361500

>  <CNNaffinity>  (385) 
4.3402791023

>  <CNN_VS>  (385) 
3.7176060677

>  <CNNaffinity_variance>  (385) 
0.0924134254

$$$$
386
     RDKit          3D

 43 45  0  0  0  0  0  0  0  0999 V2000
   22.7948   72.0751   -3.9335 P   0  0  2  0  0  0  0  0  0  0  0  0
   23.3879   72.9263   -5.1750 O   0  0  0  0  0  0  0  0  0  0  0  0
   23.7884   71.1908   -3.2391 O   0  0  0  0  0  0  0  0  0  0  0  0
   21.5035   71.3263   -4.5577 O   0  0  0  0  0  0  0  0  0  0  0  0
   20.8233   70.3731   -3.7597 C   0  0  0  0  0  0  0  0  0  0  0  0
   18.9376   71.5415   -4.6831 O   0  0  0  0  0  0  0  0  0  0  0  0
   17.3226   70.2823   -2.4929 O   0  0  0  0  0  0  0  0  0  0  0  0
   16.7209   68.7223   -4.6471 O   0  0  0  0  0  0  0  0  0  0  0  0
   18.4158   69.7414   -3.2329 C   0  0  1  0  0  0  0  0  0  0  0  0
   17.9729   69.3773   -4.6346 C   0  0  2  0  0  0  0  0  0  0  0  0
   19.4078   70.8676   -3.4952 C   0  0  1  0  0  0  0  0  0  0  0  0
   17.9290   70.7355   -5.3140 C   0  0  2  0  0  0  0  0  0  0  0  0
   16.6758   69.5814   -2.3130 H   0  0  0  0  0  0  0  0  0  0  0  0
   16.8007   67.8634   -4.2036 H   0  0  0  0  0  0  0  0  0  0  0  0
   15.9811   70.2654   -7.3046 O   0  0  0  0  0  0  0  0  0  0  0  0
   19.1190   70.4416  -10.6756 O   0  0  0  0  0  0  0  0  0  0  0  0
   18.2091   70.6540   -6.7198 N   0  0  0  0  0  0  0  0  0  0  0  0
   17.5451   70.3537   -8.9815 N   0  0  0  0  0  0  0  0  0  0  0  0
   17.1591   70.4134   -7.6363 C   0  0  0  0  0  0  0  0  0  0  0  0
   19.5129   70.8123   -7.1769 C   0  0  0  0  0  0  0  0  0  0  0  0
   19.8646   70.7513   -8.4629 C   0  0  0  0  0  0  0  0  0  0  0  0
   18.8275   70.5034   -9.4852 C   0  0  0  0  0  0  0  0  0  0  0  0
   16.8304   70.1866   -9.6381 H   0  0  0  0  0  0  0  0  0  0  0  0
   22.1357   73.2137   -2.9942 O   0  0  0  0  0  0  0  0  0  0  0  0
   22.8061   74.2380   -1.9386 P   0  0  2  0  0  0  0  0  0  0  0  0
   22.0457   75.6335   -2.2416 O   0  0  0  0  0  0  0  0  0  0  0  0
   24.3029   74.3172   -2.0237 O   0  0  0  0  0  0  0  0  0  0  0  0
   22.2417   73.7701   -0.5007 O   0  0  0  0  0  0  0  0  0  0  0  0
   23.0373   71.5895   -0.0224 O   0  0  0  0  0  0  0  0  0  0  0  0
   20.4922   72.0829    3.1916 O   0  0  0  0  0  0  0  0  0  0  0  0
   23.3328   72.1604    3.6074 O   0  0  0  0  0  0  0  0  0  0  0  0
   19.7431   73.1002    0.5871 O   0  0  0  0  0  0  0  0  0  0  0  0
   21.4312   72.5007    2.1971 C   0  0  1  0  0  0  0  0  0  0  0  0
   22.7263   71.7115    2.3987 C   0  0  1  0  0  0  0  0  0  0  0  0
   20.8460   72.2289    0.8125 C   0  0  2  0  0  0  0  0  0  0  0  0
   23.6840   71.9069    1.2156 C   0  0  1  0  0  0  0  0  0  0  0  0
   21.8939   72.4044   -0.2880 C   0  0  1  0  0  0  0  0  0  0  0  0
   20.8575   72.2532    4.0731 H   0  0  0  0  0  0  0  0  0  0  0  0
   22.7176   72.0320    4.3464 H   0  0  0  0  0  0  0  0  0  0  0  0
   19.0867   72.9793    1.2902 H   0  0  0  0  0  0  0  0  0  0  0  0
   24.6780   70.0400    2.3273 O   0  0  0  0  0  0  0  0  0  0  0  0
   24.9133   71.0068    1.3203 C   0  0  0  0  0  0  0  0  0  0  0  0
   25.4520   69.4598    2.4049 H   0  0  0  0  0  0  0  0  0  0  0  0
 25 28  1  0
 25 24  1  0
 25 26  1  6
 25 27  2  0
  1  4  1  0
  1 24  1  0
  1  2  1  6
  1  3  2  0
  6 11  1  0
  6 12  1  0
 29 36  1  0
 29 37  1  0
  9  7  1  1
  7 13  1  0
 10  8  1  1
  8 14  1  0
 37 28  1  1
  4  5  1  0
 33 30  1  1
 30 38  1  0
 34 31  1  1
 31 39  1  0
 35 32  1  6
 32 40  1  0
 41 42  1  0
 41 43  1  0
 15 19  2  0
 16 22  2  0
 12 17  1  6
 17 19  1  0
 17 20  1  0
 18 19  1  0
 18 22  1  0
 18 23  1  0
  9 10  1  0
  9 11  1  0
 10 12  1  0
 11  5  1  6
 33 34  1  0
 33 35  1  0
 34 36  1  0
 35 37  1  0
 36 42  1  1
 20 21  2  0
 21 22  1  0
M  CHG  2   2  -1  26  -1
M  END
>  <COMPND>  (386) 
    8629 

>  <AUTHOR>  (386) 
    GENERATED BY OPEN BABEL 3.1.1

>  <MASTER>  (386) 
        0    0    0    0    0    0    0    0   58    0   58    0

>  <minimizedAffinity>  (386) 
-7.94061

>  <CNNscore>  (386) 
0.8501812220

>  <CNNaffinity>  (386) 
4.6980581284

>  <CNN_VS>  (386) 
3.9942007065

>  <CNNaffinity_variance>  (386) 
0.0488199815

$$$$
387
     RDKit          3D

 43 45  0  0  0  0  0  0  0  0999 V2000
   20.4720   71.2057   -1.4957 P   0  0  2  0  0  0  0  0  0  0  0  0
   21.0544   70.6135   -0.1074 O   0  0  0  0  0  0  0  0  0  0  0  0
   19.9007   72.5902   -1.4041 O   0  0  0  0  0  0  0  0  0  0  0  0
   19.4541   70.0583   -2.0108 O   0  0  0  0  0  0  0  0  0  0  0  0
   19.0982   70.0362   -3.3822 C   0  0  0  0  0  0  0  0  0  0  0  0
   17.5106   71.2297   -4.7345 O   0  0  0  0  0  0  0  0  0  0  0  0
   15.3912   69.7008   -3.2644 O   0  0  0  0  0  0  0  0  0  0  0  0
   15.5681   68.3498   -5.6266 O   0  0  0  0  0  0  0  0  0  0  0  0
   16.6886   69.2747   -3.6772 C   0  0  1  0  0  0  0  0  0  0  0  0
   16.7141   69.0412   -5.1733 C   0  0  2  0  0  0  0  0  0  0  0  0
   17.6409   70.4540   -3.5230 C   0  0  1  0  0  0  0  0  0  0  0  0
   16.7926   70.4594   -5.7122 C   0  0  2  0  0  0  0  0  0  0  0  0
   14.7656   68.9641   -3.3536 H   0  0  0  0  0  0  0  0  0  0  0  0
   15.5638   67.4532   -5.2566 H   0  0  0  0  0  0  0  0  0  0  0  0
   15.5296   70.5468   -8.2371 O   0  0  0  0  0  0  0  0  0  0  0  0
   19.5661   70.7326  -10.4538 O   0  0  0  0  0  0  0  0  0  0  0  0
   17.4892   70.5312   -6.9656 N   0  0  0  0  0  0  0  0  0  0  0  0
   17.5405   70.6394   -9.3388 N   0  0  0  0  0  0  0  0  0  0  0  0
   16.7607   70.5695   -8.1773 C   0  0  0  0  0  0  0  0  0  0  0  0
   18.8794   70.5633   -6.9850 C   0  0  0  0  0  0  0  0  0  0  0  0
   19.6081   70.6287   -8.1012 C   0  0  0  0  0  0  0  0  0  0  0  0
   18.9242   70.6724   -9.4097 C   0  0  0  0  0  0  0  0  0  0  0  0
   17.0545   70.6667  -10.1949 H   0  0  0  0  0  0  0  0  0  0  0  0
   21.7248   71.0606   -2.5068 O   0  0  0  0  0  0  0  0  0  0  0  0
   23.0378   71.9814   -2.7092 P   0  0  2  0  0  0  0  0  0  0  0  0
   24.1819   70.9120   -3.1156 O   0  0  0  0  0  0  0  0  0  0  0  0
   23.3806   72.8337   -1.5218 O   0  0  0  0  0  0  0  0  0  0  0  0
   22.7521   72.8079   -4.0657 O   0  0  0  0  0  0  0  0  0  0  0  0
   22.8291   75.1560   -4.3774 O   0  0  0  0  0  0  0  0  0  0  0  0
   19.8231   74.2334   -7.0539 O   0  0  0  0  0  0  0  0  0  0  0  0
   22.4125   74.9932   -8.0365 O   0  0  0  0  0  0  0  0  0  0  0  0
   19.9837   72.8349   -4.5244 O   0  0  0  0  0  0  0  0  0  0  0  0
   21.0416   74.0162   -6.3374 C   0  0  1  0  0  0  0  0  0  0  0  0
   22.0081   75.1518   -6.6795 C   0  0  1  0  0  0  0  0  0  0  0  0
   20.7433   73.9970   -4.8394 C   0  0  2  0  0  0  0  0  0  0  0  0
   23.2308   75.1369   -5.7522 C   0  0  1  0  0  0  0  0  0  0  0  0
   22.0264   74.0332   -4.0074 C   0  0  1  0  0  0  0  0  0  0  0  0
   20.0054   74.2462   -8.0057 H   0  0  0  0  0  0  0  0  0  0  0  0
   21.6311   75.0038   -8.6114 H   0  0  0  0  0  0  0  0  0  0  0  0
   19.1739   72.8238   -5.0574 H   0  0  0  0  0  0  0  0  0  0  0  0
   25.0584   76.0452   -6.9947 O   0  0  0  0  0  0  0  0  0  0  0  0
   24.1296   76.3519   -5.9713 C   0  0  0  0  0  0  0  0  0  0  0  0
   25.6369   76.8096   -7.1452 H   0  0  0  0  0  0  0  0  0  0  0  0
 25 28  1  0
 25 24  1  0
 25 26  1  6
 25 27  2  0
  1  4  1  0
  1 24  1  0
  1  2  1  1
  1  3  2  0
  6 11  1  0
  6 12  1  0
 29 36  1  0
 29 37  1  0
  9  7  1  6
  7 13  1  0
 10  8  1  6
  8 14  1  0
 37 28  1  6
  4  5  1  0
 33 30  1  6
 30 38  1  0
 34 31  1  6
 31 39  1  0
 35 32  1  6
 32 40  1  0
 41 42  1  0
 41 43  1  0
 15 19  2  0
 16 22  2  0
 12 17  1  6
 17 19  1  0
 17 20  1  0
 18 19  1  0
 18 22  1  0
 18 23  1  0
  9 10  1  0
  9 11  1  0
 10 12  1  0
 11  5  1  6
 33 34  1  0
 33 35  1  0
 34 36  1  0
 35 37  1  0
 36 42  1  6
 20 21  2  0
 21 22  1  0
M  CHG  2   2  -1  26  -1
M  END
>  <COMPND>  (387) 
    8629 

>  <AUTHOR>  (387) 
    GENERATED BY OPEN BABEL 3.1.1

>  <MASTER>  (387) 
        0    0    0    0    0    0    0    0   58    0   58    0

>  <minimizedAffinity>  (387) 
-7.81898

>  <CNNscore>  (387) 
0.8441713452

>  <CNNaffinity>  (387) 
4.6206207275

>  <CNN_VS>  (387) 
3.9005956650

>  <CNNaffinity_variance>  (387) 
0.5665766597

$$$$
388
     RDKit          3D

 43 45  0  0  0  0  0  0  0  0999 V2000
   21.9612   73.3838   -4.4944 P   0  0  2  0  0  0  0  0  0  0  0  0
   21.7650   74.9525   -4.1505 O   0  0  0  0  0  0  0  0  0  0  0  0
   22.9447   73.0933   -5.5897 O   0  0  0  0  0  0  0  0  0  0  0  0
   20.4544   72.8493   -4.7430 O   0  0  0  0  0  0  0  0  0  0  0  0
   19.3810   73.7638   -4.6036 C   0  0  0  0  0  0  0  0  0  0  0  0
   17.4549   72.6291   -5.4848 O   0  0  0  0  0  0  0  0  0  0  0  0
   17.2172   71.3350   -2.7905 O   0  0  0  0  0  0  0  0  0  0  0  0
   18.3810   69.3769   -4.2897 O   0  0  0  0  0  0  0  0  0  0  0  0
   18.3904   71.6842   -3.5232 C   0  0  1  0  0  0  0  0  0  0  0  0
   18.5994   70.7197   -4.6719 C   0  0  2  0  0  0  0  0  0  0  0  0
   18.1156   72.9931   -4.2530 C   0  0  1  0  0  0  0  0  0  0  0  0
   17.5809   71.2119   -5.6860 C   0  0  2  0  0  0  0  0  0  0  0  0
   17.3686   70.5022   -2.3156 H   0  0  0  0  0  0  0  0  0  0  0  0
   19.0541   69.1108   -3.6441 H   0  0  0  0  0  0  0  0  0  0  0  0
   15.8509   70.3726   -7.7551 O   0  0  0  0  0  0  0  0  0  0  0  0
   19.2748   70.3055  -10.8395 O   0  0  0  0  0  0  0  0  0  0  0  0
   17.9935   70.9679   -7.0394 N   0  0  0  0  0  0  0  0  0  0  0  0
   17.5571   70.3400   -9.2892 N   0  0  0  0  0  0  0  0  0  0  0  0
   17.0459   70.5482   -8.0019 C   0  0  0  0  0  0  0  0  0  0  0  0
   19.3246   71.1453   -7.4007 C   0  0  0  0  0  0  0  0  0  0  0  0
   19.7964   70.9413   -8.6324 C   0  0  0  0  0  0  0  0  0  0  0  0
   18.8717   70.5016   -9.6972 C   0  0  0  0  0  0  0  0  0  0  0  0
   16.9154   70.0469   -9.9762 H   0  0  0  0  0  0  0  0  0  0  0  0
   22.3423   72.7422   -3.0605 O   0  0  0  0  0  0  0  0  0  0  0  0
   22.6117   71.2102   -2.6209 P   0  0  2  0  0  0  0  0  0  0  0  0
   24.1736   70.9901   -2.9806 O   0  0  0  0  0  0  0  0  0  0  0  0
   21.6838   70.2155   -3.2562 O   0  0  0  0  0  0  0  0  0  0  0  0
   22.5642   71.2337   -1.0078 O   0  0  0  0  0  0  0  0  0  0  0  0
   22.3169   73.3747   -0.0221 O   0  0  0  0  0  0  0  0  0  0  0  0
   23.5201   71.2502    3.3080 O   0  0  0  0  0  0  0  0  0  0  0  0
   20.7882   72.1074    3.0837 O   0  0  0  0  0  0  0  0  0  0  0  0
   24.6991   70.6785    0.7268 O   0  0  0  0  0  0  0  0  0  0  0  0
   22.8475   71.4477    2.0614 C   0  0  1  0  0  0  0  0  0  0  0  0
   21.8332   72.5794    2.2378 C   0  0  1  0  0  0  0  0  0  0  0  0
   23.8758   71.8092    0.9913 C   0  0  2  0  0  0  0  0  0  0  0  0
   21.2640   73.0289    0.8854 C   0  0  1  0  0  0  0  0  0  0  0  0
   23.2052   72.2897   -0.2970 C   0  0  1  0  0  0  0  0  0  0  0  0
   22.8728   71.0198    3.9918 H   0  0  0  0  0  0  0  0  0  0  0  0
   21.1611   71.8262    3.9341 H   0  0  0  0  0  0  0  0  0  0  0  0
   25.1181   70.3841    1.5501 H   0  0  0  0  0  0  0  0  0  0  0  0
   21.1860   75.4156    0.9661 O   0  0  0  0  0  0  0  0  0  0  0  0
   20.3704   74.2598    1.0217 C   0  0  0  0  0  0  0  0  0  0  0  0
   20.6307   76.2069    1.0513 H   0  0  0  0  0  0  0  0  0  0  0  0
 25 28  1  0
 25 24  1  0
 25 26  1  1
 25 27  2  0
  1  4  1  0
  1 24  1  0
  1  2  1  1
  1  3  2  0
  6 11  1  0
  6 12  1  0
 29 36  1  0
 29 37  1  0
  9  7  1  6
  7 13  1  0
 10  8  1  1
  8 14  1  0
 37 28  1  1
  4  5  1  0
 33 30  1  1
 30 38  1  0
 34 31  1  1
 31 39  1  0
 35 32  1  6
 32 40  1  0
 41 42  1  0
 41 43  1  0
 15 19  2  0
 16 22  2  0
 12 17  1  6
 17 19  1  0
 17 20  1  0
 18 19  1  0
 18 22  1  0
 18 23  1  0
  9 10  1  0
  9 11  1  0
 10 12  1  0
 11  5  1  6
 33 34  1  0
 33 35  1  0
 34 36  1  0
 35 37  1  0
 36 42  1  1
 20 21  2  0
 21 22  1  0
M  CHG  2   2  -1  26  -1
M  END
>  <COMPND>  (388) 
    8629 

>  <AUTHOR>  (388) 
    GENERATED BY OPEN BABEL 3.1.1

>  <MASTER>  (388) 
        0    0    0    0    0    0    0    0   58    0   58    0

>  <minimizedAffinity>  (388) 
-7.41326

>  <CNNscore>  (388) 
0.8393011093

>  <CNNaffinity>  (388) 
4.4784603119

>  <CNN_VS>  (388) 
3.7587766647

>  <CNNaffinity_variance>  (388) 
0.0325243548

$$$$
389
     RDKit          3D

 43 45  0  0  0  0  0  0  0  0999 V2000
   22.2953   73.0220   -3.9829 P   0  0  2  0  0  0  0  0  0  0  0  0
   21.6368   73.4346   -5.4019 O   0  0  0  0  0  0  0  0  0  0  0  0
   23.5781   72.2497   -4.0801 O   0  0  0  0  0  0  0  0  0  0  0  0
   21.0895   72.2850   -3.1948 O   0  0  0  0  0  0  0  0  0  0  0  0
   20.4046   71.2277   -3.8434 C   0  0  0  0  0  0  0  0  0  0  0  0
   18.4143   71.9169   -5.0000 O   0  0  0  0  0  0  0  0  0  0  0  0
   16.8920   70.5745   -2.7929 O   0  0  0  0  0  0  0  0  0  0  0  0
   16.7697   68.7358   -4.8031 O   0  0  0  0  0  0  0  0  0  0  0  0
   18.1234   70.1908   -3.4025 C   0  0  1  0  0  0  0  0  0  0  0  0
   17.8716   69.6202   -4.7826 C   0  0  2  0  0  0  0  0  0  0  0  0
   18.9048   71.4595   -3.7207 C   0  0  1  0  0  0  0  0  0  0  0  0
   17.6291   70.8755   -5.6032 C   0  0  2  0  0  0  0  0  0  0  0  0
   16.3756   69.7807   -2.5802 H   0  0  0  0  0  0  0  0  0  0  0  0
   16.9728   67.9534   -4.2671 H   0  0  0  0  0  0  0  0  0  0  0  0
   15.8562   70.3579   -7.7402 O   0  0  0  0  0  0  0  0  0  0  0  0
   19.2887   70.3007  -10.8152 O   0  0  0  0  0  0  0  0  0  0  0  0
   18.0323   70.7212   -6.9725 N   0  0  0  0  0  0  0  0  0  0  0  0
   17.5667   70.3301   -9.2696 N   0  0  0  0  0  0  0  0  0  0  0  0
   17.0629   70.4623   -7.9693 C   0  0  0  0  0  0  0  0  0  0  0  0
   19.3759   70.8270   -7.3154 C   0  0  0  0  0  0  0  0  0  0  0  0
   19.8402   70.6970   -8.5599 C   0  0  0  0  0  0  0  0  0  0  0  0
   18.8930   70.4255   -9.6603 C   0  0  0  0  0  0  0  0  0  0  0  0
   16.9098   70.1490   -9.9805 H   0  0  0  0  0  0  0  0  0  0  0  0
   22.4194   74.4385   -3.2141 O   0  0  0  0  0  0  0  0  0  0  0  0
   23.2551   74.8617   -1.8968 P   0  0  2  0  0  0  0  0  0  0  0  0
   22.7079   76.3493   -1.5723 O   0  0  0  0  0  0  0  0  0  0  0  0
   24.7450   74.7714   -2.0578 O   0  0  0  0  0  0  0  0  0  0  0  0
   22.6527   73.9395   -0.7171 O   0  0  0  0  0  0  0  0  0  0  0  0
   23.6483   73.6560    1.4148 O   0  0  0  0  0  0  0  0  0  0  0  0
   21.6920   70.0321    1.1130 O   0  0  0  0  0  0  0  0  0  0  0  0
   20.6987   72.0337    2.9171 O   0  0  0  0  0  0  0  0  0  0  0  0
   22.9463   71.1948   -1.2225 O   0  0  0  0  0  0  0  0  0  0  0  0
   21.8683   71.4379    0.9176 C   0  0  1  0  0  0  0  0  0  0  0  0
   21.9768   72.1030    2.2912 C   0  0  1  0  0  0  0  0  0  0  0  0
   23.1396   71.6733    0.1042 C   0  0  2  0  0  0  0  0  0  0  0  0
   22.4316   73.5633    2.1651 C   0  0  1  0  0  0  0  0  0  0  0  0
   23.5308   73.1520    0.0829 C   0  0  1  0  0  0  0  0  0  0  0  0
   20.8862   69.8757    1.6284 H   0  0  0  0  0  0  0  0  0  0  0  0
   20.4229   71.1064    2.9902 H   0  0  0  0  0  0  0  0  0  0  0  0
   22.6994   70.2577   -1.1954 H   0  0  0  0  0  0  0  0  0  0  0  0
   21.4563   74.5389    4.1160 O   0  0  0  0  0  0  0  0  0  0  0  0
   22.6984   74.1988    3.5278 C   0  0  0  0  0  0  0  0  0  0  0  0
   21.6106   74.9442    4.9841 H   0  0  0  0  0  0  0  0  0  0  0  0
 25 28  1  0
 25 24  1  0
 25 26  1  1
 25 27  2  0
  1  4  1  0
  1 24  1  0
  1  2  1  6
  1  3  2  0
  6 11  1  0
  6 12  1  0
 29 36  1  0
 29 37  1  0
  9  7  1  6
  7 13  1  0
 10  8  1  1
  8 14  1  0
 37 28  1  6
  4  5  1  0
 33 30  1  1
 30 38  1  0
 34 31  1  6
 31 39  1  0
 35 32  1  6
 32 40  1  0
 41 42  1  0
 41 43  1  0
 15 19  2  0
 16 22  2  0
 12 17  1  6
 17 19  1  0
 17 20  1  0
 18 19  1  0
 18 22  1  0
 18 23  1  0
  9 10  1  0
  9 11  1  0
 10 12  1  0
 11  5  1  6
 33 34  1  0
 33 35  1  0
 34 36  1  0
 35 37  1  0
 36 42  1  1
 20 21  2  0
 21 22  1  0
M  CHG  2   2  -1  26  -1
M  END
>  <COMPND>  (389) 
    8629 

>  <AUTHOR>  (389) 
    GENERATED BY OPEN BABEL 3.1.1

>  <MASTER>  (389) 
        0    0    0    0    0    0    0    0   58    0   58    0

>  <minimizedAffinity>  (389) 
-7.45049

>  <CNNscore>  (389) 
0.8150011897

>  <CNNaffinity>  (389) 
4.5702977180

>  <CNN_VS>  (389) 
3.7247979641

>  <CNNaffinity_variance>  (389) 
0.0370545276

$$$$
390
     RDKit          3D

 43 45  0  0  0  0  0  0  0  0999 V2000
   21.0928   73.0534   -2.1102 P   0  0  2  0  0  0  0  0  0  0  0  0
   22.0726   72.2398   -1.1124 O   0  0  0  0  0  0  0  0  0  0  0  0
   20.6195   74.3795   -1.5917 O   0  0  0  0  0  0  0  0  0  0  0  0
   19.9323   71.9854   -2.4713 O   0  0  0  0  0  0  0  0  0  0  0  0
   19.5211   71.8646   -3.8219 C   0  0  0  0  0  0  0  0  0  0  0  0
   17.5731   72.0218   -5.2199 O   0  0  0  0  0  0  0  0  0  0  0  0
   16.1522   70.4530   -3.0960 O   0  0  0  0  0  0  0  0  0  0  0  0
   16.6839   68.5555   -4.9811 O   0  0  0  0  0  0  0  0  0  0  0  0
   17.5005   70.3427   -3.5492 C   0  0  1  0  0  0  0  0  0  0  0  0
   17.5458   69.6728   -4.9066 C   0  0  2  0  0  0  0  0  0  0  0  0
   18.0040   71.7446   -3.8694 C   0  0  1  0  0  0  0  0  0  0  0  0
   17.1203   70.8020   -5.8297 C   0  0  2  0  0  0  0  0  0  0  0  0
   15.8090   69.5700   -2.8850 H   0  0  0  0  0  0  0  0  0  0  0  0
   16.9967   67.8648   -4.3761 H   0  0  0  0  0  0  0  0  0  0  0  0
   15.6392   70.6681   -8.2310 O   0  0  0  0  0  0  0  0  0  0  0  0
   19.4626   70.3715  -10.7872 O   0  0  0  0  0  0  0  0  0  0  0  0
   17.7031   70.6898   -7.1370 N   0  0  0  0  0  0  0  0  0  0  0  0
   17.5442   70.5207   -9.5019 N   0  0  0  0  0  0  0  0  0  0  0  0
   16.8704   70.6288   -8.2786 C   0  0  0  0  0  0  0  0  0  0  0  0
   19.0858   70.6419   -7.2775 C   0  0  0  0  0  0  0  0  0  0  0  0
   19.7127   70.5374   -8.4511 C   0  0  0  0  0  0  0  0  0  0  0  0
   18.9158   70.4680   -9.6929 C   0  0  0  0  0  0  0  0  0  0  0  0
   16.9845   70.4762  -10.3109 H   0  0  0  0  0  0  0  0  0  0  0  0
   21.9513   73.1332   -3.4775 O   0  0  0  0  0  0  0  0  0  0  0  0
   23.4976   73.5254   -3.7387 P   0  0  2  0  0  0  0  0  0  0  0  0
   24.2011   72.0954   -4.0174 O   0  0  0  0  0  0  0  0  0  0  0  0
   24.1266   74.3195   -2.6307 O   0  0  0  0  0  0  0  0  0  0  0  0
   23.4948   74.2649   -5.1733 O   0  0  0  0  0  0  0  0  0  0  0  0
   21.5555   75.5803   -5.5279 O   0  0  0  0  0  0  0  0  0  0  0  0
   23.0958   75.6296   -9.3588 O   0  0  0  0  0  0  0  0  0  0  0  0
   23.2295   78.0023   -7.7461 O   0  0  0  0  0  0  0  0  0  0  0  0
   23.2623   73.2179   -7.7665 O   0  0  0  0  0  0  0  0  0  0  0  0
   23.1569   75.6186   -7.9300 C   0  0  1  0  0  0  0  0  0  0  0  0
   22.4390   76.8655   -7.4097 C   0  0  1  0  0  0  0  0  0  0  0  0
   22.4787   74.3520   -7.4111 C   0  0  2  0  0  0  0  0  0  0  0  0
   22.2294   76.7910   -5.8913 C   0  0  1  0  0  0  0  0  0  0  0  0
   22.2739   74.4012   -5.8960 C   0  0  1  0  0  0  0  0  0  0  0  0
   23.5251   76.4311   -9.6947 H   0  0  0  0  0  0  0  0  0  0  0  0
   23.3549   78.0374   -8.7075 H   0  0  0  0  0  0  0  0  0  0  0  0
   23.3845   73.1980   -8.7281 H   0  0  0  0  0  0  0  0  0  0  0  0
   20.1962   78.0188   -6.1510 O   0  0  0  0  0  0  0  0  0  0  0  0
   21.3775   77.9481   -5.3740 C   0  0  0  0  0  0  0  0  0  0  0  0
   19.6440   78.7507   -5.8329 H   0  0  0  0  0  0  0  0  0  0  0  0
 25 28  1  0
 25 24  1  0
 25 26  1  6
 25 27  2  0
  1  4  1  0
  1 24  1  0
  1  2  1  1
  1  3  2  0
  6 11  1  0
  6 12  1  0
 29 36  1  0
 29 37  1  0
  9  7  1  6
  7 13  1  0
 10  8  1  1
  8 14  1  0
 37 28  1  1
  4  5  1  0
 33 30  1  6
 30 38  1  0
 34 31  1  1
 31 39  1  0
 35 32  1  1
 32 40  1  0
 41 42  1  0
 41 43  1  0
 15 19  2  0
 16 22  2  0
 12 17  1  6
 17 19  1  0
 17 20  1  0
 18 19  1  0
 18 22  1  0
 18 23  1  0
  9 10  1  0
  9 11  1  0
 10 12  1  0
 11  5  1  6
 33 34  1  0
 33 35  1  0
 34 36  1  0
 35 37  1  0
 36 42  1  6
 20 21  2  0
 21 22  1  0
M  CHG  2   2  -1  26  -1
M  END
>  <COMPND>  (390) 
    8629 

>  <AUTHOR>  (390) 
    GENERATED BY OPEN BABEL 3.1.1

>  <MASTER>  (390) 
        0    0    0    0    0    0    0    0   58    0   58    0

>  <minimizedAffinity>  (390) 
-6.80541

>  <CNNscore>  (390) 
0.8129284382

>  <CNNaffinity>  (390) 
4.6105394363

>  <CNN_VS>  (390) 
3.7480385303

>  <CNNaffinity_variance>  (390) 
0.1404706389

$$$$
391
     RDKit          3D

 43 45  0  0  0  0  0  0  0  0999 V2000
   22.6903   72.3781   -4.2298 P   0  0  2  0  0  0  0  0  0  0  0  0
   23.1224   72.4954   -5.7845 O   0  0  0  0  0  0  0  0  0  0  0  0
   23.3650   71.2770   -3.4659 O   0  0  0  0  0  0  0  0  0  0  0  0
   21.0745   72.3109   -4.2799 O   0  0  0  0  0  0  0  0  0  0  0  0
   20.4306   71.1489   -3.7868 C   0  0  0  0  0  0  0  0  0  0  0  0
   18.4603   71.9241   -4.9229 O   0  0  0  0  0  0  0  0  0  0  0  0
   16.9018   70.5900   -2.7361 O   0  0  0  0  0  0  0  0  0  0  0  0
   16.7138   68.7948   -4.7803 O   0  0  0  0  0  0  0  0  0  0  0  0
   18.1183   70.1783   -3.3574 C   0  0  1  0  0  0  0  0  0  0  0  0
   17.8439   69.6425   -4.7471 C   0  0  2  0  0  0  0  0  0  0  0  0
   18.9395   71.4268   -3.6543 C   0  0  1  0  0  0  0  0  0  0  0  0
   17.6398   70.9204   -5.5429 C   0  0  2  0  0  0  0  0  0  0  0  0
   16.3606   69.8094   -2.5367 H   0  0  0  0  0  0  0  0  0  0  0  0
   16.8931   67.9961   -4.2600 H   0  0  0  0  0  0  0  0  0  0  0  0
   15.9071   70.1231   -7.6261 O   0  0  0  0  0  0  0  0  0  0  0  0
   19.2613   70.4111  -10.7736 O   0  0  0  0  0  0  0  0  0  0  0  0
   18.0338   70.7791   -6.9163 N   0  0  0  0  0  0  0  0  0  0  0  0
   17.5786   70.2673   -9.1916 N   0  0  0  0  0  0  0  0  0  0  0  0
   17.0865   70.3720   -7.8844 C   0  0  0  0  0  0  0  0  0  0  0  0
   19.3465   71.0435   -7.2914 C   0  0  0  0  0  0  0  0  0  0  0  0
   19.8002   70.9377   -8.5421 C   0  0  0  0  0  0  0  0  0  0  0  0
   18.8746   70.5179   -9.6139 C   0  0  0  0  0  0  0  0  0  0  0  0
   16.9367   69.9849   -9.8830 H   0  0  0  0  0  0  0  0  0  0  0  0
   22.9746   73.8640   -3.6604 O   0  0  0  0  0  0  0  0  0  0  0  0
   24.2946   74.5073   -2.9847 P   0  0  2  0  0  0  0  0  0  0  0  0
   23.8341   76.0187   -2.6363 O   0  0  0  0  0  0  0  0  0  0  0  0
   25.5281   74.4165   -3.8357 O   0  0  0  0  0  0  0  0  0  0  0  0
   24.4163   73.7774   -1.5504 O   0  0  0  0  0  0  0  0  0  0  0  0
   22.4159   73.0526   -0.5066 O   0  0  0  0  0  0  0  0  0  0  0  0
   24.9180   73.0346    2.7782 O   0  0  0  0  0  0  0  0  0  0  0  0
   24.0741   70.5434    1.6249 O   0  0  0  0  0  0  0  0  0  0  0  0
   25.1535   75.1302    0.7952 O   0  0  0  0  0  0  0  0  0  0  0  0
   24.5773   72.8708    1.3989 C   0  0  1  0  0  0  0  0  0  0  0  0
   23.4886   71.8006    1.2976 C   0  0  1  0  0  0  0  0  0  0  0  0
   24.0742   74.2035    0.8474 C   0  0  2  0  0  0  0  0  0  0  0  0
   22.8837   71.7575   -0.1121 C   0  0  1  0  0  0  0  0  0  0  0  0
   23.4476   74.0407   -0.5387 C   0  0  1  0  0  0  0  0  0  0  0  0
   25.2386   72.1921    3.1344 H   0  0  0  0  0  0  0  0  0  0  0  0
   24.4528   70.5843    2.5172 H   0  0  0  0  0  0  0  0  0  0  0  0
   25.5414   75.2247    1.6786 H   0  0  0  0  0  0  0  0  0  0  0  0
   21.4417   70.2869    1.0991 O   0  0  0  0  0  0  0  0  0  0  0  0
   21.6902   70.8083   -0.1935 C   0  0  0  0  0  0  0  0  0  0  0  0
   20.6843   69.6812    1.0627 H   0  0  0  0  0  0  0  0  0  0  0  0
 25 28  1  0
 25 24  1  0
 25 26  1  1
 25 27  2  0
  1  4  1  0
  1 24  1  0
  1  2  1  6
  1  3  2  0
  6 11  1  0
  6 12  1  0
 29 36  1  0
 29 37  1  0
  9  7  1  6
  7 13  1  0
 10  8  1  1
  8 14  1  0
 37 28  1  6
  4  5  1  0
 33 30  1  1
 30 38  1  0
 34 31  1  6
 31 39  1  0
 35 32  1  6
 32 40  1  0
 41 42  1  0
 41 43  1  0
 15 19  2  0
 16 22  2  0
 12 17  1  6
 17 19  1  0
 17 20  1  0
 18 19  1  0
 18 22  1  0
 18 23  1  0
  9 10  1  0
  9 11  1  0
 10 12  1  0
 11  5  1  6
 33 34  1  0
 33 35  1  0
 34 36  1  0
 35 37  1  0
 36 42  1  1
 20 21  2  0
 21 22  1  0
M  CHG  2   2  -1  26  -1
M  END
>  <COMPND>  (391) 
    8629 

>  <AUTHOR>  (391) 
    GENERATED BY OPEN BABEL 3.1.1

>  <MASTER>  (391) 
        0    0    0    0    0    0    0    0   58    0   58    0

>  <minimizedAffinity>  (391) 
-7.85226

>  <CNNscore>  (391) 
0.7693134546

>  <CNNaffinity>  (391) 
4.5390715599

>  <CNN_VS>  (391) 
3.4919688702

>  <CNNaffinity_variance>  (391) 
0.0544578843

$$$$
392
     RDKit          3D

 43 45  0  0  0  0  0  0  0  0999 V2000
   21.7880   72.4791   -5.5964 P   0  0  2  0  0  0  0  0  0  0  0  0
   21.0261   73.8929   -5.4007 O   0  0  0  0  0  0  0  0  0  0  0  0
   23.1106   72.5640   -6.3000 O   0  0  0  0  0  0  0  0  0  0  0  0
   20.6782   71.5337   -6.2982 O   0  0  0  0  0  0  0  0  0  0  0  0
   20.1641   71.9179   -7.5615 C   0  0  0  0  0  0  0  0  0  0  0  0
   18.9268   69.8986   -7.1549 O   0  0  0  0  0  0  0  0  0  0  0  0
   18.1133   70.0384  -10.0375 O   0  0  0  0  0  0  0  0  0  0  0  0
   15.9107   71.0027   -8.7508 O   0  0  0  0  0  0  0  0  0  0  0  0
   18.3143   71.0987   -9.1043 C   0  0  1  0  0  0  0  0  0  0  0  0
   17.1654   71.1571   -8.1193 C   0  0  2  0  0  0  0  0  0  0  0  0
   19.4843   70.7175   -8.2059 C   0  0  1  0  0  0  0  0  0  0  0  0
   17.4942   70.0067   -7.1831 C   0  0  2  0  0  0  0  0  0  0  0  0
   17.3710   70.2592  -10.6225 H   0  0  0  0  0  0  0  0  0  0  0  0
   15.7476   71.7592   -9.3355 H   0  0  0  0  0  0  0  0  0  0  0  0
   16.2683   68.0384   -5.5704 O   0  0  0  0  0  0  0  0  0  0  0  0
   15.7024   70.9912   -2.0773 O   0  0  0  0  0  0  0  0  0  0  0  0
   17.0172   70.2336   -5.8480 N   0  0  0  0  0  0  0  0  0  0  0  0
   15.9876   69.5102   -3.8323 N   0  0  0  0  0  0  0  0  0  0  0  0
   16.4159   69.1779   -5.1239 C   0  0  0  0  0  0  0  0  0  0  0  0
   17.1482   71.4915   -5.2698 C   0  0  0  0  0  0  0  0  0  0  0  0
   16.7335   71.7925   -4.0375 C   0  0  0  0  0  0  0  0  0  0  0  0
   16.0943   70.7459   -3.2140 C   0  0  0  0  0  0  0  0  0  0  0  0
   15.5653   68.7906   -3.3093 H   0  0  0  0  0  0  0  0  0  0  0  0
   21.8631   71.8953   -4.0910 O   0  0  0  0  0  0  0  0  0  0  0  0
   23.0416   71.9564   -2.9863 P   0  0  2  0  0  0  0  0  0  0  0  0
   23.5829   73.4764   -3.1049 O   0  0  0  0  0  0  0  0  0  0  0  0
   24.1011   70.9066   -3.1579 O   0  0  0  0  0  0  0  0  0  0  0  0
   22.2743   71.9065   -1.5672 O   0  0  0  0  0  0  0  0  0  0  0  0
   23.9799   72.4777   -0.0240 O   0  0  0  0  0  0  0  0  0  0  0  0
   20.7884   72.2239    2.5839 O   0  0  0  0  0  0  0  0  0  0  0  0
   21.8728   74.7981    1.9164 O   0  0  0  0  0  0  0  0  0  0  0  0
   21.0180   70.3430    0.3955 O   0  0  0  0  0  0  0  0  0  0  0  0
   21.4374   72.5170    1.3436 C   0  0  1  0  0  0  0  0  0  0  0  0
   22.5191   73.5670    1.6049 C   0  0  1  0  0  0  0  0  0  0  0  0
   22.0554   71.2351    0.7884 C   0  0  2  0  0  0  0  0  0  0  0  0
   23.4325   73.7371    0.3835 C   0  0  1  0  0  0  0  0  0  0  0  0
   22.9842   71.5214   -0.3929 C   0  0  1  0  0  0  0  0  0  0  0  0
   20.3935   73.0336    2.9415 H   0  0  0  0  0  0  0  0  0  0  0  0
   21.2988   74.6768    2.6890 H   0  0  0  0  0  0  0  0  0  0  0  0
   20.4371   70.1694    1.1520 H   0  0  0  0  0  0  0  0  0  0  0  0
   24.1868   76.0013    0.4995 O   0  0  0  0  0  0  0  0  0  0  0  0
   24.6118   74.6624    0.6756 C   0  0  0  0  0  0  0  0  0  0  0  0
   24.9270   76.6016    0.6824 H   0  0  0  0  0  0  0  0  0  0  0  0
 25 28  1  0
 25 24  1  0
 25 26  1  1
 25 27  2  0
  1  4  1  0
  1 24  1  0
  1  2  1  1
  1  3  2  0
  6 11  1  0
  6 12  1  0
 29 36  1  0
 29 37  1  0
  9  7  1  6
  7 13  1  0
 10  8  1  6
  8 14  1  0
 37 28  1  6
  4  5  1  0
 33 30  1  1
 30 38  1  0
 34 31  1  6
 31 39  1  0
 35 32  1  6
 32 40  1  0
 41 42  1  0
 41 43  1  0
 15 19  2  0
 16 22  2  0
 12 17  1  1
 17 19  1  0
 17 20  1  0
 18 19  1  0
 18 22  1  0
 18 23  1  0
  9 10  1  0
  9 11  1  0
 10 12  1  0
 11  5  1  1
 33 34  1  0
 33 35  1  0
 34 36  1  0
 35 37  1  0
 36 42  1  1
 20 21  2  0
 21 22  1  0
M  CHG  2   2  -1  26  -1
M  END
>  <COMPND>  (392) 
    8629 

>  <AUTHOR>  (392) 
    GENERATED BY OPEN BABEL 3.1.1

>  <MASTER>  (392) 
        0    0    0    0    0    0    0    0   58    0   58    0

>  <minimizedAffinity>  (392) 
-8.02337

>  <CNNscore>  (392) 
0.7610117793

>  <CNNaffinity>  (392) 
4.5587244034

>  <CNN_VS>  (392) 
3.4692430496

>  <CNNaffinity_variance>  (392) 
0.2089950293

$$$$
393
     RDKit          3D

 43 45  0  0  0  0  0  0  0  0999 V2000
   23.4604   73.5546   -4.1700 P   0  0  2  0  0  0  0  0  0  0  0  0
   22.6903   74.9608   -4.3873 O   0  0  0  0  0  0  0  0  0  0  0  0
   24.9528   73.6604   -4.0560 O   0  0  0  0  0  0  0  0  0  0  0  0
   22.9120   72.6216   -5.3728 O   0  0  0  0  0  0  0  0  0  0  0  0
   21.5225   72.3525   -5.4400 C   0  0  0  0  0  0  0  0  0  0  0  0
   20.4852   70.3599   -6.2928 O   0  0  0  0  0  0  0  0  0  0  0  0
   20.6082   71.6730   -8.9856 O   0  0  0  0  0  0  0  0  0  0  0  0
   18.0097   72.0595   -8.2540 O   0  0  0  0  0  0  0  0  0  0  0  0
   20.3703   72.2583   -7.7065 C   0  0  1  0  0  0  0  0  0  0  0  0
   18.9723   71.9261   -7.2281 C   0  0  2  0  0  0  0  0  0  0  0  0
   21.2369   71.5283   -6.6879 C   0  0  1  0  0  0  0  0  0  0  0  0
   19.1325   70.4897   -6.7599 C   0  0  2  0  0  0  0  0  0  0  0  0
   20.0658   72.1231   -9.6528 H   0  0  0  0  0  0  0  0  0  0  0  0
   17.9446   72.9908   -8.5173 H   0  0  0  0  0  0  0  0  0  0  0  0
   16.4368   69.7244   -7.1142 O   0  0  0  0  0  0  0  0  0  0  0  0
   15.7848   69.2474   -2.5767 O   0  0  0  0  0  0  0  0  0  0  0  0
   18.2355   70.1595   -5.6886 N   0  0  0  0  0  0  0  0  0  0  0  0
   16.1144   69.4873   -4.8546 N   0  0  0  0  0  0  0  0  0  0  0  0
   16.9008   69.7886   -5.9739 C   0  0  0  0  0  0  0  0  0  0  0  0
   18.6818   70.2050   -4.3723 C   0  0  0  0  0  0  0  0  0  0  0  0
   17.9188   69.9159   -3.3160 C   0  0  0  0  0  0  0  0  0  0  0  0
   16.5117   69.5192   -3.5273 C   0  0  0  0  0  0  0  0  0  0  0  0
   15.1809   69.2267   -5.0291 H   0  0  0  0  0  0  0  0  0  0  0  0
   22.7283   72.9366   -2.8681 O   0  0  0  0  0  0  0  0  0  0  0  0
   22.8889   71.5019   -2.1409 P   0  0  2  0  0  0  0  0  0  0  0  0
   24.2182   70.8851   -2.8264 O   0  0  0  0  0  0  0  0  0  0  0  0
   21.6761   70.6226   -2.2400 O   0  0  0  0  0  0  0  0  0  0  0  0
   23.3360   71.8570   -0.6312 O   0  0  0  0  0  0  0  0  0  0  0  0
   24.5792   70.8554    1.1204 O   0  0  0  0  0  0  0  0  0  0  0  0
   21.1827   71.8889    3.2292 O   0  0  0  0  0  0  0  0  0  0  0  0
   23.6147   73.3573    3.6500 O   0  0  0  0  0  0  0  0  0  0  0  0
   20.9550   70.9113    0.5140 O   0  0  0  0  0  0  0  0  0  0  0  0
   22.1982   72.0490    2.2349 C   0  0  1  0  0  0  0  0  0  0  0  0
   23.5534   72.1228    2.9411 C   0  0  1  0  0  0  0  0  0  0  0  0
   22.1538   70.8577    1.2798 C   0  0  2  0  0  0  0  0  0  0  0  0
   24.7083   72.0265    1.9351 C   0  0  1  0  0  0  0  0  0  0  0  0
   23.3725   70.8292    0.3555 C   0  0  1  0  0  0  0  0  0  0  0  0
   21.2052   72.6422    3.8386 H   0  0  0  0  0  0  0  0  0  0  0  0
   22.8798   73.4057    4.2816 H   0  0  0  0  0  0  0  0  0  0  0  0
   20.1910   70.9286    1.1106 H   0  0  0  0  0  0  0  0  0  0  0  0
   26.6956   70.7344    2.2352 O   0  0  0  0  0  0  0  0  0  0  0  0
   26.0657   71.9395    2.6292 C   0  0  0  0  0  0  0  0  0  0  0  0
   27.5608   70.6656    2.6691 H   0  0  0  0  0  0  0  0  0  0  0  0
 25 28  1  0
 25 24  1  0
 25 26  1  6
 25 27  2  0
  1  4  1  0
  1 24  1  0
  1  2  1  6
  1  3  2  0
  6 11  1  0
  6 12  1  0
 29 36  1  0
 29 37  1  0
  9  7  1  6
  7 13  1  0
 10  8  1  6
  8 14  1  0
 37 28  1  6
  4  5  1  0
 33 30  1  1
 30 38  1  0
 34 31  1  6
 31 39  1  0
 35 32  1  6
 32 40  1  0
 41 42  1  0
 41 43  1  0
 15 19  2  0
 16 22  2  0
 12 17  1  1
 17 19  1  0
 17 20  1  0
 18 19  1  0
 18 22  1  0
 18 23  1  0
  9 10  1  0
  9 11  1  0
 10 12  1  0
 11  5  1  1
 33 34  1  0
 33 35  1  0
 34 36  1  0
 35 37  1  0
 36 42  1  1
 20 21  2  0
 21 22  1  0
M  CHG  2   2  -1  26  -1
M  END
>  <COMPND>  (393) 
    8629 

>  <AUTHOR>  (393) 
    GENERATED BY OPEN BABEL 3.1.1

>  <MASTER>  (393) 
        0    0    0    0    0    0    0    0   58    0   58    0

>  <minimizedAffinity>  (393) 
-8.38675

>  <CNNscore>  (393) 
0.6541259289

>  <CNNaffinity>  (393) 
4.3502287865

>  <CNN_VS>  (393) 
2.8455975056

>  <CNNaffinity_variance>  (393) 
0.2805771828

$$$$
394
     RDKit          3D

 43 45  0  0  0  0  0  0  0  0999 V2000
   21.4190   71.9883   -5.3002 P   0  0  2  0  0  0  0  0  0  0  0  0
   20.5741   73.3677   -5.2689 O   0  0  0  0  0  0  0  0  0  0  0  0
   22.8507   72.1122   -4.8686 O   0  0  0  0  0  0  0  0  0  0  0  0
   21.1829   71.4222   -6.7974 O   0  0  0  0  0  0  0  0  0  0  0  0
   20.0520   71.8751   -7.5210 C   0  0  0  0  0  0  0  0  0  0  0  0
   18.7405   69.9027   -7.1166 O   0  0  0  0  0  0  0  0  0  0  0  0
   18.0455   69.9942  -10.0319 O   0  0  0  0  0  0  0  0  0  0  0  0
   15.8235   71.0526   -8.8577 O   0  0  0  0  0  0  0  0  0  0  0  0
   18.2409   71.0711   -9.1168 C   0  0  1  0  0  0  0  0  0  0  0  0
   17.0564   71.1867   -8.1803 C   0  0  2  0  0  0  0  0  0  0  0  0
   19.3630   70.6791   -8.1636 C   0  0  1  0  0  0  0  0  0  0  0  0
   17.3140   70.0509   -7.2047 C   0  0  2  0  0  0  0  0  0  0  0  0
   17.3337   70.2215  -10.6512 H   0  0  0  0  0  0  0  0  0  0  0  0
   15.7059   71.7987   -9.4662 H   0  0  0  0  0  0  0  0  0  0  0  0
   16.5257   68.0675   -5.3547 O   0  0  0  0  0  0  0  0  0  0  0  0
   15.3237   71.2170   -2.2119 O   0  0  0  0  0  0  0  0  0  0  0  0
   16.7918   70.3245   -5.8955 N   0  0  0  0  0  0  0  0  0  0  0  0
   15.9280   69.6374   -3.7912 N   0  0  0  0  0  0  0  0  0  0  0  0
   16.4247   69.2563   -5.0442 C   0  0  0  0  0  0  0  0  0  0  0  0
   16.6487   71.6398   -5.4674 C   0  0  0  0  0  0  0  0  0  0  0  0
   16.1722   71.9865   -4.2699 C   0  0  0  0  0  0  0  0  0  0  0  0
   15.7656   70.9306   -3.3203 C   0  0  0  0  0  0  0  0  0  0  0  0
   15.6654   68.9100   -3.1814 H   0  0  0  0  0  0  0  0  0  0  0  0
   20.5258   70.9943   -4.3908 O   0  0  0  0  0  0  0  0  0  0  0  0
   19.8656   71.1981   -2.9295 P   0  0  2  0  0  0  0  0  0  0  0  0
   18.9775   69.8601   -2.7336 O   0  0  0  0  0  0  0  0  0  0  0  0
   19.0981   72.4791   -2.7742 O   0  0  0  0  0  0  0  0  0  0  0  0
   21.0951   71.0259   -1.8981 O   0  0  0  0  0  0  0  0  0  0  0  0
   21.3002   72.8795   -0.4357 O   0  0  0  0  0  0  0  0  0  0  0  0
   24.8462   70.9531    0.4394 O   0  0  0  0  0  0  0  0  0  0  0  0
   22.7036   70.9170    2.3515 O   0  0  0  0  0  0  0  0  0  0  0  0
   23.8744   71.0210   -2.2865 O   0  0  0  0  0  0  0  0  0  0  0  0
   23.4629   71.0395    0.0867 C   0  0  1  0  0  0  0  0  0  0  0  0
   22.7261   71.7705    1.2107 C   0  0  1  0  0  0  0  0  0  0  0  0
   23.3301   71.8037   -1.2293 C   0  0  2  0  0  0  0  0  0  0  0  0
   21.2967   72.1371    0.7893 C   0  0  1  0  0  0  0  0  0  0  0  0
   21.8736   72.1616   -1.5301 C   0  0  1  0  0  0  0  0  0  0  0  0
   24.9375   70.4686    1.2739 H   0  0  0  0  0  0  0  0  0  0  0  0
   23.6122   70.6927    2.6069 H   0  0  0  0  0  0  0  0  0  0  0  0
   24.7967   70.8013   -2.0842 H   0  0  0  0  0  0  0  0  0  0  0  0
   20.3514   72.2129    2.9824 O   0  0  0  0  0  0  0  0  0  0  0  0
   20.5969   73.0037    1.8340 C   0  0  0  0  0  0  0  0  0  0  0  0
   19.9066   72.7515    3.6560 H   0  0  0  0  0  0  0  0  0  0  0  0
 25 28  1  0
 25 24  1  0
 25 26  1  1
 25 27  2  0
  1  4  1  0
  1 24  1  0
  1  2  1  6
  1  3  2  0
  6 11  1  0
  6 12  1  0
 29 36  1  0
 29 37  1  0
  9  7  1  6
  7 13  1  0
 10  8  1  6
  8 14  1  0
 37 28  1  1
  4  5  1  0
 33 30  1  1
 30 38  1  0
 34 31  1  1
 31 39  1  0
 35 32  1  6
 32 40  1  0
 41 42  1  0
 41 43  1  0
 15 19  2  0
 16 22  2  0
 12 17  1  1
 17 19  1  0
 17 20  1  0
 18 19  1  0
 18 22  1  0
 18 23  1  0
  9 10  1  0
  9 11  1  0
 10 12  1  0
 11  5  1  1
 33 34  1  0
 33 35  1  0
 34 36  1  0
 35 37  1  0
 36 42  1  1
 20 21  2  0
 21 22  1  0
M  CHG  2   2  -1  26  -1
M  END
>  <COMPND>  (394) 
    8629 

>  <AUTHOR>  (394) 
    GENERATED BY OPEN BABEL 3.1.1

>  <MASTER>  (394) 
        0    0    0    0    0    0    0    0   58    0   58    0

>  <minimizedAffinity>  (394) 
-7.70026

>  <CNNscore>  (394) 
0.6087222695

>  <CNNaffinity>  (394) 
4.4351377487

>  <CNN_VS>  (394) 
2.6997671127

>  <CNNaffinity_variance>  (394) 
0.4356232584

$$$$
395
     RDKit          3D

 43 45  0  0  0  0  0  0  0  0999 V2000
   23.3150   72.3521   -3.3519 P   0  0  2  0  0  0  0  0  0  0  0  0
   24.0094   70.8998   -3.1907 O   0  0  0  0  0  0  0  0  0  0  0  0
   24.2319   73.4447   -3.8177 O   0  0  0  0  0  0  0  0  0  0  0  0
   22.5959   72.5995   -1.9238 O   0  0  0  0  0  0  0  0  0  0  0  0
   23.4102   72.7518   -0.7742 C   0  0  0  0  0  0  0  0  0  0  0  0
   24.0221   71.7401    1.3177 O   0  0  0  0  0  0  0  0  0  0  0  0
   21.5368   70.0872    1.0311 O   0  0  0  0  0  0  0  0  0  0  0  0
   20.7706   72.0096    2.8070 O   0  0  0  0  0  0  0  0  0  0  0  0
   21.7643   71.4461    0.6608 C   0  0  1  0  0  0  0  0  0  0  0  0
   21.7990   72.3277    1.8917 C   0  0  2  0  0  0  0  0  0  0  0  0
   23.1944   71.5595    0.1478 C   0  0  1  0  0  0  0  0  0  0  0  0
   23.1843   72.0408    2.4457 C   0  0  2  0  0  0  0  0  0  0  0  0
   20.6295   69.9899    1.3616 H   0  0  0  0  0  0  0  0  0  0  0  0
   19.9094   72.2097    2.4083 H   0  0  0  0  0  0  0  0  0  0  0  0
   22.5641   72.7089    5.1191 O   0  0  0  0  0  0  0  0  0  0  0  0
   25.3594   76.3725    5.0447 O   0  0  0  0  0  0  0  0  0  0  0  0
   23.7358   73.1638    3.1500 N   0  0  0  0  0  0  0  0  0  0  0  0
   23.9566   74.5324    5.0799 N   0  0  0  0  0  0  0  0  0  0  0  0
   23.3580   73.4117    4.4903 C   0  0  0  0  0  0  0  0  0  0  0  0
   24.6410   74.0051    2.5123 C   0  0  0  0  0  0  0  0  0  0  0  0
   25.2019   75.0705    3.0882 C   0  0  0  0  0  0  0  0  0  0  0  0
   24.8607   75.3997    4.4872 C   0  0  0  0  0  0  0  0  0  0  0  0
   23.7081   74.7250    6.0131 H   0  0  0  0  0  0  0  0  0  0  0  0
   22.0701   72.0523   -4.3384 O   0  0  0  0  0  0  0  0  0  0  0  0
   20.6620   72.8216   -4.5348 P   0  0  2  0  0  0  0  0  0  0  0  0
   21.1019   74.3731   -4.6646 O   0  0  0  0  0  0  0  0  0  0  0  0
   19.6571   72.5513   -3.4527 O   0  0  0  0  0  0  0  0  0  0  0  0
   20.1752   72.4104   -6.0176 O   0  0  0  0  0  0  0  0  0  0  0  0
   19.3916   70.1743   -6.0634 O   0  0  0  0  0  0  0  0  0  0  0  0
   19.3847   70.9589  -10.1174 O   0  0  0  0  0  0  0  0  0  0  0  0
   16.8913   70.7797   -8.7036 O   0  0  0  0  0  0  0  0  0  0  0  0
   21.5120   71.9949   -8.4498 O   0  0  0  0  0  0  0  0  0  0  0  0
   19.2322   71.2700   -8.7299 C   0  0  1  0  0  0  0  0  0  0  0  0
   18.1394   70.3676   -8.1534 C   0  0  1  0  0  0  0  0  0  0  0  0
   20.5607   71.0291   -8.0154 C   0  0  2  0  0  0  0  0  0  0  0  0
   18.1021   70.4521   -6.6216 C   0  0  1  0  0  0  0  0  0  0  0  0
   20.4029   71.0870   -6.4949 C   0  0  1  0  0  0  0  0  0  0  0  0
   18.5448   71.1102  -10.5770 H   0  0  0  0  0  0  0  0  0  0  0  0
   16.9284   70.7221   -9.6713 H   0  0  0  0  0  0  0  0  0  0  0  0
   21.6030   71.9480   -9.4139 H   0  0  0  0  0  0  0  0  0  0  0  0
   15.8757   70.0804   -5.8380 O   0  0  0  0  0  0  0  0  0  0  0  0
   17.1276   69.4438   -6.0167 C   0  0  0  0  0  0  0  0  0  0  0  0
   15.2453   69.4504   -5.4540 H   0  0  0  0  0  0  0  0  0  0  0  0
 25 28  1  0
 25 24  1  0
 25 26  1  6
 25 27  2  0
  1  4  1  0
  1 24  1  0
  1  2  1  1
  1  3  2  0
  6 11  1  0
  6 12  1  0
 29 36  1  0
 29 37  1  0
  9  7  1  1
  7 13  1  0
 10  8  1  1
  8 14  1  0
 37 28  1  6
  4  5  1  0
 33 30  1  6
 30 38  1  0
 34 31  1  6
 31 39  1  0
 35 32  1  6
 32 40  1  0
 41 42  1  0
 41 43  1  0
 15 19  2  0
 16 22  2  0
 12 17  1  6
 17 19  1  0
 17 20  1  0
 18 19  1  0
 18 22  1  0
 18 23  1  0
  9 10  1  0
  9 11  1  0
 10 12  1  0
 11  5  1  6
 33 34  1  0
 33 35  1  0
 34 36  1  0
 35 37  1  0
 36 42  1  1
 20 21  2  0
 21 22  1  0
M  CHG  2   2  -1  26  -1
M  END
>  <COMPND>  (395) 
    8629 

>  <AUTHOR>  (395) 
    GENERATED BY OPEN BABEL 3.1.1

>  <MASTER>  (395) 
        0    0    0    0    0    0    0    0   58    0   58    0

>  <minimizedAffinity>  (395) 
-7.73465

>  <CNNscore>  (395) 
0.5960806608

>  <CNNaffinity>  (395) 
4.2525382042

>  <CNN_VS>  (395) 
2.5348558426

>  <CNNaffinity_variance>  (395) 
0.1317018718

$$$$
396
     RDKit          3D

 43 45  0  0  0  0  0  0  0  0999 V2000
   22.6914   71.3888   -3.2127 P   0  0  2  0  0  0  0  0  0  0  0  0
   24.2344   71.0003   -2.9206 O   0  0  0  0  0  0  0  0  0  0  0  0
   21.7001   70.2957   -2.9406 O   0  0  0  0  0  0  0  0  0  0  0  0
   22.7137   71.9558   -4.7279 O   0  0  0  0  0  0  0  0  0  0  0  0
   21.4958   72.3957   -5.3032 C   0  0  0  0  0  0  0  0  0  0  0  0
   20.4687   70.4219   -6.2104 O   0  0  0  0  0  0  0  0  0  0  0  0
   20.6379   71.7857   -8.8754 O   0  0  0  0  0  0  0  0  0  0  0  0
   18.0287   72.1640   -8.1787 O   0  0  0  0  0  0  0  0  0  0  0  0
   20.3804   72.3471   -7.5894 C   0  0  1  0  0  0  0  0  0  0  0  0
   18.9742   72.0090   -7.1401 C   0  0  2  0  0  0  0  0  0  0  0  0
   21.2289   71.5960   -6.5710 C   0  0  1  0  0  0  0  0  0  0  0  0
   19.1240   70.5636   -6.6968 C   0  0  2  0  0  0  0  0  0  0  0  0
   20.1073   72.2496   -9.5427 H   0  0  0  0  0  0  0  0  0  0  0  0
   17.9696   73.1002   -8.4253 H   0  0  0  0  0  0  0  0  0  0  0  0
   16.4480   69.7610   -7.1127 O   0  0  0  0  0  0  0  0  0  0  0  0
   15.7057   69.2522   -2.5926 O   0  0  0  0  0  0  0  0  0  0  0  0
   18.2091   70.2152   -5.6466 N   0  0  0  0  0  0  0  0  0  0  0  0
   16.0806   69.5081   -4.8617 N   0  0  0  0  0  0  0  0  0  0  0  0
   16.8864   69.8264   -5.9624 C   0  0  0  0  0  0  0  0  0  0  0  0
   18.6263   70.2606   -4.3208 C   0  0  0  0  0  0  0  0  0  0  0  0
   17.8451   69.9553   -3.2826 C   0  0  0  0  0  0  0  0  0  0  0  0
   16.4488   69.5392   -3.5260 C   0  0  0  0  0  0  0  0  0  0  0  0
   15.1550   69.2349   -5.0575 H   0  0  0  0  0  0  0  0  0  0  0  0
   22.4792   72.7249   -2.3279 O   0  0  0  0  0  0  0  0  0  0  0  0
   23.4580   73.9811   -2.0509 P   0  0  2  0  0  0  0  0  0  0  0  0
   22.4418   75.2390   -1.9997 O   0  0  0  0  0  0  0  0  0  0  0  0
   24.5717   74.1249   -3.0473 O   0  0  0  0  0  0  0  0  0  0  0  0
   23.9466   73.7895   -0.5246 O   0  0  0  0  0  0  0  0  0  0  0  0
   23.9639   71.9526    0.9728 O   0  0  0  0  0  0  0  0  0  0  0  0
   22.7038   74.9073    3.5676 O   0  0  0  0  0  0  0  0  0  0  0  0
   25.3717   73.8676    3.7906 O   0  0  0  0  0  0  0  0  0  0  0  0
   21.7480   74.8812    0.8354 O   0  0  0  0  0  0  0  0  0  0  0  0
   23.4419   74.3664    2.4685 C   0  0  1  0  0  0  0  0  0  0  0  0
   24.3533   73.2591    3.0014 C   0  0  1  0  0  0  0  0  0  0  0  0
   22.4635   73.8076    1.4370 C   0  0  2  0  0  0  0  0  0  0  0  0
   24.9765   72.4540    1.8531 C   0  0  1  0  0  0  0  0  0  0  0  0
   23.1809   72.9829    0.3668 C   0  0  1  0  0  0  0  0  0  0  0  0
   23.3192   75.2642    4.2260 H   0  0  0  0  0  0  0  0  0  0  0  0
   24.9648   74.3732    4.5117 H   0  0  0  0  0  0  0  0  0  0  0  0
   21.2980   75.3953    1.5231 H   0  0  0  0  0  0  0  0  0  0  0  0
   27.0292   71.6937    2.8108 O   0  0  0  0  0  0  0  0  0  0  0  0
   25.7630   71.2477    2.3614 C   0  0  0  0  0  0  0  0  0  0  0  0
   27.5408   70.9365    3.1375 H   0  0  0  0  0  0  0  0  0  0  0  0
 25 28  1  0
 25 24  1  0
 25 26  1  1
 25 27  2  0
  1  4  1  0
  1 24  1  0
  1  2  1  1
  1  3  2  0
  6 11  1  0
  6 12  1  0
 29 36  1  0
 29 37  1  0
  9  7  1  6
  7 13  1  0
 10  8  1  6
  8 14  1  0
 37 28  1  1
  4  5  1  0
 33 30  1  1
 30 38  1  0
 34 31  1  6
 31 39  1  0
 35 32  1  6
 32 40  1  0
 41 42  1  0
 41 43  1  0
 15 19  2  0
 16 22  2  0
 12 17  1  1
 17 19  1  0
 17 20  1  0
 18 19  1  0
 18 22  1  0
 18 23  1  0
  9 10  1  0
  9 11  1  0
 10 12  1  0
 11  5  1  1
 33 34  1  0
 33 35  1  0
 34 36  1  0
 35 37  1  0
 36 42  1  1
 20 21  2  0
 21 22  1  0
M  CHG  2   2  -1  26  -1
M  END
>  <COMPND>  (396) 
    8629 

>  <AUTHOR>  (396) 
    GENERATED BY OPEN BABEL 3.1.1

>  <MASTER>  (396) 
        0    0    0    0    0    0    0    0   58    0   58    0

>  <minimizedAffinity>  (396) 
-6.76695

>  <CNNscore>  (396) 
0.5945270658

>  <CNNaffinity>  (396) 
4.2087445259

>  <CNN_VS>  (396) 
2.5022125244

>  <CNNaffinity_variance>  (396) 
0.0983254090

$$$$
397
     RDKit          3D

 43 45  0  0  0  0  0  0  0  0999 V2000
   22.2768   72.8983   -6.6847 P   0  0  2  0  0  0  0  0  0  0  0  0
   23.0335   73.8823   -7.7222 O   0  0  0  0  0  0  0  0  0  0  0  0
   23.1713   72.2135   -5.6935 O   0  0  0  0  0  0  0  0  0  0  0  0
   21.4079   71.9221   -7.6386 O   0  0  0  0  0  0  0  0  0  0  0  0
   19.9973   72.0570   -7.6386 C   0  0  0  0  0  0  0  0  0  0  0  0
   18.8589   69.9905   -7.1832 O   0  0  0  0  0  0  0  0  0  0  0  0
   18.0513   70.0159  -10.0708 O   0  0  0  0  0  0  0  0  0  0  0  0
   15.7989   70.9037   -8.8158 O   0  0  0  0  0  0  0  0  0  0  0  0
   18.1963   71.1084   -9.1649 C   0  0  1  0  0  0  0  0  0  0  0  0
   17.0419   71.1357   -8.1850 C   0  0  2  0  0  0  0  0  0  0  0  0
   19.3799   70.8085   -8.2536 C   0  0  1  0  0  0  0  0  0  0  0  0
   17.4228   70.0274   -7.2183 C   0  0  2  0  0  0  0  0  0  0  0  0
   17.3015   70.1848  -10.6634 H   0  0  0  0  0  0  0  0  0  0  0  0
   15.6013   71.6359   -9.4204 H   0  0  0  0  0  0  0  0  0  0  0  0
   16.3207   68.0364   -5.5453 O   0  0  0  0  0  0  0  0  0  0  0  0
   15.5624   71.0543   -2.1455 O   0  0  0  0  0  0  0  0  0  0  0  0
   16.9299   70.2649   -5.8909 N   0  0  0  0  0  0  0  0  0  0  0  0
   15.9442   69.5406   -3.8537 N   0  0  0  0  0  0  0  0  0  0  0  0
   16.3951   69.1962   -5.1344 C   0  0  0  0  0  0  0  0  0  0  0  0
   16.9800   71.5459   -5.3521 C   0  0  0  0  0  0  0  0  0  0  0  0
   16.5446   71.8580   -4.1296 C   0  0  0  0  0  0  0  0  0  0  0  0
   15.9713   70.7991   -3.2740 C   0  0  0  0  0  0  0  0  0  0  0  0
   15.5671   68.8123   -3.3086 H   0  0  0  0  0  0  0  0  0  0  0  0
   21.1539   73.8574   -6.0272 O   0  0  0  0  0  0  0  0  0  0  0  0
   21.2012   74.8043   -4.7179 P   0  0  2  0  0  0  0  0  0  0  0  0
   19.7158   75.4437   -4.6687 O   0  0  0  0  0  0  0  0  0  0  0  0
   22.3107   75.8156   -4.7296 O   0  0  0  0  0  0  0  0  0  0  0  0
   21.2447   73.7781   -3.4729 O   0  0  0  0  0  0  0  0  0  0  0  0
   21.1513   74.2030   -1.1433 O   0  0  0  0  0  0  0  0  0  0  0  0
   23.8008   71.0358   -1.1307 O   0  0  0  0  0  0  0  0  0  0  0  0
   21.1180   70.6439   -0.1837 O   0  0  0  0  0  0  0  0  0  0  0  0
   23.9367   73.0237   -3.2305 O   0  0  0  0  0  0  0  0  0  0  0  0
   22.6767   71.7923   -1.5882 C   0  0  1  0  0  0  0  0  0  0  0  0
   21.6860   71.9272   -0.4301 C   0  0  1  0  0  0  0  0  0  0  0  0
   23.1550   73.1677   -2.0496 C   0  0  2  0  0  0  0  0  0  0  0  0
   20.5852   72.9448   -0.7585 C   0  0  1  0  0  0  0  0  0  0  0  0
   21.9830   74.1179   -2.3022 C   0  0  1  0  0  0  0  0  0  0  0  0
   23.5041   70.1612   -0.8367 H   0  0  0  0  0  0  0  0  0  0  0  0
   21.8237   70.0107    0.0219 H   0  0  0  0  0  0  0  0  0  0  0  0
   24.6755   72.4203   -3.0575 H   0  0  0  0  0  0  0  0  0  0  0  0
   20.3480   72.7923    1.6142 O   0  0  0  0  0  0  0  0  0  0  0  0
   19.6774   73.2120    0.4401 C   0  0  0  0  0  0  0  0  0  0  0  0
   19.7822   72.9566    2.3853 H   0  0  0  0  0  0  0  0  0  0  0  0
 25 28  1  0
 25 24  1  0
 25 26  1  1
 25 27  2  0
  1  4  1  0
  1 24  1  0
  1  2  1  6
  1  3  2  0
  6 11  1  0
  6 12  1  0
 29 36  1  0
 29 37  1  0
  9  7  1  6
  7 13  1  0
 10  8  1  6
  8 14  1  0
 37 28  1  6
  4  5  1  0
 33 30  1  1
 30 38  1  0
 34 31  1  6
 31 39  1  0
 35 32  1  6
 32 40  1  0
 41 42  1  0
 41 43  1  0
 15 19  2  0
 16 22  2  0
 12 17  1  1
 17 19  1  0
 17 20  1  0
 18 19  1  0
 18 22  1  0
 18 23  1  0
  9 10  1  0
  9 11  1  0
 10 12  1  0
 11  5  1  1
 33 34  1  0
 33 35  1  0
 34 36  1  0
 35 37  1  0
 36 42  1  1
 20 21  2  0
 21 22  1  0
M  CHG  2   2  -1  26  -1
M  END
>  <COMPND>  (397) 
    8629 

>  <AUTHOR>  (397) 
    GENERATED BY OPEN BABEL 3.1.1

>  <MASTER>  (397) 
        0    0    0    0    0    0    0    0   58    0   58    0

>  <minimizedAffinity>  (397) 
-7.04241

>  <CNNscore>  (397) 
0.5197220445

>  <CNNaffinity>  (397) 
4.3854513168

>  <CNN_VS>  (397) 
2.2792158127

>  <CNNaffinity_variance>  (397) 
0.3359584212

$$$$
398
     RDKit          3D

 43 45  0  0  0  0  0  0  0  0999 V2000
   23.4685   72.3076   -3.4552 P   0  0  2  0  0  0  0  0  0  0  0  0
   24.0845   70.8376   -3.1776 O   0  0  0  0  0  0  0  0  0  0  0  0
   24.4570   73.3283   -3.9372 O   0  0  0  0  0  0  0  0  0  0  0  0
   22.6966   72.6712   -2.0805 O   0  0  0  0  0  0  0  0  0  0  0  0
   23.4518   72.7636   -0.8852 C   0  0  0  0  0  0  0  0  0  0  0  0
   24.4887   71.2549    0.6712 O   0  0  0  0  0  0  0  0  0  0  0  0
   21.7304   70.2079    1.2061 O   0  0  0  0  0  0  0  0  0  0  0  0
   22.1679   71.8479    3.3405 O   0  0  0  0  0  0  0  0  0  0  0  0
   22.1506   71.5427    0.9285 C   0  0  1  0  0  0  0  0  0  0  0  0
   22.8467   72.1366    2.1352 C   0  0  2  0  0  0  0  0  0  0  0  0
   23.2815   71.4762   -0.0904 C   0  0  1  0  0  0  0  0  0  0  0  0
   24.2154   71.4810    2.0637 C   0  0  2  0  0  0  0  0  0  0  0  0
   21.0082   70.2247    1.8543 H   0  0  0  0  0  0  0  0  0  0  0  0
   21.3031   72.2872    3.3378 H   0  0  0  0  0  0  0  0  0  0  0  0
   26.9021   70.6746    2.3946 O   0  0  0  0  0  0  0  0  0  0  0  0
   28.0969   74.7505    4.1836 O   0  0  0  0  0  0  0  0  0  0  0  0
   25.2498   72.3115    2.6131 N   0  0  0  0  0  0  0  0  0  0  0  0
   27.4949   72.7048    3.2849 N   0  0  0  0  0  0  0  0  0  0  0  0
   26.5666   71.8103    2.7372 C   0  0  0  0  0  0  0  0  0  0  0  0
   24.9542   73.6074    3.0217 C   0  0  0  0  0  0  0  0  0  0  0  0
   25.8506   74.4474    3.5433 C   0  0  0  0  0  0  0  0  0  0  0  0
   27.2494   74.0018    3.7072 C   0  0  0  0  0  0  0  0  0  0  0  0
   28.4186   72.3774    3.3813 H   0  0  0  0  0  0  0  0  0  0  0  0
   22.2577   72.0060   -4.4829 O   0  0  0  0  0  0  0  0  0  0  0  0
   21.7295   72.8271   -5.7712 P   0  0  2  0  0  0  0  0  0  0  0  0
   22.6756   72.2886   -6.9680 O   0  0  0  0  0  0  0  0  0  0  0  0
   21.7395   74.3182   -5.5971 O   0  0  0  0  0  0  0  0  0  0  0  0
   20.2760   72.2004   -6.0872 O   0  0  0  0  0  0  0  0  0  0  0  0
   19.4009   70.0530   -5.5981 O   0  0  0  0  0  0  0  0  0  0  0  0
   17.6096   70.6756   -9.2661 O   0  0  0  0  0  0  0  0  0  0  0  0
   16.0243   70.8001   -6.8745 O   0  0  0  0  0  0  0  0  0  0  0  0
   20.3295   71.5596   -8.8188 O   0  0  0  0  0  0  0  0  0  0  0  0
   18.1262   71.0542   -7.9873 C   0  0  1  0  0  0  0  0  0  0  0  0
   17.3535   70.2879   -6.9119 C   0  0  1  0  0  0  0  0  0  0  0  0
   19.6135   70.7107   -7.9283 C   0  0  2  0  0  0  0  0  0  0  0  0
   18.0218   70.4355   -5.5384 C   0  0  1  0  0  0  0  0  0  0  0  0
   20.1678   70.8432   -6.5087 C   0  0  1  0  0  0  0  0  0  0  0  0
   16.6657   70.8915   -9.3103 H   0  0  0  0  0  0  0  0  0  0  0  0
   15.6138   70.7014   -7.7479 H   0  0  0  0  0  0  0  0  0  0  0  0
   19.9693   71.4663   -9.7140 H   0  0  0  0  0  0  0  0  0  0  0  0
   16.0367   70.0141   -4.2772 O   0  0  0  0  0  0  0  0  0  0  0  0
   17.3595   69.5533   -4.4823 C   0  0  0  0  0  0  0  0  0  0  0  0
   15.6027   69.4617   -3.6077 H   0  0  0  0  0  0  0  0  0  0  0  0
 25 28  1  0
 25 24  1  0
 25 26  1  6
 25 27  2  0
  1  4  1  0
  1 24  1  0
  1  2  1  1
  1  3  2  0
  6 11  1  0
  6 12  1  0
 29 36  1  0
 29 37  1  0
  9  7  1  1
  7 13  1  0
 10  8  1  1
  8 14  1  0
 37 28  1  1
  4  5  1  0
 33 30  1  6
 30 38  1  0
 34 31  1  1
 31 39  1  0
 35 32  1  6
 32 40  1  0
 41 42  1  0
 41 43  1  0
 15 19  2  0
 16 22  2  0
 12 17  1  6
 17 19  1  0
 17 20  1  0
 18 19  1  0
 18 22  1  0
 18 23  1  0
  9 10  1  0
  9 11  1  0
 10 12  1  0
 11  5  1  1
 33 34  1  0
 33 35  1  0
 34 36  1  0
 35 37  1  0
 36 42  1  1
 20 21  2  0
 21 22  1  0
M  CHG  2   2  -1  26  -1
M  END
>  <COMPND>  (398) 
    8629 

>  <AUTHOR>  (398) 
    GENERATED BY OPEN BABEL 3.1.1

>  <MASTER>  (398) 
        0    0    0    0    0    0    0    0   58    0   58    0

>  <minimizedAffinity>  (398) 
-8.10925

>  <CNNscore>  (398) 
0.5096555352

>  <CNNaffinity>  (398) 
4.2614340782

>  <CNN_VS>  (398) 
2.1718635559

>  <CNNaffinity_variance>  (398) 
0.1785060912

$$$$
399
     RDKit          3D

 43 45  0  0  0  0  0  0  0  0999 V2000
   23.3517   73.6413   -3.6721 P   0  0  2  0  0  0  0  0  0  0  0  0
   23.2503   75.2541   -3.7480 O   0  0  0  0  0  0  0  0  0  0  0  0
   24.6764   73.0694   -4.0837 O   0  0  0  0  0  0  0  0  0  0  0  0
   22.0720   73.1313   -4.5207 O   0  0  0  0  0  0  0  0  0  0  0  0
   21.9088   71.7389   -4.7270 C   0  0  0  0  0  0  0  0  0  0  0  0
   20.4643   70.4578   -6.1573 O   0  0  0  0  0  0  0  0  0  0  0  0
   20.9214   72.5899   -8.2155 O   0  0  0  0  0  0  0  0  0  0  0  0
   18.4648   73.2374   -7.2242 O   0  0  0  0  0  0  0  0  0  0  0  0
   20.8007   72.7139   -6.7993 C   0  0  1  0  0  0  0  0  0  0  0  0
   19.3565   72.5412   -6.3775 C   0  0  2  0  0  0  0  0  0  0  0  0
   21.4652   71.4992   -6.1636 C   0  0  1  0  0  0  0  0  0  0  0  0
   19.1828   71.0341   -6.4580 C   0  0  2  0  0  0  0  0  0  0  0  0
   20.5044   73.3547   -8.6435 H   0  0  0  0  0  0  0  0  0  0  0  0
   18.6145   74.1917   -7.1371 H   0  0  0  0  0  0  0  0  0  0  0  0
   16.7428   69.8010   -7.1678 O   0  0  0  0  0  0  0  0  0  0  0  0
   15.5573   69.1897   -2.7562 O   0  0  0  0  0  0  0  0  0  0  0  0
   18.2178   70.5429   -5.5152 N   0  0  0  0  0  0  0  0  0  0  0  0
   16.1546   69.4975   -4.9705 N   0  0  0  0  0  0  0  0  0  0  0  0
   17.0237   69.9408   -5.9756 C   0  0  0  0  0  0  0  0  0  0  0  0
   18.4601   70.6601   -4.1508 C   0  0  0  0  0  0  0  0  0  0  0  0
   17.6206   70.2333   -3.2052 C   0  0  0  0  0  0  0  0  0  0  0  0
   16.3501   69.5925   -3.6018 C   0  0  0  0  0  0  0  0  0  0  0  0
   15.3161   69.0751   -5.2677 H   0  0  0  0  0  0  0  0  0  0  0  0
   22.9261   73.3218   -2.1457 O   0  0  0  0  0  0  0  0  0  0  0  0
   21.5392   73.5755   -1.3551 P   0  0  2  0  0  0  0  0  0  0  0  0
   20.6150   72.3309   -1.8183 O   0  0  0  0  0  0  0  0  0  0  0  0
   20.9289   74.9250   -1.6006 O   0  0  0  0  0  0  0  0  0  0  0  0
   21.8885   73.2706    0.1908 O   0  0  0  0  0  0  0  0  0  0  0  0
   23.2069   74.4394    1.7759 O   0  0  0  0  0  0  0  0  0  0  0  0
   24.2528   70.5709    2.7719 O   0  0  0  0  0  0  0  0  0  0  0  0
   22.5472   72.0750    4.5261 O   0  0  0  0  0  0  0  0  0  0  0  0
   23.8709   71.2940   -0.0049 O   0  0  0  0  0  0  0  0  0  0  0  0
   23.3759   71.6110    2.3309 C   0  0  1  0  0  0  0  0  0  0  0  0
   23.2715   72.6548    3.4447 C   0  0  1  0  0  0  0  0  0  0  0  0
   23.9444   72.2372    1.0588 C   0  0  2  0  0  0  0  0  0  0  0  0
   22.5666   73.9248    2.9494 C   0  0  1  0  0  0  0  0  0  0  0  0
   23.2031   73.5210    0.6812 C   0  0  1  0  0  0  0  0  0  0  0  0
   23.8973   70.1688    3.5791 H   0  0  0  0  0  0  0  0  0  0  0  0
   23.0026   71.2737    4.8291 H   0  0  0  0  0  0  0  0  0  0  0  0
   24.3441   70.4860    0.2463 H   0  0  0  0  0  0  0  0  0  0  0  0
   23.5680   74.7173    4.9689 O   0  0  0  0  0  0  0  0  0  0  0  0
   22.5914   75.0374    3.9952 C   0  0  0  0  0  0  0  0  0  0  0  0
   23.5951   75.4168    5.6409 H   0  0  0  0  0  0  0  0  0  0  0  0
 25 28  1  0
 25 24  1  0
 25 26  1  6
 25 27  2  0
  1  4  1  0
  1 24  1  0
  1  2  1  1
  1  3  2  0
  6 11  1  0
  6 12  1  0
 29 36  1  0
 29 37  1  0
  9  7  1  6
  7 13  1  0
 10  8  1  6
  8 14  1  0
 37 28  1  1
  4  5  1  0
 33 30  1  1
 30 38  1  0
 34 31  1  1
 31 39  1  0
 35 32  1  6
 32 40  1  0
 41 42  1  0
 41 43  1  0
 15 19  2  0
 16 22  2  0
 12 17  1  1
 17 19  1  0
 17 20  1  0
 18 19  1  0
 18 22  1  0
 18 23  1  0
  9 10  1  0
  9 11  1  0
 10 12  1  0
 11  5  1  1
 33 34  1  0
 33 35  1  0
 34 36  1  0
 35 37  1  0
 36 42  1  1
 20 21  2  0
 21 22  1  0
M  CHG  2   2  -1  26  -1
M  END
>  <COMPND>  (399) 
    8629 

>  <AUTHOR>  (399) 
    GENERATED BY OPEN BABEL 3.1.1

>  <MASTER>  (399) 
        0    0    0    0    0    0    0    0   58    0   58    0

>  <minimizedAffinity>  (399) 
-6.63132

>  <CNNscore>  (399) 
0.5059812069

>  <CNNaffinity>  (399) 
4.1208701134

>  <CNN_VS>  (399) 
2.0850827694

>  <CNNaffinity_variance>  (399) 
0.0610622764

$$$$
400
     RDKit          3D

 43 45  0  0  0  0  0  0  0  0999 V2000
   20.2486   71.9384   -2.7098 P   0  0  2  0  0  0  0  0  0  0  0  0
   19.1982   70.7129   -2.5991 O   0  0  0  0  0  0  0  0  0  0  0  0
   20.1460   72.9617   -1.6171 O   0  0  0  0  0  0  0  0  0  0  0  0
   20.0398   72.4943   -4.2149 O   0  0  0  0  0  0  0  0  0  0  0  0
   19.9732   73.8955   -4.4149 C   0  0  0  0  0  0  0  0  0  0  0  0
   19.5137   72.9196   -6.5621 O   0  0  0  0  0  0  0  0  0  0  0  0
   18.7773   75.6863   -7.4533 O   0  0  0  0  0  0  0  0  0  0  0  0
   16.3441   74.5355   -7.0155 O   0  0  0  0  0  0  0  0  0  0  0  0
   18.5692   75.0606   -6.1882 C   0  0  1  0  0  0  0  0  0  0  0  0
   17.4480   74.0468   -6.2811 C   0  0  2  0  0  0  0  0  0  0  0  0
   19.7750   74.1756   -5.8983 C   0  0  1  0  0  0  0  0  0  0  0  0
   18.1355   72.8786   -6.9670 C   0  0  2  0  0  0  0  0  0  0  0  0
   18.0201   76.2571   -7.6600 H   0  0  0  0  0  0  0  0  0  0  0  0
   15.9409   75.2774   -6.5382 H   0  0  0  0  0  0  0  0  0  0  0  0
   17.9786   70.6269   -8.6651 O   0  0  0  0  0  0  0  0  0  0  0  0
   15.9637   68.0752   -5.3985 O   0  0  0  0  0  0  0  0  0  0  0  0
   17.5751   71.6128   -6.5860 N   0  0  0  0  0  0  0  0  0  0  0  0
   16.9756   69.3581   -7.0371 N   0  0  0  0  0  0  0  0  0  0  0  0
   17.5435   70.5463   -7.5145 C   0  0  0  0  0  0  0  0  0  0  0  0
   17.0648   71.4385   -5.3042 C   0  0  0  0  0  0  0  0  0  0  0  0
   16.5254   70.2995   -4.8650 C   0  0  0  0  0  0  0  0  0  0  0  0
   16.4539   69.1362   -5.7725 C   0  0  0  0  0  0  0  0  0  0  0  0
   16.9425   68.6015   -7.6666 H   0  0  0  0  0  0  0  0  0  0  0  0
   21.6769   71.1863   -2.7951 O   0  0  0  0  0  0  0  0  0  0  0  0
   23.1703   71.7022   -2.4539 P   0  0  2  0  0  0  0  0  0  0  0  0
   23.2288   73.1592   -3.1549 O   0  0  0  0  0  0  0  0  0  0  0  0
   24.2593   70.7632   -2.8855 O   0  0  0  0  0  0  0  0  0  0  0  0
   23.1435   72.0126   -0.8703 O   0  0  0  0  0  0  0  0  0  0  0  0
   24.4290   70.9833    0.8340 O   0  0  0  0  0  0  0  0  0  0  0  0
   20.9799   71.7395    2.9747 O   0  0  0  0  0  0  0  0  0  0  0  0
   23.3359   73.3008    3.4842 O   0  0  0  0  0  0  0  0  0  0  0  0
   20.8082   70.8940    0.2115 O   0  0  0  0  0  0  0  0  0  0  0  0
   21.9892   72.0002    1.9956 C   0  0  1  0  0  0  0  0  0  0  0  0
   23.3371   72.1032    2.7121 C   0  0  1  0  0  0  0  0  0  0  0  0
   22.0060   70.8593    0.9800 C   0  0  2  0  0  0  0  0  0  0  0  0
   24.4983   72.1155    1.7088 C   0  0  1  0  0  0  0  0  0  0  0  0
   23.2273   70.9380    0.0622 C   0  0  1  0  0  0  0  0  0  0  0  0
   20.9637   72.4605    3.6224 H   0  0  0  0  0  0  0  0  0  0  0  0
   22.5977   73.2806    4.1133 H   0  0  0  0  0  0  0  0  0  0  0  0
   20.0425   70.8432    0.8040 H   0  0  0  0  0  0  0  0  0  0  0  0
   26.4326   70.7885    2.1632 O   0  0  0  0  0  0  0  0  0  0  0  0
   25.8563   72.0588    2.4050 C   0  0  0  0  0  0  0  0  0  0  0  0
   27.2976   70.7381    2.6001 H   0  0  0  0  0  0  0  0  0  0  0  0
 25 28  1  0
 25 24  1  0
 25 26  1  6
 25 27  2  0
  1  4  1  0
  1 24  1  0
  1  2  1  1
  1  3  2  0
  6 11  1  0
  6 12  1  0
 29 36  1  0
 29 37  1  0
  9  7  1  6
  7 13  1  0
 10  8  1  6
  8 14  1  0
 37 28  1  1
  4  5  1  0
 33 30  1  1
 30 38  1  0
 34 31  1  6
 31 39  1  0
 35 32  1  6
 32 40  1  0
 41 42  1  0
 41 43  1  0
 15 19  2  0
 16 22  2  0
 12 17  1  1
 17 19  1  0
 17 20  1  0
 18 19  1  0
 18 22  1  0
 18 23  1  0
  9 10  1  0
  9 11  1  0
 10 12  1  0
 11  5  1  1
 33 34  1  0
 33 35  1  0
 34 36  1  0
 35 37  1  0
 36 42  1  1
 20 21  2  0
 21 22  1  0
M  CHG  2   2  -1  26  -1
M  END
>  <COMPND>  (400) 
    8629 

>  <AUTHOR>  (400) 
    GENERATED BY OPEN BABEL 3.1.1

>  <MASTER>  (400) 
        0    0    0    0    0    0    0    0   58    0   58    0

>  <minimizedAffinity>  (400) 
-6.84217

>  <CNNscore>  (400) 
0.4998393953

>  <CNNaffinity>  (400) 
4.0638351440

>  <CNN_VS>  (400) 
2.0312647820

>  <CNNaffinity_variance>  (400) 
0.1812693775

$$$$
401
     RDKit          3D

 43 45  0  0  0  0  0  0  0  0999 V2000
   22.7032   71.4293   -2.8142 P   0  0  2  0  0  0  0  0  0  0  0  0
   22.5598   73.0166   -2.5363 O   0  0  0  0  0  0  0  0  0  0  0  0
   24.0873   70.9703   -3.1678 O   0  0  0  0  0  0  0  0  0  0  0  0
   21.5584   71.1229   -3.9159 O   0  0  0  0  0  0  0  0  0  0  0  0
   20.6390   70.0751   -3.6620 C   0  0  0  0  0  0  0  0  0  0  0  0
   18.8798   71.4025   -4.6195 O   0  0  0  0  0  0  0  0  0  0  0  0
   17.1017   70.2317   -2.5079 O   0  0  0  0  0  0  0  0  0  0  0  0
   16.4535   68.7630   -4.7123 O   0  0  0  0  0  0  0  0  0  0  0  0
   18.1740   69.6217   -3.2244 C   0  0  1  0  0  0  0  0  0  0  0  0
   17.7509   69.3189   -4.6467 C   0  0  2  0  0  0  0  0  0  0  0  0
   19.2576   70.6725   -3.4318 C   0  0  1  0  0  0  0  0  0  0  0  0
   17.8337   70.6887   -5.2985 C   0  0  2  0  0  0  0  0  0  0  0  0
   16.3975   69.5797   -2.3632 H   0  0  0  0  0  0  0  0  0  0  0  0
   16.4525   67.8924   -4.2846 H   0  0  0  0  0  0  0  0  0  0  0  0
   15.9298   70.3208   -7.3522 O   0  0  0  0  0  0  0  0  0  0  0  0
   19.1732   70.4075  -10.6254 O   0  0  0  0  0  0  0  0  0  0  0  0
   18.1529   70.6119   -6.6962 N   0  0  0  0  0  0  0  0  0  0  0  0
   17.5463   70.3644   -8.9803 N   0  0  0  0  0  0  0  0  0  0  0  0
   17.1223   70.4245   -7.6466 C   0  0  0  0  0  0  0  0  0  0  0  0
   19.4752   70.7223   -7.1121 C   0  0  0  0  0  0  0  0  0  0  0  0
   19.8631   70.6616   -8.3877 C   0  0  0  0  0  0  0  0  0  0  0  0
   18.8484   70.4675   -9.4435 C   0  0  0  0  0  0  0  0  0  0  0  0
   16.8457   70.2340   -9.6600 H   0  0  0  0  0  0  0  0  0  0  0  0
   22.0985   70.7686   -1.4686 O   0  0  0  0  0  0  0  0  0  0  0  0
   21.5126   71.4472   -0.1235 P   0  0  2  0  0  0  0  0  0  0  0  0
   21.4020   70.2013    0.9027 O   0  0  0  0  0  0  0  0  0  0  0  0
   20.2297   72.2010   -0.3230 O   0  0  0  0  0  0  0  0  0  0  0  0
   22.7305   72.3390    0.4479 O   0  0  0  0  0  0  0  0  0  0  0  0
   22.0254   73.8219    2.1570 O   0  0  0  0  0  0  0  0  0  0  0  0
   25.8335   75.2930    1.5366 O   0  0  0  0  0  0  0  0  0  0  0  0
   25.2588   73.8088    3.9272 O   0  0  0  0  0  0  0  0  0  0  0  0
   24.2486   74.3940   -0.7128 O   0  0  0  0  0  0  0  0  0  0  0  0
   24.8252   74.2825    1.6232 C   0  0  1  0  0  0  0  0  0  0  0  0
   24.2537   74.2956    3.0423 C   0  0  1  0  0  0  0  0  0  0  0  0
   23.7307   74.5805    0.6000 C   0  0  2  0  0  0  0  0  0  0  0  0
   22.9911   73.4287    3.1391 C   0  0  1  0  0  0  0  0  0  0  0  0
   22.5007   73.6968    0.8152 C   0  0  1  0  0  0  0  0  0  0  0  0
   26.5317   75.1095    2.1833 H   0  0  0  0  0  0  0  0  0  0  0  0
   26.0508   74.3646    3.8559 H   0  0  0  0  0  0  0  0  0  0  0  0
   25.0267   74.9590   -0.8366 H   0  0  0  0  0  0  0  0  0  0  0  0
   22.3993   72.3014    5.1610 O   0  0  0  0  0  0  0  0  0  0  0  0
   22.3157   73.5522    4.5032 C   0  0  0  0  0  0  0  0  0  0  0  0
   21.9737   72.3651    6.0308 H   0  0  0  0  0  0  0  0  0  0  0  0
 25 28  1  0
 25 24  1  0
 25 26  1  1
 25 27  2  0
  1  4  1  0
  1 24  1  0
  1  2  1  1
  1  3  2  0
  6 11  1  0
  6 12  1  0
 29 36  1  0
 29 37  1  0
  9  7  1  1
  7 13  1  0
 10  8  1  1
  8 14  1  0
 37 28  1  1
  4  5  1  0
 33 30  1  1
 30 38  1  0
 34 31  1  1
 31 39  1  0
 35 32  1  6
 32 40  1  0
 41 42  1  0
 41 43  1  0
 15 19  2  0
 16 22  2  0
 12 17  1  6
 17 19  1  0
 17 20  1  0
 18 19  1  0
 18 22  1  0
 18 23  1  0
  9 10  1  0
  9 11  1  0
 10 12  1  0
 11  5  1  6
 33 34  1  0
 33 35  1  0
 34 36  1  0
 35 37  1  0
 36 42  1  1
 20 21  2  0
 21 22  1  0
M  CHG  2   2  -1  26  -1
M  END
>  <COMPND>  (401) 
    8629 

>  <AUTHOR>  (401) 
    GENERATED BY OPEN BABEL 3.1.1

>  <MASTER>  (401) 
        0    0    0    0    0    0    0    0   58    0   58    0

>  <minimizedAffinity>  (401) 
-7.83393

>  <CNNscore>  (401) 
0.9269714355

>  <CNNaffinity>  (401) 
4.7610583305

>  <CNN_VS>  (401) 
4.4133648872

>  <CNNaffinity_variance>  (401) 
0.0417521521

$$$$
402
     RDKit          3D

 43 45  0  0  0  0  0  0  0  0999 V2000
   20.5448   71.2468   -1.4850 P   0  0  2  0  0  0  0  0  0  0  0  0
   21.1635   70.5262   -0.1752 O   0  0  0  0  0  0  0  0  0  0  0  0
   20.0227   72.6349   -1.2574 O   0  0  0  0  0  0  0  0  0  0  0  0
   19.4705   70.1753   -2.0467 O   0  0  0  0  0  0  0  0  0  0  0  0
   19.1378   70.2098   -3.4237 C   0  0  0  0  0  0  0  0  0  0  0  0
   17.5200   71.3275   -4.8047 O   0  0  0  0  0  0  0  0  0  0  0  0
   15.4390   69.8032   -3.2762 O   0  0  0  0  0  0  0  0  0  0  0  0
   15.6328   68.3821   -5.5956 O   0  0  0  0  0  0  0  0  0  0  0  0
   16.7430   69.3906   -3.6820 C   0  0  1  0  0  0  0  0  0  0  0  0
   16.7664   69.1105   -5.1702 C   0  0  2  0  0  0  0  0  0  0  0  0
   17.6717   70.5933   -3.5701 C   0  0  1  0  0  0  0  0  0  0  0  0
   16.8135   70.5123   -5.7540 C   0  0  2  0  0  0  0  0  0  0  0  0
   14.8281   69.0516   -3.3389 H   0  0  0  0  0  0  0  0  0  0  0  0
   15.6484   67.4977   -5.1975 H   0  0  0  0  0  0  0  0  0  0  0  0
   15.5354   70.5815   -8.2718 O   0  0  0  0  0  0  0  0  0  0  0  0
   19.5594   70.6871  -10.5162 O   0  0  0  0  0  0  0  0  0  0  0  0
   17.5028   70.5586   -7.0126 N   0  0  0  0  0  0  0  0  0  0  0  0
   17.5400   70.6342   -9.3873 N   0  0  0  0  0  0  0  0  0  0  0  0
   16.7670   70.5897   -8.2201 C   0  0  0  0  0  0  0  0  0  0  0  0
   18.8931   70.5731   -7.0411 C   0  0  0  0  0  0  0  0  0  0  0  0
   19.6154   70.6143   -8.1627 C   0  0  0  0  0  0  0  0  0  0  0  0
   18.9235   70.6489   -9.4674 C   0  0  0  0  0  0  0  0  0  0  0  0
   17.0489   70.6561  -10.2406 H   0  0  0  0  0  0  0  0  0  0  0  0
   21.7504   71.1488   -2.5573 O   0  0  0  0  0  0  0  0  0  0  0  0
   23.1192   71.9974   -2.6961 P   0  0  2  0  0  0  0  0  0  0  0  0
   24.2142   70.8734   -3.0900 O   0  0  0  0  0  0  0  0  0  0  0  0
   23.4695   72.8036   -1.4791 O   0  0  0  0  0  0  0  0  0  0  0  0
   22.9258   72.8673   -4.0418 O   0  0  0  0  0  0  0  0  0  0  0  0
   20.6744   73.5451   -4.3390 O   0  0  0  0  0  0  0  0  0  0  0  0
   22.1841   74.6370   -8.0240 O   0  0  0  0  0  0  0  0  0  0  0  0
   21.5249   76.6680   -6.1034 O   0  0  0  0  0  0  0  0  0  0  0  0
   23.0849   72.1930   -6.7612 O   0  0  0  0  0  0  0  0  0  0  0  0
   22.2208   74.4361   -6.6085 C   0  0  1  0  0  0  0  0  0  0  0  0
   21.1333   75.3042   -5.9725 C   0  0  1  0  0  0  0  0  0  0  0  0
   21.9741   72.9589   -6.3075 C   0  0  2  0  0  0  0  0  0  0  0  0
   20.9323   74.9455   -4.4940 C   0  0  1  0  0  0  0  0  0  0  0  0
   21.7381   72.7183   -4.8153 C   0  0  1  0  0  0  0  0  0  0  0  0
   22.3406   75.5729   -8.2219 H   0  0  0  0  0  0  0  0  0  0  0  0
   21.6490   76.8814   -7.0416 H   0  0  0  0  0  0  0  0  0  0  0  0
   23.2237   72.3538   -7.7071 H   0  0  0  0  0  0  0  0  0  0  0  0
   19.5417   76.8851   -4.6088 O   0  0  0  0  0  0  0  0  0  0  0  0
   19.7466   75.6879   -3.8815 C   0  0  0  0  0  0  0  0  0  0  0  0
   18.7898   77.3680   -4.2303 H   0  0  0  0  0  0  0  0  0  0  0  0
 25 28  1  0
 25 24  1  0
 25 26  1  6
 25 27  2  0
  1  4  1  0
  1 24  1  0
  1  2  1  1
  1  3  2  0
  6 11  1  0
  6 12  1  0
 29 36  1  0
 29 37  1  0
  9  7  1  6
  7 13  1  0
 10  8  1  6
  8 14  1  0
 37 28  1  1
  4  5  1  0
 33 30  1  6
 30 38  1  0
 34 31  1  1
 31 39  1  0
 35 32  1  1
 32 40  1  0
 41 42  1  0
 41 43  1  0
 15 19  2  0
 16 22  2  0
 12 17  1  6
 17 19  1  0
 17 20  1  0
 18 19  1  0
 18 22  1  0
 18 23  1  0
  9 10  1  0
  9 11  1  0
 10 12  1  0
 11  5  1  6
 33 34  1  0
 33 35  1  0
 34 36  1  0
 35 37  1  0
 36 42  1  6
 20 21  2  0
 21 22  1  0
M  CHG  2   2  -1  26  -1
M  END
>  <COMPND>  (402) 
    8629 

>  <AUTHOR>  (402) 
    GENERATED BY OPEN BABEL 3.1.1

>  <MASTER>  (402) 
        0    0    0    0    0    0    0    0   58    0   58    0

>  <minimizedAffinity>  (402) 
-7.98054

>  <CNNscore>  (402) 
0.9238058925

>  <CNNaffinity>  (402) 
4.6659307480

>  <CNN_VS>  (402) 
4.3104143143

>  <CNNaffinity_variance>  (402) 
0.6448413134

$$$$
403
     RDKit          3D

 43 45  0  0  0  0  0  0  0  0999 V2000
   20.4551   71.1866   -1.3250 P   0  0  2  0  0  0  0  0  0  0  0  0
   20.7353   70.5115    0.1183 O   0  0  0  0  0  0  0  0  0  0  0  0
   20.0143   72.6201   -1.2793 O   0  0  0  0  0  0  0  0  0  0  0  0
   19.4315   70.1592   -2.0423 O   0  0  0  0  0  0  0  0  0  0  0  0
   19.1395   70.3446   -3.4164 C   0  0  0  0  0  0  0  0  0  0  0  0
   17.4863   71.3744   -4.8236 O   0  0  0  0  0  0  0  0  0  0  0  0
   15.4542   69.8380   -3.2422 O   0  0  0  0  0  0  0  0  0  0  0  0
   15.6811   68.3543   -5.5190 O   0  0  0  0  0  0  0  0  0  0  0  0
   16.7681   69.4506   -3.6407 C   0  0  1  0  0  0  0  0  0  0  0  0
   16.7949   69.1269   -5.1200 C   0  0  2  0  0  0  0  0  0  0  0  0
   17.6626   70.6819   -3.5683 C   0  0  1  0  0  0  0  0  0  0  0  0
   16.8003   70.5115   -5.7454 C   0  0  2  0  0  0  0  0  0  0  0  0
   14.8648   69.0678   -3.2800 H   0  0  0  0  0  0  0  0  0  0  0  0
   15.7231   67.4831   -5.0948 H   0  0  0  0  0  0  0  0  0  0  0  0
   15.5114   70.6127   -8.2566 O   0  0  0  0  0  0  0  0  0  0  0  0
   19.5252   70.6142  -10.5218 O   0  0  0  0  0  0  0  0  0  0  0  0
   17.4841   70.5396   -7.0075 N   0  0  0  0  0  0  0  0  0  0  0  0
   17.5110   70.6135   -9.3825 N   0  0  0  0  0  0  0  0  0  0  0  0
   16.7431   70.5892   -8.2112 C   0  0  0  0  0  0  0  0  0  0  0  0
   18.8741   70.5184   -7.0432 C   0  0  0  0  0  0  0  0  0  0  0  0
   19.5914   70.5408   -8.1685 C   0  0  0  0  0  0  0  0  0  0  0  0
   18.8940   70.5927   -9.4696 C   0  0  0  0  0  0  0  0  0  0  0  0
   17.0162   70.6478  -10.2332 H   0  0  0  0  0  0  0  0  0  0  0  0
   21.8400   70.9337   -2.1195 O   0  0  0  0  0  0  0  0  0  0  0  0
   23.3057   71.5893   -1.9333 P   0  0  2  0  0  0  0  0  0  0  0  0
   24.2257   70.7380   -2.9562 O   0  0  0  0  0  0  0  0  0  0  0  0
   23.8004   71.5977   -0.5158 O   0  0  0  0  0  0  0  0  0  0  0  0
   23.1887   73.0502   -2.6095 O   0  0  0  0  0  0  0  0  0  0  0  0
   23.8149   72.8352   -4.8851 O   0  0  0  0  0  0  0  0  0  0  0  0
   23.2324   76.9207   -4.7442 O   0  0  0  0  0  0  0  0  0  0  0  0
   21.3305   75.2637   -6.1173 O   0  0  0  0  0  0  0  0  0  0  0  0
   24.4454   75.5568   -2.4975 O   0  0  0  0  0  0  0  0  0  0  0  0
   22.9749   75.5554   -4.4051 C   0  0  1  0  0  0  0  0  0  0  0  0
   22.6084   74.8039   -5.6864 C   0  0  1  0  0  0  0  0  0  0  0  0
   24.2268   74.9545   -3.7687 C   0  0  2  0  0  0  0  0  0  0  0  0
   22.5790   73.2878   -5.4502 C   0  0  1  0  0  0  0  0  0  0  0  0
   24.1132   73.4359   -3.6233 C   0  0  1  0  0  0  0  0  0  0  0  0
   22.4412   77.3083   -5.1484 H   0  0  0  0  0  0  0  0  0  0  0  0
   21.3626   76.2225   -6.2624 H   0  0  0  0  0  0  0  0  0  0  0  0
   24.5158   76.5179   -2.6030 H   0  0  0  0  0  0  0  0  0  0  0  0
   23.0912   73.1589   -7.7804 O   0  0  0  0  0  0  0  0  0  0  0  0
   22.3709   72.5107   -6.7482 C   0  0  0  0  0  0  0  0  0  0  0  0
   22.9683   72.6751   -8.6126 H   0  0  0  0  0  0  0  0  0  0  0  0
 25 28  1  0
 25 24  1  0
 25 26  1  6
 25 27  2  0
  1  4  1  0
  1 24  1  0
  1  2  1  1
  1  3  2  0
  6 11  1  0
  6 12  1  0
 29 36  1  0
 29 37  1  0
  9  7  1  6
  7 13  1  0
 10  8  1  6
  8 14  1  0
 37 28  1  1
  4  5  1  0
 33 30  1  6
 30 38  1  0
 34 31  1  1
 31 39  1  0
 35 32  1  1
 32 40  1  0
 41 42  1  0
 41 43  1  0
 15 19  2  0
 16 22  2  0
 12 17  1  6
 17 19  1  0
 17 20  1  0
 18 19  1  0
 18 22  1  0
 18 23  1  0
  9 10  1  0
  9 11  1  0
 10 12  1  0
 11  5  1  6
 33 34  1  0
 33 35  1  0
 34 36  1  0
 35 37  1  0
 36 42  1  6
 20 21  2  0
 21 22  1  0
M  CHG  2   2  -1  26  -1
M  END
>  <COMPND>  (403) 
    8629 

>  <AUTHOR>  (403) 
    GENERATED BY OPEN BABEL 3.1.1

>  <MASTER>  (403) 
        0    0    0    0    0    0    0    0   58    0   58    0

>  <minimizedAffinity>  (403) 
-8.44536

>  <CNNscore>  (403) 
0.9151700139

>  <CNNaffinity>  (403) 
4.7580537796

>  <CNN_VS>  (403) 
4.3544282913

>  <CNNaffinity_variance>  (403) 
0.3550909162

$$$$
404
     RDKit          3D

 43 45  0  0  0  0  0  0  0  0999 V2000
   20.2763   71.8383   -2.2539 P   0  0  2  0  0  0  0  0  0  0  0  0
   20.0522   70.6922   -1.1343 O   0  0  0  0  0  0  0  0  0  0  0  0
   20.2136   73.2468   -1.7404 O   0  0  0  0  0  0  0  0  0  0  0  0
   19.2095   71.4644   -3.4114 O   0  0  0  0  0  0  0  0  0  0  0  0
   18.2853   72.4556   -3.8249 C   0  0  0  0  0  0  0  0  0  0  0  0
   16.5815   71.8289   -5.3992 O   0  0  0  0  0  0  0  0  0  0  0  0
   15.5249   70.0224   -3.2519 O   0  0  0  0  0  0  0  0  0  0  0  0
   16.8865   68.2956   -4.8645 O   0  0  0  0  0  0  0  0  0  0  0  0
   16.8760   70.3529   -3.5688 C   0  0  1  0  0  0  0  0  0  0  0  0
   17.3073   69.6443   -4.8359 C   0  0  2  0  0  0  0  0  0  0  0  0
   16.9141   71.8155   -3.9937 C   0  0  1  0  0  0  0  0  0  0  0  0
   16.6419   70.4873   -5.9104 C   0  0  2  0  0  0  0  0  0  0  0  0
   15.4754   69.0929   -2.9773 H   0  0  0  0  0  0  0  0  0  0  0  0
   17.3376   67.8010   -4.1627 H   0  0  0  0  0  0  0  0  0  0  0  0
   15.4715   70.6494   -8.4759 O   0  0  0  0  0  0  0  0  0  0  0  0
   19.5787   70.4879  -10.5606 O   0  0  0  0  0  0  0  0  0  0  0  0
   17.3818   70.4900   -7.1408 N   0  0  0  0  0  0  0  0  0  0  0  0
   17.5176   70.5690   -9.5118 N   0  0  0  0  0  0  0  0  0  0  0  0
   16.6979   70.5740   -8.3760 C   0  0  0  0  0  0  0  0  0  0  0  0
   18.7699   70.4103   -7.1149 C   0  0  0  0  0  0  0  0  0  0  0  0
   19.5369   70.4054   -8.2071 C   0  0  0  0  0  0  0  0  0  0  0  0
   18.9010   70.4902   -9.5376 C   0  0  0  0  0  0  0  0  0  0  0  0
   17.0631   70.6264  -10.3836 H   0  0  0  0  0  0  0  0  0  0  0  0
   21.6917   71.4265   -2.9174 O   0  0  0  0  0  0  0  0  0  0  0  0
   23.2093   71.6679   -2.4160 P   0  0  2  0  0  0  0  0  0  0  0  0
   23.4214   73.2579   -2.6272 O   0  0  0  0  0  0  0  0  0  0  0  0
   24.2294   70.8100   -3.1068 O   0  0  0  0  0  0  0  0  0  0  0  0
   23.1463   71.4742   -0.8149 O   0  0  0  0  0  0  0  0  0  0  0  0
   22.8953   73.5130    0.3670 O   0  0  0  0  0  0  0  0  0  0  0  0
   23.8211   71.0260    3.5306 O   0  0  0  0  0  0  0  0  0  0  0  0
   21.1344   71.9942    3.2273 O   0  0  0  0  0  0  0  0  0  0  0  0
   25.1483   70.6756    0.9821 O   0  0  0  0  0  0  0  0  0  0  0  0
   23.2363   71.3701    2.2717 C   0  0  1  0  0  0  0  0  0  0  0  0
   22.2445   72.5125    2.4999 C   0  0  1  0  0  0  0  0  0  0  0  0
   24.3413   71.8017    1.3093 C   0  0  2  0  0  0  0  0  0  0  0  0
   21.7767   73.1143    1.1680 C   0  0  1  0  0  0  0  0  0  0  0  0
   23.7690   72.4313    0.0380 C   0  0  1  0  0  0  0  0  0  0  0  0
   23.1249   70.7506    4.1462 H   0  0  0  0  0  0  0  0  0  0  0  0
   21.4435   71.6167    4.0659 H   0  0  0  0  0  0  0  0  0  0  0  0
   25.5049   70.2862    1.7951 H   0  0  0  0  0  0  0  0  0  0  0  0
   19.5507   73.9772    1.2649 O   0  0  0  0  0  0  0  0  0  0  0  0
   20.9106   74.3552    1.3739 C   0  0  0  0  0  0  0  0  0  0  0  0
   18.9876   74.7569    1.3940 H   0  0  0  0  0  0  0  0  0  0  0  0
 25 28  1  0
 25 24  1  0
 25 26  1  1
 25 27  2  0
  1  4  1  0
  1 24  1  0
  1  2  1  1
  1  3  2  0
  6 11  1  0
  6 12  1  0
 29 36  1  0
 29 37  1  0
  9  7  1  6
  7 13  1  0
 10  8  1  1
  8 14  1  0
 37 28  1  1
  4  5  1  0
 33 30  1  1
 30 38  1  0
 34 31  1  6
 31 39  1  0
 35 32  1  6
 32 40  1  0
 41 42  1  0
 41 43  1  0
 15 19  2  0
 16 22  2  0
 12 17  1  6
 17 19  1  0
 17 20  1  0
 18 19  1  0
 18 22  1  0
 18 23  1  0
  9 10  1  0
  9 11  1  0
 10 12  1  0
 11  5  1  6
 33 34  1  0
 33 35  1  0
 34 36  1  0
 35 37  1  0
 36 42  1  1
 20 21  2  0
 21 22  1  0
M  CHG  2   2  -1  26  -1
M  END
>  <COMPND>  (404) 
    8629 

>  <AUTHOR>  (404) 
    GENERATED BY OPEN BABEL 3.1.1

>  <MASTER>  (404) 
        0    0    0    0    0    0    0    0   58    0   58    0

>  <minimizedAffinity>  (404) 
-7.72493

>  <CNNscore>  (404) 
0.9127824306

>  <CNNaffinity>  (404) 
4.7321577072

>  <CNN_VS>  (404) 
4.3194303513

>  <CNNaffinity_variance>  (404) 
0.0666188672

$$$$
405
     RDKit          3D

 43 45  0  0  0  0  0  0  0  0999 V2000
   20.6826   72.0137   -1.8038 P   0  0  2  0  0  0  0  0  0  0  0  0
   19.7225   72.5207   -0.6044 O   0  0  0  0  0  0  0  0  0  0  0  0
   20.7502   72.9286   -2.9912 O   0  0  0  0  0  0  0  0  0  0  0  0
   20.1676   70.5096   -2.1042 O   0  0  0  0  0  0  0  0  0  0  0  0
   19.6153   70.2257   -3.3779 C   0  0  0  0  0  0  0  0  0  0  0  0
   17.9219   71.3980   -4.6156 O   0  0  0  0  0  0  0  0  0  0  0  0
   15.9323   69.9578   -2.8957 O   0  0  0  0  0  0  0  0  0  0  0  0
   15.8640   68.5221   -5.2132 O   0  0  0  0  0  0  0  0  0  0  0  0
   17.1784   69.4955   -3.4142 C   0  0  1  0  0  0  0  0  0  0  0  0
   17.0574   69.2093   -4.8965 C   0  0  2  0  0  0  0  0  0  0  0  0
   18.1570   70.6631   -3.3945 C   0  0  1  0  0  0  0  0  0  0  0  0
   17.1033   70.6063   -5.4918 C   0  0  2  0  0  0  0  0  0  0  0  0
   15.2911   69.2292   -2.8980 H   0  0  0  0  0  0  0  0  0  0  0  0
   15.8829   67.6393   -4.8120 H   0  0  0  0  0  0  0  0  0  0  0  0
   15.6272   70.3052   -7.8811 O   0  0  0  0  0  0  0  0  0  0  0  0
   19.4127   70.6827  -10.4828 O   0  0  0  0  0  0  0  0  0  0  0  0
   17.6776   70.6223   -6.8076 N   0  0  0  0  0  0  0  0  0  0  0  0
   17.5133   70.4936   -9.1746 N   0  0  0  0  0  0  0  0  0  0  0  0
   16.8485   70.4615   -7.9421 C   0  0  0  0  0  0  0  0  0  0  0  0
   19.0485   70.7963   -6.9632 C   0  0  0  0  0  0  0  0  0  0  0  0
   19.6672   70.8233   -8.1455 C   0  0  0  0  0  0  0  0  0  0  0  0
   18.8733   70.6626   -9.3808 C   0  0  0  0  0  0  0  0  0  0  0  0
   16.9560   70.3832   -9.9790 H   0  0  0  0  0  0  0  0  0  0  0  0
   22.0970   71.7717   -1.0596 O   0  0  0  0  0  0  0  0  0  0  0  0
   22.4365   71.2210    0.4217 P   0  0  2  0  0  0  0  0  0  0  0  0
   23.9596   70.6935    0.2815 O   0  0  0  0  0  0  0  0  0  0  0  0
   21.4695   70.1923    0.9324 O   0  0  0  0  0  0  0  0  0  0  0  0
   22.5468   72.5470    1.3352 O   0  0  0  0  0  0  0  0  0  0  0  0
   23.9432   73.1083    3.1660 O   0  0  0  0  0  0  0  0  0  0  0  0
   20.4064   74.7705    4.4999 O   0  0  0  0  0  0  0  0  0  0  0  0
   22.5301   76.4845    3.6053 O   0  0  0  0  0  0  0  0  0  0  0  0
   20.3716   72.2467    3.0826 O   0  0  0  0  0  0  0  0  0  0  0  0
   21.3804   74.3887    3.5247 C   0  0  1  0  0  0  0  0  0  0  0  0
   22.6967   75.0926    3.8604 C   0  0  1  0  0  0  0  0  0  0  0  0
   21.5569   72.8718    3.5628 C   0  0  2  0  0  0  0  0  0  0  0  0
   23.8543   74.5309    3.0241 C   0  0  1  0  0  0  0  0  0  0  0  0
   22.7646   72.4228    2.7382 C   0  0  1  0  0  0  0  0  0  0  0  0
   20.2893   75.7325    4.4805 H   0  0  0  0  0  0  0  0  0  0  0  0
   21.7959   76.8267    4.1392 H   0  0  0  0  0  0  0  0  0  0  0  0
   19.6145   72.5388    3.6130 H   0  0  0  0  0  0  0  0  0  0  0  0
   24.9990   75.9272    4.5890 O   0  0  0  0  0  0  0  0  0  0  0  0
   25.2020   75.1070    3.4531 C   0  0  0  0  0  0  0  0  0  0  0  0
   25.8483   76.3005    4.8735 H   0  0  0  0  0  0  0  0  0  0  0  0
 25 28  1  0
 25 24  1  0
 25 26  1  6
 25 27  2  0
  1  4  1  0
  1 24  1  0
  1  2  1  1
  1  3  2  0
  6 11  1  0
  6 12  1  0
 29 36  1  0
 29 37  1  0
  9  7  1  6
  7 13  1  0
 10  8  1  1
  8 14  1  0
 37 28  1  6
  4  5  1  0
 33 30  1  1
 30 38  1  0
 34 31  1  6
 31 39  1  0
 35 32  1  6
 32 40  1  0
 41 42  1  0
 41 43  1  0
 15 19  2  0
 16 22  2  0
 12 17  1  6
 17 19  1  0
 17 20  1  0
 18 19  1  0
 18 22  1  0
 18 23  1  0
  9 10  1  0
  9 11  1  0
 10 12  1  0
 11  5  1  6
 33 34  1  0
 33 35  1  0
 34 36  1  0
 35 37  1  0
 36 42  1  1
 20 21  2  0
 21 22  1  0
M  CHG  2   2  -1  26  -1
M  END
>  <COMPND>  (405) 
    8629 

>  <AUTHOR>  (405) 
    GENERATED BY OPEN BABEL 3.1.1

>  <MASTER>  (405) 
        0    0    0    0    0    0    0    0   58    0   58    0

>  <minimizedAffinity>  (405) 
-7.43818

>  <CNNscore>  (405) 
0.9051814079

>  <CNNaffinity>  (405) 
4.5783429146

>  <CNN_VS>  (405) 
4.1442308426

>  <CNNaffinity_variance>  (405) 
0.0868695527

$$$$
406
     RDKit          3D

 43 45  0  0  0  0  0  0  0  0999 V2000
   21.2521   71.1679   -2.2145 P   0  0  2  0  0  0  0  0  0  0  0  0
   21.8146   70.1866   -3.3713 O   0  0  0  0  0  0  0  0  0  0  0  0
   21.6180   70.7718   -0.8143 O   0  0  0  0  0  0  0  0  0  0  0  0
   19.6673   71.2663   -2.5254 O   0  0  0  0  0  0  0  0  0  0  0  0
   19.1137   70.3965   -3.4974 C   0  0  0  0  0  0  0  0  0  0  0  0
   17.4452   71.3860   -4.9155 O   0  0  0  0  0  0  0  0  0  0  0  0
   15.4372   69.8289   -3.3236 O   0  0  0  0  0  0  0  0  0  0  0  0
   15.6924   68.3300   -5.5874 O   0  0  0  0  0  0  0  0  0  0  0  0
   16.7581   69.4605   -3.7171 C   0  0  1  0  0  0  0  0  0  0  0  0
   16.7924   69.1248   -5.1935 C   0  0  2  0  0  0  0  0  0  0  0  0
   17.6314   70.7074   -3.6541 C   0  0  1  0  0  0  0  0  0  0  0  0
   16.7753   70.5038   -5.8307 C   0  0  2  0  0  0  0  0  0  0  0  0
   14.8610   69.0486   -3.3556 H   0  0  0  0  0  0  0  0  0  0  0  0
   15.7486   67.4632   -5.1557 H   0  0  0  0  0  0  0  0  0  0  0  0
   15.4886   70.5891   -8.3437 O   0  0  0  0  0  0  0  0  0  0  0  0
   19.5048   70.6107  -10.6044 O   0  0  0  0  0  0  0  0  0  0  0  0
   17.4603   70.5328   -7.0922 N   0  0  0  0  0  0  0  0  0  0  0  0
   17.4894   70.5999   -9.4673 N   0  0  0  0  0  0  0  0  0  0  0  0
   16.7203   70.5740   -8.2969 C   0  0  0  0  0  0  0  0  0  0  0  0
   18.8504   70.5208   -7.1263 C   0  0  0  0  0  0  0  0  0  0  0  0
   19.5689   70.5446   -8.2508 C   0  0  0  0  0  0  0  0  0  0  0  0
   18.8726   70.5881   -9.5529 C   0  0  0  0  0  0  0  0  0  0  0  0
   16.9954   70.6283  -10.3187 H   0  0  0  0  0  0  0  0  0  0  0  0
   21.8023   72.6183   -2.6690 O   0  0  0  0  0  0  0  0  0  0  0  0
   23.3095   73.1840   -2.8146 P   0  0  2  0  0  0  0  0  0  0  0  0
   23.0873   74.7118   -3.2984 O   0  0  0  0  0  0  0  0  0  0  0  0
   24.1877   72.3694   -3.7196 O   0  0  0  0  0  0  0  0  0  0  0  0
   23.8466   73.3107   -1.2979 O   0  0  0  0  0  0  0  0  0  0  0  0
   22.5275   73.4704    0.6645 O   0  0  0  0  0  0  0  0  0  0  0  0
   25.7879   75.6945    1.8784 O   0  0  0  0  0  0  0  0  0  0  0  0
   25.3702   73.0744    2.9777 O   0  0  0  0  0  0  0  0  0  0  0  0
   24.8352   75.8982   -0.8475 O   0  0  0  0  0  0  0  0  0  0  0  0
   25.1156   74.6388    1.1864 C   0  0  1  0  0  0  0  0  0  0  0  0
   24.3885   73.7753    2.2191 C   0  0  1  0  0  0  0  0  0  0  0  0
   24.1220   75.2442    0.1966 C   0  0  2  0  0  0  0  0  0  0  0  0
   23.4319   72.7863    1.5395 C   0  0  1  0  0  0  0  0  0  0  0  0
   23.1860   74.1829   -0.3846 C   0  0  1  0  0  0  0  0  0  0  0  0
   26.4206   75.3169    2.5081 H   0  0  0  0  0  0  0  0  0  0  0  0
   25.9680   73.7103    3.4012 H   0  0  0  0  0  0  0  0  0  0  0  0
   25.4239   76.5677   -0.4667 H   0  0  0  0  0  0  0  0  0  0  0  0
   22.0073   70.9036    1.9069 O   0  0  0  0  0  0  0  0  0  0  0  0
   22.5813   72.0247    2.5535 C   0  0  0  0  0  0  0  0  0  0  0  0
   21.4633   70.4092    2.5404 H   0  0  0  0  0  0  0  0  0  0  0  0
 25 28  1  0
 25 24  1  0
 25 26  1  6
 25 27  2  0
  1  4  1  0
  1 24  1  0
  1  2  1  6
  1  3  2  0
  6 11  1  0
  6 12  1  0
 29 36  1  0
 29 37  1  0
  9  7  1  6
  7 13  1  0
 10  8  1  6
  8 14  1  0
 37 28  1  1
  4  5  1  0
 33 30  1  1
 30 38  1  0
 34 31  1  6
 31 39  1  0
 35 32  1  6
 32 40  1  0
 41 42  1  0
 41 43  1  0
 15 19  2  0
 16 22  2  0
 12 17  1  6
 17 19  1  0
 17 20  1  0
 18 19  1  0
 18 22  1  0
 18 23  1  0
  9 10  1  0
  9 11  1  0
 10 12  1  0
 11  5  1  6
 33 34  1  0
 33 35  1  0
 34 36  1  0
 35 37  1  0
 36 42  1  1
 20 21  2  0
 21 22  1  0
M  CHG  2   2  -1  26  -1
M  END
>  <COMPND>  (406) 
    8629 

>  <AUTHOR>  (406) 
    GENERATED BY OPEN BABEL 3.1.1

>  <MASTER>  (406) 
        0    0    0    0    0    0    0    0   58    0   58    0

>  <minimizedAffinity>  (406) 
-7.39758

>  <CNNscore>  (406) 
0.8887081742

>  <CNNaffinity>  (406) 
4.6898827553

>  <CNN_VS>  (406) 
4.1679372787

>  <CNNaffinity_variance>  (406) 
0.0616251044

$$$$
407
     RDKit          3D

 43 45  0  0  0  0  0  0  0  0999 V2000
   21.4096   72.6942   -4.8026 P   0  0  2  0  0  0  0  0  0  0  0  0
   21.3141   74.3021   -4.6517 O   0  0  0  0  0  0  0  0  0  0  0  0
   22.2756   72.2136   -5.9297 O   0  0  0  0  0  0  0  0  0  0  0  0
   19.8645   72.2161   -4.8506 O   0  0  0  0  0  0  0  0  0  0  0  0
   19.3492   71.4829   -3.7530 C   0  0  0  0  0  0  0  0  0  0  0  0
   17.4668   71.7696   -5.2186 O   0  0  0  0  0  0  0  0  0  0  0  0
   15.9031   70.1775   -3.2159 O   0  0  0  0  0  0  0  0  0  0  0  0
   16.4391   68.3341   -5.1527 O   0  0  0  0  0  0  0  0  0  0  0  0
   17.2635   70.0320   -3.6201 C   0  0  1  0  0  0  0  0  0  0  0  0
   17.3386   69.4132   -5.0003 C   0  0  2  0  0  0  0  0  0  0  0  0
   17.8319   71.4243   -3.8644 C   0  0  1  0  0  0  0  0  0  0  0  0
   16.9936   70.5926   -5.8936 C   0  0  2  0  0  0  0  0  0  0  0  0
   15.5186   69.3012   -3.0537 H   0  0  0  0  0  0  0  0  0  0  0  0
   16.7009   67.6091   -4.5639 H   0  0  0  0  0  0  0  0  0  0  0  0
   15.6171   70.7195   -8.3568 O   0  0  0  0  0  0  0  0  0  0  0  0
   19.5166   70.2549  -10.7690 O   0  0  0  0  0  0  0  0  0  0  0  0
   17.6243   70.5078   -7.1806 N   0  0  0  0  0  0  0  0  0  0  0  0
   17.5599   70.4883   -9.5559 N   0  0  0  0  0  0  0  0  0  0  0  0
   16.8421   70.5814   -8.3567 C   0  0  0  0  0  0  0  0  0  0  0  0
   19.0037   70.3538   -7.2676 C   0  0  0  0  0  0  0  0  0  0  0  0
   19.6729   70.2653   -8.4189 C   0  0  0  0  0  0  0  0  0  0  0  0
   18.9302   70.3333   -9.6940 C   0  0  0  0  0  0  0  0  0  0  0  0
   17.0358   70.5367  -10.3882 H   0  0  0  0  0  0  0  0  0  0  0  0
   21.8913   72.2193   -3.3344 O   0  0  0  0  0  0  0  0  0  0  0  0
   23.3685   72.1003   -2.6889 P   0  0  2  0  0  0  0  0  0  0  0  0
   24.0712   73.4953   -3.1104 O   0  0  0  0  0  0  0  0  0  0  0  0
   24.1262   70.8738   -3.1079 O   0  0  0  0  0  0  0  0  0  0  0  0
   23.1304   72.2283   -1.0977 O   0  0  0  0  0  0  0  0  0  0  0  0
   23.8876   70.6863    0.5350 O   0  0  0  0  0  0  0  0  0  0  0  0
   20.5178   72.0897    2.4653 O   0  0  0  0  0  0  0  0  0  0  0  0
   23.1175   72.8724    3.4015 O   0  0  0  0  0  0  0  0  0  0  0  0
   20.4712   71.6678   -0.3981 O   0  0  0  0  0  0  0  0  0  0  0  0
   21.6718   72.1819    1.6256 C   0  0  1  0  0  0  0  0  0  0  0  0
   22.9026   71.8239    2.4610 C   0  0  1  0  0  0  0  0  0  0  0  0
   21.5161   71.2130    0.4550 C   0  0  2  0  0  0  0  0  0  0  0  0
   24.1406   71.6406    1.5729 C   0  0  1  0  0  0  0  0  0  0  0  0
   22.8186   71.0662   -0.3338 C   0  0  1  0  0  0  0  0  0  0  0  0
   20.6101   72.7028    3.2103 H   0  0  0  0  0  0  0  0  0  0  0  0
   22.3283   72.9782    3.9557 H   0  0  0  0  0  0  0  0  0  0  0  0
   19.6521   71.7564    0.1129 H   0  0  0  0  0  0  0  0  0  0  0  0
   25.0799   69.7994    2.7715 O   0  0  0  0  0  0  0  0  0  0  0  0
   25.3422   71.1299    2.3651 C   0  0  0  0  0  0  0  0  0  0  0  0
   25.8363   69.4611    3.2766 H   0  0  0  0  0  0  0  0  0  0  0  0
 25 28  1  0
 25 24  1  0
 25 26  1  6
 25 27  2  0
  1  4  1  0
  1 24  1  0
  1  2  1  1
  1  3  2  0
  6 11  1  0
  6 12  1  0
 29 36  1  0
 29 37  1  0
  9  7  1  6
  7 13  1  0
 10  8  1  1
  8 14  1  0
 37 28  1  1
  4  5  1  0
 33 30  1  1
 30 38  1  0
 34 31  1  1
 31 39  1  0
 35 32  1  6
 32 40  1  0
 41 42  1  0
 41 43  1  0
 15 19  2  0
 16 22  2  0
 12 17  1  6
 17 19  1  0
 17 20  1  0
 18 19  1  0
 18 22  1  0
 18 23  1  0
  9 10  1  0
  9 11  1  0
 10 12  1  0
 11  5  1  6
 33 34  1  0
 33 35  1  0
 34 36  1  0
 35 37  1  0
 36 42  1  1
 20 21  2  0
 21 22  1  0
M  CHG  2   2  -1  26  -1
M  END
>  <COMPND>  (407) 
    8629 

>  <AUTHOR>  (407) 
    GENERATED BY OPEN BABEL 3.1.1

>  <MASTER>  (407) 
        0    0    0    0    0    0    0    0   58    0   58    0

>  <minimizedAffinity>  (407) 
-8.31003

>  <CNNscore>  (407) 
0.8730306029

>  <CNNaffinity>  (407) 
4.7494134903

>  <CNN_VS>  (407) 
4.1463832855

>  <CNNaffinity_variance>  (407) 
0.0519395955

$$$$
408
     RDKit          3D

 43 45  0  0  0  0  0  0  0  0999 V2000
   21.7357   71.7173   -2.0076 P   0  0  2  0  0  0  0  0  0  0  0  0
   21.9807   72.7598   -3.2202 O   0  0  0  0  0  0  0  0  0  0  0  0
   22.8557   70.7476   -1.7694 O   0  0  0  0  0  0  0  0  0  0  0  0
   20.2967   71.0594   -2.3459 O   0  0  0  0  0  0  0  0  0  0  0  0
   19.8281   71.1086   -3.6822 C   0  0  0  0  0  0  0  0  0  0  0  0
   17.8963   71.7356   -4.9663 O   0  0  0  0  0  0  0  0  0  0  0  0
   16.2897   70.2119   -2.9445 O   0  0  0  0  0  0  0  0  0  0  0  0
   16.4344   68.4613   -5.0304 O   0  0  0  0  0  0  0  0  0  0  0  0
   17.5856   69.9260   -3.4682 C   0  0  1  0  0  0  0  0  0  0  0  0
   17.4766   69.4045   -4.8858 C   0  0  2  0  0  0  0  0  0  0  0  0
   18.3122   71.2497   -3.6712 C   0  0  1  0  0  0  0  0  0  0  0  0
   17.2241   70.6798   -5.6721 C   0  0  2  0  0  0  0  0  0  0  0  0
   15.8067   69.3815   -2.8061 H   0  0  0  0  0  0  0  0  0  0  0  0
   16.6416   67.6683   -4.5118 H   0  0  0  0  0  0  0  0  0  0  0  0
   15.6267   70.4623   -7.9913 O   0  0  0  0  0  0  0  0  0  0  0  0
   19.3174   70.4182  -10.7514 O   0  0  0  0  0  0  0  0  0  0  0  0
   17.7413   70.6100   -7.0096 N   0  0  0  0  0  0  0  0  0  0  0  0
   17.4657   70.4407   -9.3637 N   0  0  0  0  0  0  0  0  0  0  0  0
   16.8535   70.5011   -8.1053 C   0  0  0  0  0  0  0  0  0  0  0  0
   19.1146   70.6500   -7.2246 C   0  0  0  0  0  0  0  0  0  0  0  0
   19.6825   70.5900   -8.4309 C   0  0  0  0  0  0  0  0  0  0  0  0
   18.8256   70.4755   -9.6286 C   0  0  0  0  0  0  0  0  0  0  0  0
   16.8670   70.3643  -10.1419 H   0  0  0  0  0  0  0  0  0  0  0  0
   21.4070   72.6861   -0.7561 O   0  0  0  0  0  0  0  0  0  0  0  0
   21.1894   72.3582    0.8117 P   0  0  2  0  0  0  0  0  0  0  0  0
   21.0868   70.7439    0.8424 O   0  0  0  0  0  0  0  0  0  0  0  0
   20.0188   73.0649    1.4315 O   0  0  0  0  0  0  0  0  0  0  0  0
   22.6114   72.6894    1.4996 O   0  0  0  0  0  0  0  0  0  0  0  0
   24.4888   73.9185    0.7372 O   0  0  0  0  0  0  0  0  0  0  0  0
   26.4537   70.8346    2.6555 O   0  0  0  0  0  0  0  0  0  0  0  0
   26.4364   73.4542    3.8324 O   0  0  0  0  0  0  0  0  0  0  0  0
   24.0358   70.2958    1.1578 O   0  0  0  0  0  0  0  0  0  0  0  0
   25.4076   71.7894    2.4573 C   0  0  1  0  0  0  0  0  0  0  0  0
   26.0229   73.1897    2.4947 C   0  0  1  0  0  0  0  0  0  0  0  0
   24.7440   71.5297    1.1062 C   0  0  2  0  0  0  0  0  0  0  0  0
   25.0166   74.2497    2.0270 C   0  0  1  0  0  0  0  0  0  0  0  0
   23.7996   72.6670    0.7129 C   0  0  1  0  0  0  0  0  0  0  0  0
   26.8789   70.9937    3.5119 H   0  0  0  0  0  0  0  0  0  0  0  0
   27.0712   72.7775    4.1157 H   0  0  0  0  0  0  0  0  0  0  0  0
   24.6446   69.5839    1.4075 H   0  0  0  0  0  0  0  0  0  0  0  0
   25.7568   76.1947    3.2008 O   0  0  0  0  0  0  0  0  0  0  0  0
   25.6560   75.6312    1.9059 C   0  0  0  0  0  0  0  0  0  0  0  0
   26.1623   77.0742    3.1393 H   0  0  0  0  0  0  0  0  0  0  0  0
 25 28  1  0
 25 24  1  0
 25 26  1  6
 25 27  2  0
  1  4  1  0
  1 24  1  0
  1  2  1  6
  1  3  2  0
  6 11  1  0
  6 12  1  0
 29 36  1  0
 29 37  1  0
  9  7  1  6
  7 13  1  0
 10  8  1  1
  8 14  1  0
 37 28  1  1
  4  5  1  0
 33 30  1  6
 30 38  1  0
 34 31  1  1
 31 39  1  0
 35 32  1  1
 32 40  1  0
 41 42  1  0
 41 43  1  0
 15 19  2  0
 16 22  2  0
 12 17  1  6
 17 19  1  0
 17 20  1  0
 18 19  1  0
 18 22  1  0
 18 23  1  0
  9 10  1  0
  9 11  1  0
 10 12  1  0
 11  5  1  6
 33 34  1  0
 33 35  1  0
 34 36  1  0
 35 37  1  0
 36 42  1  6
 20 21  2  0
 21 22  1  0
M  CHG  2   2  -1  26  -1
M  END
>  <COMPND>  (408) 
    8629 

>  <AUTHOR>  (408) 
    GENERATED BY OPEN BABEL 3.1.1

>  <MASTER>  (408) 
        0    0    0    0    0    0    0    0   58    0   58    0

>  <minimizedAffinity>  (408) 
-7.39649

>  <CNNscore>  (408) 
0.8450465202

>  <CNNaffinity>  (408) 
4.7124533653

>  <CNN_VS>  (408) 
3.9822423458

>  <CNNaffinity_variance>  (408) 
0.1466011256

$$$$
409
     RDKit          3D

 43 45  0  0  0  0  0  0  0  0999 V2000
   22.7014   72.7233   -3.9980 P   0  0  2  0  0  0  0  0  0  0  0  0
   21.9830   72.9529   -5.4294 O   0  0  0  0  0  0  0  0  0  0  0  0
   24.0883   72.1552   -4.0689 O   0  0  0  0  0  0  0  0  0  0  0  0
   21.6269   71.8513   -3.1596 O   0  0  0  0  0  0  0  0  0  0  0  0
   20.8086   70.9311   -3.8606 C   0  0  0  0  0  0  0  0  0  0  0  0
   18.8146   71.8270   -4.8581 O   0  0  0  0  0  0  0  0  0  0  0  0
   17.3305   70.5568   -2.5833 O   0  0  0  0  0  0  0  0  0  0  0  0
   16.9086   68.7979   -4.6241 O   0  0  0  0  0  0  0  0  0  0  0  0
   18.4787   70.0853   -3.2866 C   0  0  1  0  0  0  0  0  0  0  0  0
   18.0842   69.5812   -4.6592 C   0  0  2  0  0  0  0  0  0  0  0  0
   19.3473   71.2897   -3.6277 C   0  0  1  0  0  0  0  0  0  0  0  0
   17.9003   70.8773   -5.4301 C   0  0  2  0  0  0  0  0  0  0  0  0
   16.7606   69.8053   -2.3544 H   0  0  0  0  0  0  0  0  0  0  0  0
   17.0766   67.9847   -4.1228 H   0  0  0  0  0  0  0  0  0  0  0  0
   15.9968   70.1811   -7.3973 O   0  0  0  0  0  0  0  0  0  0  0  0
   19.1441   70.3388  -10.7604 O   0  0  0  0  0  0  0  0  0  0  0  0
   18.1948   70.7299   -6.8275 N   0  0  0  0  0  0  0  0  0  0  0  0
   17.5654   70.2604   -9.0703 N   0  0  0  0  0  0  0  0  0  0  0  0
   17.1669   70.3765   -7.7325 C   0  0  0  0  0  0  0  0  0  0  0  0
   19.4908   70.9355   -7.2881 C   0  0  0  0  0  0  0  0  0  0  0  0
   19.8548   70.8195   -8.5669 C   0  0  0  0  0  0  0  0  0  0  0  0
   18.8409   70.4533   -9.5768 C   0  0  0  0  0  0  0  0  0  0  0  0
   16.8662   70.0146   -9.7187 H   0  0  0  0  0  0  0  0  0  0  0  0
   22.6059   74.1808   -3.3056 O   0  0  0  0  0  0  0  0  0  0  0  0
   23.3072   74.7716   -1.9743 P   0  0  2  0  0  0  0  0  0  0  0  0
   22.6430   76.2393   -1.8253 O   0  0  0  0  0  0  0  0  0  0  0  0
   24.8079   74.7725   -2.0181 O   0  0  0  0  0  0  0  0  0  0  0  0
   22.6739   73.9127   -0.7635 O   0  0  0  0  0  0  0  0  0  0  0  0
   23.4897   73.8203    1.4596 O   0  0  0  0  0  0  0  0  0  0  0  0
   21.8616   70.0347    1.1966 O   0  0  0  0  0  0  0  0  0  0  0  0
   20.5526   72.0336    2.7899 O   0  0  0  0  0  0  0  0  0  0  0  0
   23.2283   71.1804   -1.0836 O   0  0  0  0  0  0  0  0  0  0  0  0
   21.9434   71.4388    0.9372 C   0  0  1  0  0  0  0  0  0  0  0  0
   21.8731   72.1784    2.2746 C   0  0  1  0  0  0  0  0  0  0  0  0
   23.2612   71.7390    0.2254 C   0  0  2  0  0  0  0  0  0  0  0  0
   22.2208   73.6635    2.1053 C   0  0  1  0  0  0  0  0  0  0  0  0
   23.5346   73.2424    0.1536 C   0  0  1  0  0  0  0  0  0  0  0  0
   21.0269   69.8373    1.6480 H   0  0  0  0  0  0  0  0  0  0  0  0
   20.3454   71.0913    2.8917 H   0  0  0  0  0  0  0  0  0  0  0  0
   23.0548   70.2284   -1.0245 H   0  0  0  0  0  0  0  0  0  0  0  0
   22.4318   73.4175    4.4726 O   0  0  0  0  0  0  0  0  0  0  0  0
   22.3108   74.3865    3.4475 C   0  0  0  0  0  0  0  0  0  0  0  0
   22.4904   73.8632    5.3326 H   0  0  0  0  0  0  0  0  0  0  0  0
 25 28  1  0
 25 24  1  0
 25 26  1  1
 25 27  2  0
  1  4  1  0
  1 24  1  0
  1  2  1  6
  1  3  2  0
  6 11  1  0
  6 12  1  0
 29 36  1  0
 29 37  1  0
  9  7  1  1
  7 13  1  0
 10  8  1  1
  8 14  1  0
 37 28  1  6
  4  5  1  0
 33 30  1  1
 30 38  1  0
 34 31  1  6
 31 39  1  0
 35 32  1  6
 32 40  1  0
 41 42  1  0
 41 43  1  0
 15 19  2  0
 16 22  2  0
 12 17  1  6
 17 19  1  0
 17 20  1  0
 18 19  1  0
 18 22  1  0
 18 23  1  0
  9 10  1  0
  9 11  1  0
 10 12  1  0
 11  5  1  6
 33 34  1  0
 33 35  1  0
 34 36  1  0
 35 37  1  0
 36 42  1  1
 20 21  2  0
 21 22  1  0
M  CHG  2   2  -1  26  -1
M  END
>  <COMPND>  (409) 
    8629 

>  <AUTHOR>  (409) 
    GENERATED BY OPEN BABEL 3.1.1

>  <MASTER>  (409) 
        0    0    0    0    0    0    0    0   58    0   58    0

>  <minimizedAffinity>  (409) 
-7.63931

>  <CNNscore>  (409) 
0.8247292638

>  <CNNaffinity>  (409) 
4.6501221657

>  <CNN_VS>  (409) 
3.8350918293

>  <CNNaffinity_variance>  (409) 
0.0386932269

$$$$
410
     RDKit          3D

 43 45  0  0  0  0  0  0  0  0999 V2000
   21.0164   73.7388   -2.6916 P   0  0  2  0  0  0  0  0  0  0  0  0
   20.6676   72.8945   -1.3564 O   0  0  0  0  0  0  0  0  0  0  0  0
   21.0112   75.2292   -2.5184 O   0  0  0  0  0  0  0  0  0  0  0  0
   19.9900   73.1565   -3.7986 O   0  0  0  0  0  0  0  0  0  0  0  0
   19.6023   71.7964   -3.7119 C   0  0  0  0  0  0  0  0  0  0  0  0
   17.6394   72.0284   -5.0783 O   0  0  0  0  0  0  0  0  0  0  0  0
   16.2127   70.4440   -2.9699 O   0  0  0  0  0  0  0  0  0  0  0  0
   16.6757   68.5782   -4.9041 O   0  0  0  0  0  0  0  0  0  0  0  0
   17.5519   70.3141   -3.4445 C   0  0  1  0  0  0  0  0  0  0  0  0
   17.5635   69.6741   -4.8170 C   0  0  2  0  0  0  0  0  0  0  0  0
   18.0824   71.7113   -3.7405 C   0  0  1  0  0  0  0  0  0  0  0  0
   17.1509   70.8330   -5.7086 C   0  0  2  0  0  0  0  0  0  0  0  0
   15.8526   69.5644   -2.7738 H   0  0  0  0  0  0  0  0  0  0  0  0
   16.9810   67.8673   -4.3192 H   0  0  0  0  0  0  0  0  0  0  0  0
   15.6389   70.4660   -8.0659 O   0  0  0  0  0  0  0  0  0  0  0  0
   19.4149   70.4792  -10.7084 O   0  0  0  0  0  0  0  0  0  0  0  0
   17.7132   70.7375   -7.0262 N   0  0  0  0  0  0  0  0  0  0  0  0
   17.5203   70.4731   -9.3798 N   0  0  0  0  0  0  0  0  0  0  0  0
   16.8662   70.5524   -8.1437 C   0  0  0  0  0  0  0  0  0  0  0  0
   19.0899   70.8277   -7.2004 C   0  0  0  0  0  0  0  0  0  0  0  0
   19.6981   70.7488   -8.3858 C   0  0  0  0  0  0  0  0  0  0  0  0
   18.8854   70.5557   -9.6041 C   0  0  0  0  0  0  0  0  0  0  0  0
   16.9505   70.3438  -10.1725 H   0  0  0  0  0  0  0  0  0  0  0  0
   22.4370   73.1200   -3.1522 O   0  0  0  0  0  0  0  0  0  0  0  0
   23.4181   73.5104   -4.3761 P   0  0  2  0  0  0  0  0  0  0  0  0
   23.2028   72.2980   -5.4255 O   0  0  0  0  0  0  0  0  0  0  0  0
   24.8468   73.7335   -3.9723 O   0  0  0  0  0  0  0  0  0  0  0  0
   22.7137   74.7837   -5.0742 O   0  0  0  0  0  0  0  0  0  0  0  0
   24.2853   75.7805   -6.5416 O   0  0  0  0  0  0  0  0  0  0  0  0
   21.2029   78.5008   -6.9292 O   0  0  0  0  0  0  0  0  0  0  0  0
   21.7850   76.7001   -9.0895 O   0  0  0  0  0  0  0  0  0  0  0  0
   21.7762   77.3266   -4.3462 O   0  0  0  0  0  0  0  0  0  0  0  0
   21.7831   77.2057   -6.7517 C   0  0  1  0  0  0  0  0  0  0  0  0
   22.6497   76.8968   -7.9742 C   0  0  1  0  0  0  0  0  0  0  0  0
   22.6290   77.2078   -5.4798 C   0  0  2  0  0  0  0  0  0  0  0  0
   23.5126   75.6495   -7.7406 C   0  0  1  0  0  0  0  0  0  0  0  0
   23.4855   75.9451   -5.3690 C   0  0  1  0  0  0  0  0  0  0  0  0
   20.6641   78.5061   -7.7349 H   0  0  0  0  0  0  0  0  0  0  0  0
   21.2453   77.4947   -9.2259 H   0  0  0  0  0  0  0  0  0  0  0  0
   21.2396   78.1298   -4.4282 H   0  0  0  0  0  0  0  0  0  0  0  0
   23.8306   74.7118   -9.9152 O   0  0  0  0  0  0  0  0  0  0  0  0
   24.4984   75.4139   -8.8830 C   0  0  0  0  0  0  0  0  0  0  0  0
   24.4458   74.5551  -10.6492 H   0  0  0  0  0  0  0  0  0  0  0  0
 25 28  1  0
 25 24  1  0
 25 26  1  6
 25 27  2  0
  1  4  1  0
  1 24  1  0
  1  2  1  1
  1  3  2  0
  6 11  1  0
  6 12  1  0
 29 36  1  0
 29 37  1  0
  9  7  1  6
  7 13  1  0
 10  8  1  1
  8 14  1  0
 37 28  1  6
  4  5  1  0
 33 30  1  6
 30 38  1  0
 34 31  1  6
 31 39  1  0
 35 32  1  1
 32 40  1  0
 41 42  1  0
 41 43  1  0
 15 19  2  0
 16 22  2  0
 12 17  1  6
 17 19  1  0
 17 20  1  0
 18 19  1  0
 18 22  1  0
 18 23  1  0
  9 10  1  0
  9 11  1  0
 10 12  1  0
 11  5  1  6
 33 34  1  0
 33 35  1  0
 34 36  1  0
 35 37  1  0
 36 42  1  6
 20 21  2  0
 21 22  1  0
M  CHG  2   2  -1  26  -1
M  END
>  <COMPND>  (410) 
    8629 

>  <AUTHOR>  (410) 
    GENERATED BY OPEN BABEL 3.1.1

>  <MASTER>  (410) 
        0    0    0    0    0    0    0    0   58    0   58    0

>  <minimizedAffinity>  (410) 
-6.64019

>  <CNNscore>  (410) 
0.8046110272

>  <CNNaffinity>  (410) 
4.5694117546

>  <CNN_VS>  (410) 
3.6765990257

>  <CNNaffinity_variance>  (410) 
0.0849075094

$$$$
411
     RDKit          3D

 43 45  0  0  0  0  0  0  0  0999 V2000
   21.1182   73.5754   -3.5806 P   0  0  2  0  0  0  0  0  0  0  0  0
   20.0185   73.1292   -2.4810 O   0  0  0  0  0  0  0  0  0  0  0  0
   21.2104   75.0536   -3.8212 O   0  0  0  0  0  0  0  0  0  0  0  0
   20.7606   72.6737   -4.8755 O   0  0  0  0  0  0  0  0  0  0  0  0
   21.7950   71.9155   -5.4780 C   0  0  0  0  0  0  0  0  0  0  0  0
   20.4269   70.1953   -6.4492 O   0  0  0  0  0  0  0  0  0  0  0  0
   20.4362   71.8573   -8.9449 O   0  0  0  0  0  0  0  0  0  0  0  0
   17.9996   72.4266   -7.8606 O   0  0  0  0  0  0  0  0  0  0  0  0
   20.4102   72.2769   -7.5816 C   0  0  1  0  0  0  0  0  0  0  0  0
   19.0387   72.0400   -6.9845 C   0  0  2  0  0  0  0  0  0  0  0  0
   21.2773   71.3156   -6.7781 C   0  0  1  0  0  0  0  0  0  0  0  0
   19.0609   70.5426   -6.7286 C   0  0  2  0  0  0  0  0  0  0  0  0
   19.8896   72.4565   -9.4779 H   0  0  0  0  0  0  0  0  0  0  0  0
   18.0277   73.3872   -7.9917 H   0  0  0  0  0  0  0  0  0  0  0  0
   16.3006   69.9648   -6.8864 O   0  0  0  0  0  0  0  0  0  0  0  0
   16.0341   69.1114   -2.3651 O   0  0  0  0  0  0  0  0  0  0  0  0
   18.2456   70.1664   -5.6083 N   0  0  0  0  0  0  0  0  0  0  0  0
   16.1702   69.5402   -4.6351 N   0  0  0  0  0  0  0  0  0  0  0  0
   16.8694   69.8983   -5.7947 C   0  0  0  0  0  0  0  0  0  0  0  0
   18.8115   70.0661   -4.3420 C   0  0  0  0  0  0  0  0  0  0  0  0
   18.1307   69.7246   -3.2460 C   0  0  0  0  0  0  0  0  0  0  0  0
   16.6877   69.4281   -3.3543 C   0  0  0  0  0  0  0  0  0  0  0  0
   15.2099   69.3492   -4.7407 H   0  0  0  0  0  0  0  0  0  0  0  0
   22.4784   72.8973   -3.0301 O   0  0  0  0  0  0  0  0  0  0  0  0
   22.7375   71.4777   -2.3018 P   0  0  2  0  0  0  0  0  0  0  0  0
   24.1217   70.9671   -2.9658 O   0  0  0  0  0  0  0  0  0  0  0  0
   21.5982   70.5074   -2.4219 O   0  0  0  0  0  0  0  0  0  0  0  0
   23.1309   71.8627   -0.7845 O   0  0  0  0  0  0  0  0  0  0  0  0
   24.3748   70.8891    0.9822 O   0  0  0  0  0  0  0  0  0  0  0  0
   20.9688   71.9327    3.0704 O   0  0  0  0  0  0  0  0  0  0  0  0
   23.3929   73.4178    3.4782 O   0  0  0  0  0  0  0  0  0  0  0  0
   20.7518   70.9202    0.3672 O   0  0  0  0  0  0  0  0  0  0  0  0
   21.9857   72.0852    2.0764 C   0  0  1  0  0  0  0  0  0  0  0  0
   23.3390   72.1743    2.7846 C   0  0  1  0  0  0  0  0  0  0  0  0
   21.9492   70.8819    1.1361 C   0  0  2  0  0  0  0  0  0  0  0  0
   24.4966   72.0708    1.7824 C   0  0  1  0  0  0  0  0  0  0  0  0
   23.1700   70.8475    0.2150 C   0  0  1  0  0  0  0  0  0  0  0  0
   20.9863   72.6937    3.6704 H   0  0  0  0  0  0  0  0  0  0  0  0
   22.6563   73.4706    4.1074 H   0  0  0  0  0  0  0  0  0  0  0  0
   19.9864   70.9414    0.9617 H   0  0  0  0  0  0  0  0  0  0  0  0
   26.2151   73.3036    2.8941 O   0  0  0  0  0  0  0  0  0  0  0  0
   25.8528   71.9990    2.4807 C   0  0  0  0  0  0  0  0  0  0  0  0
   27.0763   73.2732    3.3404 H   0  0  0  0  0  0  0  0  0  0  0  0
 25 28  1  0
 25 24  1  0
 25 26  1  6
 25 27  2  0
  1  4  1  0
  1 24  1  0
  1  2  1  1
  1  3  2  0
  6 11  1  0
  6 12  1  0
 29 36  1  0
 29 37  1  0
  9  7  1  6
  7 13  1  0
 10  8  1  6
  8 14  1  0
 37 28  1  6
  4  5  1  0
 33 30  1  1
 30 38  1  0
 34 31  1  6
 31 39  1  0
 35 32  1  6
 32 40  1  0
 41 42  1  0
 41 43  1  0
 15 19  2  0
 16 22  2  0
 12 17  1  1
 17 19  1  0
 17 20  1  0
 18 19  1  0
 18 22  1  0
 18 23  1  0
  9 10  1  0
  9 11  1  0
 10 12  1  0
 11  5  1  1
 33 34  1  0
 33 35  1  0
 34 36  1  0
 35 37  1  0
 36 42  1  1
 20 21  2  0
 21 22  1  0
M  CHG  2   2  -1  26  -1
M  END
>  <COMPND>  (411) 
    8629 

>  <AUTHOR>  (411) 
    GENERATED BY OPEN BABEL 3.1.1

>  <MASTER>  (411) 
        0    0    0    0    0    0    0    0   58    0   58    0

>  <minimizedAffinity>  (411) 
-7.55512

>  <CNNscore>  (411) 
0.7465791702

>  <CNNaffinity>  (411) 
4.3508596420

>  <CNN_VS>  (411) 
3.2482612133

>  <CNNaffinity_variance>  (411) 
0.2509787679

$$$$
412
     RDKit          3D

 43 45  0  0  0  0  0  0  0  0999 V2000
   21.8607   72.4683   -5.6283 P   0  0  2  0  0  0  0  0  0  0  0  0
   21.2567   73.9390   -5.3286 O   0  0  0  0  0  0  0  0  0  0  0  0
   23.1074   72.4533   -6.4632 O   0  0  0  0  0  0  0  0  0  0  0  0
   20.6029   71.6468   -6.2290 O   0  0  0  0  0  0  0  0  0  0  0  0
   20.1040   72.0115   -7.5041 C   0  0  0  0  0  0  0  0  0  0  0  0
   18.9063   69.9665   -7.1073 O   0  0  0  0  0  0  0  0  0  0  0  0
   18.1417   70.0712  -10.0048 O   0  0  0  0  0  0  0  0  0  0  0  0
   15.8948   70.9917   -8.7635 O   0  0  0  0  0  0  0  0  0  0  0  0
   18.3015   71.1411   -9.0747 C   0  0  1  0  0  0  0  0  0  0  0  0
   17.1340   71.1786   -8.1107 C   0  0  2  0  0  0  0  0  0  0  0  0
   19.4637   70.7921   -8.1533 C   0  0  1  0  0  0  0  0  0  0  0  0
   17.4723   70.0414   -7.1618 C   0  0  2  0  0  0  0  0  0  0  0  0
   17.4051   70.2714  -10.6043 H   0  0  0  0  0  0  0  0  0  0  0  0
   15.7249   71.7409   -9.3556 H   0  0  0  0  0  0  0  0  0  0  0  0
   16.2758   68.0512   -5.5537 O   0  0  0  0  0  0  0  0  0  0  0  0
   15.5663   71.0136   -2.0951 O   0  0  0  0  0  0  0  0  0  0  0  0
   16.9664   70.2649   -5.8368 N   0  0  0  0  0  0  0  0  0  0  0  0
   15.9237   69.5278   -3.8328 N   0  0  0  0  0  0  0  0  0  0  0  0
   16.3832   69.1980   -5.1143 C   0  0  0  0  0  0  0  0  0  0  0  0
   17.0515   71.5305   -5.2668 C   0  0  0  0  0  0  0  0  0  0  0  0
   16.6074   71.8289   -4.0442 C   0  0  0  0  0  0  0  0  0  0  0  0
   15.9845   70.7708   -3.2229 C   0  0  0  0  0  0  0  0  0  0  0  0
   15.5132   68.8005   -3.3110 H   0  0  0  0  0  0  0  0  0  0  0  0
   22.0335   71.8382   -4.1498 O   0  0  0  0  0  0  0  0  0  0  0  0
   23.2421   71.9511   -3.0823 P   0  0  2  0  0  0  0  0  0  0  0  0
   23.9338   73.3659   -3.4533 O   0  0  0  0  0  0  0  0  0  0  0  0
   24.1825   70.7809   -3.0914 O   0  0  0  0  0  0  0  0  0  0  0  0
   22.5133   72.2126   -1.6662 O   0  0  0  0  0  0  0  0  0  0  0  0
   22.3344   74.0398   -0.1676 O   0  0  0  0  0  0  0  0  0  0  0  0
   23.1369   71.0350    2.5486 O   0  0  0  0  0  0  0  0  0  0  0  0
   20.4931   72.1473    2.4047 O   0  0  0  0  0  0  0  0  0  0  0  0
   24.4684   71.0515   -0.0217 O   0  0  0  0  0  0  0  0  0  0  0  0
   22.5758   71.6031    1.3621 C   0  0  1  0  0  0  0  0  0  0  0  0
   21.6284   72.7321    1.7727 C   0  0  1  0  0  0  0  0  0  0  0  0
   23.7043   72.1408    0.4842 C   0  0  2  0  0  0  0  0  0  0  0  0
   21.1949   73.5614    0.5564 C   0  0  1  0  0  0  0  0  0  0  0  0
   23.1671   72.9918   -0.6679 C   0  0  1  0  0  0  0  0  0  0  0  0
   22.4257   70.6913    3.1102 H   0  0  0  0  0  0  0  0  0  0  0  0
   20.7806   71.6261    3.1707 H   0  0  0  0  0  0  0  0  0  0  0  0
   24.8031   70.5207    0.7173 H   0  0  0  0  0  0  0  0  0  0  0  0
   19.1318   74.3464    1.4711 O   0  0  0  0  0  0  0  0  0  0  0  0
   20.3772   74.7860    0.9612 C   0  0  0  0  0  0  0  0  0  0  0  0
   18.6008   75.1152    1.7331 H   0  0  0  0  0  0  0  0  0  0  0  0
 25 28  1  0
 25 24  1  0
 25 26  1  6
 25 27  2  0
  1  4  1  0
  1 24  1  0
  1  2  1  1
  1  3  2  0
  6 11  1  0
  6 12  1  0
 29 36  1  0
 29 37  1  0
  9  7  1  6
  7 13  1  0
 10  8  1  6
  8 14  1  0
 37 28  1  6
  4  5  1  0
 33 30  1  1
 30 38  1  0
 34 31  1  6
 31 39  1  0
 35 32  1  6
 32 40  1  0
 41 42  1  0
 41 43  1  0
 15 19  2  0
 16 22  2  0
 12 17  1  1
 17 19  1  0
 17 20  1  0
 18 19  1  0
 18 22  1  0
 18 23  1  0
  9 10  1  0
  9 11  1  0
 10 12  1  0
 11  5  1  1
 33 34  1  0
 33 35  1  0
 34 36  1  0
 35 37  1  0
 36 42  1  1
 20 21  2  0
 21 22  1  0
M  CHG  2   2  -1  26  -1
M  END
>  <COMPND>  (412) 
    8629 

>  <AUTHOR>  (412) 
    GENERATED BY OPEN BABEL 3.1.1

>  <MASTER>  (412) 
        0    0    0    0    0    0    0    0   58    0   58    0

>  <minimizedAffinity>  (412) 
-7.83550

>  <CNNscore>  (412) 
0.7318868637

>  <CNNaffinity>  (412) 
4.5475912094

>  <CNN_VS>  (412) 
3.3283221722

>  <CNNaffinity_variance>  (412) 
0.2210476398

$$$$
413
     RDKit          3D

 43 45  0  0  0  0  0  0  0  0999 V2000
   22.9948   71.4507   -2.7195 P   0  0  2  0  0  0  0  0  0  0  0  0
   23.0187   73.0132   -2.3007 O   0  0  0  0  0  0  0  0  0  0  0  0
   24.3353   70.8619   -3.0476 O   0  0  0  0  0  0  0  0  0  0  0  0
   21.8893   71.3816   -3.8990 O   0  0  0  0  0  0  0  0  0  0  0  0
   21.1626   72.5564   -4.2141 C   0  0  0  0  0  0  0  0  0  0  0  0
   20.5872   71.6080   -6.3456 O   0  0  0  0  0  0  0  0  0  0  0  0
   20.8619   74.3841   -7.4449 O   0  0  0  0  0  0  0  0  0  0  0  0
   18.1600   74.1056   -7.2021 O   0  0  0  0  0  0  0  0  0  0  0  0
   20.3604   73.9609   -6.1781 C   0  0  1  0  0  0  0  0  0  0  0  0
   18.9826   73.3521   -6.3347 C   0  0  2  0  0  0  0  0  0  0  0  0
   21.1867   72.7648   -5.7222 C   0  0  1  0  0  0  0  0  0  0  0  0
   19.3077   71.9747   -6.8872 C   0  0  2  0  0  0  0  0  0  0  0  0
   20.3498   75.1475   -7.7565 H   0  0  0  0  0  0  0  0  0  0  0  0
   17.9816   74.9730   -6.8063 H   0  0  0  0  0  0  0  0  0  0  0  0
   17.0208   71.3082   -8.4051 O   0  0  0  0  0  0  0  0  0  0  0  0
   15.6575   68.1734   -5.3139 O   0  0  0  0  0  0  0  0  0  0  0  0
   18.3384   70.9877   -6.5029 N   0  0  0  0  0  0  0  0  0  0  0  0
   16.3440   69.7477   -6.8648 N   0  0  0  0  0  0  0  0  0  0  0  0
   17.2251   70.7292   -7.3361 C   0  0  0  0  0  0  0  0  0  0  0  0
   18.4971   70.2876   -5.3119 C   0  0  0  0  0  0  0  0  0  0  0  0
   17.6471   69.3556   -4.8760 C   0  0  0  0  0  0  0  0  0  0  0  0
   16.4577   69.0254   -5.6875 C   0  0  0  0  0  0  0  0  0  0  0  0
   15.5608   69.5511   -7.4285 H   0  0  0  0  0  0  0  0  0  0  0  0
   22.2399   70.7517   -1.4727 O   0  0  0  0  0  0  0  0  0  0  0  0
   21.5210   71.3906   -0.1735 P   0  0  2  0  0  0  0  0  0  0  0  0
   21.5123   70.1671    0.8851 O   0  0  0  0  0  0  0  0  0  0  0  0
   20.1687   71.9823   -0.4472 O   0  0  0  0  0  0  0  0  0  0  0  0
   22.6003   72.4344    0.4187 O   0  0  0  0  0  0  0  0  0  0  0  0
   22.9639   73.4864    2.5110 O   0  0  0  0  0  0  0  0  0  0  0  0
   23.4605   76.7532    0.0348 O   0  0  0  0  0  0  0  0  0  0  0  0
   25.7492   75.5861    1.3185 O   0  0  0  0  0  0  0  0  0  0  0  0
   21.4232   74.7854   -0.5622 O   0  0  0  0  0  0  0  0  0  0  0  0
   23.5480   75.3751    0.4069 C   0  0  1  0  0  0  0  0  0  0  0  0
   24.4044   75.2729    1.6705 C   0  0  1  0  0  0  0  0  0  0  0  0
   22.1417   74.8378    0.6656 C   0  0  2  0  0  0  0  0  0  0  0  0
   24.3254   73.8672    2.2811 C   0  0  1  0  0  0  0  0  0  0  0  0
   22.1767   73.4549    1.3188 C   0  0  1  0  0  0  0  0  0  0  0  0
   24.3501   77.1004   -0.1314 H   0  0  0  0  0  0  0  0  0  0  0  0
   25.7851   76.4759    0.9336 H   0  0  0  0  0  0  0  0  0  0  0  0
   21.4079   75.6668   -0.9656 H   0  0  0  0  0  0  0  0  0  0  0  0
   26.4078   73.4880    3.3897 O   0  0  0  0  0  0  0  0  0  0  0  0
   25.0443   73.7867    3.6261 C   0  0  0  0  0  0  0  0  0  0  0  0
   26.8779   73.4339    4.2369 H   0  0  0  0  0  0  0  0  0  0  0  0
 25 28  1  0
 25 24  1  0
 25 26  1  1
 25 27  2  0
  1  4  1  0
  1 24  1  0
  1  2  1  1
  1  3  2  0
  6 11  1  0
  6 12  1  0
 29 36  1  0
 29 37  1  0
  9  7  1  6
  7 13  1  0
 10  8  1  6
  8 14  1  0
 37 28  1  6
  4  5  1  0
 33 30  1  1
 30 38  1  0
 34 31  1  6
 31 39  1  0
 35 32  1  6
 32 40  1  0
 41 42  1  0
 41 43  1  0
 15 19  2  0
 16 22  2  0
 12 17  1  1
 17 19  1  0
 17 20  1  0
 18 19  1  0
 18 22  1  0
 18 23  1  0
  9 10  1  0
  9 11  1  0
 10 12  1  0
 11  5  1  1
 33 34  1  0
 33 35  1  0
 34 36  1  0
 35 37  1  0
 36 42  1  1
 20 21  2  0
 21 22  1  0
M  CHG  2   2  -1  26  -1
M  END
>  <COMPND>  (413) 
    8629 

>  <AUTHOR>  (413) 
    GENERATED BY OPEN BABEL 3.1.1

>  <MASTER>  (413) 
        0    0    0    0    0    0    0    0   58    0   58    0

>  <minimizedAffinity>  (413) 
-6.63945

>  <CNNscore>  (413) 
0.7310824990

>  <CNNaffinity>  (413) 
4.3286609650

>  <CNN_VS>  (413) 
3.1646082401

>  <CNNaffinity_variance>  (413) 
0.0138133187

$$$$
414
     RDKit          3D

 43 45  0  0  0  0  0  0  0  0999 V2000
   22.7017   72.8437   -4.2907 P   0  0  2  0  0  0  0  0  0  0  0  0
   23.0798   73.5075   -5.7169 O   0  0  0  0  0  0  0  0  0  0  0  0
   23.6105   71.7353   -3.8467 O   0  0  0  0  0  0  0  0  0  0  0  0
   21.1397   72.4518   -4.4466 O   0  0  0  0  0  0  0  0  0  0  0  0
   20.6518   71.3242   -3.7407 C   0  0  0  0  0  0  0  0  0  0  0  0
   18.5689   71.9344   -4.7717 O   0  0  0  0  0  0  0  0  0  0  0  0
   17.2392   70.4870   -2.5073 O   0  0  0  0  0  0  0  0  0  0  0  0
   17.0899   68.6753   -4.5401 O   0  0  0  0  0  0  0  0  0  0  0  0
   18.4508   70.1723   -3.1916 C   0  0  1  0  0  0  0  0  0  0  0  0
   18.1483   69.6112   -4.5654 C   0  0  2  0  0  0  0  0  0  0  0  0
   19.1522   71.4818   -3.5302 C   0  0  1  0  0  0  0  0  0  0  0  0
   17.8007   70.8658   -5.3486 C   0  0  2  0  0  0  0  0  0  0  0  0
   16.7737   69.6662   -2.2803 H   0  0  0  0  0  0  0  0  0  0  0  0
   17.3598   67.8955   -4.0304 H   0  0  0  0  0  0  0  0  0  0  0  0
   15.9330   70.3133   -7.3941 O   0  0  0  0  0  0  0  0  0  0  0  0
   19.1875   70.4499  -10.6545 O   0  0  0  0  0  0  0  0  0  0  0  0
   18.1325   70.7518   -6.7408 N   0  0  0  0  0  0  0  0  0  0  0  0
   17.5550   70.3820   -9.0159 N   0  0  0  0  0  0  0  0  0  0  0  0
   17.1199   70.4709   -7.6875 C   0  0  0  0  0  0  0  0  0  0  0  0
   19.4495   70.9184   -7.1552 C   0  0  0  0  0  0  0  0  0  0  0  0
   19.8482   70.8292   -8.4258 C   0  0  0  0  0  0  0  0  0  0  0  0
   18.8524   70.5383   -9.4774 C   0  0  0  0  0  0  0  0  0  0  0  0
   16.8670   70.1866   -9.6929 H   0  0  0  0  0  0  0  0  0  0  0  0
   22.6592   74.1178   -3.2968 O   0  0  0  0  0  0  0  0  0  0  0  0
   23.8475   74.9326   -2.5640 P   0  0  2  0  0  0  0  0  0  0  0  0
   23.1004   76.2532   -2.0024 O   0  0  0  0  0  0  0  0  0  0  0  0
   25.0312   75.2172   -3.4425 O   0  0  0  0  0  0  0  0  0  0  0  0
   24.1860   74.0643   -1.2462 O   0  0  0  0  0  0  0  0  0  0  0  0
   22.2882   73.1674   -0.1459 O   0  0  0  0  0  0  0  0  0  0  0  0
   25.1116   72.5565    2.8047 O   0  0  0  0  0  0  0  0  0  0  0  0
   24.1041   70.3140    1.3201 O   0  0  0  0  0  0  0  0  0  0  0  0
   25.1860   74.9733    1.2132 O   0  0  0  0  0  0  0  0  0  0  0  0
   24.6287   72.6433    1.4613 C   0  0  1  0  0  0  0  0  0  0  0  0
   23.5139   71.6104    1.2848 C   0  0  1  0  0  0  0  0  0  0  0  0
   24.0991   74.0541    1.2114 C   0  0  2  0  0  0  0  0  0  0  0  0
   22.7675   71.8218   -0.0393 C   0  0  1  0  0  0  0  0  0  0  0  0
   23.3312   74.1435   -0.1086 C   0  0  1  0  0  0  0  0  0  0  0  0
   25.4499   71.6633    2.9697 H   0  0  0  0  0  0  0  0  0  0  0  0
   24.5727   70.1935    2.1610 H   0  0  0  0  0  0  0  0  0  0  0  0
   25.6639   74.9072    2.0541 H   0  0  0  0  0  0  0  0  0  0  0  0
   21.4013   70.1922    1.0502 O   0  0  0  0  0  0  0  0  0  0  0  0
   21.5529   70.9045   -0.1639 C   0  0  0  0  0  0  0  0  0  0  0  0
   20.6318   69.6045    0.9856 H   0  0  0  0  0  0  0  0  0  0  0  0
 25 28  1  0
 25 24  1  0
 25 26  1  1
 25 27  2  0
  1  4  1  0
  1 24  1  0
  1  2  1  6
  1  3  2  0
  6 11  1  0
  6 12  1  0
 29 36  1  0
 29 37  1  0
  9  7  1  1
  7 13  1  0
 10  8  1  1
  8 14  1  0
 37 28  1  6
  4  5  1  0
 33 30  1  1
 30 38  1  0
 34 31  1  6
 31 39  1  0
 35 32  1  6
 32 40  1  0
 41 42  1  0
 41 43  1  0
 15 19  2  0
 16 22  2  0
 12 17  1  6
 17 19  1  0
 17 20  1  0
 18 19  1  0
 18 22  1  0
 18 23  1  0
  9 10  1  0
  9 11  1  0
 10 12  1  0
 11  5  1  6
 33 34  1  0
 33 35  1  0
 34 36  1  0
 35 37  1  0
 36 42  1  1
 20 21  2  0
 21 22  1  0
M  CHG  2   2  -1  26  -1
M  END
>  <COMPND>  (414) 
    8629 

>  <AUTHOR>  (414) 
    GENERATED BY OPEN BABEL 3.1.1

>  <MASTER>  (414) 
        0    0    0    0    0    0    0    0   58    0   58    0

>  <minimizedAffinity>  (414) 
-7.47365

>  <CNNscore>  (414) 
0.7174670100

>  <CNNaffinity>  (414) 
4.5298514366

>  <CNN_VS>  (414) 
3.2500190735

>  <CNNaffinity_variance>  (414) 
0.0541384816

$$$$
415
     RDKit          3D

 43 45  0  0  0  0  0  0  0  0999 V2000
   21.8456   72.5081   -5.6322 P   0  0  2  0  0  0  0  0  0  0  0  0
   21.1703   73.9479   -5.3352 O   0  0  0  0  0  0  0  0  0  0  0  0
   23.0978   72.5535   -6.4577 O   0  0  0  0  0  0  0  0  0  0  0  0
   20.6327   71.6288   -6.2434 O   0  0  0  0  0  0  0  0  0  0  0  0
   20.0923   72.0028   -7.4988 C   0  0  0  0  0  0  0  0  0  0  0  0
   18.8814   69.9661   -7.0994 O   0  0  0  0  0  0  0  0  0  0  0  0
   18.1397   70.0576  -10.0032 O   0  0  0  0  0  0  0  0  0  0  0  0
   15.8879   70.9964   -8.7848 O   0  0  0  0  0  0  0  0  0  0  0  0
   18.2977   71.1321   -9.0782 C   0  0  1  0  0  0  0  0  0  0  0  0
   17.1230   71.1810   -8.1235 C   0  0  2  0  0  0  0  0  0  0  0  0
   19.4510   70.7829   -8.1458 C   0  0  1  0  0  0  0  0  0  0  0  0
   17.4483   70.0477   -7.1654 C   0  0  2  0  0  0  0  0  0  0  0  0
   17.4088   70.2580  -10.6096 H   0  0  0  0  0  0  0  0  0  0  0  0
   15.7263   71.7429   -9.3825 H   0  0  0  0  0  0  0  0  0  0  0  0
   16.3176   68.0521   -5.5171 O   0  0  0  0  0  0  0  0  0  0  0  0
   15.5036   71.0599   -2.1212 O   0  0  0  0  0  0  0  0  0  0  0  0
   16.9333   70.2814   -5.8457 N   0  0  0  0  0  0  0  0  0  0  0  0
   15.9134   69.5513   -3.8275 N   0  0  0  0  0  0  0  0  0  0  0  0
   16.3855   69.2106   -5.1015 C   0  0  0  0  0  0  0  0  0  0  0  0
   16.9748   71.5607   -5.3021 C   0  0  0  0  0  0  0  0  0  0  0  0
   16.5192   71.8693   -4.0862 C   0  0  0  0  0  0  0  0  0  0  0  0
   15.9313   70.8080   -3.2435 C   0  0  0  0  0  0  0  0  0  0  0  0
   15.5270   68.8215   -3.2910 H   0  0  0  0  0  0  0  0  0  0  0  0
   22.0371   71.8844   -4.1533 O   0  0  0  0  0  0  0  0  0  0  0  0
   23.2576   72.0048   -3.1003 P   0  0  2  0  0  0  0  0  0  0  0  0
   23.9023   73.4486   -3.4431 O   0  0  0  0  0  0  0  0  0  0  0  0
   24.2313   70.8634   -3.1537 O   0  0  0  0  0  0  0  0  0  0  0  0
   22.5425   72.2076   -1.6676 O   0  0  0  0  0  0  0  0  0  0  0  0
   23.4335   70.6539   -0.1155 O   0  0  0  0  0  0  0  0  0  0  0  0
   20.4265   72.2621    2.2131 O   0  0  0  0  0  0  0  0  0  0  0  0
   23.1639   72.9221    2.7778 O   0  0  0  0  0  0  0  0  0  0  0  0
   19.9762   71.7983   -0.6086 O   0  0  0  0  0  0  0  0  0  0  0  0
   21.4609   72.2805    1.2257 C   0  0  1  0  0  0  0  0  0  0  0  0
   22.7730   71.8717    1.8980 C   0  0  1  0  0  0  0  0  0  0  0  0
   21.1019   71.3028    0.1083 C   0  0  2  0  0  0  0  0  0  0  0  0
   23.8704   71.6097    0.8577 C   0  0  1  0  0  0  0  0  0  0  0  0
   22.2781   71.0756   -0.8430 C   0  0  1  0  0  0  0  0  0  0  0  0
   20.6481   72.8812    2.9252 H   0  0  0  0  0  0  0  0  0  0  0  0
   22.4622   73.0778    3.4293 H   0  0  0  0  0  0  0  0  0  0  0  0
   19.2383   71.9377    0.0046 H   0  0  0  0  0  0  0  0  0  0  0  0
   24.7686   70.1877    2.5548 O   0  0  0  0  0  0  0  0  0  0  0  0
   25.1402   71.0493    1.4946 C   0  0  0  0  0  0  0  0  0  0  0  0
   25.5668   69.8233    2.9693 H   0  0  0  0  0  0  0  0  0  0  0  0
 25 28  1  0
 25 24  1  0
 25 26  1  6
 25 27  2  0
  1  4  1  0
  1 24  1  0
  1  2  1  1
  1  3  2  0
  6 11  1  0
  6 12  1  0
 29 36  1  0
 29 37  1  0
  9  7  1  6
  7 13  1  0
 10  8  1  6
  8 14  1  0
 37 28  1  1
  4  5  1  0
 33 30  1  1
 30 38  1  0
 34 31  1  1
 31 39  1  0
 35 32  1  6
 32 40  1  0
 41 42  1  0
 41 43  1  0
 15 19  2  0
 16 22  2  0
 12 17  1  1
 17 19  1  0
 17 20  1  0
 18 19  1  0
 18 22  1  0
 18 23  1  0
  9 10  1  0
  9 11  1  0
 10 12  1  0
 11  5  1  1
 33 34  1  0
 33 35  1  0
 34 36  1  0
 35 37  1  0
 36 42  1  1
 20 21  2  0
 21 22  1  0
M  CHG  2   2  -1  26  -1
M  END
>  <COMPND>  (415) 
    8629 

>  <AUTHOR>  (415) 
    GENERATED BY OPEN BABEL 3.1.1

>  <MASTER>  (415) 
        0    0    0    0    0    0    0    0   58    0   58    0

>  <minimizedAffinity>  (415) 
-8.42449

>  <CNNscore>  (415) 
0.7116025090

>  <CNNaffinity>  (415) 
4.4739665985

>  <CNN_VS>  (415) 
3.1836857796

>  <CNNaffinity_variance>  (415) 
0.2838498056

$$$$
416
     RDKit          3D

 43 45  0  0  0  0  0  0  0  0999 V2000
   23.2975   71.8323   -3.1694 P   0  0  2  0  0  0  0  0  0  0  0  0
   23.8939   73.1624   -3.8713 O   0  0  0  0  0  0  0  0  0  0  0  0
   24.2829   70.7155   -2.9876 O   0  0  0  0  0  0  0  0  0  0  0  0
   21.9903   71.4788   -4.0550 O   0  0  0  0  0  0  0  0  0  0  0  0
   21.5760   72.4016   -5.0472 C   0  0  0  0  0  0  0  0  0  0  0  0
   20.5460   70.4715   -6.0411 O   0  0  0  0  0  0  0  0  0  0  0  0
   20.7675   71.9297   -8.6517 O   0  0  0  0  0  0  0  0  0  0  0  0
   18.1513   72.3062   -7.9807 O   0  0  0  0  0  0  0  0  0  0  0  0
   20.4952   72.4463   -7.3501 C   0  0  1  0  0  0  0  0  0  0  0  0
   19.0795   72.1049   -6.9344 C   0  0  2  0  0  0  0  0  0  0  0  0
   21.3217   71.6509   -6.3472 C   0  0  1  0  0  0  0  0  0  0  0  0
   19.2102   70.6430   -6.5420 C   0  0  2  0  0  0  0  0  0  0  0  0
   20.2511   72.4224   -9.3094 H   0  0  0  0  0  0  0  0  0  0  0  0
   18.1040   73.2512   -8.1938 H   0  0  0  0  0  0  0  0  0  0  0  0
   16.5593   69.8007   -7.0333 O   0  0  0  0  0  0  0  0  0  0  0  0
   15.7172   69.2185   -2.5396 O   0  0  0  0  0  0  0  0  0  0  0  0
   18.2764   70.2650   -5.5190 N   0  0  0  0  0  0  0  0  0  0  0  0
   16.1422   69.5113   -4.7954 N   0  0  0  0  0  0  0  0  0  0  0  0
   16.9686   69.8580   -5.8719 C   0  0  0  0  0  0  0  0  0  0  0  0
   18.6606   70.2997   -4.1829 C   0  0  0  0  0  0  0  0  0  0  0  0
   17.8601   69.9672   -3.1681 C   0  0  0  0  0  0  0  0  0  0  0  0
   16.4775   69.5307   -3.4508 C   0  0  0  0  0  0  0  0  0  0  0  0
   15.2265   69.2250   -5.0171 H   0  0  0  0  0  0  0  0  0  0  0  0
   22.6628   72.3998   -1.7954 O   0  0  0  0  0  0  0  0  0  0  0  0
   21.2219   72.1471   -1.1077 P   0  0  2  0  0  0  0  0  0  0  0  0
   21.0443   70.5415   -1.1977 O   0  0  0  0  0  0  0  0  0  0  0  0
   20.0995   72.9299   -1.7253 O   0  0  0  0  0  0  0  0  0  0  0  0
   21.4602   72.4436    0.4608 O   0  0  0  0  0  0  0  0  0  0  0  0
   20.7880   74.3480    1.7009 O   0  0  0  0  0  0  0  0  0  0  0  0
   24.2925   73.4639    3.6977 O   0  0  0  0  0  0  0  0  0  0  0  0
   21.7684   72.9486    4.9672 O   0  0  0  0  0  0  0  0  0  0  0  0
   24.1508   73.1538    0.8231 O   0  0  0  0  0  0  0  0  0  0  0  0
   23.0886   73.1673    2.9848 C   0  0  1  0  0  0  0  0  0  0  0  0
   21.9089   73.7271    3.7821 C   0  0  1  0  0  0  0  0  0  0  0  0
   23.1564   73.8111    1.6012 C   0  0  2  0  0  0  0  0  0  0  0  0
   20.6144   73.6854    2.9589 C   0  0  1  0  0  0  0  0  0  0  0  0
   21.8045   73.7592    0.8873 C   0  0  1  0  0  0  0  0  0  0  0  0
   24.2561   73.0575    4.5770 H   0  0  0  0  0  0  0  0  0  0  0  0
   22.5927   72.9829    5.4777 H   0  0  0  0  0  0  0  0  0  0  0  0
   25.0019   73.1938    1.2857 H   0  0  0  0  0  0  0  0  0  0  0  0
   19.0039   73.5405    4.7179 O   0  0  0  0  0  0  0  0  0  0  0  0
   19.4590   74.3820    3.6743 C   0  0  0  0  0  0  0  0  0  0  0  0
   18.2686   73.9712    5.1823 H   0  0  0  0  0  0  0  0  0  0  0  0
 25 28  1  0
 25 24  1  0
 25 26  1  1
 25 27  2  0
  1  4  1  0
  1 24  1  0
  1  2  1  6
  1  3  2  0
  6 11  1  0
  6 12  1  0
 29 36  1  0
 29 37  1  0
  9  7  1  6
  7 13  1  0
 10  8  1  6
  8 14  1  0
 37 28  1  1
  4  5  1  0
 33 30  1  1
 30 38  1  0
 34 31  1  1
 31 39  1  0
 35 32  1  6
 32 40  1  0
 41 42  1  0
 41 43  1  0
 15 19  2  0
 16 22  2  0
 12 17  1  1
 17 19  1  0
 17 20  1  0
 18 19  1  0
 18 22  1  0
 18 23  1  0
  9 10  1  0
  9 11  1  0
 10 12  1  0
 11  5  1  1
 33 34  1  0
 33 35  1  0
 34 36  1  0
 35 37  1  0
 36 42  1  1
 20 21  2  0
 21 22  1  0
M  CHG  2   2  -1  26  -1
M  END
>  <COMPND>  (416) 
    8629 

>  <AUTHOR>  (416) 
    GENERATED BY OPEN BABEL 3.1.1

>  <MASTER>  (416) 
        0    0    0    0    0    0    0    0   58    0   58    0

>  <minimizedAffinity>  (416) 
-6.99934

>  <CNNscore>  (416) 
0.5474119782

>  <CNNaffinity>  (416) 
4.1521635056

>  <CNN_VS>  (416) 
2.2729439735

>  <CNNaffinity_variance>  (416) 
0.2287305892

$$$$
417
     RDKit          3D

 43 45  0  0  0  0  0  0  0  0999 V2000
   22.8689   72.1141   -3.5037 P   0  0  2  0  0  0  0  0  0  0  0  0
   22.8173   70.6415   -2.8358 O   0  0  0  0  0  0  0  0  0  0  0  0
   24.1814   72.4794   -4.1323 O   0  0  0  0  0  0  0  0  0  0  0  0
   22.3587   73.0946   -2.3220 O   0  0  0  0  0  0  0  0  0  0  0  0
   22.0960   72.5363   -1.0464 C   0  0  0  0  0  0  0  0  0  0  0  0
   22.7880   73.8804    0.8212 O   0  0  0  0  0  0  0  0  0  0  0  0
   25.0485   71.9368    1.1427 O   0  0  0  0  0  0  0  0  0  0  0  0
   23.2940   71.1317    3.0688 O   0  0  0  0  0  0  0  0  0  0  0  0
   23.7016   71.6954    0.7391 C   0  0  1  0  0  0  0  0  0  0  0  0
   22.7713   71.7863    1.9307 C   0  0  2  0  0  0  0  0  0  0  0  0
   23.2473   72.8762   -0.1098 C   0  0  1  0  0  0  0  0  0  0  0  0
   22.6522   73.2885    2.1236 C   0  0  2  0  0  0  0  0  0  0  0  0
   25.3608   71.1957    1.6860 H   0  0  0  0  0  0  0  0  0  0  0  0
   23.3503   70.1789    2.8966 H   0  0  0  0  0  0  0  0  0  0  0  0
   22.0758   73.3509    4.8879 O   0  0  0  0  0  0  0  0  0  0  0  0
   17.7546   74.7689    4.1413 O   0  0  0  0  0  0  0  0  0  0  0  0
   21.3847   73.6705    2.6795 N   0  0  0  0  0  0  0  0  0  0  0  0
   19.9247   74.0571    4.5139 N   0  0  0  0  0  0  0  0  0  0  0  0
   21.1986   73.6670    4.0815 C   0  0  0  0  0  0  0  0  0  0  0  0
   20.3428   74.0436    1.8374 C   0  0  0  0  0  0  0  0  0  0  0  0
   19.1335   74.4116    2.2655 C   0  0  0  0  0  0  0  0  0  0  0  0
   18.8563   74.4352    3.7163 C   0  0  0  0  0  0  0  0  0  0  0  0
   19.7718   74.0619    5.4868 H   0  0  0  0  0  0  0  0  0  0  0  0
   21.6162   72.0940   -4.5252 O   0  0  0  0  0  0  0  0  0  0  0  0
   20.9029   73.2846   -5.3538 P   0  0  2  0  0  0  0  0  0  0  0  0
   22.0192   73.6933   -6.4513 O   0  0  0  0  0  0  0  0  0  0  0  0
   20.4241   74.4252   -4.5032 O   0  0  0  0  0  0  0  0  0  0  0  0
   19.7435   72.5522   -6.2049 O   0  0  0  0  0  0  0  0  0  0  0  0
   18.9324   70.3286   -6.0849 O   0  0  0  0  0  0  0  0  0  0  0  0
   18.6592   70.9113  -10.1637 O   0  0  0  0  0  0  0  0  0  0  0  0
   16.2657   70.8402   -8.5781 O   0  0  0  0  0  0  0  0  0  0  0  0
   20.9069   71.9964   -8.6975 O   0  0  0  0  0  0  0  0  0  0  0  0
   18.6050   71.2931   -8.7865 C   0  0  1  0  0  0  0  0  0  0  0  0
   17.5434   70.4370   -8.0930 C   0  0  1  0  0  0  0  0  0  0  0  0
   19.9761   71.0678   -8.1518 C   0  0  2  0  0  0  0  0  0  0  0  0
   17.6112   70.5980   -6.5683 C   0  0  1  0  0  0  0  0  0  0  0  0
   19.9227   71.2034   -6.6290 C   0  0  1  0  0  0  0  0  0  0  0  0
   17.7918   71.0524  -10.5728 H   0  0  0  0  0  0  0  0  0  0  0  0
   16.2362   70.7341   -9.5420 H   0  0  0  0  0  0  0  0  0  0  0  0
   20.9317   71.9004   -9.6618 H   0  0  0  0  0  0  0  0  0  0  0  0
   15.5914   69.3301   -6.7158 O   0  0  0  0  0  0  0  0  0  0  0  0
   16.6683   69.6358   -5.8491 C   0  0  0  0  0  0  0  0  0  0  0  0
   14.9832   68.7183   -6.2715 H   0  0  0  0  0  0  0  0  0  0  0  0
 25 28  1  0
 25 24  1  0
 25 26  1  6
 25 27  2  0
  1  4  1  0
  1 24  1  0
  1  2  1  1
  1  3  2  0
  6 11  1  0
  6 12  1  0
 29 36  1  0
 29 37  1  0
  9  7  1  1
  7 13  1  0
 10  8  1  1
  8 14  1  0
 37 28  1  6
  4  5  1  0
 33 30  1  6
 30 38  1  0
 34 31  1  6
 31 39  1  0
 35 32  1  6
 32 40  1  0
 41 42  1  0
 41 43  1  0
 15 19  2  0
 16 22  2  0
 12 17  1  6
 17 19  1  0
 17 20  1  0
 18 19  1  0
 18 22  1  0
 18 23  1  0
  9 10  1  0
  9 11  1  0
 10 12  1  0
 11  5  1  6
 33 34  1  0
 33 35  1  0
 34 36  1  0
 35 37  1  0
 36 42  1  1
 20 21  2  0
 21 22  1  0
M  CHG  2   2  -1  26  -1
M  END
>  <COMPND>  (417) 
    8629 

>  <AUTHOR>  (417) 
    GENERATED BY OPEN BABEL 3.1.1

>  <MASTER>  (417) 
        0    0    0    0    0    0    0    0   58    0   58    0

>  <minimizedAffinity>  (417) 
-7.00144

>  <CNNscore>  (417) 
0.5361687541

>  <CNNaffinity>  (417) 
4.1520905495

>  <CNN_VS>  (417) 
2.2262213230

>  <CNNaffinity_variance>  (417) 
0.0480424128

$$$$
418
     RDKit          3D

 43 45  0  0  0  0  0  0  0  0999 V2000
   22.2340   73.0885   -2.4596 P   0  0  2  0  0  0  0  0  0  0  0  0
   23.7031   72.5567   -2.8798 O   0  0  0  0  0  0  0  0  0  0  0  0
   21.6713   74.1615   -3.3447 O   0  0  0  0  0  0  0  0  0  0  0  0
   22.3943   73.4786   -0.8975 O   0  0  0  0  0  0  0  0  0  0  0  0
   23.5763   73.0877   -0.2209 C   0  0  0  0  0  0  0  0  0  0  0  0
   24.0360   71.9225    1.8297 O   0  0  0  0  0  0  0  0  0  0  0  0
   21.5631   70.3258    1.2582 O   0  0  0  0  0  0  0  0  0  0  0  0
   20.6926   72.1271    3.1114 O   0  0  0  0  0  0  0  0  0  0  0  0
   21.8260   71.7045    1.0024 C   0  0  1  0  0  0  0  0  0  0  0  0
   21.7836   72.4962    2.2927 C   0  0  2  0  0  0  0  0  0  0  0  0
   23.2887   71.8358    0.5966 C   0  0  1  0  0  0  0  0  0  0  0  0
   23.1254   72.1530    2.9172 C   0  0  2  0  0  0  0  0  0  0  0  0
   20.6346   70.2169    1.5189 H   0  0  0  0  0  0  0  0  0  0  0  0
   19.8622   72.3659    2.6708 H   0  0  0  0  0  0  0  0  0  0  0  0
   22.4295   72.5580    5.6245 O   0  0  0  0  0  0  0  0  0  0  0  0
   25.1468   76.2655    5.9586 O   0  0  0  0  0  0  0  0  0  0  0  0
   23.6364   73.2161    3.7357 N   0  0  0  0  0  0  0  0  0  0  0  0
   23.7832   74.4036    5.7887 N   0  0  0  0  0  0  0  0  0  0  0  0
   23.2225   73.3313    5.0833 C   0  0  0  0  0  0  0  0  0  0  0  0
   24.5379   74.1302    3.2013 C   0  0  0  0  0  0  0  0  0  0  0  0
   25.0625   75.1480    3.8870 C   0  0  0  0  0  0  0  0  0  0  0  0
   24.6820   75.3393    5.3014 C   0  0  0  0  0  0  0  0  0  0  0  0
   23.5091   74.5040    6.7292 H   0  0  0  0  0  0  0  0  0  0  0  0
   21.3575   71.7314   -2.4071 O   0  0  0  0  0  0  0  0  0  0  0  0
   19.7583   71.4984   -2.4450 P   0  0  2  0  0  0  0  0  0  0  0  0
   19.1710   72.8450   -1.7673 O   0  0  0  0  0  0  0  0  0  0  0  0
   19.3060   70.2265   -1.7880 O   0  0  0  0  0  0  0  0  0  0  0  0
   19.3644   71.6220   -4.0053 O   0  0  0  0  0  0  0  0  0  0  0  0
   18.6878   69.9095   -5.4972 O   0  0  0  0  0  0  0  0  0  0  0  0
   20.7576   72.3102   -8.1436 O   0  0  0  0  0  0  0  0  0  0  0  0
   17.8899   72.2111   -8.2640 O   0  0  0  0  0  0  0  0  0  0  0  0
   21.7494   71.9417   -5.4491 O   0  0  0  0  0  0  0  0  0  0  0  0
   19.9226   72.0316   -7.0164 C   0  0  1  0  0  0  0  0  0  0  0  0
   18.6783   71.2924   -7.5124 C   0  0  1  0  0  0  0  0  0  0  0  0
   20.6984   71.1706   -6.0213 C   0  0  2  0  0  0  0  0  0  0  0  0
   17.8662   70.7260   -6.3399 C   0  0  1  0  0  0  0  0  0  0  0  0
   19.7883   70.6175   -4.9232 C   0  0  1  0  0  0  0  0  0  0  0  0
   20.2711   72.8570   -8.7791 H   0  0  0  0  0  0  0  0  0  0  0  0
   18.4145   72.5617   -9.0009 H   0  0  0  0  0  0  0  0  0  0  0  0
   22.3186   72.2858   -6.1544 H   0  0  0  0  0  0  0  0  0  0  0  0
   15.5902   70.6842   -7.0657 O   0  0  0  0  0  0  0  0  0  0  0  0
   16.7079   69.8520   -6.8158 C   0  0  0  0  0  0  0  0  0  0  0  0
   14.8453   70.1415   -7.3696 H   0  0  0  0  0  0  0  0  0  0  0  0
 25 28  1  0
 25 24  1  0
 25 26  1  1
 25 27  2  0
  1  4  1  0
  1 24  1  0
  1  2  1  6
  1  3  2  0
  6 11  1  0
  6 12  1  0
 29 36  1  0
 29 37  1  0
  9  7  1  1
  7 13  1  0
 10  8  1  1
  8 14  1  0
 37 28  1  6
  4  5  1  0
 33 30  1  6
 30 38  1  0
 34 31  1  1
 31 39  1  0
 35 32  1  1
 32 40  1  0
 41 42  1  0
 41 43  1  0
 15 19  2  0
 16 22  2  0
 12 17  1  1
 17 19  1  0
 17 20  1  0
 18 19  1  0
 18 22  1  0
 18 23  1  0
  9 10  1  0
  9 11  1  0
 10 12  1  0
 11  5  1  6
 33 34  1  0
 33 35  1  0
 34 36  1  0
 35 37  1  0
 36 42  1  6
 20 21  2  0
 21 22  1  0
M  CHG  2   2  -1  26  -1
M  END
>  <COMPND>  (418) 
    8629 

>  <AUTHOR>  (418) 
    GENERATED BY OPEN BABEL 3.1.1

>  <MASTER>  (418) 
        0    0    0    0    0    0    0    0   58    0   58    0

>  <minimizedAffinity>  (418) 
-6.72919

>  <CNNscore>  (418) 
0.5242421031

>  <CNNaffinity>  (418) 
4.0738720894

>  <CNN_VS>  (418) 
2.1356952190

>  <CNNaffinity_variance>  (418) 
0.1886838078

$$$$
419
     RDKit          3D

 43 45  0  0  0  0  0  0  0  0999 V2000
   21.9299   72.3699   -5.8069 P   0  0  2  0  0  0  0  0  0  0  0  0
   21.2348   73.6731   -5.1467 O   0  0  0  0  0  0  0  0  0  0  0  0
   23.0435   72.6643   -6.7685 O   0  0  0  0  0  0  0  0  0  0  0  0
   20.6855   71.5291   -6.4091 O   0  0  0  0  0  0  0  0  0  0  0  0
   20.2028   71.8655   -7.6981 C   0  0  0  0  0  0  0  0  0  0  0  0
   18.8786   69.9276   -7.1834 O   0  0  0  0  0  0  0  0  0  0  0  0
   18.0398   69.9675  -10.0619 O   0  0  0  0  0  0  0  0  0  0  0  0
   15.8987   71.0934   -8.8032 O   0  0  0  0  0  0  0  0  0  0  0  0
   18.3000   71.0605   -9.1828 C   0  0  1  0  0  0  0  0  0  0  0  0
   17.1662   71.2193   -8.1913 C   0  0  2  0  0  0  0  0  0  0  0  0
   19.4613   70.6687   -8.2778 C   0  0  1  0  0  0  0  0  0  0  0  0
   17.4523   70.1008   -7.2038 C   0  0  2  0  0  0  0  0  0  0  0  0
   17.3019   70.1944  -10.6501 H   0  0  0  0  0  0  0  0  0  0  0  0
   15.7639   71.8279   -9.4222 H   0  0  0  0  0  0  0  0  0  0  0  0
   16.4403   68.2019   -5.3740 O   0  0  0  0  0  0  0  0  0  0  0  0
   15.7508   71.4135   -2.1410 O   0  0  0  0  0  0  0  0  0  0  0  0
   17.0014   70.4131   -5.8769 N   0  0  0  0  0  0  0  0  0  0  0  0
   16.0980   69.8025   -3.7656 N   0  0  0  0  0  0  0  0  0  0  0  0
   16.5101   69.3859   -5.0379 C   0  0  0  0  0  0  0  0  0  0  0  0
   17.0494   71.7256   -5.4197 C   0  0  0  0  0  0  0  0  0  0  0  0
   16.6513   72.1066   -4.2041 C   0  0  0  0  0  0  0  0  0  0  0  0
   16.1248   71.0948   -3.2655 C   0  0  0  0  0  0  0  0  0  0  0  0
   15.7517   69.1042   -3.1639 H   0  0  0  0  0  0  0  0  0  0  0  0
   22.3671   71.4986   -4.5175 O   0  0  0  0  0  0  0  0  0  0  0  0
   23.3895   71.8294   -3.3099 P   0  0  2  0  0  0  0  0  0  0  0  0
   24.1162   73.1889   -3.8009 O   0  0  0  0  0  0  0  0  0  0  0  0
   24.3318   70.7090   -2.9772 O   0  0  0  0  0  0  0  0  0  0  0  0
   22.4423   72.2919   -2.0878 O   0  0  0  0  0  0  0  0  0  0  0  0
   21.8829   71.2098   -0.0549 O   0  0  0  0  0  0  0  0  0  0  0  0
   18.2314   72.9386   -0.9086 O   0  0  0  0  0  0  0  0  0  0  0  0
   19.8378   73.9977    1.2236 O   0  0  0  0  0  0  0  0  0  0  0  0
   19.8440   71.8399   -3.0468 O   0  0  0  0  0  0  0  0  0  0  0  0
   19.6589   72.8595   -0.8725 C   0  0  1  0  0  0  0  0  0  0  0  0
   20.0962   72.7481    0.5894 C   0  0  1  0  0  0  0  0  0  0  0  0
   20.1111   71.6336   -1.6638 C   0  0  2  0  0  0  0  0  0  0  0  0
   21.5852   72.3923    0.6966 C   0  0  1  0  0  0  0  0  0  0  0  0
   21.5967   71.3390   -1.4489 C   0  0  1  0  0  0  0  0  0  0  0  0
   17.9378   73.7152   -0.4083 H   0  0  0  0  0  0  0  0  0  0  0  0
   18.8943   74.2108    1.1483 H   0  0  0  0  0  0  0  0  0  0  0  0
   18.9004   72.0252   -3.1696 H   0  0  0  0  0  0  0  0  0  0  0  0
   20.8396   71.9987    2.9323 O   0  0  0  0  0  0  0  0  0  0  0  0
   22.0061   72.1217    2.1395 C   0  0  0  0  0  0  0  0  0  0  0  0
   21.0921   71.8259    3.8532 H   0  0  0  0  0  0  0  0  0  0  0  0
 25 28  1  0
 25 24  1  0
 25 26  1  6
 25 27  2  0
  1  4  1  0
  1 24  1  0
  1  2  1  1
  1  3  2  0
  6 11  1  0
  6 12  1  0
 29 36  1  0
 29 37  1  0
  9  7  1  6
  7 13  1  0
 10  8  1  6
  8 14  1  0
 37 28  1  1
  4  5  1  0
 33 30  1  1
 30 38  1  0
 34 31  1  1
 31 39  1  0
 35 32  1  6
 32 40  1  0
 41 42  1  0
 41 43  1  0
 15 19  2  0
 16 22  2  0
 12 17  1  1
 17 19  1  0
 17 20  1  0
 18 19  1  0
 18 22  1  0
 18 23  1  0
  9 10  1  0
  9 11  1  0
 10 12  1  0
 11  5  1  1
 33 34  1  0
 33 35  1  0
 34 36  1  0
 35 37  1  0
 36 42  1  1
 20 21  2  0
 21 22  1  0
M  CHG  2   2  -1  26  -1
M  END
>  <COMPND>  (419) 
    8629 

>  <AUTHOR>  (419) 
    GENERATED BY OPEN BABEL 3.1.1

>  <MASTER>  (419) 
        0    0    0    0    0    0    0    0   58    0   58    0

>  <minimizedAffinity>  (419) 
-7.66887

>  <CNNscore>  (419) 
0.5169366598

>  <CNNaffinity>  (419) 
4.2060055733

>  <CNN_VS>  (419) 
2.1742384434

>  <CNNaffinity_variance>  (419) 
0.4988352656

$$$$
420
     RDKit          3D

 43 45  0  0  0  0  0  0  0  0999 V2000
   22.7262   72.3588   -3.6349 P   0  0  2  0  0  0  0  0  0  0  0  0
   22.1493   70.8481   -3.6825 O   0  0  0  0  0  0  0  0  0  0  0  0
   24.1593   72.5035   -4.0554 O   0  0  0  0  0  0  0  0  0  0  0  0
   22.3798   72.8598   -2.1359 O   0  0  0  0  0  0  0  0  0  0  0  0
   23.3836   72.7603   -1.1409 C   0  0  0  0  0  0  0  0  0  0  0  0
   24.3518   71.2520    0.4596 O   0  0  0  0  0  0  0  0  0  0  0  0
   21.5794   70.1762    0.8431 O   0  0  0  0  0  0  0  0  0  0  0  0
   21.8884   71.8075    3.0064 O   0  0  0  0  0  0  0  0  0  0  0  0
   22.0008   71.5164    0.5952 C   0  0  1  0  0  0  0  0  0  0  0  0
   22.6268   72.1096    1.8401 C   0  0  2  0  0  0  0  0  0  0  0  0
   23.1842   71.4666   -0.3631 C   0  0  1  0  0  0  0  0  0  0  0  0
   24.0036   71.4672    1.8371 C   0  0  2  0  0  0  0  0  0  0  0  0
   20.8241   70.1824    1.4525 H   0  0  0  0  0  0  0  0  0  0  0  0
   21.0208   72.2387    2.9607 H   0  0  0  0  0  0  0  0  0  0  0  0
   26.6711   70.6764    2.3239 O   0  0  0  0  0  0  0  0  0  0  0  0
   27.7371   74.7604    4.1748 O   0  0  0  0  0  0  0  0  0  0  0  0
   24.9997   72.3040    2.4446 N   0  0  0  0  0  0  0  0  0  0  0  0
   27.1998   72.7107    3.2450 N   0  0  0  0  0  0  0  0  0  0  0  0
   26.3099   71.8104    2.6453 C   0  0  0  0  0  0  0  0  0  0  0  0
   24.6735   73.5985    2.8340 C   0  0  0  0  0  0  0  0  0  0  0  0
   25.5334   74.4440    3.4058 C   0  0  0  0  0  0  0  0  0  0  0  0
   26.9229   74.0065    3.6509 C   0  0  0  0  0  0  0  0  0  0  0  0
   28.1182   72.3886    3.3951 H   0  0  0  0  0  0  0  0  0  0  0  0
   21.6720   73.1793   -4.5450 O   0  0  0  0  0  0  0  0  0  0  0  0
   21.4199   73.1758   -6.1417 P   0  0  2  0  0  0  0  0  0  0  0  0
   22.5509   72.1591   -6.6936 O   0  0  0  0  0  0  0  0  0  0  0  0
   21.4507   74.5378   -6.7725 O   0  0  0  0  0  0  0  0  0  0  0  0
   20.0284   72.3809   -6.3338 O   0  0  0  0  0  0  0  0  0  0  0  0
   19.3158   70.2147   -5.6889 O   0  0  0  0  0  0  0  0  0  0  0  0
   17.6045   70.3818   -9.4432 O   0  0  0  0  0  0  0  0  0  0  0  0
   15.9345   70.5675   -7.1141 O   0  0  0  0  0  0  0  0  0  0  0  0
   20.2264   71.5255   -8.9992 O   0  0  0  0  0  0  0  0  0  0  0  0
   18.0450   70.9059   -8.1875 C   0  0  1  0  0  0  0  0  0  0  0  0
   17.3016   70.1678   -7.0724 C   0  0  1  0  0  0  0  0  0  0  0  0
   19.5525   70.6950   -8.0598 C   0  0  2  0  0  0  0  0  0  0  0  0
   17.9089   70.4831   -5.6988 C   0  0  1  0  0  0  0  0  0  0  0  0
   20.0459   70.9895   -6.6420 C   0  0  1  0  0  0  0  0  0  0  0  0
   16.6481   70.5129   -9.5308 H   0  0  0  0  0  0  0  0  0  0  0  0
   15.5631   70.3633   -7.9868 H   0  0  0  0  0  0  0  0  0  0  0  0
   19.9055   71.3292   -9.8927 H   0  0  0  0  0  0  0  0  0  0  0  0
   15.9279   70.0129   -4.4483 O   0  0  0  0  0  0  0  0  0  0  0  0
   17.2856   69.6377   -4.5902 C   0  0  0  0  0  0  0  0  0  0  0  0
   15.5182   69.4827   -3.7463 H   0  0  0  0  0  0  0  0  0  0  0  0
 25 28  1  0
 25 24  1  0
 25 26  1  6
 25 27  2  0
  1  4  1  0
  1 24  1  0
  1  2  1  1
  1  3  2  0
  6 11  1  0
  6 12  1  0
 29 36  1  0
 29 37  1  0
  9  7  1  1
  7 13  1  0
 10  8  1  1
  8 14  1  0
 37 28  1  1
  4  5  1  0
 33 30  1  6
 30 38  1  0
 34 31  1  1
 31 39  1  0
 35 32  1  6
 32 40  1  0
 41 42  1  0
 41 43  1  0
 15 19  2  0
 16 22  2  0
 12 17  1  6
 17 19  1  0
 17 20  1  0
 18 19  1  0
 18 22  1  0
 18 23  1  0
  9 10  1  0
  9 11  1  0
 10 12  1  0
 11  5  1  1
 33 34  1  0
 33 35  1  0
 34 36  1  0
 35 37  1  0
 36 42  1  1
 20 21  2  0
 21 22  1  0
M  CHG  2   2  -1  26  -1
M  END
>  <COMPND>  (420) 
    8629 

>  <AUTHOR>  (420) 
    GENERATED BY OPEN BABEL 3.1.1

>  <MASTER>  (420) 
        0    0    0    0    0    0    0    0   58    0   58    0

>  <minimizedAffinity>  (420) 
-7.98295

>  <CNNscore>  (420) 
0.5079308748

>  <CNNaffinity>  (420) 
4.2268662453

>  <CNN_VS>  (420) 
2.1469559669

>  <CNNaffinity_variance>  (420) 
0.1240315214

$$$$
421
     RDKit          3D

 43 45  0  0  0  0  0  0  0  0999 V2000
   22.1549   72.1471   -2.4528 P   0  0  2  0  0  0  0  0  0  0  0  0
   23.1494   73.3381   -2.9111 O   0  0  0  0  0  0  0  0  0  0  0  0
   22.8103   71.0311   -1.6936 O   0  0  0  0  0  0  0  0  0  0  0  0
   21.4040   71.7200   -3.8209 O   0  0  0  0  0  0  0  0  0  0  0  0
   20.5620   70.5805   -3.8027 C   0  0  0  0  0  0  0  0  0  0  0  0
   18.6897   71.6478   -4.8653 O   0  0  0  0  0  0  0  0  0  0  0  0
   17.0039   70.4102   -2.7165 O   0  0  0  0  0  0  0  0  0  0  0  0
   16.5702   68.7547   -4.8396 O   0  0  0  0  0  0  0  0  0  0  0  0
   18.1524   69.8827   -3.3782 C   0  0  1  0  0  0  0  0  0  0  0  0
   17.7971   69.4538   -4.7866 C   0  0  2  0  0  0  0  0  0  0  0  0
   19.1186   71.0334   -3.6304 C   0  0  1  0  0  0  0  0  0  0  0  0
   17.7437   70.7847   -5.5173 C   0  0  2  0  0  0  0  0  0  0  0  0
   16.3724   69.6936   -2.5445 H   0  0  0  0  0  0  0  0  0  0  0  0
   16.6552   67.9154   -4.3610 H   0  0  0  0  0  0  0  0  0  0  0  0
   15.9346   70.1075   -7.5779 O   0  0  0  0  0  0  0  0  0  0  0  0
   19.2253   70.3475  -10.7958 O   0  0  0  0  0  0  0  0  0  0  0  0
   18.1006   70.6636   -6.9027 N   0  0  0  0  0  0  0  0  0  0  0  0
   17.5745   70.2277   -9.1785 N   0  0  0  0  0  0  0  0  0  0  0  0
   17.1165   70.3177   -7.8579 C   0  0  0  0  0  0  0  0  0  0  0  0
   19.4138   70.8872   -7.3020 C   0  0  0  0  0  0  0  0  0  0  0  0
   19.8346   70.7960   -8.5653 C   0  0  0  0  0  0  0  0  0  0  0  0
   18.8693   70.4393   -9.6250 C   0  0  0  0  0  0  0  0  0  0  0  0
   16.9066   69.9877   -9.8612 H   0  0  0  0  0  0  0  0  0  0  0  0
   21.0018   72.9309   -1.6349 O   0  0  0  0  0  0  0  0  0  0  0  0
   20.2194   72.5481   -0.2732 P   0  0  2  0  0  0  0  0  0  0  0  0
   20.1025   70.9365   -0.3529 O   0  0  0  0  0  0  0  0  0  0  0  0
   18.9074   73.2563   -0.0975 O   0  0  0  0  0  0  0  0  0  0  0  0
   21.2898   72.8215    0.9035 O   0  0  0  0  0  0  0  0  0  0  0  0
   22.6807   71.1028    1.7569 O   0  0  0  0  0  0  0  0  0  0  0  0
   22.6787   73.6317    5.0211 O   0  0  0  0  0  0  0  0  0  0  0  0
   25.0406   73.4072    3.4028 O   0  0  0  0  0  0  0  0  0  0  0  0
   20.2586   73.2678    3.4750 O   0  0  0  0  0  0  0  0  0  0  0  0
   22.6620   73.2997    3.6301 C   0  0  1  0  0  0  0  0  0  0  0  0
   23.9348   72.5135    3.3095 C   0  0  1  0  0  0  0  0  0  0  0  0
   21.4216   72.4594    3.3323 C   0  0  2  0  0  0  0  0  0  0  0  0
   23.8649   71.8944    1.9070 C   0  0  1  0  0  0  0  0  0  0  0  0
   21.4753   71.8504    1.9301 C   0  0  1  0  0  0  0  0  0  0  0  0
   23.4636   74.1657    5.2168 H   0  0  0  0  0  0  0  0  0  0  0  0
   25.0730   73.7916    4.2930 H   0  0  0  0  0  0  0  0  0  0  0  0
   20.2361   73.6472    4.3668 H   0  0  0  0  0  0  0  0  0  0  0  0
   25.0574   69.9401    2.5909 O   0  0  0  0  0  0  0  0  0  0  0  0
   25.0532   70.9770    1.6270 C   0  0  0  0  0  0  0  0  0  0  0  0
   25.8082   69.3482    2.4249 H   0  0  0  0  0  0  0  0  0  0  0  0
 25 28  1  0
 25 24  1  0
 25 26  1  6
 25 27  2  0
  1  4  1  0
  1 24  1  0
  1  2  1  6
  1  3  2  0
  6 11  1  0
  6 12  1  0
 29 36  1  0
 29 37  1  0
  9  7  1  6
  7 13  1  0
 10  8  1  1
  8 14  1  0
 37 28  1  6
  4  5  1  0
 33 30  1  1
 30 38  1  0
 34 31  1  6
 31 39  1  0
 35 32  1  6
 32 40  1  0
 41 42  1  0
 41 43  1  0
 15 19  2  0
 16 22  2  0
 12 17  1  6
 17 19  1  0
 17 20  1  0
 18 19  1  0
 18 22  1  0
 18 23  1  0
  9 10  1  0
  9 11  1  0
 10 12  1  0
 11  5  1  6
 33 34  1  0
 33 35  1  0
 34 36  1  0
 35 37  1  0
 36 42  1  1
 20 21  2  0
 21 22  1  0
M  CHG  2   2  -1  26  -1
M  END
>  <COMPND>  (421) 
    8629 

>  <AUTHOR>  (421) 
    GENERATED BY OPEN BABEL 3.1.1

>  <MASTER>  (421) 
        0    0    0    0    0    0    0    0   58    0   58    0

>  <minimizedAffinity>  (421) 
-7.30543

>  <CNNscore>  (421) 
0.9241040349

>  <CNNaffinity>  (421) 
4.7600774765

>  <CNN_VS>  (421) 
4.3988065720

>  <CNNaffinity_variance>  (421) 
0.0319690481

$$$$
422
     RDKit          3D

 43 45  0  0  0  0  0  0  0  0999 V2000
   20.6627   71.3572   -1.5611 P   0  0  2  0  0  0  0  0  0  0  0  0
   21.2596   70.5669   -0.2818 O   0  0  0  0  0  0  0  0  0  0  0  0
   20.2563   72.7770   -1.2958 O   0  0  0  0  0  0  0  0  0  0  0  0
   19.4933   70.3823   -2.1090 O   0  0  0  0  0  0  0  0  0  0  0  0
   19.1705   70.4224   -3.4881 C   0  0  0  0  0  0  0  0  0  0  0  0
   17.5018   71.4136   -4.9047 O   0  0  0  0  0  0  0  0  0  0  0  0
   15.4924   69.8697   -3.3016 O   0  0  0  0  0  0  0  0  0  0  0  0
   15.7353   68.3621   -5.5610 O   0  0  0  0  0  0  0  0  0  0  0  0
   16.8107   69.4948   -3.6978 C   0  0  1  0  0  0  0  0  0  0  0  0
   16.8395   69.1539   -5.1731 C   0  0  2  0  0  0  0  0  0  0  0  0
   17.6891   70.7385   -3.6416 C   0  0  1  0  0  0  0  0  0  0  0  0
   16.8257   70.5308   -5.8150 C   0  0  2  0  0  0  0  0  0  0  0  0
   14.9131   69.0915   -3.3294 H   0  0  0  0  0  0  0  0  0  0  0  0
   15.7894   67.4965   -5.1266 H   0  0  0  0  0  0  0  0  0  0  0  0
   15.5321   70.6190   -8.3243 O   0  0  0  0  0  0  0  0  0  0  0  0
   19.5416   70.6105  -10.5969 O   0  0  0  0  0  0  0  0  0  0  0  0
   17.5071   70.5529   -7.0785 N   0  0  0  0  0  0  0  0  0  0  0  0
   17.5296   70.6149   -9.4538 N   0  0  0  0  0  0  0  0  0  0  0  0
   16.7639   70.5962   -8.2811 C   0  0  0  0  0  0  0  0  0  0  0  0
   18.8971   70.5319   -7.1167 C   0  0  0  0  0  0  0  0  0  0  0  0
   19.6123   70.5489   -8.2434 C   0  0  0  0  0  0  0  0  0  0  0  0
   18.9124   70.5941   -9.5435 C   0  0  0  0  0  0  0  0  0  0  0  0
   17.0333   70.6447  -10.3039 H   0  0  0  0  0  0  0  0  0  0  0  0
   21.8269   71.1866   -2.6694 O   0  0  0  0  0  0  0  0  0  0  0  0
   23.2479   71.9379   -2.8406 P   0  0  2  0  0  0  0  0  0  0  0  0
   24.2974   70.7162   -2.9945 O   0  0  0  0  0  0  0  0  0  0  0  0
   23.5735   72.8983   -1.7336 O   0  0  0  0  0  0  0  0  0  0  0  0
   23.1824   72.6062   -4.3083 O   0  0  0  0  0  0  0  0  0  0  0  0
   21.0649   73.6701   -4.3402 O   0  0  0  0  0  0  0  0  0  0  0  0
   22.4398   74.8251   -8.0587 O   0  0  0  0  0  0  0  0  0  0  0  0
   22.2964   76.7558   -5.9374 O   0  0  0  0  0  0  0  0  0  0  0  0
   23.0044   72.1623   -7.0735 O   0  0  0  0  0  0  0  0  0  0  0  0
   22.5546   74.4943   -6.6720 C   0  0  1  0  0  0  0  0  0  0  0  0
   21.6875   75.4692   -5.8730 C   0  0  1  0  0  0  0  0  0  0  0  0
   22.0821   73.0571   -6.4609 C   0  0  2  0  0  0  0  0  0  0  0  0
   21.5469   75.0170   -4.4132 C   0  0  1  0  0  0  0  0  0  0  0  0
   21.9286   72.7254   -4.9755 C   0  0  1  0  0  0  0  0  0  0  0  0
   22.7387   75.7363   -8.1996 H   0  0  0  0  0  0  0  0  0  0  0  0
   22.3798   77.0294   -6.8644 H   0  0  0  0  0  0  0  0  0  0  0  0
   23.0925   72.3825   -8.0135 H   0  0  0  0  0  0  0  0  0  0  0  0
   19.5779   75.0461   -3.0600 O   0  0  0  0  0  0  0  0  0  0  0  0
   20.5598   75.8867   -3.6377 C   0  0  0  0  0  0  0  0  0  0  0  0
   18.9429   75.5860   -2.5630 H   0  0  0  0  0  0  0  0  0  0  0  0
 25 28  1  0
 25 24  1  0
 25 26  1  6
 25 27  2  0
  1  4  1  0
  1 24  1  0
  1  2  1  1
  1  3  2  0
  6 11  1  0
  6 12  1  0
 29 36  1  0
 29 37  1  0
  9  7  1  6
  7 13  1  0
 10  8  1  6
  8 14  1  0
 37 28  1  1
  4  5  1  0
 33 30  1  6
 30 38  1  0
 34 31  1  1
 31 39  1  0
 35 32  1  1
 32 40  1  0
 41 42  1  0
 41 43  1  0
 15 19  2  0
 16 22  2  0
 12 17  1  6
 17 19  1  0
 17 20  1  0
 18 19  1  0
 18 22  1  0
 18 23  1  0
  9 10  1  0
  9 11  1  0
 10 12  1  0
 11  5  1  6
 33 34  1  0
 33 35  1  0
 34 36  1  0
 35 37  1  0
 36 42  1  1
 20 21  2  0
 21 22  1  0
M  CHG  2   2  -1  26  -1
M  END
>  <COMPND>  (422) 
    8629 

>  <AUTHOR>  (422) 
    GENERATED BY OPEN BABEL 3.1.1

>  <MASTER>  (422) 
        0    0    0    0    0    0    0    0   58    0   58    0

>  <minimizedAffinity>  (422) 
-7.97591

>  <CNNscore>  (422) 
0.9195622206

>  <CNNaffinity>  (422) 
4.7137994766

>  <CNN_VS>  (422) 
4.3346319199

>  <CNNaffinity_variance>  (422) 
0.4896000028

$$$$
423
     RDKit          3D

 43 45  0  0  0  0  0  0  0  0999 V2000
   23.4108   71.9491   -3.2760 P   0  0  2  0  0  0  0  0  0  0  0  0
   24.2391   72.9553   -4.2345 O   0  0  0  0  0  0  0  0  0  0  0  0
   24.0841   70.6363   -3.0026 O   0  0  0  0  0  0  0  0  0  0  0  0
   21.9536   71.8596   -3.9735 O   0  0  0  0  0  0  0  0  0  0  0  0
   21.1939   70.6757   -3.8027 C   0  0  0  0  0  0  0  0  0  0  0  0
   19.1616   71.6515   -4.6342 O   0  0  0  0  0  0  0  0  0  0  0  0
   17.7952   70.3157   -2.3235 O   0  0  0  0  0  0  0  0  0  0  0  0
   17.2076   68.6529   -4.4035 O   0  0  0  0  0  0  0  0  0  0  0  0
   18.8864   69.8521   -3.1170 C   0  0  1  0  0  0  0  0  0  0  0  0
   18.3957   69.4140   -4.4812 C   0  0  2  0  0  0  0  0  0  0  0  0
   19.7583   71.0526   -3.4631 C   0  0  1  0  0  0  0  0  0  0  0  0
   18.1926   70.7448   -5.1853 C   0  0  2  0  0  0  0  0  0  0  0  0
   17.2243   69.5664   -2.0898 H   0  0  0  0  0  0  0  0  0  0  0  0
   17.3887   67.8162   -3.9476 H   0  0  0  0  0  0  0  0  0  0  0  0
   16.2202   69.9131   -7.0281 O   0  0  0  0  0  0  0  0  0  0  0  0
   19.0847   70.4206  -10.6027 O   0  0  0  0  0  0  0  0  0  0  0  0
   18.3957   70.6507   -6.6035 N   0  0  0  0  0  0  0  0  0  0  0  0
   17.6480   70.1666   -8.8065 N   0  0  0  0  0  0  0  0  0  0  0  0
   17.3400   70.2211   -7.4411 C   0  0  0  0  0  0  0  0  0  0  0  0
   19.6304   70.9827   -7.1503 C   0  0  0  0  0  0  0  0  0  0  0  0
   19.9084   70.9241   -8.4543 C   0  0  0  0  0  0  0  0  0  0  0  0
   18.8602   70.4850   -9.3980 C   0  0  0  0  0  0  0  0  0  0  0  0
   16.9280   69.8697   -9.4092 H   0  0  0  0  0  0  0  0  0  0  0  0
   23.1300   72.8476   -1.9619 O   0  0  0  0  0  0  0  0  0  0  0  0
   22.0510   72.6775   -0.7703 P   0  0  2  0  0  0  0  0  0  0  0  0
   21.9457   71.0730   -0.5913 O   0  0  0  0  0  0  0  0  0  0  0  0
   20.7383   73.3594   -1.0269 O   0  0  0  0  0  0  0  0  0  0  0  0
   22.8212   73.1857    0.5539 O   0  0  0  0  0  0  0  0  0  0  0  0
   24.8145   72.6622    1.7241 O   0  0  0  0  0  0  0  0  0  0  0  0
   22.1637   72.6333    4.8901 O   0  0  0  0  0  0  0  0  0  0  0  0
   24.0349   74.7960    4.6271 O   0  0  0  0  0  0  0  0  0  0  0  0
   21.3563   71.5714    2.3210 O   0  0  0  0  0  0  0  0  0  0  0  0
   22.6944   73.0791    3.6391 C   0  0  1  0  0  0  0  0  0  0  0  0
   24.1177   73.5881    3.8760 C   0  0  1  0  0  0  0  0  0  0  0  0
   22.6978   71.9118    2.6538 C   0  0  2  0  0  0  0  0  0  0  0  0
   24.8465   73.8335    2.5479 C   0  0  1  0  0  0  0  0  0  0  0  0
   23.4902   72.2434    1.3880 C   0  0  1  0  0  0  0  0  0  0  0  0
   22.1584   73.3699    5.5201 H   0  0  0  0  0  0  0  0  0  0  0  0
   23.5722   74.6274    5.4630 H   0  0  0  0  0  0  0  0  0  0  0  0
   20.8653   71.3633    3.1307 H   0  0  0  0  0  0  0  0  0  0  0  0
   26.7140   73.7189    4.0339 O   0  0  0  0  0  0  0  0  0  0  0  0
   26.3162   74.1900    2.7595 C   0  0  0  0  0  0  0  0  0  0  0  0
   27.6475   73.9385    4.1823 H   0  0  0  0  0  0  0  0  0  0  0  0
 25 28  1  0
 25 24  1  0
 25 26  1  1
 25 27  2  0
  1  4  1  0
  1 24  1  0
  1  2  1  6
  1  3  2  0
  6 11  1  0
  6 12  1  0
 29 36  1  0
 29 37  1  0
  9  7  1  1
  7 13  1  0
 10  8  1  1
  8 14  1  0
 37 28  1  1
  4  5  1  0
 33 30  1  1
 30 38  1  0
 34 31  1  6
 31 39  1  0
 35 32  1  6
 32 40  1  0
 41 42  1  0
 41 43  1  0
 15 19  2  0
 16 22  2  0
 12 17  1  6
 17 19  1  0
 17 20  1  0
 18 19  1  0
 18 22  1  0
 18 23  1  0
  9 10  1  0
  9 11  1  0
 10 12  1  0
 11  5  1  6
 33 34  1  0
 33 35  1  0
 34 36  1  0
 35 37  1  0
 36 42  1  1
 20 21  2  0
 21 22  1  0
M  CHG  2   2  -1  26  -1
M  END
>  <COMPND>  (423) 
    8629 

>  <AUTHOR>  (423) 
    GENERATED BY OPEN BABEL 3.1.1

>  <MASTER>  (423) 
        0    0    0    0    0    0    0    0   58    0   58    0

>  <minimizedAffinity>  (423) 
-7.71626

>  <CNNscore>  (423) 
0.8987976313

>  <CNNaffinity>  (423) 
4.6506257057

>  <CNN_VS>  (423) 
4.1799712181

>  <CNNaffinity_variance>  (423) 
0.0402190536

$$$$
424
     RDKit          3D

 43 45  0  0  0  0  0  0  0  0999 V2000
   20.1698   71.3692   -1.1492 P   0  0  2  0  0  0  0  0  0  0  0  0
   20.8726   70.5475    0.0543 O   0  0  0  0  0  0  0  0  0  0  0  0
   19.3134   72.5219   -0.7141 O   0  0  0  0  0  0  0  0  0  0  0  0
   19.4215   70.2255   -2.0152 O   0  0  0  0  0  0  0  0  0  0  0  0
   19.1454   70.4837   -3.3809 C   0  0  0  0  0  0  0  0  0  0  0  0
   17.4678   71.4496   -4.8044 O   0  0  0  0  0  0  0  0  0  0  0  0
   15.4743   69.8841   -3.2026 O   0  0  0  0  0  0  0  0  0  0  0  0
   15.7425   68.3740   -5.4574 O   0  0  0  0  0  0  0  0  0  0  0  0
   16.7983   69.5253   -3.5943 C   0  0  1  0  0  0  0  0  0  0  0  0
   16.8354   69.1810   -5.0687 C   0  0  2  0  0  0  0  0  0  0  0  0
   17.6604   70.7803   -3.5390 C   0  0  1  0  0  0  0  0  0  0  0  0
   16.8056   70.5560   -5.7141 C   0  0  2  0  0  0  0  0  0  0  0  0
   14.9051   69.0985   -3.2298 H   0  0  0  0  0  0  0  0  0  0  0  0
   15.8065   67.5104   -5.0206 H   0  0  0  0  0  0  0  0  0  0  0  0
   15.5182   70.5527   -8.2282 O   0  0  0  0  0  0  0  0  0  0  0  0
   19.5329   70.6619  -10.4891 O   0  0  0  0  0  0  0  0  0  0  0  0
   17.4900   70.5835   -6.9760 N   0  0  0  0  0  0  0  0  0  0  0  0
   17.5183   70.6073   -9.3519 N   0  0  0  0  0  0  0  0  0  0  0  0
   16.7498   70.5783   -8.1812 C   0  0  0  0  0  0  0  0  0  0  0  0
   18.8799   70.6158   -7.0099 C   0  0  0  0  0  0  0  0  0  0  0  0
   19.5978   70.6418   -8.1347 C   0  0  0  0  0  0  0  0  0  0  0  0
   18.9012   70.6385   -9.4373 C   0  0  0  0  0  0  0  0  0  0  0  0
   17.0241   70.6038  -10.2037 H   0  0  0  0  0  0  0  0  0  0  0  0
   21.4199   71.7771   -2.0893 O   0  0  0  0  0  0  0  0  0  0  0  0
   22.3830   73.0752   -2.0708 P   0  0  2  0  0  0  0  0  0  0  0  0
   21.4461   74.2411   -2.6876 O   0  0  0  0  0  0  0  0  0  0  0  0
   23.6874   72.8841   -2.7891 O   0  0  0  0  0  0  0  0  0  0  0  0
   22.5289   73.4533   -0.5085 O   0  0  0  0  0  0  0  0  0  0  0  0
   23.9751   74.5315    1.0286 O   0  0  0  0  0  0  0  0  0  0  0  0
   23.8651   70.7785    2.7473 O   0  0  0  0  0  0  0  0  0  0  0  0
   22.4832   72.9570    4.0092 O   0  0  0  0  0  0  0  0  0  0  0  0
   23.9214   71.0458   -0.1345 O   0  0  0  0  0  0  0  0  0  0  0  0
   23.3371   71.9033    2.0391 C   0  0  1  0  0  0  0  0  0  0  0  0
   23.4229   73.1281    2.9519 C   0  0  1  0  0  0  0  0  0  0  0  0
   24.1553   72.1217    0.7679 C   0  0  2  0  0  0  0  0  0  0  0  0
   23.1258   74.4187    2.1765 C   0  0  1  0  0  0  0  0  0  0  0  0
   23.8173   73.4562    0.1009 C   0  0  1  0  0  0  0  0  0  0  0  0
   23.3496   70.6341    3.5554 H   0  0  0  0  0  0  0  0  0  0  0  0
   22.6816   72.1384    4.4905 H   0  0  0  0  0  0  0  0  0  0  0  0
   24.1395   70.2068    0.2994 H   0  0  0  0  0  0  0  0  0  0  0  0
   22.1474   76.3919    3.1028 O   0  0  0  0  0  0  0  0  0  0  0  0
   23.3596   75.6644    3.0285 C   0  0  0  0  0  0  0  0  0  0  0  0
   22.2810   77.1874    3.6424 H   0  0  0  0  0  0  0  0  0  0  0  0
 25 28  1  0
 25 24  1  0
 25 26  1  6
 25 27  2  0
  1  4  1  0
  1 24  1  0
  1  2  1  1
  1  3  2  0
  6 11  1  0
  6 12  1  0
 29 36  1  0
 29 37  1  0
  9  7  1  6
  7 13  1  0
 10  8  1  6
  8 14  1  0
 37 28  1  1
  4  5  1  0
 33 30  1  1
 30 38  1  0
 34 31  1  1
 31 39  1  0
 35 32  1  6
 32 40  1  0
 41 42  1  0
 41 43  1  0
 15 19  2  0
 16 22  2  0
 12 17  1  6
 17 19  1  0
 17 20  1  0
 18 19  1  0
 18 22  1  0
 18 23  1  0
  9 10  1  0
  9 11  1  0
 10 12  1  0
 11  5  1  6
 33 34  1  0
 33 35  1  0
 34 36  1  0
 35 37  1  0
 36 42  1  1
 20 21  2  0
 21 22  1  0
M  CHG  2   2  -1  26  -1
M  END
>  <COMPND>  (424) 
    8629 

>  <AUTHOR>  (424) 
    GENERATED BY OPEN BABEL 3.1.1

>  <MASTER>  (424) 
        0    0    0    0    0    0    0    0   58    0   58    0

>  <minimizedAffinity>  (424) 
-7.38314

>  <CNNscore>  (424) 
0.8969195485

>  <CNNaffinity>  (424) 
4.7791490555

>  <CNN_VS>  (424) 
4.2865123749

>  <CNNaffinity_variance>  (424) 
0.1075412780

$$$$
425
     RDKit          3D

 43 45  0  0  0  0  0  0  0  0999 V2000
   23.4559   71.9476   -3.4346 P   0  0  2  0  0  0  0  0  0  0  0  0
   24.2131   72.9681   -4.4360 O   0  0  0  0  0  0  0  0  0  0  0  0
   24.2704   70.7645   -3.0006 O   0  0  0  0  0  0  0  0  0  0  0  0
   22.0730   71.6052   -4.2016 O   0  0  0  0  0  0  0  0  0  0  0  0
   21.2764   70.5390   -3.7155 C   0  0  0  0  0  0  0  0  0  0  0  0
   19.3365   71.6903   -4.5431 O   0  0  0  0  0  0  0  0  0  0  0  0
   17.8928   70.5814   -2.1605 O   0  0  0  0  0  0  0  0  0  0  0  0
   17.0915   68.9186   -4.1679 O   0  0  0  0  0  0  0  0  0  0  0  0
   18.9127   69.9812   -2.9573 C   0  0  1  0  0  0  0  0  0  0  0  0
   18.3492   69.5501   -4.2953 C   0  0  2  0  0  0  0  0  0  0  0  0
   19.8949   71.0731   -3.3627 C   0  0  1  0  0  0  0  0  0  0  0  0
   18.2676   70.8701   -5.0429 C   0  0  2  0  0  0  0  0  0  0  0  0
   17.2536   69.9033   -1.8892 H   0  0  0  0  0  0  0  0  0  0  0  0
   17.1962   68.0836   -3.6856 H   0  0  0  0  0  0  0  0  0  0  0  0
   16.1934   70.1228   -6.8084 O   0  0  0  0  0  0  0  0  0  0  0  0
   18.9993   70.2757  -10.4614 O   0  0  0  0  0  0  0  0  0  0  0  0
   18.4281   70.7076   -6.4603 N   0  0  0  0  0  0  0  0  0  0  0  0
   17.5922   70.1997   -8.6259 N   0  0  0  0  0  0  0  0  0  0  0  0
   17.3228   70.3287   -7.2574 C   0  0  0  0  0  0  0  0  0  0  0  0
   19.6706   70.9237   -7.0463 C   0  0  0  0  0  0  0  0  0  0  0  0
   19.9112   70.7952   -8.3528 C   0  0  0  0  0  0  0  0  0  0  0  0
   18.8100   70.4023   -9.2556 C   0  0  0  0  0  0  0  0  0  0  0  0
   16.8372   69.9362   -9.2007 H   0  0  0  0  0  0  0  0  0  0  0  0
   22.9742   72.9113   -2.2296 O   0  0  0  0  0  0  0  0  0  0  0  0
   22.5536   72.5756   -0.7053 P   0  0  2  0  0  0  0  0  0  0  0  0
   23.6760   73.3470    0.1678 O   0  0  0  0  0  0  0  0  0  0  0  0
   22.4378   71.1086   -0.4078 O   0  0  0  0  0  0  0  0  0  0  0  0
   21.1979   73.4166   -0.4610 O   0  0  0  0  0  0  0  0  0  0  0  0
   20.2469   72.7126    1.5925 O   0  0  0  0  0  0  0  0  0  0  0  0
   17.2825   75.3029    0.3462 O   0  0  0  0  0  0  0  0  0  0  0  0
   19.0042   76.0576    2.5174 O   0  0  0  0  0  0  0  0  0  0  0  0
   18.6335   73.6193   -1.5825 O   0  0  0  0  0  0  0  0  0  0  0  0
   18.6257   74.8355    0.4965 C   0  0  1  0  0  0  0  0  0  0  0  0
   18.9340   74.7351    1.9917 C   0  0  1  0  0  0  0  0  0  0  0  0
   18.7562   73.4683   -0.1723 C   0  0  2  0  0  0  0  0  0  0  0  0
   20.2543   73.9921    2.2365 C   0  0  1  0  0  0  0  0  0  0  0  0
   20.0847   72.7941    0.1751 C   0  0  1  0  0  0  0  0  0  0  0  0
   17.1930   76.1709    0.7683 H   0  0  0  0  0  0  0  0  0  0  0  0
   18.1646   76.5160    2.3559 H   0  0  0  0  0  0  0  0  0  0  0  0
   17.7884   74.0469   -1.7894 H   0  0  0  0  0  0  0  0  0  0  0  0
   19.2534   73.7022    4.3866 O   0  0  0  0  0  0  0  0  0  0  0  0
   20.5030   73.7421    3.7223 C   0  0  0  0  0  0  0  0  0  0  0  0
   19.3961   73.5435    5.3333 H   0  0  0  0  0  0  0  0  0  0  0  0
 25 28  1  0
 25 24  1  0
 25 26  1  1
 25 27  2  0
  1  4  1  0
  1 24  1  0
  1  2  1  6
  1  3  2  0
  6 11  1  0
  6 12  1  0
 29 36  1  0
 29 37  1  0
  9  7  1  1
  7 13  1  0
 10  8  1  1
  8 14  1  0
 37 28  1  6
  4  5  1  0
 33 30  1  1
 30 38  1  0
 34 31  1  6
 31 39  1  0
 35 32  1  6
 32 40  1  0
 41 42  1  0
 41 43  1  0
 15 19  2  0
 16 22  2  0
 12 17  1  6
 17 19  1  0
 17 20  1  0
 18 19  1  0
 18 22  1  0
 18 23  1  0
  9 10  1  0
  9 11  1  0
 10 12  1  0
 11  5  1  6
 33 34  1  0
 33 35  1  0
 34 36  1  0
 35 37  1  0
 36 42  1  1
 20 21  2  0
 21 22  1  0
M  CHG  2   2  -1  26  -1
M  END
>  <COMPND>  (425) 
    8629 

>  <AUTHOR>  (425) 
    GENERATED BY OPEN BABEL 3.1.1

>  <MASTER>  (425) 
        0    0    0    0    0    0    0    0   58    0   58    0

>  <minimizedAffinity>  (425) 
-6.77945

>  <CNNscore>  (425) 
0.8774525523

>  <CNNaffinity>  (425) 
4.5654983521

>  <CNN_VS>  (425) 
4.0060081482

>  <CNNaffinity_variance>  (425) 
0.0131268548

$$$$
426
     RDKit          3D

 43 45  0  0  0  0  0  0  0  0999 V2000
   22.3602   72.2948   -2.0227 P   0  0  2  0  0  0  0  0  0  0  0  0
   23.0201   73.7181   -2.4179 O   0  0  0  0  0  0  0  0  0  0  0  0
   23.0085   71.0983   -2.6548 O   0  0  0  0  0  0  0  0  0  0  0  0
   20.7870   72.4934   -2.3445 O   0  0  0  0  0  0  0  0  0  0  0  0
   20.2510   71.8788   -3.5032 C   0  0  0  0  0  0  0  0  0  0  0  0
   18.1341   72.0911   -4.6201 O   0  0  0  0  0  0  0  0  0  0  0  0
   16.9996   70.4517   -2.3804 O   0  0  0  0  0  0  0  0  0  0  0  0
   17.2588   68.6211   -4.3849 O   0  0  0  0  0  0  0  0  0  0  0  0
   18.2739   70.3539   -3.0144 C   0  0  1  0  0  0  0  0  0  0  0  0
   18.1314   69.7326   -4.3882 C   0  0  2  0  0  0  0  0  0  0  0  0
   18.7404   71.7649   -3.3503 C   0  0  1  0  0  0  0  0  0  0  0  0
   17.5942   70.8951   -5.2056 C   0  0  2  0  0  0  0  0  0  0  0  0
   16.6812   69.5628   -2.1561 H   0  0  0  0  0  0  0  0  0  0  0  0
   17.6448   67.9084   -3.8521 H   0  0  0  0  0  0  0  0  0  0  0  0
   15.8725   70.2107   -7.3375 O   0  0  0  0  0  0  0  0  0  0  0  0
   19.2427   70.6681  -10.4478 O   0  0  0  0  0  0  0  0  0  0  0  0
   17.9952   70.8279   -6.5826 N   0  0  0  0  0  0  0  0  0  0  0  0
   17.5519   70.4392   -8.8845 N   0  0  0  0  0  0  0  0  0  0  0  0
   17.0531   70.4733   -7.5761 C   0  0  0  0  0  0  0  0  0  0  0  0
   19.3098   71.1123   -6.9361 C   0  0  0  0  0  0  0  0  0  0  0  0
   19.7700   71.0739   -8.1883 C   0  0  0  0  0  0  0  0  0  0  0  0
   18.8500   70.7122   -9.2860 C   0  0  0  0  0  0  0  0  0  0  0  0
   16.9137   70.1942   -9.5933 H   0  0  0  0  0  0  0  0  0  0  0  0
   22.4052   72.3093   -0.4070 O   0  0  0  0  0  0  0  0  0  0  0  0
   22.0119   71.1758    0.6762 P   0  0  2  0  0  0  0  0  0  0  0  0
   23.4253   70.4517    0.9854 O   0  0  0  0  0  0  0  0  0  0  0  0
   20.9245   70.2442    0.2248 O   0  0  0  0  0  0  0  0  0  0  0  0
   21.6720   71.9980    2.0228 O   0  0  0  0  0  0  0  0  0  0  0  0
   20.9938   74.2467    2.3386 O   0  0  0  0  0  0  0  0  0  0  0  0
   23.4631   73.8351    5.6224 O   0  0  0  0  0  0  0  0  0  0  0  0
   20.6172   73.9430    5.9930 O   0  0  0  0  0  0  0  0  0  0  0  0
   24.1892   72.6020    3.1062 O   0  0  0  0  0  0  0  0  0  0  0  0
   22.5157   73.4025    4.6422 C   0  0  1  0  0  0  0  0  0  0  0  0
   21.2644   74.2740    4.7675 C   0  0  1  0  0  0  0  0  0  0  0  0
   23.1341   73.5462    3.2529 C   0  0  2  0  0  0  0  0  0  0  0  0
   20.3134   74.0511    3.5838 C   0  0  1  0  0  0  0  0  0  0  0  0
   22.0930   73.3537    2.1486 C   0  0  1  0  0  0  0  0  0  0  0  0
   23.0768   73.7459    6.5070 H   0  0  0  0  0  0  0  0  0  0  0  0
   21.2285   74.0877    6.7322 H   0  0  0  0  0  0  0  0  0  0  0  0
   24.8418   72.7344    3.8108 H   0  0  0  0  0  0  0  0  0  0  0  0
   18.2815   74.7183    2.5184 O   0  0  0  0  0  0  0  0  0  0  0  0
   19.1353   75.0226    3.6059 C   0  0  0  0  0  0  0  0  0  0  0  0
   17.5269   75.3285    2.5199 H   0  0  0  0  0  0  0  0  0  0  0  0
 25 28  1  0
 25 24  1  0
 25 26  1  1
 25 27  2  0
  1  4  1  0
  1 24  1  0
  1  2  1  6
  1  3  2  0
  6 11  1  0
  6 12  1  0
 29 36  1  0
 29 37  1  0
  9  7  1  6
  7 13  1  0
 10  8  1  1
  8 14  1  0
 37 28  1  1
  4  5  1  0
 33 30  1  1
 30 38  1  0
 34 31  1  1
 31 39  1  0
 35 32  1  6
 32 40  1  0
 41 42  1  0
 41 43  1  0
 15 19  2  0
 16 22  2  0
 12 17  1  6
 17 19  1  0
 17 20  1  0
 18 19  1  0
 18 22  1  0
 18 23  1  0
  9 10  1  0
  9 11  1  0
 10 12  1  0
 11  5  1  6
 33 34  1  0
 33 35  1  0
 34 36  1  0
 35 37  1  0
 36 42  1  1
 20 21  2  0
 21 22  1  0
M  CHG  2   2  -1  26  -1
M  END
>  <COMPND>  (426) 
    8629 

>  <AUTHOR>  (426) 
    GENERATED BY OPEN BABEL 3.1.1

>  <MASTER>  (426) 
        0    0    0    0    0    0    0    0   58    0   58    0

>  <minimizedAffinity>  (426) 
-6.75716

>  <CNNscore>  (426) 
0.8465520144

>  <CNNaffinity>  (426) 
4.6062994003

>  <CNN_VS>  (426) 
3.8994719982

>  <CNNaffinity_variance>  (426) 
0.0443393141

$$$$
427
     RDKit          3D

 43 45  0  0  0  0  0  0  0  0999 V2000
   22.8428   72.1260   -3.9629 P   0  0  2  0  0  0  0  0  0  0  0  0
   23.4043   73.0084   -5.1971 O   0  0  0  0  0  0  0  0  0  0  0  0
   23.8630   71.2547   -3.2910 O   0  0  0  0  0  0  0  0  0  0  0  0
   21.5629   71.3569   -4.5859 O   0  0  0  0  0  0  0  0  0  0  0  0
   20.8716   70.4255   -3.7720 C   0  0  0  0  0  0  0  0  0  0  0  0
   18.9982   71.6069   -4.7037 O   0  0  0  0  0  0  0  0  0  0  0  0
   17.3778   70.4098   -2.4829 O   0  0  0  0  0  0  0  0  0  0  0  0
   16.7390   68.8231   -4.6068 O   0  0  0  0  0  0  0  0  0  0  0  0
   18.4580   69.8397   -3.2201 C   0  0  1  0  0  0  0  0  0  0  0  0
   18.0010   69.4589   -4.6128 C   0  0  2  0  0  0  0  0  0  0  0  0
   19.4655   70.9460   -3.5074 C   0  0  1  0  0  0  0  0  0  0  0  0
   17.9735   70.8059   -5.3148 C   0  0  2  0  0  0  0  0  0  0  0  0
   16.7216   69.7220   -2.2873 H   0  0  0  0  0  0  0  0  0  0  0  0
   16.8085   67.9706   -4.1493 H   0  0  0  0  0  0  0  0  0  0  0  0
   16.0187   70.2524   -7.2770 O   0  0  0  0  0  0  0  0  0  0  0  0
   19.1250   70.4077  -10.6781 O   0  0  0  0  0  0  0  0  0  0  0  0
   18.2436   70.6965   -6.7207 N   0  0  0  0  0  0  0  0  0  0  0  0
   17.5669   70.3303   -8.9689 N   0  0  0  0  0  0  0  0  0  0  0  0
   17.1909   70.4146   -7.6222 C   0  0  0  0  0  0  0  0  0  0  0  0
   19.5404   70.8684   -7.1927 C   0  0  0  0  0  0  0  0  0  0  0  0
   19.8826   70.7836   -8.4799 C   0  0  0  0  0  0  0  0  0  0  0  0
   18.8421   70.4921   -9.4870 C   0  0  0  0  0  0  0  0  0  0  0  0
   16.8502   70.1344   -9.6152 H   0  0  0  0  0  0  0  0  0  0  0  0
   22.1671   73.2353   -3.0007 O   0  0  0  0  0  0  0  0  0  0  0  0
   22.8270   74.2807   -1.9592 P   0  0  2  0  0  0  0  0  0  0  0  0
   21.9929   75.6420   -2.2213 O   0  0  0  0  0  0  0  0  0  0  0  0
   24.3146   74.4299   -2.0964 O   0  0  0  0  0  0  0  0  0  0  0  0
   22.3365   73.7753   -0.5070 O   0  0  0  0  0  0  0  0  0  0  0  0
   23.0718   71.5675   -0.0580 O   0  0  0  0  0  0  0  0  0  0  0  0
   20.4932   72.0651    3.1286 O   0  0  0  0  0  0  0  0  0  0  0  0
   23.3285   72.0652    3.5856 O   0  0  0  0  0  0  0  0  0  0  0  0
   19.8068   73.1475    0.5330 O   0  0  0  0  0  0  0  0  0  0  0  0
   21.4564   72.4776    2.1552 C   0  0  1  0  0  0  0  0  0  0  0  0
   22.7288   71.6533    2.3604 C   0  0  1  0  0  0  0  0  0  0  0  0
   20.8848   72.2454    0.7578 C   0  0  2  0  0  0  0  0  0  0  0  0
   23.7081   71.8464    1.1947 C   0  0  1  0  0  0  0  0  0  0  0  0
   21.9525   72.4149   -0.3245 C   0  0  1  0  0  0  0  0  0  0  0  0
   20.8497   72.2104    4.0181 H   0  0  0  0  0  0  0  0  0  0  0  0
   22.6997   71.9386    4.3134 H   0  0  0  0  0  0  0  0  0  0  0  0
   19.1376   73.0301    1.2245 H   0  0  0  0  0  0  0  0  0  0  0  0
   24.7133   70.0432    2.3975 O   0  0  0  0  0  0  0  0  0  0  0  0
   24.9134   70.9147    1.2999 C   0  0  0  0  0  0  0  0  0  0  0  0
   25.4726   69.4441    2.4765 H   0  0  0  0  0  0  0  0  0  0  0  0
 25 28  1  0
 25 24  1  0
 25 26  1  6
 25 27  2  0
  1  4  1  0
  1 24  1  0
  1  2  1  6
  1  3  2  0
  6 11  1  0
  6 12  1  0
 29 36  1  0
 29 37  1  0
  9  7  1  1
  7 13  1  0
 10  8  1  1
  8 14  1  0
 37 28  1  1
  4  5  1  0
 33 30  1  1
 30 38  1  0
 34 31  1  1
 31 39  1  0
 35 32  1  6
 32 40  1  0
 41 42  1  0
 41 43  1  0
 15 19  2  0
 16 22  2  0
 12 17  1  6
 17 19  1  0
 17 20  1  0
 18 19  1  0
 18 22  1  0
 18 23  1  0
  9 10  1  0
  9 11  1  0
 10 12  1  0
 11  5  1  6
 33 34  1  0
 33 35  1  0
 34 36  1  0
 35 37  1  0
 36 42  1  1
 20 21  2  0
 21 22  1  0
M  CHG  2   2  -1  26  -1
M  END
>  <COMPND>  (427) 
    8629 

>  <AUTHOR>  (427) 
    GENERATED BY OPEN BABEL 3.1.1

>  <MASTER>  (427) 
        0    0    0    0    0    0    0    0   58    0   58    0

>  <minimizedAffinity>  (427) 
-7.97041

>  <CNNscore>  (427) 
0.8465242982

>  <CNNaffinity>  (427) 
4.6858892441

>  <CNN_VS>  (427) 
3.9667191505

>  <CNNaffinity_variance>  (427) 
0.0526587255

$$$$
428
     RDKit          3D

 43 45  0  0  0  0  0  0  0  0999 V2000
   23.4389   72.0057   -3.2998 P   0  0  2  0  0  0  0  0  0  0  0  0
   24.1968   72.8921   -4.4211 O   0  0  0  0  0  0  0  0  0  0  0  0
   24.0898   70.6910   -2.9847 O   0  0  0  0  0  0  0  0  0  0  0  0
   21.9139   71.9245   -3.8342 O   0  0  0  0  0  0  0  0  0  0  0  0
   21.1898   70.7234   -3.6324 C   0  0  0  0  0  0  0  0  0  0  0  0
   19.1399   71.6474   -4.4798 O   0  0  0  0  0  0  0  0  0  0  0  0
   17.7910   70.2842   -2.1749 O   0  0  0  0  0  0  0  0  0  0  0  0
   17.2581   68.6026   -4.2545 O   0  0  0  0  0  0  0  0  0  0  0  0
   18.8985   69.8454   -2.9599 C   0  0  1  0  0  0  0  0  0  0  0  0
   18.4278   69.3922   -4.3262 C   0  0  2  0  0  0  0  0  0  0  0  0
   19.7432   71.0660   -3.3033 C   0  0  1  0  0  0  0  0  0  0  0  0
   18.1970   70.7160   -5.0350 C   0  0  2  0  0  0  0  0  0  0  0  0
   17.2370   69.5218   -1.9430 H   0  0  0  0  0  0  0  0  0  0  0  0
   17.4564   67.7717   -3.7952 H   0  0  0  0  0  0  0  0  0  0  0  0
   16.2479   69.8617   -6.8922 O   0  0  0  0  0  0  0  0  0  0  0  0
   19.1336   70.3991  -10.4454 O   0  0  0  0  0  0  0  0  0  0  0  0
   18.4118   70.6235   -6.4516 N   0  0  0  0  0  0  0  0  0  0  0  0
   17.6862   70.1302   -8.6599 N   0  0  0  0  0  0  0  0  0  0  0  0
   17.3674   70.1819   -7.2969 C   0  0  0  0  0  0  0  0  0  0  0  0
   19.6470   70.9688   -6.9892 C   0  0  0  0  0  0  0  0  0  0  0  0
   19.9354   70.9127   -8.2911 C   0  0  0  0  0  0  0  0  0  0  0  0
   18.8993   70.4617   -9.2424 C   0  0  0  0  0  0  0  0  0  0  0  0
   16.9741   69.8251   -9.2679 H   0  0  0  0  0  0  0  0  0  0  0  0
   23.3311   73.0205   -2.0462 O   0  0  0  0  0  0  0  0  0  0  0  0
   22.0582   73.7815   -1.4029 P   0  0  2  0  0  0  0  0  0  0  0  0
   22.7349   74.9646   -0.5313 O   0  0  0  0  0  0  0  0  0  0  0  0
   21.1363   72.8883   -0.6243 O   0  0  0  0  0  0  0  0  0  0  0  0
   21.3630   74.5384   -2.6474 O   0  0  0  0  0  0  0  0  0  0  0  0
   22.4085   75.5027   -4.5431 O   0  0  0  0  0  0  0  0  0  0  0  0
   19.2451   78.1242   -4.1294 O   0  0  0  0  0  0  0  0  0  0  0  0
   19.2492   76.2376   -6.2946 O   0  0  0  0  0  0  0  0  0  0  0  0
   20.5796   77.0891   -1.7784 O   0  0  0  0  0  0  0  0  0  0  0  0
   19.8999   76.8539   -4.0771 C   0  0  1  0  0  0  0  0  0  0  0  0
   20.3898   76.5086   -5.4847 C   0  0  1  0  0  0  0  0  0  0  0  0
   21.0747   76.9375   -3.1044 C   0  0  2  0  0  0  0  0  0  0  0  0
   21.3296   75.2956   -5.4622 C   0  0  1  0  0  0  0  0  0  0  0  0
   21.9736   75.7032   -3.1968 C   0  0  1  0  0  0  0  0  0  0  0  0
   18.4978   78.0778   -4.7449 H   0  0  0  0  0  0  0  0  0  0  0  0
   18.6638   77.0111   -6.3000 H   0  0  0  0  0  0  0  0  0  0  0  0
   20.0123   77.8740   -1.7329 H   0  0  0  0  0  0  0  0  0  0  0  0
   21.0550   74.2428   -7.5895 O   0  0  0  0  0  0  0  0  0  0  0  0
   21.9539   75.0303   -6.8304 C   0  0  0  0  0  0  0  0  0  0  0  0
   21.4390   74.0662   -8.4630 H   0  0  0  0  0  0  0  0  0  0  0  0
 25 28  1  0
 25 24  1  0
 25 26  1  1
 25 27  2  0
  1  4  1  0
  1 24  1  0
  1  2  1  6
  1  3  2  0
  6 11  1  0
  6 12  1  0
 29 36  1  0
 29 37  1  0
  9  7  1  1
  7 13  1  0
 10  8  1  1
  8 14  1  0
 37 28  1  6
  4  5  1  0
 33 30  1  6
 30 38  1  0
 34 31  1  6
 31 39  1  0
 35 32  1  1
 32 40  1  0
 41 42  1  0
 41 43  1  0
 15 19  2  0
 16 22  2  0
 12 17  1  6
 17 19  1  0
 17 20  1  0
 18 19  1  0
 18 22  1  0
 18 23  1  0
  9 10  1  0
  9 11  1  0
 10 12  1  0
 11  5  1  6
 33 34  1  0
 33 35  1  0
 34 36  1  0
 35 37  1  0
 36 42  1  6
 20 21  2  0
 21 22  1  0
M  CHG  2   2  -1  26  -1
M  END
>  <COMPND>  (428) 
    8629 

>  <AUTHOR>  (428) 
    GENERATED BY OPEN BABEL 3.1.1

>  <MASTER>  (428) 
        0    0    0    0    0    0    0    0   58    0   58    0

>  <minimizedAffinity>  (428) 
-6.40734

>  <CNNscore>  (428) 
0.8374218941

>  <CNNaffinity>  (428) 
4.4491610527

>  <CNN_VS>  (428) 
3.7258248329

>  <CNNaffinity_variance>  (428) 
0.2698113322

$$$$
429
     RDKit          3D

 43 45  0  0  0  0  0  0  0  0999 V2000
   22.7571   72.0947   -3.4464 P   0  0  2  0  0  0  0  0  0  0  0  0
   24.0090   72.3854   -4.4292 O   0  0  0  0  0  0  0  0  0  0  0  0
   23.1107   71.4262   -2.1505 O   0  0  0  0  0  0  0  0  0  0  0  0
   21.7045   71.2994   -4.3830 O   0  0  0  0  0  0  0  0  0  0  0  0
   20.8931   70.3002   -3.7906 C   0  0  0  0  0  0  0  0  0  0  0  0
   19.0669   71.5680   -4.7023 O   0  0  0  0  0  0  0  0  0  0  0  0
   17.4127   70.4354   -2.4726 O   0  0  0  0  0  0  0  0  0  0  0  0
   16.6863   68.8876   -4.5970 O   0  0  0  0  0  0  0  0  0  0  0  0
   18.4603   69.8206   -3.2209 C   0  0  1  0  0  0  0  0  0  0  0  0
   17.9753   69.4664   -4.6112 C   0  0  2  0  0  0  0  0  0  0  0  0
   19.5139   70.8819   -3.5124 C   0  0  1  0  0  0  0  0  0  0  0  0
   18.0025   70.8162   -5.3079 C   0  0  2  0  0  0  0  0  0  0  0  0
   16.7280   69.7769   -2.2741 H   0  0  0  0  0  0  0  0  0  0  0  0
   16.7213   68.0311   -4.1433 H   0  0  0  0  0  0  0  0  0  0  0  0
   16.0078   70.3674   -7.2566 O   0  0  0  0  0  0  0  0  0  0  0  0
   19.0912   70.3886  -10.6820 O   0  0  0  0  0  0  0  0  0  0  0  0
   18.2559   70.7006   -6.7163 N   0  0  0  0  0  0  0  0  0  0  0  0
   17.5447   70.3785   -8.9606 N   0  0  0  0  0  0  0  0  0  0  0  0
   17.1838   70.4743   -7.6106 C   0  0  0  0  0  0  0  0  0  0  0  0
   19.5558   70.8119   -7.1980 C   0  0  0  0  0  0  0  0  0  0  0  0
   19.8834   70.7168   -8.4883 C   0  0  0  0  0  0  0  0  0  0  0  0
   18.8221   70.4808   -9.4883 C   0  0  0  0  0  0  0  0  0  0  0  0
   16.8143   70.2206   -9.6020 H   0  0  0  0  0  0  0  0  0  0  0  0
   22.0739   73.5511   -3.2876 O   0  0  0  0  0  0  0  0  0  0  0  0
   21.8335   74.4743   -1.9826 P   0  0  2  0  0  0  0  0  0  0  0  0
   20.2288   74.6796   -1.9640 O   0  0  0  0  0  0  0  0  0  0  0  0
   22.6214   75.7522   -1.9792 O   0  0  0  0  0  0  0  0  0  0  0  0
   22.1343   73.4997   -0.7318 O   0  0  0  0  0  0  0  0  0  0  0  0
   21.9822   74.8097    1.2373 O   0  0  0  0  0  0  0  0  0  0  0  0
   23.1288   71.2181    2.9214 O   0  0  0  0  0  0  0  0  0  0  0  0
   20.4318   72.1455    3.2589 O   0  0  0  0  0  0  0  0  0  0  0  0
   24.2607   72.0532    0.3914 O   0  0  0  0  0  0  0  0  0  0  0  0
   22.4536   72.0608    1.9837 C   0  0  1  0  0  0  0  0  0  0  0  0
   21.4872   72.9605    2.7568 C   0  0  1  0  0  0  0  0  0  0  0  0
   23.4859   72.9002    1.2333 C   0  0  2  0  0  0  0  0  0  0  0  0
   20.9244   74.0700    1.8583 C   0  0  1  0  0  0  0  0  0  0  0  0
   22.8236   74.0053    0.4086 C   0  0  1  0  0  0  0  0  0  0  0  0
   22.4790   70.6821    3.4009 H   0  0  0  0  0  0  0  0  0  0  0  0
   20.8006   71.4487    3.8242 H   0  0  0  0  0  0  0  0  0  0  0  0
   24.6749   71.3581    0.9253 H   0  0  0  0  0  0  0  0  0  0  0  0
   20.2397   74.8032    4.0269 O   0  0  0  0  0  0  0  0  0  0  0  0
   20.0823   75.0715    2.6457 C   0  0  0  0  0  0  0  0  0  0  0  0
   19.7096   75.4332    4.5405 H   0  0  0  0  0  0  0  0  0  0  0  0
 25 28  1  0
 25 24  1  0
 25 26  1  1
 25 27  2  0
  1  4  1  0
  1 24  1  0
  1  2  1  6
  1  3  2  0
  6 11  1  0
  6 12  1  0
 29 36  1  0
 29 37  1  0
  9  7  1  1
  7 13  1  0
 10  8  1  1
  8 14  1  0
 37 28  1  6
  4  5  1  0
 33 30  1  1
 30 38  1  0
 34 31  1  6
 31 39  1  0
 35 32  1  6
 32 40  1  0
 41 42  1  0
 41 43  1  0
 15 19  2  0
 16 22  2  0
 12 17  1  6
 17 19  1  0
 17 20  1  0
 18 19  1  0
 18 22  1  0
 18 23  1  0
  9 10  1  0
  9 11  1  0
 10 12  1  0
 11  5  1  6
 33 34  1  0
 33 35  1  0
 34 36  1  0
 35 37  1  0
 36 42  1  1
 20 21  2  0
 21 22  1  0
M  CHG  2   2  -1  26  -1
M  END
>  <COMPND>  (429) 
    8629 

>  <AUTHOR>  (429) 
    GENERATED BY OPEN BABEL 3.1.1

>  <MASTER>  (429) 
        0    0    0    0    0    0    0    0   58    0   58    0

>  <minimizedAffinity>  (429) 
-7.07380

>  <CNNscore>  (429) 
0.8319166899

>  <CNNaffinity>  (429) 
4.5607476234

>  <CNN_VS>  (429) 
3.7941620350

>  <CNNaffinity_variance>  (429) 
0.0153763266

$$$$
430
     RDKit          3D

 43 45  0  0  0  0  0  0  0  0999 V2000
   23.4315   71.9313   -3.3480 P   0  0  2  0  0  0  0  0  0  0  0  0
   24.1859   72.9286   -4.3746 O   0  0  0  0  0  0  0  0  0  0  0  0
   24.1626   70.6548   -3.0521 O   0  0  0  0  0  0  0  0  0  0  0  0
   21.9537   71.7632   -3.9851 O   0  0  0  0  0  0  0  0  0  0  0  0
   21.1981   70.6135   -3.6461 C   0  0  0  0  0  0  0  0  0  0  0  0
   19.1997   71.6427   -4.4950 O   0  0  0  0  0  0  0  0  0  0  0  0
   17.7839   70.3685   -2.1792 O   0  0  0  0  0  0  0  0  0  0  0  0
   17.1554   68.7063   -4.2476 O   0  0  0  0  0  0  0  0  0  0  0  0
   18.8640   69.8655   -2.9638 C   0  0  1  0  0  0  0  0  0  0  0  0
   18.3662   69.4306   -4.3264 C   0  0  2  0  0  0  0  0  0  0  0  0
   19.7732   71.0362   -3.3161 C   0  0  1  0  0  0  0  0  0  0  0  0
   18.2062   70.7608   -5.0427 C   0  0  2  0  0  0  0  0  0  0  0  0
   17.1897   69.6388   -1.9417 H   0  0  0  0  0  0  0  0  0  0  0  0
   17.3092   67.8685   -3.7838 H   0  0  0  0  0  0  0  0  0  0  0  0
   16.2299   69.9305   -6.8820 O   0  0  0  0  0  0  0  0  0  0  0  0
   19.1105   70.3655  -10.4533 O   0  0  0  0  0  0  0  0  0  0  0  0
   18.4123   70.6484   -6.4591 N   0  0  0  0  0  0  0  0  0  0  0  0
   17.6658   70.1479   -8.6588 N   0  0  0  0  0  0  0  0  0  0  0  0
   17.3544   70.2213   -7.2951 C   0  0  0  0  0  0  0  0  0  0  0  0
   19.6524   70.9604   -7.0058 C   0  0  0  0  0  0  0  0  0  0  0  0
   19.9335   70.8840   -8.3082 C   0  0  0  0  0  0  0  0  0  0  0  0
   18.8832   70.4461   -9.2501 C   0  0  0  0  0  0  0  0  0  0  0  0
   16.9443   69.8523   -9.2603 H   0  0  0  0  0  0  0  0  0  0  0  0
   23.1668   72.8694   -2.0585 O   0  0  0  0  0  0  0  0  0  0  0  0
   22.7074   72.5000   -0.5534 P   0  0  2  0  0  0  0  0  0  0  0  0
   23.4969   73.5837    0.3520 O   0  0  0  0  0  0  0  0  0  0  0  0
   22.9571   71.0709   -0.1671 O   0  0  0  0  0  0  0  0  0  0  0  0
   21.1604   72.9534   -0.4755 O   0  0  0  0  0  0  0  0  0  0  0  0
   21.0467   74.9446   -1.7557 O   0  0  0  0  0  0  0  0  0  0  0  0
   17.0800   74.6448   -0.6485 O   0  0  0  0  0  0  0  0  0  0  0  0
   17.8402   74.0932   -3.3625 O   0  0  0  0  0  0  0  0  0  0  0  0
   19.1620   73.9344    1.2331 O   0  0  0  0  0  0  0  0  0  0  0  0
   18.3671   74.1516   -1.0302 C   0  0  1  0  0  0  0  0  0  0  0  0
   18.7044   74.7118   -2.4134 C   0  0  1  0  0  0  0  0  0  0  0  0
   19.4005   74.6041   -0.0002 C   0  0  2  0  0  0  0  0  0  0  0  0
   20.1721   74.4474   -2.7752 C   0  0  1  0  0  0  0  0  0  0  0  0
   20.8289   74.3396   -0.4796 C   0  0  1  0  0  0  0  0  0  0  0  0
   16.4191   74.3606   -1.2981 H   0  0  0  0  0  0  0  0  0  0  0  0
   16.9165   74.2673   -3.1222 H   0  0  0  0  0  0  0  0  0  0  0  0
   18.2547   74.1099    1.5260 H   0  0  0  0  0  0  0  0  0  0  0  0
   20.4838   74.1885   -5.1300 O   0  0  0  0  0  0  0  0  0  0  0  0
   20.5721   75.1336   -4.0796 C   0  0  0  0  0  0  0  0  0  0  0  0
   20.7352   74.6112   -5.9665 H   0  0  0  0  0  0  0  0  0  0  0  0
 25 28  1  0
 25 24  1  0
 25 26  1  1
 25 27  2  0
  1  4  1  0
  1 24  1  0
  1  2  1  6
  1  3  2  0
  6 11  1  0
  6 12  1  0
 29 36  1  0
 29 37  1  0
  9  7  1  1
  7 13  1  0
 10  8  1  1
  8 14  1  0
 37 28  1  6
  4  5  1  0
 33 30  1  1
 30 38  1  0
 34 31  1  6
 31 39  1  0
 35 32  1  1
 32 40  1  0
 41 42  1  0
 41 43  1  0
 15 19  2  0
 16 22  2  0
 12 17  1  6
 17 19  1  0
 17 20  1  0
 18 19  1  0
 18 22  1  0
 18 23  1  0
  9 10  1  0
  9 11  1  0
 10 12  1  0
 11  5  1  6
 33 34  1  0
 33 35  1  0
 34 36  1  0
 35 37  1  0
 36 42  1  6
 20 21  2  0
 21 22  1  0
M  CHG  2   2  -1  26  -1
M  END
>  <COMPND>  (430) 
    8629 

>  <AUTHOR>  (430) 
    GENERATED BY OPEN BABEL 3.1.1

>  <MASTER>  (430) 
        0    0    0    0    0    0    0    0   58    0   58    0

>  <minimizedAffinity>  (430) 
-6.47877

>  <CNNscore>  (430) 
0.8301689625

>  <CNNaffinity>  (430) 
4.5150403976

>  <CNN_VS>  (430) 
3.7482464314

>  <CNNaffinity_variance>  (430) 
0.0898292214

$$$$
431
     RDKit          3D

 43 45  0  0  0  0  0  0  0  0999 V2000
   21.3018   72.5210   -2.1525 P   0  0  2  0  0  0  0  0  0  0  0  0
   21.2672   73.9712   -1.4361 O   0  0  0  0  0  0  0  0  0  0  0  0
   22.1374   72.4486   -3.3967 O   0  0  0  0  0  0  0  0  0  0  0  0
   19.7398   72.1390   -2.3320 O   0  0  0  0  0  0  0  0  0  0  0  0
   19.3305   71.5149   -3.5364 C   0  0  0  0  0  0  0  0  0  0  0  0
   17.4965   72.0276   -5.0017 O   0  0  0  0  0  0  0  0  0  0  0  0
   15.7667   70.5507   -3.0479 O   0  0  0  0  0  0  0  0  0  0  0  0
   16.1272   68.7129   -5.0301 O   0  0  0  0  0  0  0  0  0  0  0  0
   17.1082   70.2790   -3.4502 C   0  0  1  0  0  0  0  0  0  0  0  0
   17.1299   69.6914   -4.8458 C   0  0  2  0  0  0  0  0  0  0  0  0
   17.8158   71.6127   -3.6556 C   0  0  1  0  0  0  0  0  0  0  0  0
   16.9115   70.9222   -5.7093 C   0  0  2  0  0  0  0  0  0  0  0  0
   15.2948   69.7139   -2.9103 H   0  0  0  0  0  0  0  0  0  0  0  0
   16.3106   67.9504   -4.4595 H   0  0  0  0  0  0  0  0  0  0  0  0
   15.5138   70.6392   -8.1474 O   0  0  0  0  0  0  0  0  0  0  0  0
   19.4237   70.4884  -10.5827 O   0  0  0  0  0  0  0  0  0  0  0  0
   17.5391   70.8072   -6.9955 N   0  0  0  0  0  0  0  0  0  0  0  0
   17.4618   70.5645   -9.3580 N   0  0  0  0  0  0  0  0  0  0  0  0
   16.7461   70.6680   -8.1584 C   0  0  0  0  0  0  0  0  0  0  0  0
   18.9260   70.8333   -7.0947 C   0  0  0  0  0  0  0  0  0  0  0  0
   19.5931   70.7321   -8.2462 C   0  0  0  0  0  0  0  0  0  0  0  0
   18.8394   70.5839   -9.5079 C   0  0  0  0  0  0  0  0  0  0  0  0
   16.9302   70.4664  -10.1812 H   0  0  0  0  0  0  0  0  0  0  0  0
   21.7816   71.5387   -0.9618 O   0  0  0  0  0  0  0  0  0  0  0  0
   21.4398   71.5401    0.6181 P   0  0  2  0  0  0  0  0  0  0  0  0
   21.6328   69.9904    1.0408 O   0  0  0  0  0  0  0  0  0  0  0  0
   20.0930   72.1110    0.9558 O   0  0  0  0  0  0  0  0  0  0  0  0
   22.6828   72.3076    1.3043 O   0  0  0  0  0  0  0  0  0  0  0  0
   24.3001   73.7544    0.3515 O   0  0  0  0  0  0  0  0  0  0  0  0
   26.6930   71.8054    3.0949 O   0  0  0  0  0  0  0  0  0  0  0  0
   25.9387   74.5373    3.5594 O   0  0  0  0  0  0  0  0  0  0  0  0
   24.6502   70.3387    1.6613 O   0  0  0  0  0  0  0  0  0  0  0  0
   25.4842   72.3919    2.6048 C   0  0  1  0  0  0  0  0  0  0  0  0
   25.7516   73.8700    2.3144 C   0  0  1  0  0  0  0  0  0  0  0  0
   25.0559   71.6630    1.3325 C   0  0  2  0  0  0  0  0  0  0  0  0
   24.5876   74.5018    1.5391 C   0  0  1  0  0  0  0  0  0  0  0  0
   23.9254   72.4004    0.6125 C   0  0  1  0  0  0  0  0  0  0  0  0
   26.9702   72.2634    3.9030 H   0  0  0  0  0  0  0  0  0  0  0  0
   26.6762   74.1285    4.0392 H   0  0  0  0  0  0  0  0  0  0  0  0
   25.3745   69.8823    2.1163 H   0  0  0  0  0  0  0  0  0  0  0  0
   26.2282   76.2380    1.4859 O   0  0  0  0  0  0  0  0  0  0  0  0
   24.9005   75.9311    1.1019 C   0  0  0  0  0  0  0  0  0  0  0  0
   26.4414   77.1448    1.2137 H   0  0  0  0  0  0  0  0  0  0  0  0
 25 28  1  0
 25 24  1  0
 25 26  1  1
 25 27  2  0
  1  4  1  0
  1 24  1  0
  1  2  1  1
  1  3  2  0
  6 11  1  0
  6 12  1  0
 29 36  1  0
 29 37  1  0
  9  7  1  6
  7 13  1  0
 10  8  1  1
  8 14  1  0
 37 28  1  1
  4  5  1  0
 33 30  1  6
 30 38  1  0
 34 31  1  1
 31 39  1  0
 35 32  1  1
 32 40  1  0
 41 42  1  0
 41 43  1  0
 15 19  2  0
 16 22  2  0
 12 17  1  6
 17 19  1  0
 17 20  1  0
 18 19  1  0
 18 22  1  0
 18 23  1  0
  9 10  1  0
  9 11  1  0
 10 12  1  0
 11  5  1  6
 33 34  1  0
 33 35  1  0
 34 36  1  0
 35 37  1  0
 36 42  1  6
 20 21  2  0
 21 22  1  0
M  CHG  2   2  -1  26  -1
M  END
>  <COMPND>  (431) 
    8629 

>  <AUTHOR>  (431) 
    GENERATED BY OPEN BABEL 3.1.1

>  <MASTER>  (431) 
        0    0    0    0    0    0    0    0   58    0   58    0

>  <minimizedAffinity>  (431) 
-7.10088

>  <CNNscore>  (431) 
0.8237098455

>  <CNNaffinity>  (431) 
4.6530356407

>  <CNN_VS>  (431) 
3.8327512741

>  <CNNaffinity_variance>  (431) 
0.1457999647

$$$$
432
     RDKit          3D

 43 45  0  0  0  0  0  0  0  0999 V2000
   21.0296   71.3020   -0.7152 P   0  0  2  0  0  0  0  0  0  0  0  0
   21.4535   70.5704   -2.0946 O   0  0  0  0  0  0  0  0  0  0  0  0
   21.0571   70.4248    0.5018 O   0  0  0  0  0  0  0  0  0  0  0  0
   19.6023   71.9820   -1.0590 O   0  0  0  0  0  0  0  0  0  0  0  0
   19.1465   71.9561   -2.4004 C   0  0  0  0  0  0  0  0  0  0  0  0
   17.3021   71.3206   -3.8033 O   0  0  0  0  0  0  0  0  0  0  0  0
   16.6826   69.2455   -1.7294 O   0  0  0  0  0  0  0  0  0  0  0  0
   17.9467   67.7954   -3.6622 O   0  0  0  0  0  0  0  0  0  0  0  0
   17.9501   69.7217   -2.1787 C   0  0  1  0  0  0  0  0  0  0  0  0
   18.2625   69.1684   -3.5535 C   0  0  2  0  0  0  0  0  0  0  0  0
   17.8186   71.2135   -2.4586 C   0  0  1  0  0  0  0  0  0  0  0  0
   17.3972   70.0399   -4.4479 C   0  0  2  0  0  0  0  0  0  0  0  0
   16.7418   68.2947   -1.5439 H   0  0  0  0  0  0  0  0  0  0  0  0
   18.5239   67.2832   -3.0745 H   0  0  0  0  0  0  0  0  0  0  0  0
   16.0109   69.5781   -6.8651 O   0  0  0  0  0  0  0  0  0  0  0  0
   19.6750   70.7495   -9.4034 O   0  0  0  0  0  0  0  0  0  0  0  0
   17.9645   70.2166   -5.7549 N   0  0  0  0  0  0  0  0  0  0  0  0
   17.8364   70.1619   -8.1270 N   0  0  0  0  0  0  0  0  0  0  0  0
   17.1834   69.9565   -6.9050 C   0  0  0  0  0  0  0  0  0  0  0  0
   19.2814   70.6437   -5.8867 C   0  0  0  0  0  0  0  0  0  0  0  0
   19.8897   70.8335   -7.0594 C   0  0  0  0  0  0  0  0  0  0  0  0
   19.1437   70.5843   -8.3097 C   0  0  0  0  0  0  0  0  0  0  0  0
   17.3119   69.9867   -8.9419 H   0  0  0  0  0  0  0  0  0  0  0  0
   22.0306   72.5697   -0.6536 O   0  0  0  0  0  0  0  0  0  0  0  0
   23.4267   72.7826    0.1329 P   0  0  2  0  0  0  0  0  0  0  0  0
   24.0575   74.0916   -0.5786 O   0  0  0  0  0  0  0  0  0  0  0  0
   24.3260   71.5805    0.1268 O   0  0  0  0  0  0  0  0  0  0  0  0
   22.9941   73.2868    1.6038 O   0  0  0  0  0  0  0  0  0  0  0  0
   24.5381   72.9722    3.3740 O   0  0  0  0  0  0  0  0  0  0  0  0
   21.1030   73.5542    5.5904 O   0  0  0  0  0  0  0  0  0  0  0  0
   23.1022   75.6143    5.5063 O   0  0  0  0  0  0  0  0  0  0  0  0
   20.9917   72.0411    3.1250 O   0  0  0  0  0  0  0  0  0  0  0  0
   21.9927   73.7556    4.4889 C   0  0  1  0  0  0  0  0  0  0  0  0
   23.3193   74.2872    5.0350 C   0  0  1  0  0  0  0  0  0  0  0  0
   22.2026   72.4258    3.7671 C   0  0  2  0  0  0  0  0  0  0  0  0
   24.4080   74.2757    3.9534 C   0  0  1  0  0  0  0  0  0  0  0  0
   23.3399   72.5099    2.7475 C   0  0  1  0  0  0  0  0  0  0  0  0
   20.9651   74.3949    6.0526 H   0  0  0  0  0  0  0  0  0  0  0  0
   22.4123   75.6077    6.1883 H   0  0  0  0  0  0  0  0  0  0  0  0
   20.2797   71.9912    3.7811 H   0  0  0  0  0  0  0  0  0  0  0  0
   25.8477   76.0627    4.6189 O   0  0  0  0  0  0  0  0  0  0  0  0
   25.7769   74.6525    4.5158 C   0  0  0  0  0  0  0  0  0  0  0  0
   26.7134   76.3171    4.9758 H   0  0  0  0  0  0  0  0  0  0  0  0
 25 28  1  0
 25 24  1  0
 25 26  1  6
 25 27  2  0
  1  4  1  0
  1 24  1  0
  1  2  1  6
  1  3  2  0
  6 11  1  0
  6 12  1  0
 29 36  1  0
 29 37  1  0
  9  7  1  6
  7 13  1  0
 10  8  1  1
  8 14  1  0
 37 28  1  6
  4  5  1  0
 33 30  1  1
 30 38  1  0
 34 31  1  6
 31 39  1  0
 35 32  1  6
 32 40  1  0
 41 42  1  0
 41 43  1  0
 15 19  2  0
 16 22  2  0
 12 17  1  6
 17 19  1  0
 17 20  1  0
 18 19  1  0
 18 22  1  0
 18 23  1  0
  9 10  1  0
  9 11  1  0
 10 12  1  0
 11  5  1  6
 33 34  1  0
 33 35  1  0
 34 36  1  0
 35 37  1  0
 36 42  1  1
 20 21  2  0
 21 22  1  0
M  CHG  2   2  -1  26  -1
M  END
>  <COMPND>  (432) 
    8629 

>  <AUTHOR>  (432) 
    GENERATED BY OPEN BABEL 3.1.1

>  <MASTER>  (432) 
        0    0    0    0    0    0    0    0   58    0   58    0

>  <minimizedAffinity>  (432) 
-6.88876

>  <CNNscore>  (432) 
0.8230516315

>  <CNNaffinity>  (432) 
4.3959374428

>  <CNN_VS>  (432) 
3.6180834770

>  <CNNaffinity_variance>  (432) 
0.0619008429

$$$$
433
     RDKit          3D

 43 45  0  0  0  0  0  0  0  0999 V2000
   20.6488   74.4248   -4.5280 P   0  0  2  0  0  0  0  0  0  0  0  0
   20.2272   74.5607   -2.9719 O   0  0  0  0  0  0  0  0  0  0  0  0
   20.1200   75.5055   -5.4246 O   0  0  0  0  0  0  0  0  0  0  0  0
   20.2167   72.9149   -4.9171 O   0  0  0  0  0  0  0  0  0  0  0  0
   19.8405   72.0299   -3.8764 C   0  0  0  0  0  0  0  0  0  0  0  0
   17.8392   72.1208   -5.2031 O   0  0  0  0  0  0  0  0  0  0  0  0
   16.5122   70.6289   -2.9662 O   0  0  0  0  0  0  0  0  0  0  0  0
   16.9848   68.6617   -4.7946 O   0  0  0  0  0  0  0  0  0  0  0  0
   17.8429   70.5085   -3.4664 C   0  0  1  0  0  0  0  0  0  0  0  0
   17.8409   69.7859   -4.7974 C   0  0  2  0  0  0  0  0  0  0  0  0
   18.3236   71.8996   -3.8605 C   0  0  1  0  0  0  0  0  0  0  0  0
   17.3721   70.8754   -5.7467 C   0  0  2  0  0  0  0  0  0  0  0  0
   16.1837   69.7530   -2.7076 H   0  0  0  0  0  0  0  0  0  0  0  0
   17.3255   67.9971   -4.1757 H   0  0  0  0  0  0  0  0  0  0  0  0
   15.8012   70.5283   -8.0684 O   0  0  0  0  0  0  0  0  0  0  0  0
   19.5254   70.2690  -10.7712 O   0  0  0  0  0  0  0  0  0  0  0  0
   17.9050   70.7152   -7.0702 N   0  0  0  0  0  0  0  0  0  0  0  0
   17.6568   70.3997   -9.4123 N   0  0  0  0  0  0  0  0  0  0  0  0
   17.0298   70.5465   -8.1684 C   0  0  0  0  0  0  0  0  0  0  0  0
   19.2813   70.7266   -7.2691 C   0  0  0  0  0  0  0  0  0  0  0  0
   19.8635   70.5840   -8.4616 C   0  0  0  0  0  0  0  0  0  0  0  0
   19.0203   70.4029   -9.6609 C   0  0  0  0  0  0  0  0  0  0  0  0
   17.0670   70.2804  -10.1919 H   0  0  0  0  0  0  0  0  0  0  0  0
   22.2614   74.3353   -4.4611 O   0  0  0  0  0  0  0  0  0  0  0  0
   23.2364   73.3571   -3.6211 P   0  0  2  0  0  0  0  0  0  0  0  0
   24.5819   74.2378   -3.4432 O   0  0  0  0  0  0  0  0  0  0  0  0
   23.4548   72.0138   -4.2548 O   0  0  0  0  0  0  0  0  0  0  0  0
   22.5868   73.3025   -2.1446 O   0  0  0  0  0  0  0  0  0  0  0  0
   23.0519   74.2119   -0.0061 O   0  0  0  0  0  0  0  0  0  0  0  0
   22.4581   70.2694    1.0684 O   0  0  0  0  0  0  0  0  0  0  0  0
   20.4732   72.2351    1.7350 O   0  0  0  0  0  0  0  0  0  0  0  0
   23.8344   70.9021   -1.3984 O   0  0  0  0  0  0  0  0  0  0  0  0
   22.2328   71.4616    0.3114 C   0  0  1  0  0  0  0  0  0  0  0  0
   21.7809   72.5623    1.2733 C   0  0  1  0  0  0  0  0  0  0  0  0
   23.5298   71.8600   -0.3903 C   0  0  2  0  0  0  0  0  0  0  0  0
   21.7766   73.9332    0.5837 C   0  0  1  0  0  0  0  0  0  0  0  0
   23.4352   73.2597   -1.0002 C   0  0  1  0  0  0  0  0  0  0  0  0
   21.6382   70.0107    1.5161 H   0  0  0  0  0  0  0  0  0  0  0  0
   20.4896   71.3670    2.1679 H   0  0  0  0  0  0  0  0  0  0  0  0
   23.8918   70.0204   -0.9996 H   0  0  0  0  0  0  0  0  0  0  0  0
   20.0843   75.1159    1.7863 O   0  0  0  0  0  0  0  0  0  0  0  0
   21.4817   75.0659    1.5646 C   0  0  0  0  0  0  0  0  0  0  0  0
   19.8818   75.8321    2.4090 H   0  0  0  0  0  0  0  0  0  0  0  0
 25 28  1  0
 25 24  1  0
 25 26  1  1
 25 27  2  0
  1  4  1  0
  1 24  1  0
  1  2  1  1
  1  3  2  0
  6 11  1  0
  6 12  1  0
 29 36  1  0
 29 37  1  0
  9  7  1  6
  7 13  1  0
 10  8  1  1
  8 14  1  0
 37 28  1  6
  4  5  1  0
 33 30  1  1
 30 38  1  0
 34 31  1  6
 31 39  1  0
 35 32  1  6
 32 40  1  0
 41 42  1  0
 41 43  1  0
 15 19  2  0
 16 22  2  0
 12 17  1  6
 17 19  1  0
 17 20  1  0
 18 19  1  0
 18 22  1  0
 18 23  1  0
  9 10  1  0
  9 11  1  0
 10 12  1  0
 11  5  1  6
 33 34  1  0
 33 35  1  0
 34 36  1  0
 35 37  1  0
 36 42  1  1
 20 21  2  0
 21 22  1  0
M  CHG  2   2  -1  26  -1
M  END
>  <COMPND>  (433) 
    8629 

>  <AUTHOR>  (433) 
    GENERATED BY OPEN BABEL 3.1.1

>  <MASTER>  (433) 
        0    0    0    0    0    0    0    0   58    0   58    0

>  <minimizedAffinity>  (433) 
-6.75436

>  <CNNscore>  (433) 
0.7999892235

>  <CNNaffinity>  (433) 
4.5977964401

>  <CNN_VS>  (433) 
3.6781876087

>  <CNNaffinity_variance>  (433) 
0.0533670373

$$$$
434
     RDKit          3D

 43 45  0  0  0  0  0  0  0  0999 V2000
   23.1250   71.6149   -2.6352 P   0  0  2  0  0  0  0  0  0  0  0  0
   23.2757   73.2035   -2.3689 O   0  0  0  0  0  0  0  0  0  0  0  0
   24.3516   70.9444   -3.1804 O   0  0  0  0  0  0  0  0  0  0  0  0
   21.7955   71.4988   -3.5501 O   0  0  0  0  0  0  0  0  0  0  0  0
   21.5622   72.4926   -4.5329 C   0  0  0  0  0  0  0  0  0  0  0  0
   20.5977   70.6285   -5.7030 O   0  0  0  0  0  0  0  0  0  0  0  0
   20.9941   72.2339   -8.2043 O   0  0  0  0  0  0  0  0  0  0  0  0
   18.3396   72.5847   -7.6872 O   0  0  0  0  0  0  0  0  0  0  0  0
   20.6367   72.6759   -6.8957 C   0  0  1  0  0  0  0  0  0  0  0  0
   19.1960   72.3185   -6.5952 C   0  0  2  0  0  0  0  0  0  0  0  0
   21.3937   71.8196   -5.8882 C   0  0  1  0  0  0  0  0  0  0  0  0
   19.2983   70.8357   -6.2804 C   0  0  2  0  0  0  0  0  0  0  0  0
   20.5232   72.7664   -8.8650 H   0  0  0  0  0  0  0  0  0  0  0  0
   18.3079   73.5407   -7.8478 H   0  0  0  0  0  0  0  0  0  0  0  0
   16.7268   69.9182   -7.0039 O   0  0  0  0  0  0  0  0  0  0  0  0
   15.5432   69.2069   -2.6069 O   0  0  0  0  0  0  0  0  0  0  0  0
   18.2982   70.4041   -5.3451 N   0  0  0  0  0  0  0  0  0  0  0  0
   16.1396   69.5646   -4.8140 N   0  0  0  0  0  0  0  0  0  0  0  0
   17.0383   69.9625   -5.8120 C   0  0  0  0  0  0  0  0  0  0  0  0
   18.5712   70.4210   -3.9816 C   0  0  0  0  0  0  0  0  0  0  0  0
   17.7029   70.0395   -3.0426 C   0  0  0  0  0  0  0  0  0  0  0  0
   16.3637   69.5644   -3.4463 C   0  0  0  0  0  0  0  0  0  0  0  0
   15.2553   69.2535   -5.1157 H   0  0  0  0  0  0  0  0  0  0  0  0
   22.6307   71.0515   -1.2030 O   0  0  0  0  0  0  0  0  0  0  0  0
   21.5250   71.6125   -0.1658 P   0  0  2  0  0  0  0  0  0  0  0  0
   21.0928   70.2933    0.6651 O   0  0  0  0  0  0  0  0  0  0  0  0
   20.3822   72.3364   -0.8167 O   0  0  0  0  0  0  0  0  0  0  0  0
   22.3662   72.5002    0.8874 O   0  0  0  0  0  0  0  0  0  0  0  0
   24.2323   72.1555    2.3071 O   0  0  0  0  0  0  0  0  0  0  0  0
   21.7116   74.0439    4.9775 O   0  0  0  0  0  0  0  0  0  0  0  0
   23.9890   75.4520    3.9388 O   0  0  0  0  0  0  0  0  0  0  0  0
   20.6373   72.1500    3.0700 O   0  0  0  0  0  0  0  0  0  0  0  0
   22.2940   73.7818    3.6978 C   0  0  1  0  0  0  0  0  0  0  0  0
   23.7977   74.0477    3.7918 C   0  0  1  0  0  0  0  0  0  0  0  0
   22.0281   72.3265    3.3171 C   0  0  2  0  0  0  0  0  0  0  0  0
   24.5297   73.5366    2.5436 C   0  0  1  0  0  0  0  0  0  0  0  0
   22.8419   71.9055    2.0921 C   0  0  1  0  0  0  0  0  0  0  0  0
   21.8764   74.9665    5.2249 H   0  0  0  0  0  0  0  0  0  0  0  0
   23.5213   75.7621    4.7303 H   0  0  0  0  0  0  0  0  0  0  0  0
   20.1331   72.4197    3.8529 H   0  0  0  0  0  0  0  0  0  0  0  0
   26.3556   73.8807    4.0458 O   0  0  0  0  0  0  0  0  0  0  0  0
   26.0462   73.6486    2.6839 C   0  0  0  0  0  0  0  0  0  0  0  0
   27.3176   73.9539    4.1502 H   0  0  0  0  0  0  0  0  0  0  0  0
 25 28  1  0
 25 24  1  0
 25 26  1  1
 25 27  2  0
  1  4  1  0
  1 24  1  0
  1  2  1  1
  1  3  2  0
  6 11  1  0
  6 12  1  0
 29 36  1  0
 29 37  1  0
  9  7  1  6
  7 13  1  0
 10  8  1  6
  8 14  1  0
 37 28  1  6
  4  5  1  0
 33 30  1  1
 30 38  1  0
 34 31  1  6
 31 39  1  0
 35 32  1  6
 32 40  1  0
 41 42  1  0
 41 43  1  0
 15 19  2  0
 16 22  2  0
 12 17  1  1
 17 19  1  0
 17 20  1  0
 18 19  1  0
 18 22  1  0
 18 23  1  0
  9 10  1  0
  9 11  1  0
 10 12  1  0
 11  5  1  1
 33 34  1  0
 33 35  1  0
 34 36  1  0
 35 37  1  0
 36 42  1  1
 20 21  2  0
 21 22  1  0
M  CHG  2   2  -1  26  -1
M  END
>  <COMPND>  (434) 
    8629 

>  <AUTHOR>  (434) 
    GENERATED BY OPEN BABEL 3.1.1

>  <MASTER>  (434) 
        0    0    0    0    0    0    0    0   58    0   58    0

>  <minimizedAffinity>  (434) 
-7.60099

>  <CNNscore>  (434) 
0.6638222337

>  <CNNaffinity>  (434) 
4.3312554359

>  <CNN_VS>  (434) 
2.8751835823

>  <CNNaffinity_variance>  (434) 
0.1660574973

$$$$
435
     RDKit          3D

 43 45  0  0  0  0  0  0  0  0999 V2000
   23.3549   71.8240   -3.3387 P   0  0  2  0  0  0  0  0  0  0  0  0
   24.1036   72.9778   -4.1906 O   0  0  0  0  0  0  0  0  0  0  0  0
   24.2258   70.6731   -2.9285 O   0  0  0  0  0  0  0  0  0  0  0  0
   22.0695   71.4444   -4.2449 O   0  0  0  0  0  0  0  0  0  0  0  0
   21.6379   72.3696   -5.2275 C   0  0  0  0  0  0  0  0  0  0  0  0
   20.5677   70.4409   -6.1807 O   0  0  0  0  0  0  0  0  0  0  0  0
   20.6955   71.8963   -8.7992 O   0  0  0  0  0  0  0  0  0  0  0  0
   18.1068   72.2791   -8.0321 O   0  0  0  0  0  0  0  0  0  0  0  0
   20.4727   72.4146   -7.4888 C   0  0  1  0  0  0  0  0  0  0  0  0
   19.0726   72.0767   -7.0207 C   0  0  2  0  0  0  0  0  0  0  0  0
   21.3340   71.6183   -6.5165 C   0  0  1  0  0  0  0  0  0  0  0  0
   19.2146   70.6149   -6.6320 C   0  0  2  0  0  0  0  0  0  0  0  0
   20.1562   72.3894   -9.4378 H   0  0  0  0  0  0  0  0  0  0  0  0
   18.0537   73.2240   -8.2443 H   0  0  0  0  0  0  0  0  0  0  0  0
   16.5379   69.8016   -7.0220 O   0  0  0  0  0  0  0  0  0  0  0  0
   15.8695   69.2005   -2.5017 O   0  0  0  0  0  0  0  0  0  0  0  0
   18.3185   70.2399   -5.5747 N   0  0  0  0  0  0  0  0  0  0  0  0
   16.2073   69.5028   -4.7710 N   0  0  0  0  0  0  0  0  0  0  0  0
   16.9937   69.8479   -5.8775 C   0  0  0  0  0  0  0  0  0  0  0  0
   18.7559   70.2626   -4.2549 C   0  0  0  0  0  0  0  0  0  0  0  0
   17.9931   69.9319   -3.2108 C   0  0  0  0  0  0  0  0  0  0  0  0
   16.5960   69.5107   -3.4407 C   0  0  0  0  0  0  0  0  0  0  0  0
   15.2806   69.2268   -4.9577 H   0  0  0  0  0  0  0  0  0  0  0  0
   22.7026   72.6457   -2.1089 O   0  0  0  0  0  0  0  0  0  0  0  0
   21.2916   72.4647   -1.3411 P   0  0  2  0  0  0  0  0  0  0  0  0
   21.0626   70.8632   -1.3583 O   0  0  0  0  0  0  0  0  0  0  0  0
   20.1628   73.2581   -1.9330 O   0  0  0  0  0  0  0  0  0  0  0  0
   21.6179   72.8133    0.2006 O   0  0  0  0  0  0  0  0  0  0  0  0
   22.9479   74.2528    1.5332 O   0  0  0  0  0  0  0  0  0  0  0  0
   24.2577   70.6147    2.9823 O   0  0  0  0  0  0  0  0  0  0  0  0
   22.5623   72.2630    4.6123 O   0  0  0  0  0  0  0  0  0  0  0  0
   23.6951   70.9269    0.1599 O   0  0  0  0  0  0  0  0  0  0  0  0
   23.3027   71.5401    2.4559 C   0  0  1  0  0  0  0  0  0  0  0  0
   23.1970   72.7218    3.4220 C   0  0  1  0  0  0  0  0  0  0  0  0
   23.7698   72.0108    1.0798 C   0  0  2  0  0  0  0  0  0  0  0  0
   22.3980   73.8754    2.8008 C   0  0  1  0  0  0  0  0  0  0  0  0
   22.9397   73.1925    0.5752 C   0  0  1  0  0  0  0  0  0  0  0  0
   23.9668   70.3116    3.8558 H   0  0  0  0  0  0  0  0  0  0  0  0
   23.0766   71.5344    4.9942 H   0  0  0  0  0  0  0  0  0  0  0  0
   24.2248   70.1853    0.4905 H   0  0  0  0  0  0  0  0  0  0  0  0
   23.3778   76.0230    3.1701 O   0  0  0  0  0  0  0  0  0  0  0  0
   22.4137   75.1219    3.6828 C   0  0  0  0  0  0  0  0  0  0  0  0
   23.3986   76.8214    3.7214 H   0  0  0  0  0  0  0  0  0  0  0  0
 25 28  1  0
 25 24  1  0
 25 26  1  1
 25 27  2  0
  1  4  1  0
  1 24  1  0
  1  2  1  6
  1  3  2  0
  6 11  1  0
  6 12  1  0
 29 36  1  0
 29 37  1  0
  9  7  1  6
  7 13  1  0
 10  8  1  6
  8 14  1  0
 37 28  1  1
  4  5  1  0
 33 30  1  1
 30 38  1  0
 34 31  1  1
 31 39  1  0
 35 32  1  6
 32 40  1  0
 41 42  1  0
 41 43  1  0
 15 19  2  0
 16 22  2  0
 12 17  1  1
 17 19  1  0
 17 20  1  0
 18 19  1  0
 18 22  1  0
 18 23  1  0
  9 10  1  0
  9 11  1  0
 10 12  1  0
 11  5  1  1
 33 34  1  0
 33 35  1  0
 34 36  1  0
 35 37  1  0
 36 42  1  1
 20 21  2  0
 21 22  1  0
M  CHG  2   2  -1  26  -1
M  END
>  <COMPND>  (435) 
    8629 

>  <AUTHOR>  (435) 
    GENERATED BY OPEN BABEL 3.1.1

>  <MASTER>  (435) 
        0    0    0    0    0    0    0    0   58    0   58    0

>  <minimizedAffinity>  (435) 
-7.40471

>  <CNNscore>  (435) 
0.6585128903

>  <CNNaffinity>  (435) 
4.3712105751

>  <CNN_VS>  (435) 
2.8784985542

>  <CNNaffinity_variance>  (435) 
0.1049823761

$$$$
436
     RDKit          3D

 43 45  0  0  0  0  0  0  0  0999 V2000
   21.1853   72.0209   -5.2183 P   0  0  2  0  0  0  0  0  0  0  0  0
   20.9910   70.7065   -4.2952 O   0  0  0  0  0  0  0  0  0  0  0  0
   20.2239   73.1387   -4.9398 O   0  0  0  0  0  0  0  0  0  0  0  0
   21.1697   71.4405   -6.7286 O   0  0  0  0  0  0  0  0  0  0  0  0
   20.1672   71.8993   -7.6188 C   0  0  0  0  0  0  0  0  0  0  0  0
   18.9115   69.8950   -7.1951 O   0  0  0  0  0  0  0  0  0  0  0  0
   18.1095   70.0106  -10.0820 O   0  0  0  0  0  0  0  0  0  0  0  0
   15.9106   71.0072   -8.8139 O   0  0  0  0  0  0  0  0  0  0  0  0
   18.3162   71.0791   -9.1596 C   0  0  1  0  0  0  0  0  0  0  0  0
   17.1642   71.1578   -8.1795 C   0  0  2  0  0  0  0  0  0  0  0  0
   19.4797   70.6978   -8.2528 C   0  0  1  0  0  0  0  0  0  0  0  0
   17.4799   70.0148   -7.2298 C   0  0  2  0  0  0  0  0  0  0  0  0
   17.3713   70.2313  -10.6721 H   0  0  0  0  0  0  0  0  0  0  0  0
   15.7560   71.7587   -9.4073 H   0  0  0  0  0  0  0  0  0  0  0  0
   16.2424   68.0712   -5.5961 O   0  0  0  0  0  0  0  0  0  0  0  0
   15.6777   71.0694   -2.1417 O   0  0  0  0  0  0  0  0  0  0  0  0
   17.0002   70.2601   -5.8990 N   0  0  0  0  0  0  0  0  0  0  0  0
   15.9624   69.5656   -3.8773 N   0  0  0  0  0  0  0  0  0  0  0  0
   16.3929   69.2157   -5.1635 C   0  0  0  0  0  0  0  0  0  0  0  0
   17.1342   71.5247   -5.3361 C   0  0  0  0  0  0  0  0  0  0  0  0
   16.7171   71.8425   -4.1088 C   0  0  0  0  0  0  0  0  0  0  0  0
   16.0719   70.8085   -3.2741 C   0  0  0  0  0  0  0  0  0  0  0  0
   15.5360   68.8542   -3.3465 H   0  0  0  0  0  0  0  0  0  0  0  0
   22.7404   72.3985   -4.9903 O   0  0  0  0  0  0  0  0  0  0  0  0
   23.4456   73.4030   -3.9383 P   0  0  2  0  0  0  0  0  0  0  0  0
   22.5565   74.7493   -4.0576 O   0  0  0  0  0  0  0  0  0  0  0  0
   24.9143   73.6079   -4.1729 O   0  0  0  0  0  0  0  0  0  0  0  0
   23.0780   72.7990   -2.4874 O   0  0  0  0  0  0  0  0  0  0  0  0
   20.8912   73.1116   -1.6290 O   0  0  0  0  0  0  0  0  0  0  0  0
   22.8772   72.3080    1.9011 O   0  0  0  0  0  0  0  0  0  0  0  0
   21.1110   70.3363    0.7873 O   0  0  0  0  0  0  0  0  0  0  0  0
   24.1586   73.9047   -0.1455 O   0  0  0  0  0  0  0  0  0  0  0  0
   22.6031   72.1839    0.5029 C   0  0  1  0  0  0  0  0  0  0  0  0
   21.1652   71.6875    0.3384 C   0  0  1  0  0  0  0  0  0  0  0  0
   22.7809   73.5468   -0.1636 C   0  0  2  0  0  0  0  0  0  0  0  0
   20.7100   71.7834   -1.1240 C   0  0  1  0  0  0  0  0  0  0  0  0
   22.2519   73.5469   -1.5989 C   0  0  1  0  0  0  0  0  0  0  0  0
   22.7666   71.4460    2.3301 H   0  0  0  0  0  0  0  0  0  0  0  0
   21.4013   70.2895    1.7118 H   0  0  0  0  0  0  0  0  0  0  0  0
   24.4815   73.9012    0.7687 H   0  0  0  0  0  0  0  0  0  0  0  0
   19.1252   70.1242   -1.7904 O   0  0  0  0  0  0  0  0  0  0  0  0
   19.2302   71.4428   -1.2858 C   0  0  0  0  0  0  0  0  0  0  0  0
   18.1887   69.8935   -1.8982 H   0  0  0  0  0  0  0  0  0  0  0  0
 25 28  1  0
 25 24  1  0
 25 26  1  1
 25 27  2  0
  1  4  1  0
  1 24  1  0
  1  2  1  1
  1  3  2  0
  6 11  1  0
  6 12  1  0
 29 36  1  0
 29 37  1  0
  9  7  1  6
  7 13  1  0
 10  8  1  6
  8 14  1  0
 37 28  1  6
  4  5  1  0
 33 30  1  1
 30 38  1  0
 34 31  1  6
 31 39  1  0
 35 32  1  6
 32 40  1  0
 41 42  1  0
 41 43  1  0
 15 19  2  0
 16 22  2  0
 12 17  1  1
 17 19  1  0
 17 20  1  0
 18 19  1  0
 18 22  1  0
 18 23  1  0
  9 10  1  0
  9 11  1  0
 10 12  1  0
 11  5  1  1
 33 34  1  0
 33 35  1  0
 34 36  1  0
 35 37  1  0
 36 42  1  1
 20 21  2  0
 21 22  1  0
M  CHG  2   2  -1  26  -1
M  END
>  <COMPND>  (436) 
    8629 

>  <AUTHOR>  (436) 
    GENERATED BY OPEN BABEL 3.1.1

>  <MASTER>  (436) 
        0    0    0    0    0    0    0    0   58    0   58    0

>  <minimizedAffinity>  (436) 
-7.47576

>  <CNNscore>  (436) 
0.5638626814

>  <CNNaffinity>  (436) 
4.3399744034

>  <CNN_VS>  (436) 
2.4471495152

>  <CNNaffinity_variance>  (436) 
0.4193084240

$$$$
437
     RDKit          3D

 43 45  0  0  0  0  0  0  0  0999 V2000
   22.9649   71.8955   -3.0927 P   0  0  2  0  0  0  0  0  0  0  0  0
   24.1586   70.8076   -2.9996 O   0  0  0  0  0  0  0  0  0  0  0  0
   23.1165   72.9106   -4.1873 O   0  0  0  0  0  0  0  0  0  0  0  0
   22.8638   72.4907   -1.5916 O   0  0  0  0  0  0  0  0  0  0  0  0
   23.8953   72.1814   -0.6707 C   0  0  0  0  0  0  0  0  0  0  0  0
   24.1198   71.2478    1.5320 O   0  0  0  0  0  0  0  0  0  0  0  0
   21.4452   69.9763    1.0622 O   0  0  0  0  0  0  0  0  0  0  0  0
   20.8176   72.1206    2.6257 O   0  0  0  0  0  0  0  0  0  0  0  0
   21.9235   71.2530    0.6419 C   0  0  1  0  0  0  0  0  0  0  0  0
   21.9721   72.2088    1.8157 C   0  0  2  0  0  0  0  0  0  0  0  0
   23.3985   71.1084    0.2883 C   0  0  1  0  0  0  0  0  0  0  0  0
   23.2294   71.7564    2.5386 C   0  0  2  0  0  0  0  0  0  0  0  0
   20.5049   70.0435    1.2930 H   0  0  0  0  0  0  0  0  0  0  0  0
   20.0449   72.4193    2.1212 H   0  0  0  0  0  0  0  0  0  0  0  0
   22.4157   72.7493    5.0546 O   0  0  0  0  0  0  0  0  0  0  0  0
   25.7918   75.8862    5.1132 O   0  0  0  0  0  0  0  0  0  0  0  0
   23.8779   72.8317    3.2346 N   0  0  0  0  0  0  0  0  0  0  0  0
   24.0975   74.3103    5.0818 N   0  0  0  0  0  0  0  0  0  0  0  0
   23.3895   73.2550    4.4927 C   0  0  0  0  0  0  0  0  0  0  0  0
   24.9856   73.4545    2.6698 C   0  0  0  0  0  0  0  0  0  0  0  0
   25.6488   74.4604    3.2439 C   0  0  0  0  0  0  0  0  0  0  0  0
   25.2031   74.9627    4.5596 C   0  0  0  0  0  0  0  0  0  0  0  0
   23.7751   74.6222    5.9584 H   0  0  0  0  0  0  0  0  0  0  0  0
   21.6417   70.9743   -3.2082 O   0  0  0  0  0  0  0  0  0  0  0  0
   20.1185   71.2404   -2.7371 P   0  0  2  0  0  0  0  0  0  0  0  0
   20.0751   72.8415   -2.5088 O   0  0  0  0  0  0  0  0  0  0  0  0
   19.6930   70.4332   -1.5450 O   0  0  0  0  0  0  0  0  0  0  0  0
   19.2318   70.9936   -4.0630 O   0  0  0  0  0  0  0  0  0  0  0  0
   19.7116   71.8493   -6.2203 O   0  0  0  0  0  0  0  0  0  0  0  0
   15.5948   71.6664   -6.4837 O   0  0  0  0  0  0  0  0  0  0  0  0
   17.1941   69.7764   -7.9391 O   0  0  0  0  0  0  0  0  0  0  0  0
   16.8485   72.4740   -4.0026 O   0  0  0  0  0  0  0  0  0  0  0  0
   16.8942   71.2367   -6.0687 C   0  0  1  0  0  0  0  0  0  0  0  0
   17.7250   70.9447   -7.3198 C   0  0  1  0  0  0  0  0  0  0  0  0
   17.5437   72.3419   -5.2378 C   0  0  2  0  0  0  0  0  0  0  0  0
   19.2040   70.7371   -6.9666 C   0  0  1  0  0  0  0  0  0  0  0  0
   19.0260   72.0611   -4.9846 C   0  0  1  0  0  0  0  0  0  0  0  0
   15.1767   70.9690   -7.0113 H   0  0  0  0  0  0  0  0  0  0  0  0
   16.2596   69.9205   -8.1565 H   0  0  0  0  0  0  0  0  0  0  0  0
   15.9115   72.6518   -4.1765 H   0  0  0  0  0  0  0  0  0  0  0  0
   19.4287   71.2565   -9.2880 O   0  0  0  0  0  0  0  0  0  0  0  0
   20.0759   70.6009   -8.2129 C   0  0  0  0  0  0  0  0  0  0  0  0
   19.9724   71.1783  -10.0880 H   0  0  0  0  0  0  0  0  0  0  0  0
 25 28  1  0
 25 24  1  0
 25 26  1  1
 25 27  2  0
  1  4  1  0
  1 24  1  0
  1  2  1  1
  1  3  2  0
  6 11  1  0
  6 12  1  0
 29 36  1  0
 29 37  1  0
  9  7  1  1
  7 13  1  0
 10  8  1  1
  8 14  1  0
 37 28  1  1
  4  5  1  0
 33 30  1  6
 30 38  1  0
 34 31  1  1
 31 39  1  0
 35 32  1  1
 32 40  1  0
 41 42  1  0
 41 43  1  0
 15 19  2  0
 16 22  2  0
 12 17  1  6
 17 19  1  0
 17 20  1  0
 18 19  1  0
 18 22  1  0
 18 23  1  0
  9 10  1  0
  9 11  1  0
 10 12  1  0
 11  5  1  6
 33 34  1  0
 33 35  1  0
 34 36  1  0
 35 37  1  0
 36 42  1  6
 20 21  2  0
 21 22  1  0
M  CHG  2   2  -1  26  -1
M  END
>  <COMPND>  (437) 
    8629 

>  <AUTHOR>  (437) 
    GENERATED BY OPEN BABEL 3.1.1

>  <MASTER>  (437) 
        0    0    0    0    0    0    0    0   58    0   58    0

>  <minimizedAffinity>  (437) 
-7.02193

>  <CNNscore>  (437) 
0.5436052084

>  <CNNaffinity>  (437) 
4.2718882561

>  <CNN_VS>  (437) 
2.3222208023

>  <CNNaffinity_variance>  (437) 
0.1201472506

$$$$
438
     RDKit          3D

 43 45  0  0  0  0  0  0  0  0999 V2000
   19.2200   71.5660   -2.4092 P   0  0  2  0  0  0  0  0  0  0  0  0
   19.6174   70.4127   -1.3465 O   0  0  0  0  0  0  0  0  0  0  0  0
   20.3096   71.9473   -3.3677 O   0  0  0  0  0  0  0  0  0  0  0  0
   18.6456   72.7639   -1.4857 O   0  0  0  0  0  0  0  0  0  0  0  0
   19.4466   73.9179   -1.2998 C   0  0  0  0  0  0  0  0  0  0  0  0
   19.6889   73.4656    1.0477 O   0  0  0  0  0  0  0  0  0  0  0  0
   19.3605   76.4174    1.4595 O   0  0  0  0  0  0  0  0  0  0  0  0
   22.0588   76.0842    1.6711 O   0  0  0  0  0  0  0  0  0  0  0  0
   20.0174   75.7216    0.4013 C   0  0  1  0  0  0  0  0  0  0  0  0
   21.3386   75.1590    0.8824 C   0  0  2  0  0  0  0  0  0  0  0  0
   19.2214   74.4564    0.1064 C   0  0  1  0  0  0  0  0  0  0  0  0
   20.8930   73.9399    1.6720 C   0  0  2  0  0  0  0  0  0  0  0  0
   19.8505   77.2295    1.6654 H   0  0  0  0  0  0  0  0  0  0  0  0
   22.3199   76.8414    1.1240 H   0  0  0  0  0  0  0  0  0  0  0  0
   22.0144   72.7683    3.9845 O   0  0  0  0  0  0  0  0  0  0  0  0
   24.6400   69.9179    1.4899 O   0  0  0  0  0  0  0  0  0  0  0  0
   21.8716   72.8894    1.6560 N   0  0  0  0  0  0  0  0  0  0  0  0
   23.3207   71.3498    2.7405 N   0  0  0  0  0  0  0  0  0  0  0  0
   22.3714   72.3712    2.8734 C   0  0  0  0  0  0  0  0  0  0  0  0
   22.3255   72.3835    0.4427 C   0  0  0  0  0  0  0  0  0  0  0  0
   23.2321   71.4103    0.3331 C   0  0  0  0  0  0  0  0  0  0  0  0
   23.8046   70.8142    1.5574 C   0  0  0  0  0  0  0  0  0  0  0  0
   23.6833   70.9738    3.5753 H   0  0  0  0  0  0  0  0  0  0  0  0
   17.8873   70.9739   -3.1067 O   0  0  0  0  0  0  0  0  0  0  0  0
   17.6117   69.5602   -3.8404 P   0  0  2  0  0  0  0  0  0  0  0  0
   16.0220   69.3399   -3.6363 O   0  0  0  0  0  0  0  0  0  0  0  0
   18.4630   68.4301   -3.3383 O   0  0  0  0  0  0  0  0  0  0  0  0
   17.7806   69.8769   -5.4140 O   0  0  0  0  0  0  0  0  0  0  0  0
   19.1046   71.4255   -6.6245 O   0  0  0  0  0  0  0  0  0  0  0  0
   15.5862   71.7540   -8.7608 O   0  0  0  0  0  0  0  0  0  0  0  0
   17.8330   70.3989   -9.9287 O   0  0  0  0  0  0  0  0  0  0  0  0
   15.5053   71.4510   -5.8831 O   0  0  0  0  0  0  0  0  0  0  0  0
   16.5905   71.0767   -8.0005 C   0  0  1  0  0  0  0  0  0  0  0  0
   17.9195   71.1940   -8.7495 C   0  0  1  0  0  0  0  0  0  0  0  0
   16.6923   71.7230   -6.6202 C   0  0  2  0  0  0  0  0  0  0  0  0
   19.0911   70.7272   -7.8751 C   0  0  1  0  0  0  0  0  0  0  0  0
   17.9187   71.2258   -5.8528 C   0  0  1  0  0  0  0  0  0  0  0  0
   15.5162   71.3481   -9.6383 H   0  0  0  0  0  0  0  0  0  0  0  0
   17.0890   70.7036  -10.4717 H   0  0  0  0  0  0  0  0  0  0  0  0
   14.7363   71.7708   -6.3793 H   0  0  0  0  0  0  0  0  0  0  0  0
   20.8794   72.2807   -8.1876 O   0  0  0  0  0  0  0  0  0  0  0  0
   20.4405   70.9826   -8.5431 C   0  0  0  0  0  0  0  0  0  0  0  0
   21.7374   72.4570   -8.6054 H   0  0  0  0  0  0  0  0  0  0  0  0
 25 28  1  0
 25 24  1  0
 25 26  1  6
 25 27  2  0
  1  4  1  0
  1 24  1  0
  1  2  1  1
  1  3  2  0
  6 11  1  0
  6 12  1  0
 29 36  1  0
 29 37  1  0
  9  7  1  1
  7 13  1  0
 10  8  1  1
  8 14  1  0
 37 28  1  6
  4  5  1  0
 33 30  1  6
 30 38  1  0
 34 31  1  6
 31 39  1  0
 35 32  1  1
 32 40  1  0
 41 42  1  0
 41 43  1  0
 15 19  2  0
 16 22  2  0
 12 17  1  6
 17 19  1  0
 17 20  1  0
 18 19  1  0
 18 22  1  0
 18 23  1  0
  9 10  1  0
  9 11  1  0
 10 12  1  0
 11  5  1  6
 33 34  1  0
 33 35  1  0
 34 36  1  0
 35 37  1  0
 36 42  1  6
 20 21  2  0
 21 22  1  0
M  CHG  2   2  -1  26  -1
M  END
>  <COMPND>  (438) 
    8629 

>  <AUTHOR>  (438) 
    GENERATED BY OPEN BABEL 3.1.1

>  <MASTER>  (438) 
        0    0    0    0    0    0    0    0   58    0   58    0

>  <minimizedAffinity>  (438) 
-6.96461

>  <CNNscore>  (438) 
0.5293783545

>  <CNNaffinity>  (438) 
4.1871852875

>  <CNN_VS>  (438) 
2.2166051865

>  <CNNaffinity_variance>  (438) 
0.1807127893

$$$$
439
     RDKit          3D

 43 45  0  0  0  0  0  0  0  0999 V2000
   21.8951   72.3854   -5.8046 P   0  0  2  0  0  0  0  0  0  0  0  0
   21.1807   73.6971   -5.1829 O   0  0  0  0  0  0  0  0  0  0  0  0
   23.0386   72.6672   -6.7343 O   0  0  0  0  0  0  0  0  0  0  0  0
   20.6696   71.5376   -6.4350 O   0  0  0  0  0  0  0  0  0  0  0  0
   20.2613   71.8236   -7.7613 C   0  0  0  0  0  0  0  0  0  0  0  0
   18.9007   69.9267   -7.1919 O   0  0  0  0  0  0  0  0  0  0  0  0
   18.0190   69.9349  -10.0578 O   0  0  0  0  0  0  0  0  0  0  0  0
   15.9240   71.1328   -8.7880 O   0  0  0  0  0  0  0  0  0  0  0  0
   18.3178   71.0370   -9.2026 C   0  0  1  0  0  0  0  0  0  0  0  0
   17.2033   71.2399   -8.1975 C   0  0  2  0  0  0  0  0  0  0  0  0
   19.4835   70.6344   -8.3080 C   0  0  1  0  0  0  0  0  0  0  0  0
   17.4786   70.1328   -7.1941 C   0  0  2  0  0  0  0  0  0  0  0  0
   17.2777   70.1684  -10.6389 H   0  0  0  0  0  0  0  0  0  0  0  0
   15.7968   71.8591   -9.4181 H   0  0  0  0  0  0  0  0  0  0  0  0
   16.5802   68.2714   -5.2690 O   0  0  0  0  0  0  0  0  0  0  0  0
   15.8789   71.5758   -2.1337 O   0  0  0  0  0  0  0  0  0  0  0  0
   17.0554   70.4791   -5.8666 N   0  0  0  0  0  0  0  0  0  0  0  0
   16.2319   69.9182   -3.7094 N   0  0  0  0  0  0  0  0  0  0  0  0
   16.6213   69.4684   -4.9775 C   0  0  0  0  0  0  0  0  0  0  0  0
   17.0739   71.8083   -5.4580 C   0  0  0  0  0  0  0  0  0  0  0  0
   16.6981   72.2208   -4.2456 C   0  0  0  0  0  0  0  0  0  0  0  0
   16.2312   71.2280   -3.2566 C   0  0  0  0  0  0  0  0  0  0  0  0
   15.9254   69.2318   -3.0732 H   0  0  0  0  0  0  0  0  0  0  0  0
   22.2909   71.5302   -4.4913 O   0  0  0  0  0  0  0  0  0  0  0  0
   23.3484   71.8323   -3.3067 P   0  0  2  0  0  0  0  0  0  0  0  0
   24.0869   73.1831   -3.8042 O   0  0  0  0  0  0  0  0  0  0  0  0
   24.2786   70.6927   -3.0067 O   0  0  0  0  0  0  0  0  0  0  0  0
   22.4399   72.3008   -2.0577 O   0  0  0  0  0  0  0  0  0  0  0  0
   21.8355   71.2101   -0.0423 O   0  0  0  0  0  0  0  0  0  0  0  0
   18.2498   73.0774   -0.8831 O   0  0  0  0  0  0  0  0  0  0  0  0
   19.8841   74.0492    1.2692 O   0  0  0  0  0  0  0  0  0  0  0  0
   19.8311   71.9535   -3.0316 O   0  0  0  0  0  0  0  0  0  0  0  0
   19.6735   72.9479   -0.8435 C   0  0  1  0  0  0  0  0  0  0  0  0
   20.1012   72.8006    0.6181 C   0  0  1  0  0  0  0  0  0  0  0  0
   20.0856   71.7184   -1.6508 C   0  0  2  0  0  0  0  0  0  0  0  0
   21.5764   72.3915    0.7251 C   0  0  1  0  0  0  0  0  0  0  0  0
   21.5592   71.3690   -1.4353 C   0  0  1  0  0  0  0  0  0  0  0  0
   17.9816   73.8566   -0.3728 H   0  0  0  0  0  0  0  0  0  0  0  0
   18.9489   74.2963    1.1939 H   0  0  0  0  0  0  0  0  0  0  0  0
   18.8950   72.1733   -3.1548 H   0  0  0  0  0  0  0  0  0  0  0  0
   20.8124   72.0401    2.9616 O   0  0  0  0  0  0  0  0  0  0  0  0
   21.9821   72.0858    2.1653 C   0  0  0  0  0  0  0  0  0  0  0  0
   21.0553   71.8460    3.8809 H   0  0  0  0  0  0  0  0  0  0  0  0
 25 28  1  0
 25 24  1  0
 25 26  1  6
 25 27  2  0
  1  4  1  0
  1 24  1  0
  1  2  1  1
  1  3  2  0
  6 11  1  0
  6 12  1  0
 29 36  1  0
 29 37  1  0
  9  7  1  6
  7 13  1  0
 10  8  1  6
  8 14  1  0
 37 28  1  1
  4  5  1  0
 33 30  1  1
 30 38  1  0
 34 31  1  1
 31 39  1  0
 35 32  1  6
 32 40  1  0
 41 42  1  0
 41 43  1  0
 15 19  2  0
 16 22  2  0
 12 17  1  1
 17 19  1  0
 17 20  1  0
 18 19  1  0
 18 22  1  0
 18 23  1  0
  9 10  1  0
  9 11  1  0
 10 12  1  0
 11  5  1  1
 33 34  1  0
 33 35  1  0
 34 36  1  0
 35 37  1  0
 36 42  1  1
 20 21  2  0
 21 22  1  0
M  CHG  2   2  -1  26  -1
M  END
>  <COMPND>  (439) 
    8629 

>  <AUTHOR>  (439) 
    GENERATED BY OPEN BABEL 3.1.1

>  <MASTER>  (439) 
        0    0    0    0    0    0    0    0   58    0   58    0

>  <minimizedAffinity>  (439) 
-7.62511

>  <CNNscore>  (439) 
0.4956537783

>  <CNNaffinity>  (439) 
4.1864461899

>  <CNN_VS>  (439) 
2.0750279427

>  <CNNaffinity_variance>  (439) 
0.5065258741

$$$$
440
     RDKit          3D

 43 45  0  0  0  0  0  0  0  0999 V2000
   23.1813   73.7284   -4.2003 P   0  0  2  0  0  0  0  0  0  0  0  0
   24.0721   72.3796   -4.2684 O   0  0  0  0  0  0  0  0  0  0  0  0
   23.7960   74.9280   -4.8594 O   0  0  0  0  0  0  0  0  0  0  0  0
   22.8396   73.8891   -2.6270 O   0  0  0  0  0  0  0  0  0  0  0  0
   21.9040   74.8789   -2.2360 C   0  0  0  0  0  0  0  0  0  0  0  0
   21.0987   72.8965   -1.1428 O   0  0  0  0  0  0  0  0  0  0  0  0
   18.7715   74.5617   -0.2472 O   0  0  0  0  0  0  0  0  0  0  0  0
   20.3453   74.4935    1.9788 O   0  0  0  0  0  0  0  0  0  0  0  0
   20.1399   74.9336   -0.4035 C   0  0  1  0  0  0  0  0  0  0  0  0
   20.9737   74.3553    0.7208 C   0  0  2  0  0  0  0  0  0  0  0  0
   20.6903   74.1977   -1.6187 C   0  0  1  0  0  0  0  0  0  0  0  0
   21.1148   72.9040    0.2940 C   0  0  2  0  0  0  0  0  0  0  0  0
   18.3981   75.0196    0.5228 H   0  0  0  0  0  0  0  0  0  0  0  0
   20.2790   75.4342    2.2057 H   0  0  0  0  0  0  0  0  0  0  0  0
   21.4364   70.1704    0.9280 O   0  0  0  0  0  0  0  0  0  0  0  0
   25.8715   70.7604    2.0339 O   0  0  0  0  0  0  0  0  0  0  0  0
   22.3428   72.3161    0.7497 N   0  0  0  0  0  0  0  0  0  0  0  0
   23.6446   70.4664    1.4780 N   0  0  0  0  0  0  0  0  0  0  0  0
   22.3981   70.9333    1.0418 C   0  0  0  0  0  0  0  0  0  0  0  0
   23.4756   73.1082    0.9024 C   0  0  0  0  0  0  0  0  0  0  0  0
   24.6564   72.6477    1.3205 C   0  0  0  0  0  0  0  0  0  0  0  0
   24.7991   71.2142    1.6469 C   0  0  0  0  0  0  0  0  0  0  0  0
   23.7067   69.5062    1.6878 H   0  0  0  0  0  0  0  0  0  0  0  0
   21.7685   73.2632   -4.8333 O   0  0  0  0  0  0  0  0  0  0  0  0
   21.2246   73.2970   -6.3551 P   0  0  2  0  0  0  0  0  0  0  0  0
   22.2938   72.3807   -7.1517 O   0  0  0  0  0  0  0  0  0  0  0  0
   21.0532   74.6787   -6.9167 O   0  0  0  0  0  0  0  0  0  0  0  0
   19.8735   72.4146   -6.3257 O   0  0  0  0  0  0  0  0  0  0  0  0
   19.1999   70.2360   -5.6801 O   0  0  0  0  0  0  0  0  0  0  0  0
   17.5707   70.3335   -9.4731 O   0  0  0  0  0  0  0  0  0  0  0  0
   15.8442   70.4946   -7.1837 O   0  0  0  0  0  0  0  0  0  0  0  0
   20.1528   71.5451   -8.9792 O   0  0  0  0  0  0  0  0  0  0  0  0
   17.9695   70.8774   -8.2120 C   0  0  1  0  0  0  0  0  0  0  0  0
   17.2193   70.1293   -7.1082 C   0  0  1  0  0  0  0  0  0  0  0  0
   19.4784   70.7049   -8.0487 C   0  0  2  0  0  0  0  0  0  0  0  0
   17.7873   70.4695   -5.7238 C   0  0  1  0  0  0  0  0  0  0  0  0
   19.9321   71.0219   -6.6226 C   0  0  1  0  0  0  0  0  0  0  0  0
   16.6136   70.4403   -9.5833 H   0  0  0  0  0  0  0  0  0  0  0  0
   15.4978   70.2750   -8.0630 H   0  0  0  0  0  0  0  0  0  0  0  0
   19.8572   71.3344   -9.8781 H   0  0  0  0  0  0  0  0  0  0  0  0
   16.5741   68.4740   -5.2186 O   0  0  0  0  0  0  0  0  0  0  0  0
   17.1601   69.6169   -4.6230 C   0  0  0  0  0  0  0  0  0  0  0  0
   16.1712   67.9218   -4.5298 H   0  0  0  0  0  0  0  0  0  0  0  0
 25 28  1  0
 25 24  1  0
 25 26  1  6
 25 27  2  0
  1  4  1  0
  1 24  1  0
  1  2  1  1
  1  3  2  0
  6 11  1  0
  6 12  1  0
 29 36  1  0
 29 37  1  0
  9  7  1  1
  7 13  1  0
 10  8  1  1
  8 14  1  0
 37 28  1  1
  4  5  1  0
 33 30  1  6
 30 38  1  0
 34 31  1  1
 31 39  1  0
 35 32  1  6
 32 40  1  0
 41 42  1  0
 41 43  1  0
 15 19  2  0
 16 22  2  0
 12 17  1  6
 17 19  1  0
 17 20  1  0
 18 19  1  0
 18 22  1  0
 18 23  1  0
  9 10  1  0
  9 11  1  0
 10 12  1  0
 11  5  1  1
 33 34  1  0
 33 35  1  0
 34 36  1  0
 35 37  1  0
 36 42  1  1
 20 21  2  0
 21 22  1  0
M  CHG  2   2  -1  26  -1
M  END
>  <COMPND>  (440) 
    8629 

>  <AUTHOR>  (440) 
    GENERATED BY OPEN BABEL 3.1.1

>  <MASTER>  (440) 
        0    0    0    0    0    0    0    0   58    0   58    0

>  <minimizedAffinity>  (440) 
-7.66881

>  <CNNscore>  (440) 
0.4950668514

>  <CNNaffinity>  (440) 
4.3709177971

>  <CNN_VS>  (440) 
2.1638965607

>  <CNNaffinity_variance>  (440) 
0.1355406046

$$$$
441
     RDKit          3D

 43 45  0  0  0  0  0  0  0  0999 V2000
   20.3634   71.2565   -1.3365 P   0  0  2  0  0  0  0  0  0  0  0  0
   20.8463   70.6220    0.0712 O   0  0  0  0  0  0  0  0  0  0  0  0
   19.7796   72.6356   -1.2429 O   0  0  0  0  0  0  0  0  0  0  0  0
   19.3920   70.1231   -1.9606 O   0  0  0  0  0  0  0  0  0  0  0  0
   19.0776   70.1874   -3.3407 C   0  0  0  0  0  0  0  0  0  0  0  0
   17.4557   71.2920   -4.7275 O   0  0  0  0  0  0  0  0  0  0  0  0
   15.3843   69.7222   -3.2322 O   0  0  0  0  0  0  0  0  0  0  0  0
   15.6221   68.3247   -5.5618 O   0  0  0  0  0  0  0  0  0  0  0  0
   16.6983   69.3335   -3.6291 C   0  0  1  0  0  0  0  0  0  0  0  0
   16.7402   69.0668   -5.1193 C   0  0  2  0  0  0  0  0  0  0  0  0
   17.6070   70.5494   -3.4979 C   0  0  1  0  0  0  0  0  0  0  0  0
   16.7710   70.4743   -5.6905 C   0  0  2  0  0  0  0  0  0  0  0  0
   14.7858   68.9618   -3.3072 H   0  0  0  0  0  0  0  0  0  0  0  0
   15.6477   67.4373   -5.1712 H   0  0  0  0  0  0  0  0  0  0  0  0
   15.5152   70.5732   -8.2186 O   0  0  0  0  0  0  0  0  0  0  0  0
   19.5586   70.7319  -10.4246 O   0  0  0  0  0  0  0  0  0  0  0  0
   17.4713   70.5423   -6.9420 N   0  0  0  0  0  0  0  0  0  0  0  0
   17.5295   70.6523   -9.3149 N   0  0  0  0  0  0  0  0  0  0  0  0
   16.7463   70.5870   -8.1555 C   0  0  0  0  0  0  0  0  0  0  0  0
   18.8617   70.5643   -6.9577 C   0  0  0  0  0  0  0  0  0  0  0  0
   19.5938   70.6255   -8.0719 C   0  0  0  0  0  0  0  0  0  0  0  0
   18.9136   70.6753   -9.3822 C   0  0  0  0  0  0  0  0  0  0  0  0
   17.0461   70.6840  -10.1722 H   0  0  0  0  0  0  0  0  0  0  0  0
   21.6874   71.1475   -2.2574 O   0  0  0  0  0  0  0  0  0  0  0  0
   22.8466   72.2264   -2.5818 P   0  0  2  0  0  0  0  0  0  0  0  0
   23.9537   71.3540   -3.3761 O   0  0  0  0  0  0  0  0  0  0  0  0
   23.3744   72.9446   -1.3737 O   0  0  0  0  0  0  0  0  0  0  0  0
   22.2045   73.1905   -3.7057 O   0  0  0  0  0  0  0  0  0  0  0  0
   20.0359   73.1240   -4.6593 O   0  0  0  0  0  0  0  0  0  0  0  0
   22.1696   74.3899   -7.9601 O   0  0  0  0  0  0  0  0  0  0  0  0
   20.4531   76.2382   -6.5870 O   0  0  0  0  0  0  0  0  0  0  0  0
   23.3137   72.4260   -6.1674 O   0  0  0  0  0  0  0  0  0  0  0  0
   21.8550   74.3004   -6.5679 C   0  0  1  0  0  0  0  0  0  0  0  0
   20.4350   74.8313   -6.3620 C   0  0  1  0  0  0  0  0  0  0  0  0
   21.9526   72.8411   -6.1269 C   0  0  2  0  0  0  0  0  0  0  0  0
   19.9281   74.5231   -4.9466 C   0  0  1  0  0  0  0  0  0  0  0  0
   21.3770   72.6352   -4.7246 C   0  0  1  0  0  0  0  0  0  0  0  0
   22.1099   75.3140   -8.2464 H   0  0  0  0  0  0  0  0  0  0  0  0
   20.7755   76.4193   -7.4839 H   0  0  0  0  0  0  0  0  0  0  0  0
   23.6663   72.5611   -7.0603 H   0  0  0  0  0  0  0  0  0  0  0  0
   17.9095   74.1030   -3.7393 O   0  0  0  0  0  0  0  0  0  0  0  0
   18.4596   74.9029   -4.7697 C   0  0  0  0  0  0  0  0  0  0  0  0
   16.9751   74.3340   -3.6154 H   0  0  0  0  0  0  0  0  0  0  0  0
 25 28  1  0
 25 24  1  0
 25 26  1  6
 25 27  2  0
  1  4  1  0
  1 24  1  0
  1  2  1  1
  1  3  2  0
  6 11  1  0
  6 12  1  0
 29 36  1  0
 29 37  1  0
  9  7  1  6
  7 13  1  0
 10  8  1  6
  8 14  1  0
 37 28  1  1
  4  5  1  0
 33 30  1  6
 30 38  1  0
 34 31  1  1
 31 39  1  0
 35 32  1  1
 32 40  1  0
 41 42  1  0
 41 43  1  0
 15 19  2  0
 16 22  2  0
 12 17  1  6
 17 19  1  0
 17 20  1  0
 18 19  1  0
 18 22  1  0
 18 23  1  0
  9 10  1  0
  9 11  1  0
 10 12  1  0
 11  5  1  6
 33 34  1  0
 33 35  1  0
 34 36  1  0
 35 37  1  0
 36 42  1  6
 20 21  2  0
 21 22  1  0
M  CHG  2   2  -1  26  -1
M  END
>  <COMPND>  (441) 
    8629 

>  <AUTHOR>  (441) 
    GENERATED BY OPEN BABEL 3.1.1

>  <MASTER>  (441) 
        0    0    0    0    0    0    0    0   58    0   58    0

>  <minimizedAffinity>  (441) 
-7.71984

>  <CNNscore>  (441) 
0.9198921323

>  <CNNaffinity>  (441) 
4.6623611450

>  <CNN_VS>  (441) 
4.2888693810

>  <CNNaffinity_variance>  (441) 
0.6184589267

$$$$
442
     RDKit          3D

 43 45  0  0  0  0  0  0  0  0999 V2000
   22.7695   71.4583   -2.5153 P   0  0  2  0  0  0  0  0  0  0  0  0
   22.3480   72.7307   -3.4212 O   0  0  0  0  0  0  0  0  0  0  0  0
   24.0718   70.8154   -2.8924 O   0  0  0  0  0  0  0  0  0  0  0  0
   21.4697   70.4963   -2.5679 O   0  0  0  0  0  0  0  0  0  0  0  0
   20.7426   70.4080   -3.7809 C   0  0  0  0  0  0  0  0  0  0  0  0
   18.8555   71.5447   -4.7405 O   0  0  0  0  0  0  0  0  0  0  0  0
   17.2255   70.2827   -2.5630 O   0  0  0  0  0  0  0  0  0  0  0  0
   16.6745   68.6977   -4.7127 O   0  0  0  0  0  0  0  0  0  0  0  0
   18.3360   69.7498   -3.2830 C   0  0  1  0  0  0  0  0  0  0  0  0
   17.9178   69.3688   -4.6878 C   0  0  2  0  0  0  0  0  0  0  0  0
   19.3173   70.8865   -3.5406 C   0  0  1  0  0  0  0  0  0  0  0  0
   17.8663   70.7207   -5.3789 C   0  0  2  0  0  0  0  0  0  0  0  0
   16.5852   69.5750   -2.3866 H   0  0  0  0  0  0  0  0  0  0  0  0
   16.7588   67.8435   -4.2610 H   0  0  0  0  0  0  0  0  0  0  0  0
   15.9574   70.1840   -7.3904 O   0  0  0  0  0  0  0  0  0  0  0  0
   19.1361   70.4002  -10.7207 O   0  0  0  0  0  0  0  0  0  0  0  0
   18.1675   70.6315   -6.7799 N   0  0  0  0  0  0  0  0  0  0  0  0
   17.5417   70.2923   -9.0470 N   0  0  0  0  0  0  0  0  0  0  0  0
   17.1361   70.3566   -7.7078 C   0  0  0  0  0  0  0  0  0  0  0  0
   19.4732   70.8161   -7.2212 C   0  0  0  0  0  0  0  0  0  0  0  0
   19.8438   70.7503   -8.5016 C   0  0  0  0  0  0  0  0  0  0  0  0
   18.8270   70.4672   -9.5350 C   0  0  0  0  0  0  0  0  0  0  0  0
   16.8402   70.1015   -9.7113 H   0  0  0  0  0  0  0  0  0  0  0  0
   22.7223   72.0509   -1.0121 O   0  0  0  0  0  0  0  0  0  0  0  0
   22.8425   71.3163    0.4228 P   0  0  2  0  0  0  0  0  0  0  0  0
   24.3336   70.6891    0.3948 O   0  0  0  0  0  0  0  0  0  0  0  0
   21.7556   70.3173    0.6957 O   0  0  0  0  0  0  0  0  0  0  0  0
   22.9274   72.5215    1.4929 O   0  0  0  0  0  0  0  0  0  0  0  0
   24.1806   72.8155    3.4828 O   0  0  0  0  0  0  0  0  0  0  0  0
   20.5882   74.4323    4.7206 O   0  0  0  0  0  0  0  0  0  0  0  0
   22.8213   76.1642    4.2091 O   0  0  0  0  0  0  0  0  0  0  0  0
   20.6077   72.0946    3.0134 O   0  0  0  0  0  0  0  0  0  0  0  0
   21.6299   74.1336    3.7873 C   0  0  1  0  0  0  0  0  0  0  0  0
   22.9310   74.7471    4.3083 C   0  0  1  0  0  0  0  0  0  0  0  0
   21.7644   72.6175    3.6577 C   0  0  2  0  0  0  0  0  0  0  0  0
   24.1396   74.2472    3.5055 C   0  0  1  0  0  0  0  0  0  0  0  0
   23.0247   72.2264    2.8839 C   0  0  1  0  0  0  0  0  0  0  0  0
   20.4973   75.3934    4.8071 H   0  0  0  0  0  0  0  0  0  0  0  0
   22.0541   76.4669    4.7199 H   0  0  0  0  0  0  0  0  0  0  0  0
   19.8167   72.3488    3.5131 H   0  0  0  0  0  0  0  0  0  0  0  0
   25.6797   76.0626    3.7079 O   0  0  0  0  0  0  0  0  0  0  0  0
   25.4611   74.7217    4.1060 C   0  0  0  0  0  0  0  0  0  0  0  0
   26.5172   76.3782    4.0831 H   0  0  0  0  0  0  0  0  0  0  0  0
 25 28  1  0
 25 24  1  0
 25 26  1  6
 25 27  2  0
  1  4  1  0
  1 24  1  0
  1  2  1  6
  1  3  2  0
  6 11  1  0
  6 12  1  0
 29 36  1  0
 29 37  1  0
  9  7  1  1
  7 13  1  0
 10  8  1  1
  8 14  1  0
 37 28  1  6
  4  5  1  0
 33 30  1  1
 30 38  1  0
 34 31  1  6
 31 39  1  0
 35 32  1  6
 32 40  1  0
 41 42  1  0
 41 43  1  0
 15 19  2  0
 16 22  2  0
 12 17  1  6
 17 19  1  0
 17 20  1  0
 18 19  1  0
 18 22  1  0
 18 23  1  0
  9 10  1  0
  9 11  1  0
 10 12  1  0
 11  5  1  6
 33 34  1  0
 33 35  1  0
 34 36  1  0
 35 37  1  0
 36 42  1  1
 20 21  2  0
 21 22  1  0
M  CHG  2   2  -1  26  -1
M  END
>  <COMPND>  (442) 
    8629 

>  <AUTHOR>  (442) 
    GENERATED BY OPEN BABEL 3.1.1

>  <MASTER>  (442) 
        0    0    0    0    0    0    0    0   58    0   58    0

>  <minimizedAffinity>  (442) 
-7.65182

>  <CNNscore>  (442) 
0.9010420442

>  <CNNaffinity>  (442) 
4.6797676086

>  <CNN_VS>  (442) 
4.2166671753

>  <CNNaffinity_variance>  (442) 
0.0570676439

$$$$
443
     RDKit          3D

 43 45  0  0  0  0  0  0  0  0999 V2000
   20.6325   72.0028   -2.5375 P   0  0  2  0  0  0  0  0  0  0  0  0
   19.5186   73.1401   -2.2491 O   0  0  0  0  0  0  0  0  0  0  0  0
   21.3732   72.1552   -3.8334 O   0  0  0  0  0  0  0  0  0  0  0  0
   19.8263   70.6127   -2.3482 O   0  0  0  0  0  0  0  0  0  0  0  0
   19.2315   70.0156   -3.4873 C   0  0  0  0  0  0  0  0  0  0  0  0
   17.6448   71.2554   -4.7984 O   0  0  0  0  0  0  0  0  0  0  0  0
   15.5206   69.7911   -3.2706 O   0  0  0  0  0  0  0  0  0  0  0  0
   15.5942   68.4344   -5.6350 O   0  0  0  0  0  0  0  0  0  0  0  0
   16.7933   69.3262   -3.7172 C   0  0  1  0  0  0  0  0  0  0  0  0
   16.7720   69.0914   -5.2132 C   0  0  2  0  0  0  0  0  0  0  0  0
   17.7841   70.4767   -3.5899 C   0  0  1  0  0  0  0  0  0  0  0  0
   16.8784   70.5064   -5.7558 C   0  0  2  0  0  0  0  0  0  0  0  0
   14.8711   69.0734   -3.3422 H   0  0  0  0  0  0  0  0  0  0  0  0
   15.5730   67.5385   -5.2639 H   0  0  0  0  0  0  0  0  0  0  0  0
   15.5560   70.4546   -8.2511 O   0  0  0  0  0  0  0  0  0  0  0  0
   19.5315   70.7036  -10.5695 O   0  0  0  0  0  0  0  0  0  0  0  0
   17.5432   70.5568   -7.0273 N   0  0  0  0  0  0  0  0  0  0  0  0
   17.5366   70.5788   -9.4034 N   0  0  0  0  0  0  0  0  0  0  0  0
   16.7865   70.5239   -8.2218 C   0  0  0  0  0  0  0  0  0  0  0  0
   18.9304   70.6383   -7.0813 C   0  0  0  0  0  0  0  0  0  0  0  0
   19.6308   70.6886   -8.2163 C   0  0  0  0  0  0  0  0  0  0  0  0
   18.9161   70.6590   -9.5087 C   0  0  0  0  0  0  0  0  0  0  0  0
   17.0306   70.5568  -10.2480 H   0  0  0  0  0  0  0  0  0  0  0  0
   21.5648   72.0645   -1.2184 O   0  0  0  0  0  0  0  0  0  0  0  0
   21.1868   72.0094    0.3523 P   0  0  2  0  0  0  0  0  0  0  0  0
   21.0661   70.4236    0.6494 O   0  0  0  0  0  0  0  0  0  0  0  0
   19.9665   72.8029    0.7197 O   0  0  0  0  0  0  0  0  0  0  0  0
   22.5353   72.4651    1.1132 O   0  0  0  0  0  0  0  0  0  0  0  0
   24.4300   73.6916    0.3906 O   0  0  0  0  0  0  0  0  0  0  0  0
   26.3253   70.8702    2.7354 O   0  0  0  0  0  0  0  0  0  0  0  0
   26.1305   73.5824    3.6594 O   0  0  0  0  0  0  0  0  0  0  0  0
   24.0562   70.1068    1.1081 O   0  0  0  0  0  0  0  0  0  0  0  0
   25.2699   71.7626    2.3678 C   0  0  1  0  0  0  0  0  0  0  0  0
   25.8366   73.1831    2.3236 C   0  0  1  0  0  0  0  0  0  0  0  0
   24.7277   71.3572    0.9984 C   0  0  2  0  0  0  0  0  0  0  0  0
   24.8397   74.1574    1.6817 C   0  0  1  0  0  0  0  0  0  0  0  0
   23.7841   72.4176    0.4281 C   0  0  1  0  0  0  0  0  0  0  0  0
   26.6736   71.1218    3.6043 H   0  0  0  0  0  0  0  0  0  0  0  0
   26.7606   72.9587    4.0535 H   0  0  0  0  0  0  0  0  0  0  0  0
   24.6642   69.4441    1.4700 H   0  0  0  0  0  0  0  0  0  0  0  0
   25.6600   76.1274    2.7566 O   0  0  0  0  0  0  0  0  0  0  0  0
   25.4438   75.5460    1.4840 C   0  0  0  0  0  0  0  0  0  0  0  0
   26.0445   77.0115    2.6463 H   0  0  0  0  0  0  0  0  0  0  0  0
 25 28  1  0
 25 24  1  0
 25 26  1  1
 25 27  2  0
  1  4  1  0
  1 24  1  0
  1  2  1  1
  1  3  2  0
  6 11  1  0
  6 12  1  0
 29 36  1  0
 29 37  1  0
  9  7  1  6
  7 13  1  0
 10  8  1  1
  8 14  1  0
 37 28  1  1
  4  5  1  0
 33 30  1  6
 30 38  1  0
 34 31  1  1
 31 39  1  0
 35 32  1  1
 32 40  1  0
 41 42  1  0
 41 43  1  0
 15 19  2  0
 16 22  2  0
 12 17  1  6
 17 19  1  0
 17 20  1  0
 18 19  1  0
 18 22  1  0
 18 23  1  0
  9 10  1  0
  9 11  1  0
 10 12  1  0
 11  5  1  6
 33 34  1  0
 33 35  1  0
 34 36  1  0
 35 37  1  0
 36 42  1  6
 20 21  2  0
 21 22  1  0
M  CHG  2   2  -1  26  -1
M  END
>  <COMPND>  (443) 
    8629 

>  <AUTHOR>  (443) 
    GENERATED BY OPEN BABEL 3.1.1

>  <MASTER>  (443) 
        0    0    0    0    0    0    0    0   58    0   58    0

>  <minimizedAffinity>  (443) 
-7.62992

>  <CNNscore>  (443) 
0.8864841461

>  <CNNaffinity>  (443) 
4.7430324554

>  <CNN_VS>  (443) 
4.2046232224

>  <CNNaffinity_variance>  (443) 
0.1015148386

$$$$
444
     RDKit          3D

 43 45  0  0  0  0  0  0  0  0999 V2000
   20.9509   72.6288   -4.3923 P   0  0  2  0  0  0  0  0  0  0  0  0
   20.1856   73.8312   -5.1578 O   0  0  0  0  0  0  0  0  0  0  0  0
   21.5557   71.5896   -5.2899 O   0  0  0  0  0  0  0  0  0  0  0  0
   19.8585   72.0883   -3.3282 O   0  0  0  0  0  0  0  0  0  0  0  0
   19.2273   70.8448   -3.5797 C   0  0  0  0  0  0  0  0  0  0  0  0
   17.4866   71.6280   -5.0393 O   0  0  0  0  0  0  0  0  0  0  0  0
   15.5869   70.1214   -3.2752 O   0  0  0  0  0  0  0  0  0  0  0  0
   15.8736   68.4459   -5.4076 O   0  0  0  0  0  0  0  0  0  0  0  0
   16.9168   69.7831   -3.6654 C   0  0  1  0  0  0  0  0  0  0  0  0
   16.9404   69.3228   -5.1080 C   0  0  2  0  0  0  0  0  0  0  0  0
   17.7290   71.0706   -3.7290 C   0  0  1  0  0  0  0  0  0  0  0  0
   16.8440   70.6392   -5.8604 C   0  0  2  0  0  0  0  0  0  0  0  0
   15.0491   69.3149   -3.2274 H   0  0  0  0  0  0  0  0  0  0  0  0
   15.9801   67.6234   -4.9047 H   0  0  0  0  0  0  0  0  0  0  0  0
   15.5076   70.6106   -8.3486 O   0  0  0  0  0  0  0  0  0  0  0  0
   19.4768   70.4528  -10.6856 O   0  0  0  0  0  0  0  0  0  0  0  0
   17.5035   70.5912   -7.1348 N   0  0  0  0  0  0  0  0  0  0  0  0
   17.4851   70.5322   -9.5102 N   0  0  0  0  0  0  0  0  0  0  0  0
   16.7397   70.5797   -8.3252 C   0  0  0  0  0  0  0  0  0  0  0  0
   18.8923   70.5566   -7.1955 C   0  0  0  0  0  0  0  0  0  0  0  0
   19.5879   70.5103   -8.3336 C   0  0  0  0  0  0  0  0  0  0  0  0
   18.8659   70.4952   -9.6222 C   0  0  0  0  0  0  0  0  0  0  0  0
   16.9742   70.5229  -10.3521 H   0  0  0  0  0  0  0  0  0  0  0  0
   22.0128   73.4107   -3.4575 O   0  0  0  0  0  0  0  0  0  0  0  0
   23.4071   72.9250   -2.7995 P   0  0  2  0  0  0  0  0  0  0  0  0
   24.3436   74.2404   -2.9015 O   0  0  0  0  0  0  0  0  0  0  0  0
   23.9927   71.6973   -3.4349 O   0  0  0  0  0  0  0  0  0  0  0  0
   23.0854   72.7747   -1.2251 O   0  0  0  0  0  0  0  0  0  0  0  0
   23.8797   70.9418    0.0502 O   0  0  0  0  0  0  0  0  0  0  0  0
   20.6130   71.9812    2.3523 O   0  0  0  0  0  0  0  0  0  0  0  0
   23.2607   72.5461    3.3109 O   0  0  0  0  0  0  0  0  0  0  0  0
   20.4466   72.1154   -0.5345 O   0  0  0  0  0  0  0  0  0  0  0  0
   21.7345   72.2217    1.4980 C   0  0  1  0  0  0  0  0  0  0  0  0
   22.9909   71.6990    2.1973 C   0  0  1  0  0  0  0  0  0  0  0  0
   21.5163   71.4961    0.1716 C   0  0  2  0  0  0  0  0  0  0  0  0
   24.1897   71.6774    1.2395 C   0  0  1  0  0  0  0  0  0  0  0  0
   22.7840   71.4908   -0.6846 C   0  0  1  0  0  0  0  0  0  0  0  0
   20.7451   72.4395    3.1961 H   0  0  0  0  0  0  0  0  0  0  0  0
   22.4958   72.5512    3.9076 H   0  0  0  0  0  0  0  0  0  0  0  0
   19.6499   72.1122    0.0179 H   0  0  0  0  0  0  0  0  0  0  0  0
   24.9695   69.9878    2.7382 O   0  0  0  0  0  0  0  0  0  0  0  0
   25.4126   71.0134    1.8686 C   0  0  0  0  0  0  0  0  0  0  0  0
   25.7372   69.5561    3.1456 H   0  0  0  0  0  0  0  0  0  0  0  0
 25 28  1  0
 25 24  1  0
 25 26  1  1
 25 27  2  0
  1  4  1  0
  1 24  1  0
  1  2  1  6
  1  3  2  0
  6 11  1  0
  6 12  1  0
 29 36  1  0
 29 37  1  0
  9  7  1  6
  7 13  1  0
 10  8  1  1
  8 14  1  0
 37 28  1  1
  4  5  1  0
 33 30  1  1
 30 38  1  0
 34 31  1  1
 31 39  1  0
 35 32  1  6
 32 40  1  0
 41 42  1  0
 41 43  1  0
 15 19  2  0
 16 22  2  0
 12 17  1  6
 17 19  1  0
 17 20  1  0
 18 19  1  0
 18 22  1  0
 18 23  1  0
  9 10  1  0
  9 11  1  0
 10 12  1  0
 11  5  1  6
 33 34  1  0
 33 35  1  0
 34 36  1  0
 35 37  1  0
 36 42  1  1
 20 21  2  0
 21 22  1  0
M  CHG  2   2  -1  26  -1
M  END
>  <COMPND>  (444) 
    8629 

>  <AUTHOR>  (444) 
    GENERATED BY OPEN BABEL 3.1.1

>  <MASTER>  (444) 
        0    0    0    0    0    0    0    0   58    0   58    0

>  <minimizedAffinity>  (444) 
-8.05675

>  <CNNscore>  (444) 
0.8677179217

>  <CNNaffinity>  (444) 
4.6699142456

>  <CNN_VS>  (444) 
4.0521683693

>  <CNNaffinity_variance>  (444) 
0.0986921042

$$$$
445
     RDKit          3D

 43 45  0  0  0  0  0  0  0  0999 V2000
   22.7812   72.1072   -3.9562 P   0  0  2  0  0  0  0  0  0  0  0  0
   23.3278   73.0419   -5.1583 O   0  0  0  0  0  0  0  0  0  0  0  0
   23.8058   71.1975   -3.3447 O   0  0  0  0  0  0  0  0  0  0  0  0
   21.4834   71.3782   -4.5904 O   0  0  0  0  0  0  0  0  0  0  0  0
   20.7809   70.4378   -3.7967 C   0  0  0  0  0  0  0  0  0  0  0  0
   18.9131   71.6081   -4.7535 O   0  0  0  0  0  0  0  0  0  0  0  0
   17.2731   70.4126   -2.5462 O   0  0  0  0  0  0  0  0  0  0  0  0
   16.6643   68.8154   -4.6710 O   0  0  0  0  0  0  0  0  0  0  0  0
   18.3637   69.8443   -3.2693 C   0  0  1  0  0  0  0  0  0  0  0  0
   17.9236   69.4564   -4.6656 C   0  0  2  0  0  0  0  0  0  0  0  0
   19.3698   70.9536   -3.5497 C   0  0  1  0  0  0  0  0  0  0  0  0
   17.8985   70.8007   -5.3729 C   0  0  2  0  0  0  0  0  0  0  0  0
   16.6175   69.7229   -2.3553 H   0  0  0  0  0  0  0  0  0  0  0  0
   16.7321   67.9650   -4.2096 H   0  0  0  0  0  0  0  0  0  0  0  0
   15.9521   70.3343   -7.3658 O   0  0  0  0  0  0  0  0  0  0  0  0
   19.1114   70.3819  -10.7210 O   0  0  0  0  0  0  0  0  0  0  0  0
   18.1845   70.6871   -6.7753 N   0  0  0  0  0  0  0  0  0  0  0  0
   17.5267   70.3586   -9.0349 N   0  0  0  0  0  0  0  0  0  0  0  0
   17.1347   70.4514   -7.6933 C   0  0  0  0  0  0  0  0  0  0  0  0
   19.4938   70.8096   -7.2276 C   0  0  0  0  0  0  0  0  0  0  0  0
   19.8512   70.7173   -8.5102 C   0  0  0  0  0  0  0  0  0  0  0  0
   18.8147   70.4719   -9.5337 C   0  0  0  0  0  0  0  0  0  0  0  0
   16.8123   70.1942   -9.6924 H   0  0  0  0  0  0  0  0  0  0  0  0
   22.1329   73.1757   -2.9311 O   0  0  0  0  0  0  0  0  0  0  0  0
   22.8231   74.2616   -1.9525 P   0  0  2  0  0  0  0  0  0  0  0  0
   21.8925   75.5720   -2.1374 O   0  0  0  0  0  0  0  0  0  0  0  0
   24.2814   74.4944   -2.2230 O   0  0  0  0  0  0  0  0  0  0  0  0
   22.4949   73.7354   -0.4624 O   0  0  0  0  0  0  0  0  0  0  0  0
   23.2506   71.5588    0.0925 O   0  0  0  0  0  0  0  0  0  0  0  0
   20.4977   72.0941    3.1233 O   0  0  0  0  0  0  0  0  0  0  0  0
   23.3043   72.1705    3.7273 O   0  0  0  0  0  0  0  0  0  0  0  0
   19.9273   73.0831    0.4632 O   0  0  0  0  0  0  0  0  0  0  0  0
   21.5023   72.4986    2.1892 C   0  0  1  0  0  0  0  0  0  0  0  0
   22.7787   71.7090    2.4859 C   0  0  1  0  0  0  0  0  0  0  0  0
   21.0102   72.2122    0.7717 C   0  0  2  0  0  0  0  0  0  0  0  0
   23.8140   71.8889    1.3674 C   0  0  1  0  0  0  0  0  0  0  0  0
   22.1298   72.3730   -0.2581 C   0  0  1  0  0  0  0  0  0  0  0  0
   20.8037   72.2737    4.0253 H   0  0  0  0  0  0  0  0  0  0  0  0
   22.6407   72.0517    4.4249 H   0  0  0  0  0  0  0  0  0  0  0  0
   19.2250   72.9716    1.1222 H   0  0  0  0  0  0  0  0  0  0  0  0
   24.7489   70.0731    2.6074 O   0  0  0  0  0  0  0  0  0  0  0  0
   25.0310   70.9876    1.5641 C   0  0  0  0  0  0  0  0  0  0  0  0
   25.5146   69.4927    2.7436 H   0  0  0  0  0  0  0  0  0  0  0  0
 25 28  1  0
 25 24  1  0
 25 26  1  1
 25 27  2  0
  1  4  1  0
  1 24  1  0
  1  2  1  6
  1  3  2  0
  6 11  1  0
  6 12  1  0
 29 36  1  0
 29 37  1  0
  9  7  1  1
  7 13  1  0
 10  8  1  1
  8 14  1  0
 37 28  1  1
  4  5  1  0
 33 30  1  1
 30 38  1  0
 34 31  1  1
 31 39  1  0
 35 32  1  6
 32 40  1  0
 41 42  1  0
 41 43  1  0
 15 19  2  0
 16 22  2  0
 12 17  1  6
 17 19  1  0
 17 20  1  0
 18 19  1  0
 18 22  1  0
 18 23  1  0
  9 10  1  0
  9 11  1  0
 10 12  1  0
 11  5  1  6
 33 34  1  0
 33 35  1  0
 34 36  1  0
 35 37  1  0
 36 42  1  1
 20 21  2  0
 21 22  1  0
M  CHG  2   2  -1  26  -1
M  END
>  <COMPND>  (445) 
    8629 

>  <AUTHOR>  (445) 
    GENERATED BY OPEN BABEL 3.1.1

>  <MASTER>  (445) 
        0    0    0    0    0    0    0    0   58    0   58    0

>  <minimizedAffinity>  (445) 
-7.90815

>  <CNNscore>  (445) 
0.8528193235

>  <CNNaffinity>  (445) 
4.6933856010

>  <CNN_VS>  (445) 
4.0026097298

>  <CNNaffinity_variance>  (445) 
0.0538384207

$$$$
446
     RDKit          3D

 43 45  0  0  0  0  0  0  0  0999 V2000
   23.4835   71.9787   -3.2681 P   0  0  2  0  0  0  0  0  0  0  0  0
   24.2241   72.9665   -4.3137 O   0  0  0  0  0  0  0  0  0  0  0  0
   24.1005   70.6173   -3.1366 O   0  0  0  0  0  0  0  0  0  0  0  0
   21.9354   72.0062   -3.7376 O   0  0  0  0  0  0  0  0  0  0  0  0
   21.1879   70.8042   -3.6733 C   0  0  0  0  0  0  0  0  0  0  0  0
   19.1291   71.7008   -4.5284 O   0  0  0  0  0  0  0  0  0  0  0  0
   17.7951   70.3531   -2.2057 O   0  0  0  0  0  0  0  0  0  0  0  0
   17.2736   68.6429   -4.2648 O   0  0  0  0  0  0  0  0  0  0  0  0
   18.9052   69.9146   -2.9873 C   0  0  1  0  0  0  0  0  0  0  0  0
   18.4364   69.4416   -4.3475 C   0  0  2  0  0  0  0  0  0  0  0  0
   19.7390   71.1382   -3.3460 C   0  0  1  0  0  0  0  0  0  0  0  0
   18.1934   70.7550   -5.0713 C   0  0  2  0  0  0  0  0  0  0  0  0
   17.2479   69.5887   -1.9642 H   0  0  0  0  0  0  0  0  0  0  0  0
   17.4796   67.8191   -3.7962 H   0  0  0  0  0  0  0  0  0  0  0  0
   16.2481   69.8653   -6.9158 O   0  0  0  0  0  0  0  0  0  0  0  0
   19.1250   70.3830  -10.4790 O   0  0  0  0  0  0  0  0  0  0  0  0
   18.4070   70.6478   -6.4870 N   0  0  0  0  0  0  0  0  0  0  0  0
   17.6821   70.1240   -8.6885 N   0  0  0  0  0  0  0  0  0  0  0  0
   17.3647   70.1890   -7.3258 C   0  0  0  0  0  0  0  0  0  0  0  0
   19.6388   70.9960   -7.0303 C   0  0  0  0  0  0  0  0  0  0  0  0
   19.9259   70.9271   -8.3319 C   0  0  0  0  0  0  0  0  0  0  0  0
   18.8919   70.4576   -9.2765 C   0  0  0  0  0  0  0  0  0  0  0  0
   16.9714   69.8067   -9.2919 H   0  0  0  0  0  0  0  0  0  0  0  0
   23.4644   72.8434   -1.9024 O   0  0  0  0  0  0  0  0  0  0  0  0
   22.5816   74.1268   -1.4709 P   0  0  2  0  0  0  0  0  0  0  0  0
   21.1416   73.4828   -1.1114 O   0  0  0  0  0  0  0  0  0  0  0  0
   22.5327   75.2154   -2.5036 O   0  0  0  0  0  0  0  0  0  0  0  0
   23.1912   74.5821   -0.0475 O   0  0  0  0  0  0  0  0  0  0  0  0
   22.9998   72.6751    1.3465 O   0  0  0  0  0  0  0  0  0  0  0  0
   24.7446   75.2824    4.0313 O   0  0  0  0  0  0  0  0  0  0  0  0
   26.2945   73.1263    2.9372 O   0  0  0  0  0  0  0  0  0  0  0  0
   22.7519   76.2487    2.1672 O   0  0  0  0  0  0  0  0  0  0  0  0
   24.5055   74.7023    2.7461 C   0  0  1  0  0  0  0  0  0  0  0  0
   24.8782   73.2199    2.8122 C   0  0  1  0  0  0  0  0  0  0  0  0
   23.0297   74.8703    2.3894 C   0  0  2  0  0  0  0  0  0  0  0  0
   24.4017   72.4726    1.5594 C   0  0  1  0  0  0  0  0  0  0  0  0
   22.6492   74.0474    1.1573 C   0  0  1  0  0  0  0  0  0  0  0  0
   25.6800   75.1796    4.2636 H   0  0  0  0  0  0  0  0  0  0  0  0
   26.5824   73.6027    3.7318 H   0  0  0  0  0  0  0  0  0  0  0  0
   22.9968   76.7588    2.9544 H   0  0  0  0  0  0  0  0  0  0  0  0
   26.0158   70.7166    1.7026 O   0  0  0  0  0  0  0  0  0  0  0  0
   24.6225   70.9658    1.6738 C   0  0  0  0  0  0  0  0  0  0  0  0
   26.1714   69.7616    1.7755 H   0  0  0  0  0  0  0  0  0  0  0  0
 25 28  1  0
 25 24  1  0
 25 26  1  1
 25 27  2  0
  1  4  1  0
  1 24  1  0
  1  2  1  6
  1  3  2  0
  6 11  1  0
  6 12  1  0
 29 36  1  0
 29 37  1  0
  9  7  1  1
  7 13  1  0
 10  8  1  1
  8 14  1  0
 37 28  1  6
  4  5  1  0
 33 30  1  1
 30 38  1  0
 34 31  1  6
 31 39  1  0
 35 32  1  6
 32 40  1  0
 41 42  1  0
 41 43  1  0
 15 19  2  0
 16 22  2  0
 12 17  1  6
 17 19  1  0
 17 20  1  0
 18 19  1  0
 18 22  1  0
 18 23  1  0
  9 10  1  0
  9 11  1  0
 10 12  1  0
 11  5  1  6
 33 34  1  0
 33 35  1  0
 34 36  1  0
 35 37  1  0
 36 42  1  1
 20 21  2  0
 21 22  1  0
M  CHG  2   2  -1  26  -1
M  END
>  <COMPND>  (446) 
    8629 

>  <AUTHOR>  (446) 
    GENERATED BY OPEN BABEL 3.1.1

>  <MASTER>  (446) 
        0    0    0    0    0    0    0    0   58    0   58    0

>  <minimizedAffinity>  (446) 
-7.11671

>  <CNNscore>  (446) 
0.8401834965

>  <CNNaffinity>  (446) 
4.5355997086

>  <CNN_VS>  (446) 
3.8107359409

>  <CNNaffinity_variance>  (446) 
0.0693723112

$$$$
447
     RDKit          3D

 43 45  0  0  0  0  0  0  0  0999 V2000
   21.7876   72.4334   -5.5925 P   0  0  2  0  0  0  0  0  0  0  0  0
   21.1667   73.8882   -5.2528 O   0  0  0  0  0  0  0  0  0  0  0  0
   23.0459   72.4564   -6.4095 O   0  0  0  0  0  0  0  0  0  0  0  0
   20.5454   71.6221   -6.2380 O   0  0  0  0  0  0  0  0  0  0  0  0
   20.1204   71.9649   -7.5455 C   0  0  0  0  0  0  0  0  0  0  0  0
   18.8992   69.9356   -7.1396 O   0  0  0  0  0  0  0  0  0  0  0  0
   18.1395   70.0337  -10.0386 O   0  0  0  0  0  0  0  0  0  0  0  0
   15.9015   70.9860   -8.8051 O   0  0  0  0  0  0  0  0  0  0  0  0
   18.3102   71.1066   -9.1138 C   0  0  1  0  0  0  0  0  0  0  0  0
   17.1420   71.1623   -8.1516 C   0  0  2  0  0  0  0  0  0  0  0  0
   19.4672   70.7494   -8.1891 C   0  0  1  0  0  0  0  0  0  0  0  0
   17.4662   70.0264   -7.1963 C   0  0  2  0  0  0  0  0  0  0  0  0
   17.4060   70.2391  -10.6400 H   0  0  0  0  0  0  0  0  0  0  0  0
   15.7408   71.7339   -9.4013 H   0  0  0  0  0  0  0  0  0  0  0  0
   16.3004   68.0444   -5.5560 O   0  0  0  0  0  0  0  0  0  0  0  0
   15.5621   71.0472   -2.1385 O   0  0  0  0  0  0  0  0  0  0  0  0
   16.9612   70.2625   -5.8732 N   0  0  0  0  0  0  0  0  0  0  0  0
   15.9339   69.5411   -3.8556 N   0  0  0  0  0  0  0  0  0  0  0  0
   16.3940   69.1987   -5.1335 C   0  0  0  0  0  0  0  0  0  0  0  0
   17.0314   71.5372   -5.3219 C   0  0  0  0  0  0  0  0  0  0  0  0
   16.5869   71.8476   -4.1023 C   0  0  0  0  0  0  0  0  0  0  0  0
   15.9802   70.7935   -3.2639 C   0  0  0  0  0  0  0  0  0  0  0  0
   15.5345   68.8162   -3.3220 H   0  0  0  0  0  0  0  0  0  0  0  0
   21.9451   71.7558   -4.1333 O   0  0  0  0  0  0  0  0  0  0  0  0
   23.1081   71.8931   -3.0191 P   0  0  2  0  0  0  0  0  0  0  0  0
   23.6423   73.4063   -3.2250 O   0  0  0  0  0  0  0  0  0  0  0  0
   24.1758   70.8417   -3.1111 O   0  0  0  0  0  0  0  0  0  0  0  0
   22.3219   71.9266   -1.6100 O   0  0  0  0  0  0  0  0  0  0  0  0
   24.0032   72.3858   -0.0040 O   0  0  0  0  0  0  0  0  0  0  0  0
   20.7248   72.2222    2.5012 O   0  0  0  0  0  0  0  0  0  0  0  0
   21.9441   74.7578    1.9254 O   0  0  0  0  0  0  0  0  0  0  0  0
   20.9367   70.3802    0.2782 O   0  0  0  0  0  0  0  0  0  0  0  0
   21.4242   72.5119    1.2879 C   0  0  1  0  0  0  0  0  0  0  0  0
   22.5436   73.5055    1.6052 C   0  0  1  0  0  0  0  0  0  0  0  0
   22.0006   71.2154    0.7221 C   0  0  2  0  0  0  0  0  0  0  0  0
   23.5009   73.6599    0.4157 C   0  0  1  0  0  0  0  0  0  0  0  0
   22.9773   71.4842   -0.4241 C   0  0  1  0  0  0  0  0  0  0  0  0
   20.3559   73.0412    2.8654 H   0  0  0  0  0  0  0  0  0  0  0  0
   21.3417   74.6464    2.6777 H   0  0  0  0  0  0  0  0  0  0  0  0
   20.3256   70.2172    1.0129 H   0  0  0  0  0  0  0  0  0  0  0  0
   24.8734   74.5238    2.1703 O   0  0  0  0  0  0  0  0  0  0  0  0
   24.7111   74.5238    0.7639 C   0  0  0  0  0  0  0  0  0  0  0  0
   25.6403   75.0696    2.4066 H   0  0  0  0  0  0  0  0  0  0  0  0
 25 28  1  0
 25 24  1  0
 25 26  1  6
 25 27  2  0
  1  4  1  0
  1 24  1  0
  1  2  1  1
  1  3  2  0
  6 11  1  0
  6 12  1  0
 29 36  1  0
 29 37  1  0
  9  7  1  6
  7 13  1  0
 10  8  1  6
  8 14  1  0
 37 28  1  6
  4  5  1  0
 33 30  1  1
 30 38  1  0
 34 31  1  6
 31 39  1  0
 35 32  1  6
 32 40  1  0
 41 42  1  0
 41 43  1  0
 15 19  2  0
 16 22  2  0
 12 17  1  1
 17 19  1  0
 17 20  1  0
 18 19  1  0
 18 22  1  0
 18 23  1  0
  9 10  1  0
  9 11  1  0
 10 12  1  0
 11  5  1  1
 33 34  1  0
 33 35  1  0
 34 36  1  0
 35 37  1  0
 36 42  1  1
 20 21  2  0
 21 22  1  0
M  CHG  2   2  -1  26  -1
M  END
>  <COMPND>  (447) 
    8629 

>  <AUTHOR>  (447) 
    GENERATED BY OPEN BABEL 3.1.1

>  <MASTER>  (447) 
        0    0    0    0    0    0    0    0   58    0   58    0

>  <minimizedAffinity>  (447) 
-8.15167

>  <CNNscore>  (447) 
0.8065163493

>  <CNNaffinity>  (447) 
4.5750579834

>  <CNN_VS>  (447) 
3.6898591518

>  <CNNaffinity_variance>  (447) 
0.1787078977

$$$$
448
     RDKit          3D

 43 45  0  0  0  0  0  0  0  0999 V2000
   23.3895   71.9302   -3.0570 P   0  0  2  0  0  0  0  0  0  0  0  0
   24.2378   70.5527   -3.0368 O   0  0  0  0  0  0  0  0  0  0  0  0
   23.0264   72.4708   -1.7052 O   0  0  0  0  0  0  0  0  0  0  0  0
   22.1468   71.6067   -4.0414 O   0  0  0  0  0  0  0  0  0  0  0  0
   21.3034   70.5120   -3.7281 C   0  0  0  0  0  0  0  0  0  0  0  0
   19.3677   71.6703   -4.5557 O   0  0  0  0  0  0  0  0  0  0  0  0
   17.9067   70.5240   -2.2014 O   0  0  0  0  0  0  0  0  0  0  0  0
   17.1267   68.8881   -4.2391 O   0  0  0  0  0  0  0  0  0  0  0  0
   18.9348   69.9377   -2.9980 C   0  0  1  0  0  0  0  0  0  0  0  0
   18.3838   69.5244   -4.3467 C   0  0  2  0  0  0  0  0  0  0  0  0
   19.9177   71.0376   -3.3794 C   0  0  1  0  0  0  0  0  0  0  0  0
   18.3052   70.8548   -5.0761 C   0  0  2  0  0  0  0  0  0  0  0  0
   17.2670   69.8406   -1.9453 H   0  0  0  0  0  0  0  0  0  0  0  0
   17.2294   68.0466   -3.7679 H   0  0  0  0  0  0  0  0  0  0  0  0
   16.2670   70.0538   -6.8599 O   0  0  0  0  0  0  0  0  0  0  0  0
   19.0833   70.3435  -10.4966 O   0  0  0  0  0  0  0  0  0  0  0  0
   18.4781   70.7130   -6.4943 N   0  0  0  0  0  0  0  0  0  0  0  0
   17.6709   70.1989   -8.6693 N   0  0  0  0  0  0  0  0  0  0  0  0
   17.3906   70.3040   -7.3009 C   0  0  0  0  0  0  0  0  0  0  0  0
   19.7150   70.9786   -7.0716 C   0  0  0  0  0  0  0  0  0  0  0  0
   19.9662   70.8724   -8.3781 C   0  0  0  0  0  0  0  0  0  0  0  0
   18.8839   70.4506   -9.2906 C   0  0  0  0  0  0  0  0  0  0  0  0
   16.9284   69.9151   -9.2507 H   0  0  0  0  0  0  0  0  0  0  0  0
   24.3130   72.9127   -3.9486 O   0  0  0  0  0  0  0  0  0  0  0  0
   24.5673   74.5062   -3.8538 P   0  0  2  0  0  0  0  0  0  0  0  0
   26.1375   74.6535   -4.2145 O   0  0  0  0  0  0  0  0  0  0  0  0
   24.1743   75.1149   -2.5389 O   0  0  0  0  0  0  0  0  0  0  0  0
   23.7961   75.1198   -5.1320 O   0  0  0  0  0  0  0  0  0  0  0  0
   22.9411   77.2957   -5.5203 O   0  0  0  0  0  0  0  0  0  0  0  0
   19.9837   75.0851   -7.3691 O   0  0  0  0  0  0  0  0  0  0  0  0
   21.8424   76.5828   -8.9661 O   0  0  0  0  0  0  0  0  0  0  0  0
   21.1802   74.1277   -4.9132 O   0  0  0  0  0  0  0  0  0  0  0  0
   21.3200   75.3892   -6.9602 C   0  0  1  0  0  0  0  0  0  0  0  0
   21.7075   76.7438   -7.5568 C   0  0  1  0  0  0  0  0  0  0  0  0
   21.3764   75.4378   -5.4345 C   0  0  2  0  0  0  0  0  0  0  0  0
   23.0186   77.2616   -6.9502 C   0  0  1  0  0  0  0  0  0  0  0  0
   22.7032   76.0134   -4.9363 C   0  0  1  0  0  0  0  0  0  0  0  0
   19.9412   75.0523   -8.3369 H   0  0  0  0  0  0  0  0  0  0  0  0
   21.0078   76.2549   -9.3366 H   0  0  0  0  0  0  0  0  0  0  0  0
   20.3369   73.7745   -5.2355 H   0  0  0  0  0  0  0  0  0  0  0  0
   22.2385   79.1753   -8.1493 O   0  0  0  0  0  0  0  0  0  0  0  0
   23.3420   78.6804   -7.4134 C   0  0  0  0  0  0  0  0  0  0  0  0
   22.4300   80.0778   -8.4502 H   0  0  0  0  0  0  0  0  0  0  0  0
 25 28  1  0
 25 24  1  0
 25 26  1  6
 25 27  2  0
  1  4  1  0
  1 24  1  0
  1  2  1  1
  1  3  2  0
  6 11  1  0
  6 12  1  0
 29 36  1  0
 29 37  1  0
  9  7  1  1
  7 13  1  0
 10  8  1  1
  8 14  1  0
 37 28  1  6
  4  5  1  0
 33 30  1  1
 30 38  1  0
 34 31  1  6
 31 39  1  0
 35 32  1  1
 32 40  1  0
 41 42  1  0
 41 43  1  0
 15 19  2  0
 16 22  2  0
 12 17  1  6
 17 19  1  0
 17 20  1  0
 18 19  1  0
 18 22  1  0
 18 23  1  0
  9 10  1  0
  9 11  1  0
 10 12  1  0
 11  5  1  6
 33 34  1  0
 33 35  1  0
 34 36  1  0
 35 37  1  0
 36 42  1  6
 20 21  2  0
 21 22  1  0
M  CHG  2   2  -1  26  -1
M  END
>  <COMPND>  (448) 
    8629 

>  <AUTHOR>  (448) 
    GENERATED BY OPEN BABEL 3.1.1

>  <MASTER>  (448) 
        0    0    0    0    0    0    0    0   58    0   58    0

>  <minimizedAffinity>  (448) 
-6.78349

>  <CNNscore>  (448) 
0.7449793816

>  <CNNaffinity>  (448) 
4.4453301430

>  <CNN_VS>  (448) 
3.3116793633

>  <CNNaffinity_variance>  (448) 
0.1625068337

$$$$
449
     RDKit          3D

 43 45  0  0  0  0  0  0  0  0999 V2000
   21.8645   72.4802   -5.6559 P   0  0  2  0  0  0  0  0  0  0  0  0
   21.2105   73.9345   -5.3825 O   0  0  0  0  0  0  0  0  0  0  0  0
   23.1251   72.4950   -6.4697 O   0  0  0  0  0  0  0  0  0  0  0  0
   20.6429   71.6139   -6.2685 O   0  0  0  0  0  0  0  0  0  0  0  0
   20.1285   71.9747   -7.5386 C   0  0  0  0  0  0  0  0  0  0  0  0
   18.9090   69.9467   -7.1217 O   0  0  0  0  0  0  0  0  0  0  0  0
   18.1575   70.0231  -10.0235 O   0  0  0  0  0  0  0  0  0  0  0  0
   15.9147   70.9809   -8.8032 O   0  0  0  0  0  0  0  0  0  0  0  0
   18.3240   71.1027   -9.1059 C   0  0  1  0  0  0  0  0  0  0  0  0
   17.1530   71.1637   -8.1475 C   0  0  2  0  0  0  0  0  0  0  0  0
   19.4788   70.7538   -8.1754 C   0  0  1  0  0  0  0  0  0  0  0  0
   17.4760   70.0350   -7.1832 C   0  0  2  0  0  0  0  0  0  0  0  0
   17.4254   70.2231  -10.6285 H   0  0  0  0  0  0  0  0  0  0  0  0
   15.7546   71.7244   -9.4053 H   0  0  0  0  0  0  0  0  0  0  0  0
   16.3054   68.0638   -5.5334 O   0  0  0  0  0  0  0  0  0  0  0  0
   15.5561   71.0891   -2.1382 O   0  0  0  0  0  0  0  0  0  0  0  0
   16.9669   70.2798   -5.8633 N   0  0  0  0  0  0  0  0  0  0  0  0
   15.9334   69.5717   -3.8441 N   0  0  0  0  0  0  0  0  0  0  0  0
   16.3975   69.2209   -5.1183 C   0  0  0  0  0  0  0  0  0  0  0  0
   17.0352   71.5582   -5.3202 C   0  0  0  0  0  0  0  0  0  0  0  0
   16.5869   71.8766   -4.1041 C   0  0  0  0  0  0  0  0  0  0  0  0
   15.9777   70.8280   -3.2607 C   0  0  0  0  0  0  0  0  0  0  0  0
   15.5324   68.8503   -3.3070 H   0  0  0  0  0  0  0  0  0  0  0  0
   22.0314   71.8712   -4.1679 O   0  0  0  0  0  0  0  0  0  0  0  0
   23.2380   71.9951   -3.0994 P   0  0  2  0  0  0  0  0  0  0  0  0
   23.8834   73.4403   -3.4345 O   0  0  0  0  0  0  0  0  0  0  0  0
   24.2152   70.8560   -3.1398 O   0  0  0  0  0  0  0  0  0  0  0  0
   22.5041   72.1965   -1.6761 O   0  0  0  0  0  0  0  0  0  0  0  0
   23.3801   70.6111   -0.1479 O   0  0  0  0  0  0  0  0  0  0  0  0
   20.4363   72.2630    2.2303 O   0  0  0  0  0  0  0  0  0  0  0  0
   23.1938   72.8598    2.7671 O   0  0  0  0  0  0  0  0  0  0  0  0
   19.9425   71.8330   -0.5894 O   0  0  0  0  0  0  0  0  0  0  0  0
   21.4590   72.2678    1.2306 C   0  0  1  0  0  0  0  0  0  0  0  0
   22.7700   71.8254    1.8835 C   0  0  1  0  0  0  0  0  0  0  0  0
   21.0658   71.3076    0.1096 C   0  0  2  0  0  0  0  0  0  0  0  0
   23.8490   71.5491    0.8278 C   0  0  1  0  0  0  0  0  0  0  0  0
   22.2254   71.0634   -0.8577 C   0  0  1  0  0  0  0  0  0  0  0  0
   20.6796   72.8711    2.9448 H   0  0  0  0  0  0  0  0  0  0  0  0
   22.5034   73.0248    3.4284 H   0  0  0  0  0  0  0  0  0  0  0  0
   19.2151   71.9828    0.0339 H   0  0  0  0  0  0  0  0  0  0  0  0
   24.7612   70.2950    2.6456 O   0  0  0  0  0  0  0  0  0  0  0  0
   25.1141   70.9563    1.4446 C   0  0  0  0  0  0  0  0  0  0  0  0
   25.5565   69.9125    3.0491 H   0  0  0  0  0  0  0  0  0  0  0  0
 25 28  1  0
 25 24  1  0
 25 26  1  6
 25 27  2  0
  1  4  1  0
  1 24  1  0
  1  2  1  1
  1  3  2  0
  6 11  1  0
  6 12  1  0
 29 36  1  0
 29 37  1  0
  9  7  1  6
  7 13  1  0
 10  8  1  6
  8 14  1  0
 37 28  1  1
  4  5  1  0
 33 30  1  1
 30 38  1  0
 34 31  1  1
 31 39  1  0
 35 32  1  6
 32 40  1  0
 41 42  1  0
 41 43  1  0
 15 19  2  0
 16 22  2  0
 12 17  1  1
 17 19  1  0
 17 20  1  0
 18 19  1  0
 18 22  1  0
 18 23  1  0
  9 10  1  0
  9 11  1  0
 10 12  1  0
 11  5  1  1
 33 34  1  0
 33 35  1  0
 34 36  1  0
 35 37  1  0
 36 42  1  1
 20 21  2  0
 21 22  1  0
M  CHG  2   2  -1  26  -1
M  END
>  <COMPND>  (449) 
    8629 

>  <AUTHOR>  (449) 
    GENERATED BY OPEN BABEL 3.1.1

>  <MASTER>  (449) 
        0    0    0    0    0    0    0    0   58    0   58    0

>  <minimizedAffinity>  (449) 
-8.38130

>  <CNNscore>  (449) 
0.7147173882

>  <CNNaffinity>  (449) 
4.4727411270

>  <CNN_VS>  (449) 
3.1967458725

>  <CNNaffinity_variance>  (449) 
0.2801493704

$$$$
450
     RDKit          3D

 43 45  0  0  0  0  0  0  0  0999 V2000
   23.3859   71.8106   -3.3203 P   0  0  2  0  0  0  0  0  0  0  0  0
   24.1253   72.9699   -4.1728 O   0  0  0  0  0  0  0  0  0  0  0  0
   24.2684   70.6721   -2.9004 O   0  0  0  0  0  0  0  0  0  0  0  0
   22.1103   71.4116   -4.2323 O   0  0  0  0  0  0  0  0  0  0  0  0
   21.6591   72.3371   -5.2057 C   0  0  0  0  0  0  0  0  0  0  0  0
   20.5691   70.4142   -6.1482 O   0  0  0  0  0  0  0  0  0  0  0  0
   20.6793   71.8687   -8.7679 O   0  0  0  0  0  0  0  0  0  0  0  0
   18.1003   72.2656   -7.9757 O   0  0  0  0  0  0  0  0  0  0  0  0
   20.4721   72.3883   -7.4555 C   0  0  1  0  0  0  0  0  0  0  0  0
   19.0749   72.0580   -6.9737 C   0  0  2  0  0  0  0  0  0  0  0  0
   21.3386   71.5874   -6.4916 C   0  0  1  0  0  0  0  0  0  0  0  0
   19.2126   70.5955   -6.5862 C   0  0  2  0  0  0  0  0  0  0  0  0
   20.1365   72.3647   -9.4013 H   0  0  0  0  0  0  0  0  0  0  0  0
   18.0503   73.2108   -8.1874 H   0  0  0  0  0  0  0  0  0  0  0  0
   16.5234   69.8115   -6.9486 O   0  0  0  0  0  0  0  0  0  0  0  0
   15.9007   69.1988   -2.4234 O   0  0  0  0  0  0  0  0  0  0  0  0
   18.3249   70.2254   -5.5202 N   0  0  0  0  0  0  0  0  0  0  0  0
   16.2156   69.5069   -4.6951 N   0  0  0  0  0  0  0  0  0  0  0  0
   16.9927   69.8483   -5.8093 C   0  0  0  0  0  0  0  0  0  0  0  0
   18.7777   70.2382   -4.2054 C   0  0  0  0  0  0  0  0  0  0  0  0
   18.0235   69.9110   -3.1540 C   0  0  0  0  0  0  0  0  0  0  0  0
   16.6196   69.5053   -3.3694 C   0  0  0  0  0  0  0  0  0  0  0  0
   15.2840   69.2413   -4.8722 H   0  0  0  0  0  0  0  0  0  0  0  0
   22.7166   72.6293   -2.0977 O   0  0  0  0  0  0  0  0  0  0  0  0
   21.2982   72.4420   -1.3453 P   0  0  2  0  0  0  0  0  0  0  0  0
   21.0648   70.8416   -1.3866 O   0  0  0  0  0  0  0  0  0  0  0  0
   20.1771   73.2468   -1.9362 O   0  0  0  0  0  0  0  0  0  0  0  0
   21.6115   72.7683    0.2040 O   0  0  0  0  0  0  0  0  0  0  0  0
   22.8991   74.2307    1.5532 O   0  0  0  0  0  0  0  0  0  0  0  0
   24.2820   70.6160    2.9926 O   0  0  0  0  0  0  0  0  0  0  0  0
   22.5383   72.2163    4.6193 O   0  0  0  0  0  0  0  0  0  0  0  0
   23.7317   70.9302    0.1680 O   0  0  0  0  0  0  0  0  0  0  0  0
   23.3097   71.5220    2.4643 C   0  0  1  0  0  0  0  0  0  0  0  0
   23.1704   72.6958    3.4357 C   0  0  1  0  0  0  0  0  0  0  0  0
   23.7752   72.0106    1.0939 C   0  0  2  0  0  0  0  0  0  0  0  0
   22.3494   73.8341    2.8150 C   0  0  1  0  0  0  0  0  0  0  0  0
   22.9217   73.1756    0.5898 C   0  0  1  0  0  0  0  0  0  0  0  0
   23.9923   70.3016    3.8625 H   0  0  0  0  0  0  0  0  0  0  0  0
   23.0665   71.4976    5.0010 H   0  0  0  0  0  0  0  0  0  0  0  0
   24.2760   70.1992    0.4985 H   0  0  0  0  0  0  0  0  0  0  0  0
   21.3662   74.8851    4.7223 O   0  0  0  0  0  0  0  0  0  0  0  0
   22.3305   75.0760    3.7035 C   0  0  0  0  0  0  0  0  0  0  0  0
   21.3433   75.6676    5.2958 H   0  0  0  0  0  0  0  0  0  0  0  0
 25 28  1  0
 25 24  1  0
 25 26  1  1
 25 27  2  0
  1  4  1  0
  1 24  1  0
  1  2  1  6
  1  3  2  0
  6 11  1  0
  6 12  1  0
 29 36  1  0
 29 37  1  0
  9  7  1  6
  7 13  1  0
 10  8  1  6
  8 14  1  0
 37 28  1  1
  4  5  1  0
 33 30  1  1
 30 38  1  0
 34 31  1  1
 31 39  1  0
 35 32  1  6
 32 40  1  0
 41 42  1  0
 41 43  1  0
 15 19  2  0
 16 22  2  0
 12 17  1  1
 17 19  1  0
 17 20  1  0
 18 19  1  0
 18 22  1  0
 18 23  1  0
  9 10  1  0
  9 11  1  0
 10 12  1  0
 11  5  1  1
 33 34  1  0
 33 35  1  0
 34 36  1  0
 35 37  1  0
 36 42  1  1
 20 21  2  0
 21 22  1  0
M  CHG  2   2  -1  26  -1
M  END
>  <COMPND>  (450) 
    8629 

>  <AUTHOR>  (450) 
    GENERATED BY OPEN BABEL 3.1.1

>  <MASTER>  (450) 
        0    0    0    0    0    0    0    0   58    0   58    0

>  <minimizedAffinity>  (450) 
-7.43437

>  <CNNscore>  (450) 
0.6526410580

>  <CNNaffinity>  (450) 
4.3439245224

>  <CNN_VS>  (450) 
2.8350234032

>  <CNNaffinity_variance>  (450) 
0.1339445114

$$$$
451
     RDKit          3D

 43 45  0  0  0  0  0  0  0  0999 V2000
   23.4757   71.9112   -3.2572 P   0  0  2  0  0  0  0  0  0  0  0  0
   24.1820   72.9546   -4.2719 O   0  0  0  0  0  0  0  0  0  0  0  0
   24.2520   70.6532   -2.9999 O   0  0  0  0  0  0  0  0  0  0  0  0
   21.9948   71.7086   -3.8769 O   0  0  0  0  0  0  0  0  0  0  0  0
   21.5733   72.5732   -4.9174 C   0  0  0  0  0  0  0  0  0  0  0  0
   20.6921   70.5761   -5.9220 O   0  0  0  0  0  0  0  0  0  0  0  0
   21.0698   71.9586   -8.5558 O   0  0  0  0  0  0  0  0  0  0  0  0
   18.3973   72.2593   -8.1045 O   0  0  0  0  0  0  0  0  0  0  0  0
   20.6776   72.5055   -7.2978 C   0  0  1  0  0  0  0  0  0  0  0  0
   19.2459   72.1254   -6.9826 C   0  0  2  0  0  0  0  0  0  0  0  0
   21.4488   71.7731   -6.2068 C   0  0  1  0  0  0  0  0  0  0  0  0
   19.3951   70.6824   -6.5313 C   0  0  2  0  0  0  0  0  0  0  0  0
   20.5906   72.4109   -9.2683 H   0  0  0  0  0  0  0  0  0  0  0  0
   18.3347   73.1948   -8.3529 H   0  0  0  0  0  0  0  0  0  0  0  0
   16.7911   69.8142   -7.1970 O   0  0  0  0  0  0  0  0  0  0  0  0
   15.6483   69.2522   -2.7676 O   0  0  0  0  0  0  0  0  0  0  0  0
   18.3967   70.3026   -5.5720 N   0  0  0  0  0  0  0  0  0  0  0  0
   16.2243   69.5349   -4.9910 N   0  0  0  0  0  0  0  0  0  0  0  0
   17.1195   69.8821   -6.0108 C   0  0  0  0  0  0  0  0  0  0  0  0
   18.6883   70.3487   -4.2131 C   0  0  0  0  0  0  0  0  0  0  0  0
   17.8230   70.0155   -3.2531 C   0  0  0  0  0  0  0  0  0  0  0  0
   16.4666   69.5654   -3.6268 C   0  0  0  0  0  0  0  0  0  0  0  0
   15.3282   69.2393   -5.2729 H   0  0  0  0  0  0  0  0  0  0  0  0
   23.1997   72.8119   -1.9436 O   0  0  0  0  0  0  0  0  0  0  0  0
   21.9228   72.8841   -0.9550 P   0  0  2  0  0  0  0  0  0  0  0  0
   21.4898   71.3335   -0.7944 O   0  0  0  0  0  0  0  0  0  0  0  0
   20.8238   73.7875   -1.4344 O   0  0  0  0  0  0  0  0  0  0  0  0
   22.5403   73.2857    0.4811 O   0  0  0  0  0  0  0  0  0  0  0  0
   24.6158   72.7827    1.5085 O   0  0  0  0  0  0  0  0  0  0  0  0
   22.1516   72.4585    4.8060 O   0  0  0  0  0  0  0  0  0  0  0  0
   23.9171   74.7115    4.5713 O   0  0  0  0  0  0  0  0  0  0  0  0
   21.2432   71.5113    2.2259 O   0  0  0  0  0  0  0  0  0  0  0  0
   22.5925   72.9976    3.5569 C   0  0  1  0  0  0  0  0  0  0  0  0
   24.0054   73.5531    3.7462 C   0  0  1  0  0  0  0  0  0  0  0  0
   22.5868   71.8898    2.5052 C   0  0  2  0  0  0  0  0  0  0  0  0
   24.6476   73.9053    2.3976 C   0  0  1  0  0  0  0  0  0  0  0  0
   23.2925   72.3271    1.2203 C   0  0  1  0  0  0  0  0  0  0  0  0
   22.1525   73.1570    5.4780 H   0  0  0  0  0  0  0  0  0  0  0  0
   23.5095   74.4755    5.4194 H   0  0  0  0  0  0  0  0  0  0  0  0
   20.8075   71.2363    3.0471 H   0  0  0  0  0  0  0  0  0  0  0  0
   26.6119   73.7491    3.7489 O   0  0  0  0  0  0  0  0  0  0  0  0
   26.1115   74.3122    2.5502 C   0  0  0  0  0  0  0  0  0  0  0  0
   27.5430   73.9995    3.8590 H   0  0  0  0  0  0  0  0  0  0  0  0
 25 28  1  0
 25 24  1  0
 25 26  1  1
 25 27  2  0
  1  4  1  0
  1 24  1  0
  1  2  1  6
  1  3  2  0
  6 11  1  0
  6 12  1  0
 29 36  1  0
 29 37  1  0
  9  7  1  6
  7 13  1  0
 10  8  1  6
  8 14  1  0
 37 28  1  1
  4  5  1  0
 33 30  1  1
 30 38  1  0
 34 31  1  1
 31 39  1  0
 35 32  1  6
 32 40  1  0
 41 42  1  0
 41 43  1  0
 15 19  2  0
 16 22  2  0
 12 17  1  1
 17 19  1  0
 17 20  1  0
 18 19  1  0
 18 22  1  0
 18 23  1  0
  9 10  1  0
  9 11  1  0
 10 12  1  0
 11  5  1  1
 33 34  1  0
 33 35  1  0
 34 36  1  0
 35 37  1  0
 36 42  1  1
 20 21  2  0
 21 22  1  0
M  CHG  2   2  -1  26  -1
M  END
>  <COMPND>  (451) 
    8629 

>  <AUTHOR>  (451) 
    GENERATED BY OPEN BABEL 3.1.1

>  <MASTER>  (451) 
        0    0    0    0    0    0    0    0   58    0   58    0

>  <minimizedAffinity>  (451) 
-7.64738

>  <CNNscore>  (451) 
0.6377839446

>  <CNNaffinity>  (451) 
4.3479032516

>  <CNN_VS>  (451) 
2.7730228901

>  <CNNaffinity_variance>  (451) 
0.1078117266

$$$$
452
     RDKit          3D

 43 45  0  0  0  0  0  0  0  0999 V2000
   22.8435   71.4248   -2.7593 P   0  0  2  0  0  0  0  0  0  0  0  0
   22.8284   73.0307   -2.5643 O   0  0  0  0  0  0  0  0  0  0  0  0
   24.2057   70.8201   -2.9325 O   0  0  0  0  0  0  0  0  0  0  0  0
   21.8028   71.1711   -3.9720 O   0  0  0  0  0  0  0  0  0  0  0  0
   21.6446   72.1839   -4.9502 C   0  0  0  0  0  0  0  0  0  0  0  0
   20.5042   70.3826   -6.0586 O   0  0  0  0  0  0  0  0  0  0  0  0
   20.8028   71.9892   -8.5727 O   0  0  0  0  0  0  0  0  0  0  0  0
   18.2137   72.4699   -7.8641 O   0  0  0  0  0  0  0  0  0  0  0  0
   20.5631   72.4364   -7.2393 C   0  0  1  0  0  0  0  0  0  0  0  0
   19.1312   72.1501   -6.8380 C   0  0  2  0  0  0  0  0  0  0  0  0
   21.3451   71.5332   -6.2937 C   0  0  1  0  0  0  0  0  0  0  0  0
   19.1792   70.6611   -6.5399 C   0  0  2  0  0  0  0  0  0  0  0  0
   20.3139   72.5512   -9.1948 H   0  0  0  0  0  0  0  0  0  0  0  0
   18.2199   73.4278   -8.0165 H   0  0  0  0  0  0  0  0  0  0  0  0
   16.5204   69.8771   -7.0825 O   0  0  0  0  0  0  0  0  0  0  0  0
   15.6173   69.1915   -2.6153 O   0  0  0  0  0  0  0  0  0  0  0  0
   18.2276   70.2723   -5.5376 N   0  0  0  0  0  0  0  0  0  0  0  0
   16.0730   69.5362   -4.8577 N   0  0  0  0  0  0  0  0  0  0  0  0
   16.9174   69.8970   -5.9155 C   0  0  0  0  0  0  0  0  0  0  0  0
   18.5970   70.2653   -4.1970 C   0  0  0  0  0  0  0  0  0  0  0  0
   17.7795   69.9199   -3.2001 C   0  0  0  0  0  0  0  0  0  0  0  0
   16.3932   69.5146   -3.5095 C   0  0  0  0  0  0  0  0  0  0  0  0
   15.1552   69.2714   -5.0970 H   0  0  0  0  0  0  0  0  0  0  0  0
   22.0312   70.8940   -1.4665 O   0  0  0  0  0  0  0  0  0  0  0  0
   22.2374   71.1856    0.1100 P   0  0  2  0  0  0  0  0  0  0  0  0
   23.8133   71.5348    0.2197 O   0  0  0  0  0  0  0  0  0  0  0  0
   21.7867   70.0688    1.0065 O   0  0  0  0  0  0  0  0  0  0  0  0
   21.4893   72.5925    0.3665 O   0  0  0  0  0  0  0  0  0  0  0  0
   22.2056   74.7516    1.0311 O   0  0  0  0  0  0  0  0  0  0  0  0
   18.8164   74.4325    3.3682 O   0  0  0  0  0  0  0  0  0  0  0  0
   18.8133   76.1926    1.0988 O   0  0  0  0  0  0  0  0  0  0  0  0
   20.5065   72.1195    2.9521 O   0  0  0  0  0  0  0  0  0  0  0  0
   19.6187   74.2291    2.2019 C   0  0  1  0  0  0  0  0  0  0  0  0
   19.9935   75.5989    1.6327 C   0  0  1  0  0  0  0  0  0  0  0  0
   20.8722   73.4464    2.5886 C   0  0  2  0  0  0  0  0  0  0  0  0
   21.0672   75.4714    0.5437 C   0  0  1  0  0  0  0  0  0  0  0  0
   21.8958   73.4217    1.4521 C   0  0  1  0  0  0  0  0  0  0  0  0
   18.0186   74.9285    3.1294 H   0  0  0  0  0  0  0  0  0  0  0  0
   18.1432   76.2669    1.7964 H   0  0  0  0  0  0  0  0  0  0  0  0
   19.8584   72.1487    3.6726 H   0  0  0  0  0  0  0  0  0  0  0  0
   22.6127   77.2511    0.9348 O   0  0  0  0  0  0  0  0  0  0  0  0
   21.5693   76.8348    0.0733 C   0  0  0  0  0  0  0  0  0  0  0  0
   22.9423   78.1174    0.6473 H   0  0  0  0  0  0  0  0  0  0  0  0
 25 28  1  0
 25 24  1  0
 25 26  1  6
 25 27  2  0
  1  4  1  0
  1 24  1  0
  1  2  1  1
  1  3  2  0
  6 11  1  0
  6 12  1  0
 29 36  1  0
 29 37  1  0
  9  7  1  6
  7 13  1  0
 10  8  1  6
  8 14  1  0
 37 28  1  6
  4  5  1  0
 33 30  1  1
 30 38  1  0
 34 31  1  6
 31 39  1  0
 35 32  1  6
 32 40  1  0
 41 42  1  0
 41 43  1  0
 15 19  2  0
 16 22  2  0
 12 17  1  1
 17 19  1  0
 17 20  1  0
 18 19  1  0
 18 22  1  0
 18 23  1  0
  9 10  1  0
  9 11  1  0
 10 12  1  0
 11  5  1  1
 33 34  1  0
 33 35  1  0
 34 36  1  0
 35 37  1  0
 36 42  1  1
 20 21  2  0
 21 22  1  0
M  CHG  2   2  -1  26  -1
M  END
>  <COMPND>  (452) 
    8629 

>  <AUTHOR>  (452) 
    GENERATED BY OPEN BABEL 3.1.1

>  <MASTER>  (452) 
        0    0    0    0    0    0    0    0   58    0   58    0

>  <minimizedAffinity>  (452) 
-7.23494

>  <CNNscore>  (452) 
0.6357554197

>  <CNNaffinity>  (452) 
4.2022166252

>  <CNN_VS>  (452) 
2.6715819836

>  <CNNaffinity_variance>  (452) 
0.2480571270

$$$$
453
     RDKit          3D

 43 45  0  0  0  0  0  0  0  0999 V2000
   22.8704   73.5277   -4.7303 P   0  0  2  0  0  0  0  0  0  0  0  0
   24.0567   74.6216   -4.6132 O   0  0  0  0  0  0  0  0  0  0  0  0
   23.0589   72.5015   -5.8086 O   0  0  0  0  0  0  0  0  0  0  0  0
   21.5266   74.4222   -4.8388 O   0  0  0  0  0  0  0  0  0  0  0  0
   20.2898   73.7621   -5.0452 C   0  0  0  0  0  0  0  0  0  0  0  0
   19.3155   72.9255   -7.0760 O   0  0  0  0  0  0  0  0  0  0  0  0
   18.4448   75.7465   -7.5999 O   0  0  0  0  0  0  0  0  0  0  0  0
   16.1618   74.5835   -6.6661 O   0  0  0  0  0  0  0  0  0  0  0  0
   18.5296   75.0438   -6.3613 C   0  0  1  0  0  0  0  0  0  0  0  0
   17.3981   74.0438   -6.2455 C   0  0  2  0  0  0  0  0  0  0  0  0
   19.7517   74.1359   -6.4196 C   0  0  1  0  0  0  0  0  0  0  0  0
   17.8801   72.9172   -7.1437 C   0  0  2  0  0  0  0  0  0  0  0  0
   17.6717   76.3332   -7.5864 H   0  0  0  0  0  0  0  0  0  0  0  0
   15.8980   75.2960   -6.0633 H   0  0  0  0  0  0  0  0  0  0  0  0
   15.5699   71.6554   -8.1677 O   0  0  0  0  0  0  0  0  0  0  0  0
   16.1347   67.9912   -5.4299 O   0  0  0  0  0  0  0  0  0  0  0  0
   17.4006   71.6330   -6.7167 N   0  0  0  0  0  0  0  0  0  0  0  0
   15.8531   69.8318   -6.8038 N   0  0  0  0  0  0  0  0  0  0  0  0
   16.2296   71.0888   -7.2940 C   0  0  0  0  0  0  0  0  0  0  0  0
   18.0892   70.9270   -5.7363 C   0  0  0  0  0  0  0  0  0  0  0  0
   17.7163   69.7300   -5.2789 C   0  0  0  0  0  0  0  0  0  0  0  0
   16.5037   69.0911   -5.8297 C   0  0  0  0  0  0  0  0  0  0  0  0
   15.0402   69.4332   -7.1910 H   0  0  0  0  0  0  0  0  0  0  0  0
   22.7846   72.9230   -3.2337 O   0  0  0  0  0  0  0  0  0  0  0  0
   22.5724   71.4080   -2.7115 P   0  0  2  0  0  0  0  0  0  0  0  0
   24.0810   70.8292   -2.6292 O   0  0  0  0  0  0  0  0  0  0  0  0
   21.6406   70.5901   -3.5581 O   0  0  0  0  0  0  0  0  0  0  0  0
   22.1123   71.5670   -1.1726 O   0  0  0  0  0  0  0  0  0  0  0  0
   23.9080   72.5828   -0.0063 O   0  0  0  0  0  0  0  0  0  0  0  0
   21.3213   71.9848    3.1563 O   0  0  0  0  0  0  0  0  0  0  0  0
   21.7444   74.6426    2.1536 O   0  0  0  0  0  0  0  0  0  0  0  0
   21.5434   69.9856    1.0747 O   0  0  0  0  0  0  0  0  0  0  0  0
   21.6787   72.2775    1.8028 C   0  0  1  0  0  0  0  0  0  0  0  0
   22.5592   73.5287    1.7991 C   0  0  1  0  0  0  0  0  0  0  0  0
   22.4348   71.0862    1.2175 C   0  0  2  0  0  0  0  0  0  0  0  0
   23.1994   73.7515    0.4223 C   0  0  1  0  0  0  0  0  0  0  0  0
   23.0736   71.4293   -0.1295 C   0  0  1  0  0  0  0  0  0  0  0  0
   20.8405   72.7371    3.5337 H   0  0  0  0  0  0  0  0  0  0  0  0
   21.3458   74.4890    3.0246 H   0  0  0  0  0  0  0  0  0  0  0  0
   21.1458   69.7781    1.9342 H   0  0  0  0  0  0  0  0  0  0  0  0
   24.5222   75.2019    1.7845 O   0  0  0  0  0  0  0  0  0  0  0  0
   24.2040   74.9016    0.4381 C   0  0  0  0  0  0  0  0  0  0  0  0
   25.1610   75.9319    1.8101 H   0  0  0  0  0  0  0  0  0  0  0  0
 25 28  1  0
 25 24  1  0
 25 26  1  1
 25 27  2  0
  1  4  1  0
  1 24  1  0
  1  2  1  1
  1  3  2  0
  6 11  1  0
  6 12  1  0
 29 36  1  0
 29 37  1  0
  9  7  1  6
  7 13  1  0
 10  8  1  6
  8 14  1  0
 37 28  1  6
  4  5  1  0
 33 30  1  1
 30 38  1  0
 34 31  1  6
 31 39  1  0
 35 32  1  6
 32 40  1  0
 41 42  1  0
 41 43  1  0
 15 19  2  0
 16 22  2  0
 12 17  1  1
 17 19  1  0
 17 20  1  0
 18 19  1  0
 18 22  1  0
 18 23  1  0
  9 10  1  0
  9 11  1  0
 10 12  1  0
 11  5  1  1
 33 34  1  0
 33 35  1  0
 34 36  1  0
 35 37  1  0
 36 42  1  1
 20 21  2  0
 21 22  1  0
M  CHG  2   2  -1  26  -1
M  END
>  <COMPND>  (453) 
    8629 

>  <AUTHOR>  (453) 
    GENERATED BY OPEN BABEL 3.1.1

>  <MASTER>  (453) 
        0    0    0    0    0    0    0    0   58    0   58    0

>  <minimizedAffinity>  (453) 
-6.99333

>  <CNNscore>  (453) 
0.5834323764

>  <CNNaffinity>  (453) 
4.1969242096

>  <CNN_VS>  (453) 
2.4486215115

>  <CNNaffinity_variance>  (453) 
0.1603748053

$$$$
454
     RDKit          3D

 43 45  0  0  0  0  0  0  0  0999 V2000
   23.4094   72.3101   -3.5248 P   0  0  2  0  0  0  0  0  0  0  0  0
   24.0151   70.8362   -3.2449 O   0  0  0  0  0  0  0  0  0  0  0  0
   24.4143   73.3363   -3.9589 O   0  0  0  0  0  0  0  0  0  0  0  0
   22.5904   72.6565   -2.1731 O   0  0  0  0  0  0  0  0  0  0  0  0
   23.3098   72.7738   -0.9579 C   0  0  0  0  0  0  0  0  0  0  0  0
   24.3711   71.2707    0.5875 O   0  0  0  0  0  0  0  0  0  0  0  0
   21.6257   70.2000    1.1415 O   0  0  0  0  0  0  0  0  0  0  0  0
   22.0661   71.8395    3.2756 O   0  0  0  0  0  0  0  0  0  0  0  0
   22.0327   71.5387    0.8632 C   0  0  1  0  0  0  0  0  0  0  0  0
   22.7332   72.1360    2.0658 C   0  0  2  0  0  0  0  0  0  0  0  0
   23.1563   71.4835   -0.1644 C   0  0  1  0  0  0  0  0  0  0  0  0
   24.1067   71.4919    1.9825 C   0  0  2  0  0  0  0  0  0  0  0  0
   20.9084   70.2096    1.7953 H   0  0  0  0  0  0  0  0  0  0  0  0
   21.1977   72.2716    3.2805 H   0  0  0  0  0  0  0  0  0  0  0  0
   26.7820   70.6765    2.3769 O   0  0  0  0  0  0  0  0  0  0  0  0
   27.9783   74.7910    4.0744 O   0  0  0  0  0  0  0  0  0  0  0  0
   25.1384   72.3298    2.5255 N   0  0  0  0  0  0  0  0  0  0  0  0
   27.3755   72.7259    3.2216 N   0  0  0  0  0  0  0  0  0  0  0  0
   26.4494   71.8233    2.6836 C   0  0  0  0  0  0  0  0  0  0  0  0
   24.8458   73.6383    2.8946 C   0  0  0  0  0  0  0  0  0  0  0  0
   25.7401   74.4860    3.4074 C   0  0  0  0  0  0  0  0  0  0  0  0
   27.1329   74.0354    3.6050 C   0  0  0  0  0  0  0  0  0  0  0  0
   28.2953   72.3949    3.3412 H   0  0  0  0  0  0  0  0  0  0  0  0
   22.2350   72.0227   -4.5976 O   0  0  0  0  0  0  0  0  0  0  0  0
   21.5852   72.9657   -5.7384 P   0  0  2  0  0  0  0  0  0  0  0  0
   22.5171   72.6815   -7.0300 O   0  0  0  0  0  0  0  0  0  0  0  0
   21.4830   74.4137   -5.3551 O   0  0  0  0  0  0  0  0  0  0  0  0
   20.1743   72.2662   -6.0919 O   0  0  0  0  0  0  0  0  0  0  0  0
   19.4050   70.0825   -5.5855 O   0  0  0  0  0  0  0  0  0  0  0  0
   17.6436   70.5601   -9.2895 O   0  0  0  0  0  0  0  0  0  0  0  0
   16.0152   70.6335   -6.9250 O   0  0  0  0  0  0  0  0  0  0  0  0
   20.3058   71.5920   -8.8128 O   0  0  0  0  0  0  0  0  0  0  0  0
   18.1188   70.9827   -8.0085 C   0  0  1  0  0  0  0  0  0  0  0  0
   17.3698   70.1915   -6.9343 C   0  0  1  0  0  0  0  0  0  0  0  0
   19.6208   70.7188   -7.9213 C   0  0  2  0  0  0  0  0  0  0  0  0
   18.0070   70.3927   -5.5528 C   0  0  1  0  0  0  0  0  0  0  0  0
   20.1442   70.8996   -6.4953 C   0  0  1  0  0  0  0  0  0  0  0  0
   16.6905   70.7253   -9.3516 H   0  0  0  0  0  0  0  0  0  0  0  0
   15.6247   70.5014   -7.8033 H   0  0  0  0  0  0  0  0  0  0  0  0
   19.9657   71.4677   -9.7121 H   0  0  0  0  0  0  0  0  0  0  0  0
   16.0336   69.9005   -4.2989 O   0  0  0  0  0  0  0  0  0  0  0  0
   17.3747   69.4913   -4.4946 C   0  0  0  0  0  0  0  0  0  0  0  0
   15.6184   69.3354   -3.6281 H   0  0  0  0  0  0  0  0  0  0  0  0
 25 28  1  0
 25 24  1  0
 25 26  1  6
 25 27  2  0
  1  4  1  0
  1 24  1  0
  1  2  1  1
  1  3  2  0
  6 11  1  0
  6 12  1  0
 29 36  1  0
 29 37  1  0
  9  7  1  1
  7 13  1  0
 10  8  1  1
  8 14  1  0
 37 28  1  1
  4  5  1  0
 33 30  1  6
 30 38  1  0
 34 31  1  1
 31 39  1  0
 35 32  1  6
 32 40  1  0
 41 42  1  0
 41 43  1  0
 15 19  2  0
 16 22  2  0
 12 17  1  6
 17 19  1  0
 17 20  1  0
 18 19  1  0
 18 22  1  0
 18 23  1  0
  9 10  1  0
  9 11  1  0
 10 12  1  0
 11  5  1  1
 33 34  1  0
 33 35  1  0
 34 36  1  0
 35 37  1  0
 36 42  1  1
 20 21  2  0
 21 22  1  0
M  CHG  2   2  -1  26  -1
M  END
>  <COMPND>  (454) 
    8629 

>  <AUTHOR>  (454) 
    GENERATED BY OPEN BABEL 3.1.1

>  <MASTER>  (454) 
        0    0    0    0    0    0    0    0   58    0   58    0

>  <minimizedAffinity>  (454) 
-8.09133

>  <CNNscore>  (454) 
0.5066092014

>  <CNNaffinity>  (454) 
4.2450380325

>  <CNN_VS>  (454) 
2.1505753994

>  <CNNaffinity_variance>  (454) 
0.1702252179

$$$$
455
     RDKit          3D

 43 45  0  0  0  0  0  0  0  0999 V2000
   23.0650   73.3335   -4.4291 P   0  0  2  0  0  0  0  0  0  0  0  0
   24.1410   72.1737   -4.0906 O   0  0  0  0  0  0  0  0  0  0  0  0
   23.6592   74.6575   -4.8105 O   0  0  0  0  0  0  0  0  0  0  0  0
   22.0894   73.3469   -3.1384 O   0  0  0  0  0  0  0  0  0  0  0  0
   22.6687   73.2184   -1.8516 C   0  0  0  0  0  0  0  0  0  0  0  0
   23.4596   71.3576   -0.5533 O   0  0  0  0  0  0  0  0  0  0  0  0
   20.5770   70.5963   -0.2336 O   0  0  0  0  0  0  0  0  0  0  0  0
   21.1419   71.7988    2.1480 O   0  0  0  0  0  0  0  0  0  0  0  0
   21.1674   71.8942   -0.2814 C   0  0  1  0  0  0  0  0  0  0  0  0
   21.8909   72.1908    1.0156 C   0  0  2  0  0  0  0  0  0  0  0  0
   22.3148   71.8511   -1.2829 C   0  0  1  0  0  0  0  0  0  0  0  0
   23.1700   71.3872    0.8539 C   0  0  2  0  0  0  0  0  0  0  0  0
   19.8413   70.5991    0.3994 H   0  0  0  0  0  0  0  0  0  0  0  0
   20.3384   72.3388    2.2072 H   0  0  0  0  0  0  0  0  0  0  0  0
   25.0530   69.9398    2.3827 O   0  0  0  0  0  0  0  0  0  0  0  0
   27.3863   73.7638    3.4662 O   0  0  0  0  0  0  0  0  0  0  0  0
   24.2800   71.9792    1.5459 N   0  0  0  0  0  0  0  0  0  0  0  0
   26.2134   71.8450    2.9208 N   0  0  0  0  0  0  0  0  0  0  0  0
   25.1668   71.1635    2.2866 C   0  0  0  0  0  0  0  0  0  0  0  0
   24.4805   73.3540    1.4859 C   0  0  0  0  0  0  0  0  0  0  0  0
   25.4828   73.9887    2.0974 C   0  0  0  0  0  0  0  0  0  0  0  0
   26.4541   73.2095    2.8920 C   0  0  0  0  0  0  0  0  0  0  0  0
   26.8435   71.2972    3.4429 H   0  0  0  0  0  0  0  0  0  0  0  0
   22.1459   72.6543   -5.5723 O   0  0  0  0  0  0  0  0  0  0  0  0
   21.2698   73.3130   -6.7603 P   0  0  2  0  0  0  0  0  0  0  0  0
   22.0627   72.8659   -8.0978 O   0  0  0  0  0  0  0  0  0  0  0  0
   21.0672   74.7946   -6.6267 O   0  0  0  0  0  0  0  0  0  0  0  0
   19.9054   72.4512   -6.7878 O   0  0  0  0  0  0  0  0  0  0  0  0
   19.3010   70.3077   -5.9775 O   0  0  0  0  0  0  0  0  0  0  0  0
   17.4340   70.1722   -9.6581 O   0  0  0  0  0  0  0  0  0  0  0  0
   15.8539   70.4500   -7.2760 O   0  0  0  0  0  0  0  0  0  0  0  0
   20.0271   71.4326   -9.3999 O   0  0  0  0  0  0  0  0  0  0  0  0
   17.9051   70.7914   -8.4580 C   0  0  1  0  0  0  0  0  0  0  0  0
   17.2355   70.1016   -7.2678 C   0  0  1  0  0  0  0  0  0  0  0  0
   19.4233   70.6417   -8.3819 C   0  0  2  0  0  0  0  0  0  0  0  0
   17.8857   70.5260   -5.9440 C   0  0  1  0  0  0  0  0  0  0  0  0
   19.9624   71.0442   -7.0080 C   0  0  1  0  0  0  0  0  0  0  0  0
   16.4707   70.2641   -9.7128 H   0  0  0  0  0  0  0  0  0  0  0  0
   15.4554   70.1771   -8.1174 H   0  0  0  0  0  0  0  0  0  0  0  0
   19.6779   71.1679  -10.2646 H   0  0  0  0  0  0  0  0  0  0  0  0
   16.0188   70.1689   -4.4962 O   0  0  0  0  0  0  0  0  0  0  0  0
   17.3399   69.7328   -4.7587 C   0  0  0  0  0  0  0  0  0  0  0  0
   15.6585   69.6725   -3.7443 H   0  0  0  0  0  0  0  0  0  0  0  0
 25 28  1  0
 25 24  1  0
 25 26  1  6
 25 27  2  0
  1  4  1  0
  1 24  1  0
  1  2  1  1
  1  3  2  0
  6 11  1  0
  6 12  1  0
 29 36  1  0
 29 37  1  0
  9  7  1  1
  7 13  1  0
 10  8  1  1
  8 14  1  0
 37 28  1  1
  4  5  1  0
 33 30  1  6
 30 38  1  0
 34 31  1  1
 31 39  1  0
 35 32  1  6
 32 40  1  0
 41 42  1  0
 41 43  1  0
 15 19  2  0
 16 22  2  0
 12 17  1  1
 17 19  1  0
 17 20  1  0
 18 19  1  0
 18 22  1  0
 18 23  1  0
  9 10  1  0
  9 11  1  0
 10 12  1  0
 11  5  1  1
 33 34  1  0
 33 35  1  0
 34 36  1  0
 35 37  1  0
 36 42  1  1
 20 21  2  0
 21 22  1  0
M  CHG  2   2  -1  26  -1
M  END
>  <COMPND>  (455) 
    8629 

>  <AUTHOR>  (455) 
    GENERATED BY OPEN BABEL 3.1.1

>  <MASTER>  (455) 
        0    0    0    0    0    0    0    0   58    0   58    0

>  <minimizedAffinity>  (455) 
-7.96785

>  <CNNscore>  (455) 
0.5064373016

>  <CNNaffinity>  (455) 
4.2944645882

>  <CNN_VS>  (455) 
2.1748771667

>  <CNNaffinity_variance>  (455) 
0.0915596634

$$$$
456
     RDKit          3D

 43 45  0  0  0  0  0  0  0  0999 V2000
   23.5178   72.3276   -3.2471 P   0  0  2  0  0  0  0  0  0  0  0  0
   24.0726   70.8140   -3.1114 O   0  0  0  0  0  0  0  0  0  0  0  0
   24.5443   73.3452   -3.6500 O   0  0  0  0  0  0  0  0  0  0  0  0
   22.7773   72.5980   -1.8342 O   0  0  0  0  0  0  0  0  0  0  0  0
   23.5704   72.7062   -0.6650 C   0  0  0  0  0  0  0  0  0  0  0  0
   24.0655   71.6695    1.4454 O   0  0  0  0  0  0  0  0  0  0  0  0
   21.5461   70.0926    1.0496 O   0  0  0  0  0  0  0  0  0  0  0  0
   20.7651   72.0310    2.8016 O   0  0  0  0  0  0  0  0  0  0  0  0
   21.8289   71.4453    0.6952 C   0  0  1  0  0  0  0  0  0  0  0  0
   21.8392   72.3214    1.9306 C   0  0  2  0  0  0  0  0  0  0  0  0
   23.2816   71.5177    0.2418 C   0  0  1  0  0  0  0  0  0  0  0  0
   23.1914   71.9912    2.5396 C   0  0  2  0  0  0  0  0  0  0  0  0
   20.6235   70.0214    1.3423 H   0  0  0  0  0  0  0  0  0  0  0  0
   19.9273   72.2581    2.3689 H   0  0  0  0  0  0  0  0  0  0  0  0
   22.5121   72.6441    5.2023 O   0  0  0  0  0  0  0  0  0  0  0  0
   25.3842   76.2483    5.2449 O   0  0  0  0  0  0  0  0  0  0  0  0
   23.7467   73.0948    3.2711 N   0  0  0  0  0  0  0  0  0  0  0  0
   23.9428   74.4381    5.2214 N   0  0  0  0  0  0  0  0  0  0  0  0
   23.3374   73.3366    4.6032 C   0  0  0  0  0  0  0  0  0  0  0  0
   24.6864   73.9235    2.6677 C   0  0  0  0  0  0  0  0  0  0  0  0
   25.2534   74.9706    3.2705 C   0  0  0  0  0  0  0  0  0  0  0  0
   24.8807   75.2922    4.6633 C   0  0  0  0  0  0  0  0  0  0  0  0
   23.6728   74.6260    6.1496 H   0  0  0  0  0  0  0  0  0  0  0  0
   22.2841   72.1713   -4.2798 O   0  0  0  0  0  0  0  0  0  0  0  0
   21.9176   72.9861   -5.6270 P   0  0  2  0  0  0  0  0  0  0  0  0
   23.0077   72.4476   -6.6944 O   0  0  0  0  0  0  0  0  0  0  0  0
   21.9004   74.4778   -5.4585 O   0  0  0  0  0  0  0  0  0  0  0  0
   20.5173   72.3523   -6.1195 O   0  0  0  0  0  0  0  0  0  0  0  0
   19.5461   70.1969   -5.9540 O   0  0  0  0  0  0  0  0  0  0  0  0
   18.5319   71.0796   -9.8583 O   0  0  0  0  0  0  0  0  0  0  0  0
   16.4999   71.0887   -7.8287 O   0  0  0  0  0  0  0  0  0  0  0  0
   21.1132   71.8797   -8.8208 O   0  0  0  0  0  0  0  0  0  0  0  0
   18.7842   71.3684   -8.4805 C   0  0  1  0  0  0  0  0  0  0  0  0
   17.8057   70.5532   -7.6326 C   0  0  1  0  0  0  0  0  0  0  0  0
   20.2268   70.9922   -8.1476 C   0  0  2  0  0  0  0  0  0  0  0  0
   18.1859   70.6026   -6.1467 C   0  0  1  0  0  0  0  0  0  0  0  0
   20.4859   71.0261   -6.6404 C   0  0  1  0  0  0  0  0  0  0  0  0
   17.6177   71.3167  -10.0763 H   0  0  0  0  0  0  0  0  0  0  0  0
   16.2723   71.0520   -8.7711 H   0  0  0  0  0  0  0  0  0  0  0  0
   20.9393   71.8488   -9.7740 H   0  0  0  0  0  0  0  0  0  0  0  0
   16.0467   70.2692   -5.1361 O   0  0  0  0  0  0  0  0  0  0  0  0
   17.3187   69.6707   -5.3031 C   0  0  0  0  0  0  0  0  0  0  0  0
   15.4838   69.6871   -4.6013 H   0  0  0  0  0  0  0  0  0  0  0  0
 25 28  1  0
 25 24  1  0
 25 26  1  6
 25 27  2  0
  1  4  1  0
  1 24  1  0
  1  2  1  1
  1  3  2  0
  6 11  1  0
  6 12  1  0
 29 36  1  0
 29 37  1  0
  9  7  1  1
  7 13  1  0
 10  8  1  1
  8 14  1  0
 37 28  1  1
  4  5  1  0
 33 30  1  6
 30 38  1  0
 34 31  1  1
 31 39  1  0
 35 32  1  6
 32 40  1  0
 41 42  1  0
 41 43  1  0
 15 19  2  0
 16 22  2  0
 12 17  1  6
 17 19  1  0
 17 20  1  0
 18 19  1  0
 18 22  1  0
 18 23  1  0
  9 10  1  0
  9 11  1  0
 10 12  1  0
 11  5  1  6
 33 34  1  0
 33 35  1  0
 34 36  1  0
 35 37  1  0
 36 42  1  1
 20 21  2  0
 21 22  1  0
M  CHG  2   2  -1  26  -1
M  END
>  <COMPND>  (456) 
    8629 

>  <AUTHOR>  (456) 
    GENERATED BY OPEN BABEL 3.1.1

>  <MASTER>  (456) 
        0    0    0    0    0    0    0    0   58    0   58    0

>  <minimizedAffinity>  (456) 
-8.02797

>  <CNNscore>  (456) 
0.5013414025

>  <CNNaffinity>  (456) 
4.1066112518

>  <CNN_VS>  (456) 
2.0588142872

>  <CNNaffinity_variance>  (456) 
0.2207778990

$$$$
457
     RDKit          3D

 43 45  0  0  0  0  0  0  0  0999 V2000
   21.8690   72.3695   -5.8520 P   0  0  2  0  0  0  0  0  0  0  0  0
   21.0706   73.6630   -5.2979 O   0  0  0  0  0  0  0  0  0  0  0  0
   23.0342   72.6787   -6.7454 O   0  0  0  0  0  0  0  0  0  0  0  0
   20.7100   71.4470   -6.5028 O   0  0  0  0  0  0  0  0  0  0  0  0
   20.2313   71.7747   -7.7956 C   0  0  0  0  0  0  0  0  0  0  0  0
   18.8597   69.8837   -7.2326 O   0  0  0  0  0  0  0  0  0  0  0  0
   17.9690   69.9144  -10.0956 O   0  0  0  0  0  0  0  0  0  0  0  0
   15.8862   71.1191   -8.8122 O   0  0  0  0  0  0  0  0  0  0  0  0
   18.2779   71.0096   -9.2351 C   0  0  1  0  0  0  0  0  0  0  0  0
   17.1680   71.2141   -8.2252 C   0  0  2  0  0  0  0  0  0  0  0  0
   19.4438   70.5938   -8.3466 C   0  0  1  0  0  0  0  0  0  0  0  0
   17.4390   70.0994   -7.2291 C   0  0  2  0  0  0  0  0  0  0  0  0
   17.2273   70.1563  -10.6730 H   0  0  0  0  0  0  0  0  0  0  0  0
   15.7619   71.8499   -9.4377 H   0  0  0  0  0  0  0  0  0  0  0  0
   16.5406   68.2322   -5.3097 O   0  0  0  0  0  0  0  0  0  0  0  0
   15.8650   71.5239   -2.1554 O   0  0  0  0  0  0  0  0  0  0  0  0
   17.0225   70.4409   -5.8983 N   0  0  0  0  0  0  0  0  0  0  0  0
   16.2051   69.8727   -3.7406 N   0  0  0  0  0  0  0  0  0  0  0  0
   16.5877   69.4276   -5.0124 C   0  0  0  0  0  0  0  0  0  0  0  0
   17.0480   71.7679   -5.4832 C   0  0  0  0  0  0  0  0  0  0  0  0
   16.6786   72.1760   -4.2674 C   0  0  0  0  0  0  0  0  0  0  0  0
   16.2115   71.1803   -3.2814 C   0  0  0  0  0  0  0  0  0  0  0  0
   15.8982   69.1844   -3.1067 H   0  0  0  0  0  0  0  0  0  0  0  0
   22.2517   71.5716   -4.4993 O   0  0  0  0  0  0  0  0  0  0  0  0
   23.3004   71.9228   -3.3203 P   0  0  2  0  0  0  0  0  0  0  0  0
   23.9901   73.2935   -3.8333 O   0  0  0  0  0  0  0  0  0  0  0  0
   24.2704   70.8196   -3.0107 O   0  0  0  0  0  0  0  0  0  0  0  0
   22.3784   72.3721   -2.0740 O   0  0  0  0  0  0  0  0  0  0  0  0
   21.8317   71.2754   -0.0455 O   0  0  0  0  0  0  0  0  0  0  0  0
   18.1762   73.0139   -0.8617 O   0  0  0  0  0  0  0  0  0  0  0  0
   19.7979   74.0555    1.2674 O   0  0  0  0  0  0  0  0  0  0  0  0
   19.7733   71.9296   -3.0188 O   0  0  0  0  0  0  0  0  0  0  0  0
   19.6039   72.9332   -0.8358 C   0  0  1  0  0  0  0  0  0  0  0  0
   20.0509   72.8105    0.6222 C   0  0  1  0  0  0  0  0  0  0  0  0
   20.0495   71.7128   -1.6393 C   0  0  2  0  0  0  0  0  0  0  0  0
   21.5402   72.4526    0.7168 C   0  0  1  0  0  0  0  0  0  0  0  0
   21.5362   71.4152   -1.4365 C   0  0  1  0  0  0  0  0  0  0  0  0
   17.8867   73.7870   -0.3537 H   0  0  0  0  0  0  0  0  0  0  0  0
   18.8542   74.2701    1.2001 H   0  0  0  0  0  0  0  0  0  0  0  0
   18.8290   72.1166   -3.1339 H   0  0  0  0  0  0  0  0  0  0  0  0
   20.8091   72.0300    2.9519 O   0  0  0  0  0  0  0  0  0  0  0  0
   21.9705   72.1708    2.1547 C   0  0  0  0  0  0  0  0  0  0  0  0
   21.0676   71.8500    3.8698 H   0  0  0  0  0  0  0  0  0  0  0  0
 25 28  1  0
 25 24  1  0
 25 26  1  6
 25 27  2  0
  1  4  1  0
  1 24  1  0
  1  2  1  1
  1  3  2  0
  6 11  1  0
  6 12  1  0
 29 36  1  0
 29 37  1  0
  9  7  1  6
  7 13  1  0
 10  8  1  6
  8 14  1  0
 37 28  1  1
  4  5  1  0
 33 30  1  1
 30 38  1  0
 34 31  1  1
 31 39  1  0
 35 32  1  6
 32 40  1  0
 41 42  1  0
 41 43  1  0
 15 19  2  0
 16 22  2  0
 12 17  1  1
 17 19  1  0
 17 20  1  0
 18 19  1  0
 18 22  1  0
 18 23  1  0
  9 10  1  0
  9 11  1  0
 10 12  1  0
 11  5  1  1
 33 34  1  0
 33 35  1  0
 34 36  1  0
 35 37  1  0
 36 42  1  1
 20 21  2  0
 21 22  1  0
M  CHG  2   2  -1  26  -1
M  END
>  <COMPND>  (457) 
    8629 

>  <AUTHOR>  (457) 
    GENERATED BY OPEN BABEL 3.1.1

>  <MASTER>  (457) 
        0    0    0    0    0    0    0    0   58    0   58    0

>  <minimizedAffinity>  (457) 
-7.65728

>  <CNNscore>  (457) 
0.4925065339

>  <CNNaffinity>  (457) 
4.1815810204

>  <CNN_VS>  (457) 
2.0594558716

>  <CNNaffinity_variance>  (457) 
0.5188352466

$$$$
458
     RDKit          3D

 43 45  0  0  0  0  0  0  0  0999 V2000
   19.3901   71.5783   -2.4869 P   0  0  2  0  0  0  0  0  0  0  0  0
   17.9852   72.0278   -3.1514 O   0  0  0  0  0  0  0  0  0  0  0  0
   19.3709   70.2402   -1.8084 O   0  0  0  0  0  0  0  0  0  0  0  0
   19.7970   72.8345   -1.5519 O   0  0  0  0  0  0  0  0  0  0  0  0
   20.5711   72.5901   -0.3905 C   0  0  0  0  0  0  0  0  0  0  0  0
   22.7877   73.3875    0.0838 O   0  0  0  0  0  0  0  0  0  0  0  0
   23.7706   71.0011   -1.4426 O   0  0  0  0  0  0  0  0  0  0  0  0
   24.0844   70.2184    1.1508 O   0  0  0  0  0  0  0  0  0  0  0  0
   22.6377   71.1186   -0.5836 C   0  0  1  0  0  0  0  0  0  0  0  0
   23.0786   71.1688    0.8644 C   0  0  2  0  0  0  0  0  0  0  0  0
   22.0400   72.5059   -0.7823 C   0  0  1  0  0  0  0  0  0  0  0  0
   23.5723   72.5997    0.9940 C   0  0  2  0  0  0  0  0  0  0  0  0
   24.1692   70.1229   -1.3335 H   0  0  0  0  0  0  0  0  0  0  0  0
   23.7213   69.3242    1.0546 H   0  0  0  0  0  0  0  0  0  0  0  0
   25.4789   74.1951    2.3347 O   0  0  0  0  0  0  0  0  0  0  0  0
   22.8273   74.5317    6.0893 O   0  0  0  0  0  0  0  0  0  0  0  0
   23.4059   73.1183    2.3225 N   0  0  0  0  0  0  0  0  0  0  0  0
   24.1570   74.3616    4.2030 N   0  0  0  0  0  0  0  0  0  0  0  0
   24.4243   73.9084    2.9049 C   0  0  0  0  0  0  0  0  0  0  0  0
   22.2430   72.8425    3.0334 C   0  0  0  0  0  0  0  0  0  0  0  0
   22.0040   73.2812    4.2710 C   0  0  0  0  0  0  0  0  0  0  0  0
   23.0173   74.1133    4.9515 C   0  0  0  0  0  0  0  0  0  0  0  0
   24.8524   74.9136    4.6291 H   0  0  0  0  0  0  0  0  0  0  0  0
   20.4285   71.6922   -3.7205 O   0  0  0  0  0  0  0  0  0  0  0  0
   20.5618   72.7918   -4.8978 P   0  0  2  0  0  0  0  0  0  0  0  0
   22.0438   72.5244   -5.4892 O   0  0  0  0  0  0  0  0  0  0  0  0
   20.3190   74.2043   -4.4509 O   0  0  0  0  0  0  0  0  0  0  0  0
   19.5619   72.2750   -6.0546 O   0  0  0  0  0  0  0  0  0  0  0  0
   18.6897   70.0739   -6.1600 O   0  0  0  0  0  0  0  0  0  0  0  0
   18.5690   71.0245  -10.1765 O   0  0  0  0  0  0  0  0  0  0  0  0
   16.1225   70.8819   -8.6790 O   0  0  0  0  0  0  0  0  0  0  0  0
   20.7936   71.9096   -8.5495 O   0  0  0  0  0  0  0  0  0  0  0  0
   18.4785   71.2837   -8.7730 C   0  0  1  0  0  0  0  0  0  0  0  0
   17.3723   70.4005   -8.1925 C   0  0  1  0  0  0  0  0  0  0  0  0
   19.8211   70.9635   -8.1186 C   0  0  2  0  0  0  0  0  0  0  0  0
   17.3930   70.4233   -6.6582 C   0  0  1  0  0  0  0  0  0  0  0  0
   19.7201   70.9646   -6.5922 C   0  0  1  0  0  0  0  0  0  0  0  0
   17.7198   71.2264  -10.5981 H   0  0  0  0  0  0  0  0  0  0  0  0
   16.1227   70.8629   -9.6490 H   0  0  0  0  0  0  0  0  0  0  0  0
   20.8483   71.8990   -9.5174 H   0  0  0  0  0  0  0  0  0  0  0  0
   16.1637   69.7894   -4.7098 O   0  0  0  0  0  0  0  0  0  0  0  0
   16.4017   69.4286   -6.0580 C   0  0  0  0  0  0  0  0  0  0  0  0
   15.5343   69.1652   -4.3150 H   0  0  0  0  0  0  0  0  0  0  0  0
 25 28  1  0
 25 24  1  0
 25 26  1  6
 25 27  2  0
  1  4  1  0
  1 24  1  0
  1  2  1  6
  1  3  2  0
  6 11  1  0
  6 12  1  0
 29 36  1  0
 29 37  1  0
  9  7  1  6
  7 13  1  0
 10  8  1  6
  8 14  1  0
 37 28  1  6
  4  5  1  0
 33 30  1  6
 30 38  1  0
 34 31  1  6
 31 39  1  0
 35 32  1  1
 32 40  1  0
 41 42  1  0
 41 43  1  0
 15 19  2  0
 16 22  2  0
 12 17  1  1
 17 19  1  0
 17 20  1  0
 18 19  1  0
 18 22  1  0
 18 23  1  0
  9 10  1  0
  9 11  1  0
 10 12  1  0
 11  5  1  1
 33 34  1  0
 33 35  1  0
 34 36  1  0
 35 37  1  0
 36 42  1  1
 20 21  2  0
 21 22  1  0
M  CHG  2   2  -1  26  -1
M  END
>  <COMPND>  (458) 
    8629 

>  <AUTHOR>  (458) 
    GENERATED BY OPEN BABEL 3.1.1

>  <MASTER>  (458) 
        0    0    0    0    0    0    0    0   58    0   58    0

>  <minimizedAffinity>  (458) 
-6.90013

>  <CNNscore>  (458) 
0.4902795553

>  <CNNaffinity>  (458) 
4.1505951881

>  <CNN_VS>  (458) 
2.0349519253

>  <CNNaffinity_variance>  (458) 
0.0749010071

$$$$
459
     RDKit          3D

 43 45  0  0  0  0  0  0  0  0999 V2000
   23.7411   74.3742   -2.8930 P   0  0  2  0  0  0  0  0  0  0  0  0
   24.9194   74.8191   -1.8776 O   0  0  0  0  0  0  0  0  0  0  0  0
   24.1569   74.2457   -4.3290 O   0  0  0  0  0  0  0  0  0  0  0  0
   22.5534   75.4326   -2.5974 O   0  0  0  0  0  0  0  0  0  0  0  0
   22.6372   76.2348   -1.4324 C   0  0  0  0  0  0  0  0  0  0  0  0
   21.1606   74.6703   -0.3620 O   0  0  0  0  0  0  0  0  0  0  0  0
   20.0702   77.0195    1.1490 O   0  0  0  0  0  0  0  0  0  0  0  0
   21.7364   75.8621    2.9713 O   0  0  0  0  0  0  0  0  0  0  0  0
   21.4097   76.7565    0.7342 C   0  0  1  0  0  0  0  0  0  0  0  0
   22.0262   75.6781    1.6006 C   0  0  2  0  0  0  0  0  0  0  0  0
   21.3540   76.0767   -0.6282 C   0  0  1  0  0  0  0  0  0  0  0  0
   21.3941   74.4184    1.0333 C   0  0  2  0  0  0  0  0  0  0  0  0
   20.0801   77.4539    2.0168 H   0  0  0  0  0  0  0  0  0  0  0  0
   22.1604   76.6760    3.2852 H   0  0  0  0  0  0  0  0  0  0  0  0
   20.4680   71.7660    1.3248 O   0  0  0  0  0  0  0  0  0  0  0  0
   24.7588   70.0958    1.5262 O   0  0  0  0  0  0  0  0  0  0  0  0
   22.2473   73.2711    1.1636 N   0  0  0  0  0  0  0  0  0  0  0  0
   22.6052   70.9365    1.4247 N   0  0  0  0  0  0  0  0  0  0  0  0
   21.6814   71.9827    1.3058 C   0  0  0  0  0  0  0  0  0  0  0  0
   23.6288   73.4296    1.1493 C   0  0  0  0  0  0  0  0  0  0  0  0
   24.4961   72.4218    1.2650 C   0  0  0  0  0  0  0  0  0  0  0  0
   23.9870   71.0436    1.4174 C   0  0  0  0  0  0  0  0  0  0  0  0
   22.2340   70.0300    1.5252 H   0  0  0  0  0  0  0  0  0  0  0  0
   23.1851   73.0094   -2.2289 O   0  0  0  0  0  0  0  0  0  0  0  0
   23.0708   71.5101   -2.8221 P   0  0  2  0  0  0  0  0  0  0  0  0
   22.0894   70.7689   -1.7708 O   0  0  0  0  0  0  0  0  0  0  0  0
   24.3917   70.8259   -3.0244 O   0  0  0  0  0  0  0  0  0  0  0  0
   22.1869   71.6677   -4.1634 O   0  0  0  0  0  0  0  0  0  0  0  0
   20.6288   73.3738   -4.6909 O   0  0  0  0  0  0  0  0  0  0  0  0
   18.8177   70.2057   -6.6233 O   0  0  0  0  0  0  0  0  0  0  0  0
   20.1126   72.2539   -8.1648 O   0  0  0  0  0  0  0  0  0  0  0  0
   20.1027   69.7913   -4.0627 O   0  0  0  0  0  0  0  0  0  0  0  0
   19.9191   70.9840   -6.1472 C   0  0  1  0  0  0  0  0  0  0  0  0
   19.8286   72.3768   -6.7739 C   0  0  1  0  0  0  0  0  0  0  0  0
   19.8453   71.0739   -4.6241 C   0  0  2  0  0  0  0  0  0  0  0  0
   20.8148   73.3477   -6.1109 C   0  0  1  0  0  0  0  0  0  0  0  0
   20.8328   72.1028   -4.0706 C   0  0  1  0  0  0  0  0  0  0  0  0
   18.8589   70.1443   -7.5898 H   0  0  0  0  0  0  0  0  0  0  0  0
   19.4832   71.6378   -8.5714 H   0  0  0  0  0  0  0  0  0  0  0  0
   19.4708   69.1491   -4.4208 H   0  0  0  0  0  0  0  0  0  0  0  0
   21.4068   74.9476   -7.7839 O   0  0  0  0  0  0  0  0  0  0  0  0
   20.6320   74.7790   -6.6111 C   0  0  0  0  0  0  0  0  0  0  0  0
   21.2999   75.8539   -8.1137 H   0  0  0  0  0  0  0  0  0  0  0  0
 25 28  1  0
 25 24  1  0
 25 26  1  1
 25 27  2  0
  1  4  1  0
  1 24  1  0
  1  2  1  1
  1  3  2  0
  6 11  1  0
  6 12  1  0
 29 36  1  0
 29 37  1  0
  9  7  1  1
  7 13  1  0
 10  8  1  1
  8 14  1  0
 37 28  1  6
  4  5  1  0
 33 30  1  6
 30 38  1  0
 34 31  1  6
 31 39  1  0
 35 32  1  1
 32 40  1  0
 41 42  1  0
 41 43  1  0
 15 19  2  0
 16 22  2  0
 12 17  1  6
 17 19  1  0
 17 20  1  0
 18 19  1  0
 18 22  1  0
 18 23  1  0
  9 10  1  0
  9 11  1  0
 10 12  1  0
 11  5  1  1
 33 34  1  0
 33 35  1  0
 34 36  1  0
 35 37  1  0
 36 42  1  6
 20 21  2  0
 21 22  1  0
M  CHG  2   2  -1  26  -1
M  END
>  <COMPND>  (459) 
    8629 

>  <AUTHOR>  (459) 
    GENERATED BY OPEN BABEL 3.1.1

>  <MASTER>  (459) 
        0    0    0    0    0    0    0    0   58    0   58    0

>  <minimizedAffinity>  (459) 
-5.89236

>  <CNNscore>  (459) 
0.4808321297

>  <CNNaffinity>  (459) 
3.9781899452

>  <CNN_VS>  (459) 
1.9128415585

>  <CNNaffinity_variance>  (459) 
0.1602683961

$$$$
460
     RDKit          3D

 43 45  0  0  0  0  0  0  0  0999 V2000
   23.5941   72.9748   -3.5197 P   0  0  2  0  0  0  0  0  0  0  0  0
   24.7117   74.1404   -3.4205 O   0  0  0  0  0  0  0  0  0  0  0  0
   24.1397   71.5811   -3.6265 O   0  0  0  0  0  0  0  0  0  0  0  0
   22.6421   73.4520   -4.7378 O   0  0  0  0  0  0  0  0  0  0  0  0
   21.3632   72.8564   -4.8697 C   0  0  0  0  0  0  0  0  0  0  0  0
   20.6749   70.7347   -5.7631 O   0  0  0  0  0  0  0  0  0  0  0  0
   21.0798   71.9550   -8.4719 O   0  0  0  0  0  0  0  0  0  0  0  0
   18.3741   72.0876   -8.1587 O   0  0  0  0  0  0  0  0  0  0  0  0
   20.5899   72.5574   -7.2751 C   0  0  1  0  0  0  0  0  0  0  0  0
   19.1752   72.0952   -6.9947 C   0  0  2  0  0  0  0  0  0  0  0  0
   21.3577   71.9617   -6.1016 C   0  0  1  0  0  0  0  0  0  0  0  0
   19.4044   70.7020   -6.4336 C   0  0  2  0  0  0  0  0  0  0  0  0
   20.6045   72.3200   -9.2354 H   0  0  0  0  0  0  0  0  0  0  0  0
   18.2574   72.9964   -8.4770 H   0  0  0  0  0  0  0  0  0  0  0  0
   16.8671   69.6874   -7.1483 O   0  0  0  0  0  0  0  0  0  0  0  0
   15.5937   69.2588   -2.7396 O   0  0  0  0  0  0  0  0  0  0  0  0
   18.3904   70.3169   -5.4929 N   0  0  0  0  0  0  0  0  0  0  0  0
   16.2352   69.4747   -4.9525 N   0  0  0  0  0  0  0  0  0  0  0  0
   17.1497   69.8200   -5.9557 C   0  0  0  0  0  0  0  0  0  0  0  0
   18.6311   70.4332   -4.1282 C   0  0  0  0  0  0  0  0  0  0  0  0
   17.7480   70.1008   -3.1843 C   0  0  0  0  0  0  0  0  0  0  0  0
   16.4272   69.5733   -3.5835 C   0  0  0  0  0  0  0  0  0  0  0  0
   15.3638   69.1265   -5.2513 H   0  0  0  0  0  0  0  0  0  0  0  0
   22.6760   73.2397   -2.2159 O   0  0  0  0  0  0  0  0  0  0  0  0
   22.2046   72.2474   -1.0301 P   0  0  2  0  0  0  0  0  0  0  0  0
   23.5978   71.8237   -0.3250 O   0  0  0  0  0  0  0  0  0  0  0  0
   21.3675   71.0901   -1.4925 O   0  0  0  0  0  0  0  0  0  0  0  0
   21.4802   73.2098    0.0442 O   0  0  0  0  0  0  0  0  0  0  0  0
   21.3181   71.9960    2.0732 O   0  0  0  0  0  0  0  0  0  0  0  0
   19.3457   75.4423    3.2065 O   0  0  0  0  0  0  0  0  0  0  0  0
   21.9769   74.9130    4.2287 O   0  0  0  0  0  0  0  0  0  0  0  0
   18.9773   74.3783    0.5397 O   0  0  0  0  0  0  0  0  0  0  0  0
   20.3305   74.6737    2.5102 C   0  0  1  0  0  0  0  0  0  0  0  0
   21.1883   73.9429    3.5451 C   0  0  1  0  0  0  0  0  0  0  0  0
   19.6274   73.6749    1.5929 C   0  0  2  0  0  0  0  0  0  0  0  0
   22.0898   72.8957    2.8774 C   0  0  1  0  0  0  0  0  0  0  0  0
   20.6061   72.6483    1.0199 C   0  0  1  0  0  0  0  0  0  0  0  0
   19.7856   76.0787    3.7904 H   0  0  0  0  0  0  0  0  0  0  0  0
   21.3957   75.5686    4.6454 H   0  0  0  0  0  0  0  0  0  0  0  0
   18.3603   75.0248    0.9154 H   0  0  0  0  0  0  0  0  0  0  0  0
   22.3595   72.3778    5.1943 O   0  0  0  0  0  0  0  0  0  0  0  0
   22.8377   72.0472    3.9035 C   0  0  0  0  0  0  0  0  0  0  0  0
   22.8263   71.8452    5.8577 H   0  0  0  0  0  0  0  0  0  0  0  0
 25 28  1  0
 25 24  1  0
 25 26  1  1
 25 27  2  0
  1  4  1  0
  1 24  1  0
  1  2  1  1
  1  3  2  0
  6 11  1  0
  6 12  1  0
 29 36  1  0
 29 37  1  0
  9  7  1  6
  7 13  1  0
 10  8  1  6
  8 14  1  0
 37 28  1  6
  4  5  1  0
 33 30  1  1
 30 38  1  0
 34 31  1  6
 31 39  1  0
 35 32  1  6
 32 40  1  0
 41 42  1  0
 41 43  1  0
 15 19  2  0
 16 22  2  0
 12 17  1  1
 17 19  1  0
 17 20  1  0
 18 19  1  0
 18 22  1  0
 18 23  1  0
  9 10  1  0
  9 11  1  0
 10 12  1  0
 11  5  1  1
 33 34  1  0
 33 35  1  0
 34 36  1  0
 35 37  1  0
 36 42  1  1
 20 21  2  0
 21 22  1  0
M  CHG  2   2  -1  26  -1
M  END
>  <COMPND>  (460) 
    8629 

>  <AUTHOR>  (460) 
    GENERATED BY OPEN BABEL 3.1.1

>  <MASTER>  (460) 
        0    0    0    0    0    0    0    0   58    0   58    0

>  <minimizedAffinity>  (460) 
-6.76729

>  <CNNscore>  (460) 
0.4687593877

>  <CNNaffinity>  (460) 
4.0219407082

>  <CNN_VS>  (460) 
1.8853224516

>  <CNNaffinity_variance>  (460) 
0.2138724774

$$$$
461
     RDKit          3D

 43 45  0  0  0  0  0  0  0  0999 V2000
   23.0947   71.6374   -2.4042 P   0  0  2  0  0  0  0  0  0  0  0  0
   23.4569   73.1175   -1.8607 O   0  0  0  0  0  0  0  0  0  0  0  0
   24.2034   70.9434   -3.1395 O   0  0  0  0  0  0  0  0  0  0  0  0
   21.7259   71.8544   -3.2391 O   0  0  0  0  0  0  0  0  0  0  0  0
   20.9482   70.7170   -3.5700 C   0  0  0  0  0  0  0  0  0  0  0  0
   18.9075   71.6076   -4.4734 O   0  0  0  0  0  0  0  0  0  0  0  0
   17.5119   70.1695   -2.2430 O   0  0  0  0  0  0  0  0  0  0  0  0
   17.0941   68.5151   -4.3702 O   0  0  0  0  0  0  0  0  0  0  0  0
   18.6568   69.7721   -2.9957 C   0  0  1  0  0  0  0  0  0  0  0  0
   18.2458   69.3336   -4.3858 C   0  0  2  0  0  0  0  0  0  0  0  0
   19.4830   71.0187   -3.2867 C   0  0  1  0  0  0  0  0  0  0  0  0
   18.0079   70.6646   -5.0786 C   0  0  2  0  0  0  0  0  0  0  0  0
   16.9689   69.3899   -2.0448 H   0  0  0  0  0  0  0  0  0  0  0  0
   17.2963   67.6806   -3.9191 H   0  0  0  0  0  0  0  0  0  0  0  0
   16.1442   69.8071   -7.0201 O   0  0  0  0  0  0  0  0  0  0  0  0
   19.1423   70.4717  -10.4568 O   0  0  0  0  0  0  0  0  0  0  0  0
   18.2747   70.6039   -6.4880 N   0  0  0  0  0  0  0  0  0  0  0  0
   17.6385   70.1389   -8.7297 N   0  0  0  0  0  0  0  0  0  0  0  0
   17.2704   70.1577   -7.3784 C   0  0  0  0  0  0  0  0  0  0  0  0
   19.5207   70.9846   -6.9744 C   0  0  0  0  0  0  0  0  0  0  0  0
   19.8562   70.9596   -8.2659 C   0  0  0  0  0  0  0  0  0  0  0  0
   18.8642   70.5061   -9.2621 C   0  0  0  0  0  0  0  0  0  0  0  0
   16.9550   69.8312   -9.3684 H   0  0  0  0  0  0  0  0  0  0  0  0
   22.5903   70.8742   -1.0715 O   0  0  0  0  0  0  0  0  0  0  0  0
   21.7362   71.4022    0.1952 P   0  0  2  0  0  0  0  0  0  0  0  0
   21.4081   70.0454    1.0131 O   0  0  0  0  0  0  0  0  0  0  0  0
   20.5264   72.2115   -0.1726 O   0  0  0  0  0  0  0  0  0  0  0  0
   22.8090   72.1829    1.1144 O   0  0  0  0  0  0  0  0  0  0  0  0
   24.4849   71.8796    2.7623 O   0  0  0  0  0  0  0  0  0  0  0  0
   21.8430   74.2001    4.9272 O   0  0  0  0  0  0  0  0  0  0  0  0
   24.3143   75.3429    4.0137 O   0  0  0  0  0  0  0  0  0  0  0  0
   20.8391   72.1801    3.1130 O   0  0  0  0  0  0  0  0  0  0  0  0
   22.5359   73.7646    3.7544 C   0  0  1  0  0  0  0  0  0  0  0  0
   24.0369   73.9455    3.9892 C   0  0  1  0  0  0  0  0  0  0  0  0
   22.2053   72.2959    3.4956 C   0  0  2  0  0  0  0  0  0  0  0  0
   24.8566   73.2571    2.8895 C   0  0  1  0  0  0  0  0  0  0  0  0
   23.1103   71.6944    2.4189 C   0  0  1  0  0  0  0  0  0  0  0  0
   22.0482   75.1321    5.0968 H   0  0  0  0  0  0  0  0  0  0  0  0
   23.7901   75.7656    4.7120 H   0  0  0  0  0  0  0  0  0  0  0  0
   20.2765   72.5641    3.8029 H   0  0  0  0  0  0  0  0  0  0  0  0
   26.7997   74.6308    3.1052 O   0  0  0  0  0  0  0  0  0  0  0  0
   26.3540   73.2895    3.1872 C   0  0  0  0  0  0  0  0  0  0  0  0
   27.7511   74.6668    3.2927 H   0  0  0  0  0  0  0  0  0  0  0  0
 25 28  1  0
 25 24  1  0
 25 26  1  1
 25 27  2  0
  1  4  1  0
  1 24  1  0
  1  2  1  1
  1  3  2  0
  6 11  1  0
  6 12  1  0
 29 36  1  0
 29 37  1  0
  9  7  1  1
  7 13  1  0
 10  8  1  1
  8 14  1  0
 37 28  1  6
  4  5  1  0
 33 30  1  1
 30 38  1  0
 34 31  1  6
 31 39  1  0
 35 32  1  6
 32 40  1  0
 41 42  1  0
 41 43  1  0
 15 19  2  0
 16 22  2  0
 12 17  1  6
 17 19  1  0
 17 20  1  0
 18 19  1  0
 18 22  1  0
 18 23  1  0
  9 10  1  0
  9 11  1  0
 10 12  1  0
 11  5  1  6
 33 34  1  0
 33 35  1  0
 34 36  1  0
 35 37  1  0
 36 42  1  1
 20 21  2  0
 21 22  1  0
M  CHG  2   2  -1  26  -1
M  END
>  <COMPND>  (461) 
    8629 

>  <AUTHOR>  (461) 
    GENERATED BY OPEN BABEL 3.1.1

>  <MASTER>  (461) 
        0    0    0    0    0    0    0    0   58    0   58    0

>  <minimizedAffinity>  (461) 
-7.99007

>  <CNNscore>  (461) 
0.9278425574

>  <CNNaffinity>  (461) 
4.7304582596

>  <CNN_VS>  (461) 
4.3891205788

>  <CNNaffinity_variance>  (461) 
0.0601324327

$$$$
462
     RDKit          3D

 43 45  0  0  0  0  0  0  0  0999 V2000
   20.6076   71.3250   -1.5096 P   0  0  2  0  0  0  0  0  0  0  0  0
   21.2800   70.5537   -0.2564 O   0  0  0  0  0  0  0  0  0  0  0  0
   20.1272   72.7154   -1.2142 O   0  0  0  0  0  0  0  0  0  0  0  0
   19.4830   70.2916   -2.0436 O   0  0  0  0  0  0  0  0  0  0  0  0
   19.1527   70.3046   -3.4215 C   0  0  0  0  0  0  0  0  0  0  0  0
   17.5137   71.3640   -4.8233 O   0  0  0  0  0  0  0  0  0  0  0  0
   15.4624   69.8295   -3.2651 O   0  0  0  0  0  0  0  0  0  0  0  0
   15.6837   68.3680   -5.5567 O   0  0  0  0  0  0  0  0  0  0  0  0
   16.7741   69.4345   -3.6633 C   0  0  1  0  0  0  0  0  0  0  0  0
   16.8031   69.1262   -5.1458 C   0  0  2  0  0  0  0  0  0  0  0  0
   17.6794   70.6568   -3.5748 C   0  0  1  0  0  0  0  0  0  0  0  0
   16.8231   70.5172   -5.7565 C   0  0  2  0  0  0  0  0  0  0  0  0
   14.8661   69.0651   -3.3131 H   0  0  0  0  0  0  0  0  0  0  0  0
   15.7164   67.4920   -5.1417 H   0  0  0  0  0  0  0  0  0  0  0  0
   15.5430   70.5799   -8.2735 O   0  0  0  0  0  0  0  0  0  0  0  0
   19.5654   70.6498  -10.5221 O   0  0  0  0  0  0  0  0  0  0  0  0
   17.5115   70.5525   -7.0159 N   0  0  0  0  0  0  0  0  0  0  0  0
   17.5469   70.6148   -9.3911 N   0  0  0  0  0  0  0  0  0  0  0  0
   16.7747   70.5812   -8.2229 C   0  0  0  0  0  0  0  0  0  0  0  0
   18.9018   70.5588   -7.0458 C   0  0  0  0  0  0  0  0  0  0  0  0
   19.6232   70.5897   -8.1683 C   0  0  0  0  0  0  0  0  0  0  0  0
   18.9304   70.6211   -9.4725 C   0  0  0  0  0  0  0  0  0  0  0  0
   17.0551   70.6349  -10.2440 H   0  0  0  0  0  0  0  0  0  0  0  0
   21.7522   71.2363   -2.6475 O   0  0  0  0  0  0  0  0  0  0  0  0
   23.1714   71.9974   -2.7873 P   0  0  2  0  0  0  0  0  0  0  0  0
   24.2242   70.7855   -2.9886 O   0  0  0  0  0  0  0  0  0  0  0  0
   23.4936   72.9137   -1.6425 O   0  0  0  0  0  0  0  0  0  0  0  0
   23.1055   72.7235   -4.2272 O   0  0  0  0  0  0  0  0  0  0  0  0
   20.9702   73.7438   -4.3533 O   0  0  0  0  0  0  0  0  0  0  0  0
   22.4154   74.7751   -8.0814 O   0  0  0  0  0  0  0  0  0  0  0  0
   22.1837   76.7863   -6.0443 O   0  0  0  0  0  0  0  0  0  0  0  0
   23.0045   72.1656   -6.9755 O   0  0  0  0  0  0  0  0  0  0  0  0
   22.5019   74.5025   -6.6801 C   0  0  1  0  0  0  0  0  0  0  0  0
   21.5973   75.4916   -5.9424 C   0  0  1  0  0  0  0  0  0  0  0  0
   22.0509   73.0661   -6.4222 C   0  0  2  0  0  0  0  0  0  0  0  0
   21.4288   75.0958   -4.4693 C   0  0  1  0  0  0  0  0  0  0  0  0
   21.8667   72.7914   -4.9286 C   0  0  1  0  0  0  0  0  0  0  0  0
   22.7009   75.6855   -8.2520 H   0  0  0  0  0  0  0  0  0  0  0  0
   22.2850   77.0239   -6.9795 H   0  0  0  0  0  0  0  0  0  0  0  0
   23.1119   72.3495   -7.9213 H   0  0  0  0  0  0  0  0  0  0  0  0
   19.9029   75.2648   -2.6385 O   0  0  0  0  0  0  0  0  0  0  0  0
   20.4068   75.9765   -3.7537 C   0  0  0  0  0  0  0  0  0  0  0  0
   19.2514   75.8132   -2.1732 H   0  0  0  0  0  0  0  0  0  0  0  0
 25 28  1  0
 25 24  1  0
 25 26  1  6
 25 27  2  0
  1  4  1  0
  1 24  1  0
  1  2  1  1
  1  3  2  0
  6 11  1  0
  6 12  1  0
 29 36  1  0
 29 37  1  0
  9  7  1  6
  7 13  1  0
 10  8  1  6
  8 14  1  0
 37 28  1  1
  4  5  1  0
 33 30  1  6
 30 38  1  0
 34 31  1  1
 31 39  1  0
 35 32  1  1
 32 40  1  0
 41 42  1  0
 41 43  1  0
 15 19  2  0
 16 22  2  0
 12 17  1  6
 17 19  1  0
 17 20  1  0
 18 19  1  0
 18 22  1  0
 18 23  1  0
  9 10  1  0
  9 11  1  0
 10 12  1  0
 11  5  1  6
 33 34  1  0
 33 35  1  0
 34 36  1  0
 35 37  1  0
 36 42  1  6
 20 21  2  0
 21 22  1  0
M  CHG  2   2  -1  26  -1
M  END
>  <COMPND>  (462) 
    8629 

>  <AUTHOR>  (462) 
    GENERATED BY OPEN BABEL 3.1.1

>  <MASTER>  (462) 
        0    0    0    0    0    0    0    0   58    0   58    0

>  <minimizedAffinity>  (462) 
-7.95767

>  <CNNscore>  (462) 
0.9210213423

>  <CNNaffinity>  (462) 
4.6986722946

>  <CNN_VS>  (462) 
4.3275775909

>  <CNNaffinity_variance>  (462) 
0.5122873783

$$$$
463
     RDKit          3D

 43 45  0  0  0  0  0  0  0  0999 V2000
   20.3990   71.1625   -1.3009 P   0  0  2  0  0  0  0  0  0  0  0  0
   20.7823   70.4522    0.1012 O   0  0  0  0  0  0  0  0  0  0  0  0
   19.9002   72.5725   -1.1815 O   0  0  0  0  0  0  0  0  0  0  0  0
   19.3843   70.1152   -2.0021 O   0  0  0  0  0  0  0  0  0  0  0  0
   19.0967   70.2724   -3.3807 C   0  0  0  0  0  0  0  0  0  0  0  0
   17.4684   71.3393   -4.7893 O   0  0  0  0  0  0  0  0  0  0  0  0
   15.4049   69.7999   -3.2522 O   0  0  0  0  0  0  0  0  0  0  0  0
   15.6412   68.3480   -5.5485 O   0  0  0  0  0  0  0  0  0  0  0  0
   16.7191   69.4054   -3.6429 C   0  0  1  0  0  0  0  0  0  0  0  0
   16.7582   69.1035   -5.1264 C   0  0  2  0  0  0  0  0  0  0  0  0
   17.6248   70.6265   -3.5428 C   0  0  1  0  0  0  0  0  0  0  0  0
   16.7837   70.4971   -5.7310 C   0  0  2  0  0  0  0  0  0  0  0  0
   14.8084   69.0363   -3.3077 H   0  0  0  0  0  0  0  0  0  0  0  0
   15.6702   67.4702   -5.1370 H   0  0  0  0  0  0  0  0  0  0  0  0
   15.5218   70.6245   -8.2547 O   0  0  0  0  0  0  0  0  0  0  0  0
   19.5595   70.6449  -10.4768 O   0  0  0  0  0  0  0  0  0  0  0  0
   17.4810   70.5372   -6.9854 N   0  0  0  0  0  0  0  0  0  0  0  0
   17.5333   70.6348   -9.3591 N   0  0  0  0  0  0  0  0  0  0  0  0
   16.7529   70.5995   -8.1964 C   0  0  0  0  0  0  0  0  0  0  0  0
   18.8713   70.5150   -7.0065 C   0  0  0  0  0  0  0  0  0  0  0  0
   19.6005   70.5480   -8.1238 C   0  0  0  0  0  0  0  0  0  0  0  0
   18.9171   70.6135   -9.4317 C   0  0  0  0  0  0  0  0  0  0  0  0
   17.0476   70.6779  -10.2147 H   0  0  0  0  0  0  0  0  0  0  0  0
   21.7502   70.9984   -2.1728 O   0  0  0  0  0  0  0  0  0  0  0  0
   23.1907   71.7205   -2.0443 P   0  0  2  0  0  0  0  0  0  0  0  0
   24.1567   70.7839   -2.9427 O   0  0  0  0  0  0  0  0  0  0  0  0
   23.6573   71.9157   -0.6308 O   0  0  0  0  0  0  0  0  0  0  0  0
   23.0410   73.0848   -2.8936 O   0  0  0  0  0  0  0  0  0  0  0  0
   23.6067   73.0195   -5.1941 O   0  0  0  0  0  0  0  0  0  0  0  0
   23.7628   77.1016   -4.5919 O   0  0  0  0  0  0  0  0  0  0  0  0
   21.5887   75.9715   -6.0899 O   0  0  0  0  0  0  0  0  0  0  0  0
   24.7251   75.3014   -2.5394 O   0  0  0  0  0  0  0  0  0  0  0  0
   23.2677   75.7740   -4.3980 C   0  0  1  0  0  0  0  0  0  0  0  0
   22.7663   75.2477   -5.7442 C   0  0  1  0  0  0  0  0  0  0  0  0
   24.3958   74.8938   -3.8630 C   0  0  2  0  0  0  0  0  0  0  0  0
   22.4683   73.7439   -5.6749 C   0  0  1  0  0  0  0  0  0  0  0  0
   24.0140   73.4126   -3.8821 C   0  0  1  0  0  0  0  0  0  0  0  0
   23.0513   77.6658   -4.9311 H   0  0  0  0  0  0  0  0  0  0  0  0
   21.7904   76.9196   -6.1298 H   0  0  0  0  0  0  0  0  0  0  0  0
   24.9652   76.2407   -2.5408 H   0  0  0  0  0  0  0  0  0  0  0  0
   20.9072   73.7540   -7.4837 O   0  0  0  0  0  0  0  0  0  0  0  0
   22.1181   73.1665   -7.0446 C   0  0  0  0  0  0  0  0  0  0  0  0
   20.6720   73.3962   -8.3545 H   0  0  0  0  0  0  0  0  0  0  0  0
 25 28  1  0
 25 24  1  0
 25 26  1  6
 25 27  2  0
  1  4  1  0
  1 24  1  0
  1  2  1  1
  1  3  2  0
  6 11  1  0
  6 12  1  0
 29 36  1  0
 29 37  1  0
  9  7  1  6
  7 13  1  0
 10  8  1  6
  8 14  1  0
 37 28  1  1
  4  5  1  0
 33 30  1  6
 30 38  1  0
 34 31  1  1
 31 39  1  0
 35 32  1  1
 32 40  1  0
 41 42  1  0
 41 43  1  0
 15 19  2  0
 16 22  2  0
 12 17  1  6
 17 19  1  0
 17 20  1  0
 18 19  1  0
 18 22  1  0
 18 23  1  0
  9 10  1  0
  9 11  1  0
 10 12  1  0
 11  5  1  6
 33 34  1  0
 33 35  1  0
 34 36  1  0
 35 37  1  0
 36 42  1  6
 20 21  2  0
 21 22  1  0
M  CHG  2   2  -1  26  -1
M  END
>  <COMPND>  (463) 
    8629 

>  <AUTHOR>  (463) 
    GENERATED BY OPEN BABEL 3.1.1

>  <MASTER>  (463) 
        0    0    0    0    0    0    0    0   58    0   58    0

>  <minimizedAffinity>  (463) 
-8.20091

>  <CNNscore>  (463) 
0.9069390893

>  <CNNaffinity>  (463) 
4.7145614624

>  <CNN_VS>  (463) 
4.2758202553

>  <CNNaffinity_variance>  (463) 
0.3769924045

$$$$
464
     RDKit          3D

 43 45  0  0  0  0  0  0  0  0999 V2000
   20.1990   71.4092   -1.3318 P   0  0  2  0  0  0  0  0  0  0  0  0
   21.0770   70.5786   -0.2564 O   0  0  0  0  0  0  0  0  0  0  0  0
   19.2532   72.4118   -0.7386 O   0  0  0  0  0  0  0  0  0  0  0  0
   19.5217   70.2617   -2.2495 O   0  0  0  0  0  0  0  0  0  0  0  0
   19.2608   70.5517   -3.6118 C   0  0  0  0  0  0  0  0  0  0  0  0
   17.5983   71.4907   -5.0706 O   0  0  0  0  0  0  0  0  0  0  0  0
   15.5765   70.0615   -3.3791 O   0  0  0  0  0  0  0  0  0  0  0  0
   15.7861   68.4342   -5.5573 O   0  0  0  0  0  0  0  0  0  0  0  0
   16.8873   69.6478   -3.7613 C   0  0  1  0  0  0  0  0  0  0  0  0
   16.9033   69.2296   -5.2168 C   0  0  2  0  0  0  0  0  0  0  0  0
   17.7831   70.8802   -3.7746 C   0  0  1  0  0  0  0  0  0  0  0  0
   16.9051   70.5710   -5.9300 C   0  0  2  0  0  0  0  0  0  0  0  0
   14.9863   69.2912   -3.3632 H   0  0  0  0  0  0  0  0  0  0  0  0
   15.8305   67.5920   -5.0783 H   0  0  0  0  0  0  0  0  0  0  0  0
   15.6056   70.6656   -8.4361 O   0  0  0  0  0  0  0  0  0  0  0  0
   19.5953   70.3552  -10.7222 O   0  0  0  0  0  0  0  0  0  0  0  0
   17.5799   70.5172   -7.1962 N   0  0  0  0  0  0  0  0  0  0  0  0
   17.5932   70.5111   -9.5724 N   0  0  0  0  0  0  0  0  0  0  0  0
   16.8340   70.5709   -8.3967 C   0  0  0  0  0  0  0  0  0  0  0  0
   18.9659   70.4126   -7.2389 C   0  0  0  0  0  0  0  0  0  0  0  0
   19.6748   70.3555   -8.3682 C   0  0  0  0  0  0  0  0  0  0  0  0
   18.9719   70.4057   -9.6665 C   0  0  0  0  0  0  0  0  0  0  0  0
   17.0950   70.5465  -10.4210 H   0  0  0  0  0  0  0  0  0  0  0  0
   21.3220   72.0398   -2.3086 O   0  0  0  0  0  0  0  0  0  0  0  0
   22.9213   72.1910   -2.1289 P   0  0  2  0  0  0  0  0  0  0  0  0
   23.2866   73.4386   -3.0920 O   0  0  0  0  0  0  0  0  0  0  0  0
   23.6945   70.9373   -2.4193 O   0  0  0  0  0  0  0  0  0  0  0  0
   23.1119   72.7626   -0.6315 O   0  0  0  0  0  0  0  0  0  0  0  0
   21.5931   74.0426    0.6613 O   0  0  0  0  0  0  0  0  0  0  0  0
   25.1410   75.6696    2.0090 O   0  0  0  0  0  0  0  0  0  0  0  0
   23.6338   73.9327    3.7292 O   0  0  0  0  0  0  0  0  0  0  0  0
   24.8440   74.9654   -0.7830 O   0  0  0  0  0  0  0  0  0  0  0  0
   24.2817   74.6293    1.5348 C   0  0  1  0  0  0  0  0  0  0  0  0
   23.1196   74.4813    2.5189 C   0  0  1  0  0  0  0  0  0  0  0  0
   23.7661   75.0021    0.1461 C   0  0  2  0  0  0  0  0  0  0  0  0
   22.0207   73.5761    1.9463 C   0  0  1  0  0  0  0  0  0  0  0  0
   22.6423   74.0689   -0.3084 C   0  0  1  0  0  0  0  0  0  0  0  0
   25.4722   75.4389    2.8902 H   0  0  0  0  0  0  0  0  0  0  0  0
   24.3271   74.5135    4.0801 H   0  0  0  0  0  0  0  0  0  0  0  0
   25.5486   75.5604   -0.4843 H   0  0  0  0  0  0  0  0  0  0  0  0
   20.5381   72.1975    3.2153 O   0  0  0  0  0  0  0  0  0  0  0  0
   20.7844   73.5408    2.8420 C   0  0  0  0  0  0  0  0  0  0  0  0
   19.7541   72.1597    3.7859 H   0  0  0  0  0  0  0  0  0  0  0  0
 25 28  1  0
 25 24  1  0
 25 26  1  6
 25 27  2  0
  1  4  1  0
  1 24  1  0
  1  2  1  1
  1  3  2  0
  6 11  1  0
  6 12  1  0
 29 36  1  0
 29 37  1  0
  9  7  1  6
  7 13  1  0
 10  8  1  6
  8 14  1  0
 37 28  1  1
  4  5  1  0
 33 30  1  1
 30 38  1  0
 34 31  1  1
 31 39  1  0
 35 32  1  6
 32 40  1  0
 41 42  1  0
 41 43  1  0
 15 19  2  0
 16 22  2  0
 12 17  1  6
 17 19  1  0
 17 20  1  0
 18 19  1  0
 18 22  1  0
 18 23  1  0
  9 10  1  0
  9 11  1  0
 10 12  1  0
 11  5  1  6
 33 34  1  0
 33 35  1  0
 34 36  1  0
 35 37  1  0
 36 42  1  1
 20 21  2  0
 21 22  1  0
M  CHG  2   2  -1  26  -1
M  END
>  <COMPND>  (464) 
    8629 

>  <AUTHOR>  (464) 
    GENERATED BY OPEN BABEL 3.1.1

>  <MASTER>  (464) 
        0    0    0    0    0    0    0    0   58    0   58    0

>  <minimizedAffinity>  (464) 
-7.33080

>  <CNNscore>  (464) 
0.8998322487

>  <CNNaffinity>  (464) 
4.6318306923

>  <CNN_VS>  (464) 
4.1678705215

>  <CNNaffinity_variance>  (464) 
0.1362186670

$$$$
465
     RDKit          3D

 43 45  0  0  0  0  0  0  0  0999 V2000
   20.7802   72.9296   -3.6349 P   0  0  2  0  0  0  0  0  0  0  0  0
   20.2654   73.3652   -2.1643 O   0  0  0  0  0  0  0  0  0  0  0  0
   21.2944   74.0540   -4.4852 O   0  0  0  0  0  0  0  0  0  0  0  0
   19.5381   72.0949   -4.2499 O   0  0  0  0  0  0  0  0  0  0  0  0
   18.9915   71.0345   -3.4853 C   0  0  0  0  0  0  0  0  0  0  0  0
   17.1917   71.5058   -5.0059 O   0  0  0  0  0  0  0  0  0  0  0  0
   15.5117   69.7248   -3.2749 O   0  0  0  0  0  0  0  0  0  0  0  0
   16.1353   68.0982   -5.3730 O   0  0  0  0  0  0  0  0  0  0  0  0
   16.8905   69.6061   -3.6217 C   0  0  1  0  0  0  0  0  0  0  0  0
   17.0339   69.1417   -5.0560 C   0  0  2  0  0  0  0  0  0  0  0  0
   17.4818   71.0090   -3.6810 C   0  0  1  0  0  0  0  0  0  0  0  0
   16.7458   70.4166   -5.8304 C   0  0  2  0  0  0  0  0  0  0  0  0
   15.1124   68.8412   -3.2306 H   0  0  0  0  0  0  0  0  0  0  0  0
   16.3599   67.3094   -4.8551 H   0  0  0  0  0  0  0  0  0  0  0  0
   15.4888   70.6794   -8.3461 O   0  0  0  0  0  0  0  0  0  0  0  0
   19.5217   70.5903  -10.5752 O   0  0  0  0  0  0  0  0  0  0  0  0
   17.4431   70.4652   -7.0844 N   0  0  0  0  0  0  0  0  0  0  0  0
   17.4979   70.6350   -9.4539 N   0  0  0  0  0  0  0  0  0  0  0  0
   16.7176   70.5979   -8.2913 C   0  0  0  0  0  0  0  0  0  0  0  0
   18.8311   70.3819   -7.1092 C   0  0  0  0  0  0  0  0  0  0  0  0
   19.5602   70.4176   -8.2265 C   0  0  0  0  0  0  0  0  0  0  0  0
   18.8794   70.5546   -9.5302 C   0  0  0  0  0  0  0  0  0  0  0  0
   17.0141   70.7266  -10.3067 H   0  0  0  0  0  0  0  0  0  0  0  0
   21.8679   71.7780   -3.3129 O   0  0  0  0  0  0  0  0  0  0  0  0
   23.3426   71.8644   -2.6564 P   0  0  2  0  0  0  0  0  0  0  0  0
   23.8980   73.2915   -3.1782 O   0  0  0  0  0  0  0  0  0  0  0  0
   24.2302   70.6980   -2.9817 O   0  0  0  0  0  0  0  0  0  0  0  0
   23.0757   72.0825   -1.0797 O   0  0  0  0  0  0  0  0  0  0  0  0
   24.1655   70.8162    0.6012 O   0  0  0  0  0  0  0  0  0  0  0  0
   20.7384   71.8405    2.6644 O   0  0  0  0  0  0  0  0  0  0  0  0
   23.2325   73.0885    3.3499 O   0  0  0  0  0  0  0  0  0  0  0  0
   20.5865   71.1801   -0.1499 O   0  0  0  0  0  0  0  0  0  0  0  0
   21.8102   72.0389    1.7386 C   0  0  1  0  0  0  0  0  0  0  0  0
   23.1304   71.9449    2.5060 C   0  0  1  0  0  0  0  0  0  0  0  0
   21.7400   70.9638    0.6558 C   0  0  2  0  0  0  0  0  0  0  0  0
   24.3259   71.8809    1.5460 C   0  0  1  0  0  0  0  0  0  0  0  0
   22.9992   70.9538   -0.2128 C   0  0  1  0  0  0  0  0  0  0  0  0
   20.7769   72.5203    3.3543 H   0  0  0  0  0  0  0  0  0  0  0  0
   22.4714   73.1174    3.9508 H   0  0  0  0  0  0  0  0  0  0  0  0
   19.7962   71.1839    0.4116 H   0  0  0  0  0  0  0  0  0  0  0  0
   26.0555   72.8397    2.8870 O   0  0  0  0  0  0  0  0  0  0  0  0
   25.6390   71.6285    2.2837 C   0  0  0  0  0  0  0  0  0  0  0  0
   26.8899   72.6941    3.3604 H   0  0  0  0  0  0  0  0  0  0  0  0
 25 28  1  0
 25 24  1  0
 25 26  1  6
 25 27  2  0
  1  4  1  0
  1 24  1  0
  1  2  1  1
  1  3  2  0
  6 11  1  0
  6 12  1  0
 29 36  1  0
 29 37  1  0
  9  7  1  6
  7 13  1  0
 10  8  1  6
  8 14  1  0
 37 28  1  1
  4  5  1  0
 33 30  1  1
 30 38  1  0
 34 31  1  1
 31 39  1  0
 35 32  1  6
 32 40  1  0
 41 42  1  0
 41 43  1  0
 15 19  2  0
 16 22  2  0
 12 17  1  6
 17 19  1  0
 17 20  1  0
 18 19  1  0
 18 22  1  0
 18 23  1  0
  9 10  1  0
  9 11  1  0
 10 12  1  0
 11  5  1  6
 33 34  1  0
 33 35  1  0
 34 36  1  0
 35 37  1  0
 36 42  1  1
 20 21  2  0
 21 22  1  0
M  CHG  2   2  -1  26  -1
M  END
>  <COMPND>  (465) 
    8629 

>  <AUTHOR>  (465) 
    GENERATED BY OPEN BABEL 3.1.1

>  <MASTER>  (465) 
        0    0    0    0    0    0    0    0   58    0   58    0

>  <minimizedAffinity>  (465) 
-8.00427

>  <CNNscore>  (465) 
0.8763915896

>  <CNNaffinity>  (465) 
4.7575125694

>  <CNN_VS>  (465) 
4.1694440842

>  <CNNaffinity_variance>  (465) 
0.0804592222

$$$$
466
     RDKit          3D

 43 45  0  0  0  0  0  0  0  0999 V2000
   20.6052   71.1835   -1.1130 P   0  0  2  0  0  0  0  0  0  0  0  0
   20.7912   70.4779    0.3310 O   0  0  0  0  0  0  0  0  0  0  0  0
   20.2029   72.6283   -1.0653 O   0  0  0  0  0  0  0  0  0  0  0  0
   19.5916   70.1975   -1.8994 O   0  0  0  0  0  0  0  0  0  0  0  0
   19.2858   70.4823   -3.2533 C   0  0  0  0  0  0  0  0  0  0  0  0
   17.5841   71.4782   -4.6267 O   0  0  0  0  0  0  0  0  0  0  0  0
   15.6128   69.9320   -2.9792 O   0  0  0  0  0  0  0  0  0  0  0  0
   15.7996   68.4297   -5.2474 O   0  0  0  0  0  0  0  0  0  0  0  0
   16.9208   69.5571   -3.4081 C   0  0  1  0  0  0  0  0  0  0  0  0
   16.9136   69.2197   -4.8844 C   0  0  2  0  0  0  0  0  0  0  0  0
   17.8013   70.7999   -3.3701 C   0  0  1  0  0  0  0  0  0  0  0  0
   16.8855   70.5982   -5.5225 C   0  0  2  0  0  0  0  0  0  0  0  0
   15.0323   69.1543   -2.9948 H   0  0  0  0  0  0  0  0  0  0  0  0
   15.8635   67.5631   -4.8165 H   0  0  0  0  0  0  0  0  0  0  0  0
   15.5463   70.3644   -7.9984 O   0  0  0  0  0  0  0  0  0  0  0  0
   19.4844   70.7044  -10.3685 O   0  0  0  0  0  0  0  0  0  0  0  0
   17.5361   70.6228   -6.8021 N   0  0  0  0  0  0  0  0  0  0  0  0
   17.5082   70.5340   -9.1765 N   0  0  0  0  0  0  0  0  0  0  0  0
   16.7719   70.4966   -7.9855 C   0  0  0  0  0  0  0  0  0  0  0  0
   18.9169   70.7710   -6.8747 C   0  0  0  0  0  0  0  0  0  0  0  0
   19.6042   70.8035   -8.0183 C   0  0  0  0  0  0  0  0  0  0  0  0
   18.8810   70.6783   -9.3002 C   0  0  0  0  0  0  0  0  0  0  0  0
   16.9970   70.4476  -10.0137 H   0  0  0  0  0  0  0  0  0  0  0  0
   22.0216   70.9032   -1.8396 O   0  0  0  0  0  0  0  0  0  0  0  0
   23.1188   71.9188   -2.4541 P   0  0  2  0  0  0  0  0  0  0  0  0
   24.2139   70.9273   -3.1138 O   0  0  0  0  0  0  0  0  0  0  0  0
   23.6834   72.8905   -1.4587 O   0  0  0  0  0  0  0  0  0  0  0  0
   22.3795   72.6055   -3.7138 O   0  0  0  0  0  0  0  0  0  0  0  0
   23.2321   73.9854   -5.4417 O   0  0  0  0  0  0  0  0  0  0  0  0
   19.5607   75.7966   -4.9018 O   0  0  0  0  0  0  0  0  0  0  0  0
   20.0311   74.2188   -7.2550 O   0  0  0  0  0  0  0  0  0  0  0  0
   21.0339   74.8089   -2.6141 O   0  0  0  0  0  0  0  0  0  0  0  0
   20.4774   74.7002   -4.9550 C   0  0  1  0  0  0  0  0  0  0  0  0
   21.0646   74.6340   -6.3663 C   0  0  1  0  0  0  0  0  0  0  0  0
   21.5817   74.9222   -3.9232 C   0  0  2  0  0  0  0  0  0  0  0  0
   22.2473   73.6581   -6.4290 C   0  0  1  0  0  0  0  0  0  0  0  0
   22.7319   73.9301   -4.1044 C   0  0  1  0  0  0  0  0  0  0  0  0
   18.8568   75.6616   -5.5543 H   0  0  0  0  0  0  0  0  0  0  0  0
   19.2902   74.8432   -7.2054 H   0  0  0  0  0  0  0  0  0  0  0  0
   20.3071   75.4423   -2.5119 H   0  0  0  0  0  0  0  0  0  0  0  0
   22.3489   72.7235   -8.6257 O   0  0  0  0  0  0  0  0  0  0  0  0
   22.9469   73.6939   -7.7860 C   0  0  0  0  0  0  0  0  0  0  0  0
   22.7839   72.7351   -9.4930 H   0  0  0  0  0  0  0  0  0  0  0  0
 25 28  1  0
 25 24  1  0
 25 26  1  6
 25 27  2  0
  1  4  1  0
  1 24  1  0
  1  2  1  1
  1  3  2  0
  6 11  1  0
  6 12  1  0
 29 36  1  0
 29 37  1  0
  9  7  1  6
  7 13  1  0
 10  8  1  1
  8 14  1  0
 37 28  1  6
  4  5  1  0
 33 30  1  6
 30 38  1  0
 34 31  1  6
 31 39  1  0
 35 32  1  1
 32 40  1  0
 41 42  1  0
 41 43  1  0
 15 19  2  0
 16 22  2  0
 12 17  1  6
 17 19  1  0
 17 20  1  0
 18 19  1  0
 18 22  1  0
 18 23  1  0
  9 10  1  0
  9 11  1  0
 10 12  1  0
 11  5  1  6
 33 34  1  0
 33 35  1  0
 34 36  1  0
 35 37  1  0
 36 42  1  6
 20 21  2  0
 21 22  1  0
M  CHG  2   2  -1  26  -1
M  END
>  <COMPND>  (466) 
    8629 

>  <AUTHOR>  (466) 
    GENERATED BY OPEN BABEL 3.1.1

>  <MASTER>  (466) 
        0    0    0    0    0    0    0    0   58    0   58    0

>  <minimizedAffinity>  (466) 
-7.98231

>  <CNNscore>  (466) 
0.8606051207

>  <CNNaffinity>  (466) 
4.6299500465

>  <CNN_VS>  (466) 
3.9845588207

>  <CNNaffinity_variance>  (466) 
0.3973245323

$$$$
467
     RDKit          3D

 43 45  0  0  0  0  0  0  0  0999 V2000
   21.4720   71.8137   -2.4374 P   0  0  2  0  0  0  0  0  0  0  0  0
   22.2706   70.4753   -2.8712 O   0  0  0  0  0  0  0  0  0  0  0  0
   21.9551   72.4577   -1.1712 O   0  0  0  0  0  0  0  0  0  0  0  0
   19.9191   71.3595   -2.4465 O   0  0  0  0  0  0  0  0  0  0  0  0
   19.4070   70.7249   -3.6053 C   0  0  0  0  0  0  0  0  0  0  0  0
   17.6592   71.6040   -5.0004 O   0  0  0  0  0  0  0  0  0  0  0  0
   15.7509   70.1339   -3.2148 O   0  0  0  0  0  0  0  0  0  0  0  0
   15.9156   68.4939   -5.3873 O   0  0  0  0  0  0  0  0  0  0  0  0
   17.0558   69.7537   -3.6483 C   0  0  1  0  0  0  0  0  0  0  0  0
   17.0230   69.3232   -5.1000 C   0  0  2  0  0  0  0  0  0  0  0  0
   17.9150   71.0105   -3.7086 C   0  0  1  0  0  0  0  0  0  0  0  0
   16.9572   70.6578   -5.8230 C   0  0  2  0  0  0  0  0  0  0  0  0
   15.1839   69.3476   -3.1683 H   0  0  0  0  0  0  0  0  0  0  0  0
   16.0038   67.6575   -4.9041 H   0  0  0  0  0  0  0  0  0  0  0  0
   15.5504   70.6452   -8.2722 O   0  0  0  0  0  0  0  0  0  0  0  0
   19.4507   70.4772  -10.7219 O   0  0  0  0  0  0  0  0  0  0  0  0
   17.5799   70.6115   -7.1158 N   0  0  0  0  0  0  0  0  0  0  0  0
   17.4936   70.5618   -9.4900 N   0  0  0  0  0  0  0  0  0  0  0  0
   16.7825   70.6082   -8.2840 C   0  0  0  0  0  0  0  0  0  0  0  0
   18.9663   70.5705   -7.2162 C   0  0  0  0  0  0  0  0  0  0  0  0
   19.6290   70.5252   -8.3738 C   0  0  0  0  0  0  0  0  0  0  0  0
   18.8705   70.5185   -9.6413 C   0  0  0  0  0  0  0  0  0  0  0  0
   16.9590   70.5582  -10.3170 H   0  0  0  0  0  0  0  0  0  0  0  0
   21.5852   72.7468   -3.7525 O   0  0  0  0  0  0  0  0  0  0  0  0
   22.7685   72.9065   -4.8421 P   0  0  2  0  0  0  0  0  0  0  0  0
   22.3940   71.7999   -5.9614 O   0  0  0  0  0  0  0  0  0  0  0  0
   24.1512   72.7689   -4.2736 O   0  0  0  0  0  0  0  0  0  0  0  0
   22.4772   74.3240   -5.5568 O   0  0  0  0  0  0  0  0  0  0  0  0
   20.4762   74.1596   -6.8160 O   0  0  0  0  0  0  0  0  0  0  0  0
   21.6621   77.9479   -7.9533 O   0  0  0  0  0  0  0  0  0  0  0  0
   19.4263   77.6351   -6.1781 O   0  0  0  0  0  0  0  0  0  0  0  0
   23.6379   75.8626   -7.5966 O   0  0  0  0  0  0  0  0  0  0  0  0
   21.5069   76.8459   -7.0549 C   0  0  1  0  0  0  0  0  0  0  0  0
   20.0120   76.5576   -6.9034 C   0  0  1  0  0  0  0  0  0  0  0  0
   22.2338   75.6300   -7.6263 C   0  0  2  0  0  0  0  0  0  0  0  0
   19.7754   75.2297   -6.1714 C   0  0  1  0  0  0  0  0  0  0  0  0
   21.8914   74.3536   -6.8557 C   0  0  1  0  0  0  0  0  0  0  0  0
   21.2032   78.7234   -7.5961 H   0  0  0  0  0  0  0  0  0  0  0  0
   19.5832   78.4677   -6.6506 H   0  0  0  0  0  0  0  0  0  0  0  0
   23.8417   76.6730   -8.0880 H   0  0  0  0  0  0  0  0  0  0  0  0
   17.8714   74.6176   -7.4787 O   0  0  0  0  0  0  0  0  0  0  0  0
   18.2977   74.8449   -6.1480 C   0  0  0  0  0  0  0  0  0  0  0  0
   16.9327   74.3715   -7.4793 H   0  0  0  0  0  0  0  0  0  0  0  0
 25 28  1  0
 25 24  1  0
 25 26  1  6
 25 27  2  0
  1  4  1  0
  1 24  1  0
  1  2  1  6
  1  3  2  0
  6 11  1  0
  6 12  1  0
 29 36  1  0
 29 37  1  0
  9  7  1  6
  7 13  1  0
 10  8  1  1
  8 14  1  0
 37 28  1  1
  4  5  1  0
 33 30  1  6
 30 38  1  0
 34 31  1  1
 31 39  1  0
 35 32  1  1
 32 40  1  0
 41 42  1  0
 41 43  1  0
 15 19  2  0
 16 22  2  0
 12 17  1  6
 17 19  1  0
 17 20  1  0
 18 19  1  0
 18 22  1  0
 18 23  1  0
  9 10  1  0
  9 11  1  0
 10 12  1  0
 11  5  1  6
 33 34  1  0
 33 35  1  0
 34 36  1  0
 35 37  1  0
 36 42  1  6
 20 21  2  0
 21 22  1  0
M  CHG  2   2  -1  26  -1
M  END
>  <COMPND>  (467) 
    8629 

>  <AUTHOR>  (467) 
    GENERATED BY OPEN BABEL 3.1.1

>  <MASTER>  (467) 
        0    0    0    0    0    0    0    0   58    0   58    0

>  <minimizedAffinity>  (467) 
-6.86912

>  <CNNscore>  (467) 
0.8553316593

>  <CNNaffinity>  (467) 
4.5417051315

>  <CNN_VS>  (467) 
3.8846642971

>  <CNNaffinity_variance>  (467) 
0.3188336790

$$$$
468
     RDKit          3D

 43 45  0  0  0  0  0  0  0  0999 V2000
   20.5686   71.0416   -2.5652 P   0  0  2  0  0  0  0  0  0  0  0  0
   22.0880   70.6839   -2.9906 O   0  0  0  0  0  0  0  0  0  0  0  0
   20.1286   72.4366   -2.8994 O   0  0  0  0  0  0  0  0  0  0  0  0
   20.4985   70.6388   -0.9997 O   0  0  0  0  0  0  0  0  0  0  0  0
   21.6212   70.9134   -0.1800 C   0  0  0  0  0  0  0  0  0  0  0  0
   22.0961   71.5222    2.0955 O   0  0  0  0  0  0  0  0  0  0  0  0
   20.3122   73.8884    1.6379 O   0  0  0  0  0  0  0  0  0  0  0  0
   22.8049   74.9685    1.4005 O   0  0  0  0  0  0  0  0  0  0  0  0
   21.2162   73.2523    0.7360 C   0  0  1  0  0  0  0  0  0  0  0  0
   22.6465   73.5983    1.0938 C   0  0  2  0  0  0  0  0  0  0  0  0
   21.1738   71.7538    1.0082 C   0  0  1  0  0  0  0  0  0  0  0  0
   22.8983   72.6981    2.2915 C   0  0  2  0  0  0  0  0  0  0  0  0
   20.3216   74.8464    1.4828 H   0  0  0  0  0  0  0  0  0  0  0  0
   22.6343   75.4995    0.6070 H   0  0  0  0  0  0  0  0  0  0  0  0
   23.9012   70.1534    1.5869 O   0  0  0  0  0  0  0  0  0  0  0  0
   28.2009   71.3184    2.7687 O   0  0  0  0  0  0  0  0  0  0  0  0
   24.2758   72.3094    2.4045 N   0  0  0  0  0  0  0  0  0  0  0  0
   26.0413   70.7356    2.1757 N   0  0  0  0  0  0  0  0  0  0  0  0
   24.6755   71.0070    2.0245 C   0  0  0  0  0  0  0  0  0  0  0  0
   25.2141   73.2152    2.8872 C   0  0  0  0  0  0  0  0  0  0  0  0
   26.5126   72.9404    3.0266 C   0  0  0  0  0  0  0  0  0  0  0  0
   27.0127   71.6018    2.6521 C   0  0  0  0  0  0  0  0  0  0  0  0
   26.3428   69.8344    1.9176 H   0  0  0  0  0  0  0  0  0  0  0  0
   19.7070   69.8752   -3.2794 O   0  0  0  0  0  0  0  0  0  0  0  0
   18.1101   69.6467   -3.3825 P   0  0  2  0  0  0  0  0  0  0  0  0
   17.4996   71.0343   -2.8173 O   0  0  0  0  0  0  0  0  0  0  0  0
   17.6171   68.4188   -2.6733 O   0  0  0  0  0  0  0  0  0  0  0  0
   17.7944   69.6772   -4.9651 O   0  0  0  0  0  0  0  0  0  0  0  0
   18.7503   71.6910   -5.7697 O   0  0  0  0  0  0  0  0  0  0  0  0
   17.1521   70.2630   -9.2992 O   0  0  0  0  0  0  0  0  0  0  0  0
   19.9964   70.2073   -8.9056 O   0  0  0  0  0  0  0  0  0  0  0  0
   15.7009   69.9274   -6.8170 O   0  0  0  0  0  0  0  0  0  0  0  0
   17.7765   70.1615   -8.0165 C   0  0  1  0  0  0  0  0  0  0  0  0
   19.0996   70.9281   -8.0652 C   0  0  1  0  0  0  0  0  0  0  0  0
   16.8478   70.7584   -6.9607 C   0  0  2  0  0  0  0  0  0  0  0  0
   19.6974   71.0912   -6.6612 C   0  0  1  0  0  0  0  0  0  0  0  0
   17.5552   70.9231   -5.6144 C   0  0  1  0  0  0  0  0  0  0  0  0
   17.7364   69.8853   -9.9740 H   0  0  0  0  0  0  0  0  0  0  0  0
   19.6068   70.1108   -9.7889 H   0  0  0  0  0  0  0  0  0  0  0  0
   15.2618   69.8312   -7.6760 H   0  0  0  0  0  0  0  0  0  0  0  0
   20.8924   72.8037   -7.8224 O   0  0  0  0  0  0  0  0  0  0  0  0
   20.9342   71.9870   -6.6667 C   0  0  0  0  0  0  0  0  0  0  0  0
   21.6733   73.3795   -7.8391 H   0  0  0  0  0  0  0  0  0  0  0  0
 25 28  1  0
 25 24  1  0
 25 26  1  1
 25 27  2  0
  1  4  1  0
  1 24  1  0
  1  2  1  6
  1  3  2  0
  6 11  1  0
  6 12  1  0
 29 36  1  0
 29 37  1  0
  9  7  1  1
  7 13  1  0
 10  8  1  1
  8 14  1  0
 37 28  1  6
  4  5  1  0
 33 30  1  6
 30 38  1  0
 34 31  1  6
 31 39  1  0
 35 32  1  1
 32 40  1  0
 41 42  1  0
 41 43  1  0
 15 19  2  0
 16 22  2  0
 12 17  1  6
 17 19  1  0
 17 20  1  0
 18 19  1  0
 18 22  1  0
 18 23  1  0
  9 10  1  0
  9 11  1  0
 10 12  1  0
 11  5  1  6
 33 34  1  0
 33 35  1  0
 34 36  1  0
 35 37  1  0
 36 42  1  6
 20 21  2  0
 21 22  1  0
M  CHG  2   2  -1  26  -1
M  END
>  <COMPND>  (468) 
    8629 

>  <AUTHOR>  (468) 
    GENERATED BY OPEN BABEL 3.1.1

>  <MASTER>  (468) 
        0    0    0    0    0    0    0    0   58    0   58    0

>  <minimizedAffinity>  (468) 
-7.75586

>  <CNNscore>  (468) 
0.8448876739

>  <CNNaffinity>  (468) 
4.5844702721

>  <CNN_VS>  (468) 
3.8733625412

>  <CNNaffinity_variance>  (468) 
0.1040983945

$$$$
469
     RDKit          3D

 43 45  0  0  0  0  0  0  0  0999 V2000
   20.1845   71.9531   -0.9869 P   0  0  2  0  0  0  0  0  0  0  0  0
   20.6227   70.5588   -0.2930 O   0  0  0  0  0  0  0  0  0  0  0  0
   19.6264   72.9809   -0.0468 O   0  0  0  0  0  0  0  0  0  0  0  0
   19.2048   71.4967   -2.1910 O   0  0  0  0  0  0  0  0  0  0  0  0
   17.9168   72.0815   -2.2731 C   0  0  0  0  0  0  0  0  0  0  0  0
   16.5699   70.9305   -3.8964 O   0  0  0  0  0  0  0  0  0  0  0  0
   16.2727   68.7681   -1.8405 O   0  0  0  0  0  0  0  0  0  0  0  0
   18.1798   67.7499   -3.5026 O   0  0  0  0  0  0  0  0  0  0  0  0
   17.4004   69.5947   -2.1239 C   0  0  1  0  0  0  0  0  0  0  0  0
   18.0637   69.1553   -3.4126 C   0  0  2  0  0  0  0  0  0  0  0  0
   16.8859   70.9818   -2.4879 C   0  0  1  0  0  0  0  0  0  0  0  0
   17.1284   69.7331   -4.4612 C   0  0  2  0  0  0  0  0  0  0  0  0
   16.5763   67.8769   -1.6050 H   0  0  0  0  0  0  0  0  0  0  0  0
   18.7849   67.4306   -2.8151 H   0  0  0  0  0  0  0  0  0  0  0  0
   15.9504   69.6408   -7.0267 O   0  0  0  0  0  0  0  0  0  0  0  0
   19.8427   71.0328   -9.0648 O   0  0  0  0  0  0  0  0  0  0  0  0
   17.8108   70.0666   -5.6796 N   0  0  0  0  0  0  0  0  0  0  0  0
   17.8894   70.3342   -8.0394 N   0  0  0  0  0  0  0  0  0  0  0  0
   17.1286   69.9862   -6.9159 C   0  0  0  0  0  0  0  0  0  0  0  0
   19.1416   70.4683   -5.6409 C   0  0  0  0  0  0  0  0  0  0  0  0
   19.8534   70.7955   -6.7214 C   0  0  0  0  0  0  0  0  0  0  0  0
   19.2150   70.7383   -8.0523 C   0  0  0  0  0  0  0  0  0  0  0  0
   17.4350   70.2853   -8.9117 H   0  0  0  0  0  0  0  0  0  0  0  0
   21.5264   72.4101   -1.7636 O   0  0  0  0  0  0  0  0  0  0  0  0
   23.0782   72.3755   -1.3122 P   0  0  2  0  0  0  0  0  0  0  0  0
   23.7111   73.6626   -2.0609 O   0  0  0  0  0  0  0  0  0  0  0  0
   23.7769   71.0805   -1.6096 O   0  0  0  0  0  0  0  0  0  0  0  0
   23.0584   72.7815    0.2498 O   0  0  0  0  0  0  0  0  0  0  0  0
   25.0417   72.8765    1.5436 O   0  0  0  0  0  0  0  0  0  0  0  0
   22.3059   72.2576    4.5740 O   0  0  0  0  0  0  0  0  0  0  0  0
   23.5317   74.8376    4.2755 O   0  0  0  0  0  0  0  0  0  0  0  0
   21.9796   70.9049    2.0357 O   0  0  0  0  0  0  0  0  0  0  0  0
   22.7726   72.7776    3.3262 C   0  0  1  0  0  0  0  0  0  0  0  0
   23.9863   73.6675    3.6013 C   0  0  1  0  0  0  0  0  0  0  0  0
   23.1547   71.6147    2.4124 C   0  0  2  0  0  0  0  0  0  0  0  0
   24.7026   74.0460    2.2980 C   0  0  1  0  0  0  0  0  0  0  0  0
   23.9047   72.0961    1.1691 C   0  0  1  0  0  0  0  0  0  0  0  0
   22.0611   72.9909    5.1587 H   0  0  0  0  0  0  0  0  0  0  0  0
   23.0808   74.5847    5.0964 H   0  0  0  0  0  0  0  0  0  0  0  0
   21.5140   70.6052    2.8314 H   0  0  0  0  0  0  0  0  0  0  0  0
   26.3563   74.6323    3.9198 O   0  0  0  0  0  0  0  0  0  0  0  0
   26.0040   74.8013    2.5591 C   0  0  0  0  0  0  0  0  0  0  0  0
   27.1830   75.1074    4.1005 H   0  0  0  0  0  0  0  0  0  0  0  0
 25 28  1  0
 25 24  1  0
 25 26  1  6
 25 27  2  0
  1  4  1  0
  1 24  1  0
  1  2  1  1
  1  3  2  0
  6 11  1  0
  6 12  1  0
 29 36  1  0
 29 37  1  0
  9  7  1  6
  7 13  1  0
 10  8  1  1
  8 14  1  0
 37 28  1  6
  4  5  1  0
 33 30  1  1
 30 38  1  0
 34 31  1  6
 31 39  1  0
 35 32  1  6
 32 40  1  0
 41 42  1  0
 41 43  1  0
 15 19  2  0
 16 22  2  0
 12 17  1  6
 17 19  1  0
 17 20  1  0
 18 19  1  0
 18 22  1  0
 18 23  1  0
  9 10  1  0
  9 11  1  0
 10 12  1  0
 11  5  1  6
 33 34  1  0
 33 35  1  0
 34 36  1  0
 35 37  1  0
 36 42  1  1
 20 21  2  0
 21 22  1  0
M  CHG  2   2  -1  26  -1
M  END
>  <COMPND>  (469) 
    8629 

>  <AUTHOR>  (469) 
    GENERATED BY OPEN BABEL 3.1.1

>  <MASTER>  (469) 
        0    0    0    0    0    0    0    0   58    0   58    0

>  <minimizedAffinity>  (469) 
-6.91698

>  <CNNscore>  (469) 
0.8391223550

>  <CNNaffinity>  (469) 
4.5839405060

>  <CNN_VS>  (469) 
3.8464870453

>  <CNNaffinity_variance>  (469) 
0.0450254455

$$$$
470
     RDKit          3D

 43 45  0  0  0  0  0  0  0  0999 V2000
   21.7913   72.4087   -5.5551 P   0  0  2  0  0  0  0  0  0  0  0  0
   21.0951   73.8349   -5.2408 O   0  0  0  0  0  0  0  0  0  0  0  0
   23.0742   72.4868   -6.3295 O   0  0  0  0  0  0  0  0  0  0  0  0
   20.6091   71.5417   -6.2396 O   0  0  0  0  0  0  0  0  0  0  0  0
   20.1534   71.9180   -7.5274 C   0  0  0  0  0  0  0  0  0  0  0  0
   18.8884   69.9127   -7.1373 O   0  0  0  0  0  0  0  0  0  0  0  0
   18.1232   70.0554  -10.0329 O   0  0  0  0  0  0  0  0  0  0  0  0
   15.9104   71.0454   -8.7839 O   0  0  0  0  0  0  0  0  0  0  0  0
   18.3203   71.1153   -9.0985 C   0  0  1  0  0  0  0  0  0  0  0  0
   17.1562   71.1878   -8.1324 C   0  0  2  0  0  0  0  0  0  0  0  0
   19.4715   70.7237   -8.1806 C   0  0  1  0  0  0  0  0  0  0  0  0
   17.4576   70.0359   -7.1889 C   0  0  2  0  0  0  0  0  0  0  0  0
   17.3928   70.2829  -10.6303 H   0  0  0  0  0  0  0  0  0  0  0  0
   15.7648   71.8025   -9.3725 H   0  0  0  0  0  0  0  0  0  0  0  0
   16.3252   68.0469   -5.5338 O   0  0  0  0  0  0  0  0  0  0  0  0
   15.5867   71.0512   -2.1176 O   0  0  0  0  0  0  0  0  0  0  0  0
   16.9616   70.2705   -5.8621 N   0  0  0  0  0  0  0  0  0  0  0  0
   15.9586   69.5444   -3.8341 N   0  0  0  0  0  0  0  0  0  0  0  0
   16.4111   69.2031   -5.1150 C   0  0  0  0  0  0  0  0  0  0  0  0
   17.0241   71.5473   -5.3147 C   0  0  0  0  0  0  0  0  0  0  0  0
   16.5870   71.8564   -4.0921 C   0  0  0  0  0  0  0  0  0  0  0  0
   15.9977   70.7987   -3.2460 C   0  0  0  0  0  0  0  0  0  0  0  0
   15.5708   68.8170   -3.2953 H   0  0  0  0  0  0  0  0  0  0  0  0
   21.9298   71.7410   -4.0896 O   0  0  0  0  0  0  0  0  0  0  0  0
   23.1025   71.8454   -2.9819 P   0  0  2  0  0  0  0  0  0  0  0  0
   23.6591   73.3526   -3.1719 O   0  0  0  0  0  0  0  0  0  0  0  0
   24.1526   70.7785   -3.0951 O   0  0  0  0  0  0  0  0  0  0  0  0
   22.3266   71.8728   -1.5669 O   0  0  0  0  0  0  0  0  0  0  0  0
   23.9995   72.4728    0.0009 O   0  0  0  0  0  0  0  0  0  0  0  0
   20.7615   72.2295    2.5517 O   0  0  0  0  0  0  0  0  0  0  0  0
   21.8425   74.8024    1.8741 O   0  0  0  0  0  0  0  0  0  0  0  0
   21.0434   70.3245    0.3905 O   0  0  0  0  0  0  0  0  0  0  0  0
   21.4318   72.5121    1.3204 C   0  0  1  0  0  0  0  0  0  0  0  0
   22.5020   73.5719    1.5893 C   0  0  1  0  0  0  0  0  0  0  0  0
   22.0678   71.2277    0.7920 C   0  0  2  0  0  0  0  0  0  0  0  0
   23.4370   73.7334    0.3831 C   0  0  1  0  0  0  0  0  0  0  0  0
   23.0167   71.5060   -0.3751 C   0  0  1  0  0  0  0  0  0  0  0  0
   20.3550   73.0408    2.8923 H   0  0  0  0  0  0  0  0  0  0  0  0
   21.2549   74.6867    2.6373 H   0  0  0  0  0  0  0  0  0  0  0  0
   20.4495   70.1562    1.1380 H   0  0  0  0  0  0  0  0  0  0  0  0
   25.0027   74.4712    2.0304 O   0  0  0  0  0  0  0  0  0  0  0  0
   24.6049   74.6695    0.6862 C   0  0  0  0  0  0  0  0  0  0  0  0
   25.7456   75.0602    2.2373 H   0  0  0  0  0  0  0  0  0  0  0  0
 25 28  1  0
 25 24  1  0
 25 26  1  6
 25 27  2  0
  1  4  1  0
  1 24  1  0
  1  2  1  1
  1  3  2  0
  6 11  1  0
  6 12  1  0
 29 36  1  0
 29 37  1  0
  9  7  1  6
  7 13  1  0
 10  8  1  6
  8 14  1  0
 37 28  1  6
  4  5  1  0
 33 30  1  1
 30 38  1  0
 34 31  1  6
 31 39  1  0
 35 32  1  6
 32 40  1  0
 41 42  1  0
 41 43  1  0
 15 19  2  0
 16 22  2  0
 12 17  1  1
 17 19  1  0
 17 20  1  0
 18 19  1  0
 18 22  1  0
 18 23  1  0
  9 10  1  0
  9 11  1  0
 10 12  1  0
 11  5  1  1
 33 34  1  0
 33 35  1  0
 34 36  1  0
 35 37  1  0
 36 42  1  1
 20 21  2  0
 21 22  1  0
M  CHG  2   2  -1  26  -1
M  END
>  <COMPND>  (470) 
    8629 

>  <AUTHOR>  (470) 
    GENERATED BY OPEN BABEL 3.1.1

>  <MASTER>  (470) 
        0    0    0    0    0    0    0    0   58    0   58    0

>  <minimizedAffinity>  (470) 
-8.14522

>  <CNNscore>  (470) 
0.8147384524

>  <CNNaffinity>  (470) 
4.5782155991

>  <CNN_VS>  (470) 
3.7300481796

>  <CNNaffinity_variance>  (470) 
0.1883605570

$$$$
471
     RDKit          3D

 43 45  0  0  0  0  0  0  0  0999 V2000
   23.1094   72.5583   -4.2014 P   0  0  2  0  0  0  0  0  0  0  0  0
   23.1888   72.6505   -5.8146 O   0  0  0  0  0  0  0  0  0  0  0  0
   23.9388   71.4691   -3.5872 O   0  0  0  0  0  0  0  0  0  0  0  0
   21.5223   72.4910   -3.8938 O   0  0  0  0  0  0  0  0  0  0  0  0
   20.9330   71.2248   -3.6545 C   0  0  0  0  0  0  0  0  0  0  0  0
   18.8186   71.8846   -4.5858 O   0  0  0  0  0  0  0  0  0  0  0  0
   17.5635   70.4559   -2.2675 O   0  0  0  0  0  0  0  0  0  0  0  0
   17.2810   68.6573   -4.2977 O   0  0  0  0  0  0  0  0  0  0  0  0
   18.7351   70.1182   -3.0083 C   0  0  1  0  0  0  0  0  0  0  0  0
   18.3573   69.5702   -4.3686 C   0  0  2  0  0  0  0  0  0  0  0  0
   19.4485   71.4138   -3.3743 C   0  0  1  0  0  0  0  0  0  0  0  0
   18.0014   70.8355   -5.1304 C   0  0  2  0  0  0  0  0  0  0  0  0
   17.0911   69.6444   -2.0222 H   0  0  0  0  0  0  0  0  0  0  0  0
   17.5571   67.8694   -3.8039 H   0  0  0  0  0  0  0  0  0  0  0  0
   16.1762   69.7943   -7.0178 O   0  0  0  0  0  0  0  0  0  0  0  0
   19.1252   70.4420  -10.4999 O   0  0  0  0  0  0  0  0  0  0  0  0
   18.2660   70.7208   -6.5369 N   0  0  0  0  0  0  0  0  0  0  0  0
   17.6460   70.1179   -8.7501 N   0  0  0  0  0  0  0  0  0  0  0  0
   17.2822   70.1830   -7.3990 C   0  0  0  0  0  0  0  0  0  0  0  0
   19.4896   71.1393   -7.0482 C   0  0  0  0  0  0  0  0  0  0  0  0
   19.8215   71.0692   -8.3390 C   0  0  0  0  0  0  0  0  0  0  0  0
   18.8499   70.5198   -9.3066 C   0  0  0  0  0  0  0  0  0  0  0  0
   16.9764   69.7463   -9.3694 H   0  0  0  0  0  0  0  0  0  0  0  0
   23.5074   74.0529   -3.7318 O   0  0  0  0  0  0  0  0  0  0  0  0
   23.2642   74.8265   -2.3335 P   0  0  2  0  0  0  0  0  0  0  0  0
   21.9437   75.7145   -2.6255 O   0  0  0  0  0  0  0  0  0  0  0  0
   24.4475   75.6157   -1.8529 O   0  0  0  0  0  0  0  0  0  0  0  0
   22.7664   73.6792   -1.3132 O   0  0  0  0  0  0  0  0  0  0  0  0
   23.2687   74.1834    0.9473 O   0  0  0  0  0  0  0  0  0  0  0  0
   22.1334   70.2378    1.3880 O   0  0  0  0  0  0  0  0  0  0  0  0
   20.3964   72.3258    2.3212 O   0  0  0  0  0  0  0  0  0  0  0  0
   23.6665   71.0490   -0.9296 O   0  0  0  0  0  0  0  0  0  0  0  0
   22.0908   71.5504    0.8217 C   0  0  1  0  0  0  0  0  0  0  0  0
   21.7509   72.5424    1.9358 C   0  0  1  0  0  0  0  0  0  0  0  0
   23.4525   71.8746    0.2101 C   0  0  2  0  0  0  0  0  0  0  0  0
   21.9481   73.9905    1.4673 C   0  0  1  0  0  0  0  0  0  0  0  0
   23.5610   73.3507   -0.1765 C   0  0  1  0  0  0  0  0  0  0  0  0
   21.2717   70.0255    1.7776 H   0  0  0  0  0  0  0  0  0  0  0  0
   20.2853   71.4077    2.6144 H   0  0  0  0  0  0  0  0  0  0  0  0
   23.5955   70.1172   -0.6716 H   0  0  0  0  0  0  0  0  0  0  0  0
   20.4088   74.9760    3.0062 O   0  0  0  0  0  0  0  0  0  0  0  0
   21.7671   74.9901    2.6075 C   0  0  0  0  0  0  0  0  0  0  0  0
   20.2788   75.6073    3.7316 H   0  0  0  0  0  0  0  0  0  0  0  0
 25 28  1  0
 25 24  1  0
 25 26  1  6
 25 27  2  0
  1  4  1  0
  1 24  1  0
  1  2  1  6
  1  3  2  0
  6 11  1  0
  6 12  1  0
 29 36  1  0
 29 37  1  0
  9  7  1  1
  7 13  1  0
 10  8  1  1
  8 14  1  0
 37 28  1  6
  4  5  1  0
 33 30  1  1
 30 38  1  0
 34 31  1  6
 31 39  1  0
 35 32  1  6
 32 40  1  0
 41 42  1  0
 41 43  1  0
 15 19  2  0
 16 22  2  0
 12 17  1  6
 17 19  1  0
 17 20  1  0
 18 19  1  0
 18 22  1  0
 18 23  1  0
  9 10  1  0
  9 11  1  0
 10 12  1  0
 11  5  1  6
 33 34  1  0
 33 35  1  0
 34 36  1  0
 35 37  1  0
 36 42  1  1
 20 21  2  0
 21 22  1  0
M  CHG  2   2  -1  26  -1
M  END
>  <COMPND>  (471) 
    8629 

>  <AUTHOR>  (471) 
    GENERATED BY OPEN BABEL 3.1.1

>  <MASTER>  (471) 
        0    0    0    0    0    0    0    0   58    0   58    0

>  <minimizedAffinity>  (471) 
-7.28366

>  <CNNscore>  (471) 
0.7819696665

>  <CNNaffinity>  (471) 
4.6449232101

>  <CNN_VS>  (471) 
3.6321890354

>  <CNNaffinity_variance>  (471) 
0.0405832715

$$$$
472
     RDKit          3D

 43 45  0  0  0  0  0  0  0  0999 V2000
   22.7753   72.3921   -3.6078 P   0  0  2  0  0  0  0  0  0  0  0  0
   22.4282   70.8763   -3.1616 O   0  0  0  0  0  0  0  0  0  0  0  0
   24.1091   72.5675   -4.2724 O   0  0  0  0  0  0  0  0  0  0  0  0
   22.5427   73.2566   -2.2600 O   0  0  0  0  0  0  0  0  0  0  0  0
   21.5271   74.2447   -2.2574 C   0  0  0  0  0  0  0  0  0  0  0  0
   20.8407   72.6057   -0.6399 O   0  0  0  0  0  0  0  0  0  0  0  0
   18.7803   74.6021    0.2318 O   0  0  0  0  0  0  0  0  0  0  0  0
   20.7150   74.8755    2.1341 O   0  0  0  0  0  0  0  0  0  0  0  0
   20.1150   74.8224   -0.2214 C   0  0  1  0  0  0  0  0  0  0  0  0
   21.1069   74.4273    0.8526 C   0  0  2  0  0  0  0  0  0  0  0  0
   20.4119   73.8069   -1.3177 C   0  0  1  0  0  0  0  0  0  0  0  0
   21.1084   72.9124    0.7382 C   0  0  2  0  0  0  0  0  0  0  0  0
   18.5675   75.2392    0.9323 H   0  0  0  0  0  0  0  0  0  0  0  0
   20.7300   75.8450    2.1564 H   0  0  0  0  0  0  0  0  0  0  0  0
   21.5582   70.1464    1.0918 O   0  0  0  0  0  0  0  0  0  0  0  0
   25.9919   70.8171    2.1565 O   0  0  0  0  0  0  0  0  0  0  0  0
   22.3707   72.3365    1.1074 N   0  0  0  0  0  0  0  0  0  0  0  0
   23.7655   70.4826    1.6214 N   0  0  0  0  0  0  0  0  0  0  0  0
   22.4902   70.9354    1.2601 C   0  0  0  0  0  0  0  0  0  0  0  0
   23.4735   73.1582    1.3136 C   0  0  0  0  0  0  0  0  0  0  0  0
   24.6825   72.7108    1.6591 C   0  0  0  0  0  0  0  0  0  0  0  0
   24.8922   71.2597    1.8390 C   0  0  0  0  0  0  0  0  0  0  0  0
   23.8724   69.5101    1.7339 H   0  0  0  0  0  0  0  0  0  0  0  0
   21.5080   72.8003   -4.5245 O   0  0  0  0  0  0  0  0  0  0  0  0
   21.3885   73.0602   -6.1155 P   0  0  2  0  0  0  0  0  0  0  0  0
   22.5845   72.1599   -6.7293 O   0  0  0  0  0  0  0  0  0  0  0  0
   21.4395   74.5083   -6.5080 O   0  0  0  0  0  0  0  0  0  0  0  0
   20.0365   72.2955   -6.5539 O   0  0  0  0  0  0  0  0  0  0  0  0
   19.2459   70.1147   -6.0685 O   0  0  0  0  0  0  0  0  0  0  0  0
   17.9955   70.4117   -9.9927 O   0  0  0  0  0  0  0  0  0  0  0  0
   16.0599   70.5347   -7.8746 O   0  0  0  0  0  0  0  0  0  0  0  0
   20.5488   71.5235   -9.2027 O   0  0  0  0  0  0  0  0  0  0  0  0
   18.2844   70.8929   -8.6773 C   0  0  1  0  0  0  0  0  0  0  0  0
   17.4111   70.1249   -7.6831 C   0  0  1  0  0  0  0  0  0  0  0  0
   19.7652   70.6681   -8.3775 C   0  0  2  0  0  0  0  0  0  0  0  0
   17.8509   70.3926   -6.2374 C   0  0  1  0  0  0  0  0  0  0  0  0
   20.0867   70.9144   -6.9024 C   0  0  1  0  0  0  0  0  0  0  0  0
   17.0568   70.5519  -10.1895 H   0  0  0  0  0  0  0  0  0  0  0  0
   15.7948   70.3607   -8.7914 H   0  0  0  0  0  0  0  0  0  0  0  0
   20.3363   71.3576  -10.1340 H   0  0  0  0  0  0  0  0  0  0  0  0
   15.8730   70.1513   -4.9189 O   0  0  0  0  0  0  0  0  0  0  0  0
   17.0974   69.5167   -5.2389 C   0  0  0  0  0  0  0  0  0  0  0  0
   15.3825   69.6049   -4.2844 H   0  0  0  0  0  0  0  0  0  0  0  0
 25 28  1  0
 25 24  1  0
 25 26  1  6
 25 27  2  0
  1  4  1  0
  1 24  1  0
  1  2  1  1
  1  3  2  0
  6 11  1  0
  6 12  1  0
 29 36  1  0
 29 37  1  0
  9  7  1  1
  7 13  1  0
 10  8  1  1
  8 14  1  0
 37 28  1  1
  4  5  1  0
 33 30  1  6
 30 38  1  0
 34 31  1  1
 31 39  1  0
 35 32  1  6
 32 40  1  0
 41 42  1  0
 41 43  1  0
 15 19  2  0
 16 22  2  0
 12 17  1  6
 17 19  1  0
 17 20  1  0
 18 19  1  0
 18 22  1  0
 18 23  1  0
  9 10  1  0
  9 11  1  0
 10 12  1  0
 11  5  1  6
 33 34  1  0
 33 35  1  0
 34 36  1  0
 35 37  1  0
 36 42  1  1
 20 21  2  0
 21 22  1  0
M  CHG  2   2  -1  26  -1
M  END
>  <COMPND>  (472) 
    8629 

>  <AUTHOR>  (472) 
    GENERATED BY OPEN BABEL 3.1.1

>  <MASTER>  (472) 
        0    0    0    0    0    0    0    0   58    0   58    0

>  <minimizedAffinity>  (472) 
-7.72127

>  <CNNscore>  (472) 
0.7166864276

>  <CNNaffinity>  (472) 
4.5810799599

>  <CNN_VS>  (472) 
3.2831978798

>  <CNNaffinity_variance>  (472) 
0.1491898596

$$$$
473
     RDKit          3D

 43 45  0  0  0  0  0  0  0  0999 V2000
   21.4986   72.5110   -5.5093 P   0  0  2  0  0  0  0  0  0  0  0  0
   20.7990   73.9246   -5.8696 O   0  0  0  0  0  0  0  0  0  0  0  0
   22.9887   72.4791   -5.6821 O   0  0  0  0  0  0  0  0  0  0  0  0
   20.6667   71.4322   -6.3823 O   0  0  0  0  0  0  0  0  0  0  0  0
   20.2313   71.8031   -7.6787 C   0  0  0  0  0  0  0  0  0  0  0  0
   18.9209   69.8359   -7.2466 O   0  0  0  0  0  0  0  0  0  0  0  0
   18.0683   70.0011  -10.1165 O   0  0  0  0  0  0  0  0  0  0  0  0
   15.9266   71.0559   -8.7985 O   0  0  0  0  0  0  0  0  0  0  0  0
   18.3262   71.0548   -9.1899 C   0  0  1  0  0  0  0  0  0  0  0  0
   17.1962   71.1615   -8.1872 C   0  0  2  0  0  0  0  0  0  0  0  0
   19.4941   70.6293   -8.3088 C   0  0  1  0  0  0  0  0  0  0  0  0
   17.4935   70.0012   -7.2527 C   0  0  2  0  0  0  0  0  0  0  0  0
   17.3263   70.2500  -10.6905 H   0  0  0  0  0  0  0  0  0  0  0  0
   15.7846   71.8169   -9.3829 H   0  0  0  0  0  0  0  0  0  0  0  0
   16.2131   68.0882   -5.6159 O   0  0  0  0  0  0  0  0  0  0  0  0
   15.8233   71.0691   -2.1225 O   0  0  0  0  0  0  0  0  0  0  0  0
   17.0471   70.2503   -5.9111 N   0  0  0  0  0  0  0  0  0  0  0  0
   16.0202   69.5740   -3.8777 N   0  0  0  0  0  0  0  0  0  0  0  0
   16.4143   69.2217   -5.1749 C   0  0  0  0  0  0  0  0  0  0  0  0
   17.2386   71.5030   -5.3384 C   0  0  0  0  0  0  0  0  0  0  0  0
   16.8558   71.8233   -4.1006 C   0  0  0  0  0  0  0  0  0  0  0  0
   16.1872   70.8055   -3.2644 C   0  0  0  0  0  0  0  0  0  0  0  0
   15.5769   68.8734   -3.3462 H   0  0  0  0  0  0  0  0  0  0  0  0
   20.9901   72.2277   -4.0013 O   0  0  0  0  0  0  0  0  0  0  0  0
   20.9102   70.8572   -3.1478 P   0  0  2  0  0  0  0  0  0  0  0  0
   22.4099   70.2612   -3.2618 O   0  0  0  0  0  0  0  0  0  0  0  0
   19.8329   69.9137   -3.5983 O   0  0  0  0  0  0  0  0  0  0  0  0
   20.7786   71.3389   -1.6130 O   0  0  0  0  0  0  0  0  0  0  0  0
   20.6775   73.4762   -0.5940 O   0  0  0  0  0  0  0  0  0  0  0  0
   23.1453   71.5707    2.1133 O   0  0  0  0  0  0  0  0  0  0  0  0
   20.4320   72.1659    2.8428 O   0  0  0  0  0  0  0  0  0  0  0  0
   23.4207   71.0339   -0.7179 O   0  0  0  0  0  0  0  0  0  0  0  0
   22.0715   71.6686    1.1737 C   0  0  1  0  0  0  0  0  0  0  0  0
   21.0743   72.7069    1.6916 C   0  0  1  0  0  0  0  0  0  0  0  0
   22.6322   72.0915   -0.1828 C   0  0  2  0  0  0  0  0  0  0  0  0
   20.0366   73.0620    0.6182 C   0  0  1  0  0  0  0  0  0  0  0  0
   21.5188   72.4699   -1.1611 C   0  0  1  0  0  0  0  0  0  0  0  0
   22.7960   71.3020    2.9767 H   0  0  0  0  0  0  0  0  0  0  0  0
   21.0983   71.9455    3.5126 H   0  0  0  0  0  0  0  0  0  0  0  0
   24.1221   70.8038   -0.0894 H   0  0  0  0  0  0  0  0  0  0  0  0
   19.6404   74.7512    2.2609 O   0  0  0  0  0  0  0  0  0  0  0  0
   19.1290   74.2089    1.0573 C   0  0  0  0  0  0  0  0  0  0  0  0
   19.0729   75.4825    2.5522 H   0  0  0  0  0  0  0  0  0  0  0  0
 25 28  1  0
 25 24  1  0
 25 26  1  1
 25 27  2  0
  1  4  1  0
  1 24  1  0
  1  2  1  6
  1  3  2  0
  6 11  1  0
  6 12  1  0
 29 36  1  0
 29 37  1  0
  9  7  1  6
  7 13  1  0
 10  8  1  6
  8 14  1  0
 37 28  1  1
  4  5  1  0
 33 30  1  1
 30 38  1  0
 34 31  1  1
 31 39  1  0
 35 32  1  6
 32 40  1  0
 41 42  1  0
 41 43  1  0
 15 19  2  0
 16 22  2  0
 12 17  1  1
 17 19  1  0
 17 20  1  0
 18 19  1  0
 18 22  1  0
 18 23  1  0
  9 10  1  0
  9 11  1  0
 10 12  1  0
 11  5  1  1
 33 34  1  0
 33 35  1  0
 34 36  1  0
 35 37  1  0
 36 42  1  1
 20 21  2  0
 21 22  1  0
M  CHG  2   2  -1  26  -1
M  END
>  <COMPND>  (473) 
    8629 

>  <AUTHOR>  (473) 
    GENERATED BY OPEN BABEL 3.1.1

>  <MASTER>  (473) 
        0    0    0    0    0    0    0    0   58    0   58    0

>  <minimizedAffinity>  (473) 
-7.20542

>  <CNNscore>  (473) 
0.6415891647

>  <CNNaffinity>  (473) 
4.4737648964

>  <CNN_VS>  (473) 
2.8703191280

>  <CNNaffinity_variance>  (473) 
0.2006456554

$$$$
474
     RDKit          3D

 43 45  0  0  0  0  0  0  0  0999 V2000
   22.5219   71.3910   -2.8321 P   0  0  2  0  0  0  0  0  0  0  0  0
   24.0721   70.9803   -3.0457 O   0  0  0  0  0  0  0  0  0  0  0  0
   21.8779   70.8179   -1.6039 O   0  0  0  0  0  0  0  0  0  0  0  0
   21.8205   71.0052   -4.2382 O   0  0  0  0  0  0  0  0  0  0  0  0
   21.6288   72.0271   -5.2009 C   0  0  0  0  0  0  0  0  0  0  0  0
   20.3895   70.2642   -6.2639 O   0  0  0  0  0  0  0  0  0  0  0  0
   20.6289   71.8700   -8.7848 O   0  0  0  0  0  0  0  0  0  0  0  0
   18.0876   72.4246   -7.9658 O   0  0  0  0  0  0  0  0  0  0  0  0
   20.4593   72.3195   -7.4414 C   0  0  1  0  0  0  0  0  0  0  0  0
   19.0378   72.0742   -6.9804 C   0  0  2  0  0  0  0  0  0  0  0  0
   21.2535   71.3902   -6.5319 C   0  0  1  0  0  0  0  0  0  0  0  0
   19.0542   70.5835   -6.6879 C   0  0  2  0  0  0  0  0  0  0  0  0
   20.1310   72.4484   -9.3843 H   0  0  0  0  0  0  0  0  0  0  0  0
   18.1157   73.3824   -8.1162 H   0  0  0  0  0  0  0  0  0  0  0  0
   16.3518   69.8835   -7.1185 O   0  0  0  0  0  0  0  0  0  0  0  0
   15.6198   69.2059   -2.6190 O   0  0  0  0  0  0  0  0  0  0  0  0
   18.1348   70.2194   -5.6470 N   0  0  0  0  0  0  0  0  0  0  0  0
   15.9896   69.5465   -4.8778 N   0  0  0  0  0  0  0  0  0  0  0  0
   16.7986   69.8860   -5.9696 C   0  0  0  0  0  0  0  0  0  0  0  0
   18.5607   70.1952   -4.3234 C   0  0  0  0  0  0  0  0  0  0  0  0
   17.7763   69.8705   -3.2936 C   0  0  0  0  0  0  0  0  0  0  0  0
   16.3662   69.5091   -3.5446 C   0  0  0  0  0  0  0  0  0  0  0  0
   15.0547   69.3110   -5.0784 H   0  0  0  0  0  0  0  0  0  0  0  0
   22.5641   73.0062   -2.8782 O   0  0  0  0  0  0  0  0  0  0  0  0
   23.7965   74.0408   -2.7236 P   0  0  2  0  0  0  0  0  0  0  0  0
   23.0740   75.4877   -2.7673 O   0  0  0  0  0  0  0  0  0  0  0  0
   24.8832   73.8602   -3.7436 O   0  0  0  0  0  0  0  0  0  0  0  0
   24.2811   73.8731   -1.1932 O   0  0  0  0  0  0  0  0  0  0  0  0
   22.7756   73.4383    0.5847 O   0  0  0  0  0  0  0  0  0  0  0  0
   25.8131   75.2461    2.7193 O   0  0  0  0  0  0  0  0  0  0  0  0
   25.3987   72.4148    2.9639 O   0  0  0  0  0  0  0  0  0  0  0  0
   25.1169   76.2268    0.0862 O   0  0  0  0  0  0  0  0  0  0  0  0
   25.2529   74.4314    1.6860 C   0  0  1  0  0  0  0  0  0  0  0  0
   24.4663   73.2960    2.3440 C   0  0  1  0  0  0  0  0  0  0  0  0
   24.3345   75.2886    0.8171 C   0  0  2  0  0  0  0  0  0  0  0  0
   23.6195   72.5383    1.3125 C   0  0  1  0  0  0  0  0  0  0  0  0
   23.5018   74.4333   -0.1395 C   0  0  1  0  0  0  0  0  0  0  0  0
   26.3976   74.7080    3.2744 H   0  0  0  0  0  0  0  0  0  0  0  0
   25.9273   72.9057    3.6126 H   0  0  0  0  0  0  0  0  0  0  0  0
   25.6390   76.7622    0.7030 H   0  0  0  0  0  0  0  0  0  0  0  0
   21.6106   71.2611    1.1084 O   0  0  0  0  0  0  0  0  0  0  0  0
   22.7076   71.5045    1.9695 C   0  0  0  0  0  0  0  0  0  0  0  0
   21.0217   70.6047    1.5135 H   0  0  0  0  0  0  0  0  0  0  0  0
 25 28  1  0
 25 24  1  0
 25 26  1  1
 25 27  2  0
  1  4  1  0
  1 24  1  0
  1  2  1  6
  1  3  2  0
  6 11  1  0
  6 12  1  0
 29 36  1  0
 29 37  1  0
  9  7  1  6
  7 13  1  0
 10  8  1  6
  8 14  1  0
 37 28  1  6
  4  5  1  0
 33 30  1  1
 30 38  1  0
 34 31  1  6
 31 39  1  0
 35 32  1  6
 32 40  1  0
 41 42  1  0
 41 43  1  0
 15 19  2  0
 16 22  2  0
 12 17  1  1
 17 19  1  0
 17 20  1  0
 18 19  1  0
 18 22  1  0
 18 23  1  0
  9 10  1  0
  9 11  1  0
 10 12  1  0
 11  5  1  1
 33 34  1  0
 33 35  1  0
 34 36  1  0
 35 37  1  0
 36 42  1  1
 20 21  2  0
 21 22  1  0
M  CHG  2   2  -1  26  -1
M  END
>  <COMPND>  (474) 
    8629 

>  <AUTHOR>  (474) 
    GENERATED BY OPEN BABEL 3.1.1

>  <MASTER>  (474) 
        0    0    0    0    0    0    0    0   58    0   58    0

>  <minimizedAffinity>  (474) 
-6.68254

>  <CNNscore>  (474) 
0.6115325689

>  <CNNaffinity>  (474) 
4.2271413803

>  <CNN_VS>  (474) 
2.5850346088

>  <CNNaffinity_variance>  (474) 
0.1341040134

$$$$
475
     RDKit          3D

 43 45  0  0  0  0  0  0  0  0999 V2000
   22.1883   71.5201   -2.5327 P   0  0  2  0  0  0  0  0  0  0  0  0
   23.7866   71.3653   -2.7298 O   0  0  0  0  0  0  0  0  0  0  0  0
   21.6152   70.7539   -1.3769 O   0  0  0  0  0  0  0  0  0  0  0  0
   21.5805   71.1564   -3.9873 O   0  0  0  0  0  0  0  0  0  0  0  0
   21.6011   72.1508   -4.9966 C   0  0  0  0  0  0  0  0  0  0  0  0
   20.4469   70.3577   -6.1042 O   0  0  0  0  0  0  0  0  0  0  0  0
   20.7645   71.9574   -8.6203 O   0  0  0  0  0  0  0  0  0  0  0  0
   18.1784   72.4622   -7.9174 O   0  0  0  0  0  0  0  0  0  0  0  0
   20.5263   72.4090   -7.2881 C   0  0  1  0  0  0  0  0  0  0  0  0
   19.0911   72.1360   -6.8891 C   0  0  2  0  0  0  0  0  0  0  0  0
   21.2984   71.5005   -6.3396 C   0  0  1  0  0  0  0  0  0  0  0  0
   19.1254   70.6472   -6.5885 C   0  0  2  0  0  0  0  0  0  0  0  0
   20.2818   72.5227   -9.2443 H   0  0  0  0  0  0  0  0  0  0  0  0
   18.1933   73.4197   -8.0715 H   0  0  0  0  0  0  0  0  0  0  0  0
   16.4623   69.8809   -7.1352 O   0  0  0  0  0  0  0  0  0  0  0  0
   15.5432   69.2159   -2.6682 O   0  0  0  0  0  0  0  0  0  0  0  0
   18.1685   70.2684   -5.5873 N   0  0  0  0  0  0  0  0  0  0  0  0
   16.0069   69.5502   -4.9105 N   0  0  0  0  0  0  0  0  0  0  0  0
   16.8565   69.9015   -5.9673 C   0  0  0  0  0  0  0  0  0  0  0  0
   18.5346   70.2629   -4.2457 C   0  0  0  0  0  0  0  0  0  0  0  0
   17.7121   69.9266   -3.2499 C   0  0  0  0  0  0  0  0  0  0  0  0
   16.3236   69.5304   -3.5615 C   0  0  0  0  0  0  0  0  0  0  0  0
   15.0878   69.2914   -5.1513 H   0  0  0  0  0  0  0  0  0  0  0  0
   21.9864   73.1215   -2.4445 O   0  0  0  0  0  0  0  0  0  0  0  0
   22.6442   74.2218   -1.4599 P   0  0  2  0  0  0  0  0  0  0  0  0
   21.4339   75.2655   -1.2085 O   0  0  0  0  0  0  0  0  0  0  0  0
   23.9018   74.8479   -1.9896 O   0  0  0  0  0  0  0  0  0  0  0  0
   22.8209   73.4552   -0.0506 O   0  0  0  0  0  0  0  0  0  0  0  0
   24.1574   74.4492    1.6353 O   0  0  0  0  0  0  0  0  0  0  0  0
   24.1887   70.5465    2.9839 O   0  0  0  0  0  0  0  0  0  0  0  0
   22.6537   72.5218    4.3944 O   0  0  0  0  0  0  0  0  0  0  0  0
   24.3251   71.0942    0.1447 O   0  0  0  0  0  0  0  0  0  0  0  0
   23.6257   71.7072    2.3665 C   0  0  1  0  0  0  0  0  0  0  0  0
   23.6172   72.8405    3.3943 C   0  0  1  0  0  0  0  0  0  0  0  0
   24.4725   72.0878    1.1535 C   0  0  2  0  0  0  0  0  0  0  0  0
   23.2782   74.1840    2.7346 C   0  0  1  0  0  0  0  0  0  0  0  0
   24.0868   73.4624    0.6042 C   0  0  1  0  0  0  0  0  0  0  0  0
   23.6554   70.2992    3.7546 H   0  0  0  0  0  0  0  0  0  0  0  0
   22.8790   71.6711    4.8028 H   0  0  0  0  0  0  0  0  0  0  0  0
   24.5726   70.2288    0.5047 H   0  0  0  0  0  0  0  0  0  0  0  0
   22.5068   76.3658    3.3294 O   0  0  0  0  0  0  0  0  0  0  0  0
   23.4182   75.3513    3.7093 C   0  0  0  0  0  0  0  0  0  0  0  0
   22.5845   77.1151    3.9411 H   0  0  0  0  0  0  0  0  0  0  0  0
 25 28  1  0
 25 24  1  0
 25 26  1  1
 25 27  2  0
  1  4  1  0
  1 24  1  0
  1  2  1  6
  1  3  2  0
  6 11  1  0
  6 12  1  0
 29 36  1  0
 29 37  1  0
  9  7  1  6
  7 13  1  0
 10  8  1  6
  8 14  1  0
 37 28  1  1
  4  5  1  0
 33 30  1  1
 30 38  1  0
 34 31  1  1
 31 39  1  0
 35 32  1  6
 32 40  1  0
 41 42  1  0
 41 43  1  0
 15 19  2  0
 16 22  2  0
 12 17  1  1
 17 19  1  0
 17 20  1  0
 18 19  1  0
 18 22  1  0
 18 23  1  0
  9 10  1  0
  9 11  1  0
 10 12  1  0
 11  5  1  1
 33 34  1  0
 33 35  1  0
 34 36  1  0
 35 37  1  0
 36 42  1  1
 20 21  2  0
 21 22  1  0
M  CHG  2   2  -1  26  -1
M  END
>  <COMPND>  (475) 
    8629 

>  <AUTHOR>  (475) 
    GENERATED BY OPEN BABEL 3.1.1

>  <MASTER>  (475) 
        0    0    0    0    0    0    0    0   58    0   58    0

>  <minimizedAffinity>  (475) 
-6.51732

>  <CNNscore>  (475) 
0.5883031487

>  <CNNaffinity>  (475) 
4.2425680161

>  <CNN_VS>  (475) 
2.4959161282

>  <CNNaffinity_variance>  (475) 
0.0695975944

$$$$
476
     RDKit          3D

 43 45  0  0  0  0  0  0  0  0999 V2000
   15.5522   71.5599   -1.8885 P   0  0  2  0  0  0  0  0  0  0  0  0
   16.2182   72.7204   -0.9792 O   0  0  0  0  0  0  0  0  0  0  0  0
   14.4162   72.0105   -2.7591 O   0  0  0  0  0  0  0  0  0  0  0  0
   15.2032   70.3882   -0.8286 O   0  0  0  0  0  0  0  0  0  0  0  0
   13.8910   70.3258   -0.2976 C   0  0  0  0  0  0  0  0  0  0  0  0
   13.5051   68.0153    0.2377 O   0  0  0  0  0  0  0  0  0  0  0  0
   11.2666   68.1215   -1.7544 O   0  0  0  0  0  0  0  0  0  0  0  0
    9.9537   68.3293    0.6267 O   0  0  0  0  0  0  0  0  0  0  0  0
   11.7153   69.1268   -0.8470 C   0  0  1  0  0  0  0  0  0  0  0  0
   11.2888   68.7879    0.5661 C   0  0  2  0  0  0  0  0  0  0  0  0
   13.2329   69.0305   -0.7530 C   0  0  1  0  0  0  0  0  0  0  0  0
   12.2936   67.7148    0.9496 C   0  0  2  0  0  0  0  0  0  0  0  0
   10.3000   68.1635   -1.8311 H   0  0  0  0  0  0  0  0  0  0  0  0
    9.3530   69.0477    0.3741 H   0  0  0  0  0  0  0  0  0  0  0  0
   13.1203   65.4325    2.3937 O   0  0  0  0  0  0  0  0  0  0  0  0
   13.3285   67.7860    6.3508 O   0  0  0  0  0  0  0  0  0  0  0  0
   12.5712   67.7028    2.3582 N   0  0  0  0  0  0  0  0  0  0  0  0
   13.2235   66.6063    4.3629 N   0  0  0  0  0  0  0  0  0  0  0  0
   12.9792   66.5036    2.9874 C   0  0  0  0  0  0  0  0  0  0  0  0
   12.4384   68.8711    3.1007 C   0  0  0  0  0  0  0  0  0  0  0  0
   12.6739   68.9520    4.4119 C   0  0  0  0  0  0  0  0  0  0  0  0
   13.1043   67.7441    5.1451 C   0  0  0  0  0  0  0  0  0  0  0  0
   13.5085   65.7833    4.8225 H   0  0  0  0  0  0  0  0  0  0  0  0
   16.8180   70.9569   -2.6929 O   0  0  0  0  0  0  0  0  0  0  0  0
   17.0472   69.5135   -3.3835 P   0  0  2  0  0  0  0  0  0  0  0  0
   15.5544   69.0716   -3.8237 O   0  0  0  0  0  0  0  0  0  0  0  0
   17.7552   68.5188   -2.5099 O   0  0  0  0  0  0  0  0  0  0  0  0
   17.8018   69.8403   -4.7724 O   0  0  0  0  0  0  0  0  0  0  0  0
   18.6733   71.8717   -5.6271 O   0  0  0  0  0  0  0  0  0  0  0  0
   17.2038   70.2575   -9.1322 O   0  0  0  0  0  0  0  0  0  0  0  0
   20.0406   70.3518   -8.6946 O   0  0  0  0  0  0  0  0  0  0  0  0
   15.7295   69.9306   -6.6626 O   0  0  0  0  0  0  0  0  0  0  0  0
   17.8110   70.2269   -7.8377 C   0  0  1  0  0  0  0  0  0  0  0  0
   19.0966   71.0546   -7.8914 C   0  0  1  0  0  0  0  0  0  0  0  0
   16.8376   70.8111   -6.8158 C   0  0  2  0  0  0  0  0  0  0  0  0
   19.6626   71.2905   -6.4846 C   0  0  1  0  0  0  0  0  0  0  0  0
   17.5140   71.0522   -5.4651 C   0  0  1  0  0  0  0  0  0  0  0  0
   17.8165   69.8874   -9.7857 H   0  0  0  0  0  0  0  0  0  0  0  0
   19.6707   70.2089   -9.5800 H   0  0  0  0  0  0  0  0  0  0  0  0
   15.3098   69.7863   -7.5244 H   0  0  0  0  0  0  0  0  0  0  0  0
   20.8886   72.9011   -7.7542 O   0  0  0  0  0  0  0  0  0  0  0  0
   20.8551   72.2445   -6.5004 C   0  0  0  0  0  0  0  0  0  0  0  0
   21.6424   73.5118   -7.7787 H   0  0  0  0  0  0  0  0  0  0  0  0
 25 28  1  0
 25 24  1  0
 25 26  1  6
 25 27  2  0
  1  4  1  0
  1 24  1  0
  1  2  1  1
  1  3  2  0
  6 11  1  0
  6 12  1  0
 29 36  1  0
 29 37  1  0
  9  7  1  6
  7 13  1  0
 10  8  1  6
  8 14  1  0
 37 28  1  6
  4  5  1  0
 33 30  1  6
 30 38  1  0
 34 31  1  6
 31 39  1  0
 35 32  1  1
 32 40  1  0
 41 42  1  0
 41 43  1  0
 15 19  2  0
 16 22  2  0
 12 17  1  1
 17 19  1  0
 17 20  1  0
 18 19  1  0
 18 22  1  0
 18 23  1  0
  9 10  1  0
  9 11  1  0
 10 12  1  0
 11  5  1  1
 33 34  1  0
 33 35  1  0
 34 36  1  0
 35 37  1  0
 36 42  1  6
 20 21  2  0
 21 22  1  0
M  CHG  2   2  -1  26  -1
M  END
>  <COMPND>  (476) 
    8629 

>  <AUTHOR>  (476) 
    GENERATED BY OPEN BABEL 3.1.1

>  <MASTER>  (476) 
        0    0    0    0    0    0    0    0   58    0   58    0

>  <minimizedAffinity>  (476) 
-6.61123

>  <CNNscore>  (476) 
0.5653995872

>  <CNNaffinity>  (476) 
4.1578965187

>  <CNN_VS>  (476) 
2.3508729935

>  <CNNaffinity_variance>  (476) 
0.1707630605

$$$$
477
     RDKit          3D

 43 45  0  0  0  0  0  0  0  0999 V2000
   23.4179   72.2360   -3.5663 P   0  0  2  0  0  0  0  0  0  0  0  0
   23.9561   70.7471   -3.2334 O   0  0  0  0  0  0  0  0  0  0  0  0
   24.4698   73.2021   -4.0262 O   0  0  0  0  0  0  0  0  0  0  0  0
   22.6066   72.6628   -2.2331 O   0  0  0  0  0  0  0  0  0  0  0  0
   23.3220   72.7840   -1.0160 C   0  0  0  0  0  0  0  0  0  0  0  0
   24.3724   71.2889    0.5445 O   0  0  0  0  0  0  0  0  0  0  0  0
   21.6232   70.2203    1.0840 O   0  0  0  0  0  0  0  0  0  0  0  0
   22.0479   71.8705    3.2131 O   0  0  0  0  0  0  0  0  0  0  0  0
   22.0320   71.5577    0.8020 C   0  0  1  0  0  0  0  0  0  0  0  0
   22.7237   72.1611    2.0066 C   0  0  2  0  0  0  0  0  0  0  0  0
   23.1630   71.4977   -0.2172 C   0  0  1  0  0  0  0  0  0  0  0  0
   24.0978   71.5169    1.9364 C   0  0  2  0  0  0  0  0  0  0  0  0
   20.9013   70.2330    1.7325 H   0  0  0  0  0  0  0  0  0  0  0  0
   21.1795   72.3024    3.2096 H   0  0  0  0  0  0  0  0  0  0  0  0
   26.7474   70.6772    2.4388 O   0  0  0  0  0  0  0  0  0  0  0  0
   27.9548   74.8286    4.0355 O   0  0  0  0  0  0  0  0  0  0  0  0
   25.1254   72.3577    2.4827 N   0  0  0  0  0  0  0  0  0  0  0  0
   27.3465   72.7450    3.2332 N   0  0  0  0  0  0  0  0  0  0  0  0
   26.4233   71.8381    2.6973 C   0  0  0  0  0  0  0  0  0  0  0  0
   24.8419   73.6818    2.7994 C   0  0  0  0  0  0  0  0  0  0  0  0
   25.7332   74.5333    3.3110 C   0  0  0  0  0  0  0  0  0  0  0  0
   27.1125   74.0699    3.5657 C   0  0  0  0  0  0  0  0  0  0  0  0
   28.2571   72.4051    3.3916 H   0  0  0  0  0  0  0  0  0  0  0  0
   22.2386   71.9650   -4.6381 O   0  0  0  0  0  0  0  0  0  0  0  0
   21.5475   72.9411   -5.7255 P   0  0  2  0  0  0  0  0  0  0  0  0
   22.4406   72.7076   -7.0542 O   0  0  0  0  0  0  0  0  0  0  0  0
   21.4480   74.3745   -5.2903 O   0  0  0  0  0  0  0  0  0  0  0  0
   20.1308   72.2434   -6.0588 O   0  0  0  0  0  0  0  0  0  0  0  0
   19.3567   70.0654   -5.5359 O   0  0  0  0  0  0  0  0  0  0  0  0
   17.5710   70.5311   -9.2298 O   0  0  0  0  0  0  0  0  0  0  0  0
   15.9596   70.6228   -6.8542 O   0  0  0  0  0  0  0  0  0  0  0  0
   20.2404   71.5550   -8.7771 O   0  0  0  0  0  0  0  0  0  0  0  0
   18.0568   70.9583   -7.9543 C   0  0  1  0  0  0  0  0  0  0  0  0
   17.3124   70.1755   -6.8709 C   0  0  1  0  0  0  0  0  0  0  0  0
   19.5584   70.6890   -7.8764 C   0  0  2  0  0  0  0  0  0  0  0  0
   17.9601   70.3812   -5.4949 C   0  0  1  0  0  0  0  0  0  0  0  0
   20.0926   70.8749   -6.4551 C   0  0  1  0  0  0  0  0  0  0  0  0
   16.6181   70.6998   -9.2860 H   0  0  0  0  0  0  0  0  0  0  0  0
   15.5624   70.4878   -7.7290 H   0  0  0  0  0  0  0  0  0  0  0  0
   19.8935   71.4275   -9.6733 H   0  0  0  0  0  0  0  0  0  0  0  0
   16.5324   68.5126   -5.0716 O   0  0  0  0  0  0  0  0  0  0  0  0
   17.3319   69.4876   -4.4277 C   0  0  0  0  0  0  0  0  0  0  0  0
   16.1263   67.9365   -4.4046 H   0  0  0  0  0  0  0  0  0  0  0  0
 25 28  1  0
 25 24  1  0
 25 26  1  6
 25 27  2  0
  1  4  1  0
  1 24  1  0
  1  2  1  1
  1  3  2  0
  6 11  1  0
  6 12  1  0
 29 36  1  0
 29 37  1  0
  9  7  1  1
  7 13  1  0
 10  8  1  1
  8 14  1  0
 37 28  1  1
  4  5  1  0
 33 30  1  6
 30 38  1  0
 34 31  1  1
 31 39  1  0
 35 32  1  6
 32 40  1  0
 41 42  1  0
 41 43  1  0
 15 19  2  0
 16 22  2  0
 12 17  1  6
 17 19  1  0
 17 20  1  0
 18 19  1  0
 18 22  1  0
 18 23  1  0
  9 10  1  0
  9 11  1  0
 10 12  1  0
 11  5  1  1
 33 34  1  0
 33 35  1  0
 34 36  1  0
 35 37  1  0
 36 42  1  1
 20 21  2  0
 21 22  1  0
M  CHG  2   2  -1  26  -1
M  END
>  <COMPND>  (477) 
    8629 

>  <AUTHOR>  (477) 
    GENERATED BY OPEN BABEL 3.1.1

>  <MASTER>  (477) 
        0    0    0    0    0    0    0    0   58    0   58    0

>  <minimizedAffinity>  (477) 
-8.14040

>  <CNNscore>  (477) 
0.5105101466

>  <CNNaffinity>  (477) 
4.2527303696

>  <CNN_VS>  (477) 
2.1710619926

>  <CNNaffinity_variance>  (477) 
0.1618947536

$$$$
478
     RDKit          3D

 43 45  0  0  0  0  0  0  0  0999 V2000
   21.7728   72.4116   -5.7725 P   0  0  2  0  0  0  0  0  0  0  0  0
   20.9555   73.7968   -5.5979 O   0  0  0  0  0  0  0  0  0  0  0  0
   23.0777   72.5333   -6.5030 O   0  0  0  0  0  0  0  0  0  0  0  0
   20.6915   71.4027   -6.4289 O   0  0  0  0  0  0  0  0  0  0  0  0
   19.9996   71.8179   -7.5938 C   0  0  0  0  0  0  0  0  0  0  0  0
   18.6730   69.8669   -7.1382 O   0  0  0  0  0  0  0  0  0  0  0  0
   17.9536   69.9060  -10.0488 O   0  0  0  0  0  0  0  0  0  0  0  0
   15.7521   71.0096   -8.8775 O   0  0  0  0  0  0  0  0  0  0  0  0
   18.1672   70.9993   -9.1575 C   0  0  1  0  0  0  0  0  0  0  0  0
   16.9920   71.1454   -8.2135 C   0  0  2  0  0  0  0  0  0  0  0  0
   19.2937   70.6158   -8.2060 C   0  0  1  0  0  0  0  0  0  0  0  0
   17.2472   70.0272   -7.2172 C   0  0  2  0  0  0  0  0  0  0  0  0
   17.2386   70.1277  -10.6665 H   0  0  0  0  0  0  0  0  0  0  0  0
   15.6363   71.7443   -9.5000 H   0  0  0  0  0  0  0  0  0  0  0  0
   16.5874   68.0906   -5.2698 O   0  0  0  0  0  0  0  0  0  0  0  0
   15.3048   71.3133   -2.2350 O   0  0  0  0  0  0  0  0  0  0  0  0
   16.7391   70.3323   -5.9094 N   0  0  0  0  0  0  0  0  0  0  0  0
   15.9495   69.6969   -3.7602 N   0  0  0  0  0  0  0  0  0  0  0  0
   16.4383   69.2857   -5.0068 C   0  0  0  0  0  0  0  0  0  0  0  0
   16.5443   71.6568   -5.5333 C   0  0  0  0  0  0  0  0  0  0  0  0
   16.0762   72.0321   -4.3411 C   0  0  0  0  0  0  0  0  0  0  0  0
   15.7373   71.0003   -3.3399 C   0  0  0  0  0  0  0  0  0  0  0  0
   15.7327   68.9850   -3.1152 H   0  0  0  0  0  0  0  0  0  0  0  0
   21.8996   71.8706   -4.2545 O   0  0  0  0  0  0  0  0  0  0  0  0
   20.8067   71.1951   -3.2735 P   0  0  2  0  0  0  0  0  0  0  0  0
   20.9459   69.6156   -3.5947 O   0  0  0  0  0  0  0  0  0  0  0  0
   19.4167   71.7394   -3.4334 O   0  0  0  0  0  0  0  0  0  0  0  0
   21.4258   71.3662   -1.7929 O   0  0  0  0  0  0  0  0  0  0  0  0
   21.0533   71.9578    0.4716 O   0  0  0  0  0  0  0  0  0  0  0  0
   23.1814   75.2834   -0.7378 O   0  0  0  0  0  0  0  0  0  0  0  0
   24.4275   73.3513    0.9833 O   0  0  0  0  0  0  0  0  0  0  0  0
   21.2593   74.0689   -2.5295 O   0  0  0  0  0  0  0  0  0  0  0  0
   22.8338   73.8963   -0.7149 C   0  0  1  0  0  0  0  0  0  0  0  0
   23.0292   73.3764    0.7107 C   0  0  1  0  0  0  0  0  0  0  0  0
   21.3779   73.7393   -1.1497 C   0  0  2  0  0  0  0  0  0  0  0  0
   22.4272   71.9745    0.8764 C   0  0  1  0  0  0  0  0  0  0  0  0
   20.8628   72.3212   -0.8972 C   0  0  1  0  0  0  0  0  0  0  0  0
   24.1048   75.3900   -0.4632 H   0  0  0  0  0  0  0  0  0  0  0  0
   24.7954   74.2424    0.8746 H   0  0  0  0  0  0  0  0  0  0  0  0
   21.5883   74.9689   -2.6762 H   0  0  0  0  0  0  0  0  0  0  0  0
   23.7450   70.9391    2.5794 O   0  0  0  0  0  0  0  0  0  0  0  0
   22.4704   71.5015    2.3278 C   0  0  0  0  0  0  0  0  0  0  0  0
   23.7872   70.6339    3.4996 H   0  0  0  0  0  0  0  0  0  0  0  0
 25 28  1  0
 25 24  1  0
 25 26  1  6
 25 27  2  0
  1  4  1  0
  1 24  1  0
  1  2  1  1
  1  3  2  0
  6 11  1  0
  6 12  1  0
 29 36  1  0
 29 37  1  0
  9  7  1  6
  7 13  1  0
 10  8  1  6
  8 14  1  0
 37 28  1  6
  4  5  1  0
 33 30  1  1
 30 38  1  0
 34 31  1  6
 31 39  1  0
 35 32  1  6
 32 40  1  0
 41 42  1  0
 41 43  1  0
 15 19  2  0
 16 22  2  0
 12 17  1  1
 17 19  1  0
 17 20  1  0
 18 19  1  0
 18 22  1  0
 18 23  1  0
  9 10  1  0
  9 11  1  0
 10 12  1  0
 11  5  1  1
 33 34  1  0
 33 35  1  0
 34 36  1  0
 35 37  1  0
 36 42  1  1
 20 21  2  0
 21 22  1  0
M  CHG  2   2  -1  26  -1
M  END
>  <COMPND>  (478) 
    8629 

>  <AUTHOR>  (478) 
    GENERATED BY OPEN BABEL 3.1.1

>  <MASTER>  (478) 
        0    0    0    0    0    0    0    0   58    0   58    0

>  <minimizedAffinity>  (478) 
-7.04592

>  <CNNscore>  (478) 
0.5102248192

>  <CNNaffinity>  (478) 
4.2519826889

>  <CNN_VS>  (478) 
2.1694672108

>  <CNNaffinity_variance>  (478) 
0.2800298631

$$$$
479
     RDKit          3D

 43 45  0  0  0  0  0  0  0  0999 V2000
   20.5599   70.9787   -2.7730 P   0  0  2  0  0  0  0  0  0  0  0  0
   22.0460   70.4674   -3.1572 O   0  0  0  0  0  0  0  0  0  0  0  0
   20.2464   72.3857   -3.1895 O   0  0  0  0  0  0  0  0  0  0  0  0
   20.4410   70.6718   -1.1889 O   0  0  0  0  0  0  0  0  0  0  0  0
   20.6605   71.7333   -0.2762 C   0  0  0  0  0  0  0  0  0  0  0  0
   22.3345   73.2417    0.5580 O   0  0  0  0  0  0  0  0  0  0  0  0
   24.3090   71.0496    0.0228 O   0  0  0  0  0  0  0  0  0  0  0  0
   23.9200   70.8550    2.7149 O   0  0  0  0  0  0  0  0  0  0  0  0
   22.9617   70.9577    0.4828 C   0  0  1  0  0  0  0  0  0  0  0  0
   22.8706   71.3869    1.9323 C   0  0  2  0  0  0  0  0  0  0  0  0
   22.1510   72.0391   -0.2206 C   0  0  1  0  0  0  0  0  0  0  0  0
   22.9360   72.9004    1.8176 C   0  0  2  0  0  0  0  0  0  0  0  0
   24.8462   70.3684    0.4580 H   0  0  0  0  0  0  0  0  0  0  0  0
   23.8345   69.8898    2.7577 H   0  0  0  0  0  0  0  0  0  0  0  0
   20.3965   72.1032    2.7627 O   0  0  0  0  0  0  0  0  0  0  0  0
   20.2780   75.5108    5.8636 O   0  0  0  0  0  0  0  0  0  0  0  0
   22.2186   73.5610    2.8713 N   0  0  0  0  0  0  0  0  0  0  0  0
   20.3397   73.8005    4.3061 N   0  0  0  0  0  0  0  0  0  0  0  0
   20.9492   73.0813    3.2701 C   0  0  0  0  0  0  0  0  0  0  0  0
   22.7742   74.6714    3.4976 C   0  0  0  0  0  0  0  0  0  0  0  0
   22.1794   75.3468    4.4832 C   0  0  0  0  0  0  0  0  0  0  0  0
   20.8508   74.9107    4.9593 C   0  0  0  0  0  0  0  0  0  0  0  0
   19.4545   73.4847    4.6003 H   0  0  0  0  0  0  0  0  0  0  0  0
   19.6062   69.8531   -3.4338 O   0  0  0  0  0  0  0  0  0  0  0  0
   17.9957   69.7301   -3.4964 P   0  0  2  0  0  0  0  0  0  0  0  0
   17.4919   71.0357   -2.6846 O   0  0  0  0  0  0  0  0  0  0  0  0
   17.4570   68.4299   -2.9737 O   0  0  0  0  0  0  0  0  0  0  0  0
   17.6220   70.0382   -5.0361 O   0  0  0  0  0  0  0  0  0  0  0  0
   19.0287   71.4213   -6.3494 O   0  0  0  0  0  0  0  0  0  0  0  0
   15.5297   71.7981   -8.5095 O   0  0  0  0  0  0  0  0  0  0  0  0
   17.6938   70.2401   -9.5761 O   0  0  0  0  0  0  0  0  0  0  0  0
   15.4382   71.7017   -5.6179 O   0  0  0  0  0  0  0  0  0  0  0  0
   16.4959   71.1199   -7.7021 C   0  0  1  0  0  0  0  0  0  0  0  0
   17.8277   71.1093   -8.4551 C   0  0  1  0  0  0  0  0  0  0  0  0
   16.6371   71.8542   -6.3701 C   0  0  2  0  0  0  0  0  0  0  0  0
   18.9731   70.6394   -7.5482 C   0  0  1  0  0  0  0  0  0  0  0  0
   17.8351   71.3433   -5.5677 C   0  0  1  0  0  0  0  0  0  0  0  0
   15.4350   71.3366   -9.3566 H   0  0  0  0  0  0  0  0  0  0  0  0
   16.9670   70.5477  -10.1403 H   0  0  0  0  0  0  0  0  0  0  0  0
   14.6874   72.0290   -6.1365 H   0  0  0  0  0  0  0  0  0  0  0  0
   21.1211   69.6475   -7.8815 O   0  0  0  0  0  0  0  0  0  0  0  0
   20.3332   70.7708   -8.2301 C   0  0  0  0  0  0  0  0  0  0  0  0
   21.9896   69.7174   -8.3087 H   0  0  0  0  0  0  0  0  0  0  0  0
 25 28  1  0
 25 24  1  0
 25 26  1  1
 25 27  2  0
  1  4  1  0
  1 24  1  0
  1  2  1  6
  1  3  2  0
  6 11  1  0
  6 12  1  0
 29 36  1  0
 29 37  1  0
  9  7  1  6
  7 13  1  0
 10  8  1  1
  8 14  1  0
 37 28  1  6
  4  5  1  0
 33 30  1  6
 30 38  1  0
 34 31  1  6
 31 39  1  0
 35 32  1  1
 32 40  1  0
 41 42  1  0
 41 43  1  0
 15 19  2  0
 16 22  2  0
 12 17  1  1
 17 19  1  0
 17 20  1  0
 18 19  1  0
 18 22  1  0
 18 23  1  0
  9 10  1  0
  9 11  1  0
 10 12  1  0
 11  5  1  1
 33 34  1  0
 33 35  1  0
 34 36  1  0
 35 37  1  0
 36 42  1  6
 20 21  2  0
 21 22  1  0
M  CHG  2   2  -1  26  -1
M  END
>  <COMPND>  (479) 
    8629 

>  <AUTHOR>  (479) 
    GENERATED BY OPEN BABEL 3.1.1

>  <MASTER>  (479) 
        0    0    0    0    0    0    0    0   58    0   58    0

>  <minimizedAffinity>  (479) 
-7.55756

>  <CNNscore>  (479) 
0.4879588187

>  <CNNaffinity>  (479) 
4.2221679688

>  <CNN_VS>  (479) 
2.0602440834

>  <CNNaffinity_variance>  (479) 
0.0999533460

$$$$
480
     RDKit          3D

 43 45  0  0  0  0  0  0  0  0999 V2000
   21.8570   72.3972   -5.8058 P   0  0  2  0  0  0  0  0  0  0  0  0
   21.1299   73.7368   -5.2635 O   0  0  0  0  0  0  0  0  0  0  0  0
   23.0293   72.6349   -6.7117 O   0  0  0  0  0  0  0  0  0  0  0  0
   20.6475   71.5265   -6.4357 O   0  0  0  0  0  0  0  0  0  0  0  0
   20.2096   71.8284   -7.7490 C   0  0  0  0  0  0  0  0  0  0  0  0
   18.8654   69.9159   -7.1931 O   0  0  0  0  0  0  0  0  0  0  0  0
   17.9952   69.9276  -10.0625 O   0  0  0  0  0  0  0  0  0  0  0  0
   15.8835   71.0997   -8.7962 O   0  0  0  0  0  0  0  0  0  0  0  0
   18.2798   71.0290   -9.2015 C   0  0  1  0  0  0  0  0  0  0  0  0
   17.1593   71.2167   -8.2000 C   0  0  2  0  0  0  0  0  0  0  0  0
   19.4458   70.6339   -8.3039 C   0  0  1  0  0  0  0  0  0  0  0  0
   17.4414   70.1081   -7.2003 C   0  0  2  0  0  0  0  0  0  0  0  0
   17.2539   70.1564  -10.6457 H   0  0  0  0  0  0  0  0  0  0  0  0
   15.7517   71.8274   -9.4238 H   0  0  0  0  0  0  0  0  0  0  0  0
   16.5482   68.2304   -5.2885 O   0  0  0  0  0  0  0  0  0  0  0  0
   15.8076   71.5138   -2.1402 O   0  0  0  0  0  0  0  0  0  0  0  0
   17.0096   70.4446   -5.8730 N   0  0  0  0  0  0  0  0  0  0  0  0
   16.1804   69.8668   -3.7224 N   0  0  0  0  0  0  0  0  0  0  0  0
   16.5789   69.4263   -4.9909 C   0  0  0  0  0  0  0  0  0  0  0  0
   17.0161   71.7718   -5.4578 C   0  0  0  0  0  0  0  0  0  0  0  0
   16.6317   72.1755   -4.2451 C   0  0  0  0  0  0  0  0  0  0  0  0
   16.1677   71.1743   -3.2631 C   0  0  0  0  0  0  0  0  0  0  0  0
   15.8761   69.1750   -3.0911 H   0  0  0  0  0  0  0  0  0  0  0  0
   22.2093   71.5986   -4.4452 O   0  0  0  0  0  0  0  0  0  0  0  0
   23.2734   71.9193   -3.2714 P   0  0  2  0  0  0  0  0  0  0  0  0
   23.9676   73.2946   -3.7654 O   0  0  0  0  0  0  0  0  0  0  0  0
   24.2385   70.8033   -2.9940 O   0  0  0  0  0  0  0  0  0  0  0  0
   22.3685   72.3508   -2.0065 O   0  0  0  0  0  0  0  0  0  0  0  0
   21.7646   71.2288   -0.0083 O   0  0  0  0  0  0  0  0  0  0  0  0
   18.1556   73.0445   -0.8619 O   0  0  0  0  0  0  0  0  0  0  0  0
   19.7540   74.0206    1.3153 O   0  0  0  0  0  0  0  0  0  0  0  0
   19.7746   71.9703   -3.0076 O   0  0  0  0  0  0  0  0  0  0  0  0
   19.5809   72.9385   -0.8107 C   0  0  1  0  0  0  0  0  0  0  0  0
   19.9979   72.7828    0.6530 C   0  0  1  0  0  0  0  0  0  0  0  0
   20.0208   71.7247   -1.6272 C   0  0  2  0  0  0  0  0  0  0  0  0
   21.4788   72.3974    0.7691 C   0  0  1  0  0  0  0  0  0  0  0  0
   21.4981   71.3978   -1.4019 C   0  0  1  0  0  0  0  0  0  0  0  0
   17.8697   73.8136   -0.3458 H   0  0  0  0  0  0  0  0  0  0  0  0
   18.8156   74.2527    1.2341 H   0  0  0  0  0  0  0  0  0  0  0  0
   18.8361   72.1757   -3.1370 H   0  0  0  0  0  0  0  0  0  0  0  0
   20.7030   72.0339    2.9996 O   0  0  0  0  0  0  0  0  0  0  0  0
   21.8768   72.0832    2.2096 C   0  0  0  0  0  0  0  0  0  0  0  0
   20.9409   71.8344    3.9190 H   0  0  0  0  0  0  0  0  0  0  0  0
 25 28  1  0
 25 24  1  0
 25 26  1  6
 25 27  2  0
  1  4  1  0
  1 24  1  0
  1  2  1  1
  1  3  2  0
  6 11  1  0
  6 12  1  0
 29 36  1  0
 29 37  1  0
  9  7  1  6
  7 13  1  0
 10  8  1  6
  8 14  1  0
 37 28  1  1
  4  5  1  0
 33 30  1  1
 30 38  1  0
 34 31  1  1
 31 39  1  0
 35 32  1  6
 32 40  1  0
 41 42  1  0
 41 43  1  0
 15 19  2  0
 16 22  2  0
 12 17  1  1
 17 19  1  0
 17 20  1  0
 18 19  1  0
 18 22  1  0
 18 23  1  0
  9 10  1  0
  9 11  1  0
 10 12  1  0
 11  5  1  1
 33 34  1  0
 33 35  1  0
 34 36  1  0
 35 37  1  0
 36 42  1  1
 20 21  2  0
 21 22  1  0
M  CHG  2   2  -1  26  -1
M  END
>  <COMPND>  (480) 
    8629 

>  <AUTHOR>  (480) 
    GENERATED BY OPEN BABEL 3.1.1

>  <MASTER>  (480) 
        0    0    0    0    0    0    0    0   58    0   58    0

>  <minimizedAffinity>  (480) 
-7.64423

>  <CNNscore>  (480) 
0.4811836183

>  <CNNaffinity>  (480) 
4.1579871178

>  <CNN_VS>  (480) 
2.0007553101

>  <CNNaffinity_variance>  (480) 
0.5334492922

$$$$
481
     RDKit          3D

 43 45  0  0  0  0  0  0  0  0999 V2000
   23.0033   71.5918   -2.4720 P   0  0  2  0  0  0  0  0  0  0  0  0
   23.2089   73.1127   -1.9602 O   0  0  0  0  0  0  0  0  0  0  0  0
   24.2078   70.9720   -3.1173 O   0  0  0  0  0  0  0  0  0  0  0  0
   21.6743   71.6678   -3.3917 O   0  0  0  0  0  0  0  0  0  0  0  0
   20.8740   70.5056   -3.5206 C   0  0  0  0  0  0  0  0  0  0  0  0
   18.8911   71.5069   -4.4367 O   0  0  0  0  0  0  0  0  0  0  0  0
   17.3968   70.1008   -2.2502 O   0  0  0  0  0  0  0  0  0  0  0  0
   16.9319   68.5029   -4.4106 O   0  0  0  0  0  0  0  0  0  0  0  0
   18.5324   69.6616   -2.9938 C   0  0  1  0  0  0  0  0  0  0  0  0
   18.1213   69.2658   -4.3967 C   0  0  2  0  0  0  0  0  0  0  0  0
   19.4208   70.8721   -3.2523 C   0  0  1  0  0  0  0  0  0  0  0  0
   17.9566   70.6177   -5.0700 C   0  0  2  0  0  0  0  0  0  0  0  0
   16.8147   69.3448   -2.0727 H   0  0  0  0  0  0  0  0  0  0  0  0
   17.0878   67.6526   -3.9710 H   0  0  0  0  0  0  0  0  0  0  0  0
   16.0902   69.8567   -7.0487 O   0  0  0  0  0  0  0  0  0  0  0  0
   19.1581   70.4596  -10.4348 O   0  0  0  0  0  0  0  0  0  0  0  0
   18.2407   70.5673   -6.4765 N   0  0  0  0  0  0  0  0  0  0  0  0
   17.6192   70.1577   -8.7331 N   0  0  0  0  0  0  0  0  0  0  0  0
   17.2333   70.1708   -7.3867 C   0  0  0  0  0  0  0  0  0  0  0  0
   19.5064   70.9089   -6.9405 C   0  0  0  0  0  0  0  0  0  0  0  0
   19.8587   70.8899   -8.2276 C   0  0  0  0  0  0  0  0  0  0  0  0
   18.8648   70.4873   -9.2435 C   0  0  0  0  0  0  0  0  0  0  0  0
   16.9339   69.8844   -9.3854 H   0  0  0  0  0  0  0  0  0  0  0  0
   22.4837   70.8289   -1.1449 O   0  0  0  0  0  0  0  0  0  0  0  0
   21.6975   71.3783    0.1562 P   0  0  2  0  0  0  0  0  0  0  0  0
   21.3897   70.0324    0.9995 O   0  0  0  0  0  0  0  0  0  0  0  0
   20.4830   72.2018   -0.1609 O   0  0  0  0  0  0  0  0  0  0  0  0
   22.8230   72.1506    1.0176 O   0  0  0  0  0  0  0  0  0  0  0  0
   24.5345   71.8895    2.6360 O   0  0  0  0  0  0  0  0  0  0  0  0
   21.9178   74.2260    4.8141 O   0  0  0  0  0  0  0  0  0  0  0  0
   24.3604   75.3725    3.8307 O   0  0  0  0  0  0  0  0  0  0  0  0
   20.8941   72.1668    3.0558 O   0  0  0  0  0  0  0  0  0  0  0  0
   22.5903   73.7758    3.6350 C   0  0  1  0  0  0  0  0  0  0  0  0
   24.0942   73.9727    3.8359 C   0  0  1  0  0  0  0  0  0  0  0  0
   22.2669   72.3002    3.4084 C   0  0  2  0  0  0  0  0  0  0  0  0
   24.8971   73.2719    2.7317 C   0  0  1  0  0  0  0  0  0  0  0  0
   23.1548   71.6873    2.3240 C   0  0  1  0  0  0  0  0  0  0  0  0
   22.1186   75.1624    4.9633 H   0  0  0  0  0  0  0  0  0  0  0  0
   23.8469   75.8031    4.5322 H   0  0  0  0  0  0  0  0  0  0  0  0
   20.3425   72.5582    3.7504 H   0  0  0  0  0  0  0  0  0  0  0  0
   26.6104   73.8749    4.2842 O   0  0  0  0  0  0  0  0  0  0  0  0
   26.4000   73.3215    2.9982 C   0  0  0  0  0  0  0  0  0  0  0  0
   27.5625   73.9123    4.4676 H   0  0  0  0  0  0  0  0  0  0  0  0
 25 28  1  0
 25 24  1  0
 25 26  1  1
 25 27  2  0
  1  4  1  0
  1 24  1  0
  1  2  1  1
  1  3  2  0
  6 11  1  0
  6 12  1  0
 29 36  1  0
 29 37  1  0
  9  7  1  1
  7 13  1  0
 10  8  1  1
  8 14  1  0
 37 28  1  6
  4  5  1  0
 33 30  1  1
 30 38  1  0
 34 31  1  6
 31 39  1  0
 35 32  1  6
 32 40  1  0
 41 42  1  0
 41 43  1  0
 15 19  2  0
 16 22  2  0
 12 17  1  6
 17 19  1  0
 17 20  1  0
 18 19  1  0
 18 22  1  0
 18 23  1  0
  9 10  1  0
  9 11  1  0
 10 12  1  0
 11  5  1  6
 33 34  1  0
 33 35  1  0
 34 36  1  0
 35 37  1  0
 36 42  1  1
 20 21  2  0
 21 22  1  0
M  CHG  2   2  -1  26  -1
M  END
>  <COMPND>  (481) 
    8629 

>  <AUTHOR>  (481) 
    GENERATED BY OPEN BABEL 3.1.1

>  <MASTER>  (481) 
        0    0    0    0    0    0    0    0   58    0   58    0

>  <minimizedAffinity>  (481) 
-7.99943

>  <CNNscore>  (481) 
0.9288582802

>  <CNNaffinity>  (481) 
4.7413792610

>  <CNN_VS>  (481) 
4.4040694237

>  <CNNaffinity_variance>  (481) 
0.0597112253

$$$$
482
     RDKit          3D

 43 45  0  0  0  0  0  0  0  0999 V2000
   22.4549   71.4838   -2.9585 P   0  0  2  0  0  0  0  0  0  0  0  0
   22.2449   73.0610   -2.6656 O   0  0  0  0  0  0  0  0  0  0  0  0
   23.8484   71.0926   -3.3539 O   0  0  0  0  0  0  0  0  0  0  0  0
   21.2951   71.1299   -4.0298 O   0  0  0  0  0  0  0  0  0  0  0  0
   20.3667   70.1087   -3.7086 C   0  0  0  0  0  0  0  0  0  0  0  0
   18.6745   71.4617   -4.7477 O   0  0  0  0  0  0  0  0  0  0  0  0
   16.7831   70.3231   -2.7187 O   0  0  0  0  0  0  0  0  0  0  0  0
   16.2138   68.8603   -4.9486 O   0  0  0  0  0  0  0  0  0  0  0  0
   17.8774   69.6949   -3.3843 C   0  0  1  0  0  0  0  0  0  0  0  0
   17.5155   69.3959   -4.8241 C   0  0  2  0  0  0  0  0  0  0  0  0
   18.9858   70.7282   -3.5429 C   0  0  1  0  0  0  0  0  0  0  0  0
   17.6497   70.7630   -5.4732 C   0  0  2  0  0  0  0  0  0  0  0  0
   16.0628   69.6825   -2.6057 H   0  0  0  0  0  0  0  0  0  0  0  0
   16.1795   67.9907   -4.5203 H   0  0  0  0  0  0  0  0  0  0  0  0
   15.8787   70.1380   -7.5829 O   0  0  0  0  0  0  0  0  0  0  0  0
   19.2262   70.4647  -10.7339 O   0  0  0  0  0  0  0  0  0  0  0  0
   18.0316   70.6783   -6.8546 N   0  0  0  0  0  0  0  0  0  0  0  0
   17.5469   70.3014   -9.1501 N   0  0  0  0  0  0  0  0  0  0  0  0
   17.0652   70.3566   -7.8360 C   0  0  0  0  0  0  0  0  0  0  0  0
   19.3514   70.9133   -7.2244 C   0  0  0  0  0  0  0  0  0  0  0  0
   19.7949   70.8555   -8.4819 C   0  0  0  0  0  0  0  0  0  0  0  0
   18.8492   70.5257   -9.5677 C   0  0  0  0  0  0  0  0  0  0  0  0
   16.8917   70.0786   -9.8507 H   0  0  0  0  0  0  0  0  0  0  0  0
   21.9203   70.7877   -1.6011 O   0  0  0  0  0  0  0  0  0  0  0  0
   21.3884   71.4307   -0.2167 P   0  0  2  0  0  0  0  0  0  0  0  0
   21.3344   70.1616    0.7853 O   0  0  0  0  0  0  0  0  0  0  0  0
   20.0912   72.1758   -0.3427 O   0  0  0  0  0  0  0  0  0  0  0  0
   22.6223   72.3219    0.3204 O   0  0  0  0  0  0  0  0  0  0  0  0
   21.8280   73.8182    1.9777 O   0  0  0  0  0  0  0  0  0  0  0  0
   25.7194   75.1673    1.6811 O   0  0  0  0  0  0  0  0  0  0  0  0
   24.9039   73.6905    4.0053 O   0  0  0  0  0  0  0  0  0  0  0  0
   24.2955   74.3320   -0.6968 O   0  0  0  0  0  0  0  0  0  0  0  0
   24.6754   74.1899    1.6774 C   0  0  1  0  0  0  0  0  0  0  0  0
   23.9906   74.2144    3.0453 C   0  0  1  0  0  0  0  0  0  0  0  0
   23.6783   74.5286    0.5708 C   0  0  2  0  0  0  0  0  0  0  0  0
   22.6971   73.3887    3.0322 C   0  0  1  0  0  0  0  0  0  0  0  0
   22.4070   73.6846    0.6782 C   0  0  1  0  0  0  0  0  0  0  0  0
   26.3561   74.9577    2.3812 H   0  0  0  0  0  0  0  0  0  0  0  0
   25.7165   74.2205    4.0032 H   0  0  0  0  0  0  0  0  0  0  0  0
   25.0988   74.8719   -0.7524 H   0  0  0  0  0  0  0  0  0  0  0  0
   22.4345   72.5976    5.2714 O   0  0  0  0  0  0  0  0  0  0  0  0
   21.9168   73.5273    4.3376 C   0  0  0  0  0  0  0  0  0  0  0  0
   21.9476   72.6747    6.1073 H   0  0  0  0  0  0  0  0  0  0  0  0
 25 28  1  0
 25 24  1  0
 25 26  1  1
 25 27  2  0
  1  4  1  0
  1 24  1  0
  1  2  1  1
  1  3  2  0
  6 11  1  0
  6 12  1  0
 29 36  1  0
 29 37  1  0
  9  7  1  1
  7 13  1  0
 10  8  1  1
  8 14  1  0
 37 28  1  1
  4  5  1  0
 33 30  1  1
 30 38  1  0
 34 31  1  1
 31 39  1  0
 35 32  1  6
 32 40  1  0
 41 42  1  0
 41 43  1  0
 15 19  2  0
 16 22  2  0
 12 17  1  6
 17 19  1  0
 17 20  1  0
 18 19  1  0
 18 22  1  0
 18 23  1  0
  9 10  1  0
  9 11  1  0
 10 12  1  0
 11  5  1  6
 33 34  1  0
 33 35  1  0
 34 36  1  0
 35 37  1  0
 36 42  1  1
 20 21  2  0
 21 22  1  0
M  CHG  2   2  -1  26  -1
M  END
>  <COMPND>  (482) 
    8629 

>  <AUTHOR>  (482) 
    GENERATED BY OPEN BABEL 3.1.1

>  <MASTER>  (482) 
        0    0    0    0    0    0    0    0   58    0   58    0

>  <minimizedAffinity>  (482) 
-7.73001

>  <CNNscore>  (482) 
0.9240739346

>  <CNNaffinity>  (482) 
4.7517771721

>  <CNN_VS>  (482) 
4.3909935951

>  <CNNaffinity_variance>  (482) 
0.0478196964

$$$$
483
     RDKit          3D

 43 45  0  0  0  0  0  0  0  0999 V2000
   20.6278   71.3270   -1.5336 P   0  0  2  0  0  0  0  0  0  0  0  0
   21.3386   70.5731   -0.2911 O   0  0  0  0  0  0  0  0  0  0  0  0
   20.1260   72.7088   -1.2333 O   0  0  0  0  0  0  0  0  0  0  0  0
   19.5137   70.2702   -2.0433 O   0  0  0  0  0  0  0  0  0  0  0  0
   19.1716   70.2589   -3.4183 C   0  0  0  0  0  0  0  0  0  0  0  0
   17.5490   71.3568   -4.8096 O   0  0  0  0  0  0  0  0  0  0  0  0
   15.4742   69.8427   -3.2624 O   0  0  0  0  0  0  0  0  0  0  0  0
   15.6698   68.3972   -5.5665 O   0  0  0  0  0  0  0  0  0  0  0  0
   16.7790   69.4298   -3.6652 C   0  0  1  0  0  0  0  0  0  0  0  0
   16.8017   69.1336   -5.1503 C   0  0  2  0  0  0  0  0  0  0  0  0
   17.7041   70.6364   -3.5673 C   0  0  1  0  0  0  0  0  0  0  0  0
   16.8439   70.5292   -5.7492 C   0  0  2  0  0  0  0  0  0  0  0  0
   14.8656   69.0886   -3.3163 H   0  0  0  0  0  0  0  0  0  0  0  0
   15.6886   67.5173   -5.1589 H   0  0  0  0  0  0  0  0  0  0  0  0
   15.5628   70.5844   -8.2659 O   0  0  0  0  0  0  0  0  0  0  0  0
   19.5842   70.6599  -10.5161 O   0  0  0  0  0  0  0  0  0  0  0  0
   17.5318   70.5639   -7.0090 N   0  0  0  0  0  0  0  0  0  0  0  0
   17.5662   70.6221   -9.3843 N   0  0  0  0  0  0  0  0  0  0  0  0
   16.7945   70.5887   -8.2157 C   0  0  0  0  0  0  0  0  0  0  0  0
   18.9221   70.5735   -7.0394 C   0  0  0  0  0  0  0  0  0  0  0  0
   19.6430   70.6041   -8.1622 C   0  0  0  0  0  0  0  0  0  0  0  0
   18.9496   70.6316   -9.4662 C   0  0  0  0  0  0  0  0  0  0  0  0
   17.0741   70.6394  -10.2371 H   0  0  0  0  0  0  0  0  0  0  0  0
   21.7523   71.2569   -2.6927 O   0  0  0  0  0  0  0  0  0  0  0  0
   23.1750   72.0103   -2.8386 P   0  0  2  0  0  0  0  0  0  0  0  0
   24.2292   70.7902   -2.9705 O   0  0  0  0  0  0  0  0  0  0  0  0
   23.4781   72.9732   -1.7273 O   0  0  0  0  0  0  0  0  0  0  0  0
   23.1359   72.6761   -4.3083 O   0  0  0  0  0  0  0  0  0  0  0  0
   21.0248   73.7493   -4.3977 O   0  0  0  0  0  0  0  0  0  0  0  0
   22.4728   74.8316   -8.1102 O   0  0  0  0  0  0  0  0  0  0  0  0
   22.3008   76.8003   -6.0263 O   0  0  0  0  0  0  0  0  0  0  0  0
   23.0059   72.1841   -7.0681 O   0  0  0  0  0  0  0  0  0  0  0  0
   22.5608   74.5249   -6.7161 C   0  0  1  0  0  0  0  0  0  0  0  0
   21.6843   75.5179   -5.9503 C   0  0  1  0  0  0  0  0  0  0  0  0
   22.0772   73.0939   -6.4883 C   0  0  2  0  0  0  0  0  0  0  0  0
   21.5149   75.0924   -4.4856 C   0  0  1  0  0  0  0  0  0  0  0  0
   21.8951   72.7894   -5.0003 C   0  0  1  0  0  0  0  0  0  0  0  0
   22.7790   75.7387   -8.2617 H   0  0  0  0  0  0  0  0  0  0  0  0
   22.4024   77.0569   -6.9563 H   0  0  0  0  0  0  0  0  0  0  0  0
   23.1122   72.3871   -8.0101 H   0  0  0  0  0  0  0  0  0  0  0  0
   19.9884   75.2480   -2.6541 O   0  0  0  0  0  0  0  0  0  0  0  0
   20.5183   75.9803   -3.7437 C   0  0  0  0  0  0  0  0  0  0  0  0
   19.3527   75.8008   -2.1724 H   0  0  0  0  0  0  0  0  0  0  0  0
 25 28  1  0
 25 24  1  0
 25 26  1  6
 25 27  2  0
  1  4  1  0
  1 24  1  0
  1  2  1  1
  1  3  2  0
  6 11  1  0
  6 12  1  0
 29 36  1  0
 29 37  1  0
  9  7  1  6
  7 13  1  0
 10  8  1  6
  8 14  1  0
 37 28  1  1
  4  5  1  0
 33 30  1  6
 30 38  1  0
 34 31  1  1
 31 39  1  0
 35 32  1  1
 32 40  1  0
 41 42  1  0
 41 43  1  0
 15 19  2  0
 16 22  2  0
 12 17  1  6
 17 19  1  0
 17 20  1  0
 18 19  1  0
 18 22  1  0
 18 23  1  0
  9 10  1  0
  9 11  1  0
 10 12  1  0
 11  5  1  6
 33 34  1  0
 33 35  1  0
 34 36  1  0
 35 37  1  0
 36 42  1  6
 20 21  2  0
 21 22  1  0
M  CHG  2   2  -1  26  -1
M  END
>  <COMPND>  (483) 
    8629 

>  <AUTHOR>  (483) 
    GENERATED BY OPEN BABEL 3.1.1

>  <MASTER>  (483) 
        0    0    0    0    0    0    0    0   58    0   58    0

>  <minimizedAffinity>  (483) 
-7.92958

>  <CNNscore>  (483) 
0.9206531048

>  <CNNaffinity>  (483) 
4.7005887032

>  <CNN_VS>  (483) 
4.3276114464

>  <CNNaffinity_variance>  (483) 
0.5131110549

$$$$
484
     RDKit          3D

 43 45  0  0  0  0  0  0  0  0999 V2000
   21.5610   71.9674   -3.4346 P   0  0  2  0  0  0  0  0  0  0  0  0
   21.0640   73.4830   -3.1636 O   0  0  0  0  0  0  0  0  0  0  0  0
   22.9160   71.8485   -4.0681 O   0  0  0  0  0  0  0  0  0  0  0  0
   20.3392   71.2994   -4.2584 O   0  0  0  0  0  0  0  0  0  0  0  0
   19.5637   70.2976   -3.6238 C   0  0  0  0  0  0  0  0  0  0  0  0
   17.8550   71.3791   -4.9216 O   0  0  0  0  0  0  0  0  0  0  0  0
   15.8838   69.9756   -3.1509 O   0  0  0  0  0  0  0  0  0  0  0  0
   15.8597   68.4380   -5.4030 O   0  0  0  0  0  0  0  0  0  0  0  0
   17.1423   69.5165   -3.6415 C   0  0  1  0  0  0  0  0  0  0  0  0
   17.0368   69.1628   -5.1103 C   0  0  2  0  0  0  0  0  0  0  0  0
   18.0969   70.7037   -3.6680 C   0  0  1  0  0  0  0  0  0  0  0  0
   17.0582   70.5329   -5.7666 C   0  0  2  0  0  0  0  0  0  0  0  0
   15.2575   69.2347   -3.1246 H   0  0  0  0  0  0  0  0  0  0  0  0
   15.8938   67.5743   -4.9630 H   0  0  0  0  0  0  0  0  0  0  0  0
   15.5826   70.6676   -8.1712 O   0  0  0  0  0  0  0  0  0  0  0  0
   19.3989   70.4068  -10.7420 O   0  0  0  0  0  0  0  0  0  0  0  0
   17.6407   70.5026   -7.0785 N   0  0  0  0  0  0  0  0  0  0  0  0
   17.4841   70.5378   -9.4493 N   0  0  0  0  0  0  0  0  0  0  0  0
   16.8109   70.5752   -8.2215 C   0  0  0  0  0  0  0  0  0  0  0  0
   19.0203   70.4022   -7.2221 C   0  0  0  0  0  0  0  0  0  0  0  0
   19.6466   70.3664   -8.4000 C   0  0  0  0  0  0  0  0  0  0  0  0
   18.8526   70.4374   -9.6436 C   0  0  0  0  0  0  0  0  0  0  0  0
   16.9263   70.5866  -10.2594 H   0  0  0  0  0  0  0  0  0  0  0  0
   21.4367   71.2782   -1.9778 O   0  0  0  0  0  0  0  0  0  0  0  0
   20.8179   71.8317   -0.5908 P   0  0  2  0  0  0  0  0  0  0  0  0
   21.0294   70.5944    0.4298 O   0  0  0  0  0  0  0  0  0  0  0  0
   19.3991   72.3107   -0.6978 O   0  0  0  0  0  0  0  0  0  0  0  0
   21.8669   72.9535   -0.0944 O   0  0  0  0  0  0  0  0  0  0  0  0
   23.9513   73.0922   -1.2137 O   0  0  0  0  0  0  0  0  0  0  0  0
   24.9213   75.1327    2.2426 O   0  0  0  0  0  0  0  0  0  0  0  0
   24.6028   76.5808   -0.2169 O   0  0  0  0  0  0  0  0  0  0  0  0
   23.1976   72.8107    2.3721 O   0  0  0  0  0  0  0  0  0  0  0  0
   24.0691   74.7101    1.1746 C   0  0  1  0  0  0  0  0  0  0  0  0
   24.6961   75.1608   -0.1462 C   0  0  1  0  0  0  0  0  0  0  0  0
   23.9352   73.1890    1.2149 C   0  0  2  0  0  0  0  0  0  0  0  0
   23.9850   74.5182   -1.3447 C   0  0  1  0  0  0  0  0  0  0  0  0
   23.2582   72.6480   -0.0457 C   0  0  1  0  0  0  0  0  0  0  0  0
   25.0101   76.0977    2.2230 H   0  0  0  0  0  0  0  0  0  0  0  0
   25.0552   76.9742    0.5458 H   0  0  0  0  0  0  0  0  0  0  0  0
   23.6365   73.1589    3.1633 H   0  0  0  0  0  0  0  0  0  0  0  0
   23.7194   74.8897   -3.6900 O   0  0  0  0  0  0  0  0  0  0  0  0
   24.6914   74.8285   -2.6625 C   0  0  0  0  0  0  0  0  0  0  0  0
   24.1545   75.0868   -4.5346 H   0  0  0  0  0  0  0  0  0  0  0  0
 25 28  1  0
 25 24  1  0
 25 26  1  1
 25 27  2  0
  1  4  1  0
  1 24  1  0
  1  2  1  1
  1  3  2  0
  6 11  1  0
  6 12  1  0
 29 36  1  0
 29 37  1  0
  9  7  1  6
  7 13  1  0
 10  8  1  1
  8 14  1  0
 37 28  1  6
  4  5  1  0
 33 30  1  1
 30 38  1  0
 34 31  1  6
 31 39  1  0
 35 32  1  1
 32 40  1  0
 41 42  1  0
 41 43  1  0
 15 19  2  0
 16 22  2  0
 12 17  1  6
 17 19  1  0
 17 20  1  0
 18 19  1  0
 18 22  1  0
 18 23  1  0
  9 10  1  0
  9 11  1  0
 10 12  1  0
 11  5  1  6
 33 34  1  0
 33 35  1  0
 34 36  1  0
 35 37  1  0
 36 42  1  6
 20 21  2  0
 21 22  1  0
M  CHG  2   2  -1  26  -1
M  END
>  <COMPND>  (484) 
    8629 

>  <AUTHOR>  (484) 
    GENERATED BY OPEN BABEL 3.1.1

>  <MASTER>  (484) 
        0    0    0    0    0    0    0    0   58    0   58    0

>  <minimizedAffinity>  (484) 
-6.92724

>  <CNNscore>  (484) 
0.9201836586

>  <CNNaffinity>  (484) 
4.7706403732

>  <CNN_VS>  (484) 
4.3898653984

>  <CNNaffinity_variance>  (484) 
0.1121435165

$$$$
485
     RDKit          3D

 43 45  0  0  0  0  0  0  0  0999 V2000
   21.8652   72.1544   -5.8836 P   0  0  2  0  0  0  0  0  0  0  0  0
   20.7247   73.2143   -5.4440 O   0  0  0  0  0  0  0  0  0  0  0  0
   23.1042   72.7639   -6.4708 O   0  0  0  0  0  0  0  0  0  0  0  0
   21.0778   71.1088   -6.8347 O   0  0  0  0  0  0  0  0  0  0  0  0
   20.2846   71.6210   -7.8913 C   0  0  0  0  0  0  0  0  0  0  0  0
   18.9054   69.7141   -7.4062 O   0  0  0  0  0  0  0  0  0  0  0  0
   17.9291   69.9361  -10.2325 O   0  0  0  0  0  0  0  0  0  0  0  0
   15.9024   71.0810   -8.8119 O   0  0  0  0  0  0  0  0  0  0  0  0
   18.2786   70.9710   -9.3148 C   0  0  1  0  0  0  0  0  0  0  0  0
   17.2025   71.1239   -8.2601 C   0  0  2  0  0  0  0  0  0  0  0  0
   19.4650   70.4865   -8.4908 C   0  0  1  0  0  0  0  0  0  0  0  0
   17.4885   69.9454   -7.3450 C   0  0  2  0  0  0  0  0  0  0  0  0
   17.1736   70.2225  -10.7703 H   0  0  0  0  0  0  0  0  0  0  0  0
   15.7690   71.8513   -9.3861 H   0  0  0  0  0  0  0  0  0  0  0  0
   16.1019   68.1231   -5.6914 O   0  0  0  0  0  0  0  0  0  0  0  0
   16.1149   71.0565   -2.1366 O   0  0  0  0  0  0  0  0  0  0  0  0
   17.1170   70.2068   -5.9830 N   0  0  0  0  0  0  0  0  0  0  0  0
   16.1097   69.5851   -3.9226 N   0  0  0  0  0  0  0  0  0  0  0  0
   16.4214   69.2248   -5.2398 C   0  0  0  0  0  0  0  0  0  0  0  0
   17.4426   71.4254   -5.3976 C   0  0  0  0  0  0  0  0  0  0  0  0
   17.1370   71.7540   -4.1407 C   0  0  0  0  0  0  0  0  0  0  0  0
   16.4105   70.7841   -3.2960 C   0  0  0  0  0  0  0  0  0  0  0  0
   15.6248   68.9168   -3.3859 H   0  0  0  0  0  0  0  0  0  0  0  0
   22.1102   71.3025   -4.5319 O   0  0  0  0  0  0  0  0  0  0  0  0
   22.7324   71.7336   -3.1036 P   0  0  2  0  0  0  0  0  0  0  0  0
   24.2381   71.1446   -3.1618 O   0  0  0  0  0  0  0  0  0  0  0  0
   21.9325   71.2726   -1.9196 O   0  0  0  0  0  0  0  0  0  0  0  0
   22.9164   73.3339   -3.2044 O   0  0  0  0  0  0  0  0  0  0  0  0
   24.6487   74.5949   -4.2170 O   0  0  0  0  0  0  0  0  0  0  0  0
   23.8511   77.0429   -0.9886 O   0  0  0  0  0  0  0  0  0  0  0  0
   23.0410   77.8581   -3.6206 O   0  0  0  0  0  0  0  0  0  0  0  0
   23.7877   74.1664   -0.6701 O   0  0  0  0  0  0  0  0  0  0  0  0
   23.5312   76.1296   -2.0417 C   0  0  1  0  0  0  0  0  0  0  0  0
   23.9297   76.7725   -3.3716 C   0  0  1  0  0  0  0  0  0  0  0  0
   24.2985   74.8270   -1.8230 C   0  0  2  0  0  0  0  0  0  0  0  0
   23.8661   75.7559   -4.5194 C   0  0  1  0  0  0  0  0  0  0  0  0
   24.2108   73.9082   -3.0429 C   0  0  1  0  0  0  0  0  0  0  0  0
   23.3668   77.8720   -1.1213 H   0  0  0  0  0  0  0  0  0  0  0  0
   23.0904   78.4925   -2.8882 H   0  0  0  0  0  0  0  0  0  0  0  0
   23.8491   74.7583    0.0953 H   0  0  0  0  0  0  0  0  0  0  0  0
   24.0432   75.4684   -6.8848 O   0  0  0  0  0  0  0  0  0  0  0  0
   24.4096   76.3325   -5.8249 C   0  0  0  0  0  0  0  0  0  0  0  0
   24.3822   75.8230   -7.7221 H   0  0  0  0  0  0  0  0  0  0  0  0
 25 28  1  0
 25 24  1  0
 25 26  1  1
 25 27  2  0
  1  4  1  0
  1 24  1  0
  1  2  1  1
  1  3  2  0
  6 11  1  0
  6 12  1  0
 29 36  1  0
 29 37  1  0
  9  7  1  6
  7 13  1  0
 10  8  1  6
  8 14  1  0
 37 28  1  6
  4  5  1  0
 33 30  1  1
 30 38  1  0
 34 31  1  6
 31 39  1  0
 35 32  1  1
 32 40  1  0
 41 42  1  0
 41 43  1  0
 15 19  2  0
 16 22  2  0
 12 17  1  1
 17 19  1  0
 17 20  1  0
 18 19  1  0
 18 22  1  0
 18 23  1  0
  9 10  1  0
  9 11  1  0
 10 12  1  0
 11  5  1  1
 33 34  1  0
 33 35  1  0
 34 36  1  0
 35 37  1  0
 36 42  1  6
 20 21  2  0
 21 22  1  0
M  CHG  2   2  -1  26  -1
M  END
>  <COMPND>  (485) 
    8629 

>  <AUTHOR>  (485) 
    GENERATED BY OPEN BABEL 3.1.1

>  <MASTER>  (485) 
        0    0    0    0    0    0    0    0   58    0   58    0

>  <minimizedAffinity>  (485) 
-6.97394

>  <CNNscore>  (485) 
0.8865693212

>  <CNNaffinity>  (485) 
4.6582574844

>  <CNN_VS>  (485) 
4.1298680305

>  <CNNaffinity_variance>  (485) 
0.2710968554

$$$$
486
     RDKit          3D

 43 45  0  0  0  0  0  0  0  0999 V2000
   21.5055   71.3566   -1.9935 P   0  0  2  0  0  0  0  0  0  0  0  0
   23.0595   70.9503   -2.1871 O   0  0  0  0  0  0  0  0  0  0  0  0
   20.8092   70.6736   -0.8533 O   0  0  0  0  0  0  0  0  0  0  0  0
   20.8568   71.1190   -3.4566 O   0  0  0  0  0  0  0  0  0  0  0  0
   19.9364   70.0546   -3.6233 C   0  0  0  0  0  0  0  0  0  0  0  0
   18.2701   71.3471   -4.7752 O   0  0  0  0  0  0  0  0  0  0  0  0
   16.2806   70.0937   -2.9146 O   0  0  0  0  0  0  0  0  0  0  0  0
   15.9536   68.6422   -5.2000 O   0  0  0  0  0  0  0  0  0  0  0  0
   17.4508   69.5254   -3.5001 C   0  0  1  0  0  0  0  0  0  0  0  0
   17.2159   69.2332   -4.9674 C   0  0  2  0  0  0  0  0  0  0  0  0
   18.5199   70.6093   -3.5588 C   0  0  1  0  0  0  0  0  0  0  0  0
   17.3376   70.6150   -5.5872 C   0  0  2  0  0  0  0  0  0  0  0  0
   15.5836   69.4200   -2.8662 H   0  0  0  0  0  0  0  0  0  0  0  0
   15.9258   67.7654   -4.7863 H   0  0  0  0  0  0  0  0  0  0  0  0
   15.7003   70.3615   -7.8748 O   0  0  0  0  0  0  0  0  0  0  0  0
   19.3332   70.4483  -10.7096 O   0  0  0  0  0  0  0  0  0  0  0  0
   17.8291   70.5691   -6.9354 N   0  0  0  0  0  0  0  0  0  0  0  0
   17.5105   70.4051   -9.2844 N   0  0  0  0  0  0  0  0  0  0  0  0
   16.9228   70.4390   -8.0134 C   0  0  0  0  0  0  0  0  0  0  0  0
   19.1958   70.6531   -7.1780 C   0  0  0  0  0  0  0  0  0  0  0  0
   19.7404   70.6179   -8.3960 C   0  0  0  0  0  0  0  0  0  0  0  0
   18.8630   70.4837   -9.5767 C   0  0  0  0  0  0  0  0  0  0  0  0
   16.8986   70.3146  -10.0507 H   0  0  0  0  0  0  0  0  0  0  0  0
   21.5626   72.9679   -1.8787 O   0  0  0  0  0  0  0  0  0  0  0  0
   20.4927   74.1013   -2.3074 P   0  0  2  0  0  0  0  0  0  0  0  0
   20.8762   75.3523   -1.3559 O   0  0  0  0  0  0  0  0  0  0  0  0
   19.0600   73.6640   -2.2080 O   0  0  0  0  0  0  0  0  0  0  0  0
   20.9516   74.5580   -3.7859 O   0  0  0  0  0  0  0  0  0  0  0  0
   22.6364   73.6218   -5.1648 O   0  0  0  0  0  0  0  0  0  0  0  0
   23.0115   77.5846   -6.2631 O   0  0  0  0  0  0  0  0  0  0  0  0
   21.8320   75.7116   -8.0930 O   0  0  0  0  0  0  0  0  0  0  0  0
   22.4783   76.8955   -3.5026 O   0  0  0  0  0  0  0  0  0  0  0  0
   22.3111   76.4063   -5.8550 C   0  0  1  0  0  0  0  0  0  0  0  0
   22.5335   75.3252   -6.9145 C   0  0  1  0  0  0  0  0  0  0  0  0
   22.8490   75.9500   -4.5001 C   0  0  2  0  0  0  0  0  0  0  0  0
   22.0396   73.9579   -6.4229 C   0  0  1  0  0  0  0  0  0  0  0  0
   22.3351   74.5579   -4.1282 C   0  0  1  0  0  0  0  0  0  0  0  0
   22.6744   77.8799   -7.1225 H   0  0  0  0  0  0  0  0  0  0  0  0
   22.1529   76.5767   -8.3928 H   0  0  0  0  0  0  0  0  0  0  0  0
   22.8096   77.7725   -3.7495 H   0  0  0  0  0  0  0  0  0  0  0  0
   23.2999   73.3475   -8.3589 O   0  0  0  0  0  0  0  0  0  0  0  0
   22.3938   72.8374   -7.3981 C   0  0  0  0  0  0  0  0  0  0  0  0
   23.5344   72.6452   -8.9862 H   0  0  0  0  0  0  0  0  0  0  0  0
 25 28  1  0
 25 24  1  0
 25 26  1  1
 25 27  2  0
  1  4  1  0
  1 24  1  0
  1  2  1  6
  1  3  2  0
  6 11  1  0
  6 12  1  0
 29 36  1  0
 29 37  1  0
  9  7  1  6
  7 13  1  0
 10  8  1  1
  8 14  1  0
 37 28  1  6
  4  5  1  0
 33 30  1  6
 30 38  1  0
 34 31  1  6
 31 39  1  0
 35 32  1  1
 32 40  1  0
 41 42  1  0
 41 43  1  0
 15 19  2  0
 16 22  2  0
 12 17  1  6
 17 19  1  0
 17 20  1  0
 18 19  1  0
 18 22  1  0
 18 23  1  0
  9 10  1  0
  9 11  1  0
 10 12  1  0
 11  5  1  6
 33 34  1  0
 33 35  1  0
 34 36  1  0
 35 37  1  0
 36 42  1  6
 20 21  2  0
 21 22  1  0
M  CHG  2   2  -1  26  -1
M  END
>  <COMPND>  (486) 
    8629 

>  <AUTHOR>  (486) 
    GENERATED BY OPEN BABEL 3.1.1

>  <MASTER>  (486) 
        0    0    0    0    0    0    0    0   58    0   58    0

>  <minimizedAffinity>  (486) 
-6.91734

>  <CNNscore>  (486) 
0.8827946782

>  <CNNaffinity>  (486) 
4.6882076263

>  <CNN_VS>  (486) 
4.1387248039

>  <CNNaffinity_variance>  (486) 
0.4550866485

$$$$
487
     RDKit          3D

 43 45  0  0  0  0  0  0  0  0999 V2000
   21.5436   72.7195   -4.8794 P   0  0  2  0  0  0  0  0  0  0  0  0
   21.5241   74.3366   -4.9266 O   0  0  0  0  0  0  0  0  0  0  0  0
   22.4003   72.0653   -5.9232 O   0  0  0  0  0  0  0  0  0  0  0  0
   19.9780   72.3115   -4.8986 O   0  0  0  0  0  0  0  0  0  0  0  0
   19.4687   71.5345   -3.8287 C   0  0  0  0  0  0  0  0  0  0  0  0
   17.5698   71.8409   -5.2690 O   0  0  0  0  0  0  0  0  0  0  0  0
   16.0047   70.3100   -3.2202 O   0  0  0  0  0  0  0  0  0  0  0  0
   16.4714   68.4292   -5.1389 O   0  0  0  0  0  0  0  0  0  0  0  0
   17.3553   70.1301   -3.6432 C   0  0  1  0  0  0  0  0  0  0  0  0
   17.3957   69.4909   -5.0156 C   0  0  2  0  0  0  0  0  0  0  0  0
   17.9489   71.5066   -3.9158 C   0  0  1  0  0  0  0  0  0  0  0  0
   17.0614   70.6650   -5.9200 C   0  0  2  0  0  0  0  0  0  0  0  0
   15.6046   69.4444   -3.0397 H   0  0  0  0  0  0  0  0  0  0  0  0
   16.7271   67.7070   -4.5441 H   0  0  0  0  0  0  0  0  0  0  0  0
   15.6411   70.7186   -8.3608 O   0  0  0  0  0  0  0  0  0  0  0  0
   19.5002   70.2105  -10.8286 O   0  0  0  0  0  0  0  0  0  0  0  0
   17.6699   70.5492   -7.2153 N   0  0  0  0  0  0  0  0  0  0  0  0
   17.5638   70.4657   -9.5876 N   0  0  0  0  0  0  0  0  0  0  0  0
   16.8667   70.5871   -8.3788 C   0  0  0  0  0  0  0  0  0  0  0  0
   19.0484   70.4004   -7.3225 C   0  0  0  0  0  0  0  0  0  0  0  0
   19.6977   70.2847   -8.4828 C   0  0  0  0  0  0  0  0  0  0  0  0
   18.9323   70.3146   -9.7458 C   0  0  0  0  0  0  0  0  0  0  0  0
   17.0249   70.4890  -10.4115 H   0  0  0  0  0  0  0  0  0  0  0  0
   21.9822   72.4057   -3.3556 O   0  0  0  0  0  0  0  0  0  0  0  0
   23.4409   72.1862   -2.6946 P   0  0  2  0  0  0  0  0  0  0  0  0
   24.2272   73.5495   -3.0700 O   0  0  0  0  0  0  0  0  0  0  0  0
   24.1340   70.9299   -3.1364 O   0  0  0  0  0  0  0  0  0  0  0  0
   23.1878   72.2865   -1.1038 O   0  0  0  0  0  0  0  0  0  0  0  0
   23.9365   70.7271    0.5163 O   0  0  0  0  0  0  0  0  0  0  0  0
   20.5263   72.0693    2.4189 O   0  0  0  0  0  0  0  0  0  0  0  0
   23.1048   72.8622    3.4040 O   0  0  0  0  0  0  0  0  0  0  0  0
   20.5244   71.6905   -0.4510 O   0  0  0  0  0  0  0  0  0  0  0  0
   21.6912   72.1852    1.5973 C   0  0  1  0  0  0  0  0  0  0  0  0
   22.9133   71.8261    2.4447 C   0  0  1  0  0  0  0  0  0  0  0  0
   21.5614   71.2327    0.4101 C   0  0  2  0  0  0  0  0  0  0  0  0
   24.1656   71.6679    1.5719 C   0  0  1  0  0  0  0  0  0  0  0  0
   22.8763   71.1101   -0.3620 C   0  0  1  0  0  0  0  0  0  0  0  0
   20.6021   72.6719    3.1743 H   0  0  0  0  0  0  0  0  0  0  0  0
   22.3068   72.9521    3.9482 H   0  0  0  0  0  0  0  0  0  0  0  0
   19.6974   71.7636    0.0495 H   0  0  0  0  0  0  0  0  0  0  0  0
   25.0956   69.8253    2.7756 O   0  0  0  0  0  0  0  0  0  0  0  0
   25.3606   71.1566    2.3735 C   0  0  0  0  0  0  0  0  0  0  0  0
   25.8479   69.4866    3.2865 H   0  0  0  0  0  0  0  0  0  0  0  0
 25 28  1  0
 25 24  1  0
 25 26  1  6
 25 27  2  0
  1  4  1  0
  1 24  1  0
  1  2  1  6
  1  3  2  0
  6 11  1  0
  6 12  1  0
 29 36  1  0
 29 37  1  0
  9  7  1  6
  7 13  1  0
 10  8  1  1
  8 14  1  0
 37 28  1  1
  4  5  1  0
 33 30  1  1
 30 38  1  0
 34 31  1  1
 31 39  1  0
 35 32  1  6
 32 40  1  0
 41 42  1  0
 41 43  1  0
 15 19  2  0
 16 22  2  0
 12 17  1  6
 17 19  1  0
 17 20  1  0
 18 19  1  0
 18 22  1  0
 18 23  1  0
  9 10  1  0
  9 11  1  0
 10 12  1  0
 11  5  1  6
 33 34  1  0
 33 35  1  0
 34 36  1  0
 35 37  1  0
 36 42  1  1
 20 21  2  0
 21 22  1  0
M  CHG  2   2  -1  26  -1
M  END
>  <COMPND>  (487) 
    8629 

>  <AUTHOR>  (487) 
    GENERATED BY OPEN BABEL 3.1.1

>  <MASTER>  (487) 
        0    0    0    0    0    0    0    0   58    0   58    0

>  <minimizedAffinity>  (487) 
-8.28900

>  <CNNscore>  (487) 
0.8710118532

>  <CNNaffinity>  (487) 
4.7237186432

>  <CNN_VS>  (487) 
4.1144146919

>  <CNNaffinity_variance>  (487) 
0.0511046872

$$$$
488
     RDKit          3D

 43 45  0  0  0  0  0  0  0  0999 V2000
   22.6108   71.9589   -3.3305 P   0  0  2  0  0  0  0  0  0  0  0  0
   22.6051   73.5287   -3.7219 O   0  0  0  0  0  0  0  0  0  0  0  0
   23.9497   71.2878   -3.4219 O   0  0  0  0  0  0  0  0  0  0  0  0
   21.4424   71.3245   -4.2525 O   0  0  0  0  0  0  0  0  0  0  0  0
   20.6358   70.2945   -3.7082 C   0  0  0  0  0  0  0  0  0  0  0  0
   18.8171   71.5200   -4.6902 O   0  0  0  0  0  0  0  0  0  0  0  0
   17.0942   70.3070   -2.5569 O   0  0  0  0  0  0  0  0  0  0  0  0
   16.5171   68.7685   -4.7333 O   0  0  0  0  0  0  0  0  0  0  0  0
   18.1944   69.7345   -3.2619 C   0  0  1  0  0  0  0  0  0  0  0  0
   17.7871   69.3857   -4.6783 C   0  0  2  0  0  0  0  0  0  0  0  0
   19.2278   70.8308   -3.4890 C   0  0  1  0  0  0  0  0  0  0  0  0
   17.8062   70.7454   -5.3556 C   0  0  2  0  0  0  0  0  0  0  0  0
   16.4212   69.6256   -2.3999 H   0  0  0  0  0  0  0  0  0  0  0  0
   16.5566   67.9070   -4.2894 H   0  0  0  0  0  0  0  0  0  0  0  0
   15.9195   70.2752   -7.4043 O   0  0  0  0  0  0  0  0  0  0  0  0
   19.1618   70.4262  -10.6763 O   0  0  0  0  0  0  0  0  0  0  0  0
   18.1297   70.6574   -6.7516 N   0  0  0  0  0  0  0  0  0  0  0  0
   17.5354   70.3510   -9.0318 N   0  0  0  0  0  0  0  0  0  0  0  0
   17.1078   70.4173   -7.6996 C   0  0  0  0  0  0  0  0  0  0  0  0
   19.4477   70.8089   -7.1684 C   0  0  0  0  0  0  0  0  0  0  0  0
   19.8391   70.7416   -8.4426 C   0  0  0  0  0  0  0  0  0  0  0  0
   18.8335   70.4937   -9.4958 C   0  0  0  0  0  0  0  0  0  0  0  0
   16.8409   70.1841   -9.7098 H   0  0  0  0  0  0  0  0  0  0  0  0
   21.9533   71.9502   -1.8538 O   0  0  0  0  0  0  0  0  0  0  0  0
   22.6326   72.0244   -0.3889 P   0  0  2  0  0  0  0  0  0  0  0  0
   23.8140   73.1127   -0.5824 O   0  0  0  0  0  0  0  0  0  0  0  0
   23.0933   70.6984    0.1436 O   0  0  0  0  0  0  0  0  0  0  0  0
   21.5374   72.7710    0.5320 O   0  0  0  0  0  0  0  0  0  0  0  0
   20.8424   74.8719    1.3804 O   0  0  0  0  0  0  0  0  0  0  0  0
   21.8640   73.0310    4.9326 O   0  0  0  0  0  0  0  0  0  0  0  0
   19.0949   73.4593    4.3027 O   0  0  0  0  0  0  0  0  0  0  0  0
   23.4653   72.5854    2.5627 O   0  0  0  0  0  0  0  0  0  0  0  0
   21.3518   73.0958    3.5989 C   0  0  1  0  0  0  0  0  0  0  0  0
   20.1677   74.0646    3.5865 C   0  0  1  0  0  0  0  0  0  0  0  0
   22.4560   73.5843    2.6633 C   0  0  2  0  0  0  0  0  0  0  0  0
   19.7346   74.3916    2.1510 C   0  0  1  0  0  0  0  0  0  0  0  0
   21.9101   73.9279    1.2762 C   0  0  1  0  0  0  0  0  0  0  0  0
   21.1680   72.7210    5.5317 H   0  0  0  0  0  0  0  0  0  0  0  0
   19.3817   73.2574    5.2073 H   0  0  0  0  0  0  0  0  0  0  0  0
   23.8030   72.3769    3.4472 H   0  0  0  0  0  0  0  0  0  0  0  0
   17.4020   74.8706    2.3478 O   0  0  0  0  0  0  0  0  0  0  0  0
   18.6598   75.4757    2.1108 C   0  0  0  0  0  0  0  0  0  0  0  0
   16.7083   75.5488    2.3255 H   0  0  0  0  0  0  0  0  0  0  0  0
 25 28  1  0
 25 24  1  0
 25 26  1  6
 25 27  2  0
  1  4  1  0
  1 24  1  0
  1  2  1  6
  1  3  2  0
  6 11  1  0
  6 12  1  0
 29 36  1  0
 29 37  1  0
  9  7  1  1
  7 13  1  0
 10  8  1  1
  8 14  1  0
 37 28  1  1
  4  5  1  0
 33 30  1  1
 30 38  1  0
 34 31  1  1
 31 39  1  0
 35 32  1  6
 32 40  1  0
 41 42  1  0
 41 43  1  0
 15 19  2  0
 16 22  2  0
 12 17  1  6
 17 19  1  0
 17 20  1  0
 18 19  1  0
 18 22  1  0
 18 23  1  0
  9 10  1  0
  9 11  1  0
 10 12  1  0
 11  5  1  6
 33 34  1  0
 33 35  1  0
 34 36  1  0
 35 37  1  0
 36 42  1  1
 20 21  2  0
 21 22  1  0
M  CHG  2   2  -1  26  -1
M  END
>  <COMPND>  (488) 
    8629 

>  <AUTHOR>  (488) 
    GENERATED BY OPEN BABEL 3.1.1

>  <MASTER>  (488) 
        0    0    0    0    0    0    0    0   58    0   58    0

>  <minimizedAffinity>  (488) 
-6.96981

>  <CNNscore>  (488) 
0.8464754820

>  <CNNaffinity>  (488) 
4.6149415970

>  <CNN_VS>  (488) 
3.9064350128

>  <CNNaffinity_variance>  (488) 
0.0322109796

$$$$
489
     RDKit          3D

 43 45  0  0  0  0  0  0  0  0999 V2000
   21.6862   71.7690   -3.7884 P   0  0  2  0  0  0  0  0  0  0  0  0
   22.0377   71.7364   -5.3673 O   0  0  0  0  0  0  0  0  0  0  0  0
   22.3068   70.6691   -2.9781 O   0  0  0  0  0  0  0  0  0  0  0  0
   20.0703   71.8429   -3.7517 O   0  0  0  0  0  0  0  0  0  0  0  0
   19.3450   70.6548   -3.4867 C   0  0  0  0  0  0  0  0  0  0  0  0
   17.6153   71.5668   -4.8832 O   0  0  0  0  0  0  0  0  0  0  0  0
   15.6830   70.0696   -3.1467 O   0  0  0  0  0  0  0  0  0  0  0  0
   15.8654   68.4710   -5.3485 O   0  0  0  0  0  0  0  0  0  0  0  0
   16.9912   69.6930   -3.5735 C   0  0  1  0  0  0  0  0  0  0  0  0
   16.9724   69.2907   -5.0334 C   0  0  2  0  0  0  0  0  0  0  0  0
   17.8552   70.9477   -3.6004 C   0  0  1  0  0  0  0  0  0  0  0  0
   16.9189   70.6391   -5.7313 C   0  0  2  0  0  0  0  0  0  0  0  0
   15.1129   69.2845   -3.1213 H   0  0  0  0  0  0  0  0  0  0  0  0
   15.9455   67.6252   -4.8806 H   0  0  0  0  0  0  0  0  0  0  0  0
   15.5370   70.5992   -8.1944 O   0  0  0  0  0  0  0  0  0  0  0  0
   19.4642   70.5480  -10.6059 O   0  0  0  0  0  0  0  0  0  0  0  0
   17.5552   70.6155   -7.0181 N   0  0  0  0  0  0  0  0  0  0  0  0
   17.4936   70.5739   -9.3931 N   0  0  0  0  0  0  0  0  0  0  0  0
   16.7698   70.5957   -8.1941 C   0  0  0  0  0  0  0  0  0  0  0  0
   18.9432   70.6126   -7.1048 C   0  0  0  0  0  0  0  0  0  0  0  0
   19.6181   70.5904   -8.2560 C   0  0  0  0  0  0  0  0  0  0  0  0
   18.8726   70.5688   -9.5310 C   0  0  0  0  0  0  0  0  0  0  0  0
   16.9674   70.5595  -10.2254 H   0  0  0  0  0  0  0  0  0  0  0  0
   22.1282   73.2603   -3.3484 O   0  0  0  0  0  0  0  0  0  0  0  0
   23.5898   73.9363   -3.2081 P   0  0  2  0  0  0  0  0  0  0  0  0
   23.2814   75.5186   -3.3442 O   0  0  0  0  0  0  0  0  0  0  0  0
   24.6044   73.4169   -4.1852 O   0  0  0  0  0  0  0  0  0  0  0  0
   23.9879   73.7305   -1.6575 O   0  0  0  0  0  0  0  0  0  0  0  0
   22.7494   72.6356    0.0406 O   0  0  0  0  0  0  0  0  0  0  0  0
   24.5577   75.5616    2.3252 O   0  0  0  0  0  0  0  0  0  0  0  0
   25.4356   72.8370    2.5571 O   0  0  0  0  0  0  0  0  0  0  0  0
   23.6260   76.1837   -0.3439 O   0  0  0  0  0  0  0  0  0  0  0  0
   24.4694   74.6039    1.2667 C   0  0  1  0  0  0  0  0  0  0  0  0
   24.2395   73.2241    1.8864 C   0  0  1  0  0  0  0  0  0  0  0  0
   23.3086   74.9809    0.3481 C   0  0  2  0  0  0  0  0  0  0  0  0
   23.8695   72.1901    0.8144 C   0  0  1  0  0  0  0  0  0  0  0  0
   22.9909   73.8642   -0.6479 C   0  0  1  0  0  0  0  0  0  0  0  0
   25.2932   75.3283    2.9119 H   0  0  0  0  0  0  0  0  0  0  0  0
   25.6584   73.4984    3.2310 H   0  0  0  0  0  0  0  0  0  0  0  0
   23.8248   76.8829    0.2976 H   0  0  0  0  0  0  0  0  0  0  0  0
   24.6630   70.0967    1.6492 O   0  0  0  0  0  0  0  0  0  0  0  0
   23.4824   70.8455    1.4263 C   0  0  0  0  0  0  0  0  0  0  0  0
   24.4321   69.2384    2.0387 H   0  0  0  0  0  0  0  0  0  0  0  0
 25 28  1  0
 25 24  1  0
 25 26  1  1
 25 27  2  0
  1  4  1  0
  1 24  1  0
  1  2  1  6
  1  3  2  0
  6 11  1  0
  6 12  1  0
 29 36  1  0
 29 37  1  0
  9  7  1  6
  7 13  1  0
 10  8  1  1
  8 14  1  0
 37 28  1  6
  4  5  1  0
 33 30  1  1
 30 38  1  0
 34 31  1  6
 31 39  1  0
 35 32  1  6
 32 40  1  0
 41 42  1  0
 41 43  1  0
 15 19  2  0
 16 22  2  0
 12 17  1  6
 17 19  1  0
 17 20  1  0
 18 19  1  0
 18 22  1  0
 18 23  1  0
  9 10  1  0
  9 11  1  0
 10 12  1  0
 11  5  1  6
 33 34  1  0
 33 35  1  0
 34 36  1  0
 35 37  1  0
 36 42  1  1
 20 21  2  0
 21 22  1  0
M  CHG  2   2  -1  26  -1
M  END
>  <COMPND>  (489) 
    8629 

>  <AUTHOR>  (489) 
    GENERATED BY OPEN BABEL 3.1.1

>  <MASTER>  (489) 
        0    0    0    0    0    0    0    0   58    0   58    0

>  <minimizedAffinity>  (489) 
-7.13334

>  <CNNscore>  (489) 
0.8442308307

>  <CNNaffinity>  (489) 
4.6247568130

>  <CNN_VS>  (489) 
3.9043622017

>  <CNNaffinity_variance>  (489) 
0.0266707186

$$$$
490
     RDKit          3D

 43 45  0  0  0  0  0  0  0  0999 V2000
   22.7005   72.6583   -4.3244 P   0  0  2  0  0  0  0  0  0  0  0  0
   23.0358   73.6215   -5.5803 O   0  0  0  0  0  0  0  0  0  0  0  0
   23.8279   71.7690   -3.8890 O   0  0  0  0  0  0  0  0  0  0  0  0
   21.3401   71.9024   -4.7669 O   0  0  0  0  0  0  0  0  0  0  0  0
   20.7779   70.9490   -3.8821 C   0  0  0  0  0  0  0  0  0  0  0  0
   18.7717   71.8186   -4.8785 O   0  0  0  0  0  0  0  0  0  0  0  0
   17.3079   70.5466   -2.5915 O   0  0  0  0  0  0  0  0  0  0  0  0
   16.8976   68.7716   -4.6207 O   0  0  0  0  0  0  0  0  0  0  0  0
   18.4586   70.0828   -3.2958 C   0  0  1  0  0  0  0  0  0  0  0  0
   18.0650   69.5667   -4.6641 C   0  0  2  0  0  0  0  0  0  0  0  0
   19.3138   71.2940   -3.6467 C   0  0  1  0  0  0  0  0  0  0  0  0
   17.8654   70.8563   -5.4420 C   0  0  2  0  0  0  0  0  0  0  0  0
   16.7464   69.7907   -2.3564 H   0  0  0  0  0  0  0  0  0  0  0  0
   17.0755   67.9631   -4.1153 H   0  0  0  0  0  0  0  0  0  0  0  0
   15.9086   70.5634   -7.4577 O   0  0  0  0  0  0  0  0  0  0  0  0
   19.1004   70.2769  -10.7700 O   0  0  0  0  0  0  0  0  0  0  0  0
   18.1570   70.7038   -6.8395 N   0  0  0  0  0  0  0  0  0  0  0  0
   17.4995   70.4212   -9.1054 N   0  0  0  0  0  0  0  0  0  0  0  0
   17.1012   70.5629   -7.7700 C   0  0  0  0  0  0  0  0  0  0  0  0
   19.4777   70.6953   -7.2749 C   0  0  0  0  0  0  0  0  0  0  0  0
   19.8408   70.5579   -8.5518 C   0  0  0  0  0  0  0  0  0  0  0  0
   18.7987   70.4053   -9.5875 C   0  0  0  0  0  0  0  0  0  0  0  0
   16.7810   70.3211   -9.7713 H   0  0  0  0  0  0  0  0  0  0  0  0
   22.1887   73.6968   -3.1964 O   0  0  0  0  0  0  0  0  0  0  0  0
   23.0059   74.5750   -2.1129 P   0  0  2  0  0  0  0  0  0  0  0  0
   22.3081   76.0312   -2.2133 O   0  0  0  0  0  0  0  0  0  0  0  0
   24.4923   74.5847   -2.3238 O   0  0  0  0  0  0  0  0  0  0  0  0
   22.5372   73.9963   -0.6809 O   0  0  0  0  0  0  0  0  0  0  0  0
   23.5916   73.7341    1.4253 O   0  0  0  0  0  0  0  0  0  0  0  0
   21.6638   70.0898    1.1943 O   0  0  0  0  0  0  0  0  0  0  0  0
   20.6989   72.0915    3.0137 O   0  0  0  0  0  0  0  0  0  0  0  0
   22.8444   71.2519   -1.1796 O   0  0  0  0  0  0  0  0  0  0  0  0
   21.8210   71.4961    0.9870 C   0  0  1  0  0  0  0  0  0  0  0  0
   21.9593   72.1698    2.3537 C   0  0  1  0  0  0  0  0  0  0  0  0
   23.0680   71.7394    0.1390 C   0  0  2  0  0  0  0  0  0  0  0  0
   22.3962   73.6337    2.2081 C   0  0  1  0  0  0  0  0  0  0  0  0
   23.4439   73.2217    0.0996 C   0  0  1  0  0  0  0  0  0  0  0  0
   20.8734   69.9285    1.7317 H   0  0  0  0  0  0  0  0  0  0  0  0
   20.4343   71.1620    3.0988 H   0  0  0  0  0  0  0  0  0  0  0  0
   22.6075   70.3126   -1.1411 H   0  0  0  0  0  0  0  0  0  0  0  0
   23.6028   73.4531    4.2625 O   0  0  0  0  0  0  0  0  0  0  0  0
   22.6927   74.2792    3.5599 C   0  0  0  0  0  0  0  0  0  0  0  0
   23.8009   73.8517    5.1248 H   0  0  0  0  0  0  0  0  0  0  0  0
 25 28  1  0
 25 24  1  0
 25 26  1  1
 25 27  2  0
  1  4  1  0
  1 24  1  0
  1  2  1  6
  1  3  2  0
  6 11  1  0
  6 12  1  0
 29 36  1  0
 29 37  1  0
  9  7  1  1
  7 13  1  0
 10  8  1  1
  8 14  1  0
 37 28  1  1
  4  5  1  0
 33 30  1  1
 30 38  1  0
 34 31  1  6
 31 39  1  0
 35 32  1  6
 32 40  1  0
 41 42  1  0
 41 43  1  0
 15 19  2  0
 16 22  2  0
 12 17  1  6
 17 19  1  0
 17 20  1  0
 18 19  1  0
 18 22  1  0
 18 23  1  0
  9 10  1  0
  9 11  1  0
 10 12  1  0
 11  5  1  6
 33 34  1  0
 33 35  1  0
 34 36  1  0
 35 37  1  0
 36 42  1  1
 20 21  2  0
 21 22  1  0
M  CHG  2   2  -1  26  -1
M  END
>  <COMPND>  (490) 
    8629 

>  <AUTHOR>  (490) 
    GENERATED BY OPEN BABEL 3.1.1

>  <MASTER>  (490) 
        0    0    0    0    0    0    0    0   58    0   58    0

>  <minimizedAffinity>  (490) 
-7.74694

>  <CNNscore>  (490) 
0.8315424919

>  <CNNaffinity>  (490) 
4.6452188492

>  <CNN_VS>  (490) 
3.8626968861

>  <CNNaffinity_variance>  (490) 
0.0425826907

$$$$
491
     RDKit          3D

 43 45  0  0  0  0  0  0  0  0999 V2000
   22.1378   73.1967   -6.5974 P   0  0  2  0  0  0  0  0  0  0  0  0
   23.2490   72.3399   -5.7921 O   0  0  0  0  0  0  0  0  0  0  0  0
   21.3028   74.1089   -5.7478 O   0  0  0  0  0  0  0  0  0  0  0  0
   21.3238   72.0816   -7.4410 O   0  0  0  0  0  0  0  0  0  0  0  0
   19.9117   72.1798   -7.5051 C   0  0  0  0  0  0  0  0  0  0  0  0
   18.8252   70.0777   -7.0877 O   0  0  0  0  0  0  0  0  0  0  0  0
   18.1125   70.0808  -10.0002 O   0  0  0  0  0  0  0  0  0  0  0  0
   15.7930   70.8950   -8.8198 O   0  0  0  0  0  0  0  0  0  0  0  0
   18.1928   71.1763   -9.0899 C   0  0  1  0  0  0  0  0  0  0  0  0
   17.0066   71.1657   -8.1485 C   0  0  2  0  0  0  0  0  0  0  0  0
   19.3549   70.9131   -8.1402 C   0  0  1  0  0  0  0  0  0  0  0  0
   17.3906   70.0689   -7.1699 C   0  0  2  0  0  0  0  0  0  0  0  0
   17.3776   70.2265  -10.6171 H   0  0  0  0  0  0  0  0  0  0  0  0
   15.5921   71.6213   -9.4305 H   0  0  0  0  0  0  0  0  0  0  0  0
   16.4337   68.0223   -5.4747 O   0  0  0  0  0  0  0  0  0  0  0  0
   15.3258   71.0311   -2.1640 O   0  0  0  0  0  0  0  0  0  0  0  0
   16.8471   70.2891   -5.8594 N   0  0  0  0  0  0  0  0  0  0  0  0
   15.8830   69.5221   -3.8275 N   0  0  0  0  0  0  0  0  0  0  0  0
   16.3933   69.1927   -5.0897 C   0  0  0  0  0  0  0  0  0  0  0  0
   16.7685   71.5806   -5.3498 C   0  0  0  0  0  0  0  0  0  0  0  0
   16.2780   71.8780   -4.1448 C   0  0  0  0  0  0  0  0  0  0  0  0
   15.7826   70.7900   -3.2771 C   0  0  0  0  0  0  0  0  0  0  0  0
   15.5605   68.7744   -3.2737 H   0  0  0  0  0  0  0  0  0  0  0  0
   23.0100   73.9465   -7.7332 O   0  0  0  0  0  0  0  0  0  0  0  0
   23.2969   75.5169   -7.9870 P   0  0  2  0  0  0  0  0  0  0  0  0
   24.4716   75.8555   -6.9273 O   0  0  0  0  0  0  0  0  0  0  0  0
   22.0828   76.3916   -7.8662 O   0  0  0  0  0  0  0  0  0  0  0  0
   24.0203   75.5722   -9.4288 O   0  0  0  0  0  0  0  0  0  0  0  0
   24.9146   73.7942  -10.7155 O   0  0  0  0  0  0  0  0  0  0  0  0
   27.6205   76.7518  -11.7063 O   0  0  0  0  0  0  0  0  0  0  0  0
   25.6843   75.8937  -13.6461 O   0  0  0  0  0  0  0  0  0  0  0  0
   26.6088   76.5680   -9.0004 O   0  0  0  0  0  0  0  0  0  0  0  0
   26.3363   76.2208  -11.3682 C   0  0  1  0  0  0  0  0  0  0  0  0
   25.9466   75.1937  -12.4331 C   0  0  1  0  0  0  0  0  0  0  0  0
   26.4144   75.5644   -9.9911 C   0  0  2  0  0  0  0  0  0  0  0  0
   24.7121   74.3902  -12.0021 C   0  0  1  0  0  0  0  0  0  0  0  0
   25.1569   74.7502   -9.6814 C   0  0  1  0  0  0  0  0  0  0  0  0
   27.5777   77.1704  -12.5795 H   0  0  0  0  0  0  0  0  0  0  0  0
   26.4714   76.3973  -13.9069 H   0  0  0  0  0  0  0  0  0  0  0  0
   27.4079   77.0762   -9.2076 H   0  0  0  0  0  0  0  0  0  0  0  0
   23.8358   73.8120  -14.1484 O   0  0  0  0  0  0  0  0  0  0  0  0
   24.4000   73.2555  -12.9753 C   0  0  0  0  0  0  0  0  0  0  0  0
   23.6323   73.1013  -14.7771 H   0  0  0  0  0  0  0  0  0  0  0  0
 25 28  1  0
 25 24  1  0
 25 26  1  1
 25 27  2  0
  1  4  1  0
  1 24  1  0
  1  2  1  1
  1  3  2  0
  6 11  1  0
  6 12  1  0
 29 36  1  0
 29 37  1  0
  9  7  1  6
  7 13  1  0
 10  8  1  6
  8 14  1  0
 37 28  1  6
  4  5  1  0
 33 30  1  6
 30 38  1  0
 34 31  1  6
 31 39  1  0
 35 32  1  1
 32 40  1  0
 41 42  1  0
 41 43  1  0
 15 19  2  0
 16 22  2  0
 12 17  1  1
 17 19  1  0
 17 20  1  0
 18 19  1  0
 18 22  1  0
 18 23  1  0
  9 10  1  0
  9 11  1  0
 10 12  1  0
 11  5  1  1
 33 34  1  0
 33 35  1  0
 34 36  1  0
 35 37  1  0
 36 42  1  6
 20 21  2  0
 21 22  1  0
M  CHG  2   2  -1  26  -1
M  END
>  <COMPND>  (491) 
    8629 

>  <AUTHOR>  (491) 
    GENERATED BY OPEN BABEL 3.1.1

>  <MASTER>  (491) 
        0    0    0    0    0    0    0    0   58    0   58    0

>  <minimizedAffinity>  (491) 
-7.18009

>  <CNNscore>  (491) 
0.7540408373

>  <CNNaffinity>  (491) 
4.6882414818

>  <CNN_VS>  (491) 
3.5351254940

>  <CNNaffinity_variance>  (491) 
0.6097782850

$$$$
492
     RDKit          3D

 43 45  0  0  0  0  0  0  0  0999 V2000
   23.2139   72.4456   -3.0393 P   0  0  2  0  0  0  0  0  0  0  0  0
   24.2620   72.5143   -4.2698 O   0  0  0  0  0  0  0  0  0  0  0  0
   23.3061   71.2075   -2.1967 O   0  0  0  0  0  0  0  0  0  0  0  0
   21.7788   72.7161   -3.7359 O   0  0  0  0  0  0  0  0  0  0  0  0
   20.9622   71.6033   -4.0561 C   0  0  0  0  0  0  0  0  0  0  0  0
   18.9393   72.3661   -5.1050 O   0  0  0  0  0  0  0  0  0  0  0  0
   17.5163   71.3602   -2.6650 O   0  0  0  0  0  0  0  0  0  0  0  0
   17.0641   69.3739   -4.4779 O   0  0  0  0  0  0  0  0  0  0  0  0
   18.6525   70.8168   -3.3350 C   0  0  1  0  0  0  0  0  0  0  0  0
   18.2321   70.1544   -4.6304 C   0  0  2  0  0  0  0  0  0  0  0  0
   19.5035   71.9783   -3.8331 C   0  0  1  0  0  0  0  0  0  0  0  0
   18.0206   71.3513   -5.5420 C   0  0  2  0  0  0  0  0  0  0  0  0
   16.9578   70.6371   -2.3375 H   0  0  0  0  0  0  0  0  0  0  0  0
   17.2498   68.6254   -3.8897 H   0  0  0  0  0  0  0  0  0  0  0  0
   16.0862   70.3941   -7.3641 O   0  0  0  0  0  0  0  0  0  0  0  0
   19.1508   70.2060  -10.8013 O   0  0  0  0  0  0  0  0  0  0  0  0
   18.2854   71.0443   -6.9193 N   0  0  0  0  0  0  0  0  0  0  0  0
   17.6137   70.3014   -9.0741 N   0  0  0  0  0  0  0  0  0  0  0  0
   17.2441   70.5684   -7.7497 C   0  0  0  0  0  0  0  0  0  0  0  0
   19.5660   71.2160   -7.4337 C   0  0  0  0  0  0  0  0  0  0  0  0
   19.9024   70.9555   -8.6987 C   0  0  0  0  0  0  0  0  0  0  0  0
   18.8729   70.4548   -9.6322 C   0  0  0  0  0  0  0  0  0  0  0  0
   16.9046   69.9685   -9.6710 H   0  0  0  0  0  0  0  0  0  0  0  0
   23.4970   73.8237   -2.2433 O   0  0  0  0  0  0  0  0  0  0  0  0
   24.1359   75.2235   -2.7384 P   0  0  2  0  0  0  0  0  0  0  0  0
   25.5191   74.7708   -3.4450 O   0  0  0  0  0  0  0  0  0  0  0  0
   24.3018   76.2436   -1.6494 O   0  0  0  0  0  0  0  0  0  0  0  0
   23.1903   75.6953   -3.9584 O   0  0  0  0  0  0  0  0  0  0  0  0
   23.6852   74.9762   -6.1617 O   0  0  0  0  0  0  0  0  0  0  0  0
   21.3604   78.2713   -7.0496 O   0  0  0  0  0  0  0  0  0  0  0  0
   20.3010   75.6347   -7.4663 O   0  0  0  0  0  0  0  0  0  0  0  0
   23.2075   78.3651   -4.8227 O   0  0  0  0  0  0  0  0  0  0  0  0
   21.7606   77.1242   -6.2951 C   0  0  1  0  0  0  0  0  0  0  0  0
   21.6769   75.8979   -7.2061 C   0  0  1  0  0  0  0  0  0  0  0  0
   23.1904   77.3279   -5.7976 C   0  0  2  0  0  0  0  0  0  0  0  0
   22.3405   74.6773   -6.5544 C   0  0  1  0  0  0  0  0  0  0  0  0
   23.7735   76.0405   -5.2122 C   0  0  1  0  0  0  0  0  0  0  0  0
   20.4532   78.1486   -7.3681 H   0  0  0  0  0  0  0  0  0  0  0  0
   19.8937   76.4134   -7.8774 H   0  0  0  0  0  0  0  0  0  0  0  0
   22.8362   79.1747   -5.2056 H   0  0  0  0  0  0  0  0  0  0  0  0
   23.1952   72.4741   -6.9068 O   0  0  0  0  0  0  0  0  0  0  0  0
   22.4086   73.4862   -7.5076 C   0  0  0  0  0  0  0  0  0  0  0  0
   23.2471   71.7095   -7.5021 H   0  0  0  0  0  0  0  0  0  0  0  0
 25 28  1  0
 25 24  1  0
 25 26  1  6
 25 27  2  0
  1  4  1  0
  1 24  1  0
  1  2  1  6
  1  3  2  0
  6 11  1  0
  6 12  1  0
 29 36  1  0
 29 37  1  0
  9  7  1  6
  7 13  1  0
 10  8  1  1
  8 14  1  0
 37 28  1  1
  4  5  1  0
 33 30  1  6
 30 38  1  0
 34 31  1  1
 31 39  1  0
 35 32  1  1
 32 40  1  0
 41 42  1  0
 41 43  1  0
 15 19  2  0
 16 22  2  0
 12 17  1  6
 17 19  1  0
 17 20  1  0
 18 19  1  0
 18 22  1  0
 18 23  1  0
  9 10  1  0
  9 11  1  0
 10 12  1  0
 11  5  1  6
 33 34  1  0
 33 35  1  0
 34 36  1  0
 35 37  1  0
 36 42  1  6
 20 21  2  0
 21 22  1  0
M  CHG  2   2  -1  26  -1
M  END
>  <COMPND>  (492) 
    8629 

>  <AUTHOR>  (492) 
    GENERATED BY OPEN BABEL 3.1.1

>  <MASTER>  (492) 
        0    0    0    0    0    0    0    0   58    0   58    0

>  <minimizedAffinity>  (492) 
-6.72063

>  <CNNscore>  (492) 
0.7353264093

>  <CNNaffinity>  (492) 
4.4190163612

>  <CNN_VS>  (492) 
3.2494194508

>  <CNNaffinity_variance>  (492) 
0.1889255494

$$$$
493
     RDKit          3D

 43 45  0  0  0  0  0  0  0  0999 V2000
   21.8447   72.5207   -5.6397 P   0  0  2  0  0  0  0  0  0  0  0  0
   21.1261   73.9461   -5.3764 O   0  0  0  0  0  0  0  0  0  0  0  0
   23.1186   72.5895   -6.4295 O   0  0  0  0  0  0  0  0  0  0  0  0
   20.6717   71.6061   -6.2766 O   0  0  0  0  0  0  0  0  0  0  0  0
   20.1267   71.9815   -7.5295 C   0  0  0  0  0  0  0  0  0  0  0  0
   18.9105   69.9494   -7.1234 O   0  0  0  0  0  0  0  0  0  0  0  0
   18.1552   70.0423  -10.0237 O   0  0  0  0  0  0  0  0  0  0  0  0
   15.9127   70.9897   -8.7949 O   0  0  0  0  0  0  0  0  0  0  0  0
   18.3215   71.1166   -9.0999 C   0  0  1  0  0  0  0  0  0  0  0  0
   17.1516   71.1701   -8.1396 C   0  0  2  0  0  0  0  0  0  0  0  0
   19.4779   70.7636   -8.1729 C   0  0  1  0  0  0  0  0  0  0  0  0
   17.4773   70.0361   -7.1826 C   0  0  2  0  0  0  0  0  0  0  0  0
   17.4222   70.2450  -10.6266 H   0  0  0  0  0  0  0  0  0  0  0  0
   15.7509   71.7366   -9.3922 H   0  0  0  0  0  0  0  0  0  0  0  0
   16.3189   68.0517   -5.5401 O   0  0  0  0  0  0  0  0  0  0  0  0
   15.5620   71.0572   -2.1291 O   0  0  0  0  0  0  0  0  0  0  0  0
   16.9695   70.2723   -5.8605 N   0  0  0  0  0  0  0  0  0  0  0  0
   15.9431   69.5498   -3.8429 N   0  0  0  0  0  0  0  0  0  0  0  0
   16.4065   69.2072   -5.1196 C   0  0  0  0  0  0  0  0  0  0  0  0
   17.0330   71.5484   -5.3115 C   0  0  0  0  0  0  0  0  0  0  0  0
   16.5855   71.8588   -4.0931 C   0  0  0  0  0  0  0  0  0  0  0  0
   15.9827   70.8035   -3.2535 C   0  0  0  0  0  0  0  0  0  0  0  0
   15.5464   68.8239   -3.3086 H   0  0  0  0  0  0  0  0  0  0  0  0
   22.0087   71.9156   -4.1498 O   0  0  0  0  0  0  0  0  0  0  0  0
   23.2272   72.0141   -3.0921 P   0  0  2  0  0  0  0  0  0  0  0  0
   23.8887   73.4534   -3.4213 O   0  0  0  0  0  0  0  0  0  0  0  0
   24.1885   70.8626   -3.1519 O   0  0  0  0  0  0  0  0  0  0  0  0
   22.5099   72.2131   -1.6600 O   0  0  0  0  0  0  0  0  0  0  0  0
   23.4134   70.6493   -0.1255 O   0  0  0  0  0  0  0  0  0  0  0  0
   20.4472   72.2657    2.2492 O   0  0  0  0  0  0  0  0  0  0  0  0
   23.1956   72.9090    2.7788 O   0  0  0  0  0  0  0  0  0  0  0  0
   19.9560   71.8140   -0.5676 O   0  0  0  0  0  0  0  0  0  0  0  0
   21.4682   72.2820    1.2479 C   0  0  1  0  0  0  0  0  0  0  0  0
   22.7870   71.8637    1.9009 C   0  0  1  0  0  0  0  0  0  0  0  0
   21.0886   71.3101    0.1322 C   0  0  2  0  0  0  0  0  0  0  0  0
   23.8687   71.5994    0.8449 C   0  0  1  0  0  0  0  0  0  0  0  0
   22.2506   71.0797   -0.8357 C   0  0  1  0  0  0  0  0  0  0  0  0
   20.6818   72.8811    2.9604 H   0  0  0  0  0  0  0  0  0  0  0  0
   22.5036   73.0663    3.4404 H   0  0  0  0  0  0  0  0  0  0  0  0
   19.2274   71.9553    0.0561 H   0  0  0  0  0  0  0  0  0  0  0  0
   24.7853   70.2172    2.5649 O   0  0  0  0  0  0  0  0  0  0  0  0
   25.1440   71.0299    1.4626 C   0  0  0  0  0  0  0  0  0  0  0  0
   25.5870   69.8477    2.9678 H   0  0  0  0  0  0  0  0  0  0  0  0
 25 28  1  0
 25 24  1  0
 25 26  1  6
 25 27  2  0
  1  4  1  0
  1 24  1  0
  1  2  1  1
  1  3  2  0
  6 11  1  0
  6 12  1  0
 29 36  1  0
 29 37  1  0
  9  7  1  6
  7 13  1  0
 10  8  1  6
  8 14  1  0
 37 28  1  1
  4  5  1  0
 33 30  1  1
 30 38  1  0
 34 31  1  1
 31 39  1  0
 35 32  1  6
 32 40  1  0
 41 42  1  0
 41 43  1  0
 15 19  2  0
 16 22  2  0
 12 17  1  1
 17 19  1  0
 17 20  1  0
 18 19  1  0
 18 22  1  0
 18 23  1  0
  9 10  1  0
  9 11  1  0
 10 12  1  0
 11  5  1  1
 33 34  1  0
 33 35  1  0
 34 36  1  0
 35 37  1  0
 36 42  1  1
 20 21  2  0
 21 22  1  0
M  CHG  2   2  -1  26  -1
M  END
>  <COMPND>  (493) 
    8629 

>  <AUTHOR>  (493) 
    GENERATED BY OPEN BABEL 3.1.1

>  <MASTER>  (493) 
        0    0    0    0    0    0    0    0   58    0   58    0

>  <minimizedAffinity>  (493) 
-8.41488

>  <CNNscore>  (493) 
0.7153022885

>  <CNNaffinity>  (493) 
4.4784159660

>  <CNN_VS>  (493) 
3.2034211159

>  <CNNaffinity_variance>  (493) 
0.2762340903

$$$$
494
     RDKit          3D

 43 45  0  0  0  0  0  0  0  0999 V2000
   23.1268   71.5904   -2.6302 P   0  0  2  0  0  0  0  0  0  0  0  0
   23.2604   73.1832   -2.3797 O   0  0  0  0  0  0  0  0  0  0  0  0
   24.3675   70.9241   -3.1481 O   0  0  0  0  0  0  0  0  0  0  0  0
   21.8132   71.4531   -3.5647 O   0  0  0  0  0  0  0  0  0  0  0  0
   21.5619   72.4594   -4.5301 C   0  0  0  0  0  0  0  0  0  0  0  0
   20.5706   70.6178   -5.7131 O   0  0  0  0  0  0  0  0  0  0  0  0
   20.9556   72.2504   -8.1985 O   0  0  0  0  0  0  0  0  0  0  0  0
   18.3094   72.6165   -7.6509 O   0  0  0  0  0  0  0  0  0  0  0  0
   20.6148   72.6792   -6.8812 C   0  0  1  0  0  0  0  0  0  0  0  0
   19.1743   72.3299   -6.5708 C   0  0  2  0  0  0  0  0  0  0  0  0
   21.3745   71.8045   -5.8918 C   0  0  1  0  0  0  0  0  0  0  0  0
   19.2673   70.8426   -6.2751 C   0  0  2  0  0  0  0  0  0  0  0  0
   20.4827   72.7948   -8.8481 H   0  0  0  0  0  0  0  0  0  0  0  0
   18.2840   73.5746   -7.7996 H   0  0  0  0  0  0  0  0  0  0  0  0
   16.7020   69.8998   -6.9879 O   0  0  0  0  0  0  0  0  0  0  0  0
   15.5340   69.2025   -2.5844 O   0  0  0  0  0  0  0  0  0  0  0  0
   18.2729   70.4078   -5.3352 N   0  0  0  0  0  0  0  0  0  0  0  0
   16.1226   69.5532   -4.7947 N   0  0  0  0  0  0  0  0  0  0  0  0
   17.0157   69.9532   -5.7969 C   0  0  0  0  0  0  0  0  0  0  0  0
   18.5488   70.4343   -3.9725 C   0  0  0  0  0  0  0  0  0  0  0  0
   17.6858   70.0507   -3.0295 C   0  0  0  0  0  0  0  0  0  0  0  0
   16.3497   69.5623   -3.4276 C   0  0  0  0  0  0  0  0  0  0  0  0
   15.2403   69.2331   -5.0927 H   0  0  0  0  0  0  0  0  0  0  0  0
   22.6143   71.0392   -1.1997 O   0  0  0  0  0  0  0  0  0  0  0  0
   21.4558   71.5760   -0.2084 P   0  0  2  0  0  0  0  0  0  0  0  0
   21.1069   70.2778    0.6918 O   0  0  0  0  0  0  0  0  0  0  0  0
   20.2739   72.1776   -0.9120 O   0  0  0  0  0  0  0  0  0  0  0  0
   22.2153   72.5802    0.8015 O   0  0  0  0  0  0  0  0  0  0  0  0
   24.1532   72.4636    2.1607 O   0  0  0  0  0  0  0  0  0  0  0  0
   21.5525   74.1863    4.8661 O   0  0  0  0  0  0  0  0  0  0  0  0
   23.6451   75.7728    3.7033 O   0  0  0  0  0  0  0  0  0  0  0  0
   20.6039   72.1364    3.0558 O   0  0  0  0  0  0  0  0  0  0  0  0
   22.1139   73.9399    3.5740 C   0  0  1  0  0  0  0  0  0  0  0  0
   23.5868   74.3526    3.6045 C   0  0  1  0  0  0  0  0  0  0  0  0
   21.9784   72.4542    3.2461 C   0  0  2  0  0  0  0  0  0  0  0  0
   24.3224   73.8739    2.3456 C   0  0  1  0  0  0  0  0  0  0  0  0
   22.7873   72.0738    2.0047 C   0  0  1  0  0  0  0  0  0  0  0  0
   21.6348   75.1281    5.0803 H   0  0  0  0  0  0  0  0  0  0  0  0
   23.1766   76.0621    4.5021 H   0  0  0  0  0  0  0  0  0  0  0  0
   20.1027   72.3816    3.8486 H   0  0  0  0  0  0  0  0  0  0  0  0
   26.0577   75.5042    2.1461 O   0  0  0  0  0  0  0  0  0  0  0  0
   25.8246   74.1362    2.4264 C   0  0  0  0  0  0  0  0  0  0  0  0
   27.0098   75.6858    2.1943 H   0  0  0  0  0  0  0  0  0  0  0  0
 25 28  1  0
 25 24  1  0
 25 26  1  1
 25 27  2  0
  1  4  1  0
  1 24  1  0
  1  2  1  1
  1  3  2  0
  6 11  1  0
  6 12  1  0
 29 36  1  0
 29 37  1  0
  9  7  1  6
  7 13  1  0
 10  8  1  6
  8 14  1  0
 37 28  1  6
  4  5  1  0
 33 30  1  1
 30 38  1  0
 34 31  1  6
 31 39  1  0
 35 32  1  6
 32 40  1  0
 41 42  1  0
 41 43  1  0
 15 19  2  0
 16 22  2  0
 12 17  1  1
 17 19  1  0
 17 20  1  0
 18 19  1  0
 18 22  1  0
 18 23  1  0
  9 10  1  0
  9 11  1  0
 10 12  1  0
 11  5  1  1
 33 34  1  0
 33 35  1  0
 34 36  1  0
 35 37  1  0
 36 42  1  1
 20 21  2  0
 21 22  1  0
M  CHG  2   2  -1  26  -1
M  END
>  <COMPND>  (494) 
    8629 

>  <AUTHOR>  (494) 
    GENERATED BY OPEN BABEL 3.1.1

>  <MASTER>  (494) 
        0    0    0    0    0    0    0    0   58    0   58    0

>  <minimizedAffinity>  (494) 
-7.47140

>  <CNNscore>  (494) 
0.6765987277

>  <CNNaffinity>  (494) 
4.3513755798

>  <CNN_VS>  (494) 
2.9441351891

>  <CNNaffinity_variance>  (494) 
0.1575543582

$$$$
495
     RDKit          3D

 43 45  0  0  0  0  0  0  0  0999 V2000
   23.4833   73.5633   -4.1422 P   0  0  2  0  0  0  0  0  0  0  0  0
   22.6664   74.9281   -4.4381 O   0  0  0  0  0  0  0  0  0  0  0  0
   24.9736   73.7206   -4.0657 O   0  0  0  0  0  0  0  0  0  0  0  0
   22.9422   72.5349   -5.2680 O   0  0  0  0  0  0  0  0  0  0  0  0
   21.5446   72.3314   -5.3820 C   0  0  0  0  0  0  0  0  0  0  0  0
   20.5025   70.3552   -6.2666 O   0  0  0  0  0  0  0  0  0  0  0  0
   20.6474   71.7028   -8.9413 O   0  0  0  0  0  0  0  0  0  0  0  0
   18.0467   72.0926   -8.2195 O   0  0  0  0  0  0  0  0  0  0  0  0
   20.4050   72.2725   -7.6560 C   0  0  1  0  0  0  0  0  0  0  0  0
   19.0027   71.9410   -7.1899 C   0  0  2  0  0  0  0  0  0  0  0  0
   21.2621   71.5249   -6.6422 C   0  0  1  0  0  0  0  0  0  0  0  0
   19.1532   70.4978   -6.7397 C   0  0  2  0  0  0  0  0  0  0  0  0
   20.1111   72.1642   -9.6057 H   0  0  0  0  0  0  0  0  0  0  0  0
   17.9877   73.0274   -8.4710 H   0  0  0  0  0  0  0  0  0  0  0  0
   16.4530   69.7606   -7.1185 O   0  0  0  0  0  0  0  0  0  0  0  0
   15.7756   69.2171   -2.5923 O   0  0  0  0  0  0  0  0  0  0  0  0
   18.2484   70.1582   -5.6779 N   0  0  0  0  0  0  0  0  0  0  0  0
   16.1179   69.4904   -4.8645 N   0  0  0  0  0  0  0  0  0  0  0  0
   16.9121   69.8029   -5.9752 C   0  0  0  0  0  0  0  0  0  0  0  0
   18.6888   70.1790   -4.3590 C   0  0  0  0  0  0  0  0  0  0  0  0
   17.9185   69.8796   -3.3110 C   0  0  0  0  0  0  0  0  0  0  0  0
   16.5092   69.4979   -3.5350 C   0  0  0  0  0  0  0  0  0  0  0  0
   15.1832   69.2404   -5.0474 H   0  0  0  0  0  0  0  0  0  0  0  0
   22.7944   73.0139   -2.7870 O   0  0  0  0  0  0  0  0  0  0  0  0
   22.8843   71.5735   -2.0590 P   0  0  2  0  0  0  0  0  0  0  0  0
   24.2107   70.9121   -2.7077 O   0  0  0  0  0  0  0  0  0  0  0  0
   21.6452   70.7368   -2.1950 O   0  0  0  0  0  0  0  0  0  0  0  0
   23.2999   71.9106   -0.5363 O   0  0  0  0  0  0  0  0  0  0  0  0
   24.5995   70.8717    1.1514 O   0  0  0  0  0  0  0  0  0  0  0  0
   21.2756   71.8605    3.3930 O   0  0  0  0  0  0  0  0  0  0  0  0
   23.7215   73.3193    3.7644 O   0  0  0  0  0  0  0  0  0  0  0  0
   20.9573   70.9411    0.6667 O   0  0  0  0  0  0  0  0  0  0  0  0
   22.2578   72.0416    2.3693 C   0  0  1  0  0  0  0  0  0  0  0  0
   23.6357   72.1002    3.0317 C   0  0  1  0  0  0  0  0  0  0  0  0
   22.1808   70.8710    1.3910 C   0  0  2  0  0  0  0  0  0  0  0  0
   24.7565   72.0251    1.9862 C   0  0  1  0  0  0  0  0  0  0  0  0
   23.3681   70.8620    0.4265 C   0  0  1  0  0  0  0  0  0  0  0  0
   21.3189   72.6007    4.0173 H   0  0  0  0  0  0  0  0  0  0  0  0
   23.0079   73.3543    4.4207 H   0  0  0  0  0  0  0  0  0  0  0  0
   20.2135   70.9458    1.2884 H   0  0  0  0  0  0  0  0  0  0  0  0
   26.7295   70.7007    2.2357 O   0  0  0  0  0  0  0  0  0  0  0  0
   26.1361   71.9231    2.6330 C   0  0  0  0  0  0  0  0  0  0  0  0
   27.6084   70.6222    2.6397 H   0  0  0  0  0  0  0  0  0  0  0  0
 25 28  1  0
 25 24  1  0
 25 26  1  6
 25 27  2  0
  1  4  1  0
  1 24  1  0
  1  2  1  6
  1  3  2  0
  6 11  1  0
  6 12  1  0
 29 36  1  0
 29 37  1  0
  9  7  1  6
  7 13  1  0
 10  8  1  6
  8 14  1  0
 37 28  1  6
  4  5  1  0
 33 30  1  1
 30 38  1  0
 34 31  1  6
 31 39  1  0
 35 32  1  6
 32 40  1  0
 41 42  1  0
 41 43  1  0
 15 19  2  0
 16 22  2  0
 12 17  1  1
 17 19  1  0
 17 20  1  0
 18 19  1  0
 18 22  1  0
 18 23  1  0
  9 10  1  0
  9 11  1  0
 10 12  1  0
 11  5  1  1
 33 34  1  0
 33 35  1  0
 34 36  1  0
 35 37  1  0
 36 42  1  1
 20 21  2  0
 21 22  1  0
M  CHG  2   2  -1  26  -1
M  END
>  <COMPND>  (495) 
    8629 

>  <AUTHOR>  (495) 
    GENERATED BY OPEN BABEL 3.1.1

>  <MASTER>  (495) 
        0    0    0    0    0    0    0    0   58    0   58    0

>  <minimizedAffinity>  (495) 
-8.26982

>  <CNNscore>  (495) 
0.6645354629

>  <CNNaffinity>  (495) 
4.3658332825

>  <CNN_VS>  (495) 
2.9012510777

>  <CNNaffinity_variance>  (495) 
0.2632942796

$$$$
496
     RDKit          3D

 43 45  0  0  0  0  0  0  0  0999 V2000
   20.9786   71.3879   -0.5568 P   0  0  2  0  0  0  0  0  0  0  0  0
   21.2773   70.4212    0.7057 O   0  0  0  0  0  0  0  0  0  0  0  0
   20.8524   72.8453   -0.2231 O   0  0  0  0  0  0  0  0  0  0  0  0
   19.6888   70.7148   -1.2648 O   0  0  0  0  0  0  0  0  0  0  0  0
   18.8594   71.5303   -2.0740 C   0  0  0  0  0  0  0  0  0  0  0  0
   17.1553   71.0425   -3.6963 O   0  0  0  0  0  0  0  0  0  0  0  0
   16.3516   68.7828   -1.8967 O   0  0  0  0  0  0  0  0  0  0  0  0
   17.7943   67.5161   -3.8333 O   0  0  0  0  0  0  0  0  0  0  0  0
   17.6541   69.2921   -2.1788 C   0  0  1  0  0  0  0  0  0  0  0  0
   18.0946   68.8706   -3.5651 C   0  0  2  0  0  0  0  0  0  0  0  0
   17.5448   70.8046   -2.3259 C   0  0  1  0  0  0  0  0  0  0  0  0
   17.3137   69.8285   -4.4487 C   0  0  2  0  0  0  0  0  0  0  0  0
   16.3961   67.8183   -1.7981 H   0  0  0  0  0  0  0  0  0  0  0  0
   18.3158   66.9468   -3.2462 H   0  0  0  0  0  0  0  0  0  0  0  0
   16.1102   69.7779   -7.0035 O   0  0  0  0  0  0  0  0  0  0  0  0
   20.0430   70.9850   -9.0815 O   0  0  0  0  0  0  0  0  0  0  0  0
   17.9996   70.1257   -5.6745 N   0  0  0  0  0  0  0  0  0  0  0  0
   18.0694   70.3792   -8.0361 N   0  0  0  0  0  0  0  0  0  0  0  0
   17.3036   70.0707   -6.9045 C   0  0  0  0  0  0  0  0  0  0  0  0
   19.3474   70.4675   -5.6491 C   0  0  0  0  0  0  0  0  0  0  0  0
   20.0636   70.7577   -6.7372 C   0  0  0  0  0  0  0  0  0  0  0  0
   19.4116   70.7233   -8.0623 C   0  0  0  0  0  0  0  0  0  0  0  0
   17.6056   70.3469   -8.9042 H   0  0  0  0  0  0  0  0  0  0  0  0
   22.1802   71.0332   -1.5783 O   0  0  0  0  0  0  0  0  0  0  0  0
   23.2212   71.9875   -2.3648 P   0  0  2  0  0  0  0  0  0  0  0  0
   24.1885   70.9355   -3.1233 O   0  0  0  0  0  0  0  0  0  0  0  0
   23.9416   72.9685   -1.4859 O   0  0  0  0  0  0  0  0  0  0  0  0
   22.3479   72.6610   -3.5432 O   0  0  0  0  0  0  0  0  0  0  0  0
   23.1451   74.0631   -5.2796 O   0  0  0  0  0  0  0  0  0  0  0  0
   19.3563   75.6454   -4.8409 O   0  0  0  0  0  0  0  0  0  0  0  0
   19.9721   74.0614   -7.1560 O   0  0  0  0  0  0  0  0  0  0  0  0
   20.8438   74.7923   -2.5087 O   0  0  0  0  0  0  0  0  0  0  0  0
   20.3416   74.6089   -4.8572 C   0  0  1  0  0  0  0  0  0  0  0  0
   20.9595   74.5565   -6.2559 C   0  0  1  0  0  0  0  0  0  0  0  0
   21.4090   74.9183   -3.8091 C   0  0  2  0  0  0  0  0  0  0  0  0
   22.2027   73.6571   -6.2790 C   0  0  1  0  0  0  0  0  0  0  0  0
   22.6231   73.9986   -3.9510 C   0  0  1  0  0  0  0  0  0  0  0  0
   18.6754   75.4547   -5.5038 H   0  0  0  0  0  0  0  0  0  0  0  0
   19.1923   74.6380   -7.1315 H   0  0  0  0  0  0  0  0  0  0  0  0
   20.0764   75.3796   -2.4315 H   0  0  0  0  0  0  0  0  0  0  0  0
   22.3310   72.7695   -8.4936 O   0  0  0  0  0  0  0  0  0  0  0  0
   22.9253   73.7146   -7.6231 C   0  0  0  0  0  0  0  0  0  0  0  0
   22.7805   72.7951   -9.3532 H   0  0  0  0  0  0  0  0  0  0  0  0
 25 28  1  0
 25 24  1  0
 25 26  1  6
 25 27  2  0
  1  4  1  0
  1 24  1  0
  1  2  1  1
  1  3  2  0
  6 11  1  0
  6 12  1  0
 29 36  1  0
 29 37  1  0
  9  7  1  6
  7 13  1  0
 10  8  1  6
  8 14  1  0
 37 28  1  6
  4  5  1  0
 33 30  1  6
 30 38  1  0
 34 31  1  6
 31 39  1  0
 35 32  1  1
 32 40  1  0
 41 42  1  0
 41 43  1  0
 15 19  2  0
 16 22  2  0
 12 17  1  6
 17 19  1  0
 17 20  1  0
 18 19  1  0
 18 22  1  0
 18 23  1  0
  9 10  1  0
  9 11  1  0
 10 12  1  0
 11  5  1  6
 33 34  1  0
 33 35  1  0
 34 36  1  0
 35 37  1  0
 36 42  1  6
 20 21  2  0
 21 22  1  0
M  CHG  2   2  -1  26  -1
M  END
>  <COMPND>  (496) 
    8629 

>  <AUTHOR>  (496) 
    GENERATED BY OPEN BABEL 3.1.1

>  <MASTER>  (496) 
        0    0    0    0    0    0    0    0   58    0   58    0

>  <minimizedAffinity>  (496) 
-7.24237

>  <CNNscore>  (496) 
0.6450065374

>  <CNNaffinity>  (496) 
4.3014802933

>  <CNN_VS>  (496) 
2.7744829655

>  <CNNaffinity_variance>  (496) 
0.4982028902

$$$$
497
     RDKit          3D

 43 45  0  0  0  0  0  0  0  0999 V2000
   21.4771   72.5090   -5.5216 P   0  0  2  0  0  0  0  0  0  0  0  0
   20.7765   73.9229   -5.8785 O   0  0  0  0  0  0  0  0  0  0  0  0
   22.9667   72.4771   -5.6991 O   0  0  0  0  0  0  0  0  0  0  0  0
   20.6424   71.4310   -6.3928 O   0  0  0  0  0  0  0  0  0  0  0  0
   20.2434   71.7859   -7.7054 C   0  0  0  0  0  0  0  0  0  0  0  0
   18.9298   69.8229   -7.2641 O   0  0  0  0  0  0  0  0  0  0  0  0
   18.0542   69.9935  -10.1268 O   0  0  0  0  0  0  0  0  0  0  0  0
   15.9271   71.0546   -8.7904 O   0  0  0  0  0  0  0  0  0  0  0  0
   18.3234   71.0455   -9.2014 C   0  0  1  0  0  0  0  0  0  0  0  0
   17.2020   71.1553   -8.1895 C   0  0  2  0  0  0  0  0  0  0  0  0
   19.4970   70.6153   -8.3303 C   0  0  1  0  0  0  0  0  0  0  0  0
   17.5030   69.9931   -7.2584 C   0  0  2  0  0  0  0  0  0  0  0  0
   17.3084   70.2455  -10.6945 H   0  0  0  0  0  0  0  0  0  0  0  0
   15.7830   71.8166   -9.3730 H   0  0  0  0  0  0  0  0  0  0  0  0
   16.1828   68.0995   -5.6307 O   0  0  0  0  0  0  0  0  0  0  0  0
   15.8811   71.0616   -2.1128 O   0  0  0  0  0  0  0  0  0  0  0  0
   17.0685   70.2426   -5.9129 N   0  0  0  0  0  0  0  0  0  0  0  0
   16.0338   69.5759   -3.8803 N   0  0  0  0  0  0  0  0  0  0  0  0
   16.4137   69.2242   -5.1819 C   0  0  0  0  0  0  0  0  0  0  0  0
   17.2931   71.4857   -5.3314 C   0  0  0  0  0  0  0  0  0  0  0  0
   16.9235   71.8056   -4.0895 C   0  0  0  0  0  0  0  0  0  0  0  0
   16.2336   70.7981   -3.2583 C   0  0  0  0  0  0  0  0  0  0  0  0
   15.5757   68.8823   -3.3523 H   0  0  0  0  0  0  0  0  0  0  0  0
   20.9732   72.2245   -4.0122 O   0  0  0  0  0  0  0  0  0  0  0  0
   20.9414   70.8622   -3.1427 P   0  0  2  0  0  0  0  0  0  0  0  0
   22.4641   70.3243   -3.2399 O   0  0  0  0  0  0  0  0  0  0  0  0
   19.9051   69.8716   -3.5887 O   0  0  0  0  0  0  0  0  0  0  0  0
   20.7804   71.3564   -1.6147 O   0  0  0  0  0  0  0  0  0  0  0  0
   20.6973   73.4888   -0.5838 O   0  0  0  0  0  0  0  0  0  0  0  0
   23.1241   71.5386    2.1288 O   0  0  0  0  0  0  0  0  0  0  0  0
   20.4131   72.1613    2.8434 O   0  0  0  0  0  0  0  0  0  0  0  0
   23.4126   71.0152   -0.7036 O   0  0  0  0  0  0  0  0  0  0  0  0
   22.0580   71.6546    1.1826 C   0  0  1  0  0  0  0  0  0  0  0  0
   21.0695   72.7015    1.6999 C   0  0  1  0  0  0  0  0  0  0  0  0
   22.6329   72.0788   -0.1676 C   0  0  2  0  0  0  0  0  0  0  0  0
   20.0434   73.0750    0.6216 C   0  0  1  0  0  0  0  0  0  0  0  0
   21.5306   72.4761   -1.1511 C   0  0  1  0  0  0  0  0  0  0  0  0
   22.7659   71.2690    2.9881 H   0  0  0  0  0  0  0  0  0  0  0  0
   21.0722   71.9292    3.5164 H   0  0  0  0  0  0  0  0  0  0  0  0
   24.1070   70.7733   -0.0718 H   0  0  0  0  0  0  0  0  0  0  0  0
   19.7917   74.9254    2.1121 O   0  0  0  0  0  0  0  0  0  0  0  0
   19.1462   74.2299    1.0614 C   0  0  0  0  0  0  0  0  0  0  0  0
   19.2323   75.6635    2.4020 H   0  0  0  0  0  0  0  0  0  0  0  0
 25 28  1  0
 25 24  1  0
 25 26  1  1
 25 27  2  0
  1  4  1  0
  1 24  1  0
  1  2  1  6
  1  3  2  0
  6 11  1  0
  6 12  1  0
 29 36  1  0
 29 37  1  0
  9  7  1  6
  7 13  1  0
 10  8  1  6
  8 14  1  0
 37 28  1  1
  4  5  1  0
 33 30  1  1
 30 38  1  0
 34 31  1  1
 31 39  1  0
 35 32  1  6
 32 40  1  0
 41 42  1  0
 41 43  1  0
 15 19  2  0
 16 22  2  0
 12 17  1  1
 17 19  1  0
 17 20  1  0
 18 19  1  0
 18 22  1  0
 18 23  1  0
  9 10  1  0
  9 11  1  0
 10 12  1  0
 11  5  1  1
 33 34  1  0
 33 35  1  0
 34 36  1  0
 35 37  1  0
 36 42  1  1
 20 21  2  0
 21 22  1  0
M  CHG  2   2  -1  26  -1
M  END
>  <COMPND>  (497) 
    8629 

>  <AUTHOR>  (497) 
    GENERATED BY OPEN BABEL 3.1.1

>  <MASTER>  (497) 
        0    0    0    0    0    0    0    0   58    0   58    0

>  <minimizedAffinity>  (497) 
-7.20613

>  <CNNscore>  (497) 
0.6399563551

>  <CNNaffinity>  (497) 
4.4704360962

>  <CNN_VS>  (497) 
2.8608839512

>  <CNNaffinity_variance>  (497) 
0.2044913024

$$$$
498
     RDKit          3D

 43 45  0  0  0  0  0  0  0  0999 V2000
   22.8736   72.0650   -2.5223 P   0  0  2  0  0  0  0  0  0  0  0  0
   23.6924   73.4263   -2.8286 O   0  0  0  0  0  0  0  0  0  0  0  0
   23.6114   71.0543   -1.6944 O   0  0  0  0  0  0  0  0  0  0  0  0
   22.3957   71.5620   -3.9840 O   0  0  0  0  0  0  0  0  0  0  0  0
   21.8294   72.5089   -4.8731 C   0  0  0  0  0  0  0  0  0  0  0  0
   20.8299   70.5784   -5.8969 O   0  0  0  0  0  0  0  0  0  0  0  0
   20.7404   72.1951   -8.4206 O   0  0  0  0  0  0  0  0  0  0  0  0
   18.1748   72.3679   -7.5126 O   0  0  0  0  0  0  0  0  0  0  0  0
   20.5526   72.6180   -7.0711 C   0  0  1  0  0  0  0  0  0  0  0  0
   19.2001   72.1653   -6.5616 C   0  0  2  0  0  0  0  0  0  0  0  0
   21.5071   71.8196   -6.1919 C   0  0  1  0  0  0  0  0  0  0  0  0
   19.4481   70.6944   -6.2736 C   0  0  2  0  0  0  0  0  0  0  0  0
   20.1416   72.6914   -9.0011 H   0  0  0  0  0  0  0  0  0  0  0  0
   18.0550   73.3188   -7.6616 H   0  0  0  0  0  0  0  0  0  0  0  0
   16.8094   69.7383   -6.5915 O   0  0  0  0  0  0  0  0  0  0  0  0
   16.4028   68.8255   -2.0923 O   0  0  0  0  0  0  0  0  0  0  0  0
   18.6297   70.2005   -5.2023 N   0  0  0  0  0  0  0  0  0  0  0  0
   16.6091   69.2844   -4.3510 N   0  0  0  0  0  0  0  0  0  0  0  0
   17.3176   69.7445   -5.4684 C   0  0  0  0  0  0  0  0  0  0  0  0
   19.1297   70.1716   -3.9049 C   0  0  0  0  0  0  0  0  0  0  0  0
   18.4408   69.7310   -2.8501 C   0  0  0  0  0  0  0  0  0  0  0  0
   17.0620   69.2369   -3.0421 C   0  0  0  0  0  0  0  0  0  0  0  0
   15.6927   68.9621   -4.5123 H   0  0  0  0  0  0  0  0  0  0  0  0
   21.5029   72.6069   -1.8585 O   0  0  0  0  0  0  0  0  0  0  0  0
   20.6419   72.0595   -0.6047 P   0  0  2  0  0  0  0  0  0  0  0  0
   21.1224   73.0056    0.6166 O   0  0  0  0  0  0  0  0  0  0  0  0
   20.7971   70.5887   -0.3467 O   0  0  0  0  0  0  0  0  0  0  0  0
   19.1285   72.5285   -0.9126 O   0  0  0  0  0  0  0  0  0  0  0  0
   18.2016   73.5717   -2.8281 O   0  0  0  0  0  0  0  0  0  0  0  0
   16.0129   75.4976    0.0962 O   0  0  0  0  0  0  0  0  0  0  0  0
   14.7412   73.5244   -1.5584 O   0  0  0  0  0  0  0  0  0  0  0  0
   18.8120   74.9085    0.5403 O   0  0  0  0  0  0  0  0  0  0  0  0
   16.7022   74.3969   -0.5029 C   0  0  1  0  0  0  0  0  0  0  0  0
   16.0252   74.0758   -1.8368 C   0  0  1  0  0  0  0  0  0  0  0  0
   18.1640   74.7826   -0.7210 C   0  0  2  0  0  0  0  0  0  0  0  0
   16.8636   73.0887   -2.6601 C   0  0  1  0  0  0  0  0  0  0  0  0
   18.8942   73.7591   -1.5924 C   0  0  1  0  0  0  0  0  0  0  0  0
   15.0841   75.2591    0.2378 H   0  0  0  0  0  0  0  0  0  0  0  0
   14.2221   74.1574   -1.0377 H   0  0  0  0  0  0  0  0  0  0  0  0
   18.3405   75.5594    1.0823 H   0  0  0  0  0  0  0  0  0  0  0  0
   15.1671   72.0163   -3.9565 O   0  0  0  0  0  0  0  0  0  0  0  0
   16.2872   72.8761   -4.0582 C   0  0  0  0  0  0  0  0  0  0  0  0
   14.7897   71.8722   -4.8389 H   0  0  0  0  0  0  0  0  0  0  0  0
 25 28  1  0
 25 24  1  0
 25 26  1  1
 25 27  2  0
  1  4  1  0
  1 24  1  0
  1  2  1  6
  1  3  2  0
  6 11  1  0
  6 12  1  0
 29 36  1  0
 29 37  1  0
  9  7  1  6
  7 13  1  0
 10  8  1  6
  8 14  1  0
 37 28  1  1
  4  5  1  0
 33 30  1  6
 30 38  1  0
 34 31  1  1
 31 39  1  0
 35 32  1  1
 32 40  1  0
 41 42  1  0
 41 43  1  0
 15 19  2  0
 16 22  2  0
 12 17  1  1
 17 19  1  0
 17 20  1  0
 18 19  1  0
 18 22  1  0
 18 23  1  0
  9 10  1  0
  9 11  1  0
 10 12  1  0
 11  5  1  1
 33 34  1  0
 33 35  1  0
 34 36  1  0
 35 37  1  0
 36 42  1  6
 20 21  2  0
 21 22  1  0
M  CHG  2   2  -1  26  -1
M  END
>  <COMPND>  (498) 
    8629 

>  <AUTHOR>  (498) 
    GENERATED BY OPEN BABEL 3.1.1

>  <MASTER>  (498) 
        0    0    0    0    0    0    0    0   58    0   58    0

>  <minimizedAffinity>  (498) 
-5.64575

>  <CNNscore>  (498) 
0.5948060751

>  <CNNaffinity>  (498) 
3.9565703869

>  <CNN_VS>  (498) 
2.3533921242

>  <CNNaffinity_variance>  (498) 
0.7203621864

$$$$
499
     RDKit          3D

 43 45  0  0  0  0  0  0  0  0999 V2000
   19.7337   74.8970   -3.5513 P   0  0  2  0  0  0  0  0  0  0  0  0
   21.1636   74.4611   -4.1701 O   0  0  0  0  0  0  0  0  0  0  0  0
   19.7833   76.0490   -2.5912 O   0  0  0  0  0  0  0  0  0  0  0  0
   19.1284   73.5169   -2.9623 O   0  0  0  0  0  0  0  0  0  0  0  0
   19.0045   72.4066   -3.8338 C   0  0  0  0  0  0  0  0  0  0  0  0
   17.1016   72.0682   -5.2615 O   0  0  0  0  0  0  0  0  0  0  0  0
   15.9685   70.4004   -3.0422 O   0  0  0  0  0  0  0  0  0  0  0  0
   16.9182   68.5198   -4.7737 O   0  0  0  0  0  0  0  0  0  0  0  0
   17.3229   70.5322   -3.4706 C   0  0  1  0  0  0  0  0  0  0  0  0
   17.5368   69.7903   -4.7735 C   0  0  2  0  0  0  0  0  0  0  0  0
   17.5439   71.9804   -3.8892 C   0  0  1  0  0  0  0  0  0  0  0  0
   16.9181   70.7420   -5.7832 C   0  0  2  0  0  0  0  0  0  0  0  0
   15.8036   69.4837   -2.7695 H   0  0  0  0  0  0  0  0  0  0  0  0
   17.3469   67.9511   -4.1152 H   0  0  0  0  0  0  0  0  0  0  0  0
   15.5209   70.6773   -8.2371 O   0  0  0  0  0  0  0  0  0  0  0  0
   19.4293   70.4131  -10.6653 O   0  0  0  0  0  0  0  0  0  0  0  0
   17.5455   70.6569   -7.0718 N   0  0  0  0  0  0  0  0  0  0  0  0
   17.4681   70.5460   -9.4442 N   0  0  0  0  0  0  0  0  0  0  0  0
   16.7528   70.6298   -8.2429 C   0  0  0  0  0  0  0  0  0  0  0  0
   18.9319   70.6017   -7.1653 C   0  0  0  0  0  0  0  0  0  0  0  0
   19.5987   70.5207   -8.3186 C   0  0  0  0  0  0  0  0  0  0  0  0
   18.8452   70.4873   -9.5887 C   0  0  0  0  0  0  0  0  0  0  0  0
   16.9368   70.5253  -10.2730 H   0  0  0  0  0  0  0  0  0  0  0  0
   18.8320   75.1566   -4.8676 O   0  0  0  0  0  0  0  0  0  0  0  0
   17.4244   75.9291   -5.0546 P   0  0  2  0  0  0  0  0  0  0  0  0
   17.8221   77.4824   -4.8383 O   0  0  0  0  0  0  0  0  0  0  0  0
   16.3289   75.4389   -4.1527 O   0  0  0  0  0  0  0  0  0  0  0  0
   17.0980   75.8076   -6.6306 O   0  0  0  0  0  0  0  0  0  0  0  0
   15.7782   77.0477   -8.1592 O   0  0  0  0  0  0  0  0  0  0  0  0
   14.7068   73.2292   -9.3090 O   0  0  0  0  0  0  0  0  0  0  0  0
   16.4118   74.7957  -11.0081 O   0  0  0  0  0  0  0  0  0  0  0  0
   15.1061   73.8348   -6.5066 O   0  0  0  0  0  0  0  0  0  0  0  0
   15.5914   74.2457   -8.8298 C   0  0  1  0  0  0  0  0  0  0  0  0
   15.6959   75.3340   -9.9000 C   0  0  1  0  0  0  0  0  0  0  0  0
   15.0325   74.8216   -7.5300 C   0  0  2  0  0  0  0  0  0  0  0  0
   16.4099   76.5788   -9.3563 C   0  0  1  0  0  0  0  0  0  0  0  0
   15.7824   76.0848   -7.1034 C   0  0  1  0  0  0  0  0  0  0  0  0
   15.0562   72.8590  -10.1339 H   0  0  0  0  0  0  0  0  0  0  0  0
   15.9506   74.0100  -11.3417 H   0  0  0  0  0  0  0  0  0  0  0  0
   14.6274   73.0403   -6.7886 H   0  0  0  0  0  0  0  0  0  0  0  0
   15.3250   77.5175  -11.2670 O   0  0  0  0  0  0  0  0  0  0  0  0
   16.3861   77.7338  -10.3550 C   0  0  0  0  0  0  0  0  0  0  0  0
   15.2975   78.2451  -11.9085 H   0  0  0  0  0  0  0  0  0  0  0  0
 25 28  1  0
 25 24  1  0
 25 26  1  1
 25 27  2  0
  1  4  1  0
  1 24  1  0
  1  2  1  6
  1  3  2  0
  6 11  1  0
  6 12  1  0
 29 36  1  0
 29 37  1  0
  9  7  1  6
  7 13  1  0
 10  8  1  1
  8 14  1  0
 37 28  1  6
  4  5  1  0
 33 30  1  6
 30 38  1  0
 34 31  1  6
 31 39  1  0
 35 32  1  1
 32 40  1  0
 41 42  1  0
 41 43  1  0
 15 19  2  0
 16 22  2  0
 12 17  1  6
 17 19  1  0
 17 20  1  0
 18 19  1  0
 18 22  1  0
 18 23  1  0
  9 10  1  0
  9 11  1  0
 10 12  1  0
 11  5  1  6
 33 34  1  0
 33 35  1  0
 34 36  1  0
 35 37  1  0
 36 42  1  6
 20 21  2  0
 21 22  1  0
M  CHG  2   2  -1  26  -1
M  END
>  <COMPND>  (499) 
    8629 

>  <AUTHOR>  (499) 
    GENERATED BY OPEN BABEL 3.1.1

>  <MASTER>  (499) 
        0    0    0    0    0    0    0    0   58    0   58    0

>  <minimizedAffinity>  (499) 
-5.81473

>  <CNNscore>  (499) 
0.5386631489

>  <CNNaffinity>  (499) 
4.2973327637

>  <CNN_VS>  (499) 
2.3148148060

>  <CNNaffinity_variance>  (499) 
0.1755917817

$$$$
500
     RDKit          3D

 43 45  0  0  0  0  0  0  0  0999 V2000
   23.1572   71.5859   -2.6044 P   0  0  2  0  0  0  0  0  0  0  0  0
   23.3509   73.1686   -2.3307 O   0  0  0  0  0  0  0  0  0  0  0  0
   24.3470   70.8963   -3.2046 O   0  0  0  0  0  0  0  0  0  0  0  0
   21.7898   71.5051   -3.4656 O   0  0  0  0  0  0  0  0  0  0  0  0
   21.5317   72.5190   -4.4212 C   0  0  0  0  0  0  0  0  0  0  0  0
   20.5761   70.6841   -5.6434 O   0  0  0  0  0  0  0  0  0  0  0  0
   20.9951   72.3479   -8.1024 O   0  0  0  0  0  0  0  0  0  0  0  0
   18.3366   72.6888   -7.6000 O   0  0  0  0  0  0  0  0  0  0  0  0
   20.6268   72.7591   -6.7869 C   0  0  1  0  0  0  0  0  0  0  0  0
   19.1833   72.3959   -6.5073 C   0  0  2  0  0  0  0  0  0  0  0  0
   21.3744   71.8785   -5.7935 C   0  0  1  0  0  0  0  0  0  0  0  0
   19.2819   70.9060   -6.2269 C   0  0  2  0  0  0  0  0  0  0  0  0
   20.5303   72.8964   -8.7544 H   0  0  0  0  0  0  0  0  0  0  0  0
   18.3069   73.6483   -7.7382 H   0  0  0  0  0  0  0  0  0  0  0  0
   16.7446   69.9345   -6.9991 O   0  0  0  0  0  0  0  0  0  0  0  0
   15.4925   69.1978   -2.6252 O   0  0  0  0  0  0  0  0  0  0  0  0
   18.2734   70.4533   -5.3107 N   0  0  0  0  0  0  0  0  0  0  0  0
   16.1233   69.5683   -4.8206 N   0  0  0  0  0  0  0  0  0  0  0  0
   17.0322   69.9853   -5.8015 C   0  0  0  0  0  0  0  0  0  0  0  0
   18.5200   70.4758   -3.9423 C   0  0  0  0  0  0  0  0  0  0  0  0
   17.6421   70.0759   -3.0199 C   0  0  0  0  0  0  0  0  0  0  0  0
   16.3213   69.5727   -3.4490 C   0  0  0  0  0  0  0  0  0  0  0  0
   15.2517   69.2386   -5.1391 H   0  0  0  0  0  0  0  0  0  0  0  0
   22.7098   71.0190   -1.1582 O   0  0  0  0  0  0  0  0  0  0  0  0
   21.7149   71.6296   -0.0401 P   0  0  2  0  0  0  0  0  0  0  0  0
   21.2380   70.3226    0.7857 O   0  0  0  0  0  0  0  0  0  0  0  0
   20.5909   72.4524   -0.6001 O   0  0  0  0  0  0  0  0  0  0  0  0
   22.6829   72.4243    0.9779 O   0  0  0  0  0  0  0  0  0  0  0  0
   21.8198   73.9795    2.5441 O   0  0  0  0  0  0  0  0  0  0  0  0
   25.6888   75.3961    2.2711 O   0  0  0  0  0  0  0  0  0  0  0  0
   24.8493   74.0131    4.6440 O   0  0  0  0  0  0  0  0  0  0  0  0
   24.3383   74.4197   -0.0958 O   0  0  0  0  0  0  0  0  0  0  0  0
   24.6653   74.3975    2.2904 C   0  0  1  0  0  0  0  0  0  0  0  0
   23.9483   74.4716    3.6399 C   0  0  1  0  0  0  0  0  0  0  0  0
   23.6877   74.6624    1.1469 C   0  0  2  0  0  0  0  0  0  0  0  0
   22.6725   73.6188    3.6370 C   0  0  1  0  0  0  0  0  0  0  0  0
   22.4317   73.7974    1.2657 C   0  0  1  0  0  0  0  0  0  0  0  0
   26.3132   75.2334    2.9944 H   0  0  0  0  0  0  0  0  0  0  0  0
   25.6508   74.5596    4.6349 H   0  0  0  0  0  0  0  0  0  0  0  0
   25.1315   74.9735   -0.1589 H   0  0  0  0  0  0  0  0  0  0  0  0
   22.3123   72.8636    5.8751 O   0  0  0  0  0  0  0  0  0  0  0  0
   21.8592   73.8018    4.9165 C   0  0  0  0  0  0  0  0  0  0  0  0
   21.8038   72.9687    6.6949 H   0  0  0  0  0  0  0  0  0  0  0  0
 25 28  1  0
 25 24  1  0
 25 26  1  1
 25 27  2  0
  1  4  1  0
  1 24  1  0
  1  2  1  1
  1  3  2  0
  6 11  1  0
  6 12  1  0
 29 36  1  0
 29 37  1  0
  9  7  1  6
  7 13  1  0
 10  8  1  6
  8 14  1  0
 37 28  1  1
  4  5  1  0
 33 30  1  1
 30 38  1  0
 34 31  1  1
 31 39  1  0
 35 32  1  6
 32 40  1  0
 41 42  1  0
 41 43  1  0
 15 19  2  0
 16 22  2  0
 12 17  1  1
 17 19  1  0
 17 20  1  0
 18 19  1  0
 18 22  1  0
 18 23  1  0
  9 10  1  0
  9 11  1  0
 10 12  1  0
 11  5  1  1
 33 34  1  0
 33 35  1  0
 34 36  1  0
 35 37  1  0
 36 42  1  1
 20 21  2  0
 21 22  1  0
M  CHG  2   2  -1  26  -1
M  END
>  <COMPND>  (500) 
    8629 

>  <AUTHOR>  (500) 
    GENERATED BY OPEN BABEL 3.1.1

>  <MASTER>  (500) 
        0    0    0    0    0    0    0    0   58    0   58    0

>  <minimizedAffinity>  (500) 
-7.22466

>  <CNNscore>  (500) 
0.5246348977

>  <CNNaffinity>  (500) 
4.1350927353

>  <CNN_VS>  (500) 
2.1694140434

>  <CNNaffinity_variance>  (500) 
0.1912897080

$$$$
501
     RDKit          3D

 43 45  0  0  0  0  0  0  0  0999 V2000
   22.6208   71.7821   -2.0912 P   0  0  2  0  0  0  0  0  0  0  0  0
   23.0685   72.8732   -3.1987 O   0  0  0  0  0  0  0  0  0  0  0  0
   23.7292   70.9135   -1.5731 O   0  0  0  0  0  0  0  0  0  0  0  0
   21.3862   71.0038   -2.7897 O   0  0  0  0  0  0  0  0  0  0  0  0
   20.7478   71.6083   -3.9009 C   0  0  0  0  0  0  0  0  0  0  0  0
   18.5903   72.0462   -4.8638 O   0  0  0  0  0  0  0  0  0  0  0  0
   17.4471   70.6264   -2.4830 O   0  0  0  0  0  0  0  0  0  0  0  0
   17.3249   68.7188   -4.4278 O   0  0  0  0  0  0  0  0  0  0  0  0
   18.6463   70.3536   -3.2062 C   0  0  1  0  0  0  0  0  0  0  0  0
   18.3219   69.7138   -4.5400 C   0  0  2  0  0  0  0  0  0  0  0  0
   19.2513   71.6858   -3.6311 C   0  0  1  0  0  0  0  0  0  0  0  0
   17.8658   70.9087   -5.3599 C   0  0  2  0  0  0  0  0  0  0  0  0
   17.0427   69.7905   -2.2008 H   0  0  0  0  0  0  0  0  0  0  0  0
   17.6631   67.9803   -3.8977 H   0  0  0  0  0  0  0  0  0  0  0  0
   15.8983   70.5009   -7.3450 O   0  0  0  0  0  0  0  0  0  0  0  0
   19.0563   70.3177  -10.6969 O   0  0  0  0  0  0  0  0  0  0  0  0
   18.1458   70.7516   -6.7593 N   0  0  0  0  0  0  0  0  0  0  0  0
   17.4723   70.4102   -9.0124 N   0  0  0  0  0  0  0  0  0  0  0  0
   17.0854   70.5508   -7.6735 C   0  0  0  0  0  0  0  0  0  0  0  0
   19.4597   70.7978   -7.2126 C   0  0  0  0  0  0  0  0  0  0  0  0
   19.8120   70.6607   -8.4926 C   0  0  0  0  0  0  0  0  0  0  0  0
   18.7645   70.4474   -9.5120 C   0  0  0  0  0  0  0  0  0  0  0  0
   16.7505   70.2689   -9.6672 H   0  0  0  0  0  0  0  0  0  0  0  0
   21.8914   72.6847   -0.9659 O   0  0  0  0  0  0  0  0  0  0  0  0
   20.7951   72.2991    0.1576 P   0  0  2  0  0  0  0  0  0  0  0  0
   20.9735   70.6989    0.3163 O   0  0  0  0  0  0  0  0  0  0  0  0
   19.3971   72.7367   -0.1710 O   0  0  0  0  0  0  0  0  0  0  0  0
   21.3830   72.9128    1.5297 O   0  0  0  0  0  0  0  0  0  0  0  0
   23.0226   71.3878    2.3060 O   0  0  0  0  0  0  0  0  0  0  0  0
   23.1665   74.1352    5.3852 O   0  0  0  0  0  0  0  0  0  0  0  0
   25.3305   74.0016    3.5019 O   0  0  0  0  0  0  0  0  0  0  0  0
   20.6260   73.4514    4.1777 O   0  0  0  0  0  0  0  0  0  0  0  0
   23.0168   73.7038    4.0299 C   0  0  1  0  0  0  0  0  0  0  0  0
   24.3117   73.0105    3.6016 C   0  0  1  0  0  0  0  0  0  0  0  0
   21.8356   72.7393    3.9407 C   0  0  2  0  0  0  0  0  0  0  0  0
   24.1354   72.2884    2.2590 C   0  0  1  0  0  0  0  0  0  0  0  0
   21.7805   72.0380    2.5823 C   0  0  1  0  0  0  0  0  0  0  0  0
   23.9145   74.7483    5.4487 H   0  0  0  0  0  0  0  0  0  0  0  0
   25.4314   74.4504    4.3561 H   0  0  0  0  0  0  0  0  0  0  0  0
   20.6733   73.8906    5.0407 H   0  0  0  0  0  0  0  0  0  0  0  0
   24.9505   70.3851    1.0665 O   0  0  0  0  0  0  0  0  0  0  0  0
   25.3642   71.4603    1.8894 C   0  0  0  0  0  0  0  0  0  0  0  0
   25.7223   69.8495    0.8232 H   0  0  0  0  0  0  0  0  0  0  0  0
 25 28  1  0
 25 24  1  0
 25 26  1  1
 25 27  2  0
  1  4  1  0
  1 24  1  0
  1  2  1  6
  1  3  2  0
  6 11  1  0
  6 12  1  0
 29 36  1  0
 29 37  1  0
  9  7  1  1
  7 13  1  0
 10  8  1  1
  8 14  1  0
 37 28  1  6
  4  5  1  0
 33 30  1  1
 30 38  1  0
 34 31  1  6
 31 39  1  0
 35 32  1  6
 32 40  1  0
 41 42  1  0
 41 43  1  0
 15 19  2  0
 16 22  2  0
 12 17  1  6
 17 19  1  0
 17 20  1  0
 18 19  1  0
 18 22  1  0
 18 23  1  0
  9 10  1  0
  9 11  1  0
 10 12  1  0
 11  5  1  6
 33 34  1  0
 33 35  1  0
 34 36  1  0
 35 37  1  0
 36 42  1  1
 20 21  2  0
 21 22  1  0
M  CHG  2   2  -1  26  -1
M  END
>  <COMPND>  (501) 
    8629 

>  <AUTHOR>  (501) 
    GENERATED BY OPEN BABEL 3.1.1

>  <MASTER>  (501) 
        0    0    0    0    0    0    0    0   58    0   58    0

>  <minimizedAffinity>  (501) 
-7.07066

>  <CNNscore>  (501) 
0.9335275292

>  <CNNaffinity>  (501) 
4.7976655960

>  <CNN_VS>  (501) 
4.4787530899

>  <CNNaffinity_variance>  (501) 
0.0431372449

$$$$
502
     RDKit          3D

 43 45  0  0  0  0  0  0  0  0999 V2000
   20.4483   71.1926   -1.3364 P   0  0  2  0  0  0  0  0  0  0  0  0
   20.9356   70.5044    0.0443 O   0  0  0  0  0  0  0  0  0  0  0  0
   19.9571   72.6040   -1.2022 O   0  0  0  0  0  0  0  0  0  0  0  0
   19.3865   70.1339   -1.9444 O   0  0  0  0  0  0  0  0  0  0  0  0
   19.0753   70.2056   -3.3250 C   0  0  0  0  0  0  0  0  0  0  0  0
   17.4597   71.3136   -4.7164 O   0  0  0  0  0  0  0  0  0  0  0  0
   15.3794   69.7620   -3.2146 O   0  0  0  0  0  0  0  0  0  0  0  0
   15.6092   68.3533   -5.5382 O   0  0  0  0  0  0  0  0  0  0  0  0
   16.6912   69.3641   -3.6098 C   0  0  1  0  0  0  0  0  0  0  0  0
   16.7316   69.0909   -5.0988 C   0  0  2  0  0  0  0  0  0  0  0  0
   17.6069   70.5753   -3.4837 C   0  0  1  0  0  0  0  0  0  0  0  0
   16.7704   70.4957   -5.6760 C   0  0  2  0  0  0  0  0  0  0  0  0
   14.7766   69.0047   -3.2864 H   0  0  0  0  0  0  0  0  0  0  0  0
   15.6298   67.4674   -5.1439 H   0  0  0  0  0  0  0  0  0  0  0  0
   15.5159   70.5499   -8.2060 O   0  0  0  0  0  0  0  0  0  0  0  0
   19.5595   70.7196  -10.4110 O   0  0  0  0  0  0  0  0  0  0  0  0
   17.4711   70.5544   -6.9277 N   0  0  0  0  0  0  0  0  0  0  0  0
   17.5303   70.6345   -9.3019 N   0  0  0  0  0  0  0  0  0  0  0  0
   16.7467   70.5765   -8.1423 C   0  0  0  0  0  0  0  0  0  0  0  0
   18.8612   70.5898   -6.9427 C   0  0  0  0  0  0  0  0  0  0  0  0
   19.5937   70.6438   -8.0571 C   0  0  0  0  0  0  0  0  0  0  0  0
   18.9141   70.6701   -9.3684 C   0  0  0  0  0  0  0  0  0  0  0  0
   17.0472   70.6504  -10.1599 H   0  0  0  0  0  0  0  0  0  0  0  0
   21.7316   71.0160   -2.3033 O   0  0  0  0  0  0  0  0  0  0  0  0
   23.0258   71.9571   -2.5322 P   0  0  2  0  0  0  0  0  0  0  0  0
   24.1187   70.9399   -3.1553 O   0  0  0  0  0  0  0  0  0  0  0  0
   23.4856   72.6814   -1.3002 O   0  0  0  0  0  0  0  0  0  0  0  0
   22.6181   72.9204   -3.7614 O   0  0  0  0  0  0  0  0  0  0  0  0
   20.3297   73.1093   -4.3481 O   0  0  0  0  0  0  0  0  0  0  0  0
   22.0258   74.4526   -7.8652 O   0  0  0  0  0  0  0  0  0  0  0  0
   20.7298   76.3216   -6.1117 O   0  0  0  0  0  0  0  0  0  0  0  0
   23.2478   72.2647   -6.4163 O   0  0  0  0  0  0  0  0  0  0  0  0
   21.9278   74.2791   -6.4490 C   0  0  1  0  0  0  0  0  0  0  0  0
   20.6146   74.9077   -5.9786 C   0  0  1  0  0  0  0  0  0  0  0  0
   21.9555   72.7864   -6.1258 C   0  0  2  0  0  0  0  0  0  0  0  0
   20.3106   74.5310   -4.5223 C   0  0  1  0  0  0  0  0  0  0  0  0
   21.5916   72.5180   -4.6645 C   0  0  1  0  0  0  0  0  0  0  0  0
   22.0093   75.3983   -8.0772 H   0  0  0  0  0  0  0  0  0  0  0  0
   20.9223   76.5461   -7.0357 H   0  0  0  0  0  0  0  0  0  0  0  0
   23.4663   72.4406   -7.3443 H   0  0  0  0  0  0  0  0  0  0  0  0
   18.2947   73.9722   -3.3678 O   0  0  0  0  0  0  0  0  0  0  0  0
   18.9309   75.0157   -4.0823 C   0  0  0  0  0  0  0  0  0  0  0  0
   17.4156   74.2665   -3.0812 H   0  0  0  0  0  0  0  0  0  0  0  0
 25 28  1  0
 25 24  1  0
 25 26  1  6
 25 27  2  0
  1  4  1  0
  1 24  1  0
  1  2  1  1
  1  3  2  0
  6 11  1  0
  6 12  1  0
 29 36  1  0
 29 37  1  0
  9  7  1  6
  7 13  1  0
 10  8  1  6
  8 14  1  0
 37 28  1  1
  4  5  1  0
 33 30  1  6
 30 38  1  0
 34 31  1  1
 31 39  1  0
 35 32  1  1
 32 40  1  0
 41 42  1  0
 41 43  1  0
 15 19  2  0
 16 22  2  0
 12 17  1  6
 17 19  1  0
 17 20  1  0
 18 19  1  0
 18 22  1  0
 18 23  1  0
  9 10  1  0
  9 11  1  0
 10 12  1  0
 11  5  1  6
 33 34  1  0
 33 35  1  0
 34 36  1  0
 35 37  1  0
 36 42  1  6
 20 21  2  0
 21 22  1  0
M  CHG  2   2  -1  26  -1
M  END
>  <COMPND>  (502) 
    8629 

>  <AUTHOR>  (502) 
    GENERATED BY OPEN BABEL 3.1.1

>  <MASTER>  (502) 
        0    0    0    0    0    0    0    0   58    0   58    0

>  <minimizedAffinity>  (502) 
-7.95806

>  <CNNscore>  (502) 
0.9230246544

>  <CNNaffinity>  (502) 
4.6770987511

>  <CNN_VS>  (502) 
4.3170776367

>  <CNNaffinity_variance>  (502) 
0.5777234435

$$$$
503
     RDKit          3D

 43 45  0  0  0  0  0  0  0  0999 V2000
   22.6642   71.9637   -3.8092 P   0  0  2  0  0  0  0  0  0  0  0  0
   23.3221   72.8727   -4.9746 O   0  0  0  0  0  0  0  0  0  0  0  0
   23.5979   70.9770   -3.1720 O   0  0  0  0  0  0  0  0  0  0  0  0
   21.3454   71.3352   -4.5047 O   0  0  0  0  0  0  0  0  0  0  0  0
   20.6051   70.3595   -3.7921 C   0  0  0  0  0  0  0  0  0  0  0  0
   18.7714   71.5254   -4.8176 O   0  0  0  0  0  0  0  0  0  0  0  0
   17.0450   70.2871   -2.7017 O   0  0  0  0  0  0  0  0  0  0  0  0
   16.5476   68.7121   -4.8716 O   0  0  0  0  0  0  0  0  0  0  0  0
   18.1724   69.7378   -3.3819 C   0  0  1  0  0  0  0  0  0  0  0  0
   17.7993   69.3641   -4.8013 C   0  0  2  0  0  0  0  0  0  0  0  0
   19.1796   70.8595   -3.6026 C   0  0  1  0  0  0  0  0  0  0  0  0
   17.7934   70.7171   -5.4922 C   0  0  2  0  0  0  0  0  0  0  0  0
   16.3880   69.5892   -2.5492 H   0  0  0  0  0  0  0  0  0  0  0  0
   16.6026   67.8565   -4.4183 H   0  0  0  0  0  0  0  0  0  0  0  0
   15.9656   70.1226   -7.5619 O   0  0  0  0  0  0  0  0  0  0  0  0
   19.2488   70.3853  -10.7856 O   0  0  0  0  0  0  0  0  0  0  0  0
   18.1433   70.6242   -6.8815 N   0  0  0  0  0  0  0  0  0  0  0  0
   17.6018   70.2541   -9.1654 N   0  0  0  0  0  0  0  0  0  0  0  0
   17.1501   70.3192   -7.8411 C   0  0  0  0  0  0  0  0  0  0  0  0
   19.4588   70.8348   -7.2804 C   0  0  0  0  0  0  0  0  0  0  0  0
   19.8736   70.7677   -8.5471 C   0  0  0  0  0  0  0  0  0  0  0  0
   18.8986   70.4542   -9.6116 C   0  0  0  0  0  0  0  0  0  0  0  0
   16.9275   70.0426   -9.8512 H   0  0  0  0  0  0  0  0  0  0  0  0
   22.0511   73.0621   -2.7940 O   0  0  0  0  0  0  0  0  0  0  0  0
   21.6026   72.9429   -1.2456 P   0  0  2  0  0  0  0  0  0  0  0  0
   22.1615   71.4889   -0.8083 O   0  0  0  0  0  0  0  0  0  0  0  0
   20.1319   73.1362   -1.0143 O   0  0  0  0  0  0  0  0  0  0  0  0
   22.5463   73.9940   -0.4649 O   0  0  0  0  0  0  0  0  0  0  0  0
   24.6765   74.8767   -1.0126 O   0  0  0  0  0  0  0  0  0  0  0  0
   25.1549   74.4840    3.0700 O   0  0  0  0  0  0  0  0  0  0  0  0
   24.8512   77.0994    1.9231 O   0  0  0  0  0  0  0  0  0  0  0  0
   23.7032   72.4669    1.5856 O   0  0  0  0  0  0  0  0  0  0  0  0
   24.4359   74.7447    1.8615 C   0  0  1  0  0  0  0  0  0  0  0  0
   25.1009   75.9266    1.1533 C   0  0  1  0  0  0  0  0  0  0  0  0
   24.4743   73.4984    0.9791 C   0  0  2  0  0  0  0  0  0  0  0  0
   24.5563   76.0965   -0.2713 C   0  0  1  0  0  0  0  0  0  0  0  0
   23.9562   73.7884   -0.4307 C   0  0  1  0  0  0  0  0  0  0  0  0
   25.1340   75.2712    3.6350 H   0  0  0  0  0  0  0  0  0  0  0  0
   25.1995   76.9788    2.8205 H   0  0  0  0  0  0  0  0  0  0  0  0
   24.0412   72.2925    2.4774 H   0  0  0  0  0  0  0  0  0  0  0  0
   26.5401   77.4233   -0.3862 O   0  0  0  0  0  0  0  0  0  0  0  0
   25.3158   77.1684   -1.0500 C   0  0  0  0  0  0  0  0  0  0  0  0
   27.0344   78.1034   -0.8708 H   0  0  0  0  0  0  0  0  0  0  0  0
 25 28  1  0
 25 24  1  0
 25 26  1  1
 25 27  2  0
  1  4  1  0
  1 24  1  0
  1  2  1  6
  1  3  2  0
  6 11  1  0
  6 12  1  0
 29 36  1  0
 29 37  1  0
  9  7  1  1
  7 13  1  0
 10  8  1  1
  8 14  1  0
 37 28  1  1
  4  5  1  0
 33 30  1  1
 30 38  1  0
 34 31  1  1
 31 39  1  0
 35 32  1  1
 32 40  1  0
 41 42  1  0
 41 43  1  0
 15 19  2  0
 16 22  2  0
 12 17  1  6
 17 19  1  0
 17 20  1  0
 18 19  1  0
 18 22  1  0
 18 23  1  0
  9 10  1  0
  9 11  1  0
 10 12  1  0
 11  5  1  6
 33 34  1  0
 33 35  1  0
 34 36  1  0
 35 37  1  0
 36 42  1  6
 20 21  2  0
 21 22  1  0
M  CHG  2   2  -1  26  -1
M  END
>  <COMPND>  (503) 
    8629 

>  <AUTHOR>  (503) 
    GENERATED BY OPEN BABEL 3.1.1

>  <MASTER>  (503) 
        0    0    0    0    0    0    0    0   58    0   58    0

>  <minimizedAffinity>  (503) 
-6.47624

>  <CNNscore>  (503) 
0.9128878713

>  <CNNaffinity>  (503) 
4.8097381592

>  <CNN_VS>  (503) 
4.3907518387

>  <CNNaffinity_variance>  (503) 
0.1983360499

$$$$
504
     RDKit          3D

 43 45  0  0  0  0  0  0  0  0999 V2000
   20.5093   71.1592   -1.4150 P   0  0  2  0  0  0  0  0  0  0  0  0
   20.8701   70.5008    0.0181 O   0  0  0  0  0  0  0  0  0  0  0  0
   20.0671   72.5920   -1.3608 O   0  0  0  0  0  0  0  0  0  0  0  0
   19.4511   70.1214   -2.0639 O   0  0  0  0  0  0  0  0  0  0  0  0
   19.1478   70.2389   -3.4430 C   0  0  0  0  0  0  0  0  0  0  0  0
   17.5319   71.3214   -4.8540 O   0  0  0  0  0  0  0  0  0  0  0  0
   15.4472   69.8577   -3.2721 O   0  0  0  0  0  0  0  0  0  0  0  0
   15.6262   68.3629   -5.5459 O   0  0  0  0  0  0  0  0  0  0  0  0
   16.7477   69.4253   -3.6684 C   0  0  1  0  0  0  0  0  0  0  0  0
   16.7651   69.0981   -5.1470 C   0  0  2  0  0  0  0  0  0  0  0  0
   17.6833   70.6257   -3.5973 C   0  0  1  0  0  0  0  0  0  0  0  0
   16.8181   70.4805   -5.7750 C   0  0  2  0  0  0  0  0  0  0  0  0
   14.8321   69.1079   -3.3092 H   0  0  0  0  0  0  0  0  0  0  0  0
   15.6382   67.4916   -5.1201 H   0  0  0  0  0  0  0  0  0  0  0  0
   15.5379   70.6518   -8.2869 O   0  0  0  0  0  0  0  0  0  0  0  0
   19.5500   70.4802  -10.5485 O   0  0  0  0  0  0  0  0  0  0  0  0
   17.5038   70.4831   -7.0364 N   0  0  0  0  0  0  0  0  0  0  0  0
   17.5366   70.5664   -9.4110 N   0  0  0  0  0  0  0  0  0  0  0  0
   16.7671   70.5719   -8.2406 C   0  0  0  0  0  0  0  0  0  0  0  0
   18.8914   70.3985   -7.0710 C   0  0  0  0  0  0  0  0  0  0  0  0
   19.6102   70.3932   -8.1955 C   0  0  0  0  0  0  0  0  0  0  0  0
   18.9173   70.4828   -9.4970 C   0  0  0  0  0  0  0  0  0  0  0  0
   17.0449   70.6270  -10.2620 H   0  0  0  0  0  0  0  0  0  0  0  0
   21.8493   70.9011   -2.2813 O   0  0  0  0  0  0  0  0  0  0  0  0
   23.0984   71.8701   -2.6188 P   0  0  2  0  0  0  0  0  0  0  0  0
   24.2732   70.8339   -3.0231 O   0  0  0  0  0  0  0  0  0  0  0  0
   23.4609   72.8154   -1.5102 O   0  0  0  0  0  0  0  0  0  0  0  0
   22.6942   72.5895   -4.0058 O   0  0  0  0  0  0  0  0  0  0  0  0
   22.9203   74.9459   -3.8912 O   0  0  0  0  0  0  0  0  0  0  0  0
   20.9195   74.6495   -7.4911 O   0  0  0  0  0  0  0  0  0  0  0  0
   23.7038   75.3530   -7.4702 O   0  0  0  0  0  0  0  0  0  0  0  0
   20.2235   72.8869   -5.3029 O   0  0  0  0  0  0  0  0  0  0  0  0
   21.8362   74.2405   -6.4725 C   0  0  1  0  0  0  0  0  0  0  0  0
   22.8866   75.3400   -6.3030 C   0  0  1  0  0  0  0  0  0  0  0  0
   21.0699   74.0236   -5.1690 C   0  0  2  0  0  0  0  0  0  0  0  0
   23.7438   75.0994   -5.0531 C   0  0  1  0  0  0  0  0  0  0  0  0
   22.0162   73.8429   -3.9808 C   0  0  1  0  0  0  0  0  0  0  0  0
   21.3996   74.7885   -8.3215 H   0  0  0  0  0  0  0  0  0  0  0  0
   23.1503   75.5054   -8.2522 H   0  0  0  0  0  0  0  0  0  0  0  0
   19.6291   73.0136   -6.0582 H   0  0  0  0  0  0  0  0  0  0  0  0
   25.9368   75.9855   -5.3915 O   0  0  0  0  0  0  0  0  0  0  0  0
   24.6922   76.2641   -4.7770 C   0  0  0  0  0  0  0  0  0  0  0  0
   26.5504   76.7185   -5.2244 H   0  0  0  0  0  0  0  0  0  0  0  0
 25 28  1  0
 25 24  1  0
 25 26  1  6
 25 27  2  0
  1  4  1  0
  1 24  1  0
  1  2  1  1
  1  3  2  0
  6 11  1  0
  6 12  1  0
 29 36  1  0
 29 37  1  0
  9  7  1  6
  7 13  1  0
 10  8  1  6
  8 14  1  0
 37 28  1  6
  4  5  1  0
 33 30  1  6
 30 38  1  0
 34 31  1  6
 31 39  1  0
 35 32  1  6
 32 40  1  0
 41 42  1  0
 41 43  1  0
 15 19  2  0
 16 22  2  0
 12 17  1  6
 17 19  1  0
 17 20  1  0
 18 19  1  0
 18 22  1  0
 18 23  1  0
  9 10  1  0
  9 11  1  0
 10 12  1  0
 11  5  1  6
 33 34  1  0
 33 35  1  0
 34 36  1  0
 35 37  1  0
 36 42  1  1
 20 21  2  0
 21 22  1  0
M  CHG  2   2  -1  26  -1
M  END
>  <COMPND>  (504) 
    8629 

>  <AUTHOR>  (504) 
    GENERATED BY OPEN BABEL 3.1.1

>  <MASTER>  (504) 
        0    0    0    0    0    0    0    0   58    0   58    0

>  <minimizedAffinity>  (504) 
-7.96566

>  <CNNscore>  (504) 
0.9092189670

>  <CNNaffinity>  (504) 
4.7367076874

>  <CNN_VS>  (504) 
4.3067045212

>  <CNNaffinity_variance>  (504) 
0.4461809993

$$$$
505
     RDKit          3D

 43 45  0  0  0  0  0  0  0  0999 V2000
   21.5140   72.5054   -4.6938 P   0  0  2  0  0  0  0  0  0  0  0  0
   21.3033   74.0974   -4.4975 O   0  0  0  0  0  0  0  0  0  0  0  0
   22.4445   72.1217   -5.8067 O   0  0  0  0  0  0  0  0  0  0  0  0
   20.0078   71.9251   -4.8057 O   0  0  0  0  0  0  0  0  0  0  0  0
   19.4739   71.2132   -3.7030 C   0  0  0  0  0  0  0  0  0  0  0  0
   17.5771   71.6983   -5.0961 O   0  0  0  0  0  0  0  0  0  0  0  0
   15.9643   70.1056   -3.1333 O   0  0  0  0  0  0  0  0  0  0  0  0
   16.3275   68.3376   -5.1775 O   0  0  0  0  0  0  0  0  0  0  0  0
   17.3013   69.8946   -3.5841 C   0  0  1  0  0  0  0  0  0  0  0  0
   17.2998   69.3468   -4.9961 C   0  0  2  0  0  0  0  0  0  0  0  0
   17.9536   71.2585   -3.7728 C   0  0  1  0  0  0  0  0  0  0  0  0
   17.0101   70.5920   -5.8168 C   0  0  2  0  0  0  0  0  0  0  0  0
   15.5273   69.2485   -3.0053 H   0  0  0  0  0  0  0  0  0  0  0  0
   16.5561   67.5669   -4.6349 H   0  0  0  0  0  0  0  0  0  0  0  0
   15.5455   70.6285   -8.2317 O   0  0  0  0  0  0  0  0  0  0  0  0
   19.3805   70.3696  -10.7748 O   0  0  0  0  0  0  0  0  0  0  0  0
   17.6004   70.5357   -7.1244 N   0  0  0  0  0  0  0  0  0  0  0  0
   17.4562   70.4997   -9.4960 N   0  0  0  0  0  0  0  0  0  0  0  0
   16.7756   70.5591   -8.2732 C   0  0  0  0  0  0  0  0  0  0  0  0
   18.9824   70.4586   -7.2581 C   0  0  0  0  0  0  0  0  0  0  0  0
   19.6159   70.4014   -8.4314 C   0  0  0  0  0  0  0  0  0  0  0  0
   18.8275   70.4209   -9.6805 C   0  0  0  0  0  0  0  0  0  0  0  0
   16.9021   70.5142  -10.3100 H   0  0  0  0  0  0  0  0  0  0  0  0
   21.9834   72.0172   -3.2260 O   0  0  0  0  0  0  0  0  0  0  0  0
   23.4463   71.9712   -2.5400 P   0  0  2  0  0  0  0  0  0  0  0  0
   24.1038   73.3846   -2.9731 O   0  0  0  0  0  0  0  0  0  0  0  0
   24.2633   70.7681   -2.9129 O   0  0  0  0  0  0  0  0  0  0  0  0
   23.1609   72.1219   -0.9586 O   0  0  0  0  0  0  0  0  0  0  0  0
   24.2221   70.7165    0.6273 O   0  0  0  0  0  0  0  0  0  0  0  0
   20.9066   71.8126    2.8312 O   0  0  0  0  0  0  0  0  0  0  0  0
   23.4802   72.8918    3.5094 O   0  0  0  0  0  0  0  0  0  0  0  0
   20.6504   71.3050   -0.0072 O   0  0  0  0  0  0  0  0  0  0  0  0
   21.9645   72.0015    1.8874 C   0  0  1  0  0  0  0  0  0  0  0  0
   23.2962   71.7996    2.6131 C   0  0  1  0  0  0  0  0  0  0  0  0
   21.8101   70.9878    0.7551 C   0  0  2  0  0  0  0  0  0  0  0  0
   24.4626   71.7219    1.6188 C   0  0  1  0  0  0  0  0  0  0  0  0
   23.0452   70.9562   -0.1469 C   0  0  1  0  0  0  0  0  0  0  0  0
   20.9985   72.4535    3.5525 H   0  0  0  0  0  0  0  0  0  0  0  0
   22.7367   72.9300    4.1315 H   0  0  0  0  0  0  0  0  0  0  0  0
   19.8755   71.3216    0.5751 H   0  0  0  0  0  0  0  0  0  0  0  0
   26.3422   72.5474    2.8413 O   0  0  0  0  0  0  0  0  0  0  0  0
   25.7780   71.3639    2.3071 C   0  0  0  0  0  0  0  0  0  0  0  0
   27.1799   72.3348    3.2827 H   0  0  0  0  0  0  0  0  0  0  0  0
 25 28  1  0
 25 24  1  0
 25 26  1  6
 25 27  2  0
  1  4  1  0
  1 24  1  0
  1  2  1  1
  1  3  2  0
  6 11  1  0
  6 12  1  0
 29 36  1  0
 29 37  1  0
  9  7  1  6
  7 13  1  0
 10  8  1  1
  8 14  1  0
 37 28  1  1
  4  5  1  0
 33 30  1  1
 30 38  1  0
 34 31  1  1
 31 39  1  0
 35 32  1  6
 32 40  1  0
 41 42  1  0
 41 43  1  0
 15 19  2  0
 16 22  2  0
 12 17  1  6
 17 19  1  0
 17 20  1  0
 18 19  1  0
 18 22  1  0
 18 23  1  0
  9 10  1  0
  9 11  1  0
 10 12  1  0
 11  5  1  6
 33 34  1  0
 33 35  1  0
 34 36  1  0
 35 37  1  0
 36 42  1  1
 20 21  2  0
 21 22  1  0
M  CHG  2   2  -1  26  -1
M  END
>  <COMPND>  (505) 
    8629 

>  <AUTHOR>  (505) 
    GENERATED BY OPEN BABEL 3.1.1

>  <MASTER>  (505) 
        0    0    0    0    0    0    0    0   58    0   58    0

>  <minimizedAffinity>  (505) 
-8.16029

>  <CNNscore>  (505) 
0.8940651417

>  <CNNaffinity>  (505) 
4.8279395103

>  <CNN_VS>  (505) 
4.3164925575

>  <CNNaffinity_variance>  (505) 
0.0516807847

$$$$
506
     RDKit          3D

 43 45  0  0  0  0  0  0  0  0999 V2000
   22.7401   71.3995   -2.6037 P   0  0  2  0  0  0  0  0  0  0  0  0
   24.1447   70.7528   -3.0796 O   0  0  0  0  0  0  0  0  0  0  0  0
   22.2541   70.9410   -1.2603 O   0  0  0  0  0  0  0  0  0  0  0  0
   21.7422   71.1177   -3.8457 O   0  0  0  0  0  0  0  0  0  0  0  0
   20.7825   70.0827   -3.7205 C   0  0  0  0  0  0  0  0  0  0  0  0
   19.0219   71.4398   -4.6327 O   0  0  0  0  0  0  0  0  0  0  0  0
   17.2779   70.2949   -2.4790 O   0  0  0  0  0  0  0  0  0  0  0  0
   16.5516   68.8399   -4.6681 O   0  0  0  0  0  0  0  0  0  0  0  0
   18.3221   69.6686   -3.2224 C   0  0  1  0  0  0  0  0  0  0  0  0
   17.8591   69.3746   -4.6341 C   0  0  2  0  0  0  0  0  0  0  0  0
   19.4171   70.7020   -3.4555 C   0  0  1  0  0  0  0  0  0  0  0  0
   17.9479   70.7439   -5.2864 C   0  0  2  0  0  0  0  0  0  0  0  0
   16.5670   69.6541   -2.3175 H   0  0  0  0  0  0  0  0  0  0  0  0
   16.5472   67.9688   -4.2414 H   0  0  0  0  0  0  0  0  0  0  0  0
   15.9966   70.3316   -7.2865 O   0  0  0  0  0  0  0  0  0  0  0  0
   19.1501   70.4525  -10.6454 O   0  0  0  0  0  0  0  0  0  0  0  0
   18.2311   70.6638   -6.6916 N   0  0  0  0  0  0  0  0  0  0  0  0
   17.5684   70.3923   -8.9573 N   0  0  0  0  0  0  0  0  0  0  0  0
   17.1790   70.4534   -7.6132 C   0  0  0  0  0  0  0  0  0  0  0  0
   19.5399   70.7937   -7.1433 C   0  0  0  0  0  0  0  0  0  0  0  0
   19.8948   70.7318   -8.4284 C   0  0  0  0  0  0  0  0  0  0  0  0
   18.8558   70.5143   -9.4557 C   0  0  0  0  0  0  0  0  0  0  0  0
   16.8524   70.2460   -9.6174 H   0  0  0  0  0  0  0  0  0  0  0  0
   23.0162   72.9885   -2.7128 O   0  0  0  0  0  0  0  0  0  0  0  0
   21.9995   74.2331   -2.8872 P   0  0  2  0  0  0  0  0  0  0  0  0
   22.6881   75.4012   -2.0047 O   0  0  0  0  0  0  0  0  0  0  0  0
   20.5798   73.9257   -2.5078 O   0  0  0  0  0  0  0  0  0  0  0  0
   22.1949   74.7090   -4.4170 O   0  0  0  0  0  0  0  0  0  0  0  0
   20.5086   75.1601   -6.0200 O   0  0  0  0  0  0  0  0  0  0  0  0
   23.4437   73.7141   -8.5390 O   0  0  0  0  0  0  0  0  0  0  0  0
   22.8339   76.5205   -8.5362 O   0  0  0  0  0  0  0  0  0  0  0  0
   23.0542   72.5108   -5.9352 O   0  0  0  0  0  0  0  0  0  0  0  0
   22.9312   74.4162   -7.4033 C   0  0  1  0  0  0  0  0  0  0  0  0
   22.0187   75.5374   -7.9044 C   0  0  1  0  0  0  0  0  0  0  0  0
   22.1514   73.4409   -6.5236 C   0  0  2  0  0  0  0  0  0  0  0  0
   21.2248   76.1632   -6.7498 C   0  0  1  0  0  0  0  0  0  0  0  0
   21.3585   74.1700   -5.4374 C   0  0  1  0  0  0  0  0  0  0  0  0
   23.9404   74.3276   -9.1015 H   0  0  0  0  0  0  0  0  0  0  0  0
   23.3302   76.1123   -9.2630 H   0  0  0  0  0  0  0  0  0  0  0  0
   23.5498   72.0556   -6.6331 H   0  0  0  0  0  0  0  0  0  0  0  0
   19.8077   76.8143   -8.5600 O   0  0  0  0  0  0  0  0  0  0  0  0
   20.1941   77.1746   -7.2465 C   0  0  0  0  0  0  0  0  0  0  0  0
   19.1516   77.4491   -8.8890 H   0  0  0  0  0  0  0  0  0  0  0  0
 25 28  1  0
 25 24  1  0
 25 26  1  1
 25 27  2  0
  1  4  1  0
  1 24  1  0
  1  2  1  6
  1  3  2  0
  6 11  1  0
  6 12  1  0
 29 36  1  0
 29 37  1  0
  9  7  1  1
  7 13  1  0
 10  8  1  1
  8 14  1  0
 37 28  1  1
  4  5  1  0
 33 30  1  6
 30 38  1  0
 34 31  1  1
 31 39  1  0
 35 32  1  1
 32 40  1  0
 41 42  1  0
 41 43  1  0
 15 19  2  0
 16 22  2  0
 12 17  1  6
 17 19  1  0
 17 20  1  0
 18 19  1  0
 18 22  1  0
 18 23  1  0
  9 10  1  0
  9 11  1  0
 10 12  1  0
 11  5  1  6
 33 34  1  0
 33 35  1  0
 34 36  1  0
 35 37  1  0
 36 42  1  6
 20 21  2  0
 21 22  1  0
M  CHG  2   2  -1  26  -1
M  END
>  <COMPND>  (506) 
    8629 

>  <AUTHOR>  (506) 
    GENERATED BY OPEN BABEL 3.1.1

>  <MASTER>  (506) 
        0    0    0    0    0    0    0    0   58    0   58    0

>  <minimizedAffinity>  (506) 
-7.16245

>  <CNNscore>  (506) 
0.8900408745

>  <CNNaffinity>  (506) 
4.6584534645

>  <CNN_VS>  (506) 
4.1462140083

>  <CNNaffinity_variance>  (506) 
0.3406896591

$$$$
507
     RDKit          3D

 43 45  0  0  0  0  0  0  0  0999 V2000
   22.8109   71.9674   -3.8010 P   0  0  2  0  0  0  0  0  0  0  0  0
   23.3461   72.9541   -4.9661 O   0  0  0  0  0  0  0  0  0  0  0  0
   23.8358   71.0173   -3.2549 O   0  0  0  0  0  0  0  0  0  0  0  0
   21.4928   71.2851   -4.4449 O   0  0  0  0  0  0  0  0  0  0  0  0
   20.8050   70.3007   -3.6928 C   0  0  0  0  0  0  0  0  0  0  0  0
   18.9180   71.4689   -4.6138 O   0  0  0  0  0  0  0  0  0  0  0  0
   17.2937   70.1595   -2.4602 O   0  0  0  0  0  0  0  0  0  0  0  0
   16.7249   68.6313   -4.6460 O   0  0  0  0  0  0  0  0  0  0  0  0
   18.3981   69.6402   -3.1991 C   0  0  1  0  0  0  0  0  0  0  0  0
   17.9712   69.2963   -4.6108 C   0  0  2  0  0  0  0  0  0  0  0  0
   19.3831   70.7789   -3.4331 C   0  0  1  0  0  0  0  0  0  0  0  0
   17.9221   70.6654   -5.2675 C   0  0  2  0  0  0  0  0  0  0  0  0
   16.6512   69.4503   -2.2982 H   0  0  0  0  0  0  0  0  0  0  0  0
   16.8078   67.7657   -4.2164 H   0  0  0  0  0  0  0  0  0  0  0  0
   15.9957   70.2177   -7.2841 O   0  0  0  0  0  0  0  0  0  0  0  0
   19.1635   70.4722  -10.6220 O   0  0  0  0  0  0  0  0  0  0  0  0
   18.2157   70.6101   -6.6718 N   0  0  0  0  0  0  0  0  0  0  0  0
   17.5746   70.3449   -8.9445 N   0  0  0  0  0  0  0  0  0  0  0  0
   17.1758   70.3788   -7.6022 C   0  0  0  0  0  0  0  0  0  0  0  0
   19.5226   70.7846   -7.1139 C   0  0  0  0  0  0  0  0  0  0  0  0
   19.8866   70.7482   -8.3975 C   0  0  0  0  0  0  0  0  0  0  0  0
   18.8606   70.5114   -9.4335 C   0  0  0  0  0  0  0  0  0  0  0  0
   16.8671   70.1848   -9.6106 H   0  0  0  0  0  0  0  0  0  0  0  0
   22.1950   72.9912   -2.7122 O   0  0  0  0  0  0  0  0  0  0  0  0
   21.9480   72.8286   -1.1230 P   0  0  2  0  0  0  0  0  0  0  0  0
   22.6828   74.1276   -0.4984 O   0  0  0  0  0  0  0  0  0  0  0  0
   22.4184   71.5196   -0.5579 O   0  0  0  0  0  0  0  0  0  0  0  0
   20.3724   73.1159   -0.9230 O   0  0  0  0  0  0  0  0  0  0  0  0
   18.8410   74.3537   -2.2418 O   0  0  0  0  0  0  0  0  0  0  0  0
   17.4417   75.3578    1.5112 O   0  0  0  0  0  0  0  0  0  0  0  0
   15.9184   73.5663   -0.1376 O   0  0  0  0  0  0  0  0  0  0  0  0
   20.2887   75.1094    1.0504 O   0  0  0  0  0  0  0  0  0  0  0  0
   18.0189   74.5012    0.5220 C   0  0  1  0  0  0  0  0  0  0  0  0
   17.0129   74.3410   -0.6196 C   0  0  1  0  0  0  0  0  0  0  0  0
   19.3147   75.1294    0.0125 C   0  0  2  0  0  0  0  0  0  0  0  0
   17.6570   73.6584   -1.8338 C   0  0  1  0  0  0  0  0  0  0  0  0
   19.8448   74.4047   -1.2261 C   0  0  1  0  0  0  0  0  0  0  0  0
   16.6188   74.9644    1.8392 H   0  0  0  0  0  0  0  0  0  0  0  0
   15.5210   74.0081    0.6293 H   0  0  0  0  0  0  0  0  0  0  0  0
   19.9413   75.5714    1.8287 H   0  0  0  0  0  0  0  0  0  0  0  0
   15.7127   74.6078   -2.8474 O   0  0  0  0  0  0  0  0  0  0  0  0
   16.7188   73.6302   -3.0384 C   0  0  0  0  0  0  0  0  0  0  0  0
   15.1084   74.6016   -3.6067 H   0  0  0  0  0  0  0  0  0  0  0  0
 25 28  1  0
 25 24  1  0
 25 26  1  1
 25 27  2  0
  1  4  1  0
  1 24  1  0
  1  2  1  6
  1  3  2  0
  6 11  1  0
  6 12  1  0
 29 36  1  0
 29 37  1  0
  9  7  1  1
  7 13  1  0
 10  8  1  1
  8 14  1  0
 37 28  1  1
  4  5  1  0
 33 30  1  1
 30 38  1  0
 34 31  1  1
 31 39  1  0
 35 32  1  1
 32 40  1  0
 41 42  1  0
 41 43  1  0
 15 19  2  0
 16 22  2  0
 12 17  1  6
 17 19  1  0
 17 20  1  0
 18 19  1  0
 18 22  1  0
 18 23  1  0
  9 10  1  0
  9 11  1  0
 10 12  1  0
 11  5  1  6
 33 34  1  0
 33 35  1  0
 34 36  1  0
 35 37  1  0
 36 42  1  6
 20 21  2  0
 21 22  1  0
M  CHG  2   2  -1  26  -1
M  END
>  <COMPND>  (507) 
    8629 

>  <AUTHOR>  (507) 
    GENERATED BY OPEN BABEL 3.1.1

>  <MASTER>  (507) 
        0    0    0    0    0    0    0    0   58    0   58    0

>  <minimizedAffinity>  (507) 
-6.11548

>  <CNNscore>  (507) 
0.8725075126

>  <CNNaffinity>  (507) 
4.6300735474

>  <CNN_VS>  (507) 
4.0397739410

>  <CNNaffinity_variance>  (507) 
0.0280356798

$$$$
508
     RDKit          3D

 43 45  0  0  0  0  0  0  0  0999 V2000
   21.2162   71.4633   -1.9588 P   0  0  2  0  0  0  0  0  0  0  0  0
   21.1465   72.3026   -3.3402 O   0  0  0  0  0  0  0  0  0  0  0  0
   22.5635   70.8884   -1.6339 O   0  0  0  0  0  0  0  0  0  0  0  0
   20.0096   70.3936   -2.0930 O   0  0  0  0  0  0  0  0  0  0  0  0
   19.4831   70.1264   -3.3811 C   0  0  0  0  0  0  0  0  0  0  0  0
   17.8247   71.3284   -4.6375 O   0  0  0  0  0  0  0  0  0  0  0  0
   15.7887   69.8701   -2.9887 O   0  0  0  0  0  0  0  0  0  0  0  0
   15.7669   68.4740   -5.3311 O   0  0  0  0  0  0  0  0  0  0  0  0
   17.0441   69.4099   -3.4861 C   0  0  1  0  0  0  0  0  0  0  0  0
   16.9561   69.1494   -4.9754 C   0  0  2  0  0  0  0  0  0  0  0  0
   18.0278   70.5717   -3.4240 C   0  0  1  0  0  0  0  0  0  0  0  0
   17.0227   70.5559   -5.5457 C   0  0  2  0  0  0  0  0  0  0  0  0
   15.1441   69.1451   -3.0182 H   0  0  0  0  0  0  0  0  0  0  0  0
   15.7721   67.5845   -4.9447 H   0  0  0  0  0  0  0  0  0  0  0  0
   15.6064   70.2618   -7.9718 O   0  0  0  0  0  0  0  0  0  0  0  0
   19.4473   70.7061  -10.4801 O   0  0  0  0  0  0  0  0  0  0  0  0
   17.6275   70.5910   -6.8474 N   0  0  0  0  0  0  0  0  0  0  0  0
   17.5200   70.4835   -9.2188 N   0  0  0  0  0  0  0  0  0  0  0  0
   16.8270   70.4321   -8.0026 C   0  0  0  0  0  0  0  0  0  0  0  0
   18.9996   70.7816   -6.9691 C   0  0  0  0  0  0  0  0  0  0  0  0
   19.6454   70.8268   -8.1362 C   0  0  0  0  0  0  0  0  0  0  0  0
   18.8825   70.6694   -9.3913 C   0  0  0  0  0  0  0  0  0  0  0  0
   16.9829   70.3748  -10.0370 H   0  0  0  0  0  0  0  0  0  0  0  0
   20.6515   72.5129   -0.8669 O   0  0  0  0  0  0  0  0  0  0  0  0
   20.9037   74.0998   -0.6904 P   0  0  2  0  0  0  0  0  0  0  0  0
   19.4613   74.7455   -1.0369 O   0  0  0  0  0  0  0  0  0  0  0  0
   22.0372   74.6381   -1.5145 O   0  0  0  0  0  0  0  0  0  0  0  0
   21.0738   74.3120    0.9005 O   0  0  0  0  0  0  0  0  0  0  0  0
   21.0419   72.7212    2.6570 O   0  0  0  0  0  0  0  0  0  0  0  0
   19.1767   75.8641    4.5791 O   0  0  0  0  0  0  0  0  0  0  0  0
   21.8677   75.1606    5.2945 O   0  0  0  0  0  0  0  0  0  0  0  0
   18.6192   75.3439    1.7866 O   0  0  0  0  0  0  0  0  0  0  0  0
   20.1060   75.2540    3.6794 C   0  0  1  0  0  0  0  0  0  0  0  0
   21.0272   74.3391    4.4889 C   0  0  1  0  0  0  0  0  0  0  0  0
   19.3346   74.4510    2.6336 C   0  0  2  0  0  0  0  0  0  0  0  0
   21.8733   73.4497    3.5679 C   0  0  1  0  0  0  0  0  0  0  0  0
   20.2644   73.5637    1.8040 C   0  0  1  0  0  0  0  0  0  0  0  0
   19.6600   76.3758    5.2454 H   0  0  0  0  0  0  0  0  0  0  0  0
   21.3210   75.7175    5.8710 H   0  0  0  0  0  0  0  0  0  0  0  0
   18.0340   75.8998    2.3236 H   0  0  0  0  0  0  0  0  0  0  0  0
   22.3431   72.5309    5.7229 O   0  0  0  0  0  0  0  0  0  0  0  0
   22.6834   72.4205    4.3531 C   0  0  0  0  0  0  0  0  0  0  0  0
   22.8509   71.8815    6.2349 H   0  0  0  0  0  0  0  0  0  0  0  0
 25 28  1  0
 25 24  1  0
 25 26  1  6
 25 27  2  0
  1  4  1  0
  1 24  1  0
  1  2  1  6
  1  3  2  0
  6 11  1  0
  6 12  1  0
 29 36  1  0
 29 37  1  0
  9  7  1  6
  7 13  1  0
 10  8  1  1
  8 14  1  0
 37 28  1  1
  4  5  1  0
 33 30  1  1
 30 38  1  0
 34 31  1  6
 31 39  1  0
 35 32  1  6
 32 40  1  0
 41 42  1  0
 41 43  1  0
 15 19  2  0
 16 22  2  0
 12 17  1  6
 17 19  1  0
 17 20  1  0
 18 19  1  0
 18 22  1  0
 18 23  1  0
  9 10  1  0
  9 11  1  0
 10 12  1  0
 11  5  1  6
 33 34  1  0
 33 35  1  0
 34 36  1  0
 35 37  1  0
 36 42  1  1
 20 21  2  0
 21 22  1  0
M  CHG  2   2  -1  26  -1
M  END
>  <COMPND>  (508) 
    8629 

>  <AUTHOR>  (508) 
    GENERATED BY OPEN BABEL 3.1.1

>  <MASTER>  (508) 
        0    0    0    0    0    0    0    0   58    0   58    0

>  <minimizedAffinity>  (508) 
-6.66373

>  <CNNscore>  (508) 
0.8693406582

>  <CNNaffinity>  (508) 
4.4996237755

>  <CNN_VS>  (508) 
3.9117059708

>  <CNNaffinity_variance>  (508) 
0.0796957836

$$$$
509
     RDKit          3D

 43 45  0  0  0  0  0  0  0  0999 V2000
   23.3418   72.0340   -2.9052 P   0  0  2  0  0  0  0  0  0  0  0  0
   24.1028   73.3501   -3.4586 O   0  0  0  0  0  0  0  0  0  0  0  0
   24.1001   70.7492   -3.0653 O   0  0  0  0  0  0  0  0  0  0  0  0
   21.8944   72.0903   -3.6261 O   0  0  0  0  0  0  0  0  0  0  0  0
   21.1430   70.8933   -3.7283 C   0  0  0  0  0  0  0  0  0  0  0  0
   19.0598   71.7402   -4.5749 O   0  0  0  0  0  0  0  0  0  0  0  0
   17.7676   70.3581   -2.2488 O   0  0  0  0  0  0  0  0  0  0  0  0
   17.2804   68.6377   -4.3078 O   0  0  0  0  0  0  0  0  0  0  0  0
   18.8852   69.9476   -3.0349 C   0  0  1  0  0  0  0  0  0  0  0  0
   18.4231   69.4645   -4.3938 C   0  0  2  0  0  0  0  0  0  0  0  0
   19.6876   71.1916   -3.3954 C   0  0  1  0  0  0  0  0  0  0  0  0
   18.1455   70.7723   -5.1154 C   0  0  2  0  0  0  0  0  0  0  0  0
   17.2402   69.5804   -2.0061 H   0  0  0  0  0  0  0  0  0  0  0  0
   17.5082   67.8187   -3.8408 H   0  0  0  0  0  0  0  0  0  0  0  0
   16.2159   69.8368   -6.9537 O   0  0  0  0  0  0  0  0  0  0  0  0
   19.0661   70.4284  -10.5268 O   0  0  0  0  0  0  0  0  0  0  0  0
   18.3564   70.6718   -6.5320 N   0  0  0  0  0  0  0  0  0  0  0  0
   17.6366   70.1323   -8.7314 N   0  0  0  0  0  0  0  0  0  0  0  0
   17.3227   70.1882   -7.3674 C   0  0  0  0  0  0  0  0  0  0  0  0
   19.5774   71.0506   -7.0794 C   0  0  0  0  0  0  0  0  0  0  0  0
   19.8613   70.9900   -8.3821 C   0  0  0  0  0  0  0  0  0  0  0  0
   18.8356   70.4962   -9.3234 C   0  0  0  0  0  0  0  0  0  0  0  0
   16.9317   69.7983   -9.3325 H   0  0  0  0  0  0  0  0  0  0  0  0
   23.0011   72.4278   -1.3749 O   0  0  0  0  0  0  0  0  0  0  0  0
   22.6042   71.5090   -0.1055 P   0  0  2  0  0  0  0  0  0  0  0  0
   23.9874   70.7484    0.2489 O   0  0  0  0  0  0  0  0  0  0  0  0
   21.4390   70.5941   -0.3485 O   0  0  0  0  0  0  0  0  0  0  0  0
   22.3922   72.5549    1.1054 O   0  0  0  0  0  0  0  0  0  0  0  0
   21.9559   72.3754    3.4279 O   0  0  0  0  0  0  0  0  0  0  0  0
   19.2479   75.3436    2.4752 O   0  0  0  0  0  0  0  0  0  0  0  0
   21.6164   76.0077    3.9575 O   0  0  0  0  0  0  0  0  0  0  0  0
   19.6891   73.1485    0.6404 O   0  0  0  0  0  0  0  0  0  0  0  0
   20.4782   74.6214    2.3752 C   0  0  1  0  0  0  0  0  0  0  0  0
   21.1754   74.6709    3.7362 C   0  0  1  0  0  0  0  0  0  0  0  0
   20.1785   73.1774    1.9769 C   0  0  2  0  0  0  0  0  0  0  0  0
   22.3637   73.7011    3.7855 C   0  0  1  0  0  0  0  0  0  0  0  0
   21.4154   72.2870    2.1081 C   0  0  1  0  0  0  0  0  0  0  0  0
   19.4312   76.2614    2.7273 H   0  0  0  0  0  0  0  0  0  0  0  0
   20.8566   76.6099    3.9233 H   0  0  0  0  0  0  0  0  0  0  0  0
   18.9060   73.7157    0.5706 H   0  0  0  0  0  0  0  0  0  0  0  0
   21.9861   73.1524    6.0801 O   0  0  0  0  0  0  0  0  0  0  0  0
   22.9765   73.6179    5.1818 C   0  0  0  0  0  0  0  0  0  0  0  0
   22.3620   73.0942    6.9729 H   0  0  0  0  0  0  0  0  0  0  0  0
 25 28  1  0
 25 24  1  0
 25 26  1  1
 25 27  2  0
  1  4  1  0
  1 24  1  0
  1  2  1  6
  1  3  2  0
  6 11  1  0
  6 12  1  0
 29 36  1  0
 29 37  1  0
  9  7  1  1
  7 13  1  0
 10  8  1  1
  8 14  1  0
 37 28  1  6
  4  5  1  0
 33 30  1  1
 30 38  1  0
 34 31  1  6
 31 39  1  0
 35 32  1  6
 32 40  1  0
 41 42  1  0
 41 43  1  0
 15 19  2  0
 16 22  2  0
 12 17  1  6
 17 19  1  0
 17 20  1  0
 18 19  1  0
 18 22  1  0
 18 23  1  0
  9 10  1  0
  9 11  1  0
 10 12  1  0
 11  5  1  6
 33 34  1  0
 33 35  1  0
 34 36  1  0
 35 37  1  0
 36 42  1  1
 20 21  2  0
 21 22  1  0
M  CHG  2   2  -1  26  -1
M  END
>  <COMPND>  (509) 
    8629 

>  <AUTHOR>  (509) 
    GENERATED BY OPEN BABEL 3.1.1

>  <MASTER>  (509) 
        0    0    0    0    0    0    0    0   58    0   58    0

>  <minimizedAffinity>  (509) 
-7.26368

>  <CNNscore>  (509) 
0.8617997766

>  <CNNaffinity>  (509) 
4.6637043953

>  <CNN_VS>  (509) 
4.0191793442

>  <CNNaffinity_variance>  (509) 
0.0307441596

$$$$
510
     RDKit          3D

 43 45  0  0  0  0  0  0  0  0999 V2000
   23.1173   72.6577   -4.1723 P   0  0  2  0  0  0  0  0  0  0  0  0
   23.1796   72.8074   -5.7820 O   0  0  0  0  0  0  0  0  0  0  0  0
   23.9656   71.5578   -3.6048 O   0  0  0  0  0  0  0  0  0  0  0  0
   21.5343   72.5605   -3.8523 O   0  0  0  0  0  0  0  0  0  0  0  0
   20.9549   71.2777   -3.6895 C   0  0  0  0  0  0  0  0  0  0  0  0
   18.8208   71.8935   -4.6061 O   0  0  0  0  0  0  0  0  0  0  0  0
   17.6118   70.4457   -2.2752 O   0  0  0  0  0  0  0  0  0  0  0  0
   17.3495   68.6372   -4.2993 O   0  0  0  0  0  0  0  0  0  0  0  0
   18.7842   70.1295   -3.0241 C   0  0  1  0  0  0  0  0  0  0  0  0
   18.4070   69.5709   -4.3803 C   0  0  2  0  0  0  0  0  0  0  0  0
   19.4691   71.4380   -3.3983 C   0  0  1  0  0  0  0  0  0  0  0  0
   18.0204   70.8273   -5.1421 C   0  0  2  0  0  0  0  0  0  0  0  0
   17.1574   69.6255   -2.0245 H   0  0  0  0  0  0  0  0  0  0  0  0
   17.6448   67.8561   -3.8059 H   0  0  0  0  0  0  0  0  0  0  0  0
   16.1841   69.7883   -7.0199 O   0  0  0  0  0  0  0  0  0  0  0  0
   19.1119   70.4415  -10.5188 O   0  0  0  0  0  0  0  0  0  0  0  0
   18.2766   70.7145   -6.5503 N   0  0  0  0  0  0  0  0  0  0  0  0
   17.6433   70.1145   -8.7606 N   0  0  0  0  0  0  0  0  0  0  0  0
   17.2877   70.1777   -7.4073 C   0  0  0  0  0  0  0  0  0  0  0  0
   19.4970   71.1340   -7.0684 C   0  0  0  0  0  0  0  0  0  0  0  0
   19.8211   71.0658   -8.3613 C   0  0  0  0  0  0  0  0  0  0  0  0
   18.8438   70.5175   -9.3238 C   0  0  0  0  0  0  0  0  0  0  0  0
   16.9702   69.7437   -9.3764 H   0  0  0  0  0  0  0  0  0  0  0  0
   23.5024   74.1397   -3.6543 O   0  0  0  0  0  0  0  0  0  0  0  0
   23.5425   74.7665   -2.1648 P   0  0  2  0  0  0  0  0  0  0  0  0
   22.4270   75.9368   -2.2246 O   0  0  0  0  0  0  0  0  0  0  0  0
   24.9024   75.2289   -1.7282 O   0  0  0  0  0  0  0  0  0  0  0  0
   22.8893   73.6284   -1.2250 O   0  0  0  0  0  0  0  0  0  0  0  0
   23.4907   73.8758    1.0540 O   0  0  0  0  0  0  0  0  0  0  0  0
   21.7670   70.1276    1.2296 O   0  0  0  0  0  0  0  0  0  0  0  0
   20.3835   72.3787    2.3551 O   0  0  0  0  0  0  0  0  0  0  0  0
   23.3784   70.8702   -1.0577 O   0  0  0  0  0  0  0  0  0  0  0  0
   21.9201   71.4708    0.7628 C   0  0  1  0  0  0  0  0  0  0  0  0
   21.7505   72.4150    1.9546 C   0  0  1  0  0  0  0  0  0  0  0  0
   23.3079   71.6292    0.1445 C   0  0  2  0  0  0  0  0  0  0  0  0
   22.1625   73.8475    1.5895 C   0  0  1  0  0  0  0  0  0  0  0  0
   23.6376   73.0966   -0.1348 C   0  0  1  0  0  0  0  0  0  0  0  0
   20.8876   70.0202    1.6229 H   0  0  0  0  0  0  0  0  0  0  0  0
   20.1360   71.4686    2.5824 H   0  0  0  0  0  0  0  0  0  0  0  0
   23.1680   69.9431   -0.8674 H   0  0  0  0  0  0  0  0  0  0  0  0
   22.2552   73.9812    3.9733 O   0  0  0  0  0  0  0  0  0  0  0  0
   22.1515   74.7729    2.8042 C   0  0  0  0  0  0  0  0  0  0  0  0
   22.2498   74.5569    4.7545 H   0  0  0  0  0  0  0  0  0  0  0  0
 25 28  1  0
 25 24  1  0
 25 26  1  6
 25 27  2  0
  1  4  1  0
  1 24  1  0
  1  2  1  6
  1  3  2  0
  6 11  1  0
  6 12  1  0
 29 36  1  0
 29 37  1  0
  9  7  1  1
  7 13  1  0
 10  8  1  1
  8 14  1  0
 37 28  1  6
  4  5  1  0
 33 30  1  1
 30 38  1  0
 34 31  1  6
 31 39  1  0
 35 32  1  6
 32 40  1  0
 41 42  1  0
 41 43  1  0
 15 19  2  0
 16 22  2  0
 12 17  1  6
 17 19  1  0
 17 20  1  0
 18 19  1  0
 18 22  1  0
 18 23  1  0
  9 10  1  0
  9 11  1  0
 10 12  1  0
 11  5  1  6
 33 34  1  0
 33 35  1  0
 34 36  1  0
 35 37  1  0
 36 42  1  1
 20 21  2  0
 21 22  1  0
M  CHG  2   2  -1  26  -1
M  END
>  <COMPND>  (510) 
    8629 

>  <AUTHOR>  (510) 
    GENERATED BY OPEN BABEL 3.1.1

>  <MASTER>  (510) 
        0    0    0    0    0    0    0    0   58    0   58    0

>  <minimizedAffinity>  (510) 
-7.51112

>  <CNNscore>  (510) 
0.7877938151

>  <CNNaffinity>  (510) 
4.6132802963

>  <CNN_VS>  (510) 
3.6343135834

>  <CNNaffinity_variance>  (510) 
0.0500317588

$$$$
511
     RDKit          3D

 43 45  0  0  0  0  0  0  0  0999 V2000
   21.8750   72.4218   -5.6564 P   0  0  2  0  0  0  0  0  0  0  0  0
   21.2092   73.8765   -5.4155 O   0  0  0  0  0  0  0  0  0  0  0  0
   23.1438   72.4304   -6.4574 O   0  0  0  0  0  0  0  0  0  0  0  0
   20.6652   71.5371   -6.2659 O   0  0  0  0  0  0  0  0  0  0  0  0
   20.0709   71.9520   -7.4835 C   0  0  0  0  0  0  0  0  0  0  0  0
   18.8278   69.9288   -7.1161 O   0  0  0  0  0  0  0  0  0  0  0  0
   18.0996   70.0701  -10.0213 O   0  0  0  0  0  0  0  0  0  0  0  0
   15.8572   71.0266   -8.7993 O   0  0  0  0  0  0  0  0  0  0  0  0
   18.2699   71.1297   -9.0814 C   0  0  1  0  0  0  0  0  0  0  0  0
   17.0922   71.1837   -8.1308 C   0  0  2  0  0  0  0  0  0  0  0  0
   19.4139   70.7506   -8.1492 C   0  0  1  0  0  0  0  0  0  0  0  0
   17.3963   70.0330   -7.1866 C   0  0  2  0  0  0  0  0  0  0  0  0
   17.3744   70.2895  -10.6278 H   0  0  0  0  0  0  0  0  0  0  0  0
   15.7094   71.7834   -9.3877 H   0  0  0  0  0  0  0  0  0  0  0  0
   16.3162   68.0144   -5.5322 O   0  0  0  0  0  0  0  0  0  0  0  0
   15.4417   71.0082   -2.1391 O   0  0  0  0  0  0  0  0  0  0  0  0
   16.8795   70.2569   -5.8660 N   0  0  0  0  0  0  0  0  0  0  0  0
   15.8818   69.5067   -3.8440 N   0  0  0  0  0  0  0  0  0  0  0  0
   16.3584   69.1750   -5.1187 C   0  0  0  0  0  0  0  0  0  0  0  0
   16.8928   71.5377   -5.3245 C   0  0  0  0  0  0  0  0  0  0  0  0
   16.4333   71.8377   -4.1079 C   0  0  0  0  0  0  0  0  0  0  0  0
   15.8722   70.7645   -3.2621 C   0  0  0  0  0  0  0  0  0  0  0  0
   15.5138   68.7691   -3.3053 H   0  0  0  0  0  0  0  0  0  0  0  0
   22.0305   71.8403   -4.1562 O   0  0  0  0  0  0  0  0  0  0  0  0
   23.2480   71.9447   -3.0981 P   0  0  2  0  0  0  0  0  0  0  0  0
   23.9265   73.3700   -3.4527 O   0  0  0  0  0  0  0  0  0  0  0  0
   24.1963   70.7813   -3.1343 O   0  0  0  0  0  0  0  0  0  0  0  0
   22.5304   72.1785   -1.6714 O   0  0  0  0  0  0  0  0  0  0  0  0
   22.3299   74.0239   -0.1980 O   0  0  0  0  0  0  0  0  0  0  0  0
   23.1342   71.0600    2.5623 O   0  0  0  0  0  0  0  0  0  0  0  0
   20.4842   72.1530    2.3869 O   0  0  0  0  0  0  0  0  0  0  0  0
   24.4823   71.0518    0.0006 O   0  0  0  0  0  0  0  0  0  0  0  0
   22.5771   71.6090    1.3649 C   0  0  1  0  0  0  0  0  0  0  0  0
   21.6198   72.7369    1.7547 C   0  0  1  0  0  0  0  0  0  0  0  0
   23.7078   72.1426    0.4873 C   0  0  2  0  0  0  0  0  0  0  0  0
   21.1888   73.5474    0.5249 C   0  0  1  0  0  0  0  0  0  0  0  0
   23.1726   72.9750   -0.6792 C   0  0  1  0  0  0  0  0  0  0  0  0
   22.4216   70.7190    3.1238 H   0  0  0  0  0  0  0  0  0  0  0  0
   20.7701   71.6437    3.1615 H   0  0  0  0  0  0  0  0  0  0  0  0
   24.8156   70.5329    0.7486 H   0  0  0  0  0  0  0  0  0  0  0  0
   19.0273   74.3572    1.1424 O   0  0  0  0  0  0  0  0  0  0  0  0
   20.3606   74.7718    0.9084 C   0  0  0  0  0  0  0  0  0  0  0  0
   18.4886   75.1261    1.3878 H   0  0  0  0  0  0  0  0  0  0  0  0
 25 28  1  0
 25 24  1  0
 25 26  1  6
 25 27  2  0
  1  4  1  0
  1 24  1  0
  1  2  1  1
  1  3  2  0
  6 11  1  0
  6 12  1  0
 29 36  1  0
 29 37  1  0
  9  7  1  6
  7 13  1  0
 10  8  1  6
  8 14  1  0
 37 28  1  6
  4  5  1  0
 33 30  1  1
 30 38  1  0
 34 31  1  6
 31 39  1  0
 35 32  1  6
 32 40  1  0
 41 42  1  0
 41 43  1  0
 15 19  2  0
 16 22  2  0
 12 17  1  1
 17 19  1  0
 17 20  1  0
 18 19  1  0
 18 22  1  0
 18 23  1  0
  9 10  1  0
  9 11  1  0
 10 12  1  0
 11  5  1  1
 33 34  1  0
 33 35  1  0
 34 36  1  0
 35 37  1  0
 36 42  1  1
 20 21  2  0
 21 22  1  0
M  CHG  2   2  -1  26  -1
M  END
>  <COMPND>  (511) 
    8629 

>  <AUTHOR>  (511) 
    GENERATED BY OPEN BABEL 3.1.1

>  <MASTER>  (511) 
        0    0    0    0    0    0    0    0   58    0   58    0

>  <minimizedAffinity>  (511) 
-7.85181

>  <CNNscore>  (511) 
0.7390832901

>  <CNNaffinity>  (511) 
4.5716810226

>  <CNN_VS>  (511) 
3.3788530827

>  <CNNaffinity_variance>  (511) 
0.2241329849

$$$$
512
     RDKit          3D

 43 45  0  0  0  0  0  0  0  0999 V2000
   21.8606   72.5125   -5.6341 P   0  0  2  0  0  0  0  0  0  0  0  0
   21.2526   73.9871   -5.3638 O   0  0  0  0  0  0  0  0  0  0  0  0
   23.1137   72.4850   -6.4589 O   0  0  0  0  0  0  0  0  0  0  0  0
   20.6084   71.6794   -6.2306 O   0  0  0  0  0  0  0  0  0  0  0  0
   20.1018   72.0395   -7.5040 C   0  0  0  0  0  0  0  0  0  0  0  0
   18.9110   69.9919   -7.1002 O   0  0  0  0  0  0  0  0  0  0  0  0
   18.1473   70.0833   -9.9983 O   0  0  0  0  0  0  0  0  0  0  0  0
   15.8967   71.0006   -8.7614 O   0  0  0  0  0  0  0  0  0  0  0  0
   18.3030   71.1571   -9.0721 C   0  0  1  0  0  0  0  0  0  0  0  0
   17.1350   71.1942   -8.1087 C   0  0  2  0  0  0  0  0  0  0  0  0
   19.4660   70.8156   -8.1489 C   0  0  1  0  0  0  0  0  0  0  0  0
   17.4768   70.0616   -7.1555 C   0  0  2  0  0  0  0  0  0  0  0  0
   17.4104   70.2788  -10.5988 H   0  0  0  0  0  0  0  0  0  0  0  0
   15.7245   71.7470   -9.3563 H   0  0  0  0  0  0  0  0  0  0  0  0
   16.2960   68.0709   -5.5366 O   0  0  0  0  0  0  0  0  0  0  0  0
   15.5647   71.0459   -2.0934 O   0  0  0  0  0  0  0  0  0  0  0  0
   16.9695   70.2882   -5.8316 N   0  0  0  0  0  0  0  0  0  0  0  0
   15.9330   69.5538   -3.8234 N   0  0  0  0  0  0  0  0  0  0  0  0
   16.3947   69.2207   -5.1032 C   0  0  0  0  0  0  0  0  0  0  0  0
   17.0451   71.5574   -5.2683 C   0  0  0  0  0  0  0  0  0  0  0  0
   16.5990   71.8589   -4.0471 C   0  0  0  0  0  0  0  0  0  0  0  0
   15.9845   70.8004   -3.2201 C   0  0  0  0  0  0  0  0  0  0  0  0
   15.5283   68.8261   -3.2976 H   0  0  0  0  0  0  0  0  0  0  0  0
   22.0227   71.9074   -4.1439 O   0  0  0  0  0  0  0  0  0  0  0  0
   23.2325   72.0209   -3.0779 P   0  0  2  0  0  0  0  0  0  0  0  0
   23.8759   73.4700   -3.3997 O   0  0  0  0  0  0  0  0  0  0  0  0
   24.2104   70.8830   -3.1335 O   0  0  0  0  0  0  0  0  0  0  0  0
   22.5030   72.2066   -1.6502 O   0  0  0  0  0  0  0  0  0  0  0  0
   23.4170   70.6387   -0.1261 O   0  0  0  0  0  0  0  0  0  0  0  0
   20.4477   72.2277    2.2633 O   0  0  0  0  0  0  0  0  0  0  0  0
   23.1940   72.8813    2.7911 O   0  0  0  0  0  0  0  0  0  0  0  0
   19.9532   71.7893   -0.5550 O   0  0  0  0  0  0  0  0  0  0  0  0
   21.4667   72.2544    1.2601 C   0  0  1  0  0  0  0  0  0  0  0  0
   22.7888   71.8389    1.9082 C   0  0  1  0  0  0  0  0  0  0  0  0
   21.0896   71.2869    0.1398 C   0  0  2  0  0  0  0  0  0  0  0  0
   23.8697   71.5856    0.8486 C   0  0  1  0  0  0  0  0  0  0  0  0
   22.2507   71.0675   -0.8317 C   0  0  1  0  0  0  0  0  0  0  0  0
   20.6808   72.8403    2.9773 H   0  0  0  0  0  0  0  0  0  0  0  0
   22.5026   73.0315    3.4548 H   0  0  0  0  0  0  0  0  0  0  0  0
   19.2251   71.9236    0.0708 H   0  0  0  0  0  0  0  0  0  0  0  0
   24.8012   70.2536    2.5999 O   0  0  0  0  0  0  0  0  0  0  0  0
   25.1488   71.0189    1.4607 C   0  0  0  0  0  0  0  0  0  0  0  0
   25.6056   69.8863    2.9997 H   0  0  0  0  0  0  0  0  0  0  0  0
 25 28  1  0
 25 24  1  0
 25 26  1  6
 25 27  2  0
  1  4  1  0
  1 24  1  0
  1  2  1  1
  1  3  2  0
  6 11  1  0
  6 12  1  0
 29 36  1  0
 29 37  1  0
  9  7  1  6
  7 13  1  0
 10  8  1  6
  8 14  1  0
 37 28  1  1
  4  5  1  0
 33 30  1  1
 30 38  1  0
 34 31  1  1
 31 39  1  0
 35 32  1  6
 32 40  1  0
 41 42  1  0
 41 43  1  0
 15 19  2  0
 16 22  2  0
 12 17  1  1
 17 19  1  0
 17 20  1  0
 18 19  1  0
 18 22  1  0
 18 23  1  0
  9 10  1  0
  9 11  1  0
 10 12  1  0
 11  5  1  1
 33 34  1  0
 33 35  1  0
 34 36  1  0
 35 37  1  0
 36 42  1  1
 20 21  2  0
 21 22  1  0
M  CHG  2   2  -1  26  -1
M  END
>  <COMPND>  (512) 
    8629 

>  <AUTHOR>  (512) 
    GENERATED BY OPEN BABEL 3.1.1

>  <MASTER>  (512) 
        0    0    0    0    0    0    0    0   58    0   58    0

>  <minimizedAffinity>  (512) 
-8.38955

>  <CNNscore>  (512) 
0.7085629702

>  <CNNaffinity>  (512) 
4.4684710503

>  <CNN_VS>  (512) 
3.1661930084

>  <CNNaffinity_variance>  (512) 
0.2671701014

$$$$
513
     RDKit          3D

 43 45  0  0  0  0  0  0  0  0999 V2000
   23.3972   71.8048   -3.2973 P   0  0  2  0  0  0  0  0  0  0  0  0
   24.1256   72.9719   -4.1485 O   0  0  0  0  0  0  0  0  0  0  0  0
   24.2790   70.6507   -2.9205 O   0  0  0  0  0  0  0  0  0  0  0  0
   22.0945   71.4339   -4.1822 O   0  0  0  0  0  0  0  0  0  0  0  0
   21.6573   72.3591   -5.1624 C   0  0  0  0  0  0  0  0  0  0  0  0
   20.5824   70.4376   -6.1249 O   0  0  0  0  0  0  0  0  0  0  0  0
   20.7442   71.8913   -8.7424 O   0  0  0  0  0  0  0  0  0  0  0  0
   18.1513   72.2923   -7.9992 O   0  0  0  0  0  0  0  0  0  0  0  0
   20.5131   72.4116   -7.4343 C   0  0  1  0  0  0  0  0  0  0  0  0
   19.1065   72.0835   -6.9789 C   0  0  2  0  0  0  0  0  0  0  0  0
   21.3599   71.6096   -6.4539 C   0  0  1  0  0  0  0  0  0  0  0  0
   19.2347   70.6209   -6.5886 C   0  0  2  0  0  0  0  0  0  0  0  0
   20.2142   72.3880   -9.3861 H   0  0  0  0  0  0  0  0  0  0  0  0
   18.1067   73.2376   -8.2120 H   0  0  0  0  0  0  0  0  0  0  0  0
   16.5675   69.7901   -7.0057 O   0  0  0  0  0  0  0  0  0  0  0  0
   15.8417   69.2327   -2.4886 O   0  0  0  0  0  0  0  0  0  0  0  0
   18.3264   70.2523   -5.5395 N   0  0  0  0  0  0  0  0  0  0  0  0
   16.2083   69.5131   -4.7562 N   0  0  0  0  0  0  0  0  0  0  0  0
   17.0077   69.8506   -5.8558 C   0  0  0  0  0  0  0  0  0  0  0  0
   18.7460   70.2911   -4.2142 C   0  0  0  0  0  0  0  0  0  0  0  0
   17.9710   69.9673   -3.1770 C   0  0  0  0  0  0  0  0  0  0  0  0
   16.5792   69.5368   -3.4211 C   0  0  0  0  0  0  0  0  0  0  0  0
   15.2856   69.2306   -4.9523 H   0  0  0  0  0  0  0  0  0  0  0  0
   22.7681   72.6081   -2.0435 O   0  0  0  0  0  0  0  0  0  0  0  0
   21.3981   72.3803   -1.2164 P   0  0  2  0  0  0  0  0  0  0  0  0
   21.2150   70.7729   -1.2372 O   0  0  0  0  0  0  0  0  0  0  0  0
   20.2219   73.1445   -1.7515 O   0  0  0  0  0  0  0  0  0  0  0  0
   21.7815   72.7271    0.3126 O   0  0  0  0  0  0  0  0  0  0  0  0
   22.6788   71.0082    1.6753 O   0  0  0  0  0  0  0  0  0  0  0  0
   21.4193   73.6031    4.6301 O   0  0  0  0  0  0  0  0  0  0  0  0
   24.2269   73.3150    4.0984 O   0  0  0  0  0  0  0  0  0  0  0  0
   19.8152   73.2392    2.2482 O   0  0  0  0  0  0  0  0  0  0  0  0
   21.9550   73.2430    3.3539 C   0  0  1  0  0  0  0  0  0  0  0  0
   23.2335   72.4340    3.5814 C   0  0  1  0  0  0  0  0  0  0  0  0
   20.9214   72.4130    2.5949 C   0  0  2  0  0  0  0  0  0  0  0  0
   23.7193   71.7873    2.2772 C   0  0  1  0  0  0  0  0  0  0  0  0
   21.5204   71.7748    1.3403 C   0  0  1  0  0  0  0  0  0  0  0  0
   22.0705   74.1308    5.1170 H   0  0  0  0  0  0  0  0  0  0  0  0
   23.9074   73.7170    4.9215 H   0  0  0  0  0  0  0  0  0  0  0  0
   19.4447   73.6370    3.0509 H   0  0  0  0  0  0  0  0  0  0  0  0
   26.0860   71.6227    2.5607 O   0  0  0  0  0  0  0  0  0  0  0  0
   24.9014   70.8490    2.5098 C   0  0  0  0  0  0  0  0  0  0  0  0
   26.8468   71.0387    2.7086 H   0  0  0  0  0  0  0  0  0  0  0  0
 25 28  1  0
 25 24  1  0
 25 26  1  1
 25 27  2  0
  1  4  1  0
  1 24  1  0
  1  2  1  6
  1  3  2  0
  6 11  1  0
  6 12  1  0
 29 36  1  0
 29 37  1  0
  9  7  1  6
  7 13  1  0
 10  8  1  6
  8 14  1  0
 37 28  1  6
  4  5  1  0
 33 30  1  1
 30 38  1  0
 34 31  1  6
 31 39  1  0
 35 32  1  6
 32 40  1  0
 41 42  1  0
 41 43  1  0
 15 19  2  0
 16 22  2  0
 12 17  1  1
 17 19  1  0
 17 20  1  0
 18 19  1  0
 18 22  1  0
 18 23  1  0
  9 10  1  0
  9 11  1  0
 10 12  1  0
 11  5  1  1
 33 34  1  0
 33 35  1  0
 34 36  1  0
 35 37  1  0
 36 42  1  1
 20 21  2  0
 21 22  1  0
M  CHG  2   2  -1  26  -1
M  END
>  <COMPND>  (513) 
    8629 

>  <AUTHOR>  (513) 
    GENERATED BY OPEN BABEL 3.1.1

>  <MASTER>  (513) 
        0    0    0    0    0    0    0    0   58    0   58    0

>  <minimizedAffinity>  (513) 
-7.53175

>  <CNNscore>  (513) 
0.7046679258

>  <CNNaffinity>  (513) 
4.3581290245

>  <CNN_VS>  (513) 
3.0710337162

>  <CNNaffinity_variance>  (513) 
0.2245033234

$$$$
514
     RDKit          3D

 43 45  0  0  0  0  0  0  0  0999 V2000
   22.2009   72.1452   -2.7359 P   0  0  2  0  0  0  0  0  0  0  0  0
   23.3263   71.0009   -2.9397 O   0  0  0  0  0  0  0  0  0  0  0  0
   22.7352   73.5079   -2.4055 O   0  0  0  0  0  0  0  0  0  0  0  0
   21.1885   71.5049   -1.6483 O   0  0  0  0  0  0  0  0  0  0  0  0
   21.7318   70.9521   -0.4621 C   0  0  0  0  0  0  0  0  0  0  0  0
   21.8595   71.3966    1.8958 O   0  0  0  0  0  0  0  0  0  0  0  0
   19.6480   73.3725    1.4531 O   0  0  0  0  0  0  0  0  0  0  0  0
   21.8545   74.9696    1.5844 O   0  0  0  0  0  0  0  0  0  0  0  0
   20.7452   73.0411    0.6036 C   0  0  1  0  0  0  0  0  0  0  0  0
   22.0278   73.6380    1.1443 C   0  0  2  0  0  0  0  0  0  0  0  0
   21.0083   71.5465    0.7385 C   0  0  1  0  0  0  0  0  0  0  0  0
   22.3641   72.6862    2.2797 C   0  0  2  0  0  0  0  0  0  0  0  0
   19.4610   74.3223    1.3837 H   0  0  0  0  0  0  0  0  0  0  0  0
   21.6423   75.5358    0.8260 H   0  0  0  0  0  0  0  0  0  0  0  0
   23.8951   74.5993    3.6846 O   0  0  0  0  0  0  0  0  0  0  0  0
   27.7809   72.1923    3.0949 O   0  0  0  0  0  0  0  0  0  0  0  0
   23.7779   72.5844    2.5085 N   0  0  0  0  0  0  0  0  0  0  0  0
   25.8286   73.3992    3.3900 N   0  0  0  0  0  0  0  0  0  0  0  0
   24.4522   73.6003    3.2252 C   0  0  0  0  0  0  0  0  0  0  0  0
   24.4809   71.4864    2.0247 C   0  0  0  0  0  0  0  0  0  0  0  0
   25.7936   71.3101    2.1893 C   0  0  0  0  0  0  0  0  0  0  0  0
   26.5726   72.3255    2.9269 C   0  0  0  0  0  0  0  0  0  0  0  0
   26.3193   74.0942    3.8859 H   0  0  0  0  0  0  0  0  0  0  0  0
   21.3530   72.0700   -4.1100 O   0  0  0  0  0  0  0  0  0  0  0  0
   20.9334   73.2225   -5.1629 P   0  0  2  0  0  0  0  0  0  0  0  0
   22.2954   73.4754   -5.9986 O   0  0  0  0  0  0  0  0  0  0  0  0
   20.3581   74.4557   -4.5285 O   0  0  0  0  0  0  0  0  0  0  0  0
   19.9467   72.4841   -6.2051 O   0  0  0  0  0  0  0  0  0  0  0  0
   19.2731   70.2122   -6.2403 O   0  0  0  0  0  0  0  0  0  0  0  0
   19.3505   70.9404  -10.3041 O   0  0  0  0  0  0  0  0  0  0  0  0
   16.8272   70.6599   -8.9616 O   0  0  0  0  0  0  0  0  0  0  0  0
   21.3745   72.1008   -8.5904 O   0  0  0  0  0  0  0  0  0  0  0  0
   19.1416   71.2625   -8.9264 C   0  0  1  0  0  0  0  0  0  0  0  0
   18.0765   70.3162   -8.3688 C   0  0  1  0  0  0  0  0  0  0  0  0
   20.4580   71.0960   -8.1697 C   0  0  2  0  0  0  0  0  0  0  0  0
   17.9891   70.4197   -6.8402 C   0  0  1  0  0  0  0  0  0  0  0  0
   20.2520   71.1668   -6.6555 C   0  0  1  0  0  0  0  0  0  0  0  0
   18.5185   71.0446  -10.7904 H   0  0  0  0  0  0  0  0  0  0  0  0
   16.8961   70.5910   -9.9269 H   0  0  0  0  0  0  0  0  0  0  0  0
   21.4967   72.0452   -9.5506 H   0  0  0  0  0  0  0  0  0  0  0  0
   15.7134   69.7634   -6.5245 O   0  0  0  0  0  0  0  0  0  0  0  0
   17.0463   69.3738   -6.2492 C   0  0  0  0  0  0  0  0  0  0  0  0
   15.1022   69.1068   -6.1545 H   0  0  0  0  0  0  0  0  0  0  0  0
 25 28  1  0
 25 24  1  0
 25 26  1  6
 25 27  2  0
  1  4  1  0
  1 24  1  0
  1  2  1  6
  1  3  2  0
  6 11  1  0
  6 12  1  0
 29 36  1  0
 29 37  1  0
  9  7  1  1
  7 13  1  0
 10  8  1  1
  8 14  1  0
 37 28  1  6
  4  5  1  0
 33 30  1  6
 30 38  1  0
 34 31  1  6
 31 39  1  0
 35 32  1  6
 32 40  1  0
 41 42  1  0
 41 43  1  0
 15 19  2  0
 16 22  2  0
 12 17  1  6
 17 19  1  0
 17 20  1  0
 18 19  1  0
 18 22  1  0
 18 23  1  0
  9 10  1  0
  9 11  1  0
 10 12  1  0
 11  5  1  6
 33 34  1  0
 33 35  1  0
 34 36  1  0
 35 37  1  0
 36 42  1  1
 20 21  2  0
 21 22  1  0
M  CHG  2   2  -1  26  -1
M  END
>  <COMPND>  (514) 
    8629 

>  <AUTHOR>  (514) 
    GENERATED BY OPEN BABEL 3.1.1

>  <MASTER>  (514) 
        0    0    0    0    0    0    0    0   58    0   58    0

>  <minimizedAffinity>  (514) 
-6.84133

>  <CNNscore>  (514) 
0.6661569476

>  <CNNaffinity>  (514) 
4.2321219444

>  <CNN_VS>  (514) 
2.8192574978

>  <CNNaffinity_variance>  (514) 
0.0712284893

$$$$
515
     RDKit          3D

 43 45  0  0  0  0  0  0  0  0999 V2000
   21.5344   73.1051   -4.3941 P   0  0  2  0  0  0  0  0  0  0  0  0
   21.2903   73.7481   -5.8585 O   0  0  0  0  0  0  0  0  0  0  0  0
   22.1437   71.7339   -4.3976 O   0  0  0  0  0  0  0  0  0  0  0  0
   20.0935   73.2318   -3.6691 O   0  0  0  0  0  0  0  0  0  0  0  0
   18.9771   73.6258   -4.4478 C   0  0  0  0  0  0  0  0  0  0  0  0
   17.1985   72.3091   -5.3840 O   0  0  0  0  0  0  0  0  0  0  0  0
   17.0899   70.9114   -2.7334 O   0  0  0  0  0  0  0  0  0  0  0  0
   18.4790   69.1462   -4.2798 O   0  0  0  0  0  0  0  0  0  0  0  0
   18.2211   71.4142   -3.4426 C   0  0  1  0  0  0  0  0  0  0  0  0
   18.5464   70.5165   -4.6181 C   0  0  2  0  0  0  0  0  0  0  0  0
   17.8048   72.7062   -4.1346 C   0  0  1  0  0  0  0  0  0  0  0  0
   17.4858   70.9223   -5.6274 C   0  0  2  0  0  0  0  0  0  0  0  0
   17.3315   70.0864   -2.2829 H   0  0  0  0  0  0  0  0  0  0  0  0
   19.1733   68.9375   -3.6355 H   0  0  0  0  0  0  0  0  0  0  0  0
   15.7922   70.3328   -7.8096 O   0  0  0  0  0  0  0  0  0  0  0  0
   19.3123   70.3582  -10.7844 O   0  0  0  0  0  0  0  0  0  0  0  0
   17.9330   70.7697   -6.9831 N   0  0  0  0  0  0  0  0  0  0  0  0
   17.5463   70.3461   -9.2891 N   0  0  0  0  0  0  0  0  0  0  0  0
   17.0013   70.4729   -8.0050 C   0  0  0  0  0  0  0  0  0  0  0  0
   19.2820   70.9146   -7.2883 C   0  0  0  0  0  0  0  0  0  0  0  0
   19.7859   70.7893   -8.5178 C   0  0  0  0  0  0  0  0  0  0  0  0
   18.8797   70.4797   -9.6425 C   0  0  0  0  0  0  0  0  0  0  0  0
   16.9160   70.1391  -10.0169 H   0  0  0  0  0  0  0  0  0  0  0  0
   22.4184   74.2322   -3.6450 O   0  0  0  0  0  0  0  0  0  0  0  0
   23.9351   74.1943   -3.0872 P   0  0  2  0  0  0  0  0  0  0  0  0
   24.1841   75.7123   -2.5861 O   0  0  0  0  0  0  0  0  0  0  0  0
   24.9441   73.6969   -4.0814 O   0  0  0  0  0  0  0  0  0  0  0  0
   23.8495   73.3257   -1.7295 O   0  0  0  0  0  0  0  0  0  0  0  0
   22.0078   72.8272   -0.3237 O   0  0  0  0  0  0  0  0  0  0  0  0
   24.9310   73.2866    2.5564 O   0  0  0  0  0  0  0  0  0  0  0  0
   23.9366   70.6611    1.9515 O   0  0  0  0  0  0  0  0  0  0  0  0
   24.8983   75.0251    0.2421 O   0  0  0  0  0  0  0  0  0  0  0  0
   24.4069   72.9082    1.2806 C   0  0  1  0  0  0  0  0  0  0  0  0
   23.3135   71.8613    1.5027 C   0  0  1  0  0  0  0  0  0  0  0  0
   23.8350   74.1445    0.5893 C   0  0  2  0  0  0  0  0  0  0  0  0
   22.5234   71.6032    0.2127 C   0  0  1  0  0  0  0  0  0  0  0  0
   23.0267   73.7727   -0.6551 C   0  0  1  0  0  0  0  0  0  0  0  0
   25.2961   72.5062    3.0004 H   0  0  0  0  0  0  0  0  0  0  0  0
   24.4325   70.8379    2.7663 H   0  0  0  0  0  0  0  0  0  0  0  0
   25.4021   75.2533    1.0383 H   0  0  0  0  0  0  0  0  0  0  0  0
   20.4583   70.7808   -0.6636 O   0  0  0  0  0  0  0  0  0  0  0  0
   21.3290   70.6813    0.4483 C   0  0  0  0  0  0  0  0  0  0  0  0
   19.6935   70.1991   -0.5277 H   0  0  0  0  0  0  0  0  0  0  0  0
 25 28  1  0
 25 24  1  0
 25 26  1  1
 25 27  2  0
  1  4  1  0
  1 24  1  0
  1  2  1  6
  1  3  2  0
  6 11  1  0
  6 12  1  0
 29 36  1  0
 29 37  1  0
  9  7  1  6
  7 13  1  0
 10  8  1  1
  8 14  1  0
 37 28  1  6
  4  5  1  0
 33 30  1  1
 30 38  1  0
 34 31  1  6
 31 39  1  0
 35 32  1  6
 32 40  1  0
 41 42  1  0
 41 43  1  0
 15 19  2  0
 16 22  2  0
 12 17  1  6
 17 19  1  0
 17 20  1  0
 18 19  1  0
 18 22  1  0
 18 23  1  0
  9 10  1  0
  9 11  1  0
 10 12  1  0
 11  5  1  6
 33 34  1  0
 33 35  1  0
 34 36  1  0
 35 37  1  0
 36 42  1  1
 20 21  2  0
 21 22  1  0
M  CHG  2   2  -1  26  -1
M  END
>  <COMPND>  (515) 
    8629 

>  <AUTHOR>  (515) 
    GENERATED BY OPEN BABEL 3.1.1

>  <MASTER>  (515) 
        0    0    0    0    0    0    0    0   58    0   58    0

>  <minimizedAffinity>  (515) 
-6.71965

>  <CNNscore>  (515) 
0.6618386507

>  <CNNaffinity>  (515) 
4.3250288963

>  <CNN_VS>  (515) 
2.8624713421

>  <CNNaffinity_variance>  (515) 
0.0334054641

$$$$
516
     RDKit          3D

 43 45  0  0  0  0  0  0  0  0999 V2000
   21.0672   71.8065   -2.2298 P   0  0  2  0  0  0  0  0  0  0  0  0
   21.0747   73.1618   -3.1133 O   0  0  0  0  0  0  0  0  0  0  0  0
   21.7187   70.6220   -2.8808 O   0  0  0  0  0  0  0  0  0  0  0  0
   19.5130   71.6175   -1.8217 O   0  0  0  0  0  0  0  0  0  0  0  0
   18.9354   70.3288   -1.9381 C   0  0  0  0  0  0  0  0  0  0  0  0
   17.5130   71.3259   -3.5984 O   0  0  0  0  0  0  0  0  0  0  0  0
   15.4712   69.2764   -2.8101 O   0  0  0  0  0  0  0  0  0  0  0  0
   16.5055   68.2322   -5.1072 O   0  0  0  0  0  0  0  0  0  0  0  0
   16.8902   69.1521   -2.8897 C   0  0  1  0  0  0  0  0  0  0  0  0
   17.3315   69.0813   -4.3367 C   0  0  2  0  0  0  0  0  0  0  0  0
   17.5030   70.4706   -2.4344 C   0  0  1  0  0  0  0  0  0  0  0  0
   17.2375   70.5355   -4.7663 C   0  0  2  0  0  0  0  0  0  0  0  0
   15.0575   68.4462   -3.0957 H   0  0  0  0  0  0  0  0  0  0  0  0
   16.6006   67.3186   -4.7955 H   0  0  0  0  0  0  0  0  0  0  0  0
   16.5735   71.7349   -7.2358 O   0  0  0  0  0  0  0  0  0  0  0  0
   20.9713   71.7610   -8.6142 O   0  0  0  0  0  0  0  0  0  0  0  0
   18.1892   70.8671   -5.7889 N   0  0  0  0  0  0  0  0  0  0  0  0
   18.7638   71.7471   -7.9201 N   0  0  0  0  0  0  0  0  0  0  0  0
   17.7518   71.4661   -6.9932 C   0  0  0  0  0  0  0  0  0  0  0  0
   19.5394   70.5985   -5.5924 C   0  0  0  0  0  0  0  0  0  0  0  0
   20.4917   70.8714   -6.4867 C   0  0  0  0  0  0  0  0  0  0  0  0
   20.1190   71.4979   -7.7714 C   0  0  0  0  0  0  0  0  0  0  0  0
   18.4826   72.1643   -8.7666 H   0  0  0  0  0  0  0  0  0  0  0  0
   21.7530   72.2734   -0.8424 O   0  0  0  0  0  0  0  0  0  0  0  0
   22.4031   71.4138    0.3623 P   0  0  2  0  0  0  0  0  0  0  0  0
   23.8157   70.9211   -0.2537 O   0  0  0  0  0  0  0  0  0  0  0  0
   21.5277   70.3043    0.8688 O   0  0  0  0  0  0  0  0  0  0  0  0
   22.8046   72.5106    1.4763 O   0  0  0  0  0  0  0  0  0  0  0  0
   24.4609   72.5014    3.1713 O   0  0  0  0  0  0  0  0  0  0  0  0
   21.4106   74.3638    5.2395 O   0  0  0  0  0  0  0  0  0  0  0  0
   23.6821   75.8960    4.3791 O   0  0  0  0  0  0  0  0  0  0  0  0
   20.8075   72.1930    3.4220 O   0  0  0  0  0  0  0  0  0  0  0  0
   22.1988   74.0421    4.0903 C   0  0  1  0  0  0  0  0  0  0  0  0
   23.6416   74.4718    4.3628 C   0  0  1  0  0  0  0  0  0  0  0  0
   22.1243   72.5372    3.8394 C   0  0  2  0  0  0  0  0  0  0  0  0
   24.5947   73.9223    3.2929 C   0  0  1  0  0  0  0  0  0  0  0  0
   23.1464   72.0877    2.7937 C   0  0  1  0  0  0  0  0  0  0  0  0
   21.4532   75.3181    5.4041 H   0  0  0  0  0  0  0  0  0  0  0  0
   23.0756   76.2302    5.0585 H   0  0  0  0  0  0  0  0  0  0  0  0
   20.1699   72.4826    4.0924 H   0  0  0  0  0  0  0  0  0  0  0  0
   26.1519   74.4943    5.0125 O   0  0  0  0  0  0  0  0  0  0  0  0
   26.0571   74.2055    3.6298 C   0  0  0  0  0  0  0  0  0  0  0  0
   27.0771   74.6763    5.2415 H   0  0  0  0  0  0  0  0  0  0  0  0
 25 28  1  0
 25 24  1  0
 25 26  1  6
 25 27  2  0
  1  4  1  0
  1 24  1  0
  1  2  1  6
  1  3  2  0
  6 11  1  0
  6 12  1  0
 29 36  1  0
 29 37  1  0
  9  7  1  6
  7 13  1  0
 10  8  1  6
  8 14  1  0
 37 28  1  6
  4  5  1  0
 33 30  1  1
 30 38  1  0
 34 31  1  6
 31 39  1  0
 35 32  1  6
 32 40  1  0
 41 42  1  0
 41 43  1  0
 15 19  2  0
 16 22  2  0
 12 17  1  6
 17 19  1  0
 17 20  1  0
 18 19  1  0
 18 22  1  0
 18 23  1  0
  9 10  1  0
  9 11  1  0
 10 12  1  0
 11  5  1  6
 33 34  1  0
 33 35  1  0
 34 36  1  0
 35 37  1  0
 36 42  1  1
 20 21  2  0
 21 22  1  0
M  CHG  2   2  -1  26  -1
M  END
>  <COMPND>  (516) 
    8629 

>  <AUTHOR>  (516) 
    GENERATED BY OPEN BABEL 3.1.1

>  <MASTER>  (516) 
        0    0    0    0    0    0    0    0   58    0   58    0

>  <minimizedAffinity>  (516) 
-6.76284

>  <CNNscore>  (516) 
0.5295116305

>  <CNNaffinity>  (516) 
4.2762598991

>  <CNN_VS>  (516) 
2.2643294334

>  <CNNaffinity_variance>  (516) 
0.0136110857

$$$$
517
     RDKit          3D

 43 45  0  0  0  0  0  0  0  0999 V2000
   23.1092   73.4368   -4.6360 P   0  0  2  0  0  0  0  0  0  0  0  0
   24.2481   72.3931   -4.1553 O   0  0  0  0  0  0  0  0  0  0  0  0
   23.6203   74.7835   -5.0563 O   0  0  0  0  0  0  0  0  0  0  0  0
   22.0445   73.4382   -3.4176 O   0  0  0  0  0  0  0  0  0  0  0  0
   22.5296   73.2800   -2.0957 C   0  0  0  0  0  0  0  0  0  0  0  0
   23.2762   71.3628   -0.8543 O   0  0  0  0  0  0  0  0  0  0  0  0
   20.3820   70.6087   -0.6395 O   0  0  0  0  0  0  0  0  0  0  0  0
   20.8922   71.7098    1.8026 O   0  0  0  0  0  0  0  0  0  0  0  0
   20.9809   71.9034   -0.6194 C   0  0  1  0  0  0  0  0  0  0  0  0
   21.6723   72.1424    0.7066 C   0  0  2  0  0  0  0  0  0  0  0  0
   22.1534   71.8932   -1.5922 C   0  0  1  0  0  0  0  0  0  0  0  0
   22.9506   71.3374    0.5450 C   0  0  2  0  0  0  0  0  0  0  0  0
   19.6303   70.5908   -0.0259 H   0  0  0  0  0  0  0  0  0  0  0  0
   20.0905   72.2524    1.8632 H   0  0  0  0  0  0  0  0  0  0  0  0
   24.8231   69.8117    2.0093 O   0  0  0  0  0  0  0  0  0  0  0  0
   27.1097   73.5780    3.3613 O   0  0  0  0  0  0  0  0  0  0  0  0
   24.0457   71.8934    1.2887 N   0  0  0  0  0  0  0  0  0  0  0  0
   25.9602   71.6883    2.6812 N   0  0  0  0  0  0  0  0  0  0  0  0
   24.9283   71.0398    1.9906 C   0  0  0  0  0  0  0  0  0  0  0  0
   24.2360   73.2707    1.3166 C   0  0  0  0  0  0  0  0  0  0  0  0
   25.2242   73.8735    1.9810 C   0  0  0  0  0  0  0  0  0  0  0  0
   26.1903   73.0536    2.7403 C   0  0  0  0  0  0  0  0  0  0  0  0
   26.5872   71.1138    3.1777 H   0  0  0  0  0  0  0  0  0  0  0  0
   22.3335   72.6199   -5.7953 O   0  0  0  0  0  0  0  0  0  0  0  0
   21.1501   73.0694   -6.8005 P   0  0  2  0  0  0  0  0  0  0  0  0
   21.5699   72.3770   -8.2011 O   0  0  0  0  0  0  0  0  0  0  0  0
   20.9423   74.5541   -6.8814 O   0  0  0  0  0  0  0  0  0  0  0  0
   19.8572   72.2391   -6.3066 O   0  0  0  0  0  0  0  0  0  0  0  0
   19.6448   70.0559   -5.4093 O   0  0  0  0  0  0  0  0  0  0  0  0
   16.2496   70.1370   -7.7581 O   0  0  0  0  0  0  0  0  0  0  0  0
   16.0010   70.2867   -4.9008 O   0  0  0  0  0  0  0  0  0  0  0  0
   18.6912   71.3693   -8.7064 O   0  0  0  0  0  0  0  0  0  0  0  0
   17.2532   70.6853   -6.8993 C   0  0  1  0  0  0  0  0  0  0  0  0
   17.2090   69.9323   -5.5682 C   0  0  1  0  0  0  0  0  0  0  0  0
   18.6198   70.5248   -7.5627 C   0  0  2  0  0  0  0  0  0  0  0  0
   18.4230   70.2782   -4.6955 C   0  0  1  0  0  0  0  0  0  0  0  0
   19.7592   70.8466   -6.5940 C   0  0  1  0  0  0  0  0  0  0  0  0
   15.3794   70.2362   -7.3429 H   0  0  0  0  0  0  0  0  0  0  0  0
   15.2423   70.0636   -5.4627 H   0  0  0  0  0  0  0  0  0  0  0  0
   17.9649   71.1555   -9.3119 H   0  0  0  0  0  0  0  0  0  0  0  0
   17.5911   68.3324   -3.5862 O   0  0  0  0  0  0  0  0  0  0  0  0
   18.4821   69.4217   -3.4325 C   0  0  0  0  0  0  0  0  0  0  0  0
   17.6183   67.7783   -2.7900 H   0  0  0  0  0  0  0  0  0  0  0  0
 25 28  1  0
 25 24  1  0
 25 26  1  6
 25 27  2  0
  1  4  1  0
  1 24  1  0
  1  2  1  1
  1  3  2  0
  6 11  1  0
  6 12  1  0
 29 36  1  0
 29 37  1  0
  9  7  1  1
  7 13  1  0
 10  8  1  1
  8 14  1  0
 37 28  1  1
  4  5  1  0
 33 30  1  6
 30 38  1  0
 34 31  1  1
 31 39  1  0
 35 32  1  6
 32 40  1  0
 41 42  1  0
 41 43  1  0
 15 19  2  0
 16 22  2  0
 12 17  1  1
 17 19  1  0
 17 20  1  0
 18 19  1  0
 18 22  1  0
 18 23  1  0
  9 10  1  0
  9 11  1  0
 10 12  1  0
 11  5  1  1
 33 34  1  0
 33 35  1  0
 34 36  1  0
 35 37  1  0
 36 42  1  1
 20 21  2  0
 21 22  1  0
M  CHG  2   2  -1  26  -1
M  END
>  <COMPND>  (517) 
    8629 

>  <AUTHOR>  (517) 
    GENERATED BY OPEN BABEL 3.1.1

>  <MASTER>  (517) 
        0    0    0    0    0    0    0    0   58    0   58    0

>  <minimizedAffinity>  (517) 
-7.74173

>  <CNNscore>  (517) 
0.5047042370

>  <CNNaffinity>  (517) 
4.4023485184

>  <CNN_VS>  (517) 
2.2218840122

>  <CNNaffinity_variance>  (517) 
0.1190031543

$$$$
518
     RDKit          3D

 43 45  0  0  0  0  0  0  0  0999 V2000
   21.8797   72.3578   -5.8318 P   0  0  2  0  0  0  0  0  0  0  0  0
   21.0792   73.6445   -5.2653 O   0  0  0  0  0  0  0  0  0  0  0  0
   23.0401   72.6773   -6.7278 O   0  0  0  0  0  0  0  0  0  0  0  0
   20.7211   71.4359   -6.4843 O   0  0  0  0  0  0  0  0  0  0  0  0
   20.2256   71.7796   -7.7666 C   0  0  0  0  0  0  0  0  0  0  0  0
   18.8563   69.8823   -7.2198 O   0  0  0  0  0  0  0  0  0  0  0  0
   17.9725   69.9306  -10.0846 O   0  0  0  0  0  0  0  0  0  0  0  0
   15.8843   71.1226   -8.7982 O   0  0  0  0  0  0  0  0  0  0  0  0
   18.2773   71.0205   -9.2160 C   0  0  1  0  0  0  0  0  0  0  0  0
   17.1645   71.2161   -8.2074 C   0  0  2  0  0  0  0  0  0  0  0  0
   19.4417   70.6011   -8.3275 C   0  0  1  0  0  0  0  0  0  0  0  0
   17.4353   70.0952   -7.2182 C   0  0  2  0  0  0  0  0  0  0  0  0
   17.2318   70.1750  -10.6621 H   0  0  0  0  0  0  0  0  0  0  0  0
   15.7601   71.8574   -9.4190 H   0  0  0  0  0  0  0  0  0  0  0  0
   16.5302   68.2141   -5.3155 O   0  0  0  0  0  0  0  0  0  0  0  0
   15.8465   71.4825   -2.1388 O   0  0  0  0  0  0  0  0  0  0  0  0
   17.0149   70.4270   -5.8861 N   0  0  0  0  0  0  0  0  0  0  0  0
   16.1907   69.8430   -3.7353 N   0  0  0  0  0  0  0  0  0  0  0  0
   16.5769   69.4073   -5.0092 C   0  0  0  0  0  0  0  0  0  0  0  0
   17.0397   71.7508   -5.4611 C   0  0  0  0  0  0  0  0  0  0  0  0
   16.6669   72.1500   -4.2433 C   0  0  0  0  0  0  0  0  0  0  0  0
   16.1962   71.1471   -3.2662 C   0  0  0  0  0  0  0  0  0  0  0  0
   15.8816   69.1502   -3.1074 H   0  0  0  0  0  0  0  0  0  0  0  0
   22.2707   71.5516   -4.4863 O   0  0  0  0  0  0  0  0  0  0  0  0
   23.3167   71.9023   -3.3049 P   0  0  2  0  0  0  0  0  0  0  0  0
   24.0052   73.2749   -3.8141 O   0  0  0  0  0  0  0  0  0  0  0  0
   24.2878   70.8000   -2.9956 O   0  0  0  0  0  0  0  0  0  0  0  0
   22.3918   72.3478   -2.0594 O   0  0  0  0  0  0  0  0  0  0  0  0
   21.8165   71.2304   -0.0502 O   0  0  0  0  0  0  0  0  0  0  0  0
   18.1920   73.0339   -0.8633 O   0  0  0  0  0  0  0  0  0  0  0  0
   19.8154   74.0211    1.2902 O   0  0  0  0  0  0  0  0  0  0  0  0
   19.7865   71.9572   -3.0261 O   0  0  0  0  0  0  0  0  0  0  0  0
   19.6181   72.9319   -0.8300 C   0  0  1  0  0  0  0  0  0  0  0  0
   20.0542   72.7819    0.6288 C   0  0  1  0  0  0  0  0  0  0  0  0
   20.0508   71.7167   -1.6482 C   0  0  2  0  0  0  0  0  0  0  0  0
   21.5375   72.4008    0.7272 C   0  0  1  0  0  0  0  0  0  0  0  0
   21.5318   71.3944   -1.4408 C   0  0  1  0  0  0  0  0  0  0  0  0
   17.9107   73.8039   -0.3460 H   0  0  0  0  0  0  0  0  0  0  0  0
   18.8754   74.2505    1.2203 H   0  0  0  0  0  0  0  0  0  0  0  0
   18.8458   72.1597   -3.1442 H   0  0  0  0  0  0  0  0  0  0  0  0
   20.7902   72.0303    2.9662 O   0  0  0  0  0  0  0  0  0  0  0  0
   21.9547   72.0922    2.1634 C   0  0  0  0  0  0  0  0  0  0  0  0
   21.0403   71.8343    3.8831 H   0  0  0  0  0  0  0  0  0  0  0  0
 25 28  1  0
 25 24  1  0
 25 26  1  6
 25 27  2  0
  1  4  1  0
  1 24  1  0
  1  2  1  1
  1  3  2  0
  6 11  1  0
  6 12  1  0
 29 36  1  0
 29 37  1  0
  9  7  1  6
  7 13  1  0
 10  8  1  6
  8 14  1  0
 37 28  1  1
  4  5  1  0
 33 30  1  1
 30 38  1  0
 34 31  1  1
 31 39  1  0
 35 32  1  6
 32 40  1  0
 41 42  1  0
 41 43  1  0
 15 19  2  0
 16 22  2  0
 12 17  1  1
 17 19  1  0
 17 20  1  0
 18 19  1  0
 18 22  1  0
 18 23  1  0
  9 10  1  0
  9 11  1  0
 10 12  1  0
 11  5  1  1
 33 34  1  0
 33 35  1  0
 34 36  1  0
 35 37  1  0
 36 42  1  1
 20 21  2  0
 21 22  1  0
M  CHG  2   2  -1  26  -1
M  END
>  <COMPND>  (518) 
    8629 

>  <AUTHOR>  (518) 
    GENERATED BY OPEN BABEL 3.1.1

>  <MASTER>  (518) 
        0    0    0    0    0    0    0    0   58    0   58    0

>  <minimizedAffinity>  (518) 
-7.68453

>  <CNNscore>  (518) 
0.4999377131

>  <CNNaffinity>  (518) 
4.1855525970

>  <CNN_VS>  (518) 
2.0925157070

>  <CNNaffinity_variance>  (518) 
0.5211013556

$$$$
519
     RDKit          3D

 43 45  0  0  0  0  0  0  0  0999 V2000
   23.2539   71.9933   -2.9521 P   0  0  2  0  0  0  0  0  0  0  0  0
   23.8028   73.3804   -3.5783 O   0  0  0  0  0  0  0  0  0  0  0  0
   24.1988   70.8324   -3.0580 O   0  0  0  0  0  0  0  0  0  0  0  0
   21.8119   71.7922   -3.6578 O   0  0  0  0  0  0  0  0  0  0  0  0
   21.4400   72.6771   -4.7001 C   0  0  0  0  0  0  0  0  0  0  0  0
   20.5975   70.6811   -5.7393 O   0  0  0  0  0  0  0  0  0  0  0  0
   20.9690   72.1080   -8.3502 O   0  0  0  0  0  0  0  0  0  0  0  0
   18.2892   72.3590   -7.9117 O   0  0  0  0  0  0  0  0  0  0  0  0
   20.5603   72.6300   -7.0869 C   0  0  1  0  0  0  0  0  0  0  0  0
   19.1330   72.2223   -6.7865 C   0  0  2  0  0  0  0  0  0  0  0  0
   21.3364   71.8941   -6.0018 C   0  0  1  0  0  0  0  0  0  0  0  0
   19.3027   70.7754   -6.3553 C   0  0  2  0  0  0  0  0  0  0  0  0
   20.4870   72.5630   -9.0591 H   0  0  0  0  0  0  0  0  0  0  0  0
   18.2130   73.2969   -8.1469 H   0  0  0  0  0  0  0  0  0  0  0  0
   16.7583   69.7673   -7.0537 O   0  0  0  0  0  0  0  0  0  0  0  0
   15.5541   69.2357   -2.6369 O   0  0  0  0  0  0  0  0  0  0  0  0
   18.3046   70.3656   -5.4081 N   0  0  0  0  0  0  0  0  0  0  0  0
   16.1609   69.5033   -4.8539 N   0  0  0  0  0  0  0  0  0  0  0  0
   17.0587   69.8743   -5.8629 C   0  0  0  0  0  0  0  0  0  0  0  0
   18.5658   70.4524   -4.0450 C   0  0  0  0  0  0  0  0  0  0  0  0
   17.6984   70.0956   -3.0954 C   0  0  0  0  0  0  0  0  0  0  0  0
   16.3735   69.5721   -3.4862 C   0  0  0  0  0  0  0  0  0  0  0  0
   15.2863   69.1585   -5.1471 H   0  0  0  0  0  0  0  0  0  0  0  0
   22.8634   72.4069   -1.4390 O   0  0  0  0  0  0  0  0  0  0  0  0
   22.6222   71.5038   -0.1202 P   0  0  2  0  0  0  0  0  0  0  0  0
   24.0580   70.7951    0.1118 O   0  0  0  0  0  0  0  0  0  0  0  0
   21.4703   70.5475   -0.2316 O   0  0  0  0  0  0  0  0  0  0  0  0
   22.4935   72.5684    1.0860 O   0  0  0  0  0  0  0  0  0  0  0  0
   21.4228   72.5742    3.2003 O   0  0  0  0  0  0  0  0  0  0  0  0
   20.3640   76.3525    1.9142 O   0  0  0  0  0  0  0  0  0  0  0  0
   22.3255   76.0596    3.9914 O   0  0  0  0  0  0  0  0  0  0  0  0
   20.4302   74.1529    0.0336 O   0  0  0  0  0  0  0  0  0  0  0  0
   21.2183   75.2133    2.0475 C   0  0  1  0  0  0  0  0  0  0  0  0
   21.4965   74.9940    3.5359 C   0  0  1  0  0  0  0  0  0  0  0  0
   20.5223   73.9942    1.4453 C   0  0  2  0  0  0  0  0  0  0  0  0
   22.1821   73.6426    3.7780 C   0  0  1  0  0  0  0  0  0  0  0  0
   21.2588   72.6975    1.7862 C   0  0  1  0  0  0  0  0  0  0  0  0
   20.8003   77.1302    2.2942 H   0  0  0  0  0  0  0  0  0  0  0  0
   21.8813   76.9073    3.8322 H   0  0  0  0  0  0  0  0  0  0  0  0
   19.9617   74.9770   -0.1692 H   0  0  0  0  0  0  0  0  0  0  0  0
   23.4606   74.0217    5.7606 O   0  0  0  0  0  0  0  0  0  0  0  0
   22.3266   73.3331    5.2665 C   0  0  0  0  0  0  0  0  0  0  0  0
   23.5649   73.8343    6.7071 H   0  0  0  0  0  0  0  0  0  0  0  0
 25 28  1  0
 25 24  1  0
 25 26  1  1
 25 27  2  0
  1  4  1  0
  1 24  1  0
  1  2  1  6
  1  3  2  0
  6 11  1  0
  6 12  1  0
 29 36  1  0
 29 37  1  0
  9  7  1  6
  7 13  1  0
 10  8  1  6
  8 14  1  0
 37 28  1  6
  4  5  1  0
 33 30  1  1
 30 38  1  0
 34 31  1  6
 31 39  1  0
 35 32  1  6
 32 40  1  0
 41 42  1  0
 41 43  1  0
 15 19  2  0
 16 22  2  0
 12 17  1  1
 17 19  1  0
 17 20  1  0
 18 19  1  0
 18 22  1  0
 18 23  1  0
  9 10  1  0
  9 11  1  0
 10 12  1  0
 11  5  1  1
 33 34  1  0
 33 35  1  0
 34 36  1  0
 35 37  1  0
 36 42  1  1
 20 21  2  0
 21 22  1  0
M  CHG  2   2  -1  26  -1
M  END
>  <COMPND>  (519) 
    8629 

>  <AUTHOR>  (519) 
    GENERATED BY OPEN BABEL 3.1.1

>  <MASTER>  (519) 
        0    0    0    0    0    0    0    0   58    0   58    0

>  <minimizedAffinity>  (519) 
-6.76271

>  <CNNscore>  (519) 
0.4964071810

>  <CNNaffinity>  (519) 
4.0876154900

>  <CNN_VS>  (519) 
2.0291216373

>  <CNNaffinity_variance>  (519) 
0.2050411254

$$$$
520
     RDKit          3D

 43 45  0  0  0  0  0  0  0  0999 V2000
   23.5002   72.3404   -3.2343 P   0  0  2  0  0  0  0  0  0  0  0  0
   24.0596   70.8267   -3.1203 O   0  0  0  0  0  0  0  0  0  0  0  0
   24.5274   73.3695   -3.6049 O   0  0  0  0  0  0  0  0  0  0  0  0
   22.7410   72.5810   -1.8259 O   0  0  0  0  0  0  0  0  0  0  0  0
   23.5223   72.7241   -0.6525 C   0  0  0  0  0  0  0  0  0  0  0  0
   24.0309   71.7253    1.4729 O   0  0  0  0  0  0  0  0  0  0  0  0
   21.5337   70.1081    1.0998 O   0  0  0  0  0  0  0  0  0  0  0  0
   20.7253   72.0608    2.8232 O   0  0  0  0  0  0  0  0  0  0  0  0
   21.7978   71.4593    0.7258 C   0  0  1  0  0  0  0  0  0  0  0  0
   21.7957   72.3533    1.9482 C   0  0  2  0  0  0  0  0  0  0  0  0
   23.2496   71.5451    0.2715 C   0  0  1  0  0  0  0  0  0  0  0  0
   23.1521   72.0508    2.5622 C   0  0  2  0  0  0  0  0  0  0  0  0
   20.6120   70.0283    1.3934 H   0  0  0  0  0  0  0  0  0  0  0  0
   19.8846   72.2700    2.3871 H   0  0  0  0  0  0  0  0  0  0  0  0
   22.5136   72.6944    5.2372 O   0  0  0  0  0  0  0  0  0  0  0  0
   25.2822   76.3788    5.2042 O   0  0  0  0  0  0  0  0  0  0  0  0
   23.6918   73.1725    3.2776 N   0  0  0  0  0  0  0  0  0  0  0  0
   23.8928   74.5284    5.2187 N   0  0  0  0  0  0  0  0  0  0  0  0
   23.3054   73.4078    4.6177 C   0  0  0  0  0  0  0  0  0  0  0  0
   24.5940   74.0252    2.6508 C   0  0  0  0  0  0  0  0  0  0  0  0
   25.1441   75.0903    3.2374 C   0  0  0  0  0  0  0  0  0  0  0  0
   24.7934   75.4066    4.6370 C   0  0  0  0  0  0  0  0  0  0  0  0
   23.6381   74.7122    6.1520 H   0  0  0  0  0  0  0  0  0  0  0  0
   22.2801   72.1989   -4.2852 O   0  0  0  0  0  0  0  0  0  0  0  0
   21.9166   73.0498   -5.6106 P   0  0  2  0  0  0  0  0  0  0  0  0
   23.0249   72.5591   -6.6822 O   0  0  0  0  0  0  0  0  0  0  0  0
   21.8773   74.5353   -5.3966 O   0  0  0  0  0  0  0  0  0  0  0  0
   20.5302   72.4131   -6.1374 O   0  0  0  0  0  0  0  0  0  0  0  0
   19.5738   70.2534   -5.9424 O   0  0  0  0  0  0  0  0  0  0  0  0
   18.5679   71.0690   -9.8633 O   0  0  0  0  0  0  0  0  0  0  0  0
   16.5284   71.0944   -7.8415 O   0  0  0  0  0  0  0  0  0  0  0  0
   21.1395   71.9034   -8.8289 O   0  0  0  0  0  0  0  0  0  0  0  0
   18.8130   71.3806   -8.4892 C   0  0  1  0  0  0  0  0  0  0  0  0
   17.8372   70.5714   -7.6325 C   0  0  1  0  0  0  0  0  0  0  0  0
   20.2570   71.0200   -8.1454 C   0  0  2  0  0  0  0  0  0  0  0  0
   18.2115   70.6463   -6.1461 C   0  0  1  0  0  0  0  0  0  0  0  0
   20.5103   71.0788   -6.6379 C   0  0  1  0  0  0  0  0  0  0  0  0
   17.6528   71.2961  -10.0882 H   0  0  0  0  0  0  0  0  0  0  0  0
   16.3045   71.0417   -8.7840 H   0  0  0  0  0  0  0  0  0  0  0  0
   20.9694   71.8567   -9.7821 H   0  0  0  0  0  0  0  0  0  0  0  0
   16.0655   70.3047   -5.1529 O   0  0  0  0  0  0  0  0  0  0  0  0
   17.3479   69.7212   -5.2916 C   0  0  0  0  0  0  0  0  0  0  0  0
   15.5047   69.7266   -4.6115 H   0  0  0  0  0  0  0  0  0  0  0  0
 25 28  1  0
 25 24  1  0
 25 26  1  6
 25 27  2  0
  1  4  1  0
  1 24  1  0
  1  2  1  1
  1  3  2  0
  6 11  1  0
  6 12  1  0
 29 36  1  0
 29 37  1  0
  9  7  1  1
  7 13  1  0
 10  8  1  1
  8 14  1  0
 37 28  1  1
  4  5  1  0
 33 30  1  6
 30 38  1  0
 34 31  1  1
 31 39  1  0
 35 32  1  6
 32 40  1  0
 41 42  1  0
 41 43  1  0
 15 19  2  0
 16 22  2  0
 12 17  1  6
 17 19  1  0
 17 20  1  0
 18 19  1  0
 18 22  1  0
 18 23  1  0
  9 10  1  0
  9 11  1  0
 10 12  1  0
 11  5  1  6
 33 34  1  0
 33 35  1  0
 34 36  1  0
 35 37  1  0
 36 42  1  1
 20 21  2  0
 21 22  1  0
M  CHG  2   2  -1  26  -1
M  END
>  <COMPND>  (520) 
    8629 

>  <AUTHOR>  (520) 
    GENERATED BY OPEN BABEL 3.1.1

>  <MASTER>  (520) 
        0    0    0    0    0    0    0    0   58    0   58    0

>  <minimizedAffinity>  (520) 
-7.96689

>  <CNNscore>  (520) 
0.4958490431

>  <CNNaffinity>  (520) 
4.0985169411

>  <CNN_VS>  (520) 
2.0322456360

>  <CNNaffinity_variance>  (520) 
0.2225845605

$$$$
521
     RDKit          3D

 43 45  0  0  0  0  0  0  0  0999 V2000
   20.5834   71.8508   -3.1459 P   0  0  2  0  0  0  0  0  0  0  0  0
   20.6100   73.0863   -2.1018 O   0  0  0  0  0  0  0  0  0  0  0  0
   20.4043   72.2400   -4.5839 O   0  0  0  0  0  0  0  0  0  0  0  0
   19.4593   70.8560   -2.5420 O   0  0  0  0  0  0  0  0  0  0  0  0
   18.8652   69.9031   -3.4061 C   0  0  0  0  0  0  0  0  0  0  0  0
   17.2613   71.0414   -4.7866 O   0  0  0  0  0  0  0  0  0  0  0  0
   15.1791   69.3733   -3.4181 O   0  0  0  0  0  0  0  0  0  0  0  0
   15.5025   68.0844   -5.7994 O   0  0  0  0  0  0  0  0  0  0  0  0
   16.5097   69.0241   -3.7959 C   0  0  1  0  0  0  0  0  0  0  0  0
   16.5955   68.8244   -5.2947 C   0  0  2  0  0  0  0  0  0  0  0  0
   17.3932   70.2476   -3.5870 C   0  0  1  0  0  0  0  0  0  0  0  0
   16.6166   70.2560   -5.8027 C   0  0  2  0  0  0  0  0  0  0  0  0
   14.5962   68.6073   -3.5426 H   0  0  0  0  0  0  0  0  0  0  0  0
   15.5334   67.1811   -5.4476 H   0  0  0  0  0  0  0  0  0  0  0  0
   15.4272   70.6493   -8.3342 O   0  0  0  0  0  0  0  0  0  0  0  0
   19.5229   70.7580  -10.4450 O   0  0  0  0  0  0  0  0  0  0  0  0
   17.3484   70.3908   -7.0306 N   0  0  0  0  0  0  0  0  0  0  0  0
   17.4675   70.7033   -9.3831 N   0  0  0  0  0  0  0  0  0  0  0  0
   16.6553   70.5841   -8.2482 C   0  0  0  0  0  0  0  0  0  0  0  0
   18.7377   70.3312   -7.0194 C   0  0  0  0  0  0  0  0  0  0  0  0
   19.4976   70.4453   -8.1106 C   0  0  0  0  0  0  0  0  0  0  0  0
   18.8518   70.6495   -9.4233 C   0  0  0  0  0  0  0  0  0  0  0  0
   17.0066   70.8382  -10.2428 H   0  0  0  0  0  0  0  0  0  0  0  0
   21.9649   71.0748   -2.8260 O   0  0  0  0  0  0  0  0  0  0  0  0
   23.4401   71.6346   -2.4746 P   0  0  2  0  0  0  0  0  0  0  0  0
   23.4550   73.0988   -3.1627 O   0  0  0  0  0  0  0  0  0  0  0  0
   24.5598   70.7343   -2.9099 O   0  0  0  0  0  0  0  0  0  0  0  0
   23.3976   71.9301   -0.8884 O   0  0  0  0  0  0  0  0  0  0  0  0
   24.5232   70.7855    0.8550 O   0  0  0  0  0  0  0  0  0  0  0  0
   21.0547   71.7906    2.8574 O   0  0  0  0  0  0  0  0  0  0  0  0
   23.5019   73.1556    3.4871 O   0  0  0  0  0  0  0  0  0  0  0  0
   20.9370   70.9891    0.0784 O   0  0  0  0  0  0  0  0  0  0  0  0
   22.1229   71.9805    1.9256 C   0  0  1  0  0  0  0  0  0  0  0  0
   23.4424   71.9694    2.6999 C   0  0  1  0  0  0  0  0  0  0  0  0
   22.0939   70.8520    0.8964 C   0  0  2  0  0  0  0  0  0  0  0  0
   24.6433   71.8998    1.7469 C   0  0  1  0  0  0  0  0  0  0  0  0
   23.3562   70.8431    0.0324 C   0  0  1  0  0  0  0  0  0  0  0  0
   21.0672   72.5042    3.5134 H   0  0  0  0  0  0  0  0  0  0  0  0
   22.7378   73.1875    4.0841 H   0  0  0  0  0  0  0  0  0  0  0  0
   20.1447   70.9930    0.6371 H   0  0  0  0  0  0  0  0  0  0  0  0
   26.3619   72.9925    2.9965 O   0  0  0  0  0  0  0  0  0  0  0  0
   25.9612   71.7289    2.4992 C   0  0  0  0  0  0  0  0  0  0  0  0
   27.1993   72.8991    3.4779 H   0  0  0  0  0  0  0  0  0  0  0  0
 25 28  1  0
 25 24  1  0
 25 26  1  6
 25 27  2  0
  1  4  1  0
  1 24  1  0
  1  2  1  1
  1  3  2  0
  6 11  1  0
  6 12  1  0
 29 36  1  0
 29 37  1  0
  9  7  1  6
  7 13  1  0
 10  8  1  6
  8 14  1  0
 37 28  1  1
  4  5  1  0
 33 30  1  1
 30 38  1  0
 34 31  1  6
 31 39  1  0
 35 32  1  6
 32 40  1  0
 41 42  1  0
 41 43  1  0
 15 19  2  0
 16 22  2  0
 12 17  1  6
 17 19  1  0
 17 20  1  0
 18 19  1  0
 18 22  1  0
 18 23  1  0
  9 10  1  0
  9 11  1  0
 10 12  1  0
 11  5  1  6
 33 34  1  0
 33 35  1  0
 34 36  1  0
 35 37  1  0
 36 42  1  1
 20 21  2  0
 21 22  1  0
M  CHG  2   2  -1  26  -1
M  END
>  <COMPND>  (521) 
    8629 

>  <AUTHOR>  (521) 
    GENERATED BY OPEN BABEL 3.1.1

>  <MASTER>  (521) 
        0    0    0    0    0    0    0    0   58    0   58    0

>  <minimizedAffinity>  (521) 
-8.05762

>  <CNNscore>  (521) 
0.8997045159

>  <CNNaffinity>  (521) 
4.7122836113

>  <CNN_VS>  (521) 
4.2396626472

>  <CNNaffinity_variance>  (521) 
0.1260929406

$$$$
522
     RDKit          3D

 43 45  0  0  0  0  0  0  0  0999 V2000
   20.8619   71.6183   -1.7953 P   0  0  2  0  0  0  0  0  0  0  0  0
   22.4524   71.6651   -2.0874 O   0  0  0  0  0  0  0  0  0  0  0  0
   20.4330   70.5960   -0.7842 O   0  0  0  0  0  0  0  0  0  0  0  0
   20.2011   71.4731   -3.2651 O   0  0  0  0  0  0  0  0  0  0  0  0
   19.4288   70.3193   -3.5482 C   0  0  0  0  0  0  0  0  0  0  0  0
   17.7348   71.4023   -4.8640 O   0  0  0  0  0  0  0  0  0  0  0  0
   15.7439   69.9524   -3.1538 O   0  0  0  0  0  0  0  0  0  0  0  0
   15.7808   68.4482   -5.4281 O   0  0  0  0  0  0  0  0  0  0  0  0
   17.0167   69.5137   -3.6258 C   0  0  1  0  0  0  0  0  0  0  0  0
   16.9442   69.1807   -5.1014 C   0  0  2  0  0  0  0  0  0  0  0  0
   17.9590   70.7109   -3.6158 C   0  0  1  0  0  0  0  0  0  0  0  0
   16.9640   70.5605   -5.7370 C   0  0  2  0  0  0  0  0  0  0  0  0
   15.1251   69.2047   -3.1509 H   0  0  0  0  0  0  0  0  0  0  0  0
   15.8154   67.5784   -5.0003 H   0  0  0  0  0  0  0  0  0  0  0  0
   15.5300   70.5233   -8.1702 O   0  0  0  0  0  0  0  0  0  0  0  0
   19.4046   70.5424  -10.6658 O   0  0  0  0  0  0  0  0  0  0  0  0
   17.5727   70.5557   -7.0373 N   0  0  0  0  0  0  0  0  0  0  0  0
   17.4604   70.5330   -9.4108 N   0  0  0  0  0  0  0  0  0  0  0  0
   16.7624   70.5356   -8.1964 C   0  0  0  0  0  0  0  0  0  0  0  0
   18.9584   70.5712   -7.1539 C   0  0  0  0  0  0  0  0  0  0  0  0
   19.6086   70.5672   -8.3194 C   0  0  0  0  0  0  0  0  0  0  0  0
   18.8361   70.5466   -9.5783 C   0  0  0  0  0  0  0  0  0  0  0  0
   16.9166   70.5188  -10.2317 H   0  0  0  0  0  0  0  0  0  0  0  0
   20.5211   73.1464   -1.3931 O   0  0  0  0  0  0  0  0  0  0  0  0
   21.4641   74.4563   -1.3045 P   0  0  2  0  0  0  0  0  0  0  0  0
   20.5165   75.5471   -0.5766 O   0  0  0  0  0  0  0  0  0  0  0  0
   22.0219   74.9034   -2.6247 O   0  0  0  0  0  0  0  0  0  0  0  0
   22.5793   74.0828   -0.1992 O   0  0  0  0  0  0  0  0  0  0  0  0
   22.6472   72.2739    1.3304 O   0  0  0  0  0  0  0  0  0  0  0  0
   24.3721   75.1944    3.6854 O   0  0  0  0  0  0  0  0  0  0  0  0
   26.0046   73.0867    2.6174 O   0  0  0  0  0  0  0  0  0  0  0  0
   22.1740   75.8691    1.9268 O   0  0  0  0  0  0  0  0  0  0  0  0
   24.0850   74.5055    2.4654 C   0  0  1  0  0  0  0  0  0  0  0  0
   24.5800   73.0642    2.6006 C   0  0  1  0  0  0  0  0  0  0  0  0
   22.5779   74.5355    2.2180 C   0  0  2  0  0  0  0  0  0  0  0  0
   24.0729   72.1935    1.4431 C   0  0  1  0  0  0  0  0  0  0  0  0
   22.1739   73.5984    1.0784 C   0  0  1  0  0  0  0  0  0  0  0  0
   25.3275   75.1794    3.8482 H   0  0  0  0  0  0  0  0  0  0  0  0
   26.3118   73.6402    3.3525 H   0  0  0  0  0  0  0  0  0  0  0  0
   22.4352   76.4524    2.6558 H   0  0  0  0  0  0  0  0  0  0  0  0
   25.7643   70.5185    1.2363 O   0  0  0  0  0  0  0  0  0  0  0  0
   24.4224   70.7200    1.6401 C   0  0  0  0  0  0  0  0  0  0  0  0
   26.0008   69.5851    1.3564 H   0  0  0  0  0  0  0  0  0  0  0  0
 25 28  1  0
 25 24  1  0
 25 26  1  1
 25 27  2  0
  1  4  1  0
  1 24  1  0
  1  2  1  6
  1  3  2  0
  6 11  1  0
  6 12  1  0
 29 36  1  0
 29 37  1  0
  9  7  1  6
  7 13  1  0
 10  8  1  1
  8 14  1  0
 37 28  1  6
  4  5  1  0
 33 30  1  1
 30 38  1  0
 34 31  1  6
 31 39  1  0
 35 32  1  6
 32 40  1  0
 41 42  1  0
 41 43  1  0
 15 19  2  0
 16 22  2  0
 12 17  1  6
 17 19  1  0
 17 20  1  0
 18 19  1  0
 18 22  1  0
 18 23  1  0
  9 10  1  0
  9 11  1  0
 10 12  1  0
 11  5  1  6
 33 34  1  0
 33 35  1  0
 34 36  1  0
 35 37  1  0
 36 42  1  1
 20 21  2  0
 21 22  1  0
M  CHG  2   2  -1  26  -1
M  END
>  <COMPND>  (522) 
    8629 

>  <AUTHOR>  (522) 
    GENERATED BY OPEN BABEL 3.1.1

>  <MASTER>  (522) 
        0    0    0    0    0    0    0    0   58    0   58    0

>  <minimizedAffinity>  (522) 
-6.99749

>  <CNNscore>  (522) 
0.8947657943

>  <CNNaffinity>  (522) 
4.6507244110

>  <CNN_VS>  (522) 
4.1613092422

>  <CNNaffinity_variance>  (522) 
0.0392957889

$$$$
523
     RDKit          3D

 43 45  0  0  0  0  0  0  0  0999 V2000
   23.0347   71.3589   -2.3929 P   0  0  2  0  0  0  0  0  0  0  0  0
   22.7277   72.8904   -2.8144 O   0  0  0  0  0  0  0  0  0  0  0  0
   24.2420   70.7519   -3.0452 O   0  0  0  0  0  0  0  0  0  0  0  0
   21.6336   70.5946   -2.6586 O   0  0  0  0  0  0  0  0  0  0  0  0
   20.9630   70.8195   -3.8864 C   0  0  0  0  0  0  0  0  0  0  0  0
   18.9447   71.7457   -4.8041 O   0  0  0  0  0  0  0  0  0  0  0  0
   17.5266   70.4575   -2.4975 O   0  0  0  0  0  0  0  0  0  0  0  0
   17.0206   68.7301   -4.5460 O   0  0  0  0  0  0  0  0  0  0  0  0
   18.6462   69.9859   -3.2454 C   0  0  1  0  0  0  0  0  0  0  0  0
   18.2013   69.5037   -4.6104 C   0  0  2  0  0  0  0  0  0  0  0  0
   19.5136   71.1873   -3.5996 C   0  0  1  0  0  0  0  0  0  0  0  0
   18.0032   70.8117   -5.3574 C   0  0  2  0  0  0  0  0  0  0  0  0
   16.9581   69.7079   -2.2595 H   0  0  0  0  0  0  0  0  0  0  0  0
   17.1980   67.9088   -4.0615 H   0  0  0  0  0  0  0  0  0  0  0  0
   16.0202   70.2002   -7.2736 O   0  0  0  0  0  0  0  0  0  0  0  0
   19.0624   70.3327  -10.7331 O   0  0  0  0  0  0  0  0  0  0  0  0
   18.2492   70.6807   -6.7659 N   0  0  0  0  0  0  0  0  0  0  0  0
   17.5366   70.2669   -8.9946 N   0  0  0  0  0  0  0  0  0  0  0  0
   17.1839   70.3703   -7.6430 C   0  0  0  0  0  0  0  0  0  0  0  0
   19.5350   70.8599   -7.2644 C   0  0  0  0  0  0  0  0  0  0  0  0
   19.8550   70.7565   -8.5559 C   0  0  0  0  0  0  0  0  0  0  0  0
   18.8001   70.4347   -9.5387 C   0  0  0  0  0  0  0  0  0  0  0  0
   16.8108   70.0510   -9.6242 H   0  0  0  0  0  0  0  0  0  0  0  0
   23.1076   71.4335   -0.7798 O   0  0  0  0  0  0  0  0  0  0  0  0
   21.9659   71.7453    0.3211 P   0  0  2  0  0  0  0  0  0  0  0  0
   21.7169   70.3054    1.0155 O   0  0  0  0  0  0  0  0  0  0  0  0
   20.7286   72.3846   -0.2395 O   0  0  0  0  0  0  0  0  0  0  0  0
   22.7164   72.6188    1.4519 O   0  0  0  0  0  0  0  0  0  0  0  0
   24.5563   72.2351    2.8956 O   0  0  0  0  0  0  0  0  0  0  0  0
   21.9789   74.0325    5.5747 O   0  0  0  0  0  0  0  0  0  0  0  0
   24.2710   75.4785    4.6241 O   0  0  0  0  0  0  0  0  0  0  0  0
   20.9475   72.1960    3.5890 O   0  0  0  0  0  0  0  0  0  0  0  0
   22.5864   73.8120    4.2989 C   0  0  1  0  0  0  0  0  0  0  0  0
   24.0872   74.0790    4.4298 C   0  0  1  0  0  0  0  0  0  0  0  0
   22.3327   72.3686    3.8681 C   0  0  2  0  0  0  0  0  0  0  0  0
   24.8446   73.6090    3.1806 C   0  0  1  0  0  0  0  0  0  0  0  0
   23.1711   71.9881    2.6464 C   0  0  1  0  0  0  0  0  0  0  0  0
   22.1359   74.9474    5.8539 H   0  0  0  0  0  0  0  0  0  0  0  0
   23.7873   75.7625    5.4157 H   0  0  0  0  0  0  0  0  0  0  0  0
   20.4276   72.4398    4.3701 H   0  0  0  0  0  0  0  0  0  0  0  0
   26.7342   75.0710    3.1553 O   0  0  0  0  0  0  0  0  0  0  0  0
   26.3578   73.7207    3.3533 C   0  0  0  0  0  0  0  0  0  0  0  0
   27.6948   75.1573    3.2624 H   0  0  0  0  0  0  0  0  0  0  0  0
 25 28  1  0
 25 24  1  0
 25 26  1  1
 25 27  2  0
  1  4  1  0
  1 24  1  0
  1  2  1  6
  1  3  2  0
  6 11  1  0
  6 12  1  0
 29 36  1  0
 29 37  1  0
  9  7  1  1
  7 13  1  0
 10  8  1  1
  8 14  1  0
 37 28  1  6
  4  5  1  0
 33 30  1  1
 30 38  1  0
 34 31  1  6
 31 39  1  0
 35 32  1  6
 32 40  1  0
 41 42  1  0
 41 43  1  0
 15 19  2  0
 16 22  2  0
 12 17  1  6
 17 19  1  0
 17 20  1  0
 18 19  1  0
 18 22  1  0
 18 23  1  0
  9 10  1  0
  9 11  1  0
 10 12  1  0
 11  5  1  6
 33 34  1  0
 33 35  1  0
 34 36  1  0
 35 37  1  0
 36 42  1  1
 20 21  2  0
 21 22  1  0
M  CHG  2   2  -1  26  -1
M  END
>  <COMPND>  (523) 
    8629 

>  <AUTHOR>  (523) 
    GENERATED BY OPEN BABEL 3.1.1

>  <MASTER>  (523) 
        0    0    0    0    0    0    0    0   58    0   58    0

>  <minimizedAffinity>  (523) 
-7.90336

>  <CNNscore>  (523) 
0.8874106407

>  <CNNaffinity>  (523) 
4.6776666641

>  <CNN_VS>  (523) 
4.1510109901

>  <CNNaffinity_variance>  (523) 
0.0742320344

$$$$
524
     RDKit          3D

 43 45  0  0  0  0  0  0  0  0999 V2000
   22.9502   71.4202   -2.3226 P   0  0  2  0  0  0  0  0  0  0  0  0
   22.7003   73.0180   -2.2794 O   0  0  0  0  0  0  0  0  0  0  0  0
   24.1955   70.9927   -3.0422 O   0  0  0  0  0  0  0  0  0  0  0  0
   21.5628   70.8257   -2.9052 O   0  0  0  0  0  0  0  0  0  0  0  0
   20.9081   71.5321   -3.9445 C   0  0  0  0  0  0  0  0  0  0  0  0
   18.7236   71.9965   -4.8311 O   0  0  0  0  0  0  0  0  0  0  0  0
   17.6480   70.5696   -2.4232 O   0  0  0  0  0  0  0  0  0  0  0  0
   17.4428   68.6776   -4.3763 O   0  0  0  0  0  0  0  0  0  0  0  0
   18.8196   70.2914   -3.1883 C   0  0  1  0  0  0  0  0  0  0  0  0
   18.4447   69.6644   -4.5149 C   0  0  2  0  0  0  0  0  0  0  0  0
   19.4223   71.6211   -3.6240 C   0  0  1  0  0  0  0  0  0  0  0  0
   17.9723   70.8694   -5.3106 C   0  0  2  0  0  0  0  0  0  0  0  0
   17.2456   69.7354   -2.1334 H   0  0  0  0  0  0  0  0  0  0  0  0
   17.7918   67.9322   -3.8631 H   0  0  0  0  0  0  0  0  0  0  0  0
   15.9378   70.4651   -7.2277 O   0  0  0  0  0  0  0  0  0  0  0  0
   18.9771   70.3086  -10.6888 O   0  0  0  0  0  0  0  0  0  0  0  0
   18.2036   70.7201   -6.7197 N   0  0  0  0  0  0  0  0  0  0  0  0
   17.4528   70.3877   -8.9495 N   0  0  0  0  0  0  0  0  0  0  0  0
   17.1125   70.5204   -7.5972 C   0  0  0  0  0  0  0  0  0  0  0  0
   19.5007   70.7727   -7.2184 C   0  0  0  0  0  0  0  0  0  0  0  0
   19.8084   70.6431   -8.5106 C   0  0  0  0  0  0  0  0  0  0  0  0
   18.7265   70.4315   -9.4938 C   0  0  0  0  0  0  0  0  0  0  0  0
   16.7089   70.2473   -9.5794 H   0  0  0  0  0  0  0  0  0  0  0  0
   22.8978   71.0019   -0.7621 O   0  0  0  0  0  0  0  0  0  0  0  0
   21.8944   71.4490    0.4237 P   0  0  2  0  0  0  0  0  0  0  0  0
   21.5670   70.0556    1.1779 O   0  0  0  0  0  0  0  0  0  0  0  0
   20.6815   72.1986   -0.0464 O   0  0  0  0  0  0  0  0  0  0  0  0
   22.8246   72.2647    1.4602 O   0  0  0  0  0  0  0  0  0  0  0  0
   22.2215   73.9920    2.9666 O   0  0  0  0  0  0  0  0  0  0  0  0
   26.0080   75.2916    1.9545 O   0  0  0  0  0  0  0  0  0  0  0  0
   25.5397   74.1806    4.5611 O   0  0  0  0  0  0  0  0  0  0  0  0
   24.3028   74.1028   -0.0602 O   0  0  0  0  0  0  0  0  0  0  0  0
   24.9952   74.3219    2.2363 C   0  0  1  0  0  0  0  0  0  0  0  0
   24.4962   74.5510    3.6644 C   0  0  1  0  0  0  0  0  0  0  0  0
   23.8536   74.4869    1.2349 C   0  0  2  0  0  0  0  0  0  0  0  0
   23.2315   73.7292    3.9477 C   0  0  1  0  0  0  0  0  0  0  0  0
   22.6272   73.6652    1.6360 C   0  0  1  0  0  0  0  0  0  0  0  0
   26.7360   75.1920    2.5865 H   0  0  0  0  0  0  0  0  0  0  0  0
   26.3326   74.7064    4.3712 H   0  0  0  0  0  0  0  0  0  0  0  0
   25.0793   74.6303   -0.3026 H   0  0  0  0  0  0  0  0  0  0  0  0
   22.2811   72.8496    5.9557 O   0  0  0  0  0  0  0  0  0  0  0  0
   22.6270   74.0612    5.3102 C   0  0  0  0  0  0  0  0  0  0  0  0
   21.8953   73.0454    6.8243 H   0  0  0  0  0  0  0  0  0  0  0  0
 25 28  1  0
 25 24  1  0
 25 26  1  1
 25 27  2  0
  1  4  1  0
  1 24  1  0
  1  2  1  1
  1  3  2  0
  6 11  1  0
  6 12  1  0
 29 36  1  0
 29 37  1  0
  9  7  1  1
  7 13  1  0
 10  8  1  1
  8 14  1  0
 37 28  1  1
  4  5  1  0
 33 30  1  6
 30 38  1  0
 34 31  1  1
 31 39  1  0
 35 32  1  6
 32 40  1  0
 41 42  1  0
 41 43  1  0
 15 19  2  0
 16 22  2  0
 12 17  1  6
 17 19  1  0
 17 20  1  0
 18 19  1  0
 18 22  1  0
 18 23  1  0
  9 10  1  0
  9 11  1  0
 10 12  1  0
 11  5  1  6
 33 34  1  0
 33 35  1  0
 34 36  1  0
 35 37  1  0
 36 42  1  1
 20 21  2  0
 21 22  1  0
M  CHG  2   2  -1  26  -1
M  END
>  <COMPND>  (524) 
    8629 

>  <AUTHOR>  (524) 
    GENERATED BY OPEN BABEL 3.1.1

>  <MASTER>  (524) 
        0    0    0    0    0    0    0    0   58    0   58    0

>  <minimizedAffinity>  (524) 
-7.66841

>  <CNNscore>  (524) 
0.8762477636

>  <CNNaffinity>  (524) 
4.5981774330

>  <CNN_VS>  (524) 
4.0291428566

>  <CNNaffinity_variance>  (524) 
0.0498782322

$$$$
525
     RDKit          3D

 43 45  0  0  0  0  0  0  0  0999 V2000
   20.8430   73.1139   -3.2987 P   0  0  2  0  0  0  0  0  0  0  0  0
   21.1671   72.2111   -1.9959 O   0  0  0  0  0  0  0  0  0  0  0  0
   20.3434   74.4975   -3.0027 O   0  0  0  0  0  0  0  0  0  0  0  0
   19.8550   72.1837   -4.1798 O   0  0  0  0  0  0  0  0  0  0  0  0
   19.2306   71.0770   -3.5528 C   0  0  0  0  0  0  0  0  0  0  0  0
   17.4369   71.7161   -5.0184 O   0  0  0  0  0  0  0  0  0  0  0  0
   15.6392   70.1608   -3.1908 O   0  0  0  0  0  0  0  0  0  0  0  0
   16.0024   68.4390   -5.2741 O   0  0  0  0  0  0  0  0  0  0  0  0
   16.9828   69.8855   -3.5837 C   0  0  1  0  0  0  0  0  0  0  0  0
   17.0206   69.3830   -5.0118 C   0  0  2  0  0  0  0  0  0  0  0  0
   17.7208   71.2139   -3.6942 C   0  0  1  0  0  0  0  0  0  0  0  0
   16.8442   70.6681   -5.8028 C   0  0  2  0  0  0  0  0  0  0  0  0
   15.1480   69.3273   -3.1133 H   0  0  0  0  0  0  0  0  0  0  0  0
   16.1590   67.6396   -4.7476 H   0  0  0  0  0  0  0  0  0  0  0  0
   15.4920   70.6685   -8.2825 O   0  0  0  0  0  0  0  0  0  0  0  0
   19.4440   70.4712  -10.6454 O   0  0  0  0  0  0  0  0  0  0  0  0
   17.4950   70.6178   -7.0816 N   0  0  0  0  0  0  0  0  0  0  0  0
   17.4609   70.5704   -9.4571 N   0  0  0  0  0  0  0  0  0  0  0  0
   16.7237   70.6217   -8.2671 C   0  0  0  0  0  0  0  0  0  0  0  0
   18.8829   70.5658   -7.1512 C   0  0  0  0  0  0  0  0  0  0  0  0
   19.5707   70.5160   -8.2939 C   0  0  0  0  0  0  0  0  0  0  0  0
   18.8404   70.5163   -9.5780 C   0  0  0  0  0  0  0  0  0  0  0  0
   16.9447   70.5717  -10.2957 H   0  0  0  0  0  0  0  0  0  0  0  0
   22.2281   73.0625   -4.1304 O   0  0  0  0  0  0  0  0  0  0  0  0
   22.5946   73.5847   -5.6156 P   0  0  2  0  0  0  0  0  0  0  0  0
   21.2617   74.3825   -6.0678 O   0  0  0  0  0  0  0  0  0  0  0  0
   23.0178   72.4993   -6.5625 O   0  0  0  0  0  0  0  0  0  0  0  0
   23.7000   74.7373   -5.3822 O   0  0  0  0  0  0  0  0  0  0  0  0
   25.5189   75.0375   -3.8928 O   0  0  0  0  0  0  0  0  0  0  0  0
   23.8625   78.8141   -3.6812 O   0  0  0  0  0  0  0  0  0  0  0  0
   26.3367   78.4277   -5.0873 O   0  0  0  0  0  0  0  0  0  0  0  0
   22.1437   76.4903   -3.8396 O   0  0  0  0  0  0  0  0  0  0  0  0
   24.2338   77.5879   -4.3169 C   0  0  1  0  0  0  0  0  0  0  0  0
   25.7549   77.4462   -4.2338 C   0  0  1  0  0  0  0  0  0  0  0  0
   23.5458   76.4267   -3.6017 C   0  0  2  0  0  0  0  0  0  0  0  0
   26.2039   76.0398   -4.6530 C   0  0  1  0  0  0  0  0  0  0  0  0
   24.0999   75.0753   -4.0566 C   0  0  1  0  0  0  0  0  0  0  0  0
   24.2957   79.5556   -4.1308 H   0  0  0  0  0  0  0  0  0  0  0  0
   26.0448   79.3110   -4.8122 H   0  0  0  0  0  0  0  0  0  0  0  0
   21.8049   77.3503   -3.5471 H   0  0  0  0  0  0  0  0  0  0  0  0
   28.1059   74.6866   -5.1633 O   0  0  0  0  0  0  0  0  0  0  0  0
   27.6992   75.8260   -4.4279 C   0  0  0  0  0  0  0  0  0  0  0  0
   29.0556   74.5385   -5.0298 H   0  0  0  0  0  0  0  0  0  0  0  0
 25 28  1  0
 25 24  1  0
 25 26  1  6
 25 27  2  0
  1  4  1  0
  1 24  1  0
  1  2  1  1
  1  3  2  0
  6 11  1  0
  6 12  1  0
 29 36  1  0
 29 37  1  0
  9  7  1  6
  7 13  1  0
 10  8  1  1
  8 14  1  0
 37 28  1  6
  4  5  1  0
 33 30  1  1
 30 38  1  0
 34 31  1  6
 31 39  1  0
 35 32  1  6
 32 40  1  0
 41 42  1  0
 41 43  1  0
 15 19  2  0
 16 22  2  0
 12 17  1  6
 17 19  1  0
 17 20  1  0
 18 19  1  0
 18 22  1  0
 18 23  1  0
  9 10  1  0
  9 11  1  0
 10 12  1  0
 11  5  1  6
 33 34  1  0
 33 35  1  0
 34 36  1  0
 35 37  1  0
 36 42  1  1
 20 21  2  0
 21 22  1  0
M  CHG  2   2  -1  26  -1
M  END
>  <COMPND>  (525) 
    8629 

>  <AUTHOR>  (525) 
    GENERATED BY OPEN BABEL 3.1.1

>  <MASTER>  (525) 
        0    0    0    0    0    0    0    0   58    0   58    0

>  <minimizedAffinity>  (525) 
-6.67235

>  <CNNscore>  (525) 
0.8626202345

>  <CNNaffinity>  (525) 
4.5811042786

>  <CNN_VS>  (525) 
3.9517531395

>  <CNNaffinity_variance>  (525) 
0.1260778010

$$$$
526
     RDKit          3D

 43 45  0  0  0  0  0  0  0  0999 V2000
   21.4258   72.1250   -3.0652 P   0  0  2  0  0  0  0  0  0  0  0  0
   22.4348   70.8844   -3.3107 O   0  0  0  0  0  0  0  0  0  0  0  0
   21.2437   72.5191   -1.6289 O   0  0  0  0  0  0  0  0  0  0  0  0
   20.0795   71.6920   -3.8511 O   0  0  0  0  0  0  0  0  0  0  0  0
   19.3480   70.5757   -3.3750 C   0  0  0  0  0  0  0  0  0  0  0  0
   17.6120   71.5565   -4.7159 O   0  0  0  0  0  0  0  0  0  0  0  0
   15.6848   70.0067   -3.0204 O   0  0  0  0  0  0  0  0  0  0  0  0
   15.8315   68.4958   -5.2858 O   0  0  0  0  0  0  0  0  0  0  0  0
   16.9854   69.6370   -3.4755 C   0  0  1  0  0  0  0  0  0  0  0  0
   16.9486   69.2933   -4.9499 C   0  0  2  0  0  0  0  0  0  0  0  0
   17.8596   70.8848   -3.4614 C   0  0  1  0  0  0  0  0  0  0  0  0
   16.8993   70.6689   -5.5930 C   0  0  2  0  0  0  0  0  0  0  0  0
   15.1084   69.2259   -3.0204 H   0  0  0  0  0  0  0  0  0  0  0  0
   15.9093   67.6314   -4.8528 H   0  0  0  0  0  0  0  0  0  0  0  0
   15.5447   70.1940   -8.0255 O   0  0  0  0  0  0  0  0  0  0  0  0
   19.3922   70.7800  -10.4943 O   0  0  0  0  0  0  0  0  0  0  0  0
   17.5225   70.6915   -6.8863 N   0  0  0  0  0  0  0  0  0  0  0  0
   17.4615   70.4864   -9.2528 N   0  0  0  0  0  0  0  0  0  0  0  0
   16.7527   70.4387   -8.0456 C   0  0  0  0  0  0  0  0  0  0  0  0
   18.8821   70.9625   -6.9957 C   0  0  0  0  0  0  0  0  0  0  0  0
   19.5433   71.0029   -8.1544 C   0  0  0  0  0  0  0  0  0  0  0  0
   18.8126   70.7501   -9.4130 C   0  0  0  0  0  0  0  0  0  0  0  0
   16.9459   70.3130  -10.0737 H   0  0  0  0  0  0  0  0  0  0  0  0
   22.0400   73.2851   -4.0084 O   0  0  0  0  0  0  0  0  0  0  0  0
   23.4844   74.0106   -3.9948 P   0  0  2  0  0  0  0  0  0  0  0  0
   24.5229   72.7704   -4.0267 O   0  0  0  0  0  0  0  0  0  0  0  0
   23.6864   74.9580   -2.8478 O   0  0  0  0  0  0  0  0  0  0  0  0
   23.6147   74.6890   -5.4535 O   0  0  0  0  0  0  0  0  0  0  0  0
   24.3196   76.7710   -6.3394 O   0  0  0  0  0  0  0  0  0  0  0  0
   20.7485   76.3643   -8.3722 O   0  0  0  0  0  0  0  0  0  0  0  0
   23.2284   76.0252   -9.7805 O   0  0  0  0  0  0  0  0  0  0  0  0
   20.9404   75.5253   -5.6084 O   0  0  0  0  0  0  0  0  0  0  0  0
   21.9572   75.9092   -7.7578 C   0  0  1  0  0  0  0  0  0  0  0  0
   23.1369   76.5749   -8.4692 C   0  0  1  0  0  0  0  0  0  0  0  0
   21.9383   76.2882   -6.2781 C   0  0  2  0  0  0  0  0  0  0  0  0
   24.4463   76.3476   -7.7019 C   0  0  1  0  0  0  0  0  0  0  0  0
   23.3026   76.0694   -5.6216 C   0  0  1  0  0  0  0  0  0  0  0  0
   20.7539   76.1263   -9.3118 H   0  0  0  0  0  0  0  0  0  0  0  0
   22.3951   76.1750  -10.2542 H   0  0  0  0  0  0  0  0  0  0  0  0
   20.0815   75.6727   -6.0332 H   0  0  0  0  0  0  0  0  0  0  0  0
   26.7000   77.0846   -7.4078 O   0  0  0  0  0  0  0  0  0  0  0  0
   25.6076   77.1333   -8.3070 C   0  0  0  0  0  0  0  0  0  0  0  0
   27.4467   77.5803   -7.7800 H   0  0  0  0  0  0  0  0  0  0  0  0
 25 28  1  0
 25 24  1  0
 25 26  1  6
 25 27  2  0
  1  4  1  0
  1 24  1  0
  1  2  1  1
  1  3  2  0
  6 11  1  0
  6 12  1  0
 29 36  1  0
 29 37  1  0
  9  7  1  6
  7 13  1  0
 10  8  1  1
  8 14  1  0
 37 28  1  6
  4  5  1  0
 33 30  1  6
 30 38  1  0
 34 31  1  6
 31 39  1  0
 35 32  1  1
 32 40  1  0
 41 42  1  0
 41 43  1  0
 15 19  2  0
 16 22  2  0
 12 17  1  6
 17 19  1  0
 17 20  1  0
 18 19  1  0
 18 22  1  0
 18 23  1  0
  9 10  1  0
  9 11  1  0
 10 12  1  0
 11  5  1  6
 33 34  1  0
 33 35  1  0
 34 36  1  0
 35 37  1  0
 36 42  1  6
 20 21  2  0
 21 22  1  0
M  CHG  2   2  -1  26  -1
M  END
>  <COMPND>  (526) 
    8629 

>  <AUTHOR>  (526) 
    GENERATED BY OPEN BABEL 3.1.1

>  <MASTER>  (526) 
        0    0    0    0    0    0    0    0   58    0   58    0

>  <minimizedAffinity>  (526) 
-6.86893

>  <CNNscore>  (526) 
0.8592563272

>  <CNNaffinity>  (526) 
4.6024894714

>  <CNN_VS>  (526) 
3.9547181129

>  <CNNaffinity_variance>  (526) 
0.1098523960

$$$$
527
     RDKit          3D

 43 45  0  0  0  0  0  0  0  0999 V2000
   20.8873   71.4819   -1.8035 P   0  0  2  0  0  0  0  0  0  0  0  0
   22.4191   71.1560   -2.2092 O   0  0  0  0  0  0  0  0  0  0  0  0
   20.3147   70.6022   -0.7313 O   0  0  0  0  0  0  0  0  0  0  0  0
   20.1001   71.4698   -3.2171 O   0  0  0  0  0  0  0  0  0  0  0  0
   19.3542   70.3166   -3.5657 C   0  0  0  0  0  0  0  0  0  0  0  0
   17.6532   71.3533   -4.9094 O   0  0  0  0  0  0  0  0  0  0  0  0
   15.6725   69.9043   -3.1866 O   0  0  0  0  0  0  0  0  0  0  0  0
   15.7442   68.3629   -5.4351 O   0  0  0  0  0  0  0  0  0  0  0  0
   16.9542   69.4758   -3.6437 C   0  0  1  0  0  0  0  0  0  0  0  0
   16.8952   69.1172   -5.1139 C   0  0  2  0  0  0  0  0  0  0  0  0
   17.8795   70.6862   -3.6484 C   0  0  1  0  0  0  0  0  0  0  0  0
   16.8996   70.4862   -5.7726 C   0  0  2  0  0  0  0  0  0  0  0  0
   15.0642   69.1482   -3.1747 H   0  0  0  0  0  0  0  0  0  0  0  0
   15.7884   67.5010   -4.9924 H   0  0  0  0  0  0  0  0  0  0  0  0
   15.4935   70.7144   -8.2116 O   0  0  0  0  0  0  0  0  0  0  0  0
   19.3691   70.4030  -10.6862 O   0  0  0  0  0  0  0  0  0  0  0  0
   17.5162   70.4682   -7.0691 N   0  0  0  0  0  0  0  0  0  0  0  0
   17.4244   70.5593   -9.4418 N   0  0  0  0  0  0  0  0  0  0  0  0
   16.7197   70.5889   -8.2316 C   0  0  0  0  0  0  0  0  0  0  0  0
   18.8959   70.3325   -7.1785 C   0  0  0  0  0  0  0  0  0  0  0  0
   19.5525   70.3049   -8.3401 C   0  0  0  0  0  0  0  0  0  0  0  0
   18.7945   70.4250   -9.6022 C   0  0  0  0  0  0  0  0  0  0  0  0
   16.8903   70.6414  -10.2650 H   0  0  0  0  0  0  0  0  0  0  0  0
   20.9371   73.0536   -1.4289 O   0  0  0  0  0  0  0  0  0  0  0  0
   19.9857   74.2819   -1.8750 P   0  0  2  0  0  0  0  0  0  0  0  0
   20.5703   75.5305   -1.0285 O   0  0  0  0  0  0  0  0  0  0  0  0
   18.5195   74.0293   -1.6734 O   0  0  0  0  0  0  0  0  0  0  0  0
   20.4072   74.5915   -3.4019 O   0  0  0  0  0  0  0  0  0  0  0  0
   22.1228   73.5725   -4.6807 O   0  0  0  0  0  0  0  0  0  0  0  0
   22.2889   77.3804   -6.2693 O   0  0  0  0  0  0  0  0  0  0  0  0
   21.1861   75.2386   -7.8328 O   0  0  0  0  0  0  0  0  0  0  0  0
   21.8182   77.0170   -3.4362 O   0  0  0  0  0  0  0  0  0  0  0  0
   21.6522   76.2299   -5.7066 C   0  0  1  0  0  0  0  0  0  0  0  0
   21.9177   75.0368   -6.6268 C   0  0  1  0  0  0  0  0  0  0  0  0
   22.2256   75.9731   -4.3142 C   0  0  2  0  0  0  0  0  0  0  0  0
   21.4975   73.7195   -5.9610 C   0  0  1  0  0  0  0  0  0  0  0  0
   21.7855   74.6153   -3.7638 C   0  0  1  0  0  0  0  0  0  0  0  0
   21.9290   77.5492   -7.1532 H   0  0  0  0  0  0  0  0  0  0  0  0
   21.4605   76.0738   -8.2429 H   0  0  0  0  0  0  0  0  0  0  0  0
   22.1030   77.8711   -3.7956 H   0  0  0  0  0  0  0  0  0  0  0  0
   23.3028   72.5184   -6.9646 O   0  0  0  0  0  0  0  0  0  0  0  0
   21.8974   72.5042   -6.7948 C   0  0  0  0  0  0  0  0  0  0  0  0
   23.5718   71.7504   -7.4932 H   0  0  0  0  0  0  0  0  0  0  0  0
 25 28  1  0
 25 24  1  0
 25 26  1  1
 25 27  2  0
  1  4  1  0
  1 24  1  0
  1  2  1  6
  1  3  2  0
  6 11  1  0
  6 12  1  0
 29 36  1  0
 29 37  1  0
  9  7  1  6
  7 13  1  0
 10  8  1  1
  8 14  1  0
 37 28  1  6
  4  5  1  0
 33 30  1  6
 30 38  1  0
 34 31  1  6
 31 39  1  0
 35 32  1  1
 32 40  1  0
 41 42  1  0
 41 43  1  0
 15 19  2  0
 16 22  2  0
 12 17  1  6
 17 19  1  0
 17 20  1  0
 18 19  1  0
 18 22  1  0
 18 23  1  0
  9 10  1  0
  9 11  1  0
 10 12  1  0
 11  5  1  6
 33 34  1  0
 33 35  1  0
 34 36  1  0
 35 37  1  0
 36 42  1  6
 20 21  2  0
 21 22  1  0
M  CHG  2   2  -1  26  -1
M  END
>  <COMPND>  (527) 
    8629 

>  <AUTHOR>  (527) 
    GENERATED BY OPEN BABEL 3.1.1

>  <MASTER>  (527) 
        0    0    0    0    0    0    0    0   58    0   58    0

>  <minimizedAffinity>  (527) 
-6.94091

>  <CNNscore>  (527) 
0.8506483436

>  <CNNaffinity>  (527) 
4.5823082924

>  <CNN_VS>  (527) 
3.8979330063

>  <CNNaffinity_variance>  (527) 
0.4665085673

$$$$
528
     RDKit          3D

 43 45  0  0  0  0  0  0  0  0999 V2000
   22.3512   72.1176   -3.5355 P   0  0  2  0  0  0  0  0  0  0  0  0
   23.2937   72.1306   -4.8503 O   0  0  0  0  0  0  0  0  0  0  0  0
   22.7335   71.1098   -2.4916 O   0  0  0  0  0  0  0  0  0  0  0  0
   20.8538   71.9775   -4.1323 O   0  0  0  0  0  0  0  0  0  0  0  0
   20.0516   70.8932   -3.6981 C   0  0  0  0  0  0  0  0  0  0  0  0
   18.2752   71.9060   -4.9600 O   0  0  0  0  0  0  0  0  0  0  0  0
   16.4104   70.7122   -2.9380 O   0  0  0  0  0  0  0  0  0  0  0  0
   16.1893   68.9896   -5.0405 O   0  0  0  0  0  0  0  0  0  0  0  0
   17.6198   70.1792   -3.4753 C   0  0  1  0  0  0  0  0  0  0  0  0
   17.3996   69.7047   -4.8965 C   0  0  2  0  0  0  0  0  0  0  0  0
   18.5944   71.3336   -3.6728 C   0  0  1  0  0  0  0  0  0  0  0  0
   17.4013   71.0127   -5.6693 C   0  0  2  0  0  0  0  0  0  0  0  0
   15.7725   69.9934   -2.8029 H   0  0  0  0  0  0  0  0  0  0  0  0
   16.2377   68.1658   -4.5307 H   0  0  0  0  0  0  0  0  0  0  0  0
   15.7829   70.3195   -7.8779 O   0  0  0  0  0  0  0  0  0  0  0  0
   19.3668   70.4345  -10.7734 O   0  0  0  0  0  0  0  0  0  0  0  0
   17.8852   70.8551   -7.0118 N   0  0  0  0  0  0  0  0  0  0  0  0
   17.5687   70.3775   -9.3179 N   0  0  0  0  0  0  0  0  0  0  0  0
   16.9897   70.5042   -8.0487 C   0  0  0  0  0  0  0  0  0  0  0  0
   19.2341   71.0483   -7.2893 C   0  0  0  0  0  0  0  0  0  0  0  0
   19.7707   70.9224   -8.5048 C   0  0  0  0  0  0  0  0  0  0  0  0
   18.9035   70.5580   -9.6438 C   0  0  0  0  0  0  0  0  0  0  0  0
   16.9640   70.1333  -10.0558 H   0  0  0  0  0  0  0  0  0  0  0  0
   22.4013   73.6545   -3.0371 O   0  0  0  0  0  0  0  0  0  0  0  0
   21.3584   74.8720   -3.2438 P   0  0  2  0  0  0  0  0  0  0  0  0
   21.9460   76.0315   -2.2806 O   0  0  0  0  0  0  0  0  0  0  0  0
   19.9270   74.5088   -2.9734 O   0  0  0  0  0  0  0  0  0  0  0  0
   21.6422   75.4033   -4.7412 O   0  0  0  0  0  0  0  0  0  0  0  0
   19.7240   75.3693   -6.1326 O   0  0  0  0  0  0  0  0  0  0  0  0
   22.6130   76.0318   -9.0076 O   0  0  0  0  0  0  0  0  0  0  0  0
   20.8400   78.1642   -8.2613 O   0  0  0  0  0  0  0  0  0  0  0  0
   23.1584   74.2431   -6.7979 O   0  0  0  0  0  0  0  0  0  0  0  0
   22.0081   76.1493   -7.7170 C   0  0  1  0  0  0  0  0  0  0  0  0
   20.6361   76.8043   -7.8883 C   0  0  1  0  0  0  0  0  0  0  0  0
   21.8667   74.7576   -7.1034 C   0  0  2  0  0  0  0  0  0  0  0  0
   19.8176   76.7225   -6.5927 C   0  0  1  0  0  0  0  0  0  0  0  0
   20.9942   74.7802   -5.8471 C   0  0  1  0  0  0  0  0  0  0  0  0
   22.7061   76.9120   -9.4025 H   0  0  0  0  0  0  0  0  0  0  0  0
   21.3584   78.2019   -9.0805 H   0  0  0  0  0  0  0  0  0  0  0  0
   23.7008   74.2336   -7.6013 H   0  0  0  0  0  0  0  0  0  0  0  0
   17.7802   77.3497   -5.5135 O   0  0  0  0  0  0  0  0  0  0  0  0
   18.3894   77.2278   -6.7856 C   0  0  0  0  0  0  0  0  0  0  0  0
   16.8707   77.6707   -5.6206 H   0  0  0  0  0  0  0  0  0  0  0  0
 25 28  1  0
 25 24  1  0
 25 26  1  1
 25 27  2  0
  1  4  1  0
  1 24  1  0
  1  2  1  6
  1  3  2  0
  6 11  1  0
  6 12  1  0
 29 36  1  0
 29 37  1  0
  9  7  1  6
  7 13  1  0
 10  8  1  1
  8 14  1  0
 37 28  1  1
  4  5  1  0
 33 30  1  6
 30 38  1  0
 34 31  1  1
 31 39  1  0
 35 32  1  1
 32 40  1  0
 41 42  1  0
 41 43  1  0
 15 19  2  0
 16 22  2  0
 12 17  1  6
 17 19  1  0
 17 20  1  0
 18 19  1  0
 18 22  1  0
 18 23  1  0
  9 10  1  0
  9 11  1  0
 10 12  1  0
 11  5  1  6
 33 34  1  0
 33 35  1  0
 34 36  1  0
 35 37  1  0
 36 42  1  6
 20 21  2  0
 21 22  1  0
M  CHG  2   2  -1  26  -1
M  END
>  <COMPND>  (528) 
    8629 

>  <AUTHOR>  (528) 
    GENERATED BY OPEN BABEL 3.1.1

>  <MASTER>  (528) 
        0    0    0    0    0    0    0    0   58    0   58    0

>  <minimizedAffinity>  (528) 
-6.15196

>  <CNNscore>  (528) 
0.8420127630

>  <CNNaffinity>  (528) 
4.5089912415

>  <CNN_VS>  (528) 
3.7966282368

>  <CNNaffinity_variance>  (528) 
0.2077065706

$$$$
529
     RDKit          3D

 43 45  0  0  0  0  0  0  0  0999 V2000
   21.8125   72.3866   -5.6035 P   0  0  2  0  0  0  0  0  0  0  0  0
   21.1317   73.8393   -5.3950 O   0  0  0  0  0  0  0  0  0  0  0  0
   23.1113   72.3973   -6.3547 O   0  0  0  0  0  0  0  0  0  0  0  0
   20.6310   71.4939   -6.2555 O   0  0  0  0  0  0  0  0  0  0  0  0
   20.0855   71.8987   -7.4990 C   0  0  0  0  0  0  0  0  0  0  0  0
   18.8027   69.9033   -7.1166 O   0  0  0  0  0  0  0  0  0  0  0  0
   18.0861   70.0310  -10.0254 O   0  0  0  0  0  0  0  0  0  0  0  0
   15.8589   71.0418   -8.8197 O   0  0  0  0  0  0  0  0  0  0  0  0
   18.2739   71.0959   -9.0949 C   0  0  1  0  0  0  0  0  0  0  0  0
   17.0946   71.1815   -8.1487 C   0  0  2  0  0  0  0  0  0  0  0  0
   19.4076   70.7039   -8.1556 C   0  0  1  0  0  0  0  0  0  0  0  0
   17.3737   70.0342   -7.1927 C   0  0  2  0  0  0  0  0  0  0  0  0
   17.3671   70.2585  -10.6362 H   0  0  0  0  0  0  0  0  0  0  0  0
   15.7273   71.7957   -9.4156 H   0  0  0  0  0  0  0  0  0  0  0  0
   16.3832   68.0300   -5.4665 O   0  0  0  0  0  0  0  0  0  0  0  0
   15.4160   71.0956   -2.1638 O   0  0  0  0  0  0  0  0  0  0  0  0
   16.8573   70.2804   -5.8759 N   0  0  0  0  0  0  0  0  0  0  0  0
   15.9026   69.5580   -3.8233 N   0  0  0  0  0  0  0  0  0  0  0  0
   16.3833   69.2039   -5.0904 C   0  0  0  0  0  0  0  0  0  0  0  0
   16.8247   71.5776   -5.3757 C   0  0  0  0  0  0  0  0  0  0  0  0
   16.3619   71.8987   -4.1658 C   0  0  0  0  0  0  0  0  0  0  0  0
   15.8482   70.8325   -3.2818 C   0  0  0  0  0  0  0  0  0  0  0  0
   15.5668   68.8245   -3.2585 H   0  0  0  0  0  0  0  0  0  0  0  0
   21.9120   71.8121   -4.0958 O   0  0  0  0  0  0  0  0  0  0  0  0
   23.0918   71.9166   -2.9957 P   0  0  2  0  0  0  0  0  0  0  0  0
   23.6461   73.4243   -3.1882 O   0  0  0  0  0  0  0  0  0  0  0  0
   24.1420   70.8506   -3.1166 O   0  0  0  0  0  0  0  0  0  0  0  0
   22.3252   71.9423   -1.5757 O   0  0  0  0  0  0  0  0  0  0  0  0
   24.0132   72.4222    0.0170 O   0  0  0  0  0  0  0  0  0  0  0  0
   20.7636   72.1778    2.5530 O   0  0  0  0  0  0  0  0  0  0  0  0
   21.9285   74.7404    1.9839 O   0  0  0  0  0  0  0  0  0  0  0  0
   20.9885   70.3562    0.3145 O   0  0  0  0  0  0  0  0  0  0  0  0
   21.4453   72.4896    1.3350 C   0  0  1  0  0  0  0  0  0  0  0  0
   22.5486   73.5021    1.6486 C   0  0  1  0  0  0  0  0  0  0  0  0
   22.0407   71.2084    0.7541 C   0  0  2  0  0  0  0  0  0  0  0  0
   23.4909   73.6834    0.4510 C   0  0  1  0  0  0  0  0  0  0  0  0
   23.0006   71.5042   -0.3996 C   0  0  1  0  0  0  0  0  0  0  0  0
   20.3828   72.9870    2.9268 H   0  0  0  0  0  0  0  0  0  0  0  0
   21.3358   74.6121    2.7412 H   0  0  0  0  0  0  0  0  0  0  0  0
   20.3880   70.1763    1.0540 H   0  0  0  0  0  0  0  0  0  0  0  0
   24.8923   74.5243    2.1939 O   0  0  0  0  0  0  0  0  0  0  0  0
   24.6877   74.5678    0.7937 C   0  0  0  0  0  0  0  0  0  0  0  0
   25.6512   75.0825    2.4266 H   0  0  0  0  0  0  0  0  0  0  0  0
 25 28  1  0
 25 24  1  0
 25 26  1  6
 25 27  2  0
  1  4  1  0
  1 24  1  0
  1  2  1  1
  1  3  2  0
  6 11  1  0
  6 12  1  0
 29 36  1  0
 29 37  1  0
  9  7  1  6
  7 13  1  0
 10  8  1  6
  8 14  1  0
 37 28  1  6
  4  5  1  0
 33 30  1  1
 30 38  1  0
 34 31  1  6
 31 39  1  0
 35 32  1  6
 32 40  1  0
 41 42  1  0
 41 43  1  0
 15 19  2  0
 16 22  2  0
 12 17  1  1
 17 19  1  0
 17 20  1  0
 18 19  1  0
 18 22  1  0
 18 23  1  0
  9 10  1  0
  9 11  1  0
 10 12  1  0
 11  5  1  1
 33 34  1  0
 33 35  1  0
 34 36  1  0
 35 37  1  0
 36 42  1  1
 20 21  2  0
 21 22  1  0
M  CHG  2   2  -1  26  -1
M  END
>  <COMPND>  (529) 
    8629 

>  <AUTHOR>  (529) 
    GENERATED BY OPEN BABEL 3.1.1

>  <MASTER>  (529) 
        0    0    0    0    0    0    0    0   58    0   58    0

>  <minimizedAffinity>  (529) 
-8.14117

>  <CNNscore>  (529) 
0.7979993820

>  <CNNaffinity>  (529) 
4.5775895119

>  <CNN_VS>  (529) 
3.6529135704

>  <CNNaffinity_variance>  (529) 
0.1840546280

$$$$
530
     RDKit          3D

 43 45  0  0  0  0  0  0  0  0999 V2000
   20.6799   71.0065   -1.3591 P   0  0  2  0  0  0  0  0  0  0  0  0
   21.8780   70.4779   -2.3090 O   0  0  0  0  0  0  0  0  0  0  0  0
   20.8971   70.7971    0.1108 O   0  0  0  0  0  0  0  0  0  0  0  0
   19.3569   70.3121   -1.9798 O   0  0  0  0  0  0  0  0  0  0  0  0
   19.0873   70.4843   -3.3602 C   0  0  0  0  0  0  0  0  0  0  0  0
   17.4323   71.4448   -4.8135 O   0  0  0  0  0  0  0  0  0  0  0  0
   15.4137   69.8860   -3.2368 O   0  0  0  0  0  0  0  0  0  0  0  0
   15.7167   68.3669   -5.4812 O   0  0  0  0  0  0  0  0  0  0  0  0
   16.7436   69.5254   -3.6064 C   0  0  1  0  0  0  0  0  0  0  0  0
   16.8035   69.1752   -5.0786 C   0  0  2  0  0  0  0  0  0  0  0  0
   17.6050   70.7805   -3.5426 C   0  0  1  0  0  0  0  0  0  0  0  0
   16.7842   70.5477   -5.7299 C   0  0  2  0  0  0  0  0  0  0  0  0
   14.8448   69.1004   -3.2698 H   0  0  0  0  0  0  0  0  0  0  0  0
   15.7737   67.5050   -5.0400 H   0  0  0  0  0  0  0  0  0  0  0  0
   15.5355   70.5883   -8.2632 O   0  0  0  0  0  0  0  0  0  0  0  0
   19.5857   70.6314  -10.4621 O   0  0  0  0  0  0  0  0  0  0  0  0
   17.4882   70.5701   -6.9810 N   0  0  0  0  0  0  0  0  0  0  0  0
   17.5532   70.6099   -9.3560 N   0  0  0  0  0  0  0  0  0  0  0  0
   16.7665   70.5884   -8.1973 C   0  0  0  0  0  0  0  0  0  0  0  0
   18.8788   70.5742   -6.9937 C   0  0  0  0  0  0  0  0  0  0  0  0
   19.6141   70.5935   -8.1073 C   0  0  0  0  0  0  0  0  0  0  0  0
   18.9376   70.6135   -9.4203 C   0  0  0  0  0  0  0  0  0  0  0  0
   17.0721   70.6226  -10.2152 H   0  0  0  0  0  0  0  0  0  0  0  0
   20.5202   72.5529   -1.8019 O   0  0  0  0  0  0  0  0  0  0  0  0
   21.6200   73.7231   -1.9870 P   0  0  2  0  0  0  0  0  0  0  0  0
   23.0213   72.9617   -1.7147 O   0  0  0  0  0  0  0  0  0  0  0  0
   21.3902   74.9264   -1.1191 O   0  0  0  0  0  0  0  0  0  0  0  0
   21.6250   74.0321   -3.5711 O   0  0  0  0  0  0  0  0  0  0  0  0
   19.9040   73.4867   -5.1065 O   0  0  0  0  0  0  0  0  0  0  0  0
   23.1525   73.2471   -7.6443 O   0  0  0  0  0  0  0  0  0  0  0  0
   21.3306   75.4549   -7.8777 O   0  0  0  0  0  0  0  0  0  0  0  0
   23.3779   72.3028   -4.9172 O   0  0  0  0  0  0  0  0  0  0  0  0
   22.3867   73.7660   -6.5536 C   0  0  1  0  0  0  0  0  0  0  0  0
   21.0589   74.2885   -7.1057 C   0  0  1  0  0  0  0  0  0  0  0  0
   22.1451   72.6507   -5.5381 C   0  0  2  0  0  0  0  0  0  0  0  0
   20.0776   74.6149   -5.9718 C   0  0  1  0  0  0  0  0  0  0  0  0
   21.1169   73.0611   -4.4824 C   0  0  1  0  0  0  0  0  0  0  0  0
   23.3099   73.9504   -8.2925 H   0  0  0  0  0  0  0  0  0  0  0  0
   21.9518   75.2353   -8.5898 H   0  0  0  0  0  0  0  0  0  0  0  0
   24.0201   72.0446   -5.5960 H   0  0  0  0  0  0  0  0  0  0  0  0
   18.0792   73.8190   -7.0120 O   0  0  0  0  0  0  0  0  0  0  0  0
   18.6947   74.9874   -6.5019 C   0  0  0  0  0  0  0  0  0  0  0  0
   17.1980   74.0408   -7.3526 H   0  0  0  0  0  0  0  0  0  0  0  0
 25 28  1  0
 25 24  1  0
 25 26  1  1
 25 27  2  0
  1  4  1  0
  1 24  1  0
  1  2  1  6
  1  3  2  0
  6 11  1  0
  6 12  1  0
 29 36  1  0
 29 37  1  0
  9  7  1  6
  7 13  1  0
 10  8  1  6
  8 14  1  0
 37 28  1  6
  4  5  1  0
 33 30  1  6
 30 38  1  0
 34 31  1  1
 31 39  1  0
 35 32  1  1
 32 40  1  0
 41 42  1  0
 41 43  1  0
 15 19  2  0
 16 22  2  0
 12 17  1  6
 17 19  1  0
 17 20  1  0
 18 19  1  0
 18 22  1  0
 18 23  1  0
  9 10  1  0
  9 11  1  0
 10 12  1  0
 11  5  1  6
 33 34  1  0
 33 35  1  0
 34 36  1  0
 35 37  1  0
 36 42  1  6
 20 21  2  0
 21 22  1  0
M  CHG  2   2  -1  26  -1
M  END
>  <COMPND>  (530) 
    8629 

>  <AUTHOR>  (530) 
    GENERATED BY OPEN BABEL 3.1.1

>  <MASTER>  (530) 
        0    0    0    0    0    0    0    0   58    0   58    0

>  <minimizedAffinity>  (530) 
-7.76925

>  <CNNscore>  (530) 
0.7619120479

>  <CNNaffinity>  (530) 
4.5211033821

>  <CNN_VS>  (530) 
3.4446830750

>  <CNNaffinity_variance>  (530) 
0.7384732962

$$$$
531
     RDKit          3D

 43 45  0  0  0  0  0  0  0  0999 V2000
   20.6516   71.2161   -0.7970 P   0  0  2  0  0  0  0  0  0  0  0  0
   21.1212   70.4053    0.5219 O   0  0  0  0  0  0  0  0  0  0  0  0
   20.2979   72.6555   -0.5637 O   0  0  0  0  0  0  0  0  0  0  0  0
   19.4759   70.2958   -1.4206 O   0  0  0  0  0  0  0  0  0  0  0  0
   19.4255   70.1239   -2.8262 C   0  0  0  0  0  0  0  0  0  0  0  0
   17.1892   69.5595   -2.1525 O   0  0  0  0  0  0  0  0  0  0  0  0
   16.7493   68.7055   -4.9929 O   0  0  0  0  0  0  0  0  0  0  0  0
   15.5688   71.1627   -4.9214 O   0  0  0  0  0  0  0  0  0  0  0  0
   17.5272   69.7890   -4.4867 C   0  0  1  0  0  0  0  0  0  0  0  0
   16.6240   70.9100   -4.0162 C   0  0  2  0  0  0  0  0  0  0  0  0
   18.1742   69.3340   -3.1845 C   0  0  1  0  0  0  0  0  0  0  0  0
   16.1335   70.3794   -2.6798 C   0  0  2  0  0  0  0  0  0  0  0  0
   16.3264   68.9722   -5.8247 H   0  0  0  0  0  0  0  0  0  0  0  0
   15.9318   71.4983   -5.7559 H   0  0  0  0  0  0  0  0  0  0  0  0
   13.8968   70.4178   -0.9554 O   0  0  0  0  0  0  0  0  0  0  0  0
   15.1396   74.4652    0.8654 O   0  0  0  0  0  0  0  0  0  0  0  0
   15.8482   71.4308   -1.7446 N   0  0  0  0  0  0  0  0  0  0  0  0
   14.5175   72.4330   -0.0501 N   0  0  0  0  0  0  0  0  0  0  0  0
   14.6980   71.3542   -0.9251 C   0  0  0  0  0  0  0  0  0  0  0  0
   16.7043   72.5223   -1.6466 C   0  0  0  0  0  0  0  0  0  0  0  0
   16.5174   73.5435   -0.8079 C   0  0  0  0  0  0  0  0  0  0  0  0
   15.3393   73.5409    0.0833 C   0  0  0  0  0  0  0  0  0  0  0  0
   13.7226   72.4014    0.5304 H   0  0  0  0  0  0  0  0  0  0  0  0
   21.8786   70.9827   -1.8232 O   0  0  0  0  0  0  0  0  0  0  0  0
   23.1089   71.9434   -2.2428 P   0  0  2  0  0  0  0  0  0  0  0  0
   24.1133   70.9417   -3.0208 O   0  0  0  0  0  0  0  0  0  0  0  0
   23.7352   72.6788   -1.0934 O   0  0  0  0  0  0  0  0  0  0  0  0
   22.5075   72.8963   -3.3984 O   0  0  0  0  0  0  0  0  0  0  0  0
   23.0067   72.4086   -5.6632 O   0  0  0  0  0  0  0  0  0  0  0  0
   21.9230   76.3727   -6.0653 O   0  0  0  0  0  0  0  0  0  0  0  0
   20.1606   74.3169   -7.0221 O   0  0  0  0  0  0  0  0  0  0  0  0
   23.4420   75.5184   -3.7540 O   0  0  0  0  0  0  0  0  0  0  0  0
   21.8627   75.0551   -5.5125 C   0  0  1  0  0  0  0  0  0  0  0  0
   21.5117   74.0789   -6.6370 C   0  0  1  0  0  0  0  0  0  0  0  0
   23.2191   74.7072   -4.9023 C   0  0  2  0  0  0  0  0  0  0  0  0
   21.6894   72.6238   -6.1830 C   0  0  1  0  0  0  0  0  0  0  0  0
   23.3080   73.2260   -4.5305 C   0  0  1  0  0  0  0  0  0  0  0  0
   21.0647   76.6001   -6.4539 H   0  0  0  0  0  0  0  0  0  0  0  0
   20.0618   75.2393   -7.3061 H   0  0  0  0  0  0  0  0  0  0  0  0
   23.3834   76.4536   -4.0026 H   0  0  0  0  0  0  0  0  0  0  0  0
   21.7537   72.3133   -8.5512 O   0  0  0  0  0  0  0  0  0  0  0  0
   21.4973   71.6381   -7.3335 C   0  0  0  0  0  0  0  0  0  0  0  0
   21.6356   71.6981   -9.2924 H   0  0  0  0  0  0  0  0  0  0  0  0
 25 28  1  0
 25 24  1  0
 25 26  1  6
 25 27  2  0
  1  4  1  0
  1 24  1  0
  1  2  1  1
  1  3  2  0
  6 11  1  0
  6 12  1  0
 29 36  1  0
 29 37  1  0
  9  7  1  1
  7 13  1  0
 10  8  1  6
  8 14  1  0
 37 28  1  1
  4  5  1  0
 33 30  1  6
 30 38  1  0
 34 31  1  1
 31 39  1  0
 35 32  1  1
 32 40  1  0
 41 42  1  0
 41 43  1  0
 15 19  2  0
 16 22  2  0
 12 17  1  1
 17 19  1  0
 17 20  1  0
 18 19  1  0
 18 22  1  0
 18 23  1  0
  9 10  1  0
  9 11  1  0
 10 12  1  0
 11  5  1  1
 33 34  1  0
 33 35  1  0
 34 36  1  0
 35 37  1  0
 36 42  1  6
 20 21  2  0
 21 22  1  0
M  CHG  2   2  -1  26  -1
M  END
>  <COMPND>  (531) 
    8629 

>  <AUTHOR>  (531) 
    GENERATED BY OPEN BABEL 3.1.1

>  <MASTER>  (531) 
        0    0    0    0    0    0    0    0   58    0   58    0

>  <minimizedAffinity>  (531) 
-6.77551

>  <CNNscore>  (531) 
0.7216149569

>  <CNNaffinity>  (531) 
4.0726194382

>  <CNN_VS>  (531) 
2.9388630390

>  <CNNaffinity_variance>  (531) 
0.3276206851

$$$$
532
     RDKit          3D

 43 45  0  0  0  0  0  0  0  0999 V2000
   21.4843   72.1413   -5.3499 P   0  0  2  0  0  0  0  0  0  0  0  0
   22.5904   72.1488   -6.5305 O   0  0  0  0  0  0  0  0  0  0  0  0
   21.8269   71.2855   -4.1660 O   0  0  0  0  0  0  0  0  0  0  0  0
   20.1062   71.7683   -6.1111 O   0  0  0  0  0  0  0  0  0  0  0  0
   20.0326   71.9669   -7.5122 C   0  0  0  0  0  0  0  0  0  0  0  0
   18.7699   69.9644   -7.1008 O   0  0  0  0  0  0  0  0  0  0  0  0
   18.0651   70.0339  -10.0144 O   0  0  0  0  0  0  0  0  0  0  0  0
   15.8215   71.0409   -8.8359 O   0  0  0  0  0  0  0  0  0  0  0  0
   18.2371   71.1168   -9.1017 C   0  0  1  0  0  0  0  0  0  0  0  0
   17.0526   71.2058   -8.1622 C   0  0  2  0  0  0  0  0  0  0  0  0
   19.3707   70.7535   -8.1508 C   0  0  1  0  0  0  0  0  0  0  0  0
   17.3399   70.0783   -7.1853 C   0  0  2  0  0  0  0  0  0  0  0  0
   17.3463   70.2429  -10.6322 H   0  0  0  0  0  0  0  0  0  0  0  0
   15.6844   71.7829   -9.4454 H   0  0  0  0  0  0  0  0  0  0  0  0
   16.4922   68.0826   -5.3751 O   0  0  0  0  0  0  0  0  0  0  0  0
   15.3415   71.2054   -2.1868 O   0  0  0  0  0  0  0  0  0  0  0  0
   16.8149   70.3416   -5.8752 N   0  0  0  0  0  0  0  0  0  0  0  0
   15.9201   69.6392   -3.7889 N   0  0  0  0  0  0  0  0  0  0  0  0
   16.4168   69.2680   -5.0449 C   0  0  0  0  0  0  0  0  0  0  0  0
   16.6994   71.6525   -5.4255 C   0  0  0  0  0  0  0  0  0  0  0  0
   16.2225   71.9897   -4.2255 C   0  0  0  0  0  0  0  0  0  0  0  0
   15.7845   70.9277   -3.2969 C   0  0  0  0  0  0  0  0  0  0  0  0
   15.6362   68.9079   -3.1936 H   0  0  0  0  0  0  0  0  0  0  0  0
   21.3004   73.7117   -5.0141 O   0  0  0  0  0  0  0  0  0  0  0  0
   22.3263   74.7894   -4.3824 P   0  0  2  0  0  0  0  0  0  0  0  0
   23.1632   73.9184   -3.3060 O   0  0  0  0  0  0  0  0  0  0  0  0
   21.6629   76.0088   -3.8106 O   0  0  0  0  0  0  0  0  0  0  0  0
   23.3792   75.0942   -5.5670 O   0  0  0  0  0  0  0  0  0  0  0  0
   24.2683   77.1361   -6.3775 O   0  0  0  0  0  0  0  0  0  0  0  0
   23.8570   75.1270   -9.9614 O   0  0  0  0  0  0  0  0  0  0  0  0
   26.4772   75.5438   -8.8622 O   0  0  0  0  0  0  0  0  0  0  0  0
   21.8444   74.8325   -7.9017 O   0  0  0  0  0  0  0  0  0  0  0  0
   24.1221   75.2538   -8.5618 C   0  0  1  0  0  0  0  0  0  0  0  0
   25.3086   76.2030   -8.3826 C   0  0  1  0  0  0  0  0  0  0  0  0
   22.8801   75.8084   -7.8667 C   0  0  2  0  0  0  0  0  0  0  0  0
   25.4843   76.5983   -6.9102 C   0  0  1  0  0  0  0  0  0  0  0  0
   23.1759   76.2161   -6.4222 C   0  0  1  0  0  0  0  0  0  0  0  0
   24.6415   74.7748  -10.4086 H   0  0  0  0  0  0  0  0  0  0  0  0
   26.3530   75.2991   -9.7927 H   0  0  0  0  0  0  0  0  0  0  0  0
   21.6663   74.5830   -8.8215 H   0  0  0  0  0  0  0  0  0  0  0  0
   27.5432   77.1673   -5.8396 O   0  0  0  0  0  0  0  0  0  0  0  0
   26.5612   77.6659   -6.7292 C   0  0  0  0  0  0  0  0  0  0  0  0
   28.2353   77.8361   -5.7152 H   0  0  0  0  0  0  0  0  0  0  0  0
 25 28  1  0
 25 24  1  0
 25 26  1  1
 25 27  2  0
  1  4  1  0
  1 24  1  0
  1  2  1  6
  1  3  2  0
  6 11  1  0
  6 12  1  0
 29 36  1  0
 29 37  1  0
  9  7  1  6
  7 13  1  0
 10  8  1  6
  8 14  1  0
 37 28  1  1
  4  5  1  0
 33 30  1  6
 30 38  1  0
 34 31  1  1
 31 39  1  0
 35 32  1  1
 32 40  1  0
 41 42  1  0
 41 43  1  0
 15 19  2  0
 16 22  2  0
 12 17  1  1
 17 19  1  0
 17 20  1  0
 18 19  1  0
 18 22  1  0
 18 23  1  0
  9 10  1  0
  9 11  1  0
 10 12  1  0
 11  5  1  1
 33 34  1  0
 33 35  1  0
 34 36  1  0
 35 37  1  0
 36 42  1  6
 20 21  2  0
 21 22  1  0
M  CHG  2   2  -1  26  -1
M  END
>  <COMPND>  (532) 
    8629 

>  <AUTHOR>  (532) 
    GENERATED BY OPEN BABEL 3.1.1

>  <MASTER>  (532) 
        0    0    0    0    0    0    0    0   58    0   58    0

>  <minimizedAffinity>  (532) 
-6.39401

>  <CNNscore>  (532) 
0.7074903250

>  <CNNaffinity>  (532) 
4.4584922791

>  <CNN_VS>  (532) 
3.1543402672

>  <CNNaffinity_variance>  (532) 
0.1719327420

$$$$
533
     RDKit          3D

 43 45  0  0  0  0  0  0  0  0999 V2000
   23.4665   73.5769   -4.1534 P   0  0  2  0  0  0  0  0  0  0  0  0
   22.6235   74.9362   -4.3966 O   0  0  0  0  0  0  0  0  0  0  0  0
   24.9547   73.7572   -4.0877 O   0  0  0  0  0  0  0  0  0  0  0  0
   22.9302   72.5758   -5.3059 O   0  0  0  0  0  0  0  0  0  0  0  0
   21.5353   72.3496   -5.4094 C   0  0  0  0  0  0  0  0  0  0  0  0
   20.5003   70.3679   -6.2901 O   0  0  0  0  0  0  0  0  0  0  0  0
   20.6432   71.7093   -8.9679 O   0  0  0  0  0  0  0  0  0  0  0  0
   18.0407   72.0926   -8.2493 O   0  0  0  0  0  0  0  0  0  0  0  0
   20.3979   72.2814   -7.6843 C   0  0  1  0  0  0  0  0  0  0  0  0
   18.9962   71.9466   -7.2186 C   0  0  2  0  0  0  0  0  0  0  0  0
   21.2565   71.5391   -6.6678 C   0  0  1  0  0  0  0  0  0  0  0  0
   19.1509   70.5050   -6.7647 C   0  0  2  0  0  0  0  0  0  0  0  0
   20.1060   72.1674   -9.6339 H   0  0  0  0  0  0  0  0  0  0  0  0
   17.9789   73.0267   -8.5032 H   0  0  0  0  0  0  0  0  0  0  0  0
   16.4462   69.7839   -7.1420 O   0  0  0  0  0  0  0  0  0  0  0  0
   15.7742   69.2226   -2.6171 O   0  0  0  0  0  0  0  0  0  0  0  0
   18.2463   70.1651   -5.7028 N   0  0  0  0  0  0  0  0  0  0  0  0
   16.1138   69.5048   -4.8887 N   0  0  0  0  0  0  0  0  0  0  0  0
   16.9076   69.8184   -5.9994 C   0  0  0  0  0  0  0  0  0  0  0  0
   18.6892   70.1774   -4.3846 C   0  0  0  0  0  0  0  0  0  0  0  0
   17.9193   69.8771   -3.3366 C   0  0  0  0  0  0  0  0  0  0  0  0
   16.5076   69.5040   -3.5599 C   0  0  0  0  0  0  0  0  0  0  0  0
   15.1774   69.2606   -5.0710 H   0  0  0  0  0  0  0  0  0  0  0  0
   22.8021   72.9727   -2.8094 O   0  0  0  0  0  0  0  0  0  0  0  0
   22.9163   71.5083   -2.1345 P   0  0  2  0  0  0  0  0  0  0  0  0
   24.2318   70.8785   -2.8348 O   0  0  0  0  0  0  0  0  0  0  0  0
   21.6792   70.6689   -2.2728 O   0  0  0  0  0  0  0  0  0  0  0  0
   23.3634   71.7946   -0.6103 O   0  0  0  0  0  0  0  0  0  0  0  0
   24.5397   70.6416    1.0936 O   0  0  0  0  0  0  0  0  0  0  0  0
   21.2733   71.9013    3.2833 O   0  0  0  0  0  0  0  0  0  0  0  0
   23.8277   73.1443    3.7048 O   0  0  0  0  0  0  0  0  0  0  0  0
   20.9258   71.0237    0.5468 O   0  0  0  0  0  0  0  0  0  0  0  0
   22.2852   72.0021    2.2776 C   0  0  1  0  0  0  0  0  0  0  0  0
   23.6512   71.9401    2.9639 C   0  0  1  0  0  0  0  0  0  0  0  0
   22.1259   70.8464    1.2916 C   0  0  2  0  0  0  0  0  0  0  0  0
   24.7798   71.7739    1.9374 C   0  0  1  0  0  0  0  0  0  0  0  0
   23.3249   70.7400    0.3476 C   0  0  1  0  0  0  0  0  0  0  0  0
   21.3685   72.6325    3.9124 H   0  0  0  0  0  0  0  0  0  0  0  0
   23.1084   73.2375    4.3490 H   0  0  0  0  0  0  0  0  0  0  0  0
   20.1742   71.0893    1.1556 H   0  0  0  0  0  0  0  0  0  0  0  0
   26.6580   72.8102    2.9897 O   0  0  0  0  0  0  0  0  0  0  0  0
   26.1341   71.5518    2.6073 C   0  0  0  0  0  0  0  0  0  0  0  0
   27.5198   72.6844    3.4177 H   0  0  0  0  0  0  0  0  0  0  0  0
 25 28  1  0
 25 24  1  0
 25 26  1  6
 25 27  2  0
  1  4  1  0
  1 24  1  0
  1  2  1  6
  1  3  2  0
  6 11  1  0
  6 12  1  0
 29 36  1  0
 29 37  1  0
  9  7  1  6
  7 13  1  0
 10  8  1  6
  8 14  1  0
 37 28  1  6
  4  5  1  0
 33 30  1  1
 30 38  1  0
 34 31  1  6
 31 39  1  0
 35 32  1  6
 32 40  1  0
 41 42  1  0
 41 43  1  0
 15 19  2  0
 16 22  2  0
 12 17  1  1
 17 19  1  0
 17 20  1  0
 18 19  1  0
 18 22  1  0
 18 23  1  0
  9 10  1  0
  9 11  1  0
 10 12  1  0
 11  5  1  1
 33 34  1  0
 33 35  1  0
 34 36  1  0
 35 37  1  0
 36 42  1  1
 20 21  2  0
 21 22  1  0
M  CHG  2   2  -1  26  -1
M  END
>  <COMPND>  (533) 
    8629 

>  <AUTHOR>  (533) 
    GENERATED BY OPEN BABEL 3.1.1

>  <MASTER>  (533) 
        0    0    0    0    0    0    0    0   58    0   58    0

>  <minimizedAffinity>  (533) 
-8.19489

>  <CNNscore>  (533) 
0.6639950871

>  <CNNaffinity>  (533) 
4.3688359261

>  <CNN_VS>  (533) 
2.9008855820

>  <CNNaffinity_variance>  (533) 
0.2199683636

$$$$
534
     RDKit          3D

 43 45  0  0  0  0  0  0  0  0999 V2000
   22.9850   72.5710   -4.3875 P   0  0  2  0  0  0  0  0  0  0  0  0
   23.1113   72.5709   -6.0004 O   0  0  0  0  0  0  0  0  0  0  0  0
   23.8422   71.5598   -3.6846 O   0  0  0  0  0  0  0  0  0  0  0  0
   21.3935   72.4486   -4.1225 O   0  0  0  0  0  0  0  0  0  0  0  0
   20.8891   71.2397   -3.5823 C   0  0  0  0  0  0  0  0  0  0  0  0
   18.7722   71.8698   -4.5287 O   0  0  0  0  0  0  0  0  0  0  0  0
   17.5205   70.3993   -2.2349 O   0  0  0  0  0  0  0  0  0  0  0  0
   17.2898   68.6133   -4.2828 O   0  0  0  0  0  0  0  0  0  0  0  0
   18.7050   70.0888   -2.9670 C   0  0  1  0  0  0  0  0  0  0  0  0
   18.3503   69.5458   -4.3355 C   0  0  2  0  0  0  0  0  0  0  0  0
   19.3987   71.3999   -3.3150 C   0  0  1  0  0  0  0  0  0  0  0  0
   17.9792   70.8111   -5.0900 C   0  0  2  0  0  0  0  0  0  0  0  0
   17.0604   69.5773   -2.0011 H   0  0  0  0  0  0  0  0  0  0  0  0
   17.5751   67.8263   -3.7929 H   0  0  0  0  0  0  0  0  0  0  0  0
   16.1711   69.8025   -7.0113 O   0  0  0  0  0  0  0  0  0  0  0  0
   19.1626   70.4812  -10.4510 O   0  0  0  0  0  0  0  0  0  0  0  0
   18.2594   70.7132   -6.4948 N   0  0  0  0  0  0  0  0  0  0  0  0
   17.6621   70.1414   -8.7225 N   0  0  0  0  0  0  0  0  0  0  0  0
   17.2831   70.1909   -7.3749 C   0  0  0  0  0  0  0  0  0  0  0  0
   19.4906   71.1326   -6.9867 C   0  0  0  0  0  0  0  0  0  0  0  0
   19.8369   71.0775   -8.2745 C   0  0  0  0  0  0  0  0  0  0  0  0
   18.8741   70.5449   -9.2600 C   0  0  0  0  0  0  0  0  0  0  0  0
   16.9981   69.7809   -9.3541 H   0  0  0  0  0  0  0  0  0  0  0  0
   23.3010   74.1077   -3.9983 O   0  0  0  0  0  0  0  0  0  0  0  0
   22.9139   75.4915   -4.7387 P   0  0  2  0  0  0  0  0  0  0  0  0
   23.3780   76.6220   -3.6785 O   0  0  0  0  0  0  0  0  0  0  0  0
   21.4742   75.5855   -5.1537 O   0  0  0  0  0  0  0  0  0  0  0  0
   23.9695   75.6140   -5.9535 O   0  0  0  0  0  0  0  0  0  0  0  0
   24.7888   77.3551   -7.3369 O   0  0  0  0  0  0  0  0  0  0  0  0
   24.0300   74.5123  -10.2340 O   0  0  0  0  0  0  0  0  0  0  0  0
   26.7446   75.1184   -9.5188 O   0  0  0  0  0  0  0  0  0  0  0  0
   22.2196   74.8112   -7.9951 O   0  0  0  0  0  0  0  0  0  0  0  0
   24.4269   74.9836   -8.9434 C   0  0  1  0  0  0  0  0  0  0  0  0
   25.6300   75.9120   -9.1210 C   0  0  1  0  0  0  0  0  0  0  0  0
   23.2591   75.7332   -8.3048 C   0  0  2  0  0  0  0  0  0  0  0  0
   25.9461   76.6640   -7.8211 C   0  0  1  0  0  0  0  0  0  0  0  0
   23.6922   76.4864   -7.0458 C   0  0  1  0  0  0  0  0  0  0  0  0
   24.7669   74.0350  -10.6447 H   0  0  0  0  0  0  0  0  0  0  0  0
   26.5317   74.6485  -10.3404 H   0  0  0  0  0  0  0  0  0  0  0  0
   21.9541   74.3410   -8.8003 H   0  0  0  0  0  0  0  0  0  0  0  0
   26.5055   78.9842   -7.7093 O   0  0  0  0  0  0  0  0  0  0  0  0
   27.0409   77.7104   -8.0175 C   0  0  0  0  0  0  0  0  0  0  0  0
   27.1912   79.6602   -7.8296 H   0  0  0  0  0  0  0  0  0  0  0  0
 25 28  1  0
 25 24  1  0
 25 26  1  1
 25 27  2  0
  1  4  1  0
  1 24  1  0
  1  2  1  6
  1  3  2  0
  6 11  1  0
  6 12  1  0
 29 36  1  0
 29 37  1  0
  9  7  1  1
  7 13  1  0
 10  8  1  1
  8 14  1  0
 37 28  1  1
  4  5  1  0
 33 30  1  6
 30 38  1  0
 34 31  1  1
 31 39  1  0
 35 32  1  1
 32 40  1  0
 41 42  1  0
 41 43  1  0
 15 19  2  0
 16 22  2  0
 12 17  1  6
 17 19  1  0
 17 20  1  0
 18 19  1  0
 18 22  1  0
 18 23  1  0
  9 10  1  0
  9 11  1  0
 10 12  1  0
 11  5  1  6
 33 34  1  0
 33 35  1  0
 34 36  1  0
 35 37  1  0
 36 42  1  6
 20 21  2  0
 21 22  1  0
M  CHG  2   2  -1  26  -1
M  END
>  <COMPND>  (534) 
    8629 

>  <AUTHOR>  (534) 
    GENERATED BY OPEN BABEL 3.1.1

>  <MASTER>  (534) 
        0    0    0    0    0    0    0    0   58    0   58    0

>  <minimizedAffinity>  (534) 
-6.67430

>  <CNNscore>  (534) 
0.6499427557

>  <CNNaffinity>  (534) 
4.4459695816

>  <CNN_VS>  (534) 
2.8896257877

>  <CNNaffinity_variance>  (534) 
0.1780188382

$$$$
535
     RDKit          3D

 43 45  0  0  0  0  0  0  0  0999 V2000
   17.8225   73.0436   -1.5507 P   0  0  2  0  0  0  0  0  0  0  0  0
   18.2389   74.5425   -1.9950 O   0  0  0  0  0  0  0  0  0  0  0  0
   16.5352   72.9437   -0.7863 O   0  0  0  0  0  0  0  0  0  0  0  0
   19.1366   72.4848   -0.7900 O   0  0  0  0  0  0  0  0  0  0  0  0
   19.9653   73.4081   -0.1053 C   0  0  0  0  0  0  0  0  0  0  0  0
   22.2675   73.7488    0.4925 O   0  0  0  0  0  0  0  0  0  0  0  0
   22.9067   71.5905   -1.4883 O   0  0  0  0  0  0  0  0  0  0  0  0
   23.0485   70.2715    0.8943 O   0  0  0  0  0  0  0  0  0  0  0  0
   21.7883   71.7067   -0.6102 C   0  0  1  0  0  0  0  0  0  0  0  0
   22.2039   71.4016    0.8138 C   0  0  2  0  0  0  0  0  0  0  0  0
   21.4116   73.1805   -0.5228 C   0  0  1  0  0  0  0  0  0  0  0  0
   22.9062   72.6863    1.2192 C   0  0  2  0  0  0  0  0  0  0  0  0
   23.1654   70.6578   -1.5604 H   0  0  0  0  0  0  0  0  0  0  0  0
   22.5560   69.4799    0.6266 H   0  0  0  0  0  0  0  0  0  0  0  0
   20.6331   72.0792    2.7821 O   0  0  0  0  0  0  0  0  0  0  0  0
   22.5904   73.7476    6.6065 O   0  0  0  0  0  0  0  0  0  0  0  0
   22.7948   72.9509    2.6260 N   0  0  0  0  0  0  0  0  0  0  0  0
   21.6096   72.9103    4.6851 N   0  0  0  0  0  0  0  0  0  0  0  0
   21.6095   72.6081    3.3174 C   0  0  0  0  0  0  0  0  0  0  0  0
   23.8535   73.5436    3.3056 C   0  0  0  0  0  0  0  0  0  0  0  0
   23.8372   73.8263    4.6098 C   0  0  0  0  0  0  0  0  0  0  0  0
   22.6362   73.5000    5.4055 C   0  0  0  0  0  0  0  0  0  0  0  0
   20.7942   72.6807    5.1873 H   0  0  0  0  0  0  0  0  0  0  0  0
   17.8395   72.2322   -2.9487 O   0  0  0  0  0  0  0  0  0  0  0  0
   17.4641   70.6974   -3.2899 P   0  0  2  0  0  0  0  0  0  0  0  0
   15.8468   70.7112   -3.3305 O   0  0  0  0  0  0  0  0  0  0  0  0
   18.0512   69.6945   -2.3395 O   0  0  0  0  0  0  0  0  0  0  0  0
   17.9088   70.5006   -4.8289 O   0  0  0  0  0  0  0  0  0  0  0  0
   19.2263   71.9893   -6.1191 O   0  0  0  0  0  0  0  0  0  0  0  0
   16.8836   70.4047   -9.1277 O   0  0  0  0  0  0  0  0  0  0  0  0
   19.6500   69.6561   -8.9415 O   0  0  0  0  0  0  0  0  0  0  0  0
   15.7249   70.9525   -6.5322 O   0  0  0  0  0  0  0  0  0  0  0  0
   17.6218   70.3833   -7.9030 C   0  0  1  0  0  0  0  0  0  0  0  0
   19.0770   70.7390   -8.2139 C   0  0  1  0  0  0  0  0  0  0  0  0
   17.0148   71.3987   -6.9365 C   0  0  2  0  0  0  0  0  0  0  0  0
   19.8713   70.9974   -6.9264 C   0  0  1  0  0  0  0  0  0  0  0  0
   17.9074   71.6180   -5.7137 C   0  0  1  0  0  0  0  0  0  0  0  0
   17.2636   69.7619   -9.7457 H   0  0  0  0  0  0  0  0  0  0  0  0
   19.1389   69.5031   -9.7517 H   0  0  0  0  0  0  0  0  0  0  0  0
   15.1694   70.8177   -7.3152 H   0  0  0  0  0  0  0  0  0  0  0  0
   21.2896   72.0978   -8.5032 O   0  0  0  0  0  0  0  0  0  0  0  0
   21.2814   71.5066   -7.2169 C   0  0  0  0  0  0  0  0  0  0  0  0
   22.1808   72.4268   -8.7015 H   0  0  0  0  0  0  0  0  0  0  0  0
 25 28  1  0
 25 24  1  0
 25 26  1  6
 25 27  2  0
  1  4  1  0
  1 24  1  0
  1  2  1  6
  1  3  2  0
  6 11  1  0
  6 12  1  0
 29 36  1  0
 29 37  1  0
  9  7  1  6
  7 13  1  0
 10  8  1  6
  8 14  1  0
 37 28  1  6
  4  5  1  0
 33 30  1  6
 30 38  1  0
 34 31  1  1
 31 39  1  0
 35 32  1  1
 32 40  1  0
 41 42  1  0
 41 43  1  0
 15 19  2  0
 16 22  2  0
 12 17  1  1
 17 19  1  0
 17 20  1  0
 18 19  1  0
 18 22  1  0
 18 23  1  0
  9 10  1  0
  9 11  1  0
 10 12  1  0
 11  5  1  1
 33 34  1  0
 33 35  1  0
 34 36  1  0
 35 37  1  0
 36 42  1  6
 20 21  2  0
 21 22  1  0
M  CHG  2   2  -1  26  -1
M  END
>  <COMPND>  (535) 
    8629 

>  <AUTHOR>  (535) 
    GENERATED BY OPEN BABEL 3.1.1

>  <MASTER>  (535) 
        0    0    0    0    0    0    0    0   58    0   58    0

>  <minimizedAffinity>  (535) 
-6.92044

>  <CNNscore>  (535) 
0.5576771498

>  <CNNaffinity>  (535) 
4.1504573822

>  <CNN_VS>  (535) 
2.3146152496

>  <CNNaffinity_variance>  (535) 
0.2238810360

$$$$
536
     RDKit          3D

 43 45  0  0  0  0  0  0  0  0999 V2000
   21.9040   72.3791   -5.7655 P   0  0  2  0  0  0  0  0  0  0  0  0
   21.2268   73.7409   -5.2137 O   0  0  0  0  0  0  0  0  0  0  0  0
   23.0667   72.5799   -6.6924 O   0  0  0  0  0  0  0  0  0  0  0  0
   20.6581   71.5439   -6.3721 O   0  0  0  0  0  0  0  0  0  0  0  0
   20.1550   71.9092   -7.6454 C   0  0  0  0  0  0  0  0  0  0  0  0
   18.8954   69.9102   -7.2081 O   0  0  0  0  0  0  0  0  0  0  0  0
   18.0994   70.0039  -10.0975 O   0  0  0  0  0  0  0  0  0  0  0  0
   15.8994   71.0139   -8.8418 O   0  0  0  0  0  0  0  0  0  0  0  0
   18.3058   71.0794   -9.1832 C   0  0  1  0  0  0  0  0  0  0  0  0
   17.1520   71.1677   -8.2061 C   0  0  2  0  0  0  0  0  0  0  0  0
   19.4670   70.7037   -8.2712 C   0  0  1  0  0  0  0  0  0  0  0  0
   17.4641   70.0319   -7.2466 C   0  0  2  0  0  0  0  0  0  0  0  0
   17.3626   70.2209  -10.6908 H   0  0  0  0  0  0  0  0  0  0  0  0
   15.7471   71.7608   -9.4415 H   0  0  0  0  0  0  0  0  0  0  0  0
   16.3269   68.0759   -5.5558 O   0  0  0  0  0  0  0  0  0  0  0  0
   15.6479   71.1315   -2.1730 O   0  0  0  0  0  0  0  0  0  0  0  0
   16.9821   70.2886   -5.9188 N   0  0  0  0  0  0  0  0  0  0  0  0
   15.9899   69.5989   -3.8728 N   0  0  0  0  0  0  0  0  0  0  0  0
   16.4278   69.2366   -5.1530 C   0  0  0  0  0  0  0  0  0  0  0  0
   17.0618   71.5718   -5.3886 C   0  0  0  0  0  0  0  0  0  0  0  0
   16.6385   71.9011   -4.1665 C   0  0  0  0  0  0  0  0  0  0  0  0
   16.0464   70.8603   -3.3015 C   0  0  0  0  0  0  0  0  0  0  0  0
   15.5998   68.8824   -3.3212 H   0  0  0  0  0  0  0  0  0  0  0  0
   22.2561   71.5729   -4.4094 O   0  0  0  0  0  0  0  0  0  0  0  0
   23.3602   71.8550   -3.2630 P   0  0  2  0  0  0  0  0  0  0  0  0
   24.1107   73.1877   -3.7906 O   0  0  0  0  0  0  0  0  0  0  0  0
   24.2748   70.6959   -2.9909 O   0  0  0  0  0  0  0  0  0  0  0  0
   22.5058   72.3472   -1.9852 O   0  0  0  0  0  0  0  0  0  0  0  0
   21.8082   71.1781   -0.0454 O   0  0  0  0  0  0  0  0  0  0  0  0
   18.4671   73.5321   -0.6344 O   0  0  0  0  0  0  0  0  0  0  0  0
   20.2491   74.1183    1.5401 O   0  0  0  0  0  0  0  0  0  0  0  0
   19.8564   72.4019   -2.9087 O   0  0  0  0  0  0  0  0  0  0  0  0
   19.8642   73.2267   -0.6457 C   0  0  1  0  0  0  0  0  0  0  0  0
   20.2974   72.9096    0.7870 C   0  0  1  0  0  0  0  0  0  0  0  0
   20.1054   72.0258   -1.5585 C   0  0  2  0  0  0  0  0  0  0  0  0
   21.7121   72.3159    0.8195 C   0  0  1  0  0  0  0  0  0  0  0  0
   21.5280   71.4825   -1.4131 C   0  0  1  0  0  0  0  0  0  0  0  0
   18.3072   74.2940   -0.0570 H   0  0  0  0  0  0  0  0  0  0  0  0
   19.3506   74.4831    1.5111 H   0  0  0  0  0  0  0  0  0  0  0  0
   18.9527   72.7439   -2.9876 H   0  0  0  0  0  0  0  0  0  0  0  0
   20.9752   71.9682    3.0656 O   0  0  0  0  0  0  0  0  0  0  0  0
   22.1034   71.8466    2.2191 C   0  0  0  0  0  0  0  0  0  0  0  0
   21.2094   71.6727    3.9598 H   0  0  0  0  0  0  0  0  0  0  0  0
 25 28  1  0
 25 24  1  0
 25 26  1  6
 25 27  2  0
  1  4  1  0
  1 24  1  0
  1  2  1  1
  1  3  2  0
  6 11  1  0
  6 12  1  0
 29 36  1  0
 29 37  1  0
  9  7  1  6
  7 13  1  0
 10  8  1  6
  8 14  1  0
 37 28  1  1
  4  5  1  0
 33 30  1  1
 30 38  1  0
 34 31  1  1
 31 39  1  0
 35 32  1  6
 32 40  1  0
 41 42  1  0
 41 43  1  0
 15 19  2  0
 16 22  2  0
 12 17  1  1
 17 19  1  0
 17 20  1  0
 18 19  1  0
 18 22  1  0
 18 23  1  0
  9 10  1  0
  9 11  1  0
 10 12  1  0
 11  5  1  1
 33 34  1  0
 33 35  1  0
 34 36  1  0
 35 37  1  0
 36 42  1  1
 20 21  2  0
 21 22  1  0
M  CHG  2   2  -1  26  -1
M  END
>  <COMPND>  (536) 
    8629 

>  <AUTHOR>  (536) 
    GENERATED BY OPEN BABEL 3.1.1

>  <MASTER>  (536) 
        0    0    0    0    0    0    0    0   58    0   58    0

>  <minimizedAffinity>  (536) 
-7.86748

>  <CNNscore>  (536) 
0.5397505760

>  <CNNaffinity>  (536) 
4.2360553741

>  <CNN_VS>  (536) 
2.2864134312

>  <CNNaffinity_variance>  (536) 
0.4998148978

$$$$
537
     RDKit          3D

 43 45  0  0  0  0  0  0  0  0999 V2000
   21.7413   72.3505   -5.7256 P   0  0  2  0  0  0  0  0  0  0  0  0
   20.8603   73.7034   -5.6225 O   0  0  0  0  0  0  0  0  0  0  0  0
   23.0982   72.5232   -6.3424 O   0  0  0  0  0  0  0  0  0  0  0  0
   20.7588   71.3030   -6.4709 O   0  0  0  0  0  0  0  0  0  0  0  0
   19.9785   71.7652   -7.5595 C   0  0  0  0  0  0  0  0  0  0  0  0
   18.5916   69.8549   -7.1111 O   0  0  0  0  0  0  0  0  0  0  0  0
   17.8858   69.9179  -10.0246 O   0  0  0  0  0  0  0  0  0  0  0  0
   15.7138   71.0867   -8.8616 O   0  0  0  0  0  0  0  0  0  0  0  0
   18.1287   71.0035   -9.1315 C   0  0  1  0  0  0  0  0  0  0  0  0
   16.9545   71.1845   -8.1923 C   0  0  2  0  0  0  0  0  0  0  0  0
   19.2391   70.5855   -8.1757 C   0  0  1  0  0  0  0  0  0  0  0  0
   17.1716   70.0583   -7.1959 C   0  0  2  0  0  0  0  0  0  0  0  0
   17.1805   70.1614  -10.6452 H   0  0  0  0  0  0  0  0  0  0  0  0
   15.6230   71.8250   -9.4840 H   0  0  0  0  0  0  0  0  0  0  0  0
   16.6102   68.1494   -5.1913 O   0  0  0  0  0  0  0  0  0  0  0  0
   15.2396   71.3986   -2.2239 O   0  0  0  0  0  0  0  0  0  0  0  0
   16.6675   70.3777   -5.8900 N   0  0  0  0  0  0  0  0  0  0  0  0
   15.9284   69.7688   -3.7153 N   0  0  0  0  0  0  0  0  0  0  0  0
   16.4180   69.3443   -4.9571 C   0  0  0  0  0  0  0  0  0  0  0  0
   16.4260   71.7032   -5.5455 C   0  0  0  0  0  0  0  0  0  0  0  0
   15.9578   72.0913   -4.3575 C   0  0  0  0  0  0  0  0  0  0  0  0
   15.6709   71.0737   -3.3259 C   0  0  0  0  0  0  0  0  0  0  0  0
   15.7468   69.0662   -3.0496 H   0  0  0  0  0  0  0  0  0  0  0  0
   21.7588   71.8111   -4.2018 O   0  0  0  0  0  0  0  0  0  0  0  0
   20.6262   71.0562   -3.3299 P   0  0  2  0  0  0  0  0  0  0  0  0
   20.8143   69.5031   -3.7424 O   0  0  0  0  0  0  0  0  0  0  0  0
   19.2368   71.5872   -3.5341 O   0  0  0  0  0  0  0  0  0  0  0  0
   21.1578   71.1411   -1.8084 O   0  0  0  0  0  0  0  0  0  0  0  0
   21.3839   72.9556   -0.3007 O   0  0  0  0  0  0  0  0  0  0  0  0
   24.8596   70.9150    0.5969 O   0  0  0  0  0  0  0  0  0  0  0  0
   22.6802   70.8946    2.4671 O   0  0  0  0  0  0  0  0  0  0  0  0
   23.9430   71.0696   -2.1445 O   0  0  0  0  0  0  0  0  0  0  0  0
   23.4863   71.0466    0.2203 C   0  0  1  0  0  0  0  0  0  0  0  0
   22.7475   71.7722    1.3466 C   0  0  1  0  0  0  0  0  0  0  0  0
   23.3994   71.8431   -1.0802 C   0  0  2  0  0  0  0  0  0  0  0  0
   21.3369   72.1867    0.9068 C   0  0  1  0  0  0  0  0  0  0  0  0
   21.9590   72.2469   -1.4002 C   0  0  1  0  0  0  0  0  0  0  0  0
   24.9218   70.4098    1.4218 H   0  0  0  0  0  0  0  0  0  0  0  0
   23.5774   70.6401    2.7344 H   0  0  0  0  0  0  0  0  0  0  0  0
   24.8550   70.8205   -1.9300 H   0  0  0  0  0  0  0  0  0  0  0  0
   20.4142   72.2574    3.1097 O   0  0  0  0  0  0  0  0  0  0  0  0
   20.6403   73.0485    1.9576 C   0  0  0  0  0  0  0  0  0  0  0  0
   19.9717   72.7929    3.7872 H   0  0  0  0  0  0  0  0  0  0  0  0
 25 28  1  0
 25 24  1  0
 25 26  1  6
 25 27  2  0
  1  4  1  0
  1 24  1  0
  1  2  1  1
  1  3  2  0
  6 11  1  0
  6 12  1  0
 29 36  1  0
 29 37  1  0
  9  7  1  6
  7 13  1  0
 10  8  1  6
  8 14  1  0
 37 28  1  1
  4  5  1  0
 33 30  1  1
 30 38  1  0
 34 31  1  1
 31 39  1  0
 35 32  1  6
 32 40  1  0
 41 42  1  0
 41 43  1  0
 15 19  2  0
 16 22  2  0
 12 17  1  1
 17 19  1  0
 17 20  1  0
 18 19  1  0
 18 22  1  0
 18 23  1  0
  9 10  1  0
  9 11  1  0
 10 12  1  0
 11  5  1  1
 33 34  1  0
 33 35  1  0
 34 36  1  0
 35 37  1  0
 36 42  1  1
 20 21  2  0
 21 22  1  0
M  CHG  2   2  -1  26  -1
M  END
>  <COMPND>  (537) 
    8629 

>  <AUTHOR>  (537) 
    GENERATED BY OPEN BABEL 3.1.1

>  <MASTER>  (537) 
        0    0    0    0    0    0    0    0   58    0   58    0

>  <minimizedAffinity>  (537) 
-7.87421

>  <CNNscore>  (537) 
0.5249525905

>  <CNNaffinity>  (537) 
4.3750586510

>  <CNN_VS>  (537) 
2.2966983318

>  <CNNaffinity_variance>  (537) 
0.4248152375

$$$$
538
     RDKit          3D

 43 45  0  0  0  0  0  0  0  0999 V2000
   23.0685   73.6737   -4.3155 P   0  0  2  0  0  0  0  0  0  0  0  0
   23.9634   72.3290   -4.4060 O   0  0  0  0  0  0  0  0  0  0  0  0
   23.7021   74.8978   -4.9083 O   0  0  0  0  0  0  0  0  0  0  0  0
   22.6759   73.7743   -2.7490 O   0  0  0  0  0  0  0  0  0  0  0  0
   21.7322   74.7531   -2.3501 C   0  0  0  0  0  0  0  0  0  0  0  0
   20.9807   72.7770   -1.2081 O   0  0  0  0  0  0  0  0  0  0  0  0
   18.6258   74.4096   -0.3249 O   0  0  0  0  0  0  0  0  0  0  0  0
   20.2212   74.4225    1.8868 O   0  0  0  0  0  0  0  0  0  0  0  0
   19.9843   74.8078   -0.5021 C   0  0  1  0  0  0  0  0  0  0  0  0
   20.8409   74.2715    0.6258 C   0  0  2  0  0  0  0  0  0  0  0  0
   20.5395   74.0587   -1.7070 C   0  0  1  0  0  0  0  0  0  0  0  0
   21.0099   72.8151    0.2280 C   0  0  2  0  0  0  0  0  0  0  0  0
   18.2496   74.8753    0.4390 H   0  0  0  0  0  0  0  0  0  0  0  0
   20.1363   75.3660    2.0946 H   0  0  0  0  0  0  0  0  0  0  0  0
   21.3970   70.1033    0.9167 O   0  0  0  0  0  0  0  0  0  0  0  0
   25.8284   70.8125    1.9659 O   0  0  0  0  0  0  0  0  0  0  0  0
   22.2547   72.2637    0.6839 N   0  0  0  0  0  0  0  0  0  0  0  0
   23.6033   70.4586    1.4384 N   0  0  0  0  0  0  0  0  0  0  0  0
   22.3428   70.8890    1.0048 C   0  0  0  0  0  0  0  0  0  0  0  0
   23.3713   73.0832    0.8085 C   0  0  0  0  0  0  0  0  0  0  0  0
   24.5658   72.6574    1.2247 C   0  0  0  0  0  0  0  0  0  0  0  0
   24.7428   71.2346    1.5800 C   0  0  0  0  0  0  0  0  0  0  0  0
   23.6884   69.5047    1.6679 H   0  0  0  0  0  0  0  0  0  0  0  0
   21.6777   73.2322   -5.0109 O   0  0  0  0  0  0  0  0  0  0  0  0
   21.1102   73.4842   -6.5034 P   0  0  2  0  0  0  0  0  0  0  0  0
   22.2053   72.7547   -7.4448 O   0  0  0  0  0  0  0  0  0  0  0  0
   20.8722   74.9288   -6.8355 O   0  0  0  0  0  0  0  0  0  0  0  0
   19.7983   72.5496   -6.6048 O   0  0  0  0  0  0  0  0  0  0  0  0
   19.2775   70.3799   -5.8062 O   0  0  0  0  0  0  0  0  0  0  0  0
   17.5934   70.1204   -9.5675 O   0  0  0  0  0  0  0  0  0  0  0  0
   15.8917   70.3217   -7.2628 O   0  0  0  0  0  0  0  0  0  0  0  0
   20.0974   71.5256   -9.2004 O   0  0  0  0  0  0  0  0  0  0  0  0
   17.9731   70.7714   -8.3520 C   0  0  1  0  0  0  0  0  0  0  0  0
   17.2887   70.0514   -7.1884 C   0  0  1  0  0  0  0  0  0  0  0  0
   19.4922   70.7075   -8.2050 C   0  0  2  0  0  0  0  0  0  0  0  0
   17.8522   70.5186   -5.8396 C   0  0  1  0  0  0  0  0  0  0  0  0
   19.9438   71.1469   -6.8111 C   0  0  1  0  0  0  0  0  0  0  0  0
   16.6300   70.1578   -9.6672 H   0  0  0  0  0  0  0  0  0  0  0  0
   15.5484   70.0224   -8.1194 H   0  0  0  0  0  0  0  0  0  0  0  0
   19.8039   71.2372  -10.0782 H   0  0  0  0  0  0  0  0  0  0  0  0
   15.9897   70.1622   -4.3860 O   0  0  0  0  0  0  0  0  0  0  0  0
   17.2972   69.7023   -4.6743 C   0  0  0  0  0  0  0  0  0  0  0  0
   15.6237   69.6515   -3.6465 H   0  0  0  0  0  0  0  0  0  0  0  0
 25 28  1  0
 25 24  1  0
 25 26  1  6
 25 27  2  0
  1  4  1  0
  1 24  1  0
  1  2  1  1
  1  3  2  0
  6 11  1  0
  6 12  1  0
 29 36  1  0
 29 37  1  0
  9  7  1  1
  7 13  1  0
 10  8  1  1
  8 14  1  0
 37 28  1  1
  4  5  1  0
 33 30  1  6
 30 38  1  0
 34 31  1  1
 31 39  1  0
 35 32  1  6
 32 40  1  0
 41 42  1  0
 41 43  1  0
 15 19  2  0
 16 22  2  0
 12 17  1  6
 17 19  1  0
 17 20  1  0
 18 19  1  0
 18 22  1  0
 18 23  1  0
  9 10  1  0
  9 11  1  0
 10 12  1  0
 11  5  1  1
 33 34  1  0
 33 35  1  0
 34 36  1  0
 35 37  1  0
 36 42  1  1
 20 21  2  0
 21 22  1  0
M  CHG  2   2  -1  26  -1
M  END
>  <COMPND>  (538) 
    8629 

>  <AUTHOR>  (538) 
    GENERATED BY OPEN BABEL 3.1.1

>  <MASTER>  (538) 
        0    0    0    0    0    0    0    0   58    0   58    0

>  <minimizedAffinity>  (538) 
-7.61923

>  <CNNscore>  (538) 
0.5089690685

>  <CNNaffinity>  (538) 
4.3833436966

>  <CNN_VS>  (538) 
2.2309863567

>  <CNNaffinity_variance>  (538) 
0.1905115396

$$$$
539
     RDKit          3D

 43 45  0  0  0  0  0  0  0  0999 V2000
   21.7621   75.4780   -4.1001 P   0  0  2  0  0  0  0  0  0  0  0  0
   22.9448   75.7720   -5.1641 O   0  0  0  0  0  0  0  0  0  0  0  0
   20.9634   76.6809   -3.6918 O   0  0  0  0  0  0  0  0  0  0  0  0
   22.5066   74.6885   -2.9000 O   0  0  0  0  0  0  0  0  0  0  0  0
   21.7161   73.9572   -1.9791 C   0  0  0  0  0  0  0  0  0  0  0  0
   23.3014   72.1888   -1.6143 O   0  0  0  0  0  0  0  0  0  0  0  0
   21.0081   70.3014   -2.0256 O   0  0  0  0  0  0  0  0  0  0  0  0
   21.2582   70.3500    0.6895 O   0  0  0  0  0  0  0  0  0  0  0  0
   21.0217   71.5806   -1.3940 C   0  0  1  0  0  0  0  0  0  0  0  0
   21.6805   71.4883   -0.0335 C   0  0  2  0  0  0  0  0  0  0  0  0
   21.9935   72.4709   -2.1583 C   0  0  1  0  0  0  0  0  0  0  0  0
   23.1539   71.4347   -0.4000 C   0  0  2  0  0  0  0  0  0  0  0  0
   20.3940   69.7152   -1.5552 H   0  0  0  0  0  0  0  0  0  0  0  0
   20.3147   70.4314    0.8989 H   0  0  0  0  0  0  0  0  0  0  0  0
   24.4413   69.9628    1.6382 O   0  0  0  0  0  0  0  0  0  0  0  0
   26.3420   73.7590    3.4318 O   0  0  0  0  0  0  0  0  0  0  0  0
   23.9915   72.0130    0.6127 N   0  0  0  0  0  0  0  0  0  0  0  0
   25.3868   71.8542    2.5295 N   0  0  0  0  0  0  0  0  0  0  0  0
   24.5902   71.1857    1.5913 C   0  0  0  0  0  0  0  0  0  0  0  0
   24.2125   73.3859    0.6285 C   0  0  0  0  0  0  0  0  0  0  0  0
   24.9739   74.0081    1.5309 C   0  0  0  0  0  0  0  0  0  0  0  0
   25.6358   73.2163    2.5877 C   0  0  0  0  0  0  0  0  0  0  0  0
   25.8138   71.2982    3.2211 H   0  0  0  0  0  0  0  0  0  0  0  0
   20.9039   74.3144   -4.8230 O   0  0  0  0  0  0  0  0  0  0  0  0
   21.1081   73.5721   -6.2443 P   0  0  2  0  0  0  0  0  0  0  0  0
   22.3654   72.5907   -5.9731 O   0  0  0  0  0  0  0  0  0  0  0  0
   21.2907   74.5059   -7.4056 O   0  0  0  0  0  0  0  0  0  0  0  0
   19.8395   72.5828   -6.3745 O   0  0  0  0  0  0  0  0  0  0  0  0
   19.0637   70.3590   -6.1111 O   0  0  0  0  0  0  0  0  0  0  0  0
   18.8080   70.6644  -10.2211 O   0  0  0  0  0  0  0  0  0  0  0  0
   16.4056   70.6593   -8.6474 O   0  0  0  0  0  0  0  0  0  0  0  0
   21.0282   71.8817   -8.8181 O   0  0  0  0  0  0  0  0  0  0  0  0
   18.7386   71.1360   -8.8727 C   0  0  1  0  0  0  0  0  0  0  0  0
   17.6864   70.3105   -8.1295 C   0  0  1  0  0  0  0  0  0  0  0  0
   20.1089   70.9762   -8.2168 C   0  0  2  0  0  0  0  0  0  0  0  0
   17.7416   70.5737   -6.6186 C   0  0  1  0  0  0  0  0  0  0  0  0
   20.0433   71.2119   -6.7068 C   0  0  1  0  0  0  0  0  0  0  0  0
   17.9412   70.7635  -10.6434 H   0  0  0  0  0  0  0  0  0  0  0  0
   16.3842   70.4889   -9.6022 H   0  0  0  0  0  0  0  0  0  0  0  0
   21.0608   71.7222   -9.7737 H   0  0  0  0  0  0  0  0  0  0  0  0
   15.8737   70.4386   -5.1348 O   0  0  0  0  0  0  0  0  0  0  0  0
   16.8096   69.6460   -5.8421 C   0  0  0  0  0  0  0  0  0  0  0  0
   15.2737   69.8615   -4.6361 H   0  0  0  0  0  0  0  0  0  0  0  0
 25 28  1  0
 25 24  1  0
 25 26  1  1
 25 27  2  0
  1  4  1  0
  1 24  1  0
  1  2  1  6
  1  3  2  0
  6 11  1  0
  6 12  1  0
 29 36  1  0
 29 37  1  0
  9  7  1  6
  7 13  1  0
 10  8  1  6
  8 14  1  0
 37 28  1  6
  4  5  1  0
 33 30  1  6
 30 38  1  0
 34 31  1  6
 31 39  1  0
 35 32  1  6
 32 40  1  0
 41 42  1  0
 41 43  1  0
 15 19  2  0
 16 22  2  0
 12 17  1  1
 17 19  1  0
 17 20  1  0
 18 19  1  0
 18 22  1  0
 18 23  1  0
  9 10  1  0
  9 11  1  0
 10 12  1  0
 11  5  1  1
 33 34  1  0
 33 35  1  0
 34 36  1  0
 35 37  1  0
 36 42  1  1
 20 21  2  0
 21 22  1  0
M  CHG  2   2  -1  26  -1
M  END
>  <COMPND>  (539) 
    8629 

>  <AUTHOR>  (539) 
    GENERATED BY OPEN BABEL 3.1.1

>  <MASTER>  (539) 
        0    0    0    0    0    0    0    0   58    0   58    0

>  <minimizedAffinity>  (539) 
-7.20623

>  <CNNscore>  (539) 
0.4983573556

>  <CNNaffinity>  (539) 
4.2555780411

>  <CNN_VS>  (539) 
2.1207985878

>  <CNNaffinity_variance>  (539) 
0.1438085288

$$$$
540
     RDKit          3D

 43 45  0  0  0  0  0  0  0  0999 V2000
   22.7248   73.2912   -4.9814 P   0  0  2  0  0  0  0  0  0  0  0  0
   23.9479   74.3300   -4.7761 O   0  0  0  0  0  0  0  0  0  0  0  0
   23.0180   72.1401   -5.8982 O   0  0  0  0  0  0  0  0  0  0  0  0
   21.4826   74.2340   -5.4123 O   0  0  0  0  0  0  0  0  0  0  0  0
   20.1712   73.8260   -5.0633 C   0  0  0  0  0  0  0  0  0  0  0  0
   18.5798   73.4254   -6.8185 O   0  0  0  0  0  0  0  0  0  0  0  0
   17.4973   76.1534   -6.2044 O   0  0  0  0  0  0  0  0  0  0  0  0
   15.7146   74.5114   -4.9545 O   0  0  0  0  0  0  0  0  0  0  0  0
   18.0267   75.1716   -5.3149 C   0  0  1  0  0  0  0  0  0  0  0  0
   17.0357   74.0415   -5.1293 C   0  0  2  0  0  0  0  0  0  0  0  0
   19.1798   74.4706   -6.0223 C   0  0  1  0  0  0  0  0  0  0  0  0
   17.2107   73.2544   -6.4170 C   0  0  2  0  0  0  0  0  0  0  0  0
   16.7596   76.6148   -5.7745 H   0  0  0  0  0  0  0  0  0  0  0  0
   15.6545   75.0055   -4.1220 H   0  0  0  0  0  0  0  0  0  0  0  0
   15.6055   71.7051   -8.1494 O   0  0  0  0  0  0  0  0  0  0  0  0
   16.2686   67.8904   -5.6495 O   0  0  0  0  0  0  0  0  0  0  0  0
   16.9472   71.8538   -6.2429 N   0  0  0  0  0  0  0  0  0  0  0  0
   15.9372   69.8069   -6.9033 N   0  0  0  0  0  0  0  0  0  0  0  0
   16.1268   71.1690   -7.1693 C   0  0  0  0  0  0  0  0  0  0  0  0
   17.5001   71.1737   -5.1632 C   0  0  0  0  0  0  0  0  0  0  0  0
   17.3085   69.8749   -4.9229 C   0  0  0  0  0  0  0  0  0  0  0  0
   16.4640   69.0863   -5.8432 C   0  0  0  0  0  0  0  0  0  0  0  0
   15.3688   69.3094   -7.5352 H   0  0  0  0  0  0  0  0  0  0  0  0
   22.3505   72.8667   -3.4672 O   0  0  0  0  0  0  0  0  0  0  0  0
   22.6801   71.5246   -2.6287 P   0  0  2  0  0  0  0  0  0  0  0  0
   24.1793   71.1476   -3.1062 O   0  0  0  0  0  0  0  0  0  0  0  0
   21.6767   70.4229   -2.8112 O   0  0  0  0  0  0  0  0  0  0  0  0
   22.8520   72.0270   -1.1046 O   0  0  0  0  0  0  0  0  0  0  0  0
   24.2575   71.3640    0.6848 O   0  0  0  0  0  0  0  0  0  0  0  0
   20.7258   71.8558    2.7671 O   0  0  0  0  0  0  0  0  0  0  0  0
   22.8424   73.7694    3.0933 O   0  0  0  0  0  0  0  0  0  0  0  0
   20.6866   70.7158    0.1066 O   0  0  0  0  0  0  0  0  0  0  0  0
   21.6950   72.1506    1.7576 C   0  0  1  0  0  0  0  0  0  0  0  0
   23.0122   72.5104    2.4479 C   0  0  1  0  0  0  0  0  0  0  0  0
   21.8737   70.9246    0.8641 C   0  0  2  0  0  0  0  0  0  0  0  0
   24.1660   72.5787    1.4384 C   0  0  1  0  0  0  0  0  0  0  0  0
   23.0775   71.0755   -0.0677 C   0  0  1  0  0  0  0  0  0  0  0  0
   20.6073   72.6304    3.3377 H   0  0  0  0  0  0  0  0  0  0  0  0
   22.1106   73.7128    3.7277 H   0  0  0  0  0  0  0  0  0  0  0  0
   19.9320   70.6215    0.7079 H   0  0  0  0  0  0  0  0  0  0  0  0
   25.2880   73.3281    3.4103 O   0  0  0  0  0  0  0  0  0  0  0  0
   25.5152   72.7805    2.1247 C   0  0  0  0  0  0  0  0  0  0  0  0
   26.1380   73.4617    3.8591 H   0  0  0  0  0  0  0  0  0  0  0  0
 25 28  1  0
 25 24  1  0
 25 26  1  6
 25 27  2  0
  1  4  1  0
  1 24  1  0
  1  2  1  1
  1  3  2  0
  6 11  1  0
  6 12  1  0
 29 36  1  0
 29 37  1  0
  9  7  1  6
  7 13  1  0
 10  8  1  6
  8 14  1  0
 37 28  1  6
  4  5  1  0
 33 30  1  1
 30 38  1  0
 34 31  1  6
 31 39  1  0
 35 32  1  6
 32 40  1  0
 41 42  1  0
 41 43  1  0
 15 19  2  0
 16 22  2  0
 12 17  1  1
 17 19  1  0
 17 20  1  0
 18 19  1  0
 18 22  1  0
 18 23  1  0
  9 10  1  0
  9 11  1  0
 10 12  1  0
 11  5  1  1
 33 34  1  0
 33 35  1  0
 34 36  1  0
 35 37  1  0
 36 42  1  1
 20 21  2  0
 21 22  1  0
M  CHG  2   2  -1  26  -1
M  END
>  <COMPND>  (540) 
    8629 

>  <AUTHOR>  (540) 
    GENERATED BY OPEN BABEL 3.1.1

>  <MASTER>  (540) 
        0    0    0    0    0    0    0    0   58    0   58    0

>  <minimizedAffinity>  (540) 
-6.92356

>  <CNNscore>  (540) 
0.4978328347

>  <CNNaffinity>  (540) 
4.2093744278

>  <CNN_VS>  (540) 
2.0955648422

>  <CNNaffinity_variance>  (540) 
0.1892486811

$$$$
541
     RDKit          3D

 43 45  0  0  0  0  0  0  0  0999 V2000
   20.5371   71.2570   -1.4206 P   0  0  2  0  0  0  0  0  0  0  0  0
   21.1150   70.4895   -0.1189 O   0  0  0  0  0  0  0  0  0  0  0  0
   20.0757   72.6634   -1.1743 O   0  0  0  0  0  0  0  0  0  0  0  0
   19.4198   70.2432   -2.0051 O   0  0  0  0  0  0  0  0  0  0  0  0
   19.1095   70.3025   -3.3864 C   0  0  0  0  0  0  0  0  0  0  0  0
   17.4780   71.3645   -4.7950 O   0  0  0  0  0  0  0  0  0  0  0  0
   15.4196   69.8155   -3.2607 O   0  0  0  0  0  0  0  0  0  0  0  0
   15.6628   68.3669   -5.5583 O   0  0  0  0  0  0  0  0  0  0  0  0
   16.7355   69.4266   -3.6510 C   0  0  1  0  0  0  0  0  0  0  0  0
   16.7767   69.1263   -5.1348 C   0  0  2  0  0  0  0  0  0  0  0  0
   17.6363   70.6511   -3.5491 C   0  0  1  0  0  0  0  0  0  0  0  0
   16.7971   70.5206   -5.7379 C   0  0  2  0  0  0  0  0  0  0  0  0
   14.8261   69.0497   -3.3173 H   0  0  0  0  0  0  0  0  0  0  0  0
   15.6950   67.4888   -5.1477 H   0  0  0  0  0  0  0  0  0  0  0  0
   15.5362   70.5747   -8.2648 O   0  0  0  0  0  0  0  0  0  0  0  0
   19.5752   70.6877  -10.4818 O   0  0  0  0  0  0  0  0  0  0  0  0
   17.4949   70.5647   -6.9919 N   0  0  0  0  0  0  0  0  0  0  0  0
   17.5483   70.6311   -9.3666 N   0  0  0  0  0  0  0  0  0  0  0  0
   16.7674   70.5881   -8.2046 C   0  0  0  0  0  0  0  0  0  0  0  0
   18.8853   70.5847   -7.0109 C   0  0  0  0  0  0  0  0  0  0  0  0
   19.6152   70.6245   -8.1276 C   0  0  0  0  0  0  0  0  0  0  0  0
   18.9323   70.6511   -9.4372 C   0  0  0  0  0  0  0  0  0  0  0  0
   17.0631   70.6477  -10.2234 H   0  0  0  0  0  0  0  0  0  0  0  0
   21.7439   71.1220   -2.4876 O   0  0  0  0  0  0  0  0  0  0  0  0
   23.1077   71.9723   -2.6610 P   0  0  2  0  0  0  0  0  0  0  0  0
   24.1897   70.8526   -3.1003 O   0  0  0  0  0  0  0  0  0  0  0  0
   23.4962   72.7664   -1.4476 O   0  0  0  0  0  0  0  0  0  0  0  0
   22.8721   72.8556   -3.9911 O   0  0  0  0  0  0  0  0  0  0  0  0
   20.5840   73.3623   -4.3440 O   0  0  0  0  0  0  0  0  0  0  0  0
   22.1033   74.6070   -7.9763 O   0  0  0  0  0  0  0  0  0  0  0  0
   21.2390   76.5603   -6.0565 O   0  0  0  0  0  0  0  0  0  0  0  0
   23.1550   72.2253   -6.7110 O   0  0  0  0  0  0  0  0  0  0  0  0
   22.1175   74.3939   -6.5622 C   0  0  1  0  0  0  0  0  0  0  0  0
   20.9500   75.1692   -5.9486 C   0  0  1  0  0  0  0  0  0  0  0  0
   21.9769   72.8990   -6.2812 C   0  0  2  0  0  0  0  0  0  0  0  0
   20.7376   74.7800   -4.4794 C   0  0  1  0  0  0  0  0  0  0  0  0
   21.7204   72.6247   -4.7983 C   0  0  1  0  0  0  0  0  0  0  0  0
   22.1926   75.5542   -8.1615 H   0  0  0  0  0  0  0  0  0  0  0  0
   21.3713   76.7929   -6.9890 H   0  0  0  0  0  0  0  0  0  0  0  0
   23.3063   72.4067   -7.6513 H   0  0  0  0  0  0  0  0  0  0  0  0
   18.8473   74.4800   -3.0492 O   0  0  0  0  0  0  0  0  0  0  0  0
   19.4825   75.4227   -3.8931 C   0  0  0  0  0  0  0  0  0  0  0  0
   18.0469   74.8754   -2.6687 H   0  0  0  0  0  0  0  0  0  0  0  0
 25 28  1  0
 25 24  1  0
 25 26  1  6
 25 27  2  0
  1  4  1  0
  1 24  1  0
  1  2  1  1
  1  3  2  0
  6 11  1  0
  6 12  1  0
 29 36  1  0
 29 37  1  0
  9  7  1  6
  7 13  1  0
 10  8  1  6
  8 14  1  0
 37 28  1  1
  4  5  1  0
 33 30  1  6
 30 38  1  0
 34 31  1  1
 31 39  1  0
 35 32  1  1
 32 40  1  0
 41 42  1  0
 41 43  1  0
 15 19  2  0
 16 22  2  0
 12 17  1  6
 17 19  1  0
 17 20  1  0
 18 19  1  0
 18 22  1  0
 18 23  1  0
  9 10  1  0
  9 11  1  0
 10 12  1  0
 11  5  1  6
 33 34  1  0
 33 35  1  0
 34 36  1  0
 35 37  1  0
 36 42  1  6
 20 21  2  0
 21 22  1  0
M  CHG  2   2  -1  26  -1
M  END
>  <COMPND>  (541) 
    8629 

>  <AUTHOR>  (541) 
    GENERATED BY OPEN BABEL 3.1.1

>  <MASTER>  (541) 
        0    0    0    0    0    0    0    0   58    0   58    0

>  <minimizedAffinity>  (541) 
-8.00296

>  <CNNscore>  (541) 
0.9197216630

>  <CNNaffinity>  (541) 
4.6705098152

>  <CNN_VS>  (541) 
4.2955689430

>  <CNNaffinity_variance>  (541) 
0.6036661863

$$$$
542
     RDKit          3D

 43 45  0  0  0  0  0  0  0  0999 V2000
   23.4586   71.9907   -3.2330 P   0  0  2  0  0  0  0  0  0  0  0  0
   24.2951   73.0149   -4.1650 O   0  0  0  0  0  0  0  0  0  0  0  0
   24.0986   70.6483   -3.0336 O   0  0  0  0  0  0  0  0  0  0  0  0
   21.9846   71.9741   -3.9000 O   0  0  0  0  0  0  0  0  0  0  0  0
   21.2199   70.7838   -3.8207 C   0  0  0  0  0  0  0  0  0  0  0  0
   19.1615   71.7133   -4.6410 O   0  0  0  0  0  0  0  0  0  0  0  0
   17.8454   70.3859   -2.2965 O   0  0  0  0  0  0  0  0  0  0  0  0
   17.2623   68.6852   -4.3469 O   0  0  0  0  0  0  0  0  0  0  0  0
   18.9351   69.9302   -3.0966 C   0  0  1  0  0  0  0  0  0  0  0  0
   18.4361   69.4653   -4.4488 C   0  0  2  0  0  0  0  0  0  0  0  0
   19.7821   71.1407   -3.4691 C   0  0  1  0  0  0  0  0  0  0  0  0
   18.2019   70.7828   -5.1683 C   0  0  2  0  0  0  0  0  0  0  0  0
   17.2903   69.6303   -2.0459 H   0  0  0  0  0  0  0  0  0  0  0  0
   17.4631   67.8580   -3.8819 H   0  0  0  0  0  0  0  0  0  0  0  0
   16.2217   69.8956   -6.9765 O   0  0  0  0  0  0  0  0  0  0  0  0
   19.0362   70.4000  -10.5911 O   0  0  0  0  0  0  0  0  0  0  0  0
   18.3900   70.6729   -6.5874 N   0  0  0  0  0  0  0  0  0  0  0  0
   17.6247   70.1477   -8.7748 N   0  0  0  0  0  0  0  0  0  0  0  0
   17.3317   70.2156   -7.4068 C   0  0  0  0  0  0  0  0  0  0  0  0
   19.6130   71.0168   -7.1530 C   0  0  0  0  0  0  0  0  0  0  0  0
   19.8767   70.9452   -8.4594 C   0  0  0  0  0  0  0  0  0  0  0  0
   18.8247   70.4771   -9.3848 C   0  0  0  0  0  0  0  0  0  0  0  0
   16.9025   69.8314   -9.3650 H   0  0  0  0  0  0  0  0  0  0  0  0
   23.2331   72.8370   -1.8744 O   0  0  0  0  0  0  0  0  0  0  0  0
   22.1230   72.6960   -0.7078 P   0  0  2  0  0  0  0  0  0  0  0  0
   21.9602   71.0949   -0.5421 O   0  0  0  0  0  0  0  0  0  0  0  0
   20.8398   73.4231   -0.9883 O   0  0  0  0  0  0  0  0  0  0  0  0
   22.8804   73.1700    0.6363 O   0  0  0  0  0  0  0  0  0  0  0  0
   24.7846   72.5126    1.8846 O   0  0  0  0  0  0  0  0  0  0  0  0
   22.0396   72.7761    4.9580 O   0  0  0  0  0  0  0  0  0  0  0  0
   24.0909   74.7712    4.7141 O   0  0  0  0  0  0  0  0  0  0  0  0
   21.2305   71.7236    2.3857 O   0  0  0  0  0  0  0  0  0  0  0  0
   22.6455   73.1472    3.7169 C   0  0  1  0  0  0  0  0  0  0  0  0
   24.0976   73.5431    3.9916 C   0  0  1  0  0  0  0  0  0  0  0  0
   22.5842   71.9606    2.7569 C   0  0  2  0  0  0  0  0  0  0  0  0
   24.8868   73.6964    2.6844 C   0  0  1  0  0  0  0  0  0  0  0  0
   23.4418   72.1961    1.5123 C   0  0  1  0  0  0  0  0  0  0  0  0
   22.0748   73.5253    5.5720 H   0  0  0  0  0  0  0  0  0  0  0  0
   23.5890   74.6609    5.5370 H   0  0  0  0  0  0  0  0  0  0  0  0
   20.6980   71.5757    3.1822 H   0  0  0  0  0  0  0  0  0  0  0  0
   26.5733   75.3192    3.1653 O   0  0  0  0  0  0  0  0  0  0  0  0
   26.3734   73.9361    2.9386 C   0  0  0  0  0  0  0  0  0  0  0  0
   27.5151   75.4866    3.3289 H   0  0  0  0  0  0  0  0  0  0  0  0
 25 28  1  0
 25 24  1  0
 25 26  1  1
 25 27  2  0
  1  4  1  0
  1 24  1  0
  1  2  1  6
  1  3  2  0
  6 11  1  0
  6 12  1  0
 29 36  1  0
 29 37  1  0
  9  7  1  1
  7 13  1  0
 10  8  1  1
  8 14  1  0
 37 28  1  1
  4  5  1  0
 33 30  1  1
 30 38  1  0
 34 31  1  6
 31 39  1  0
 35 32  1  6
 32 40  1  0
 41 42  1  0
 41 43  1  0
 15 19  2  0
 16 22  2  0
 12 17  1  6
 17 19  1  0
 17 20  1  0
 18 19  1  0
 18 22  1  0
 18 23  1  0
  9 10  1  0
  9 11  1  0
 10 12  1  0
 11  5  1  6
 33 34  1  0
 33 35  1  0
 34 36  1  0
 35 37  1  0
 36 42  1  1
 20 21  2  0
 21 22  1  0
M  CHG  2   2  -1  26  -1
M  END
>  <COMPND>  (542) 
    8629 

>  <AUTHOR>  (542) 
    GENERATED BY OPEN BABEL 3.1.1

>  <MASTER>  (542) 
        0    0    0    0    0    0    0    0   58    0   58    0

>  <minimizedAffinity>  (542) 
-7.64526

>  <CNNscore>  (542) 
0.9011458755

>  <CNNaffinity>  (542) 
4.6490950584

>  <CNN_VS>  (542) 
4.1895127296

>  <CNNaffinity_variance>  (542) 
0.0403055474

$$$$
543
     RDKit          3D

 43 45  0  0  0  0  0  0  0  0999 V2000
   22.2700   71.4448   -2.4930 P   0  0  2  0  0  0  0  0  0  0  0  0
   21.6452   72.8998   -2.1614 O   0  0  0  0  0  0  0  0  0  0  0  0
   23.1483   71.3942   -3.7085 O   0  0  0  0  0  0  0  0  0  0  0  0
   20.9825   70.4651   -2.5153 O   0  0  0  0  0  0  0  0  0  0  0  0
   20.2958   70.2788   -3.7408 C   0  0  0  0  0  0  0  0  0  0  0  0
   18.5713   71.5369   -4.8440 O   0  0  0  0  0  0  0  0  0  0  0  0
   16.6916   70.3879   -2.8099 O   0  0  0  0  0  0  0  0  0  0  0  0
   16.2117   68.8407   -5.0036 O   0  0  0  0  0  0  0  0  0  0  0  0
   17.8187   69.7819   -3.4406 C   0  0  1  0  0  0  0  0  0  0  0  0
   17.4906   69.4279   -4.8761 C   0  0  2  0  0  0  0  0  0  0  0  0
   18.8906   70.8508   -3.6136 C   0  0  1  0  0  0  0  0  0  0  0  0
   17.5844   70.7796   -5.5633 C   0  0  2  0  0  0  0  0  0  0  0  0
   15.9938   69.7244   -2.6884 H   0  0  0  0  0  0  0  0  0  0  0  0
   16.2028   67.9833   -4.5502 H   0  0  0  0  0  0  0  0  0  0  0  0
   15.8140   70.3506   -7.7219 O   0  0  0  0  0  0  0  0  0  0  0  0
   19.2557   70.3709  -10.7872 O   0  0  0  0  0  0  0  0  0  0  0  0
   17.9907   70.6692   -6.9359 N   0  0  0  0  0  0  0  0  0  0  0  0
   17.5291   70.3613   -9.2464 N   0  0  0  0  0  0  0  0  0  0  0  0
   17.0223   70.4528   -7.9438 C   0  0  0  0  0  0  0  0  0  0  0  0
   19.3361   70.7756   -7.2711 C   0  0  0  0  0  0  0  0  0  0  0  0
   19.8033   70.6847   -8.5180 C   0  0  0  0  0  0  0  0  0  0  0  0
   18.8573   70.4591   -9.6299 C   0  0  0  0  0  0  0  0  0  0  0  0
   16.8729   70.2103   -9.9651 H   0  0  0  0  0  0  0  0  0  0  0  0
   23.0083   71.0430   -1.1123 O   0  0  0  0  0  0  0  0  0  0  0  0
   22.5003   71.1074    0.4209 P   0  0  2  0  0  0  0  0  0  0  0  0
   23.5882   70.2070    1.2104 O   0  0  0  0  0  0  0  0  0  0  0  0
   21.0769   70.6716    0.6163 O   0  0  0  0  0  0  0  0  0  0  0  0
   22.8067   72.6211    0.8896 O   0  0  0  0  0  0  0  0  0  0  0  0
   21.3721   73.3974    2.6088 O   0  0  0  0  0  0  0  0  0  0  0  0
   23.0851   76.9893    1.5070 O   0  0  0  0  0  0  0  0  0  0  0  0
   23.8217   75.7735    4.0024 O   0  0  0  0  0  0  0  0  0  0  0  0
   22.4298   75.0223   -0.5131 O   0  0  0  0  0  0  0  0  0  0  0  0
   23.0539   75.5796    1.7455 C   0  0  1  0  0  0  0  0  0  0  0  0
   22.7098   75.3499    3.2184 C   0  0  1  0  0  0  0  0  0  0  0  0
   21.9995   74.9436    0.8415 C   0  0  2  0  0  0  0  0  0  0  0  0
   22.3964   73.8724    3.4902 C   0  0  1  0  0  0  0  0  0  0  0  0
   21.7277   73.4886    1.2278 C   0  0  1  0  0  0  0  0  0  0  0  0
   23.7530   77.3992    2.0775 H   0  0  0  0  0  0  0  0  0  0  0  0
   24.0094   76.7079    3.8210 H   0  0  0  0  0  0  0  0  0  0  0  0
   22.5983   75.9483   -0.7455 H   0  0  0  0  0  0  0  0  0  0  0  0
   23.0197   73.4630    5.7602 O   0  0  0  0  0  0  0  0  0  0  0  0
   21.8981   73.6464    4.9160 C   0  0  0  0  0  0  0  0  0  0  0  0
   22.7178   73.3184    6.6711 H   0  0  0  0  0  0  0  0  0  0  0  0
 25 28  1  0
 25 24  1  0
 25 26  1  1
 25 27  2  0
  1  4  1  0
  1 24  1  0
  1  2  1  1
  1  3  2  0
  6 11  1  0
  6 12  1  0
 29 36  1  0
 29 37  1  0
  9  7  1  6
  7 13  1  0
 10  8  1  1
  8 14  1  0
 37 28  1  1
  4  5  1  0
 33 30  1  1
 30 38  1  0
 34 31  1  1
 31 39  1  0
 35 32  1  6
 32 40  1  0
 41 42  1  0
 41 43  1  0
 15 19  2  0
 16 22  2  0
 12 17  1  6
 17 19  1  0
 17 20  1  0
 18 19  1  0
 18 22  1  0
 18 23  1  0
  9 10  1  0
  9 11  1  0
 10 12  1  0
 11  5  1  6
 33 34  1  0
 33 35  1  0
 34 36  1  0
 35 37  1  0
 36 42  1  1
 20 21  2  0
 21 22  1  0
M  CHG  2   2  -1  26  -1
M  END
>  <COMPND>  (543) 
    8629 

>  <AUTHOR>  (543) 
    GENERATED BY OPEN BABEL 3.1.1

>  <MASTER>  (543) 
        0    0    0    0    0    0    0    0   58    0   58    0

>  <minimizedAffinity>  (543) 
-7.18508

>  <CNNscore>  (543) 
0.8874704838

>  <CNNaffinity>  (543) 
4.7140059471

>  <CNN_VS>  (543) 
4.1835412979

>  <CNNaffinity_variance>  (543) 
0.0852475166

$$$$
544
     RDKit          3D

 43 45  0  0  0  0  0  0  0  0999 V2000
   20.9151   73.1764   -4.4291 P   0  0  2  0  0  0  0  0  0  0  0  0
   19.9040   74.4160   -4.6710 O   0  0  0  0  0  0  0  0  0  0  0  0
   21.3436   72.4558   -5.6735 O   0  0  0  0  0  0  0  0  0  0  0  0
   20.1628   72.2727   -3.3177 O   0  0  0  0  0  0  0  0  0  0  0  0
   19.5924   71.0402   -3.7217 C   0  0  0  0  0  0  0  0  0  0  0  0
   17.7250   71.6845   -5.0898 O   0  0  0  0  0  0  0  0  0  0  0  0
   16.0190   70.1599   -3.1518 O   0  0  0  0  0  0  0  0  0  0  0  0
   16.2498   68.4188   -5.2379 O   0  0  0  0  0  0  0  0  0  0  0  0
   17.3360   69.8692   -3.6169 C   0  0  1  0  0  0  0  0  0  0  0  0
   17.2894   69.3554   -5.0408 C   0  0  2  0  0  0  0  0  0  0  0  0
   18.0783   71.1898   -3.7795 C   0  0  1  0  0  0  0  0  0  0  0  0
   17.0802   70.6359   -5.8312 C   0  0  2  0  0  0  0  0  0  0  0  0
   15.5256   69.3316   -3.0401 H   0  0  0  0  0  0  0  0  0  0  0  0
   16.4287   67.6221   -4.7145 H   0  0  0  0  0  0  0  0  0  0  0  0
   15.5931   70.6653   -8.2323 O   0  0  0  0  0  0  0  0  0  0  0  0
   19.4028   70.3759  -10.8099 O   0  0  0  0  0  0  0  0  0  0  0  0
   17.6579   70.5698   -7.1439 N   0  0  0  0  0  0  0  0  0  0  0  0
   17.4912   70.5214   -9.5138 N   0  0  0  0  0  0  0  0  0  0  0  0
   16.8224   70.5904   -8.2850 C   0  0  0  0  0  0  0  0  0  0  0  0
   19.0383   70.4860   -7.2902 C   0  0  0  0  0  0  0  0  0  0  0  0
   19.6604   70.4196   -8.4691 C   0  0  0  0  0  0  0  0  0  0  0  0
   18.8604   70.4357   -9.7107 C   0  0  0  0  0  0  0  0  0  0  0  0
   16.9296   70.5338  -10.3226 H   0  0  0  0  0  0  0  0  0  0  0  0
   22.1229   73.8504   -3.5924 O   0  0  0  0  0  0  0  0  0  0  0  0
   23.4207   73.1945   -2.8864 P   0  0  2  0  0  0  0  0  0  0  0  0
   24.4702   74.4241   -2.8237 O   0  0  0  0  0  0  0  0  0  0  0  0
   23.9436   71.9687   -3.5777 O   0  0  0  0  0  0  0  0  0  0  0  0
   22.9763   72.9592   -1.3527 O   0  0  0  0  0  0  0  0  0  0  0  0
   23.6889   70.9620   -0.2945 O   0  0  0  0  0  0  0  0  0  0  0  0
   20.6198   72.0052    2.2635 O   0  0  0  0  0  0  0  0  0  0  0  0
   23.3440   72.2886    3.1275 O   0  0  0  0  0  0  0  0  0  0  0  0
   20.3302   72.4248   -0.5860 O   0  0  0  0  0  0  0  0  0  0  0  0
   21.7154   72.2463    1.3763 C   0  0  1  0  0  0  0  0  0  0  0  0
   22.9600   71.5723    1.9571 C   0  0  1  0  0  0  0  0  0  0  0  0
   21.3820   71.6673    0.0026 C   0  0  2  0  0  0  0  0  0  0  0  0
   24.1081   71.5575    0.9389 C   0  0  1  0  0  0  0  0  0  0  0  0
   22.6046   71.6542   -0.9166 C   0  0  1  0  0  0  0  0  0  0  0  0
   20.8249   72.3708    3.1374 H   0  0  0  0  0  0  0  0  0  0  0  0
   22.6101   72.2908    3.7620 H   0  0  0  0  0  0  0  0  0  0  0  0
   19.5620   72.4251    0.0054 H   0  0  0  0  0  0  0  0  0  0  0  0
   24.9563   70.1441    2.6686 O   0  0  0  0  0  0  0  0  0  0  0  0
   25.3055   70.7523    1.4388 C   0  0  0  0  0  0  0  0  0  0  0  0
   25.7089   69.6279    2.9986 H   0  0  0  0  0  0  0  0  0  0  0  0
 25 28  1  0
 25 24  1  0
 25 26  1  1
 25 27  2  0
  1  4  1  0
  1 24  1  0
  1  2  1  6
  1  3  2  0
  6 11  1  0
  6 12  1  0
 29 36  1  0
 29 37  1  0
  9  7  1  6
  7 13  1  0
 10  8  1  1
  8 14  1  0
 37 28  1  1
  4  5  1  0
 33 30  1  1
 30 38  1  0
 34 31  1  1
 31 39  1  0
 35 32  1  6
 32 40  1  0
 41 42  1  0
 41 43  1  0
 15 19  2  0
 16 22  2  0
 12 17  1  6
 17 19  1  0
 17 20  1  0
 18 19  1  0
 18 22  1  0
 18 23  1  0
  9 10  1  0
  9 11  1  0
 10 12  1  0
 11  5  1  6
 33 34  1  0
 33 35  1  0
 34 36  1  0
 35 37  1  0
 36 42  1  1
 20 21  2  0
 21 22  1  0
M  CHG  2   2  -1  26  -1
M  END
>  <COMPND>  (544) 
    8629 

>  <AUTHOR>  (544) 
    GENERATED BY OPEN BABEL 3.1.1

>  <MASTER>  (544) 
        0    0    0    0    0    0    0    0   58    0   58    0

>  <minimizedAffinity>  (544) 
-7.73745

>  <CNNscore>  (544) 
0.8510481119

>  <CNNaffinity>  (544) 
4.6498985291

>  <CNN_VS>  (544) 
3.9572873116

>  <CNNaffinity_variance>  (544) 
0.0526263341

$$$$
545
     RDKit          3D

 43 45  0  0  0  0  0  0  0  0999 V2000
   21.5605   71.3692   -2.0619 P   0  0  2  0  0  0  0  0  0  0  0  0
   22.1858   71.2780   -3.5512 O   0  0  0  0  0  0  0  0  0  0  0  0
   22.4650   70.8909   -0.9644 O   0  0  0  0  0  0  0  0  0  0  0  0
   20.1422   70.6009   -2.1884 O   0  0  0  0  0  0  0  0  0  0  0  0
   19.6131   70.3667   -3.4819 C   0  0  0  0  0  0  0  0  0  0  0  0
   17.9156   71.5033   -4.7469 O   0  0  0  0  0  0  0  0  0  0  0  0
   15.9315   70.1073   -2.9846 O   0  0  0  0  0  0  0  0  0  0  0  0
   15.8600   68.6100   -5.2627 O   0  0  0  0  0  0  0  0  0  0  0  0
   17.1771   69.6328   -3.4933 C   0  0  1  0  0  0  0  0  0  0  0  0
   17.0532   69.3068   -4.9671 C   0  0  2  0  0  0  0  0  0  0  0  0
   18.1542   70.8017   -3.5071 C   0  0  1  0  0  0  0  0  0  0  0  0
   17.0960   70.6874   -5.5998 C   0  0  2  0  0  0  0  0  0  0  0  0
   15.2912   69.3782   -2.9660 H   0  0  0  0  0  0  0  0  0  0  0  0
   15.8809   67.7382   -4.8380 H   0  0  0  0  0  0  0  0  0  0  0  0
   15.6221   70.2720   -7.9732 O   0  0  0  0  0  0  0  0  0  0  0  0
   19.3943   70.6354  -10.5963 O   0  0  0  0  0  0  0  0  0  0  0  0
   17.6675   70.6689   -6.9168 N   0  0  0  0  0  0  0  0  0  0  0  0
   17.5015   70.4535   -9.2774 N   0  0  0  0  0  0  0  0  0  0  0  0
   16.8398   70.4512   -8.0428 C   0  0  0  0  0  0  0  0  0  0  0  0
   19.0343   70.8655   -7.0819 C   0  0  0  0  0  0  0  0  0  0  0  0
   19.6500   70.8634   -8.2660 C   0  0  0  0  0  0  0  0  0  0  0  0
   18.8574   70.6430   -9.4928 C   0  0  0  0  0  0  0  0  0  0  0  0
   16.9451   70.3034  -10.0759 H   0  0  0  0  0  0  0  0  0  0  0  0
   21.1239   72.9212   -1.9455 O   0  0  0  0  0  0  0  0  0  0  0  0
   20.3163   73.7130   -0.7906 P   0  0  2  0  0  0  0  0  0  0  0  0
   18.9163   72.9073   -0.6979 O   0  0  0  0  0  0  0  0  0  0  0  0
   20.1678   75.1855   -1.0427 O   0  0  0  0  0  0  0  0  0  0  0  0
   21.0907   73.3432    0.5763 O   0  0  0  0  0  0  0  0  0  0  0  0
   21.4471   74.8845    2.3409 O   0  0  0  0  0  0  0  0  0  0  0  0
   24.6653   72.3804    2.9920 O   0  0  0  0  0  0  0  0  0  0  0  0
   22.4317   72.3170    4.7961 O   0  0  0  0  0  0  0  0  0  0  0  0
   23.8642   73.0287    0.2869 O   0  0  0  0  0  0  0  0  0  0  0  0
   23.3261   72.7093    2.6128 C   0  0  1  0  0  0  0  0  0  0  0  0
   22.6262   73.3367    3.8200 C   0  0  1  0  0  0  0  0  0  0  0  0
   23.3654   73.6916    1.4436 C   0  0  2  0  0  0  0  0  0  0  0  0
   21.2808   73.9569    3.4197 C   0  0  1  0  0  0  0  0  0  0  0  0
   21.9852   74.2871    1.1596 C   0  0  1  0  0  0  0  0  0  0  0  0
   24.6475   71.7566    3.7336 H   0  0  0  0  0  0  0  0  0  0  0  0
   23.2887   71.9333    5.0398 H   0  0  0  0  0  0  0  0  0  0  0  0
   24.7384   72.6564    0.4794 H   0  0  0  0  0  0  0  0  0  0  0  0
   20.0618   73.7919    5.4680 O   0  0  0  0  0  0  0  0  0  0  0  0
   20.6392   74.7248    4.5733 C   0  0  0  0  0  0  0  0  0  0  0  0
   19.6499   74.2663    6.2076 H   0  0  0  0  0  0  0  0  0  0  0  0
 25 28  1  0
 25 24  1  0
 25 26  1  1
 25 27  2  0
  1  4  1  0
  1 24  1  0
  1  2  1  6
  1  3  2  0
  6 11  1  0
  6 12  1  0
 29 36  1  0
 29 37  1  0
  9  7  1  6
  7 13  1  0
 10  8  1  1
  8 14  1  0
 37 28  1  1
  4  5  1  0
 33 30  1  1
 30 38  1  0
 34 31  1  1
 31 39  1  0
 35 32  1  6
 32 40  1  0
 41 42  1  0
 41 43  1  0
 15 19  2  0
 16 22  2  0
 12 17  1  6
 17 19  1  0
 17 20  1  0
 18 19  1  0
 18 22  1  0
 18 23  1  0
  9 10  1  0
  9 11  1  0
 10 12  1  0
 11  5  1  6
 33 34  1  0
 33 35  1  0
 34 36  1  0
 35 37  1  0
 36 42  1  1
 20 21  2  0
 21 22  1  0
M  CHG  2   2  -1  26  -1
M  END
>  <COMPND>  (545) 
    8629 

>  <AUTHOR>  (545) 
    GENERATED BY OPEN BABEL 3.1.1

>  <MASTER>  (545) 
        0    0    0    0    0    0    0    0   58    0   58    0

>  <minimizedAffinity>  (545) 
-6.89016

>  <CNNscore>  (545) 
0.8275060058

>  <CNNaffinity>  (545) 
4.5363121033

>  <CNN_VS>  (545) 
3.7538254261

>  <CNNaffinity_variance>  (545) 
0.0337449536

$$$$
546
     RDKit          3D

 43 45  0  0  0  0  0  0  0  0999 V2000
   20.6502   71.2461   -0.9894 P   0  0  2  0  0  0  0  0  0  0  0  0
   21.0503   70.4284    0.3481 O   0  0  0  0  0  0  0  0  0  0  0  0
   20.3534   72.7015   -0.7775 O   0  0  0  0  0  0  0  0  0  0  0  0
   19.4522   70.3714   -1.6356 O   0  0  0  0  0  0  0  0  0  0  0  0
   19.1656   70.5316   -3.0140 C   0  0  0  0  0  0  0  0  0  0  0  0
   17.5223   71.5536   -4.4384 O   0  0  0  0  0  0  0  0  0  0  0  0
   15.4789   70.0282   -2.8608 O   0  0  0  0  0  0  0  0  0  0  0  0
   15.7198   68.5303   -5.1269 O   0  0  0  0  0  0  0  0  0  0  0  0
   16.7952   69.6376   -3.2484 C   0  0  1  0  0  0  0  0  0  0  0  0
   16.8315   69.3048   -4.7254 C   0  0  2  0  0  0  0  0  0  0  0  0
   17.6899   70.8688   -3.1777 C   0  0  1  0  0  0  0  0  0  0  0  0
   16.8418   70.6854   -5.3593 C   0  0  2  0  0  0  0  0  0  0  0  0
   14.8893   69.2581   -2.8978 H   0  0  0  0  0  0  0  0  0  0  0  0
   15.7585   67.6617   -4.6971 H   0  0  0  0  0  0  0  0  0  0  0  0
   15.6183   70.2161   -7.8614 O   0  0  0  0  0  0  0  0  0  0  0  0
   19.5957   70.7859  -10.1190 O   0  0  0  0  0  0  0  0  0  0  0  0
   17.5338   70.7054   -6.6171 N   0  0  0  0  0  0  0  0  0  0  0  0
   17.5997   70.5004   -8.9835 N   0  0  0  0  0  0  0  0  0  0  0  0
   16.8267   70.4558   -7.8163 C   0  0  0  0  0  0  0  0  0  0  0  0
   18.8985   70.9706   -6.6531 C   0  0  0  0  0  0  0  0  0  0  0  0
   19.6214   71.0082   -7.7743 C   0  0  0  0  0  0  0  0  0  0  0  0
   18.9586   70.7584   -9.0706 C   0  0  0  0  0  0  0  0  0  0  0  0
   17.1284   70.3292   -9.8311 H   0  0  0  0  0  0  0  0  0  0  0  0
   21.8919   70.9502   -1.9813 O   0  0  0  0  0  0  0  0  0  0  0  0
   23.0740   71.9129   -2.5186 P   0  0  2  0  0  0  0  0  0  0  0  0
   24.1821   70.8692   -3.0667 O   0  0  0  0  0  0  0  0  0  0  0  0
   23.5899   72.8835   -1.4960 O   0  0  0  0  0  0  0  0  0  0  0  0
   22.4688   72.6002   -3.8476 O   0  0  0  0  0  0  0  0  0  0  0  0
   23.3614   73.9480   -5.5806 O   0  0  0  0  0  0  0  0  0  0  0  0
   19.8450   76.0006   -4.8930 O   0  0  0  0  0  0  0  0  0  0  0  0
   20.1292   74.4362   -7.2846 O   0  0  0  0  0  0  0  0  0  0  0  0
   21.3165   74.8720   -2.6703 O   0  0  0  0  0  0  0  0  0  0  0  0
   20.6804   74.8441   -4.9932 C   0  0  1  0  0  0  0  0  0  0  0  0
   21.2168   74.7624   -6.4237 C   0  0  1  0  0  0  0  0  0  0  0  0
   21.8294   74.9703   -3.9946 C   0  0  2  0  0  0  0  0  0  0  0  0
   22.3255   73.7077   -6.5403 C   0  0  1  0  0  0  0  0  0  0  0  0
   22.9008   73.9038   -4.2287 C   0  0  1  0  0  0  0  0  0  0  0  0
   19.1132   75.9266   -5.5242 H   0  0  0  0  0  0  0  0  0  0  0  0
   19.4359   75.1096   -7.2011 H   0  0  0  0  0  0  0  0  0  0  0  0
   20.6395   75.5525   -2.5346 H   0  0  0  0  0  0  0  0  0  0  0  0
   22.3622   72.7311   -8.7206 O   0  0  0  0  0  0  0  0  0  0  0  0
   22.9829   73.7189   -7.9186 C   0  0  0  0  0  0  0  0  0  0  0  0
   22.7703   72.7270   -9.6010 H   0  0  0  0  0  0  0  0  0  0  0  0
 25 28  1  0
 25 24  1  0
 25 26  1  6
 25 27  2  0
  1  4  1  0
  1 24  1  0
  1  2  1  1
  1  3  2  0
  6 11  1  0
  6 12  1  0
 29 36  1  0
 29 37  1  0
  9  7  1  6
  7 13  1  0
 10  8  1  6
  8 14  1  0
 37 28  1  6
  4  5  1  0
 33 30  1  6
 30 38  1  0
 34 31  1  6
 31 39  1  0
 35 32  1  1
 32 40  1  0
 41 42  1  0
 41 43  1  0
 15 19  2  0
 16 22  2  0
 12 17  1  6
 17 19  1  0
 17 20  1  0
 18 19  1  0
 18 22  1  0
 18 23  1  0
  9 10  1  0
  9 11  1  0
 10 12  1  0
 11  5  1  6
 33 34  1  0
 33 35  1  0
 34 36  1  0
 35 37  1  0
 36 42  1  6
 20 21  2  0
 21 22  1  0
M  CHG  2   2  -1  26  -1
M  END
>  <COMPND>  (546) 
    8629 

>  <AUTHOR>  (546) 
    GENERATED BY OPEN BABEL 3.1.1

>  <MASTER>  (546) 
        0    0    0    0    0    0    0    0   58    0   58    0

>  <minimizedAffinity>  (546) 
-7.79264

>  <CNNscore>  (546) 
0.8018742800

>  <CNNaffinity>  (546) 
4.5730142593

>  <CNN_VS>  (546) 
3.6669824123

>  <CNNaffinity_variance>  (546) 
0.3599210680

$$$$
547
     RDKit          3D

 43 45  0  0  0  0  0  0  0  0999 V2000
   22.8152   71.6929   -3.1152 P   0  0  2  0  0  0  0  0  0  0  0  0
   24.2065   70.8698   -3.0516 O   0  0  0  0  0  0  0  0  0  0  0  0
   22.7895   72.9575   -2.3078 O   0  0  0  0  0  0  0  0  0  0  0  0
   21.6942   70.5912   -2.7311 O   0  0  0  0  0  0  0  0  0  0  0  0
   20.8139   70.1402   -3.7458 C   0  0  0  0  0  0  0  0  0  0  0  0
   18.9315   71.3660   -4.5988 O   0  0  0  0  0  0  0  0  0  0  0  0
   17.3303   70.0490   -2.4325 O   0  0  0  0  0  0  0  0  0  0  0  0
   16.6774   68.5766   -4.6330 O   0  0  0  0  0  0  0  0  0  0  0  0
   18.4056   69.5212   -3.2074 C   0  0  1  0  0  0  0  0  0  0  0  0
   17.9383   69.2142   -4.6149 C   0  0  2  0  0  0  0  0  0  0  0  0
   19.4091   70.6432   -3.4431 C   0  0  1  0  0  0  0  0  0  0  0  0
   17.9033   70.5968   -5.2438 C   0  0  2  0  0  0  0  0  0  0  0  0
   16.6767   69.3505   -2.2688 H   0  0  0  0  0  0  0  0  0  0  0  0
   16.7517   67.7011   -4.2221 H   0  0  0  0  0  0  0  0  0  0  0  0
   15.9306   70.1649   -7.2186 O   0  0  0  0  0  0  0  0  0  0  0  0
   19.0135   70.4862  -10.6294 O   0  0  0  0  0  0  0  0  0  0  0  0
   18.1625   70.5630   -6.6556 N   0  0  0  0  0  0  0  0  0  0  0  0
   17.4672   70.3254   -8.9153 N   0  0  0  0  0  0  0  0  0  0  0  0
   17.1014   70.3380   -7.5633 C   0  0  0  0  0  0  0  0  0  0  0  0
   19.4571   70.7519   -7.1271 C   0  0  0  0  0  0  0  0  0  0  0  0
   19.7895   70.7357   -8.4196 C   0  0  0  0  0  0  0  0  0  0  0  0
   18.7398   70.5069   -9.4334 C   0  0  0  0  0  0  0  0  0  0  0  0
   16.7445   70.1701   -9.5660 H   0  0  0  0  0  0  0  0  0  0  0  0
   22.5894   71.9031   -4.7019 O   0  0  0  0  0  0  0  0  0  0  0  0
   22.4233   73.2492   -5.5814 P   0  0  2  0  0  0  0  0  0  0  0  0
   22.4208   72.7002   -7.1032 O   0  0  0  0  0  0  0  0  0  0  0  0
   23.4610   74.2980   -5.3032 O   0  0  0  0  0  0  0  0  0  0  0  0
   20.9039   73.7250   -5.3171 O   0  0  0  0  0  0  0  0  0  0  0  0
   19.2469   74.8195   -6.6106 O   0  0  0  0  0  0  0  0  0  0  0  0
   18.8035   76.9012   -3.0721 O   0  0  0  0  0  0  0  0  0  0  0  0
   16.7928   75.0107   -3.8666 O   0  0  0  0  0  0  0  0  0  0  0  0
   21.4441   76.1273   -3.9709 O   0  0  0  0  0  0  0  0  0  0  0  0
   19.0661   75.7541   -3.8848 C   0  0  1  0  0  0  0  0  0  0  0  0
   17.8245   75.4733   -4.7336 C   0  0  1  0  0  0  0  0  0  0  0  0
   20.2734   76.0396   -4.7761 C   0  0  2  0  0  0  0  0  0  0  0  0
   18.1196   74.4284   -5.8182 C   0  0  1  0  0  0  0  0  0  0  0  0
   20.4485   74.9655   -5.8511 C   0  0  1  0  0  0  0  0  0  0  0  0
   18.0383   76.7263   -2.5034 H   0  0  0  0  0  0  0  0  0  0  0  0
   16.6165   75.6794   -3.1862 H   0  0  0  0  0  0  0  0  0  0  0  0
   21.3207   76.8108   -3.2945 H   0  0  0  0  0  0  0  0  0  0  0  0
   17.3881   73.5189   -7.9030 O   0  0  0  0  0  0  0  0  0  0  0  0
   16.9428   74.2488   -6.7746 C   0  0  0  0  0  0  0  0  0  0  0  0
   16.6495   73.3967   -8.5204 H   0  0  0  0  0  0  0  0  0  0  0  0
 25 28  1  0
 25 24  1  0
 25 26  1  6
 25 27  2  0
  1  4  1  0
  1 24  1  0
  1  2  1  6
  1  3  2  0
  6 11  1  0
  6 12  1  0
 29 36  1  0
 29 37  1  0
  9  7  1  1
  7 13  1  0
 10  8  1  1
  8 14  1  0
 37 28  1  1
  4  5  1  0
 33 30  1  1
 30 38  1  0
 34 31  1  1
 31 39  1  0
 35 32  1  1
 32 40  1  0
 41 42  1  0
 41 43  1  0
 15 19  2  0
 16 22  2  0
 12 17  1  6
 17 19  1  0
 17 20  1  0
 18 19  1  0
 18 22  1  0
 18 23  1  0
  9 10  1  0
  9 11  1  0
 10 12  1  0
 11  5  1  6
 33 34  1  0
 33 35  1  0
 34 36  1  0
 35 37  1  0
 36 42  1  6
 20 21  2  0
 21 22  1  0
M  CHG  2   2  -1  26  -1
M  END
>  <COMPND>  (547) 
    8629 

>  <AUTHOR>  (547) 
    GENERATED BY OPEN BABEL 3.1.1

>  <MASTER>  (547) 
        0    0    0    0    0    0    0    0   58    0   58    0

>  <minimizedAffinity>  (547) 
-6.65973

>  <CNNscore>  (547) 
0.7818176150

>  <CNNaffinity>  (547) 
4.3907451630

>  <CNN_VS>  (547) 
3.4327619076

>  <CNNaffinity_variance>  (547) 
0.3689593077

$$$$
548
     RDKit          3D

 43 45  0  0  0  0  0  0  0  0999 V2000
   20.6476   71.2550   -4.6261 P   0  0  2  0  0  0  0  0  0  0  0  0
   21.5665   70.2807   -3.7183 O   0  0  0  0  0  0  0  0  0  0  0  0
   19.3377   71.6474   -4.0085 O   0  0  0  0  0  0  0  0  0  0  0  0
   20.5524   70.4864   -6.0467 O   0  0  0  0  0  0  0  0  0  0  0  0
   20.1144   71.2140   -7.1810 C   0  0  0  0  0  0  0  0  0  0  0  0
   18.2893   69.6575   -7.0394 O   0  0  0  0  0  0  0  0  0  0  0  0
   17.7491   70.3172   -9.9141 O   0  0  0  0  0  0  0  0  0  0  0  0
   15.8738   71.7995   -8.6015 O   0  0  0  0  0  0  0  0  0  0  0  0
   18.2068   71.1675   -8.8639 C   0  0  1  0  0  0  0  0  0  0  0  0
   17.0706   71.4912   -7.9164 C   0  0  2  0  0  0  0  0  0  0  0  0
   19.1403   70.3548   -7.9753 C   0  0  1  0  0  0  0  0  0  0  0  0
   16.9655   70.2129   -7.1021 C   0  0  2  0  0  0  0  0  0  0  0  0
   17.1514   70.8143  -10.4951 H   0  0  0  0  0  0  0  0  0  0  0  0
   15.9913   72.6205   -9.1045 H   0  0  0  0  0  0  0  0  0  0  0  0
   16.5013   68.1880   -5.1884 O   0  0  0  0  0  0  0  0  0  0  0  0
   15.1632   71.2448   -2.0094 O   0  0  0  0  0  0  0  0  0  0  0  0
   16.4960   70.4514   -5.7664 N   0  0  0  0  0  0  0  0  0  0  0  0
   15.8356   69.7117   -3.6070 N   0  0  0  0  0  0  0  0  0  0  0  0
   16.2945   69.3645   -4.8841 C   0  0  0  0  0  0  0  0  0  0  0  0
   16.2409   71.7513   -5.3433 C   0  0  0  0  0  0  0  0  0  0  0  0
   15.8024   72.0654   -4.1226 C   0  0  0  0  0  0  0  0  0  0  0  0
   15.5663   70.9883   -3.1397 C   0  0  0  0  0  0  0  0  0  0  0  0
   15.6876   68.9708   -2.9754 H   0  0  0  0  0  0  0  0  0  0  0  0
   21.6371   72.4920   -4.9478 O   0  0  0  0  0  0  0  0  0  0  0  0
   22.8191   73.1615   -4.0717 P   0  0  2  0  0  0  0  0  0  0  0  0
   22.7649   74.7195   -4.5044 O   0  0  0  0  0  0  0  0  0  0  0  0
   24.1617   72.5147   -4.2535 O   0  0  0  0  0  0  0  0  0  0  0  0
   22.2662   73.1400   -2.5555 O   0  0  0  0  0  0  0  0  0  0  0  0
   22.7709   74.2180   -0.5062 O   0  0  0  0  0  0  0  0  0  0  0  0
   22.6100   70.3124    0.8247 O   0  0  0  0  0  0  0  0  0  0  0  0
   20.4944   72.1310    1.5065 O   0  0  0  0  0  0  0  0  0  0  0  0
   23.7730   70.9111   -1.7576 O   0  0  0  0  0  0  0  0  0  0  0  0
   22.2306   71.4306    0.0179 C   0  0  1  0  0  0  0  0  0  0  0  0
   21.7364   72.5441    0.9435 C   0  0  1  0  0  0  0  0  0  0  0  0
   23.4412   71.8987   -0.7875 C   0  0  2  0  0  0  0  0  0  0  0  0
   21.5642   73.8639    0.1796 C   0  0  1  0  0  0  0  0  0  0  0  0
   23.1812   73.2439   -1.4678 C   0  0  1  0  0  0  0  0  0  0  0  0
   21.8456   70.0100    1.3384 H   0  0  0  0  0  0  0  0  0  0  0  0
   20.6169   71.2963    1.9857 H   0  0  0  0  0  0  0  0  0  0  0  0
   23.9355   70.0644   -1.3144 H   0  0  0  0  0  0  0  0  0  0  0  0
   19.8379   74.9814    1.3961 O   0  0  0  0  0  0  0  0  0  0  0  0
   21.2242   75.0244    1.1122 C   0  0  0  0  0  0  0  0  0  0  0  0
   19.6070   75.7141    1.9891 H   0  0  0  0  0  0  0  0  0  0  0  0
 25 28  1  0
 25 24  1  0
 25 26  1  6
 25 27  2  0
  1  4  1  0
  1 24  1  0
  1  2  1  1
  1  3  2  0
  6 11  1  0
  6 12  1  0
 29 36  1  0
 29 37  1  0
  9  7  1  6
  7 13  1  0
 10  8  1  6
  8 14  1  0
 37 28  1  6
  4  5  1  0
 33 30  1  1
 30 38  1  0
 34 31  1  6
 31 39  1  0
 35 32  1  6
 32 40  1  0
 41 42  1  0
 41 43  1  0
 15 19  2  0
 16 22  2  0
 12 17  1  1
 17 19  1  0
 17 20  1  0
 18 19  1  0
 18 22  1  0
 18 23  1  0
  9 10  1  0
  9 11  1  0
 10 12  1  0
 11  5  1  1
 33 34  1  0
 33 35  1  0
 34 36  1  0
 35 37  1  0
 36 42  1  1
 20 21  2  0
 21 22  1  0
M  CHG  2   2  -1  26  -1
M  END
>  <COMPND>  (548) 
    8629 

>  <AUTHOR>  (548) 
    GENERATED BY OPEN BABEL 3.1.1

>  <MASTER>  (548) 
        0    0    0    0    0    0    0    0   58    0   58    0

>  <minimizedAffinity>  (548) 
-7.00158

>  <CNNscore>  (548) 
0.7350928783

>  <CNNaffinity>  (548) 
4.5349183083

>  <CNN_VS>  (548) 
3.3335862160

>  <CNNaffinity_variance>  (548) 
0.2207550704

$$$$
549
     RDKit          3D

 43 45  0  0  0  0  0  0  0  0999 V2000
   21.8466   72.5263   -5.6387 P   0  0  2  0  0  0  0  0  0  0  0  0
   21.1999   73.9846   -5.3692 O   0  0  0  0  0  0  0  0  0  0  0  0
   23.1064   72.5325   -6.4538 O   0  0  0  0  0  0  0  0  0  0  0  0
   20.6202   71.6640   -6.2473 O   0  0  0  0  0  0  0  0  0  0  0  0
   20.1092   72.0203   -7.5199 C   0  0  0  0  0  0  0  0  0  0  0  0
   18.9127   69.9776   -7.1081 O   0  0  0  0  0  0  0  0  0  0  0  0
   18.1585   70.0537  -10.0091 O   0  0  0  0  0  0  0  0  0  0  0  0
   15.9059   70.9829   -8.7848 O   0  0  0  0  0  0  0  0  0  0  0  0
   18.3136   71.1326   -9.0886 C   0  0  1  0  0  0  0  0  0  0  0  0
   17.1425   71.1777   -8.1293 C   0  0  2  0  0  0  0  0  0  0  0  0
   19.4728   70.7940   -8.1598 C   0  0  1  0  0  0  0  0  0  0  0  0
   17.4789   70.0500   -7.1684 C   0  0  2  0  0  0  0  0  0  0  0  0
   17.4239   70.2473  -10.6131 H   0  0  0  0  0  0  0  0  0  0  0  0
   15.7372   71.7262   -9.3846 H   0  0  0  0  0  0  0  0  0  0  0  0
   16.3155   68.0648   -5.5303 O   0  0  0  0  0  0  0  0  0  0  0  0
   15.5513   71.0681   -2.1189 O   0  0  0  0  0  0  0  0  0  0  0  0
   16.9679   70.2854   -5.8474 N   0  0  0  0  0  0  0  0  0  0  0  0
   15.9361   69.5618   -3.8329 N   0  0  0  0  0  0  0  0  0  0  0  0
   16.4025   69.2200   -5.1087 C   0  0  0  0  0  0  0  0  0  0  0  0
   17.0305   71.5610   -5.2973 C   0  0  0  0  0  0  0  0  0  0  0  0
   16.5800   71.8708   -4.0798 C   0  0  0  0  0  0  0  0  0  0  0  0
   15.9747   70.8150   -3.2425 C   0  0  0  0  0  0  0  0  0  0  0  0
   15.5378   68.8357   -3.3001 H   0  0  0  0  0  0  0  0  0  0  0  0
   22.0122   71.9212   -4.1490 O   0  0  0  0  0  0  0  0  0  0  0  0
   23.2334   72.0164   -3.0942 P   0  0  2  0  0  0  0  0  0  0  0  0
   23.8955   73.4557   -3.4221 O   0  0  0  0  0  0  0  0  0  0  0  0
   24.1935   70.8640   -3.1587 O   0  0  0  0  0  0  0  0  0  0  0  0
   22.5200   72.2132   -1.6599 O   0  0  0  0  0  0  0  0  0  0  0  0
   23.4252   70.6544   -0.1212 O   0  0  0  0  0  0  0  0  0  0  0  0
   20.4402   72.2554    2.2405 O   0  0  0  0  0  0  0  0  0  0  0  0
   23.1828   72.9134    2.7817 O   0  0  0  0  0  0  0  0  0  0  0  0
   19.9636   71.8007   -0.5783 O   0  0  0  0  0  0  0  0  0  0  0  0
   21.4654   72.2769    1.2435 C   0  0  1  0  0  0  0  0  0  0  0  0
   22.7836   71.8658    1.9023 C   0  0  1  0  0  0  0  0  0  0  0  0
   21.0958   71.3028    0.1264 C   0  0  2  0  0  0  0  0  0  0  0  0
   23.8713   71.6071    0.8510 C   0  0  1  0  0  0  0  0  0  0  0  0
   22.2632   71.0785   -0.8365 C   0  0  1  0  0  0  0  0  0  0  0  0
   20.6685   72.8722    2.9525 H   0  0  0  0  0  0  0  0  0  0  0  0
   22.4872   73.0671    3.4403 H   0  0  0  0  0  0  0  0  0  0  0  0
   19.2315   71.9381    0.0421 H   0  0  0  0  0  0  0  0  0  0  0  0
   24.7861   70.2015    2.5528 O   0  0  0  0  0  0  0  0  0  0  0  0
   25.1469   71.0446    1.4742 C   0  0  0  0  0  0  0  0  0  0  0  0
   25.5880   69.8360    2.9589 H   0  0  0  0  0  0  0  0  0  0  0  0
 25 28  1  0
 25 24  1  0
 25 26  1  6
 25 27  2  0
  1  4  1  0
  1 24  1  0
  1  2  1  1
  1  3  2  0
  6 11  1  0
  6 12  1  0
 29 36  1  0
 29 37  1  0
  9  7  1  6
  7 13  1  0
 10  8  1  6
  8 14  1  0
 37 28  1  1
  4  5  1  0
 33 30  1  1
 30 38  1  0
 34 31  1  1
 31 39  1  0
 35 32  1  6
 32 40  1  0
 41 42  1  0
 41 43  1  0
 15 19  2  0
 16 22  2  0
 12 17  1  1
 17 19  1  0
 17 20  1  0
 18 19  1  0
 18 22  1  0
 18 23  1  0
  9 10  1  0
  9 11  1  0
 10 12  1  0
 11  5  1  1
 33 34  1  0
 33 35  1  0
 34 36  1  0
 35 37  1  0
 36 42  1  1
 20 21  2  0
 21 22  1  0
M  CHG  2   2  -1  26  -1
M  END
>  <COMPND>  (549) 
    8629 

>  <AUTHOR>  (549) 
    GENERATED BY OPEN BABEL 3.1.1

>  <MASTER>  (549) 
        0    0    0    0    0    0    0    0   58    0   58    0

>  <minimizedAffinity>  (549) 
-8.40025

>  <CNNscore>  (549) 
0.7096546292

>  <CNNaffinity>  (549) 
4.4751043320

>  <CNN_VS>  (549) 
3.1757783890

>  <CNNaffinity_variance>  (549) 
0.2732707858

$$$$
550
     RDKit          3D

 43 45  0  0  0  0  0  0  0  0999 V2000
   23.1942   72.0458   -3.3352 P   0  0  2  0  0  0  0  0  0  0  0  0
   23.7699   73.5250   -3.0224 O   0  0  0  0  0  0  0  0  0  0  0  0
   24.0637   70.9155   -2.8682 O   0  0  0  0  0  0  0  0  0  0  0  0
   22.8777   72.0796   -4.9215 O   0  0  0  0  0  0  0  0  0  0  0  0
   21.5551   72.3670   -5.3410 C   0  0  0  0  0  0  0  0  0  0  0  0
   20.4990   70.3943   -6.2168 O   0  0  0  0  0  0  0  0  0  0  0  0
   20.5903   71.7574   -8.8859 O   0  0  0  0  0  0  0  0  0  0  0  0
   18.0034   72.1391   -8.1118 O   0  0  0  0  0  0  0  0  0  0  0  0
   20.3719   72.3194   -7.5929 C   0  0  1  0  0  0  0  0  0  0  0  0
   18.9793   71.9831   -7.1018 C   0  0  2  0  0  0  0  0  0  0  0  0
   21.2495   71.5674   -6.6001 C   0  0  1  0  0  0  0  0  0  0  0  0
   19.1405   70.5376   -6.6629 C   0  0  2  0  0  0  0  0  0  0  0  0
   20.0406   72.2218   -9.5371 H   0  0  0  0  0  0  0  0  0  0  0  0
   17.9382   73.0753   -8.3567 H   0  0  0  0  0  0  0  0  0  0  0  0
   16.4538   69.7336   -6.9989 O   0  0  0  0  0  0  0  0  0  0  0  0
   15.8445   69.2312   -2.4583 O   0  0  0  0  0  0  0  0  0  0  0  0
   18.2570   70.1904   -5.5858 N   0  0  0  0  0  0  0  0  0  0  0  0
   16.1526   69.4840   -4.7378 N   0  0  0  0  0  0  0  0  0  0  0  0
   16.9257   69.8008   -5.8621 C   0  0  0  0  0  0  0  0  0  0  0  0
   18.7128   70.2379   -4.2728 C   0  0  0  0  0  0  0  0  0  0  0  0
   17.9625   69.9339   -3.2117 C   0  0  0  0  0  0  0  0  0  0  0  0
   16.5598   69.5171   -3.4135 C   0  0  0  0  0  0  0  0  0  0  0  0
   15.2218   69.2102   -4.9059 H   0  0  0  0  0  0  0  0  0  0  0  0
   21.7214   72.0808   -2.6699 O   0  0  0  0  0  0  0  0  0  0  0  0
   21.2561   72.1054   -1.1221 P   0  0  2  0  0  0  0  0  0  0  0  0
   21.2392   70.5397   -0.7148 O   0  0  0  0  0  0  0  0  0  0  0  0
   19.9591   72.8220   -0.8808 O   0  0  0  0  0  0  0  0  0  0  0  0
   22.5181   72.7202   -0.3258 O   0  0  0  0  0  0  0  0  0  0  0  0
   22.0810   73.3611    1.9136 O   0  0  0  0  0  0  0  0  0  0  0  0
   25.6938   75.2854    1.3699 O   0  0  0  0  0  0  0  0  0  0  0  0
   25.5680   72.9497    3.0362 O   0  0  0  0  0  0  0  0  0  0  0  0
   23.7699   75.1884   -0.7909 O   0  0  0  0  0  0  0  0  0  0  0  0
   24.7379   74.2355    1.1981 C   0  0  1  0  0  0  0  0  0  0  0  0
   24.4162   73.6500    2.5746 C   0  0  1  0  0  0  0  0  0  0  0  0
   23.4789   74.8079    0.5497 C   0  0  2  0  0  0  0  0  0  0  0  0
   23.2084   72.7058    2.5063 C   0  0  1  0  0  0  0  0  0  0  0  0
   22.3237   73.8055    0.5774 C   0  0  1  0  0  0  0  0  0  0  0  0
   26.4958   74.9286    1.7808 H   0  0  0  0  0  0  0  0  0  0  0  0
   26.3236   73.5571    3.0743 H   0  0  0  0  0  0  0  0  0  0  0  0
   24.5025   75.8233   -0.7948 H   0  0  0  0  0  0  0  0  0  0  0  0
   21.4430   72.6660    4.1159 O   0  0  0  0  0  0  0  0  0  0  0  0
   22.7724   72.2339    3.8917 C   0  0  0  0  0  0  0  0  0  0  0  0
   21.1520   72.3725    4.9939 H   0  0  0  0  0  0  0  0  0  0  0  0
 25 28  1  0
 25 24  1  0
 25 26  1  1
 25 27  2  0
  1  4  1  0
  1 24  1  0
  1  2  1  1
  1  3  2  0
  6 11  1  0
  6 12  1  0
 29 36  1  0
 29 37  1  0
  9  7  1  6
  7 13  1  0
 10  8  1  6
  8 14  1  0
 37 28  1  6
  4  5  1  0
 33 30  1  1
 30 38  1  0
 34 31  1  6
 31 39  1  0
 35 32  1  6
 32 40  1  0
 41 42  1  0
 41 43  1  0
 15 19  2  0
 16 22  2  0
 12 17  1  1
 17 19  1  0
 17 20  1  0
 18 19  1  0
 18 22  1  0
 18 23  1  0
  9 10  1  0
  9 11  1  0
 10 12  1  0
 11  5  1  1
 33 34  1  0
 33 35  1  0
 34 36  1  0
 35 37  1  0
 36 42  1  1
 20 21  2  0
 21 22  1  0
M  CHG  2   2  -1  26  -1
M  END
>  <COMPND>  (550) 
    8629 

>  <AUTHOR>  (550) 
    GENERATED BY OPEN BABEL 3.1.1

>  <MASTER>  (550) 
        0    0    0    0    0    0    0    0   58    0   58    0

>  <minimizedAffinity>  (550) 
-6.94171

>  <CNNscore>  (550) 
0.6606869698

>  <CNNaffinity>  (550) 
4.2296628952

>  <CNN_VS>  (550) 
2.7944831848

>  <CNNaffinity_variance>  (550) 
0.1679249555

$$$$
551
     RDKit          3D

 43 45  0  0  0  0  0  0  0  0999 V2000
   22.9378   73.1898   -4.8551 P   0  0  2  0  0  0  0  0  0  0  0  0
   22.9290   72.3154   -6.2163 O   0  0  0  0  0  0  0  0  0  0  0  0
   23.6687   74.4970   -4.9463 O   0  0  0  0  0  0  0  0  0  0  0  0
   23.4814   72.1576   -3.7339 O   0  0  0  0  0  0  0  0  0  0  0  0
   23.4180   72.5437   -2.3721 C   0  0  0  0  0  0  0  0  0  0  0  0
   23.7212   71.0232   -0.5364 O   0  0  0  0  0  0  0  0  0  0  0  0
   20.7454   70.6594   -0.5902 O   0  0  0  0  0  0  0  0  0  0  0  0
   21.0955   72.3862    1.4911 O   0  0  0  0  0  0  0  0  0  0  0  0
   21.5153   71.8344   -0.8392 C   0  0  1  0  0  0  0  0  0  0  0  0
   22.0611   72.3904    0.4595 C   0  0  2  0  0  0  0  0  0  0  0  0
   22.7875   71.4164   -1.5659 C   0  0  1  0  0  0  0  0  0  0  0  0
   23.2217   71.4513    0.7412 C   0  0  2  0  0  0  0  0  0  0  0  0
   19.9275   70.9012   -0.1270 H   0  0  0  0  0  0  0  0  0  0  0  0
   20.3782   72.9988    1.2653 H   0  0  0  0  0  0  0  0  0  0  0  0
   25.0455   70.1057    2.4267 O   0  0  0  0  0  0  0  0  0  0  0  0
   27.2494   74.0167    3.4698 O   0  0  0  0  0  0  0  0  0  0  0  0
   24.2823   72.0932    1.4653 N   0  0  0  0  0  0  0  0  0  0  0  0
   26.1415   72.0541    2.9446 N   0  0  0  0  0  0  0  0  0  0  0  0
   25.1426   71.3264    2.2853 C   0  0  0  0  0  0  0  0  0  0  0  0
   24.4614   73.4681    1.3581 C   0  0  0  0  0  0  0  0  0  0  0  0
   25.4181   74.1472    1.9944 C   0  0  0  0  0  0  0  0  0  0  0  0
   26.3592   73.4208    2.8712 C   0  0  0  0  0  0  0  0  0  0  0  0
   26.7524   71.5409    3.5218 H   0  0  0  0  0  0  0  0  0  0  0  0
   21.3669   73.3209   -4.4972 O   0  0  0  0  0  0  0  0  0  0  0  0
   20.1786   72.2252   -4.5172 P   0  0  2  0  0  0  0  0  0  0  0  0
   18.9312   73.0188   -3.8601 O   0  0  0  0  0  0  0  0  0  0  0  0
   20.5208   70.9337   -3.8325 O   0  0  0  0  0  0  0  0  0  0  0  0
   19.7894   72.0731   -6.0761 O   0  0  0  0  0  0  0  0  0  0  0  0
   18.9256   69.8812   -6.3327 O   0  0  0  0  0  0  0  0  0  0  0  0
   18.6795   71.1506  -10.2543 O   0  0  0  0  0  0  0  0  0  0  0  0
   16.2799   70.8698   -8.7016 O   0  0  0  0  0  0  0  0  0  0  0  0
   20.9474   71.9186   -8.6276 O   0  0  0  0  0  0  0  0  0  0  0  0
   18.6299   71.2954   -8.8324 C   0  0  1  0  0  0  0  0  0  0  0  0
   17.5461   70.3602   -8.2926 C   0  0  1  0  0  0  0  0  0  0  0  0
   19.9932   70.9337   -8.2459 C   0  0  2  0  0  0  0  0  0  0  0  0
   17.6127   70.2597   -6.7627 C   0  0  1  0  0  0  0  0  0  0  0  0
   19.9380   70.8114   -6.7220 C   0  0  1  0  0  0  0  0  0  0  0  0
   17.8171   71.3793  -10.6330 H   0  0  0  0  0  0  0  0  0  0  0  0
   16.2510   70.9287   -9.6696 H   0  0  0  0  0  0  0  0  0  0  0  0
   20.9731   71.9862   -9.5944 H   0  0  0  0  0  0  0  0  0  0  0  0
   15.3986   69.3679   -6.8688 O   0  0  0  0  0  0  0  0  0  0  0  0
   16.6450   69.2126   -6.2156 C   0  0  0  0  0  0  0  0  0  0  0  0
   14.7727   68.7078   -6.5308 H   0  0  0  0  0  0  0  0  0  0  0  0
 25 28  1  0
 25 24  1  0
 25 26  1  1
 25 27  2  0
  1  4  1  0
  1 24  1  0
  1  2  1  6
  1  3  2  0
  6 11  1  0
  6 12  1  0
 29 36  1  0
 29 37  1  0
  9  7  1  1
  7 13  1  0
 10  8  1  1
  8 14  1  0
 37 28  1  1
  4  5  1  0
 33 30  1  6
 30 38  1  0
 34 31  1  1
 31 39  1  0
 35 32  1  1
 32 40  1  0
 41 42  1  0
 41 43  1  0
 15 19  2  0
 16 22  2  0
 12 17  1  6
 17 19  1  0
 17 20  1  0
 18 19  1  0
 18 22  1  0
 18 23  1  0
  9 10  1  0
  9 11  1  0
 10 12  1  0
 11  5  1  1
 33 34  1  0
 33 35  1  0
 34 36  1  0
 35 37  1  0
 36 42  1  6
 20 21  2  0
 21 22  1  0
M  CHG  2   2  -1  26  -1
M  END
>  <COMPND>  (551) 
    8629 

>  <AUTHOR>  (551) 
    GENERATED BY OPEN BABEL 3.1.1

>  <MASTER>  (551) 
        0    0    0    0    0    0    0    0   58    0   58    0

>  <minimizedAffinity>  (551) 
-7.95910

>  <CNNscore>  (551) 
0.6600299478

>  <CNNaffinity>  (551) 
4.3228955269

>  <CNN_VS>  (551) 
2.8532404900

>  <CNNaffinity_variance>  (551) 
0.0541750975

$$$$
552
     RDKit          3D

 43 45  0  0  0  0  0  0  0  0999 V2000
   22.7077   72.9171   -3.5180 P   0  0  2  0  0  0  0  0  0  0  0  0
   23.8552   71.8159   -3.8145 O   0  0  0  0  0  0  0  0  0  0  0  0
   23.0757   74.3275   -3.8738 O   0  0  0  0  0  0  0  0  0  0  0  0
   22.3161   72.6626   -1.9688 O   0  0  0  0  0  0  0  0  0  0  0  0
   23.3589   72.5755   -1.0134 C   0  0  0  0  0  0  0  0  0  0  0  0
   24.3428   71.1357    0.6396 O   0  0  0  0  0  0  0  0  0  0  0  0
   21.5840   70.0362    1.0530 O   0  0  0  0  0  0  0  0  0  0  0  0
   21.8653   71.7440    3.1604 O   0  0  0  0  0  0  0  0  0  0  0  0
   21.9881   71.3728    0.7607 C   0  0  1  0  0  0  0  0  0  0  0  0
   22.6028   72.0163    1.9862 C   0  0  2  0  0  0  0  0  0  0  0  0
   23.1747   71.3064   -0.1926 C   0  0  1  0  0  0  0  0  0  0  0  0
   23.9880   71.3928    2.0081 C   0  0  2  0  0  0  0  0  0  0  0  0
   20.8270   70.0529    1.6602 H   0  0  0  0  0  0  0  0  0  0  0  0
   20.9921   72.1617    3.0981 H   0  0  0  0  0  0  0  0  0  0  0  0
   26.7092   70.7199    2.3549 O   0  0  0  0  0  0  0  0  0  0  0  0
   27.6685   74.8100    4.2501 O   0  0  0  0  0  0  0  0  0  0  0  0
   24.9711   72.2630    2.5891 N   0  0  0  0  0  0  0  0  0  0  0  0
   27.1847   72.7570    3.2981 N   0  0  0  0  0  0  0  0  0  0  0  0
   26.3108   71.8283    2.7186 C   0  0  0  0  0  0  0  0  0  0  0  0
   24.6035   73.5321    3.0230 C   0  0  0  0  0  0  0  0  0  0  0  0
   25.4486   74.4053    3.5747 C   0  0  0  0  0  0  0  0  0  0  0  0
   26.8668   74.0294    3.7462 C   0  0  0  0  0  0  0  0  0  0  0  0
   28.1231   72.4760    3.3988 H   0  0  0  0  0  0  0  0  0  0  0  0
   21.4290   72.3335   -4.3165 O   0  0  0  0  0  0  0  0  0  0  0  0
   20.3242   71.2327   -3.8918 P   0  0  2  0  0  0  0  0  0  0  0  0
   19.4495   71.9995   -2.7674 O   0  0  0  0  0  0  0  0  0  0  0  0
   20.9026   69.9231   -3.4397 O   0  0  0  0  0  0  0  0  0  0  0  0
   19.3428   71.1252   -5.1686 O   0  0  0  0  0  0  0  0  0  0  0  0
   19.6437   71.8084   -7.4179 O   0  0  0  0  0  0  0  0  0  0  0  0
   15.6485   72.7515   -6.9708 O   0  0  0  0  0  0  0  0  0  0  0  0
   16.4010   70.4911   -8.5747 O   0  0  0  0  0  0  0  0  0  0  0  0
   17.4912   73.1985   -4.7835 O   0  0  0  0  0  0  0  0  0  0  0  0
   16.8382   71.9863   -6.7597 C   0  0  1  0  0  0  0  0  0  0  0  0
   17.3256   71.4735   -8.1163 C   0  0  1  0  0  0  0  0  0  0  0  0
   17.8957   72.8767   -6.1099 C   0  0  2  0  0  0  0  0  0  0  0  0
   18.7337   70.8729   -8.0081 C   0  0  1  0  0  0  0  0  0  0  0  0
   19.2697   72.2043   -6.0968 C   0  0  1  0  0  0  0  0  0  0  0  0
   14.9729   72.1918   -7.3828 H   0  0  0  0  0  0  0  0  0  0  0  0
   15.5158   70.8831   -8.6381 H   0  0  0  0  0  0  0  0  0  0  0  0
   16.6203   73.6238   -4.8054 H   0  0  0  0  0  0  0  0  0  0  0  0
   18.6019   71.2260  -10.3675 O   0  0  0  0  0  0  0  0  0  0  0  0
   19.3026   70.4990   -9.3751 C   0  0  0  0  0  0  0  0  0  0  0  0
   18.9536   70.9984  -11.2429 H   0  0  0  0  0  0  0  0  0  0  0  0
 25 28  1  0
 25 24  1  0
 25 26  1  1
 25 27  2  0
  1  4  1  0
  1 24  1  0
  1  2  1  6
  1  3  2  0
  6 11  1  0
  6 12  1  0
 29 36  1  0
 29 37  1  0
  9  7  1  1
  7 13  1  0
 10  8  1  1
  8 14  1  0
 37 28  1  1
  4  5  1  0
 33 30  1  6
 30 38  1  0
 34 31  1  1
 31 39  1  0
 35 32  1  1
 32 40  1  0
 41 42  1  0
 41 43  1  0
 15 19  2  0
 16 22  2  0
 12 17  1  6
 17 19  1  0
 17 20  1  0
 18 19  1  0
 18 22  1  0
 18 23  1  0
  9 10  1  0
  9 11  1  0
 10 12  1  0
 11  5  1  1
 33 34  1  0
 33 35  1  0
 34 36  1  0
 35 37  1  0
 36 42  1  6
 20 21  2  0
 21 22  1  0
M  CHG  2   2  -1  26  -1
M  END
>  <COMPND>  (552) 
    8629 

>  <AUTHOR>  (552) 
    GENERATED BY OPEN BABEL 3.1.1

>  <MASTER>  (552) 
        0    0    0    0    0    0    0    0   58    0   58    0

>  <minimizedAffinity>  (552) 
-7.48435

>  <CNNscore>  (552) 
0.6112561822

>  <CNNaffinity>  (552) 
4.3359322548

>  <CNN_VS>  (552) 
2.6503653526

>  <CNNaffinity_variance>  (552) 
0.1533436328

$$$$
553
     RDKit          3D

 43 45  0  0  0  0  0  0  0  0999 V2000
   21.6469   72.4059   -5.6816 P   0  0  2  0  0  0  0  0  0  0  0  0
   20.9693   73.8750   -5.6715 O   0  0  0  0  0  0  0  0  0  0  0  0
   23.0204   72.3456   -6.2826 O   0  0  0  0  0  0  0  0  0  0  0  0
   20.5308   71.4683   -6.3839 O   0  0  0  0  0  0  0  0  0  0  0  0
   20.0502   71.8339   -7.6658 C   0  0  0  0  0  0  0  0  0  0  0  0
   18.7678   69.8482   -7.2339 O   0  0  0  0  0  0  0  0  0  0  0  0
   17.9887   69.9476  -10.1277 O   0  0  0  0  0  0  0  0  0  0  0  0
   15.7923   70.9811   -8.8850 O   0  0  0  0  0  0  0  0  0  0  0  0
   18.2010   71.0218   -9.2132 C   0  0  1  0  0  0  0  0  0  0  0  0
   17.0429   71.1226   -8.2426 C   0  0  2  0  0  0  0  0  0  0  0  0
   19.3533   70.6350   -8.2944 C   0  0  1  0  0  0  0  0  0  0  0  0
   17.3380   69.9845   -7.2804 C   0  0  2  0  0  0  0  0  0  0  0  0
   17.2575   70.1717  -10.7253 H   0  0  0  0  0  0  0  0  0  0  0  0
   15.6510   71.7290   -9.4862 H   0  0  0  0  0  0  0  0  0  0  0  0
   16.4157   67.9986   -5.4963 O   0  0  0  0  0  0  0  0  0  0  0  0
   15.4923   71.1088   -2.2229 O   0  0  0  0  0  0  0  0  0  0  0  0
   16.8513   70.2472   -5.9555 N   0  0  0  0  0  0  0  0  0  0  0  0
   15.9569   69.5488   -3.8678 N   0  0  0  0  0  0  0  0  0  0  0  0
   16.4104   69.1788   -5.1403 C   0  0  0  0  0  0  0  0  0  0  0  0
   16.8149   71.5523   -5.4767 C   0  0  0  0  0  0  0  0  0  0  0  0
   16.3783   71.8886   -4.2612 C   0  0  0  0  0  0  0  0  0  0  0  0
   15.9000   70.8318   -3.3467 C   0  0  0  0  0  0  0  0  0  0  0  0
   15.6444   68.8212   -3.2824 H   0  0  0  0  0  0  0  0  0  0  0  0
   21.5715   71.9602   -4.1297 O   0  0  0  0  0  0  0  0  0  0  0  0
   20.3161   71.8463   -3.1177 P   0  0  2  0  0  0  0  0  0  0  0  0
   19.7066   70.3839   -3.4458 O   0  0  0  0  0  0  0  0  0  0  0  0
   19.3273   72.9698   -3.2350 O   0  0  0  0  0  0  0  0  0  0  0  0
   20.9825   71.6916   -1.6559 O   0  0  0  0  0  0  0  0  0  0  0  0
   21.4135   73.3272    0.0041 O   0  0  0  0  0  0  0  0  0  0  0  0
   24.7416   70.9438    0.5465 O   0  0  0  0  0  0  0  0  0  0  0  0
   22.6400   70.9112    2.5036 O   0  0  0  0  0  0  0  0  0  0  0  0
   23.7377   71.4360   -2.1236 O   0  0  0  0  0  0  0  0  0  0  0  0
   23.3703   71.2182    0.2468 C   0  0  1  0  0  0  0  0  0  0  0  0
   22.7368   71.8860    1.4689 C   0  0  1  0  0  0  0  0  0  0  0  0
   23.3000   72.1421   -0.9676 C   0  0  2  0  0  0  0  0  0  0  0  0
   21.3492   72.4501    1.1348 C   0  0  1  0  0  0  0  0  0  0  0  0
   21.8866   72.6863   -1.1822 C   0  0  1  0  0  0  0  0  0  0  0  0
   24.7932   70.3572    1.3164 H   0  0  0  0  0  0  0  0  0  0  0  0
   23.5228   70.5626    2.7047 H   0  0  0  0  0  0  0  0  0  0  0  0
   24.6337   71.0968   -1.9753 H   0  0  0  0  0  0  0  0  0  0  0  0
   20.3820   72.3592    3.3177 O   0  0  0  0  0  0  0  0  0  0  0  0
   20.7660   73.2571    2.2927 C   0  0  0  0  0  0  0  0  0  0  0  0
   20.0092   72.8588    4.0614 H   0  0  0  0  0  0  0  0  0  0  0  0
 25 28  1  0
 25 24  1  0
 25 26  1  6
 25 27  2  0
  1  4  1  0
  1 24  1  0
  1  2  1  1
  1  3  2  0
  6 11  1  0
  6 12  1  0
 29 36  1  0
 29 37  1  0
  9  7  1  6
  7 13  1  0
 10  8  1  6
  8 14  1  0
 37 28  1  1
  4  5  1  0
 33 30  1  1
 30 38  1  0
 34 31  1  1
 31 39  1  0
 35 32  1  6
 32 40  1  0
 41 42  1  0
 41 43  1  0
 15 19  2  0
 16 22  2  0
 12 17  1  1
 17 19  1  0
 17 20  1  0
 18 19  1  0
 18 22  1  0
 18 23  1  0
  9 10  1  0
  9 11  1  0
 10 12  1  0
 11  5  1  1
 33 34  1  0
 33 35  1  0
 34 36  1  0
 35 37  1  0
 36 42  1  1
 20 21  2  0
 21 22  1  0
M  CHG  2   2  -1  26  -1
M  END
>  <COMPND>  (553) 
    8629 

>  <AUTHOR>  (553) 
    GENERATED BY OPEN BABEL 3.1.1

>  <MASTER>  (553) 
        0    0    0    0    0    0    0    0   58    0   58    0

>  <minimizedAffinity>  (553) 
-7.57777

>  <CNNscore>  (553) 
0.5731121302

>  <CNNaffinity>  (553) 
4.4229688644

>  <CNN_VS>  (553) 
2.5348570347

>  <CNNaffinity_variance>  (553) 
0.4177231193

$$$$
554
     RDKit          3D

 43 45  0  0  0  0  0  0  0  0999 V2000
   23.3857   72.1933   -3.6061 P   0  0  2  0  0  0  0  0  0  0  0  0
   23.9362   70.7010   -3.3106 O   0  0  0  0  0  0  0  0  0  0  0  0
   24.4270   73.1753   -4.0565 O   0  0  0  0  0  0  0  0  0  0  0  0
   22.5861   72.5869   -2.2557 O   0  0  0  0  0  0  0  0  0  0  0  0
   23.3197   72.7242   -1.0512 C   0  0  0  0  0  0  0  0  0  0  0  0
   24.3672   71.2670    0.5465 O   0  0  0  0  0  0  0  0  0  0  0  0
   21.6199   70.1958    1.0904 O   0  0  0  0  0  0  0  0  0  0  0  0
   22.0226   71.8918    3.1876 O   0  0  0  0  0  0  0  0  0  0  0  0
   22.0240   71.5292    0.7834 C   0  0  1  0  0  0  0  0  0  0  0  0
   22.7048   72.1608    1.9797 C   0  0  2  0  0  0  0  0  0  0  0  0
   23.1618   71.4538   -0.2270 C   0  0  1  0  0  0  0  0  0  0  0  0
   24.0825   71.5223    1.9317 C   0  0  2  0  0  0  0  0  0  0  0  0
   20.8937   70.2182    1.7339 H   0  0  0  0  0  0  0  0  0  0  0  0
   21.1521   72.3191    3.1695 H   0  0  0  0  0  0  0  0  0  0  0  0
   26.7265   70.7005    2.4903 O   0  0  0  0  0  0  0  0  0  0  0  0
   27.9097   74.8965    3.9853 O   0  0  0  0  0  0  0  0  0  0  0  0
   25.1024   72.3794    2.4670 N   0  0  0  0  0  0  0  0  0  0  0  0
   27.3135   72.7905    3.2341 N   0  0  0  0  0  0  0  0  0  0  0  0
   26.3980   71.8677    2.7122 C   0  0  0  0  0  0  0  0  0  0  0  0
   24.8136   73.7115    2.7430 C   0  0  0  0  0  0  0  0  0  0  0  0
   25.6976   74.5781    3.2417 C   0  0  0  0  0  0  0  0  0  0  0  0
   27.0740   74.1238    3.5264 C   0  0  0  0  0  0  0  0  0  0  0  0
   28.2224   72.4564    3.4132 H   0  0  0  0  0  0  0  0  0  0  0  0
   22.1967   71.9379   -4.6710 O   0  0  0  0  0  0  0  0  0  0  0  0
   21.5107   72.9237   -5.7530 P   0  0  2  0  0  0  0  0  0  0  0  0
   22.3798   72.6659   -7.0931 O   0  0  0  0  0  0  0  0  0  0  0  0
   21.4473   74.3606   -5.3229 O   0  0  0  0  0  0  0  0  0  0  0  0
   20.0752   72.2543   -6.0630 O   0  0  0  0  0  0  0  0  0  0  0  0
   19.2309   70.1250   -5.4549 O   0  0  0  0  0  0  0  0  0  0  0  0
   17.4876   70.4865   -9.1806 O   0  0  0  0  0  0  0  0  0  0  0  0
   15.8623   70.7282   -6.8252 O   0  0  0  0  0  0  0  0  0  0  0  0
   20.1838   71.4474   -8.7486 O   0  0  0  0  0  0  0  0  0  0  0  0
   17.9769   70.9528   -7.9202 C   0  0  1  0  0  0  0  0  0  0  0  0
   17.2008   70.2399   -6.8110 C   0  0  1  0  0  0  0  0  0  0  0  0
   19.4689   70.6417   -7.8179 C   0  0  2  0  0  0  0  0  0  0  0  0
   17.8444   70.4844   -5.4395 C   0  0  1  0  0  0  0  0  0  0  0  0
   19.9980   70.8719   -6.4012 C   0  0  1  0  0  0  0  0  0  0  0  0
   16.5408   70.6814   -9.2522 H   0  0  0  0  0  0  0  0  0  0  0  0
   15.4676   70.5681   -7.6968 H   0  0  0  0  0  0  0  0  0  0  0  0
   19.8397   71.2923   -9.6416 H   0  0  0  0  0  0  0  0  0  0  0  0
   16.6905   68.4591   -4.9146 O   0  0  0  0  0  0  0  0  0  0  0  0
   17.1812   69.6567   -4.3408 C   0  0  0  0  0  0  0  0  0  0  0  0
   16.2660   67.9220   -4.2269 H   0  0  0  0  0  0  0  0  0  0  0  0
 25 28  1  0
 25 24  1  0
 25 26  1  6
 25 27  2  0
  1  4  1  0
  1 24  1  0
  1  2  1  1
  1  3  2  0
  6 11  1  0
  6 12  1  0
 29 36  1  0
 29 37  1  0
  9  7  1  1
  7 13  1  0
 10  8  1  1
  8 14  1  0
 37 28  1  1
  4  5  1  0
 33 30  1  6
 30 38  1  0
 34 31  1  1
 31 39  1  0
 35 32  1  6
 32 40  1  0
 41 42  1  0
 41 43  1  0
 15 19  2  0
 16 22  2  0
 12 17  1  6
 17 19  1  0
 17 20  1  0
 18 19  1  0
 18 22  1  0
 18 23  1  0
  9 10  1  0
  9 11  1  0
 10 12  1  0
 11  5  1  1
 33 34  1  0
 33 35  1  0
 34 36  1  0
 35 37  1  0
 36 42  1  1
 20 21  2  0
 21 22  1  0
M  CHG  2   2  -1  26  -1
M  END
>  <COMPND>  (554) 
    8629 

>  <AUTHOR>  (554) 
    GENERATED BY OPEN BABEL 3.1.1

>  <MASTER>  (554) 
        0    0    0    0    0    0    0    0   58    0   58    0

>  <minimizedAffinity>  (554) 
-8.05329

>  <CNNscore>  (554) 
0.5048701167

>  <CNNaffinity>  (554) 
4.2469363213

>  <CNN_VS>  (554) 
2.1441512108

>  <CNNaffinity_variance>  (554) 
0.1517218500

$$$$
555
     RDKit          3D

 43 45  0  0  0  0  0  0  0  0999 V2000
   21.8832   72.3205   -5.8273 P   0  0  2  0  0  0  0  0  0  0  0  0
   21.0032   73.6073   -5.3948 O   0  0  0  0  0  0  0  0  0  0  0  0
   23.1072   72.6330   -6.6371 O   0  0  0  0  0  0  0  0  0  0  0  0
   20.8098   71.3337   -6.5286 O   0  0  0  0  0  0  0  0  0  0  0  0
   20.2167   71.7384   -7.7502 C   0  0  0  0  0  0  0  0  0  0  0  0
   18.8392   69.8385   -7.2341 O   0  0  0  0  0  0  0  0  0  0  0  0
   17.9618   69.9319  -10.0998 O   0  0  0  0  0  0  0  0  0  0  0  0
   15.8752   71.1128   -8.8004 O   0  0  0  0  0  0  0  0  0  0  0  0
   18.2687   71.0079   -9.2146 C   0  0  1  0  0  0  0  0  0  0  0  0
   17.1545   71.1929   -8.2057 C   0  0  2  0  0  0  0  0  0  0  0  0
   19.4297   70.5711   -8.3299 C   0  0  1  0  0  0  0  0  0  0  0  0
   17.4189   70.0566   -7.2324 C   0  0  2  0  0  0  0  0  0  0  0  0
   17.2232   70.1875  -10.6752 H   0  0  0  0  0  0  0  0  0  0  0  0
   15.7551   71.8570   -9.4108 H   0  0  0  0  0  0  0  0  0  0  0  0
   16.4887   68.1533   -5.3643 O   0  0  0  0  0  0  0  0  0  0  0  0
   15.8251   71.3753   -2.1364 O   0  0  0  0  0  0  0  0  0  0  0  0
   16.9969   70.3704   -5.8965 N   0  0  0  0  0  0  0  0  0  0  0  0
   16.1592   69.7591   -3.7585 N   0  0  0  0  0  0  0  0  0  0  0  0
   16.5459   69.3408   -5.0381 C   0  0  0  0  0  0  0  0  0  0  0  0
   17.0330   71.6868   -5.4495 C   0  0  0  0  0  0  0  0  0  0  0  0
   16.6595   72.0695   -4.2267 C   0  0  0  0  0  0  0  0  0  0  0  0
   16.1756   71.0552   -3.2679 C   0  0  0  0  0  0  0  0  0  0  0  0
   15.8411   69.0591   -3.1433 H   0  0  0  0  0  0  0  0  0  0  0  0
   22.1789   71.5912   -4.4154 O   0  0  0  0  0  0  0  0  0  0  0  0
   23.2562   71.9198   -3.2559 P   0  0  2  0  0  0  0  0  0  0  0  0
   23.9339   73.2999   -3.7595 O   0  0  0  0  0  0  0  0  0  0  0  0
   24.2329   70.8108   -2.9912 O   0  0  0  0  0  0  0  0  0  0  0  0
   22.3652   72.3453   -1.9792 O   0  0  0  0  0  0  0  0  0  0  0  0
   21.7767   71.2303    0.0276 O   0  0  0  0  0  0  0  0  0  0  0  0
   18.1486   73.0064   -0.8289 O   0  0  0  0  0  0  0  0  0  0  0  0
   19.7428   74.0114    1.3382 O   0  0  0  0  0  0  0  0  0  0  0  0
   19.7728   71.9338   -2.9716 O   0  0  0  0  0  0  0  0  0  0  0  0
   19.5750   72.9142   -0.7805 C   0  0  1  0  0  0  0  0  0  0  0  0
   19.9969   72.7718    0.6832 C   0  0  1  0  0  0  0  0  0  0  0  0
   20.0244   71.6994   -1.5902 C   0  0  2  0  0  0  0  0  0  0  0  0
   21.4817   72.4011    0.7982 C   0  0  1  0  0  0  0  0  0  0  0  0
   21.5053   71.3880   -1.3665 C   0  0  1  0  0  0  0  0  0  0  0  0
   17.8567   73.7760   -0.3170 H   0  0  0  0  0  0  0  0  0  0  0  0
   18.8020   74.2341    1.2578 H   0  0  0  0  0  0  0  0  0  0  0  0
   18.8320   72.1295   -3.1001 H   0  0  0  0  0  0  0  0  0  0  0  0
   20.7154   72.0544    3.0346 O   0  0  0  0  0  0  0  0  0  0  0  0
   21.8860   72.0999    2.2397 C   0  0  0  0  0  0  0  0  0  0  0  0
   20.9573   71.8632    3.9547 H   0  0  0  0  0  0  0  0  0  0  0  0
 25 28  1  0
 25 24  1  0
 25 26  1  6
 25 27  2  0
  1  4  1  0
  1 24  1  0
  1  2  1  1
  1  3  2  0
  6 11  1  0
  6 12  1  0
 29 36  1  0
 29 37  1  0
  9  7  1  6
  7 13  1  0
 10  8  1  6
  8 14  1  0
 37 28  1  1
  4  5  1  0
 33 30  1  1
 30 38  1  0
 34 31  1  1
 31 39  1  0
 35 32  1  6
 32 40  1  0
 41 42  1  0
 41 43  1  0
 15 19  2  0
 16 22  2  0
 12 17  1  1
 17 19  1  0
 17 20  1  0
 18 19  1  0
 18 22  1  0
 18 23  1  0
  9 10  1  0
  9 11  1  0
 10 12  1  0
 11  5  1  1
 33 34  1  0
 33 35  1  0
 34 36  1  0
 35 37  1  0
 36 42  1  1
 20 21  2  0
 21 22  1  0
M  CHG  2   2  -1  26  -1
M  END
>  <COMPND>  (555) 
    8629 

>  <AUTHOR>  (555) 
    GENERATED BY OPEN BABEL 3.1.1

>  <MASTER>  (555) 
        0    0    0    0    0    0    0    0   58    0   58    0

>  <minimizedAffinity>  (555) 
-7.73738

>  <CNNscore>  (555) 
0.4984305799

>  <CNNaffinity>  (555) 
4.1868295670

>  <CNN_VS>  (555) 
2.0868439674

>  <CNNaffinity_variance>  (555) 
0.5207114816

$$$$
556
     RDKit          3D

 43 45  0  0  0  0  0  0  0  0999 V2000
   23.4216   73.4731   -4.0771 P   0  0  2  0  0  0  0  0  0  0  0  0
   22.5922   74.8400   -4.3242 O   0  0  0  0  0  0  0  0  0  0  0  0
   24.9126   73.6356   -4.0340 O   0  0  0  0  0  0  0  0  0  0  0  0
   22.8570   72.4659   -5.2104 O   0  0  0  0  0  0  0  0  0  0  0  0
   21.4559   72.3848   -5.4056 C   0  0  0  0  0  0  0  0  0  0  0  0
   20.4378   70.3763   -6.2442 O   0  0  0  0  0  0  0  0  0  0  0  0
   20.5393   71.6754   -8.9447 O   0  0  0  0  0  0  0  0  0  0  0  0
   17.9388   72.0380   -8.2080 O   0  0  0  0  0  0  0  0  0  0  0  0
   20.2985   72.2653   -7.6682 C   0  0  1  0  0  0  0  0  0  0  0  0
   18.9056   71.9208   -7.1840 C   0  0  2  0  0  0  0  0  0  0  0  0
   21.1758   71.5505   -6.6480 C   0  0  1  0  0  0  0  0  0  0  0  0
   19.0825   70.4889   -6.7082 C   0  0  2  0  0  0  0  0  0  0  0  0
   19.9902   72.1158   -9.6130 H   0  0  0  0  0  0  0  0  0  0  0  0
   17.8629   72.9669   -8.4764 H   0  0  0  0  0  0  0  0  0  0  0  0
   16.3892   69.7094   -7.0496 O   0  0  0  0  0  0  0  0  0  0  0  0
   15.7602   69.2335   -2.5088 O   0  0  0  0  0  0  0  0  0  0  0  0
   18.1921   70.1552   -5.6325 N   0  0  0  0  0  0  0  0  0  0  0  0
   16.0783   69.4729   -4.7883 N   0  0  0  0  0  0  0  0  0  0  0  0
   16.8580   69.7771   -5.9115 C   0  0  0  0  0  0  0  0  0  0  0  0
   18.6440   70.2042   -4.3183 C   0  0  0  0  0  0  0  0  0  0  0  0
   17.8874   69.9123   -3.2583 C   0  0  0  0  0  0  0  0  0  0  0  0
   16.4814   69.5081   -3.4628 C   0  0  0  0  0  0  0  0  0  0  0  0
   15.1454   69.2073   -4.9583 H   0  0  0  0  0  0  0  0  0  0  0  0
   22.7686   72.8926   -2.7171 O   0  0  0  0  0  0  0  0  0  0  0  0
   22.8037   71.4114   -2.0708 P   0  0  2  0  0  0  0  0  0  0  0  0
   24.3200   70.9207   -2.3497 O   0  0  0  0  0  0  0  0  0  0  0  0
   21.7463   70.4849   -2.5974 O   0  0  0  0  0  0  0  0  0  0  0  0
   22.7423   71.6595   -0.4772 O   0  0  0  0  0  0  0  0  0  0  0  0
   22.0106   70.9441    1.6605 O   0  0  0  0  0  0  0  0  0  0  0  0
   19.1716   73.8524    0.9306 O   0  0  0  0  0  0  0  0  0  0  0  0
   21.2332   74.3384    2.8701 O   0  0  0  0  0  0  0  0  0  0  0  0
   20.0828   72.1504   -1.2264 O   0  0  0  0  0  0  0  0  0  0  0  0
   20.4711   73.2576    0.8771 C   0  0  1  0  0  0  0  0  0  0  0  0
   20.9654   73.0555    2.3109 C   0  0  1  0  0  0  0  0  0  0  0  0
   20.3778   71.9191    0.1469 C   0  0  2  0  0  0  0  0  0  0  0  0
   22.2281   72.1840    2.3439 C   0  0  1  0  0  0  0  0  0  0  0  0
   21.6690   71.1103    0.2829 C   0  0  1  0  0  0  0  0  0  0  0  0
   19.2240   74.7029    1.3926 H   0  0  0  0  0  0  0  0  0  0  0  0
   20.4280   74.8789    2.8428 H   0  0  0  0  0  0  0  0  0  0  0  0
   19.2631   72.6630   -1.2990 H   0  0  0  0  0  0  0  0  0  0  0  0
   23.3610   72.9380    4.3078 O   0  0  0  0  0  0  0  0  0  0  0  0
   22.6478   71.8391    3.7711 C   0  0  0  0  0  0  0  0  0  0  0  0
   23.6342   72.7328    5.2161 H   0  0  0  0  0  0  0  0  0  0  0  0
 25 28  1  0
 25 24  1  0
 25 26  1  1
 25 27  2  0
  1  4  1  0
  1 24  1  0
  1  2  1  6
  1  3  2  0
  6 11  1  0
  6 12  1  0
 29 36  1  0
 29 37  1  0
  9  7  1  6
  7 13  1  0
 10  8  1  6
  8 14  1  0
 37 28  1  6
  4  5  1  0
 33 30  1  1
 30 38  1  0
 34 31  1  6
 31 39  1  0
 35 32  1  6
 32 40  1  0
 41 42  1  0
 41 43  1  0
 15 19  2  0
 16 22  2  0
 12 17  1  1
 17 19  1  0
 17 20  1  0
 18 19  1  0
 18 22  1  0
 18 23  1  0
  9 10  1  0
  9 11  1  0
 10 12  1  0
 11  5  1  1
 33 34  1  0
 33 35  1  0
 34 36  1  0
 35 37  1  0
 36 42  1  1
 20 21  2  0
 21 22  1  0
M  CHG  2   2  -1  26  -1
M  END
>  <COMPND>  (556) 
    8629 

>  <AUTHOR>  (556) 
    GENERATED BY OPEN BABEL 3.1.1

>  <MASTER>  (556) 
        0    0    0    0    0    0    0    0   58    0   58    0

>  <minimizedAffinity>  (556) 
-7.12513

>  <CNNscore>  (556) 
0.4453924000

>  <CNNaffinity>  (556) 
3.9710259438

>  <CNN_VS>  (556) 
1.7686647177

>  <CNNaffinity_variance>  (556) 
0.3281662464

$$$$
557
     RDKit          3D

 43 45  0  0  0  0  0  0  0  0999 V2000
   23.1406   73.0113   -4.7826 P   0  0  2  0  0  0  0  0  0  0  0  0
   24.2630   72.1869   -3.9592 O   0  0  0  0  0  0  0  0  0  0  0  0
   22.8862   72.5168   -6.1762 O   0  0  0  0  0  0  0  0  0  0  0  0
   23.6219   74.5511   -4.6603 O   0  0  0  0  0  0  0  0  0  0  0  0
   24.6349   74.8704   -3.7224 C   0  0  0  0  0  0  0  0  0  0  0  0
   22.9196   75.5135   -2.1674 O   0  0  0  0  0  0  0  0  0  0  0  0
   24.8203   77.6378   -1.2372 O   0  0  0  0  0  0  0  0  0  0  0  0
   25.0849   75.7208    0.6842 O   0  0  0  0  0  0  0  0  0  0  0  0
   25.0970   76.3085   -1.6750 C   0  0  1  0  0  0  0  0  0  0  0  0
   24.6945   75.3097   -0.6102 C   0  0  2  0  0  0  0  0  0  0  0  0
   24.1304   75.9758   -2.8048 C   0  0  1  0  0  0  0  0  0  0  0  0
   23.1853   75.2614   -0.7779 C   0  0  2  0  0  0  0  0  0  0  0  0
   25.4255   77.8731   -0.5159 H   0  0  0  0  0  0  0  0  0  0  0  0
   26.0531   75.7355    0.7406 H   0  0  0  0  0  0  0  0  0  0  0  0
   20.6301   74.8864    0.3661 O   0  0  0  0  0  0  0  0  0  0  0  0
   21.1803   70.3141    0.5466 O   0  0  0  0  0  0  0  0  0  0  0  0
   22.6353   73.9837   -0.4223 N   0  0  0  0  0  0  0  0  0  0  0  0
   20.9061   72.6101    0.4549 N   0  0  0  0  0  0  0  0  0  0  0  0
   21.3431   73.9049    0.1472 C   0  0  0  0  0  0  0  0  0  0  0  0
   23.3750   72.8263   -0.6392 C   0  0  0  0  0  0  0  0  0  0  0  0
   22.9444   71.5992   -0.3391 C   0  0  0  0  0  0  0  0  0  0  0  0
   21.6047   71.4292    0.2594 C   0  0  0  0  0  0  0  0  0  0  0  0
   20.0089   72.5307    0.8529 H   0  0  0  0  0  0  0  0  0  0  0  0
   21.8558   72.9533   -3.8033 O   0  0  0  0  0  0  0  0  0  0  0  0
   20.6879   71.8465   -3.6488 P   0  0  2  0  0  0  0  0  0  0  0  0
   19.7521   72.4555   -2.4779 O   0  0  0  0  0  0  0  0  0  0  0  0
   21.1887   70.4567   -3.3813 O   0  0  0  0  0  0  0  0  0  0  0  0
   19.8062   71.9926   -4.9927 O   0  0  0  0  0  0  0  0  0  0  0  0
   18.6412   69.9559   -5.3265 O   0  0  0  0  0  0  0  0  0  0  0  0
   17.5060   71.9370   -8.7671 O   0  0  0  0  0  0  0  0  0  0  0  0
   15.5981   71.5576   -6.6542 O   0  0  0  0  0  0  0  0  0  0  0  0
   20.2053   72.2215   -7.7610 O   0  0  0  0  0  0  0  0  0  0  0  0
   17.8598   71.8223   -7.3861 C   0  0  1  0  0  0  0  0  0  0  0  0
   16.8546   70.8880   -6.7096 C   0  0  1  0  0  0  0  0  0  0  0  0
   19.2751   71.2578   -7.2787 C   0  0  2  0  0  0  0  0  0  0  0  0
   17.3183   70.5043   -5.2979 C   0  0  1  0  0  0  0  0  0  0  0  0
   19.6181   70.8630   -5.8411 C   0  0  1  0  0  0  0  0  0  0  0  0
   16.6085   72.2953   -8.8423 H   0  0  0  0  0  0  0  0  0  0  0  0
   15.3169   71.7948   -7.5519 H   0  0  0  0  0  0  0  0  0  0  0  0
   19.9775   72.4629   -8.6719 H   0  0  0  0  0  0  0  0  0  0  0  0
   16.4134   68.3016   -5.4921 O   0  0  0  0  0  0  0  0  0  0  0  0
   16.4122   69.4505   -4.6650 C   0  0  0  0  0  0  0  0  0  0  0  0
   15.8410   67.6222   -5.1016 H   0  0  0  0  0  0  0  0  0  0  0  0
 25 28  1  0
 25 24  1  0
 25 26  1  1
 25 27  2  0
  1  4  1  0
  1 24  1  0
  1  2  1  1
  1  3  2  0
  6 11  1  0
  6 12  1  0
 29 36  1  0
 29 37  1  0
  9  7  1  1
  7 13  1  0
 10  8  1  1
  8 14  1  0
 37 28  1  1
  4  5  1  0
 33 30  1  6
 30 38  1  0
 34 31  1  1
 31 39  1  0
 35 32  1  1
 32 40  1  0
 41 42  1  0
 41 43  1  0
 15 19  2  0
 16 22  2  0
 12 17  1  6
 17 19  1  0
 17 20  1  0
 18 19  1  0
 18 22  1  0
 18 23  1  0
  9 10  1  0
  9 11  1  0
 10 12  1  0
 11  5  1  6
 33 34  1  0
 33 35  1  0
 34 36  1  0
 35 37  1  0
 36 42  1  6
 20 21  2  0
 21 22  1  0
M  CHG  2   2  -1  26  -1
M  END
>  <COMPND>  (557) 
    8629 

>  <AUTHOR>  (557) 
    GENERATED BY OPEN BABEL 3.1.1

>  <MASTER>  (557) 
        0    0    0    0    0    0    0    0   58    0   58    0

>  <minimizedAffinity>  (557) 
-6.63400

>  <CNNscore>  (557) 
0.4263198972

>  <CNNaffinity>  (557) 
3.8375046253

>  <CNN_VS>  (557) 
1.6360045671

>  <CNNaffinity_variance>  (557) 
0.4275566936

$$$$
558
     RDKit          3D

 43 45  0  0  0  0  0  0  0  0999 V2000
   23.5459   72.2736   -3.2724 P   0  0  2  0  0  0  0  0  0  0  0  0
   24.1707   70.7955   -3.0664 O   0  0  0  0  0  0  0  0  0  0  0  0
   24.5321   73.3268   -3.6842 O   0  0  0  0  0  0  0  0  0  0  0  0
   22.7523   72.5558   -1.8910 O   0  0  0  0  0  0  0  0  0  0  0  0
   23.5035   72.7135   -0.6998 C   0  0  0  0  0  0  0  0  0  0  0  0
   24.0423   71.6847    1.4037 O   0  0  0  0  0  0  0  0  0  0  0  0
   21.5220   70.0970    1.0599 O   0  0  0  0  0  0  0  0  0  0  0  0
   20.7666   72.0373    2.8209 O   0  0  0  0  0  0  0  0  0  0  0  0
   21.7928   71.4498    0.6965 C   0  0  1  0  0  0  0  0  0  0  0  0
   21.8230   72.3293    1.9290 C   0  0  2  0  0  0  0  0  0  0  0  0
   23.2364   71.5265    0.2155 C   0  0  1  0  0  0  0  0  0  0  0  0
   23.1877   72.0062    2.5133 C   0  0  2  0  0  0  0  0  0  0  0  0
   20.6054   70.0230    1.3701 H   0  0  0  0  0  0  0  0  0  0  0  0
   19.9199   72.2600    2.4034 H   0  0  0  0  0  0  0  0  0  0  0  0
   22.5358   72.6801    5.1776 O   0  0  0  0  0  0  0  0  0  0  0  0
   25.4155   76.2785    5.1654 O   0  0  0  0  0  0  0  0  0  0  0  0
   23.7524   73.1140    3.2312 N   0  0  0  0  0  0  0  0  0  0  0  0
   23.9703   74.4712    5.1694 N   0  0  0  0  0  0  0  0  0  0  0  0
   23.3566   73.3664    4.5654 C   0  0  0  0  0  0  0  0  0  0  0  0
   24.6878   73.9362    2.6125 C   0  0  0  0  0  0  0  0  0  0  0  0
   25.2628   74.9865    3.2019 C   0  0  0  0  0  0  0  0  0  0  0  0
   24.9044   75.3192    4.5958 C   0  0  0  0  0  0  0  0  0  0  0  0
   23.7097   74.6665    6.0988 H   0  0  0  0  0  0  0  0  0  0  0  0
   22.3518   72.0191   -4.3319 O   0  0  0  0  0  0  0  0  0  0  0  0
   21.8613   72.8838   -5.6065 P   0  0  2  0  0  0  0  0  0  0  0  0
   22.8414   72.3845   -6.7929 O   0  0  0  0  0  0  0  0  0  0  0  0
   21.8671   74.3682   -5.3820 O   0  0  0  0  0  0  0  0  0  0  0  0
   20.4174   72.2702   -5.9851 O   0  0  0  0  0  0  0  0  0  0  0  0
   19.5809   70.0992   -5.5338 O   0  0  0  0  0  0  0  0  0  0  0  0
   17.7081   70.7895   -9.1487 O   0  0  0  0  0  0  0  0  0  0  0  0
   16.1697   70.8316   -6.7239 O   0  0  0  0  0  0  0  0  0  0  0  0
   20.4245   71.6995   -8.7327 O   0  0  0  0  0  0  0  0  0  0  0  0
   18.2453   71.1427   -7.8711 C   0  0  1  0  0  0  0  0  0  0  0  0
   17.5045   70.3389   -6.8006 C   0  0  1  0  0  0  0  0  0  0  0  0
   19.7379   70.8185   -7.8502 C   0  0  2  0  0  0  0  0  0  0  0  0
   18.1983   70.4609   -5.4372 C   0  0  1  0  0  0  0  0  0  0  0  0
   20.3188   70.9227   -6.4389 C   0  0  1  0  0  0  0  0  0  0  0  0
   16.7607   70.9934   -9.1688 H   0  0  0  0  0  0  0  0  0  0  0  0
   15.7431   70.7493   -7.5913 H   0  0  0  0  0  0  0  0  0  0  0  0
   20.0477   71.6238   -9.6228 H   0  0  0  0  0  0  0  0  0  0  0  0
   16.6830   68.6552   -5.0472 O   0  0  0  0  0  0  0  0  0  0  0  0
   17.5692   69.5433   -4.3912 C   0  0  0  0  0  0  0  0  0  0  0  0
   16.2754   68.0648   -4.3938 H   0  0  0  0  0  0  0  0  0  0  0  0
 25 28  1  0
 25 24  1  0
 25 26  1  6
 25 27  2  0
  1  4  1  0
  1 24  1  0
  1  2  1  1
  1  3  2  0
  6 11  1  0
  6 12  1  0
 29 36  1  0
 29 37  1  0
  9  7  1  1
  7 13  1  0
 10  8  1  1
  8 14  1  0
 37 28  1  1
  4  5  1  0
 33 30  1  6
 30 38  1  0
 34 31  1  1
 31 39  1  0
 35 32  1  6
 32 40  1  0
 41 42  1  0
 41 43  1  0
 15 19  2  0
 16 22  2  0
 12 17  1  6
 17 19  1  0
 17 20  1  0
 18 19  1  0
 18 22  1  0
 18 23  1  0
  9 10  1  0
  9 11  1  0
 10 12  1  0
 11  5  1  6
 33 34  1  0
 33 35  1  0
 34 36  1  0
 35 37  1  0
 36 42  1  1
 20 21  2  0
 21 22  1  0
M  CHG  2   2  -1  26  -1
M  END
>  <COMPND>  (558) 
    8629 

>  <AUTHOR>  (558) 
    GENERATED BY OPEN BABEL 3.1.1

>  <MASTER>  (558) 
        0    0    0    0    0    0    0    0   58    0   58    0

>  <minimizedAffinity>  (558) 
-7.89865

>  <CNNscore>  (558) 
0.4171163738

>  <CNNaffinity>  (558) 
3.9047291279

>  <CNN_VS>  (558) 
1.6287264824

>  <CNNaffinity_variance>  (558) 
0.3382694125

$$$$
559
     RDKit          3D

 43 45  0  0  0  0  0  0  0  0999 V2000
   23.0342   73.7361   -4.3950 P   0  0  2  0  0  0  0  0  0  0  0  0
   24.0746   72.5063   -4.5448 O   0  0  0  0  0  0  0  0  0  0  0  0
   23.6068   75.0906   -4.6935 O   0  0  0  0  0  0  0  0  0  0  0  0
   22.4183   73.5452   -2.9110 O   0  0  0  0  0  0  0  0  0  0  0  0
   22.4921   72.2651   -2.3079 C   0  0  0  0  0  0  0  0  0  0  0  0
   22.8643   73.4343   -0.2420 O   0  0  0  0  0  0  0  0  0  0  0  0
   24.4848   71.0547    0.5960 O   0  0  0  0  0  0  0  0  0  0  0  0
   22.1166   70.6448    1.8845 O   0  0  0  0  0  0  0  0  0  0  0  0
   23.2960   71.1048   -0.1912 C   0  0  1  0  0  0  0  0  0  0  0  0
   22.0960   71.3936    0.6864 C   0  0  2  0  0  0  0  0  0  0  0  0
   23.3617   72.3538   -1.0613 C   0  0  1  0  0  0  0  0  0  0  0  0
   22.2345   72.8871    0.9279 C   0  0  2  0  0  0  0  0  0  0  0  0
   24.4659   70.2650    1.1599 H   0  0  0  0  0  0  0  0  0  0  0  0
   22.0254   69.7015    1.6780 H   0  0  0  0  0  0  0  0  0  0  0  0
   20.9081   73.0949    3.4130 O   0  0  0  0  0  0  0  0  0  0  0  0
   17.3696   75.3784    1.5405 O   0  0  0  0  0  0  0  0  0  0  0  0
   20.9656   73.5311    1.1187 N   0  0  0  0  0  0  0  0  0  0  0  0
   19.1473   74.2319    2.4786 N   0  0  0  0  0  0  0  0  0  0  0  0
   20.3850   73.5799    2.4075 C   0  0  0  0  0  0  0  0  0  0  0  0
   20.3103   74.1059    0.0351 C   0  0  0  0  0  0  0  0  0  0  0  0
   19.1298   74.7228    0.1195 C   0  0  0  0  0  0  0  0  0  0  0  0
   18.4555   74.8176    1.4303 C   0  0  0  0  0  0  0  0  0  0  0  0
   18.7237   74.2778    3.3665 H   0  0  0  0  0  0  0  0  0  0  0  0
   21.8108   73.2963   -5.3555 O   0  0  0  0  0  0  0  0  0  0  0  0
   20.3200   73.8994   -5.5193 P   0  0  2  0  0  0  0  0  0  0  0  0
   20.5683   75.2964   -6.2968 O   0  0  0  0  0  0  0  0  0  0  0  0
   19.5657   74.0348   -4.2284 O   0  0  0  0  0  0  0  0  0  0  0  0
   19.6112   72.9455   -6.6114 O   0  0  0  0  0  0  0  0  0  0  0  0
   19.0298   70.6828   -6.2132 O   0  0  0  0  0  0  0  0  0  0  0  0
   19.5357   70.5233  -10.3083 O   0  0  0  0  0  0  0  0  0  0  0  0
   16.8897   70.3861   -9.2000 O   0  0  0  0  0  0  0  0  0  0  0  0
   21.3106   72.1451   -8.6962 O   0  0  0  0  0  0  0  0  0  0  0  0
   19.1618   71.1209   -9.0639 C   0  0  1  0  0  0  0  0  0  0  0  0
   18.0765   70.2541   -8.4225 C   0  0  1  0  0  0  0  0  0  0  0  0
   20.3903   71.2009   -8.1595 C   0  0  2  0  0  0  0  0  0  0  0  0
   17.8144   70.6784   -6.9712 C   0  0  1  0  0  0  0  0  0  0  0  0
   20.0132   71.5831   -6.7271 C   0  0  1  0  0  0  0  0  0  0  0  0
   18.7602   70.4700  -10.8874 H   0  0  0  0  0  0  0  0  0  0  0  0
   17.0690   70.1156  -10.1143 H   0  0  0  0  0  0  0  0  0  0  0  0
   21.5416   71.8919   -9.6030 H   0  0  0  0  0  0  0  0  0  0  0  0
   15.5938   69.7983   -6.9115 O   0  0  0  0  0  0  0  0  0  0  0  0
   16.8504   69.7291   -6.2630 C   0  0  0  0  0  0  0  0  0  0  0  0
   14.9702   69.1990   -6.4716 H   0  0  0  0  0  0  0  0  0  0  0  0
 25 28  1  0
 25 24  1  0
 25 26  1  6
 25 27  2  0
  1  4  1  0
  1 24  1  0
  1  2  1  1
  1  3  2  0
  6 11  1  0
  6 12  1  0
 29 36  1  0
 29 37  1  0
  9  7  1  1
  7 13  1  0
 10  8  1  1
  8 14  1  0
 37 28  1  6
  4  5  1  0
 33 30  1  6
 30 38  1  0
 34 31  1  6
 31 39  1  0
 35 32  1  6
 32 40  1  0
 41 42  1  0
 41 43  1  0
 15 19  2  0
 16 22  2  0
 12 17  1  6
 17 19  1  0
 17 20  1  0
 18 19  1  0
 18 22  1  0
 18 23  1  0
  9 10  1  0
  9 11  1  0
 10 12  1  0
 11  5  1  6
 33 34  1  0
 33 35  1  0
 34 36  1  0
 35 37  1  0
 36 42  1  1
 20 21  2  0
 21 22  1  0
M  CHG  2   2  -1  26  -1
M  END
>  <COMPND>  (559) 
    8629 

>  <AUTHOR>  (559) 
    GENERATED BY OPEN BABEL 3.1.1

>  <MASTER>  (559) 
        0    0    0    0    0    0    0    0   58    0   58    0

>  <minimizedAffinity>  (559) 
-6.74322

>  <CNNscore>  (559) 
0.4011218846

>  <CNNaffinity>  (559) 
4.0599589348

>  <CNN_VS>  (559) 
1.6285383701

>  <CNNaffinity_variance>  (559) 
0.2117325068

$$$$
560
     RDKit          3D

 43 45  0  0  0  0  0  0  0  0999 V2000
   16.6983   71.8181   -2.1878 P   0  0  2  0  0  0  0  0  0  0  0  0
   16.2836   72.9024   -3.3147 O   0  0  0  0  0  0  0  0  0  0  0  0
   15.7961   71.7724   -0.9898 O   0  0  0  0  0  0  0  0  0  0  0  0
   18.2529   72.1485   -1.8845 O   0  0  0  0  0  0  0  0  0  0  0  0
   18.5611   73.0334   -0.8216 C   0  0  0  0  0  0  0  0  0  0  0  0
   20.6270   74.2221   -0.5167 O   0  0  0  0  0  0  0  0  0  0  0  0
   20.2840   75.1661   -3.3420 O   0  0  0  0  0  0  0  0  0  0  0  0
   22.1088   73.1566   -3.6041 O   0  0  0  0  0  0  0  0  0  0  0  0
   19.9522   73.9038   -2.7660 C   0  0  1  0  0  0  0  0  0  0  0  0
   21.2071   73.0929   -2.5180 C   0  0  2  0  0  0  0  0  0  0  0  0
   19.4489   74.1521   -1.3495 C   0  0  1  0  0  0  0  0  0  0  0  0
   21.7592   73.7432   -1.2609 C   0  0  2  0  0  0  0  0  0  0  0  0
   20.6077   75.0332   -4.2472 H   0  0  0  0  0  0  0  0  0  0  0  0
   21.7119   72.7299   -4.3795 H   0  0  0  0  0  0  0  0  0  0  0  0
   24.3120   74.2642   -0.1702 O   0  0  0  0  0  0  0  0  0  0  0  0
   24.4942   70.1267    1.8520 O   0  0  0  0  0  0  0  0  0  0  0  0
   22.4966   72.8200   -0.4452 N   0  0  0  0  0  0  0  0  0  0  0  0
   24.4005   72.2037    0.8360 N   0  0  0  0  0  0  0  0  0  0  0  0
   23.7711   73.1789    0.0520 C   0  0  0  0  0  0  0  0  0  0  0  0
   21.9553   71.5745   -0.1458 C   0  0  0  0  0  0  0  0  0  0  0  0
   22.5689   70.6552    0.6023 C   0  0  0  0  0  0  0  0  0  0  0  0
   23.9041   70.9511    1.1606 C   0  0  0  0  0  0  0  0  0  0  0  0
   25.2896   72.4314    1.1929 H   0  0  0  0  0  0  0  0  0  0  0  0
   16.7769   70.4369   -3.0239 O   0  0  0  0  0  0  0  0  0  0  0  0
   18.0368   69.6579   -3.6710 P   0  0  2  0  0  0  0  0  0  0  0  0
   17.6601   68.0993   -3.4551 O   0  0  0  0  0  0  0  0  0  0  0  0
   19.3667   70.0582   -3.1008 O   0  0  0  0  0  0  0  0  0  0  0  0
   17.8916   69.8959   -5.2607 O   0  0  0  0  0  0  0  0  0  0  0  0
   19.1839   71.3586   -6.6051 O   0  0  0  0  0  0  0  0  0  0  0  0
   15.6138   71.5439   -8.6719 O   0  0  0  0  0  0  0  0  0  0  0  0
   17.8328   70.1119   -9.8003 O   0  0  0  0  0  0  0  0  0  0  0  0
   15.6037   71.4360   -5.7791 O   0  0  0  0  0  0  0  0  0  0  0  0
   16.6372   70.9190   -7.8924 C   0  0  1  0  0  0  0  0  0  0  0  0
   17.9473   70.9847   -8.6799 C   0  0  1  0  0  0  0  0  0  0  0  0
   16.7721   71.6570   -6.5618 C   0  0  2  0  0  0  0  0  0  0  0  0
   19.1405   70.5775   -7.8050 C   0  0  1  0  0  0  0  0  0  0  0  0
   18.0174   71.2121   -5.7929 C   0  0  1  0  0  0  0  0  0  0  0  0
   15.5228   71.0798   -9.5179 H   0  0  0  0  0  0  0  0  0  0  0  0
   17.0754   70.3796  -10.3442 H   0  0  0  0  0  0  0  0  0  0  0  0
   14.8224   71.7219   -6.2768 H   0  0  0  0  0  0  0  0  0  0  0  0
   20.8715   72.1334   -8.3454 O   0  0  0  0  0  0  0  0  0  0  0  0
   20.4728   70.7865   -8.5216 C   0  0  0  0  0  0  0  0  0  0  0  0
   21.7182   72.2810   -8.7959 H   0  0  0  0  0  0  0  0  0  0  0  0
 25 28  1  0
 25 24  1  0
 25 26  1  6
 25 27  2  0
  1  4  1  0
  1 24  1  0
  1  2  1  6
  1  3  2  0
  6 11  1  0
  6 12  1  0
 29 36  1  0
 29 37  1  0
  9  7  1  1
  7 13  1  0
 10  8  1  6
  8 14  1  0
 37 28  1  6
  4  5  1  0
 33 30  1  6
 30 38  1  0
 34 31  1  6
 31 39  1  0
 35 32  1  1
 32 40  1  0
 41 42  1  0
 41 43  1  0
 15 19  2  0
 16 22  2  0
 12 17  1  1
 17 19  1  0
 17 20  1  0
 18 19  1  0
 18 22  1  0
 18 23  1  0
  9 10  1  0
  9 11  1  0
 10 12  1  0
 11  5  1  1
 33 34  1  0
 33 35  1  0
 34 36  1  0
 35 37  1  0
 36 42  1  6
 20 21  2  0
 21 22  1  0
M  CHG  2   2  -1  26  -1
M  END
>  <COMPND>  (560) 
    8629 

>  <AUTHOR>  (560) 
    GENERATED BY OPEN BABEL 3.1.1

>  <MASTER>  (560) 
        0    0    0    0    0    0    0    0   58    0   58    0

>  <minimizedAffinity>  (560) 
-6.87367

>  <CNNscore>  (560) 
0.3767987490

>  <CNNaffinity>  (560) 
4.0824937820

>  <CNN_VS>  (560) 
1.5382785797

>  <CNNaffinity_variance>  (560) 
0.0850863457

$$$$
561
     RDKit          3D

 43 45  0  0  0  0  0  0  0  0999 V2000
   23.0073   71.5783   -2.4900 P   0  0  2  0  0  0  0  0  0  0  0  0
   23.1805   73.1119   -2.0050 O   0  0  0  0  0  0  0  0  0  0  0  0
   24.2246   70.9730   -3.1249 O   0  0  0  0  0  0  0  0  0  0  0  0
   21.6769   71.6098   -3.4102 O   0  0  0  0  0  0  0  0  0  0  0  0
   20.8770   70.4424   -3.4826 C   0  0  0  0  0  0  0  0  0  0  0  0
   18.9070   71.4718   -4.3954 O   0  0  0  0  0  0  0  0  0  0  0  0
   17.3908   70.0530   -2.2324 O   0  0  0  0  0  0  0  0  0  0  0  0
   16.9216   68.4851   -4.4137 O   0  0  0  0  0  0  0  0  0  0  0  0
   18.5258   69.6127   -2.9762 C   0  0  1  0  0  0  0  0  0  0  0  0
   18.1175   69.2373   -4.3855 C   0  0  2  0  0  0  0  0  0  0  0  0
   19.4258   70.8184   -3.2164 C   0  0  1  0  0  0  0  0  0  0  0  0
   17.9677   70.5985   -5.0433 C   0  0  2  0  0  0  0  0  0  0  0  0
   16.8013   69.3000   -2.0665 H   0  0  0  0  0  0  0  0  0  0  0  0
   17.0682   67.6282   -3.9836 H   0  0  0  0  0  0  0  0  0  0  0  0
   16.1116   69.8509   -7.0368 O   0  0  0  0  0  0  0  0  0  0  0  0
   19.1914   70.4951  -10.4044 O   0  0  0  0  0  0  0  0  0  0  0  0
   18.2577   70.5623   -6.4490 N   0  0  0  0  0  0  0  0  0  0  0  0
   17.6466   70.1724   -8.7120 N   0  0  0  0  0  0  0  0  0  0  0  0
   17.2551   70.1716   -7.3671 C   0  0  0  0  0  0  0  0  0  0  0  0
   19.5241   70.9121   -6.9046 C   0  0  0  0  0  0  0  0  0  0  0  0
   19.8818   70.9064   -8.1904 C   0  0  0  0  0  0  0  0  0  0  0  0
   18.8932   70.5106   -9.2142 C   0  0  0  0  0  0  0  0  0  0  0  0
   16.9647   69.9033   -9.3696 H   0  0  0  0  0  0  0  0  0  0  0  0
   22.5041   70.8278   -1.1495 O   0  0  0  0  0  0  0  0  0  0  0  0
   21.7335   71.3894    0.1557 P   0  0  2  0  0  0  0  0  0  0  0  0
   21.3668   70.0446    0.9772 O   0  0  0  0  0  0  0  0  0  0  0  0
   20.5549   72.2659   -0.1551 O   0  0  0  0  0  0  0  0  0  0  0  0
   22.8843   72.1027    1.0342 O   0  0  0  0  0  0  0  0  0  0  0  0
   24.5897   71.7226    2.6354 O   0  0  0  0  0  0  0  0  0  0  0  0
   22.1122   74.1516    4.8742 O   0  0  0  0  0  0  0  0  0  0  0  0
   24.6054   75.1871    3.8946 O   0  0  0  0  0  0  0  0  0  0  0  0
   20.9715   72.1817    3.0860 O   0  0  0  0  0  0  0  0  0  0  0  0
   22.7531   73.6889    3.6824 C   0  0  1  0  0  0  0  0  0  0  0  0
   24.2664   73.8033    3.8762 C   0  0  1  0  0  0  0  0  0  0  0  0
   22.3514   72.2367    3.4313 C   0  0  2  0  0  0  0  0  0  0  0  0
   25.0247   73.0822    2.7537 C   0  0  1  0  0  0  0  0  0  0  0  0
   23.1994   71.5985    2.3295 C   0  0  1  0  0  0  0  0  0  0  0  0
   22.3626   75.0734    5.0391 H   0  0  0  0  0  0  0  0  0  0  0  0
   24.1195   75.6309    4.6074 H   0  0  0  0  0  0  0  0  0  0  0  0
   20.4454   72.5884    3.7915 H   0  0  0  0  0  0  0  0  0  0  0  0
   26.9848   71.7185    2.8401 O   0  0  0  0  0  0  0  0  0  0  0  0
   26.5298   73.0483    3.0104 C   0  0  0  0  0  0  0  0  0  0  0  0
   27.9412   71.6818    3.0001 H   0  0  0  0  0  0  0  0  0  0  0  0
 25 28  1  0
 25 24  1  0
 25 26  1  1
 25 27  2  0
  1  4  1  0
  1 24  1  0
  1  2  1  1
  1  3  2  0
  6 11  1  0
  6 12  1  0
 29 36  1  0
 29 37  1  0
  9  7  1  1
  7 13  1  0
 10  8  1  1
  8 14  1  0
 37 28  1  6
  4  5  1  0
 33 30  1  1
 30 38  1  0
 34 31  1  6
 31 39  1  0
 35 32  1  6
 32 40  1  0
 41 42  1  0
 41 43  1  0
 15 19  2  0
 16 22  2  0
 12 17  1  6
 17 19  1  0
 17 20  1  0
 18 19  1  0
 18 22  1  0
 18 23  1  0
  9 10  1  0
  9 11  1  0
 10 12  1  0
 11  5  1  6
 33 34  1  0
 33 35  1  0
 34 36  1  0
 35 37  1  0
 36 42  1  1
 20 21  2  0
 21 22  1  0
M  CHG  2   2  -1  26  -1
M  END
>  <COMPND>  (561) 
    8629 

>  <AUTHOR>  (561) 
    GENERATED BY OPEN BABEL 3.1.1

>  <MASTER>  (561) 
        0    0    0    0    0    0    0    0   58    0   58    0

>  <minimizedAffinity>  (561) 
-8.12088

>  <CNNscore>  (561) 
0.9161865711

>  <CNNaffinity>  (561) 
4.7573208809

>  <CNN_VS>  (561) 
4.3585934639

>  <CNNaffinity_variance>  (561) 
0.0590944998

$$$$
562
     RDKit          3D

 43 45  0  0  0  0  0  0  0  0999 V2000
   20.4287   71.2042   -1.3380 P   0  0  2  0  0  0  0  0  0  0  0  0
   20.9854   70.5213    0.0189 O   0  0  0  0  0  0  0  0  0  0  0  0
   19.9331   72.6118   -1.1819 O   0  0  0  0  0  0  0  0  0  0  0  0
   19.3480   70.1366   -1.8950 O   0  0  0  0  0  0  0  0  0  0  0  0
   19.0284   70.1555   -3.2753 C   0  0  0  0  0  0  0  0  0  0  0  0
   17.4168   71.2740   -4.6630 O   0  0  0  0  0  0  0  0  0  0  0  0
   15.3341   69.6926   -3.1960 O   0  0  0  0  0  0  0  0  0  0  0  0
   15.5865   68.3159   -5.5364 O   0  0  0  0  0  0  0  0  0  0  0  0
   16.6505   69.3063   -3.5874 C   0  0  1  0  0  0  0  0  0  0  0  0
   16.7022   69.0531   -5.0797 C   0  0  2  0  0  0  0  0  0  0  0  0
   17.5593   70.5202   -3.4391 C   0  0  1  0  0  0  0  0  0  0  0  0
   16.7380   70.4656   -5.6380 C   0  0  2  0  0  0  0  0  0  0  0  0
   14.7356   68.9334   -3.2819 H   0  0  0  0  0  0  0  0  0  0  0  0
   15.6089   67.4250   -5.1537 H   0  0  0  0  0  0  0  0  0  0  0  0
   15.5011   70.5223   -8.1767 O   0  0  0  0  0  0  0  0  0  0  0  0
   19.5578   70.7668  -10.3504 O   0  0  0  0  0  0  0  0  0  0  0  0
   17.4468   70.5442   -6.8840 N   0  0  0  0  0  0  0  0  0  0  0  0
   17.5220   70.6442   -9.2570 N   0  0  0  0  0  0  0  0  0  0  0  0
   16.7310   70.5658   -8.1037 C   0  0  0  0  0  0  0  0  0  0  0  0
   18.8364   70.5994   -6.8885 C   0  0  0  0  0  0  0  0  0  0  0  0
   19.5760   70.6726   -7.9970 C   0  0  0  0  0  0  0  0  0  0  0  0
   18.9057   70.6999   -9.3131 C   0  0  0  0  0  0  0  0  0  0  0  0
   17.0450   70.6601  -10.1183 H   0  0  0  0  0  0  0  0  0  0  0  0
   21.6668   71.0367   -2.3637 O   0  0  0  0  0  0  0  0  0  0  0  0
   22.9766   71.9526   -2.6051 P   0  0  2  0  0  0  0  0  0  0  0  0
   24.0701   70.8973   -3.1603 O   0  0  0  0  0  0  0  0  0  0  0  0
   23.4193   72.7243   -1.3958 O   0  0  0  0  0  0  0  0  0  0  0  0
   22.6064   72.8663   -3.8830 O   0  0  0  0  0  0  0  0  0  0  0  0
   20.3274   72.8666   -4.5333 O   0  0  0  0  0  0  0  0  0  0  0  0
   21.9899   74.4746   -7.9540 O   0  0  0  0  0  0  0  0  0  0  0  0
   20.4803   76.1589   -6.1843 O   0  0  0  0  0  0  0  0  0  0  0  0
   23.3665   72.3593   -6.5363 O   0  0  0  0  0  0  0  0  0  0  0  0
   21.8691   74.2458   -6.5475 C   0  0  1  0  0  0  0  0  0  0  0  0
   20.4914   74.7367   -6.0983 C   0  0  1  0  0  0  0  0  0  0  0  0
   22.0244   72.7518   -6.2696 C   0  0  2  0  0  0  0  0  0  0  0  0
   20.1830   74.2856   -4.6643 C   0  0  1  0  0  0  0  0  0  0  0  0
   21.6463   72.4029   -4.8290 C   0  0  1  0  0  0  0  0  0  0  0  0
   21.8927   75.4214   -8.1372 H   0  0  0  0  0  0  0  0  0  0  0  0
   20.6769   76.4306   -7.0947 H   0  0  0  0  0  0  0  0  0  0  0  0
   23.5936   72.5852   -7.4513 H   0  0  0  0  0  0  0  0  0  0  0  0
   18.4204   73.8652   -3.1069 O   0  0  0  0  0  0  0  0  0  0  0  0
   18.7531   74.6284   -4.2520 C   0  0  0  0  0  0  0  0  0  0  0  0
   17.5130   74.0732   -2.8329 H   0  0  0  0  0  0  0  0  0  0  0  0
 25 28  1  0
 25 24  1  0
 25 26  1  6
 25 27  2  0
  1  4  1  0
  1 24  1  0
  1  2  1  1
  1  3  2  0
  6 11  1  0
  6 12  1  0
 29 36  1  0
 29 37  1  0
  9  7  1  6
  7 13  1  0
 10  8  1  6
  8 14  1  0
 37 28  1  1
  4  5  1  0
 33 30  1  6
 30 38  1  0
 34 31  1  1
 31 39  1  0
 35 32  1  1
 32 40  1  0
 41 42  1  0
 41 43  1  0
 15 19  2  0
 16 22  2  0
 12 17  1  6
 17 19  1  0
 17 20  1  0
 18 19  1  0
 18 22  1  0
 18 23  1  0
  9 10  1  0
  9 11  1  0
 10 12  1  0
 11  5  1  6
 33 34  1  0
 33 35  1  0
 34 36  1  0
 35 37  1  0
 36 42  1  6
 20 21  2  0
 21 22  1  0
M  CHG  2   2  -1  26  -1
M  END
>  <COMPND>  (562) 
    8629 

>  <AUTHOR>  (562) 
    GENERATED BY OPEN BABEL 3.1.1

>  <MASTER>  (562) 
        0    0    0    0    0    0    0    0   58    0   58    0

>  <minimizedAffinity>  (562) 
-7.87663

>  <CNNscore>  (562) 
0.9131599665

>  <CNNaffinity>  (562) 
4.6712884903

>  <CNN_VS>  (562) 
4.2656335831

>  <CNNaffinity_variance>  (562) 
0.5978854299

$$$$
563
     RDKit          3D

 43 45  0  0  0  0  0  0  0  0999 V2000
   20.7079   72.6585   -3.4640 P   0  0  2  0  0  0  0  0  0  0  0  0
   20.2790   72.7385   -1.9060 O   0  0  0  0  0  0  0  0  0  0  0  0
   20.9329   73.9850   -4.1283 O   0  0  0  0  0  0  0  0  0  0  0  0
   19.5703   71.7220   -4.1323 O   0  0  0  0  0  0  0  0  0  0  0  0
   18.9010   70.7809   -3.3112 C   0  0  0  0  0  0  0  0  0  0  0  0
   17.1681   71.5805   -4.7712 O   0  0  0  0  0  0  0  0  0  0  0  0
   15.2959   69.8554   -3.1871 O   0  0  0  0  0  0  0  0  0  0  0  0
   15.7371   68.3571   -5.4225 O   0  0  0  0  0  0  0  0  0  0  0  0
   16.6533   69.6138   -3.5537 C   0  0  1  0  0  0  0  0  0  0  0  0
   16.7463   69.2621   -5.0238 C   0  0  2  0  0  0  0  0  0  0  0  0
   17.3983   70.9416   -3.4965 C   0  0  1  0  0  0  0  0  0  0  0  0
   16.6045   70.6236   -5.6830 C   0  0  2  0  0  0  0  0  0  0  0  0
   14.8000   69.0216   -3.2160 H   0  0  0  0  0  0  0  0  0  0  0  0
   15.8708   67.5063   -4.9764 H   0  0  0  0  0  0  0  0  0  0  0  0
   15.7025   72.0801   -7.9287 O   0  0  0  0  0  0  0  0  0  0  0  0
   19.3744   70.8526  -10.4290 O   0  0  0  0  0  0  0  0  0  0  0  0
   17.3052   70.7022   -6.9337 N   0  0  0  0  0  0  0  0  0  0  0  0
   17.5316   71.4679   -9.1717 N   0  0  0  0  0  0  0  0  0  0  0  0
   16.7656   71.4600   -7.9991 C   0  0  0  0  0  0  0  0  0  0  0  0
   18.5136   70.0330   -7.0943 C   0  0  0  0  0  0  0  0  0  0  0  0
   19.2312   70.0495   -8.2194 C   0  0  0  0  0  0  0  0  0  0  0  0
   18.7377   70.8179   -9.3805 C   0  0  0  0  0  0  0  0  0  0  0  0
   17.1752   71.9889   -9.9275 H   0  0  0  0  0  0  0  0  0  0  0  0
   22.0033   71.6922   -3.4352 O   0  0  0  0  0  0  0  0  0  0  0  0
   23.4257   71.8457   -2.6826 P   0  0  2  0  0  0  0  0  0  0  0  0
   23.9946   73.2509   -3.2476 O   0  0  0  0  0  0  0  0  0  0  0  0
   24.3524   70.6803   -2.8747 O   0  0  0  0  0  0  0  0  0  0  0  0
   23.0432   72.1497   -1.1444 O   0  0  0  0  0  0  0  0  0  0  0  0
   24.3922   71.3677    0.6404 O   0  0  0  0  0  0  0  0  0  0  0  0
   20.8142   71.7963    2.6565 O   0  0  0  0  0  0  0  0  0  0  0  0
   22.9473   73.6569    3.1425 O   0  0  0  0  0  0  0  0  0  0  0  0
   20.8293   70.8061   -0.0636 O   0  0  0  0  0  0  0  0  0  0  0  0
   21.8135   72.1320    1.6900 C   0  0  1  0  0  0  0  0  0  0  0  0
   23.1168   72.4332    2.4324 C   0  0  1  0  0  0  0  0  0  0  0  0
   21.9988   70.9548    0.7342 C   0  0  2  0  0  0  0  0  0  0  0  0
   24.2975   72.5400    1.4580 C   0  0  1  0  0  0  0  0  0  0  0  0
   23.2286   71.1389   -0.1568 C   0  0  1  0  0  0  0  0  0  0  0  0
   20.6913   72.5398    3.2662 H   0  0  0  0  0  0  0  0  0  0  0  0
   22.1984   73.5762    3.7539 H   0  0  0  0  0  0  0  0  0  0  0  0
   20.0579   70.6900    0.5121 H   0  0  0  0  0  0  0  0  0  0  0  0
   25.9069   74.0618    2.3538 O   0  0  0  0  0  0  0  0  0  0  0  0
   25.6309   72.6832    2.1885 C   0  0  0  0  0  0  0  0  0  0  0  0
   26.7526   74.1683    2.8177 H   0  0  0  0  0  0  0  0  0  0  0  0
 25 28  1  0
 25 24  1  0
 25 26  1  6
 25 27  2  0
  1  4  1  0
  1 24  1  0
  1  2  1  1
  1  3  2  0
  6 11  1  0
  6 12  1  0
 29 36  1  0
 29 37  1  0
  9  7  1  6
  7 13  1  0
 10  8  1  6
  8 14  1  0
 37 28  1  6
  4  5  1  0
 33 30  1  1
 30 38  1  0
 34 31  1  6
 31 39  1  0
 35 32  1  6
 32 40  1  0
 41 42  1  0
 41 43  1  0
 15 19  2  0
 16 22  2  0
 12 17  1  6
 17 19  1  0
 17 20  1  0
 18 19  1  0
 18 22  1  0
 18 23  1  0
  9 10  1  0
  9 11  1  0
 10 12  1  0
 11  5  1  6
 33 34  1  0
 33 35  1  0
 34 36  1  0
 35 37  1  0
 36 42  1  1
 20 21  2  0
 21 22  1  0
M  CHG  2   2  -1  26  -1
M  END
>  <COMPND>  (563) 
    8629 

>  <AUTHOR>  (563) 
    GENERATED BY OPEN BABEL 3.1.1

>  <MASTER>  (563) 
        0    0    0    0    0    0    0    0   58    0   58    0

>  <minimizedAffinity>  (563) 
-7.65554

>  <CNNscore>  (563) 
0.9033116698

>  <CNNaffinity>  (563) 
4.7137703896

>  <CNN_VS>  (563) 
4.2580037117

>  <CNNaffinity_variance>  (563) 
0.1040388495

$$$$
564
     RDKit          3D

 43 45  0  0  0  0  0  0  0  0999 V2000
   21.4322   72.6772   -4.8503 P   0  0  2  0  0  0  0  0  0  0  0  0
   21.4469   74.2918   -4.9528 O   0  0  0  0  0  0  0  0  0  0  0  0
   22.2758   71.9698   -5.8698 O   0  0  0  0  0  0  0  0  0  0  0  0
   19.8583   72.3019   -4.8581 O   0  0  0  0  0  0  0  0  0  0  0  0
   19.3258   71.5975   -3.7499 C   0  0  0  0  0  0  0  0  0  0  0  0
   17.4571   71.8886   -5.2321 O   0  0  0  0  0  0  0  0  0  0  0  0
   15.8598   70.3428   -3.2197 O   0  0  0  0  0  0  0  0  0  0  0  0
   16.3855   68.4675   -5.1285 O   0  0  0  0  0  0  0  0  0  0  0  0
   17.2210   70.1749   -3.6125 C   0  0  1  0  0  0  0  0  0  0  0  0
   17.2976   69.5371   -4.9840 C   0  0  2  0  0  0  0  0  0  0  0  0
   17.8086   71.5566   -3.8710 C   0  0  1  0  0  0  0  0  0  0  0  0
   16.9735   70.7089   -5.8950 C   0  0  2  0  0  0  0  0  0  0  0  0
   15.4632   69.4737   -3.0487 H   0  0  0  0  0  0  0  0  0  0  0  0
   16.6340   67.7471   -4.5285 H   0  0  0  0  0  0  0  0  0  0  0  0
   15.6018   70.6818   -8.3639 O   0  0  0  0  0  0  0  0  0  0  0  0
   19.5257   70.2826  -10.7482 O   0  0  0  0  0  0  0  0  0  0  0  0
   17.6118   70.5993   -7.1764 N   0  0  0  0  0  0  0  0  0  0  0  0
   17.5568   70.4833   -9.5491 N   0  0  0  0  0  0  0  0  0  0  0  0
   16.8314   70.5942   -8.3559 C   0  0  0  0  0  0  0  0  0  0  0  0
   18.9966   70.4987   -7.2544 C   0  0  0  0  0  0  0  0  0  0  0  0
   19.6730   70.3923   -8.4000 C   0  0  0  0  0  0  0  0  0  0  0  0
   18.9327   70.3794   -9.6782 C   0  0  0  0  0  0  0  0  0  0  0  0
   17.0341   70.4772  -10.3837 H   0  0  0  0  0  0  0  0  0  0  0  0
   21.8627   72.4065   -3.3160 O   0  0  0  0  0  0  0  0  0  0  0  0
   23.3194   72.2328   -2.6370 P   0  0  2  0  0  0  0  0  0  0  0  0
   24.0613   73.6268   -2.9890 O   0  0  0  0  0  0  0  0  0  0  0  0
   24.0628   71.0063   -3.0807 O   0  0  0  0  0  0  0  0  0  0  0  0
   23.0415   72.3087   -1.0489 O   0  0  0  0  0  0  0  0  0  0  0  0
   23.9444   70.7370    0.4779 O   0  0  0  0  0  0  0  0  0  0  0  0
   20.6487   71.9492    2.6505 O   0  0  0  0  0  0  0  0  0  0  0  0
   23.2713   72.7900    3.4648 O   0  0  0  0  0  0  0  0  0  0  0  0
   20.4482   71.6290   -0.2195 O   0  0  0  0  0  0  0  0  0  0  0  0
   21.7477   72.1126    1.7499 C   0  0  1  0  0  0  0  0  0  0  0  0
   23.0367   71.7689    2.4990 C   0  0  1  0  0  0  0  0  0  0  0  0
   21.5560   71.1814    0.5543 C   0  0  2  0  0  0  0  0  0  0  0  0
   24.2259   71.6618    1.5350 C   0  0  1  0  0  0  0  0  0  0  0  0
   22.8141   71.1095   -0.3130 C   0  0  1  0  0  0  0  0  0  0  0  0
   20.7640   72.5381    3.4117 H   0  0  0  0  0  0  0  0  0  0  0  0
   22.5129   72.8476    4.0669 H   0  0  0  0  0  0  0  0  0  0  0  0
   19.6581   71.6700    0.3407 H   0  0  0  0  0  0  0  0  0  0  0  0
   25.2044   69.9195    2.8449 O   0  0  0  0  0  0  0  0  0  0  0  0
   25.4883   71.1661    2.2369 C   0  0  0  0  0  0  0  0  0  0  0  0
   25.9990   69.5917    3.2953 H   0  0  0  0  0  0  0  0  0  0  0  0
 25 28  1  0
 25 24  1  0
 25 26  1  6
 25 27  2  0
  1  4  1  0
  1 24  1  0
  1  2  1  6
  1  3  2  0
  6 11  1  0
  6 12  1  0
 29 36  1  0
 29 37  1  0
  9  7  1  6
  7 13  1  0
 10  8  1  1
  8 14  1  0
 37 28  1  1
  4  5  1  0
 33 30  1  1
 30 38  1  0
 34 31  1  1
 31 39  1  0
 35 32  1  6
 32 40  1  0
 41 42  1  0
 41 43  1  0
 15 19  2  0
 16 22  2  0
 12 17  1  6
 17 19  1  0
 17 20  1  0
 18 19  1  0
 18 22  1  0
 18 23  1  0
  9 10  1  0
  9 11  1  0
 10 12  1  0
 11  5  1  6
 33 34  1  0
 33 35  1  0
 34 36  1  0
 35 37  1  0
 36 42  1  1
 20 21  2  0
 21 22  1  0
M  CHG  2   2  -1  26  -1
M  END
>  <COMPND>  (564) 
    8629 

>  <AUTHOR>  (564) 
    GENERATED BY OPEN BABEL 3.1.1

>  <MASTER>  (564) 
        0    0    0    0    0    0    0    0   58    0   58    0

>  <minimizedAffinity>  (564) 
-8.26786

>  <CNNscore>  (564) 
0.8708841801

>  <CNNaffinity>  (564) 
4.7406916618

>  <CNN_VS>  (564) 
4.1285934448

>  <CNNaffinity_variance>  (564) 
0.0528433621

$$$$
565
     RDKit          3D

 43 45  0  0  0  0  0  0  0  0999 V2000
   22.6487   72.2159   -4.0743 P   0  0  2  0  0  0  0  0  0  0  0  0
   23.0087   73.2313   -5.2813 O   0  0  0  0  0  0  0  0  0  0  0  0
   23.8216   71.4854   -3.4894 O   0  0  0  0  0  0  0  0  0  0  0  0
   21.4755   71.2850   -4.6868 O   0  0  0  0  0  0  0  0  0  0  0  0
   20.7896   70.4018   -3.8166 C   0  0  0  0  0  0  0  0  0  0  0  0
   18.9372   71.5936   -4.7767 O   0  0  0  0  0  0  0  0  0  0  0  0
   17.2837   70.4330   -2.5609 O   0  0  0  0  0  0  0  0  0  0  0  0
   16.6489   68.8337   -4.6766 O   0  0  0  0  0  0  0  0  0  0  0  0
   18.3650   69.8454   -3.2827 C   0  0  1  0  0  0  0  0  0  0  0  0
   17.9173   69.4567   -4.6762 C   0  0  2  0  0  0  0  0  0  0  0  0
   19.3864   70.9388   -3.5702 C   0  0  1  0  0  0  0  0  0  0  0  0
   17.9102   70.7976   -5.3904 C   0  0  2  0  0  0  0  0  0  0  0  0
   16.6187   69.7537   -2.3655 H   0  0  0  0  0  0  0  0  0  0  0  0
   16.7054   67.9848   -4.2108 H   0  0  0  0  0  0  0  0  0  0  0  0
   15.9660   70.2623   -7.3681 O   0  0  0  0  0  0  0  0  0  0  0  0
   19.1084   70.3385  -10.7386 O   0  0  0  0  0  0  0  0  0  0  0  0
   18.1925   70.6727   -6.7926 N   0  0  0  0  0  0  0  0  0  0  0  0
   17.5322   70.3009   -9.0448 N   0  0  0  0  0  0  0  0  0  0  0  0
   17.1442   70.4018   -7.7027 C   0  0  0  0  0  0  0  0  0  0  0  0
   19.4967   70.8189   -7.2527 C   0  0  0  0  0  0  0  0  0  0  0  0
   19.8503   70.7184   -8.5357 C   0  0  0  0  0  0  0  0  0  0  0  0
   18.8151   70.4369   -9.5511 C   0  0  0  0  0  0  0  0  0  0  0  0
   16.8188   70.1122   -9.6968 H   0  0  0  0  0  0  0  0  0  0  0  0
   21.8551   73.1601   -3.0295 O   0  0  0  0  0  0  0  0  0  0  0  0
   22.3718   74.3642   -2.0828 P   0  0  2  0  0  0  0  0  0  0  0  0
   21.1333   75.4050   -2.0970 O   0  0  0  0  0  0  0  0  0  0  0  0
   23.6847   74.9582   -2.5042 O   0  0  0  0  0  0  0  0  0  0  0  0
   22.3659   73.7437   -0.5929 O   0  0  0  0  0  0  0  0  0  0  0  0
   23.1265   71.5521   -0.1084 O   0  0  0  0  0  0  0  0  0  0  0  0
   20.5122   72.0560    3.0479 O   0  0  0  0  0  0  0  0  0  0  0  0
   23.3429   72.1003    3.5305 O   0  0  0  0  0  0  0  0  0  0  0  0
   19.8354   73.0953    0.4323 O   0  0  0  0  0  0  0  0  0  0  0  0
   21.4787   72.4688    2.0780 C   0  0  1  0  0  0  0  0  0  0  0  0
   22.7601   71.6644    2.3055 C   0  0  1  0  0  0  0  0  0  0  0  0
   20.9232   72.2108    0.6786 C   0  0  2  0  0  0  0  0  0  0  0  0
   23.7474   71.8557    1.1462 C   0  0  1  0  0  0  0  0  0  0  0  0
   21.9985   72.3808   -0.3961 C   0  0  1  0  0  0  0  0  0  0  0  0
   20.8585   72.2176    3.9387 H   0  0  0  0  0  0  0  0  0  0  0  0
   22.7091   71.9746    4.2542 H   0  0  0  0  0  0  0  0  0  0  0  0
   19.1614   72.9778    1.1192 H   0  0  0  0  0  0  0  0  0  0  0  0
   24.6947   69.9720    2.2702 O   0  0  0  0  0  0  0  0  0  0  0  0
   24.9641   70.9418    1.2746 C   0  0  0  0  0  0  0  0  0  0  0  0
   25.4604   69.3830    2.3626 H   0  0  0  0  0  0  0  0  0  0  0  0
 25 28  1  0
 25 24  1  0
 25 26  1  1
 25 27  2  0
  1  4  1  0
  1 24  1  0
  1  2  1  6
  1  3  2  0
  6 11  1  0
  6 12  1  0
 29 36  1  0
 29 37  1  0
  9  7  1  1
  7 13  1  0
 10  8  1  1
  8 14  1  0
 37 28  1  1
  4  5  1  0
 33 30  1  1
 30 38  1  0
 34 31  1  1
 31 39  1  0
 35 32  1  6
 32 40  1  0
 41 42  1  0
 41 43  1  0
 15 19  2  0
 16 22  2  0
 12 17  1  6
 17 19  1  0
 17 20  1  0
 18 19  1  0
 18 22  1  0
 18 23  1  0
  9 10  1  0
  9 11  1  0
 10 12  1  0
 11  5  1  6
 33 34  1  0
 33 35  1  0
 34 36  1  0
 35 37  1  0
 36 42  1  1
 20 21  2  0
 21 22  1  0
M  CHG  2   2  -1  26  -1
M  END
>  <COMPND>  (565) 
    8629 

>  <AUTHOR>  (565) 
    GENERATED BY OPEN BABEL 3.1.1

>  <MASTER>  (565) 
        0    0    0    0    0    0    0    0   58    0   58    0

>  <minimizedAffinity>  (565) 
-7.79228

>  <CNNscore>  (565) 
0.8467712402

>  <CNNaffinity>  (565) 
4.6676774025

>  <CNN_VS>  (565) 
3.9524550438

>  <CNNaffinity_variance>  (565) 
0.0545663126

$$$$
566
     RDKit          3D

 43 45  0  0  0  0  0  0  0  0999 V2000
   20.6457   71.1549   -1.0861 P   0  0  2  0  0  0  0  0  0  0  0  0
   20.8757   70.4449    0.3494 O   0  0  0  0  0  0  0  0  0  0  0  0
   20.2476   72.6001   -1.0219 O   0  0  0  0  0  0  0  0  0  0  0  0
   19.6064   70.1727   -1.8431 O   0  0  0  0  0  0  0  0  0  0  0  0
   19.2832   70.4436   -3.1959 C   0  0  0  0  0  0  0  0  0  0  0  0
   17.5786   71.4789   -4.5362 O   0  0  0  0  0  0  0  0  0  0  0  0
   15.6082   69.9173   -2.9023 O   0  0  0  0  0  0  0  0  0  0  0  0
   15.7646   68.4570   -5.2000 O   0  0  0  0  0  0  0  0  0  0  0  0
   16.9096   69.5403   -3.3488 C   0  0  1  0  0  0  0  0  0  0  0  0
   16.8878   69.2311   -4.8312 C   0  0  2  0  0  0  0  0  0  0  0  0
   17.8004   70.7751   -3.2945 C   0  0  1  0  0  0  0  0  0  0  0  0
   16.8657   70.6217   -5.4428 C   0  0  2  0  0  0  0  0  0  0  0  0
   15.0213   69.1447   -2.9278 H   0  0  0  0  0  0  0  0  0  0  0  0
   15.8249   67.5819   -4.7861 H   0  0  0  0  0  0  0  0  0  0  0  0
   15.5513   70.1531   -7.8985 O   0  0  0  0  0  0  0  0  0  0  0  0
   19.4243   70.8145  -10.3076 O   0  0  0  0  0  0  0  0  0  0  0  0
   17.5063   70.6654   -6.7270 N   0  0  0  0  0  0  0  0  0  0  0  0
   17.4808   70.4830   -9.0960 N   0  0  0  0  0  0  0  0  0  0  0  0
   16.7561   70.4140   -7.8993 C   0  0  0  0  0  0  0  0  0  0  0  0
   18.8635   70.9554   -6.8149 C   0  0  0  0  0  0  0  0  0  0  0  0
   19.5401   71.0161   -7.9637 C   0  0  0  0  0  0  0  0  0  0  0  0
   18.8303   70.7662   -9.2348 C   0  0  0  0  0  0  0  0  0  0  0  0
   16.9789   70.3111   -9.9257 H   0  0  0  0  0  0  0  0  0  0  0  0
   22.0383   70.8744   -1.8575 O   0  0  0  0  0  0  0  0  0  0  0  0
   23.1620   71.8897   -2.4227 P   0  0  2  0  0  0  0  0  0  0  0  0
   24.2709   70.8986   -3.0596 O   0  0  0  0  0  0  0  0  0  0  0  0
   23.7008   72.8442   -1.3967 O   0  0  0  0  0  0  0  0  0  0  0  0
   22.4688   72.5981   -3.6965 O   0  0  0  0  0  0  0  0  0  0  0  0
   23.3148   73.9758   -5.4294 O   0  0  0  0  0  0  0  0  0  0  0  0
   19.7486   75.9306   -4.7140 O   0  0  0  0  0  0  0  0  0  0  0  0
   20.0609   74.3832   -7.1132 O   0  0  0  0  0  0  0  0  0  0  0  0
   21.2626   74.8338   -2.5040 O   0  0  0  0  0  0  0  0  0  0  0  0
   20.6141   74.7973   -4.8233 C   0  0  1  0  0  0  0  0  0  0  0  0
   21.1443   74.7354   -6.2572 C   0  0  1  0  0  0  0  0  0  0  0  0
   21.7651   74.9507   -3.8307 C   0  0  2  0  0  0  0  0  0  0  0  0
   22.2802   73.7114   -6.3840 C   0  0  1  0  0  0  0  0  0  0  0  0
   22.8634   73.9143   -4.0750 C   0  0  1  0  0  0  0  0  0  0  0  0
   19.0154   75.8392   -5.3413 H   0  0  0  0  0  0  0  0  0  0  0  0
   19.3503   75.0375   -7.0232 H   0  0  0  0  0  0  0  0  0  0  0  0
   20.5683   75.4953   -2.3618 H   0  0  0  0  0  0  0  0  0  0  0  0
   22.3387   72.7365   -8.5647 O   0  0  0  0  0  0  0  0  0  0  0  0
   22.9292   73.7454   -7.7660 C   0  0  0  0  0  0  0  0  0  0  0  0
   22.7418   72.7465   -9.4474 H   0  0  0  0  0  0  0  0  0  0  0  0
 25 28  1  0
 25 24  1  0
 25 26  1  6
 25 27  2  0
  1  4  1  0
  1 24  1  0
  1  2  1  1
  1  3  2  0
  6 11  1  0
  6 12  1  0
 29 36  1  0
 29 37  1  0
  9  7  1  6
  7 13  1  0
 10  8  1  1
  8 14  1  0
 37 28  1  6
  4  5  1  0
 33 30  1  6
 30 38  1  0
 34 31  1  6
 31 39  1  0
 35 32  1  1
 32 40  1  0
 41 42  1  0
 41 43  1  0
 15 19  2  0
 16 22  2  0
 12 17  1  6
 17 19  1  0
 17 20  1  0
 18 19  1  0
 18 22  1  0
 18 23  1  0
  9 10  1  0
  9 11  1  0
 10 12  1  0
 11  5  1  6
 33 34  1  0
 33 35  1  0
 34 36  1  0
 35 37  1  0
 36 42  1  6
 20 21  2  0
 21 22  1  0
M  CHG  2   2  -1  26  -1
M  END
>  <COMPND>  (566) 
    8629 

>  <AUTHOR>  (566) 
    GENERATED BY OPEN BABEL 3.1.1

>  <MASTER>  (566) 
        0    0    0    0    0    0    0    0   58    0   58    0

>  <minimizedAffinity>  (566) 
-7.98717

>  <CNNscore>  (566) 
0.8464753032

>  <CNNaffinity>  (566) 
4.5786499977

>  <CNN_VS>  (566) 
3.8757140636

>  <CNNaffinity_variance>  (566) 
0.3870949745

$$$$
567
     RDKit          3D

 43 45  0  0  0  0  0  0  0  0999 V2000
   20.1221   72.3199   -1.6407 P   0  0  2  0  0  0  0  0  0  0  0  0
   18.8150   73.2333   -1.3677 O   0  0  0  0  0  0  0  0  0  0  0  0
   21.1463   72.9343   -2.5489 O   0  0  0  0  0  0  0  0  0  0  0  0
   19.5110   70.9030   -2.1275 O   0  0  0  0  0  0  0  0  0  0  0  0
   19.1669   70.7486   -3.4933 C   0  0  0  0  0  0  0  0  0  0  0  0
   17.4608   71.5968   -4.9575 O   0  0  0  0  0  0  0  0  0  0  0  0
   15.5126   70.0675   -3.2674 O   0  0  0  0  0  0  0  0  0  0  0  0
   15.8115   68.4491   -5.4419 O   0  0  0  0  0  0  0  0  0  0  0  0
   16.8440   69.7219   -3.6460 C   0  0  1  0  0  0  0  0  0  0  0  0
   16.8849   69.3024   -5.1006 C   0  0  2  0  0  0  0  0  0  0  0  0
   17.6744   70.9993   -3.6599 C   0  0  1  0  0  0  0  0  0  0  0  0
   16.8184   70.6407   -5.8165 C   0  0  2  0  0  0  0  0  0  0  0  0
   14.9633   69.2675   -3.2511 H   0  0  0  0  0  0  0  0  0  0  0  0
   15.8988   67.6113   -4.9611 H   0  0  0  0  0  0  0  0  0  0  0  0
   15.5206   70.5686   -8.3242 O   0  0  0  0  0  0  0  0  0  0  0  0
   19.5268   70.5611  -10.6027 O   0  0  0  0  0  0  0  0  0  0  0  0
   17.4978   70.6197   -7.0812 N   0  0  0  0  0  0  0  0  0  0  0  0
   17.5165   70.5651   -9.4567 N   0  0  0  0  0  0  0  0  0  0  0  0
   16.7526   70.5827   -8.2827 C   0  0  0  0  0  0  0  0  0  0  0  0
   18.8878   70.6360   -7.1214 C   0  0  0  0  0  0  0  0  0  0  0  0
   19.6013   70.6176   -8.2492 C   0  0  0  0  0  0  0  0  0  0  0  0
   18.8993   70.5789   -9.5483 C   0  0  0  0  0  0  0  0  0  0  0  0
   17.0187   70.5390  -10.3060 H   0  0  0  0  0  0  0  0  0  0  0  0
   20.6548   71.9929   -0.1499 O   0  0  0  0  0  0  0  0  0  0  0  0
   21.9781   71.2157    0.3578 P   0  0  2  0  0  0  0  0  0  0  0  0
   22.8219   70.9909   -1.0042 O   0  0  0  0  0  0  0  0  0  0  0  0
   21.6958   69.9572    1.1263 O   0  0  0  0  0  0  0  0  0  0  0  0
   22.8150   72.3263    1.1772 O   0  0  0  0  0  0  0  0  0  0  0  0
   22.2666   74.2148    2.4997 O   0  0  0  0  0  0  0  0  0  0  0  0
   25.3030   75.8559    0.2330 O   0  0  0  0  0  0  0  0  0  0  0  0
   25.7649   75.2616    3.0045 O   0  0  0  0  0  0  0  0  0  0  0  0
   23.4301   74.0121   -0.9803 O   0  0  0  0  0  0  0  0  0  0  0  0
   24.6254   74.8194    0.9485 C   0  0  1  0  0  0  0  0  0  0  0  0
   24.4724   75.2631    2.4047 C   0  0  1  0  0  0  0  0  0  0  0  0
   23.2571   74.5851    0.3112 C   0  0  2  0  0  0  0  0  0  0  0  0
   23.5263   74.3295    3.1718 C   0  0  1  0  0  0  0  0  0  0  0  0
   22.3773   73.6826    1.1782 C   0  0  1  0  0  0  0  0  0  0  0  0
   26.1727   76.0093    0.6323 H   0  0  0  0  0  0  0  0  0  0  0  0
   26.3527   75.8546    2.5104 H   0  0  0  0  0  0  0  0  0  0  0  0
   23.9884   74.5929   -1.5195 H   0  0  0  0  0  0  0  0  0  0  0  0
   21.8345   74.9871    4.7255 O   0  0  0  0  0  0  0  0  0  0  0  0
   23.2352   74.8419    4.5807 C   0  0  0  0  0  0  0  0  0  0  0  0
   21.6343   75.3123    5.6177 H   0  0  0  0  0  0  0  0  0  0  0  0
 25 28  1  0
 25 24  1  0
 25 26  1  6
 25 27  2  0
  1  4  1  0
  1 24  1  0
  1  2  1  1
  1  3  2  0
  6 11  1  0
  6 12  1  0
 29 36  1  0
 29 37  1  0
  9  7  1  6
  7 13  1  0
 10  8  1  6
  8 14  1  0
 37 28  1  1
  4  5  1  0
 33 30  1  6
 30 38  1  0
 34 31  1  1
 31 39  1  0
 35 32  1  6
 32 40  1  0
 41 42  1  0
 41 43  1  0
 15 19  2  0
 16 22  2  0
 12 17  1  6
 17 19  1  0
 17 20  1  0
 18 19  1  0
 18 22  1  0
 18 23  1  0
  9 10  1  0
  9 11  1  0
 10 12  1  0
 11  5  1  6
 33 34  1  0
 33 35  1  0
 34 36  1  0
 35 37  1  0
 36 42  1  1
 20 21  2  0
 21 22  1  0
M  CHG  2   2  -1  26  -1
M  END
>  <COMPND>  (567) 
    8629 

>  <AUTHOR>  (567) 
    GENERATED BY OPEN BABEL 3.1.1

>  <MASTER>  (567) 
        0    0    0    0    0    0    0    0   58    0   58    0

>  <minimizedAffinity>  (567) 
-6.93505

>  <CNNscore>  (567) 
0.8365813494

>  <CNNaffinity>  (567) 
4.5502147675

>  <CNN_VS>  (567) 
3.8066248894

>  <CNNaffinity_variance>  (567) 
0.1326859146

$$$$
568
     RDKit          3D

 43 45  0  0  0  0  0  0  0  0999 V2000
   21.1340   72.0725   -1.8766 P   0  0  2  0  0  0  0  0  0  0  0  0
   22.0207   73.3780   -2.2327 O   0  0  0  0  0  0  0  0  0  0  0  0
   21.7316   70.7644   -2.3045 O   0  0  0  0  0  0  0  0  0  0  0  0
   19.6765   72.4136   -2.4909 O   0  0  0  0  0  0  0  0  0  0  0  0
   19.3363   71.8821   -3.7596 C   0  0  0  0  0  0  0  0  0  0  0  0
   17.3999   71.9458   -5.1809 O   0  0  0  0  0  0  0  0  0  0  0  0
   16.0358   70.2964   -3.0810 O   0  0  0  0  0  0  0  0  0  0  0  0
   16.6869   68.4374   -4.9669 O   0  0  0  0  0  0  0  0  0  0  0  0
   17.3933   70.2575   -3.5179 C   0  0  1  0  0  0  0  0  0  0  0  0
   17.4894   69.5971   -4.8774 C   0  0  2  0  0  0  0  0  0  0  0  0
   17.8281   71.6849   -3.8263 C   0  0  1  0  0  0  0  0  0  0  0  0
   17.0177   70.7072   -5.8011 C   0  0  2  0  0  0  0  0  0  0  0  0
   15.7358   69.3961   -2.8778 H   0  0  0  0  0  0  0  0  0  0  0  0
   17.0273   67.7609   -4.3610 H   0  0  0  0  0  0  0  0  0  0  0  0
   15.5747   70.6276   -8.2279 O   0  0  0  0  0  0  0  0  0  0  0  0
   19.4388   70.4142  -10.7308 O   0  0  0  0  0  0  0  0  0  0  0  0
   17.6213   70.6312   -7.1016 N   0  0  0  0  0  0  0  0  0  0  0  0
   17.4999   70.5216   -9.4722 N   0  0  0  0  0  0  0  0  0  0  0  0
   16.8067   70.5954   -8.2573 C   0  0  0  0  0  0  0  0  0  0  0  0
   19.0062   70.5933   -7.2216 C   0  0  0  0  0  0  0  0  0  0  0  0
   19.6518   70.5217   -8.3875 C   0  0  0  0  0  0  0  0  0  0  0  0
   18.8746   70.4802   -9.6430 C   0  0  0  0  0  0  0  0  0  0  0  0
   16.9531   70.4952  -10.2907 H   0  0  0  0  0  0  0  0  0  0  0  0
   20.8995   72.2160   -0.2837 O   0  0  0  0  0  0  0  0  0  0  0  0
   21.6735   71.5468    0.9678 P   0  0  2  0  0  0  0  0  0  0  0  0
   23.1552   72.1897    0.8743 O   0  0  0  0  0  0  0  0  0  0  0  0
   21.6491   70.0457    0.9751 O   0  0  0  0  0  0  0  0  0  0  0  0
   21.0130   72.2329    2.2708 O   0  0  0  0  0  0  0  0  0  0  0  0
   20.7342   74.5695    1.9894 O   0  0  0  0  0  0  0  0  0  0  0  0
   19.8665   74.2818    6.0162 O   0  0  0  0  0  0  0  0  0  0  0  0
   17.7492   74.7834    4.1418 O   0  0  0  0  0  0  0  0  0  0  0  0
   21.9728   72.6579    4.8733 O   0  0  0  0  0  0  0  0  0  0  0  0
   19.8896   73.8468    4.6540 C   0  0  1  0  0  0  0  0  0  0  0  0
   19.1319   74.8734    3.8098 C   0  0  1  0  0  0  0  0  0  0  0  0
   21.3407   73.7350    4.1902 C   0  0  2  0  0  0  0  0  0  0  0  0
   19.3392   74.6192    2.3106 C   0  0  1  0  0  0  0  0  0  0  0  0
   21.4360   73.5319    2.6770 C   0  0  1  0  0  0  0  0  0  0  0  0
   18.9480   74.3543    6.3170 H   0  0  0  0  0  0  0  0  0  0  0  0
   17.6321   74.9454    5.0911 H   0  0  0  0  0  0  0  0  0  0  0  0
   21.9060   72.7985    5.8302 H   0  0  0  0  0  0  0  0  0  0  0  0
   18.5742   76.8820    2.2511 O   0  0  0  0  0  0  0  0  0  0  0  0
   18.7229   75.7222    1.4529 C   0  0  0  0  0  0  0  0  0  0  0  0
   18.1833   77.5926    1.7182 H   0  0  0  0  0  0  0  0  0  0  0  0
 25 28  1  0
 25 24  1  0
 25 26  1  6
 25 27  2  0
  1  4  1  0
  1 24  1  0
  1  2  1  6
  1  3  2  0
  6 11  1  0
  6 12  1  0
 29 36  1  0
 29 37  1  0
  9  7  1  6
  7 13  1  0
 10  8  1  1
  8 14  1  0
 37 28  1  1
  4  5  1  0
 33 30  1  1
 30 38  1  0
 34 31  1  6
 31 39  1  0
 35 32  1  1
 32 40  1  0
 41 42  1  0
 41 43  1  0
 15 19  2  0
 16 22  2  0
 12 17  1  6
 17 19  1  0
 17 20  1  0
 18 19  1  0
 18 22  1  0
 18 23  1  0
  9 10  1  0
  9 11  1  0
 10 12  1  0
 11  5  1  6
 33 34  1  0
 33 35  1  0
 34 36  1  0
 35 37  1  0
 36 42  1  6
 20 21  2  0
 21 22  1  0
M  CHG  2   2  -1  26  -1
M  END
>  <COMPND>  (568) 
    8629 

>  <AUTHOR>  (568) 
    GENERATED BY OPEN BABEL 3.1.1

>  <MASTER>  (568) 
        0    0    0    0    0    0    0    0   58    0   58    0

>  <minimizedAffinity>  (568) 
-6.88055

>  <CNNscore>  (568) 
0.8355983496

>  <CNNaffinity>  (568) 
4.4318575859

>  <CNN_VS>  (568) 
3.7032527924

>  <CNNaffinity_variance>  (568) 
0.0671174899

$$$$
569
     RDKit          3D

 43 45  0  0  0  0  0  0  0  0999 V2000
   21.7924   72.3865   -5.5747 P   0  0  2  0  0  0  0  0  0  0  0  0
   21.0818   73.7874   -5.1876 O   0  0  0  0  0  0  0  0  0  0  0  0
   23.0481   72.5156   -6.3859 O   0  0  0  0  0  0  0  0  0  0  0  0
   20.6040   71.5223   -6.2521 O   0  0  0  0  0  0  0  0  0  0  0  0
   20.1415   71.8998   -7.5372 C   0  0  0  0  0  0  0  0  0  0  0  0
   18.8658   69.9015   -7.1463 O   0  0  0  0  0  0  0  0  0  0  0  0
   18.1216   70.0331  -10.0479 O   0  0  0  0  0  0  0  0  0  0  0  0
   15.9040   71.0379   -8.8194 O   0  0  0  0  0  0  0  0  0  0  0  0
   18.3163   71.0967   -9.1173 C   0  0  1  0  0  0  0  0  0  0  0  0
   17.1458   71.1786   -8.1599 C   0  0  2  0  0  0  0  0  0  0  0  0
   19.4595   70.7050   -8.1894 C   0  0  1  0  0  0  0  0  0  0  0  0
   17.4359   70.0300   -7.2086 C   0  0  2  0  0  0  0  0  0  0  0  0
   17.3964   70.2605  -10.6515 H   0  0  0  0  0  0  0  0  0  0  0  0
   15.7656   71.7926   -9.4127 H   0  0  0  0  0  0  0  0  0  0  0  0
   16.3284   68.0440   -5.5332 O   0  0  0  0  0  0  0  0  0  0  0  0
   15.5310   71.0779   -2.1567 O   0  0  0  0  0  0  0  0  0  0  0  0
   16.9315   70.2730   -5.8866 N   0  0  0  0  0  0  0  0  0  0  0  0
   15.9324   69.5563   -3.8533 N   0  0  0  0  0  0  0  0  0  0  0  0
   16.3949   69.2065   -5.1283 C   0  0  0  0  0  0  0  0  0  0  0  0
   16.9721   71.5573   -5.3546 C   0  0  0  0  0  0  0  0  0  0  0  0
   16.5258   71.8745   -4.1374 C   0  0  0  0  0  0  0  0  0  0  0  0
   15.9499   70.8181   -3.2804 C   0  0  0  0  0  0  0  0  0  0  0  0
   15.5539   68.8295   -3.3070 H   0  0  0  0  0  0  0  0  0  0  0  0
   21.9896   71.6701   -4.1391 O   0  0  0  0  0  0  0  0  0  0  0  0
   23.1419   71.8386   -3.0181 P   0  0  2  0  0  0  0  0  0  0  0  0
   23.6609   73.3542   -3.2442 O   0  0  0  0  0  0  0  0  0  0  0  0
   24.2219   70.7979   -3.0845 O   0  0  0  0  0  0  0  0  0  0  0  0
   22.3440   71.8859   -1.6159 O   0  0  0  0  0  0  0  0  0  0  0  0
   24.0057   72.4155   -0.0113 O   0  0  0  0  0  0  0  0  0  0  0  0
   20.7143   72.2514    2.4768 O   0  0  0  0  0  0  0  0  0  0  0  0
   21.8901   74.7947    1.8468 O   0  0  0  0  0  0  0  0  0  0  0  0
   20.9752   70.3603    0.3008 O   0  0  0  0  0  0  0  0  0  0  0  0
   21.4163   72.5246    1.2611 C   0  0  1  0  0  0  0  0  0  0  0  0
   22.5149   73.5464    1.5610 C   0  0  1  0  0  0  0  0  0  0  0  0
   22.0204   71.2257    0.7308 C   0  0  2  0  0  0  0  0  0  0  0  0
   23.4770   73.6898    0.3741 C   0  0  1  0  0  0  0  0  0  0  0  0
   22.9995   71.4849   -0.4156 C   0  0  1  0  0  0  0  0  0  0  0  0
   20.3279   73.0720    2.8186 H   0  0  0  0  0  0  0  0  0  0  0  0
   21.2849   74.6903    2.5978 H   0  0  0  0  0  0  0  0  0  0  0  0
   20.3623   70.2037    1.0355 H   0  0  0  0  0  0  0  0  0  0  0  0
   24.7977   74.6530    2.1167 O   0  0  0  0  0  0  0  0  0  0  0  0
   24.6686   74.5844    0.7086 C   0  0  0  0  0  0  0  0  0  0  0  0
   25.5524   75.2189    2.3444 H   0  0  0  0  0  0  0  0  0  0  0  0
 25 28  1  0
 25 24  1  0
 25 26  1  6
 25 27  2  0
  1  4  1  0
  1 24  1  0
  1  2  1  1
  1  3  2  0
  6 11  1  0
  6 12  1  0
 29 36  1  0
 29 37  1  0
  9  7  1  6
  7 13  1  0
 10  8  1  6
  8 14  1  0
 37 28  1  6
  4  5  1  0
 33 30  1  1
 30 38  1  0
 34 31  1  6
 31 39  1  0
 35 32  1  6
 32 40  1  0
 41 42  1  0
 41 43  1  0
 15 19  2  0
 16 22  2  0
 12 17  1  1
 17 19  1  0
 17 20  1  0
 18 19  1  0
 18 22  1  0
 18 23  1  0
  9 10  1  0
  9 11  1  0
 10 12  1  0
 11  5  1  1
 33 34  1  0
 33 35  1  0
 34 36  1  0
 35 37  1  0
 36 42  1  1
 20 21  2  0
 21 22  1  0
M  CHG  2   2  -1  26  -1
M  END
>  <COMPND>  (569) 
    8629 

>  <AUTHOR>  (569) 
    GENERATED BY OPEN BABEL 3.1.1

>  <MASTER>  (569) 
        0    0    0    0    0    0    0    0   58    0   58    0

>  <minimizedAffinity>  (569) 
-8.16463

>  <CNNscore>  (569) 
0.8057556152

>  <CNNaffinity>  (569) 
4.5775957108

>  <CNN_VS>  (569) 
3.6884233952

>  <CNNaffinity_variance>  (569) 
0.1900009215

$$$$
570
     RDKit          3D

 43 45  0  0  0  0  0  0  0  0999 V2000
   21.0271   71.5166   -1.6209 P   0  0  2  0  0  0  0  0  0  0  0  0
   22.4245   70.8027   -2.0147 O   0  0  0  0  0  0  0  0  0  0  0  0
   19.8302   70.6116   -1.6237 O   0  0  0  0  0  0  0  0  0  0  0  0
   20.9475   72.7900   -2.6159 O   0  0  0  0  0  0  0  0  0  0  0  0
   20.3635   72.6132   -3.8948 C   0  0  0  0  0  0  0  0  0  0  0  0
   20.6447   70.8460   -5.4984 O   0  0  0  0  0  0  0  0  0  0  0  0
   23.1952   72.2149   -6.2804 O   0  0  0  0  0  0  0  0  0  0  0  0
   21.4758   72.9917   -8.2494 O   0  0  0  0  0  0  0  0  0  0  0  0
   21.9526   72.7861   -5.8742 C   0  0  1  0  0  0  0  0  0  0  0  0
   20.9312   72.6684   -6.9862 C   0  0  2  0  0  0  0  0  0  0  0  0
   21.3544   71.8902   -4.7967 C   0  0  1  0  0  0  0  0  0  0  0  0
   20.5198   71.2095   -6.8830 C   0  0  2  0  0  0  0  0  0  0  0  0
   23.5965   72.7700   -6.9681 H   0  0  0  0  0  0  0  0  0  0  0  0
   21.7218   73.9298   -8.2651 H   0  0  0  0  0  0  0  0  0  0  0  0
   19.7123   70.8833   -9.5699 O   0  0  0  0  0  0  0  0  0  0  0  0
   15.2902   70.3822   -8.3717 O   0  0  0  0  0  0  0  0  0  0  0  0
   19.1638   70.9920   -7.3017 N   0  0  0  0  0  0  0  0  0  0  0  0
   17.5111   70.6339   -8.9711 N   0  0  0  0  0  0  0  0  0  0  0  0
   18.8645   70.8416   -8.6759 C   0  0  0  0  0  0  0  0  0  0  0  0
   18.1476   70.9293   -6.3545 C   0  0  0  0  0  0  0  0  0  0  0  0
   16.8617   70.7319   -6.6525 C   0  0  0  0  0  0  0  0  0  0  0  0
   16.4643   70.5651   -8.0654 C   0  0  0  0  0  0  0  0  0  0  0  0
   17.2788   70.5268   -9.9221 H   0  0  0  0  0  0  0  0  0  0  0  0
   21.3553   72.1935   -0.1901 O   0  0  0  0  0  0  0  0  0  0  0  0
   22.1223   71.6118    1.1084 P   0  0  2  0  0  0  0  0  0  0  0  0
   23.6698   71.9897    0.8255 O   0  0  0  0  0  0  0  0  0  0  0  0
   21.8781   70.1529    1.3652 O   0  0  0  0  0  0  0  0  0  0  0  0
   21.6788   72.5869    2.3157 O   0  0  0  0  0  0  0  0  0  0  0  0
   22.6169   74.7255    2.7190 O   0  0  0  0  0  0  0  0  0  0  0  0
   21.4864   73.7636    6.5723 O   0  0  0  0  0  0  0  0  0  0  0  0
   20.0138   75.7545    5.1177 O   0  0  0  0  0  0  0  0  0  0  0  0
   22.5681   71.7190    4.8319 O   0  0  0  0  0  0  0  0  0  0  0  0
   21.3698   73.7845    5.1470 C   0  0  1  0  0  0  0  0  0  0  0  0
   21.2747   75.2430    4.6950 C   0  0  1  0  0  0  0  0  0  0  0  0
   22.5972   73.1111    4.5359 C   0  0  2  0  0  0  0  0  0  0  0  0
   21.4156   75.3611    3.1714 C   0  0  1  0  0  0  0  0  0  0  0  0
   22.6675   73.3303    3.0236 C   0  0  1  0  0  0  0  0  0  0  0  0
   20.7099   74.1892    6.9665 H   0  0  0  0  0  0  0  0  0  0  0  0
   19.9374   75.6737    6.0815 H   0  0  0  0  0  0  0  0  0  0  0  0
   22.5240   71.5936    5.7922 H   0  0  0  0  0  0  0  0  0  0  0  0
   20.1620   77.3231    2.6348 O   0  0  0  0  0  0  0  0  0  0  0  0
   21.4816   76.8167    2.7142 C   0  0  0  0  0  0  0  0  0  0  0  0
   20.1885   78.2489    2.3453 H   0  0  0  0  0  0  0  0  0  0  0  0
 25 28  1  0
 25 24  1  0
 25 26  1  6
 25 27  2  0
  1  4  1  0
  1 24  1  0
  1  2  1  6
  1  3  2  0
  6 11  1  0
  6 12  1  0
 29 36  1  0
 29 37  1  0
  9  7  1  6
  7 13  1  0
 10  8  1  6
  8 14  1  0
 37 28  1  6
  4  5  1  0
 33 30  1  1
 30 38  1  0
 34 31  1  6
 31 39  1  0
 35 32  1  6
 32 40  1  0
 41 42  1  0
 41 43  1  0
 15 19  2  0
 16 22  2  0
 12 17  1  1
 17 19  1  0
 17 20  1  0
 18 19  1  0
 18 22  1  0
 18 23  1  0
  9 10  1  0
  9 11  1  0
 10 12  1  0
 11  5  1  1
 33 34  1  0
 33 35  1  0
 34 36  1  0
 35 37  1  0
 36 42  1  1
 20 21  2  0
 21 22  1  0
M  CHG  2   2  -1  26  -1
M  END
>  <COMPND>  (570) 
    8629 

>  <AUTHOR>  (570) 
    GENERATED BY OPEN BABEL 3.1.1

>  <MASTER>  (570) 
        0    0    0    0    0    0    0    0   58    0   58    0

>  <minimizedAffinity>  (570) 
-6.67973

>  <CNNscore>  (570) 
0.7870205045

>  <CNNaffinity>  (570) 
4.3811655045

>  <CNN_VS>  (570) 
3.4480671883

>  <CNNaffinity_variance>  (570) 
0.1081635356

$$$$
571
     RDKit          3D

 43 45  0  0  0  0  0  0  0  0999 V2000
   19.8917   73.1423   -3.2307 P   0  0  2  0  0  0  0  0  0  0  0  0
   19.0564   74.3467   -3.9155 O   0  0  0  0  0  0  0  0  0  0  0  0
   19.1468   71.8458   -3.1050 O   0  0  0  0  0  0  0  0  0  0  0  0
   20.4289   73.7812   -1.8447 O   0  0  0  0  0  0  0  0  0  0  0  0
   20.8066   72.9044   -0.7976 C   0  0  0  0  0  0  0  0  0  0  0  0
   22.9009   73.3940    0.2737 O   0  0  0  0  0  0  0  0  0  0  0  0
   24.0180   71.0791   -1.2703 O   0  0  0  0  0  0  0  0  0  0  0  0
   23.6233   70.0069    1.2058 O   0  0  0  0  0  0  0  0  0  0  0  0
   22.7244   71.2360   -0.6896 C   0  0  1  0  0  0  0  0  0  0  0  0
   22.8025   71.0889    0.8157 C   0  0  2  0  0  0  0  0  0  0  0  0
   22.3139   72.6950   -0.8457 C   0  0  1  0  0  0  0  0  0  0  0  0
   23.3703   72.4343    1.2347 C   0  0  2  0  0  0  0  0  0  0  0  0
   24.3015   70.1549   -1.1830 H   0  0  0  0  0  0  0  0  0  0  0  0
   23.2195   69.1738    0.9166 H   0  0  0  0  0  0  0  0  0  0  0  0
   20.7993   71.9112    2.2809 O   0  0  0  0  0  0  0  0  0  0  0  0
   21.7940   74.0046    6.2645 O   0  0  0  0  0  0  0  0  0  0  0  0
   22.9307   72.8309    2.5427 N   0  0  0  0  0  0  0  0  0  0  0  0
   21.2967   72.9538    4.2636 N   0  0  0  0  0  0  0  0  0  0  0  0
   21.6192   72.5201    2.9714 C   0  0  0  0  0  0  0  0  0  0  0  0
   23.7962   73.5199    3.3854 C   0  0  0  0  0  0  0  0  0  0  0  0
   23.4729   73.9277    4.6144 C   0  0  0  0  0  0  0  0  0  0  0  0
   22.1216   73.6428    5.1386 C   0  0  0  0  0  0  0  0  0  0  0  0
   20.3882   72.7487    4.5835 H   0  0  0  0  0  0  0  0  0  0  0  0
   21.2278   73.0653   -4.1372 O   0  0  0  0  0  0  0  0  0  0  0  0
   21.4513   73.3010   -5.7207 P   0  0  2  0  0  0  0  0  0  0  0  0
   22.7508   72.3956   -6.0509 O   0  0  0  0  0  0  0  0  0  0  0  0
   21.5851   74.7434   -6.1153 O   0  0  0  0  0  0  0  0  0  0  0  0
   20.2243   72.5256   -6.4264 O   0  0  0  0  0  0  0  0  0  0  0  0
   19.4603   70.3130   -6.0561 O   0  0  0  0  0  0  0  0  0  0  0  0
   18.6737   70.6147  -10.0985 O   0  0  0  0  0  0  0  0  0  0  0  0
   16.4977   70.6448   -8.2244 O   0  0  0  0  0  0  0  0  0  0  0  0
   21.0740   71.8043   -9.0018 O   0  0  0  0  0  0  0  0  0  0  0  0
   18.7873   71.0895   -8.7542 C   0  0  1  0  0  0  0  0  0  0  0  0
   17.8305   70.2796   -7.8771 C   0  0  1  0  0  0  0  0  0  0  0  0
   20.2294   70.9124   -8.2825 C   0  0  2  0  0  0  0  0  0  0  0  0
   18.0861   70.5446   -6.3873 C   0  0  1  0  0  0  0  0  0  0  0  0
   20.3648   71.1515   -6.7776 C   0  0  1  0  0  0  0  0  0  0  0  0
   17.7605   70.7248  -10.4042 H   0  0  0  0  0  0  0  0  0  0  0  0
   16.3495   70.4730   -9.1677 H   0  0  0  0  0  0  0  0  0  0  0  0
   20.9794   71.6427   -9.9530 H   0  0  0  0  0  0  0  0  0  0  0  0
   15.9832   70.2292   -5.2976 O   0  0  0  0  0  0  0  0  0  0  0  0
   17.2515   69.6310   -5.4924 C   0  0  0  0  0  0  0  0  0  0  0  0
   15.4410   69.6586   -4.7301 H   0  0  0  0  0  0  0  0  0  0  0  0
 25 28  1  0
 25 24  1  0
 25 26  1  6
 25 27  2  0
  1  4  1  0
  1 24  1  0
  1  2  1  6
  1  3  2  0
  6 11  1  0
  6 12  1  0
 29 36  1  0
 29 37  1  0
  9  7  1  6
  7 13  1  0
 10  8  1  6
  8 14  1  0
 37 28  1  6
  4  5  1  0
 33 30  1  6
 30 38  1  0
 34 31  1  6
 31 39  1  0
 35 32  1  6
 32 40  1  0
 41 42  1  0
 41 43  1  0
 15 19  2  0
 16 22  2  0
 12 17  1  1
 17 19  1  0
 17 20  1  0
 18 19  1  0
 18 22  1  0
 18 23  1  0
  9 10  1  0
  9 11  1  0
 10 12  1  0
 11  5  1  1
 33 34  1  0
 33 35  1  0
 34 36  1  0
 35 37  1  0
 36 42  1  1
 20 21  2  0
 21 22  1  0
M  CHG  2   2  -1  26  -1
M  END
>  <COMPND>  (571) 
    8629 

>  <AUTHOR>  (571) 
    GENERATED BY OPEN BABEL 3.1.1

>  <MASTER>  (571) 
        0    0    0    0    0    0    0    0   58    0   58    0

>  <minimizedAffinity>  (571) 
-6.97954

>  <CNNscore>  (571) 
0.7174122334

>  <CNNaffinity>  (571) 
4.2961664200

>  <CNN_VS>  (571) 
3.0821223259

>  <CNNaffinity_variance>  (571) 
0.0633745566

$$$$
572
     RDKit          3D

 43 45  0  0  0  0  0  0  0  0999 V2000
   20.9005   72.3123   -5.3146 P   0  0  2  0  0  0  0  0  0  0  0  0
   20.1410   73.6282   -5.8705 O   0  0  0  0  0  0  0  0  0  0  0  0
   22.3701   72.4861   -5.0667 O   0  0  0  0  0  0  0  0  0  0  0  0
   20.4983   71.1558   -6.3723 O   0  0  0  0  0  0  0  0  0  0  0  0
   20.1368   71.5387   -7.6878 C   0  0  0  0  0  0  0  0  0  0  0  0
   18.6548   69.6981   -7.2525 O   0  0  0  0  0  0  0  0  0  0  0  0
   17.8409   69.9163  -10.1301 O   0  0  0  0  0  0  0  0  0  0  0  0
   15.7911   71.1656   -8.8362 O   0  0  0  0  0  0  0  0  0  0  0  0
   18.1840   70.9500   -9.2087 C   0  0  1  0  0  0  0  0  0  0  0  0
   17.0606   71.1635   -8.2157 C   0  0  2  0  0  0  0  0  0  0  0  0
   19.3035   70.4299   -8.3155 C   0  0  1  0  0  0  0  0  0  0  0  0
   17.2477   69.9884   -7.2710 C   0  0  2  0  0  0  0  0  0  0  0  0
   17.1279   70.2252  -10.7116 H   0  0  0  0  0  0  0  0  0  0  0  0
   15.7210   71.9317   -9.4269 H   0  0  0  0  0  0  0  0  0  0  0  0
   16.3565   68.0553   -5.4144 O   0  0  0  0  0  0  0  0  0  0  0  0
   15.6119   71.2454   -2.1726 O   0  0  0  0  0  0  0  0  0  0  0  0
   16.8153   70.2860   -5.9346 N   0  0  0  0  0  0  0  0  0  0  0  0
   15.9866   69.6453   -3.8017 N   0  0  0  0  0  0  0  0  0  0  0  0
   16.3858   69.2421   -5.0824 C   0  0  0  0  0  0  0  0  0  0  0  0
   16.8204   71.6006   -5.4811 C   0  0  0  0  0  0  0  0  0  0  0  0
   16.4353   71.9687   -4.2574 C   0  0  0  0  0  0  0  0  0  0  0  0
   15.9724   70.9390   -3.3048 C   0  0  0  0  0  0  0  0  0  0  0  0
   15.6831   68.9351   -3.1907 H   0  0  0  0  0  0  0  0  0  0  0  0
   20.0387   71.9217   -4.0040 O   0  0  0  0  0  0  0  0  0  0  0  0
   20.2177   70.7231   -2.9343 P   0  0  2  0  0  0  0  0  0  0  0  0
   21.3503   69.7872   -3.6118 O   0  0  0  0  0  0  0  0  0  0  0  0
   18.9433   70.0057   -2.5950 O   0  0  0  0  0  0  0  0  0  0  0  0
   20.9559   71.4081   -1.6730 O   0  0  0  0  0  0  0  0  0  0  0  0
   23.2357   71.9171   -2.0725 O   0  0  0  0  0  0  0  0  0  0  0  0
   23.1462   72.4579    2.0203 O   0  0  0  0  0  0  0  0  0  0  0  0
   23.3374   74.7435    0.2919 O   0  0  0  0  0  0  0  0  0  0  0  0
   21.6356   70.3026    0.8152 O   0  0  0  0  0  0  0  0  0  0  0  0
   22.6241   72.4954    0.6893 C   0  0  1  0  0  0  0  0  0  0  0  0
   23.5230   73.4027   -0.1530 C   0  0  1  0  0  0  0  0  0  0  0  0
   22.6062   71.0780    0.1201 C   0  0  2  0  0  0  0  0  0  0  0  0
   23.1873   73.2836   -1.6457 C   0  0  1  0  0  0  0  0  0  0  0  0
   22.3107   71.0758   -1.3808 C   0  0  1  0  0  0  0  0  0  0  0  0
   23.1598   73.3547    2.3877 H   0  0  0  0  0  0  0  0  0  0  0  0
   23.5523   74.8049    1.2359 H   0  0  0  0  0  0  0  0  0  0  0  0
   21.8339   70.3116    1.7641 H   0  0  0  0  0  0  0  0  0  0  0  0
   24.5262   73.2495   -3.6244 O   0  0  0  0  0  0  0  0  0  0  0  0
   24.1733   74.0584   -2.5173 C   0  0  0  0  0  0  0  0  0  0  0  0
   25.1532   73.7299   -4.1881 H   0  0  0  0  0  0  0  0  0  0  0  0
 25 28  1  0
 25 24  1  0
 25 26  1  6
 25 27  2  0
  1  4  1  0
  1 24  1  0
  1  2  1  6
  1  3  2  0
  6 11  1  0
  6 12  1  0
 29 36  1  0
 29 37  1  0
  9  7  1  6
  7 13  1  0
 10  8  1  6
  8 14  1  0
 37 28  1  1
  4  5  1  0
 33 30  1  1
 30 38  1  0
 34 31  1  1
 31 39  1  0
 35 32  1  1
 32 40  1  0
 41 42  1  0
 41 43  1  0
 15 19  2  0
 16 22  2  0
 12 17  1  1
 17 19  1  0
 17 20  1  0
 18 19  1  0
 18 22  1  0
 18 23  1  0
  9 10  1  0
  9 11  1  0
 10 12  1  0
 11  5  1  1
 33 34  1  0
 33 35  1  0
 34 36  1  0
 35 37  1  0
 36 42  1  6
 20 21  2  0
 21 22  1  0
M  CHG  2   2  -1  26  -1
M  END
>  <COMPND>  (572) 
    8629 

>  <AUTHOR>  (572) 
    GENERATED BY OPEN BABEL 3.1.1

>  <MASTER>  (572) 
        0    0    0    0    0    0    0    0   58    0   58    0

>  <minimizedAffinity>  (572) 
-7.37883

>  <CNNscore>  (572) 
0.7067809105

>  <CNNaffinity>  (572) 
4.5340104103

>  <CNN_VS>  (572) 
3.2045519352

>  <CNNaffinity_variance>  (572) 
0.2738088667

$$$$
573
     RDKit          3D

 43 45  0  0  0  0  0  0  0  0999 V2000
   23.5111   73.5427   -4.1771 P   0  0  2  0  0  0  0  0  0  0  0  0
   22.8068   74.9867   -4.3675 O   0  0  0  0  0  0  0  0  0  0  0  0
   25.0044   73.5797   -4.0359 O   0  0  0  0  0  0  0  0  0  0  0  0
   22.9437   72.6676   -5.4142 O   0  0  0  0  0  0  0  0  0  0  0  0
   21.5900   72.2501   -5.3823 C   0  0  0  0  0  0  0  0  0  0  0  0
   20.4887   70.3250   -6.3068 O   0  0  0  0  0  0  0  0  0  0  0  0
   20.6540   71.7322   -8.9494 O   0  0  0  0  0  0  0  0  0  0  0  0
   18.0695   72.1753   -8.2006 O   0  0  0  0  0  0  0  0  0  0  0  0
   20.4352   72.2772   -7.6492 C   0  0  1  0  0  0  0  0  0  0  0  0
   19.0272   71.9729   -7.1816 C   0  0  2  0  0  0  0  0  0  0  0  0
   21.2778   71.4823   -6.6594 C   0  0  1  0  0  0  0  0  0  0  0  0
   19.1409   70.5157   -6.7671 C   0  0  2  0  0  0  0  0  0  0  0  0
   20.1264   72.2240   -9.5988 H   0  0  0  0  0  0  0  0  0  0  0  0
   18.0345   73.1173   -8.4293 H   0  0  0  0  0  0  0  0  0  0  0  0
   16.4389   69.7882   -7.1517 O   0  0  0  0  0  0  0  0  0  0  0  0
   15.7540   69.2319   -2.6281 O   0  0  0  0  0  0  0  0  0  0  0  0
   18.2337   70.1754   -5.7075 N   0  0  0  0  0  0  0  0  0  0  0  0
   16.1001   69.5116   -4.8990 N   0  0  0  0  0  0  0  0  0  0  0  0
   16.8966   69.8253   -6.0077 C   0  0  0  0  0  0  0  0  0  0  0  0
   18.6725   70.1906   -4.3880 C   0  0  0  0  0  0  0  0  0  0  0  0
   17.9000   69.8901   -3.3419 C   0  0  0  0  0  0  0  0  0  0  0  0
   16.4898   69.5135   -3.5690 C   0  0  0  0  0  0  0  0  0  0  0  0
   15.1648   69.2651   -5.0839 H   0  0  0  0  0  0  0  0  0  0  0  0
   22.7302   72.9224   -2.9049 O   0  0  0  0  0  0  0  0  0  0  0  0
   22.8766   71.4938   -2.1629 P   0  0  2  0  0  0  0  0  0  0  0  0
   24.2034   70.8595   -2.8373 O   0  0  0  0  0  0  0  0  0  0  0  0
   21.6571   70.6233   -2.2577 O   0  0  0  0  0  0  0  0  0  0  0  0
   23.3212   71.8603   -0.6552 O   0  0  0  0  0  0  0  0  0  0  0  0
   24.5562   70.8816    1.1149 O   0  0  0  0  0  0  0  0  0  0  0  0
   21.1317   71.9012    3.1847 O   0  0  0  0  0  0  0  0  0  0  0  0
   23.5473   73.3930    3.6176 O   0  0  0  0  0  0  0  0  0  0  0  0
   20.9375   70.9027    0.4746 O   0  0  0  0  0  0  0  0  0  0  0  0
   22.1551   72.0629    2.1988 C   0  0  1  0  0  0  0  0  0  0  0  0
   23.5030   72.1531    2.9170 C   0  0  1  0  0  0  0  0  0  0  0  0
   22.1296   70.8646    1.2518 C   0  0  2  0  0  0  0  0  0  0  0  0
   24.6679   72.0594    1.9224 C   0  0  1  0  0  0  0  0  0  0  0  0
   23.3570   70.8398    0.3391 C   0  0  1  0  0  0  0  0  0  0  0  0
   21.1422   72.6591    3.7889 H   0  0  0  0  0  0  0  0  0  0  0  0
   22.8062   73.4397    4.2420 H   0  0  0  0  0  0  0  0  0  0  0  0
   20.1679   70.9178    1.0638 H   0  0  0  0  0  0  0  0  0  0  0  0
   26.6532   70.7755    2.2680 O   0  0  0  0  0  0  0  0  0  0  0  0
   26.0195   71.9887    2.6298 C   0  0  0  0  0  0  0  0  0  0  0  0
   27.5148   70.7169    2.7106 H   0  0  0  0  0  0  0  0  0  0  0  0
 25 28  1  0
 25 24  1  0
 25 26  1  6
 25 27  2  0
  1  4  1  0
  1 24  1  0
  1  2  1  6
  1  3  2  0
  6 11  1  0
  6 12  1  0
 29 36  1  0
 29 37  1  0
  9  7  1  6
  7 13  1  0
 10  8  1  6
  8 14  1  0
 37 28  1  6
  4  5  1  0
 33 30  1  1
 30 38  1  0
 34 31  1  6
 31 39  1  0
 35 32  1  6
 32 40  1  0
 41 42  1  0
 41 43  1  0
 15 19  2  0
 16 22  2  0
 12 17  1  1
 17 19  1  0
 17 20  1  0
 18 19  1  0
 18 22  1  0
 18 23  1  0
  9 10  1  0
  9 11  1  0
 10 12  1  0
 11  5  1  1
 33 34  1  0
 33 35  1  0
 34 36  1  0
 35 37  1  0
 36 42  1  1
 20 21  2  0
 21 22  1  0
M  CHG  2   2  -1  26  -1
M  END
>  <COMPND>  (573) 
    8629 

>  <AUTHOR>  (573) 
    GENERATED BY OPEN BABEL 3.1.1

>  <MASTER>  (573) 
        0    0    0    0    0    0    0    0   58    0   58    0

>  <minimizedAffinity>  (573) 
-8.44913

>  <CNNscore>  (573) 
0.6582286954

>  <CNNaffinity>  (573) 
4.3526034355

>  <CNN_VS>  (573) 
2.8650085926

>  <CNNaffinity_variance>  (573) 
0.2735371292

$$$$
574
     RDKit          3D

 43 45  0  0  0  0  0  0  0  0999 V2000
   20.6143   71.7732   -3.1183 P   0  0  2  0  0  0  0  0  0  0  0  0
   19.0202   71.4975   -3.1160 O   0  0  0  0  0  0  0  0  0  0  0  0
   21.4619   70.5883   -3.4776 O   0  0  0  0  0  0  0  0  0  0  0  0
   20.8979   72.4252   -1.6649 O   0  0  0  0  0  0  0  0  0  0  0  0
   20.2270   73.6244   -1.3193 C   0  0  0  0  0  0  0  0  0  0  0  0
   20.2596   72.3630    0.7256 O   0  0  0  0  0  0  0  0  0  0  0  0
   18.7789   74.6650    1.9501 O   0  0  0  0  0  0  0  0  0  0  0  0
   21.3355   75.0816    2.8027 O   0  0  0  0  0  0  0  0  0  0  0  0
   19.8041   74.6769    0.9581 C   0  0  1  0  0  0  0  0  0  0  0  0
   21.1493   74.3829    1.5886 C   0  0  2  0  0  0  0  0  0  0  0  0
   19.6019   73.4632    0.0596 C   0  0  1  0  0  0  0  0  0  0  0  0
   21.0833   72.8778    1.7845 C   0  0  2  0  0  0  0  0  0  0  0  0
   18.8870   75.4312    2.5358 H   0  0  0  0  0  0  0  0  0  0  0  0
   21.3709   76.0345    2.6254 H   0  0  0  0  0  0  0  0  0  0  0  0
   21.5274   70.1931    1.0275 O   0  0  0  0  0  0  0  0  0  0  0  0
   26.0883   70.6103    1.5433 O   0  0  0  0  0  0  0  0  0  0  0  0
   22.3768   72.2588    1.7120 N   0  0  0  0  0  0  0  0  0  0  0  0
   23.7980   70.4030    1.2848 N   0  0  0  0  0  0  0  0  0  0  0  0
   22.4905   70.9041    1.3216 C   0  0  0  0  0  0  0  0  0  0  0  0
   23.5151   72.9934    2.0256 C   0  0  0  0  0  0  0  0  0  0  0  0
   24.7548   72.5004    1.9867 C   0  0  0  0  0  0  0  0  0  0  0  0
   24.9610   71.0929    1.5887 C   0  0  0  0  0  0  0  0  0  0  0  0
   23.9017   69.4614    1.0159 H   0  0  0  0  0  0  0  0  0  0  0  0
   20.7635   73.0348   -4.1178 O   0  0  0  0  0  0  0  0  0  0  0  0
   20.9018   73.1039   -5.7269 P   0  0  2  0  0  0  0  0  0  0  0  0
   22.1552   72.1281   -6.0338 O   0  0  0  0  0  0  0  0  0  0  0  0
   21.0514   74.4944   -6.2726 O   0  0  0  0  0  0  0  0  0  0  0  0
   19.6157   72.3022   -6.2821 O   0  0  0  0  0  0  0  0  0  0  0  0
   18.7557   70.1003   -6.1131 O   0  0  0  0  0  0  0  0  0  0  0  0
   18.3932   70.6389  -10.1910 O   0  0  0  0  0  0  0  0  0  0  0  0
   16.0396   70.6445   -8.5453 O   0  0  0  0  0  0  0  0  0  0  0  0
   20.7023   71.6880   -8.7955 O   0  0  0  0  0  0  0  0  0  0  0  0
   18.3829   71.0388   -8.8179 C   0  0  1  0  0  0  0  0  0  0  0  0
   17.3193   70.2170   -8.0871 C   0  0  1  0  0  0  0  0  0  0  0  0
   19.7639   70.7887   -8.2148 C   0  0  2  0  0  0  0  0  0  0  0  0
   17.4294   70.3951   -6.5668 C   0  0  1  0  0  0  0  0  0  0  0  0
   19.7522   70.9444   -6.6930 C   0  0  1  0  0  0  0  0  0  0  0  0
   17.5194   70.7955  -10.5800 H   0  0  0  0  0  0  0  0  0  0  0  0
   15.9833   70.5272   -9.5067 H   0  0  0  0  0  0  0  0  0  0  0  0
   20.7004   71.5795   -9.7589 H   0  0  0  0  0  0  0  0  0  0  0  0
   17.2275   68.7627   -4.8338 O   0  0  0  0  0  0  0  0  0  0  0  0
   16.4826   69.4647   -5.8119 C   0  0  0  0  0  0  0  0  0  0  0  0
   16.6376   68.1668   -4.3451 H   0  0  0  0  0  0  0  0  0  0  0  0
 25 28  1  0
 25 24  1  0
 25 26  1  1
 25 27  2  0
  1  4  1  0
  1 24  1  0
  1  2  1  1
  1  3  2  0
  6 11  1  0
  6 12  1  0
 29 36  1  0
 29 37  1  0
  9  7  1  1
  7 13  1  0
 10  8  1  1
  8 14  1  0
 37 28  1  6
  4  5  1  0
 33 30  1  6
 30 38  1  0
 34 31  1  6
 31 39  1  0
 35 32  1  6
 32 40  1  0
 41 42  1  0
 41 43  1  0
 15 19  2  0
 16 22  2  0
 12 17  1  6
 17 19  1  0
 17 20  1  0
 18 19  1  0
 18 22  1  0
 18 23  1  0
  9 10  1  0
  9 11  1  0
 10 12  1  0
 11  5  1  6
 33 34  1  0
 33 35  1  0
 34 36  1  0
 35 37  1  0
 36 42  1  1
 20 21  2  0
 21 22  1  0
M  CHG  2   2  -1  26  -1
M  END
>  <COMPND>  (574) 
    8629 

>  <AUTHOR>  (574) 
    GENERATED BY OPEN BABEL 3.1.1

>  <MASTER>  (574) 
        0    0    0    0    0    0    0    0   58    0   58    0

>  <minimizedAffinity>  (574) 
-7.37569

>  <CNNscore>  (574) 
0.6578350663

>  <CNNaffinity>  (574) 
4.4386634827

>  <CNN_VS>  (574) 
2.9199085236

>  <CNNaffinity_variance>  (574) 
0.1072719246

$$$$
575
     RDKit          3D

 43 45  0  0  0  0  0  0  0  0999 V2000
   20.2238   72.4095   -0.9825 P   0  0  2  0  0  0  0  0  0  0  0  0
   19.9024   70.8288   -1.1077 O   0  0  0  0  0  0  0  0  0  0  0  0
   19.0458   73.2698   -0.6310 O   0  0  0  0  0  0  0  0  0  0  0  0
   20.9641   72.7669   -2.3760 O   0  0  0  0  0  0  0  0  0  0  0  0
   20.3269   72.4113   -3.5907 C   0  0  0  0  0  0  0  0  0  0  0  0
   20.7531   70.9273   -5.4319 O   0  0  0  0  0  0  0  0  0  0  0  0
   23.1964   72.5838   -5.9582 O   0  0  0  0  0  0  0  0  0  0  0  0
   21.4355   73.5132   -7.8215 O   0  0  0  0  0  0  0  0  0  0  0  0
   21.9111   72.9939   -5.4944 C   0  0  1  0  0  0  0  0  0  0  0  0
   20.9090   72.9664   -6.6296 C   0  0  2  0  0  0  0  0  0  0  0  0
   21.3761   71.9060   -4.5715 C   0  0  1  0  0  0  0  0  0  0  0  0
   20.6098   71.4817   -6.7498 C   0  0  2  0  0  0  0  0  0  0  0  0
   23.5585   73.2630   -6.5493 H   0  0  0  0  0  0  0  0  0  0  0  0
   21.6091   74.4590   -7.6944 H   0  0  0  0  0  0  0  0  0  0  0  0
   19.9531   69.5853   -8.7373 O   0  0  0  0  0  0  0  0  0  0  0  0
   15.4637   70.5946   -8.4762 O   0  0  0  0  0  0  0  0  0  0  0  0
   19.2772   71.2280   -7.2201 N   0  0  0  0  0  0  0  0  0  0  0  0
   17.7183   70.0892   -8.6056 N   0  0  0  0  0  0  0  0  0  0  0  0
   19.0553   70.2550   -8.2224 C   0  0  0  0  0  0  0  0  0  0  0  0
   18.2074   71.9397   -6.6884 C   0  0  0  0  0  0  0  0  0  0  0  0
   16.9383   71.7707   -7.0656 C   0  0  0  0  0  0  0  0  0  0  0  0
   16.6205   70.7733   -8.1078 C   0  0  0  0  0  0  0  0  0  0  0  0
   17.5396   69.4170   -9.3027 H   0  0  0  0  0  0  0  0  0  0  0  0
   21.4313   72.4508    0.0914 O   0  0  0  0  0  0  0  0  0  0  0  0
   21.5745   71.7781    1.5542 P   0  0  2  0  0  0  0  0  0  0  0  0
   21.7038   70.1992    1.2255 O   0  0  0  0  0  0  0  0  0  0  0  0
   20.4630   72.1242    2.5022 O   0  0  0  0  0  0  0  0  0  0  0  0
   23.0446   72.2107    2.0607 O   0  0  0  0  0  0  0  0  0  0  0  0
   24.6386   73.6286    1.0286 O   0  0  0  0  0  0  0  0  0  0  0  0
   27.2067   70.8888    2.7458 O   0  0  0  0  0  0  0  0  0  0  0  0
   27.0078   73.5320    3.8512 O   0  0  0  0  0  0  0  0  0  0  0  0
   24.7056   69.9978    1.5926 O   0  0  0  0  0  0  0  0  0  0  0  0
   26.0314   71.6995    2.6640 C   0  0  1  0  0  0  0  0  0  0  0  0
   26.4641   73.1649    2.5863 C   0  0  1  0  0  0  0  0  0  0  0  0
   25.2393   71.3060    1.4185 C   0  0  2  0  0  0  0  0  0  0  0  0
   25.2802   74.0739    2.2294 C   0  0  1  0  0  0  0  0  0  0  0  0
   24.1161   72.3022    1.1254 C   0  0  1  0  0  0  0  0  0  0  0  0
   27.7139   71.1332    3.5348 H   0  0  0  0  0  0  0  0  0  0  0  0
   27.7541   72.9501    4.0648 H   0  0  0  0  0  0  0  0  0  0  0  0
   25.4265   69.3765    1.7772 H   0  0  0  0  0  0  0  0  0  0  0  0
   24.7463   76.3803    2.5524 O   0  0  0  0  0  0  0  0  0  0  0  0
   25.7187   75.5173    1.9920 C   0  0  0  0  0  0  0  0  0  0  0  0
   25.0123   77.3025    2.4091 H   0  0  0  0  0  0  0  0  0  0  0  0
 25 28  1  0
 25 24  1  0
 25 26  1  6
 25 27  2  0
  1  4  1  0
  1 24  1  0
  1  2  1  6
  1  3  2  0
  6 11  1  0
  6 12  1  0
 29 36  1  0
 29 37  1  0
  9  7  1  6
  7 13  1  0
 10  8  1  6
  8 14  1  0
 37 28  1  1
  4  5  1  0
 33 30  1  6
 30 38  1  0
 34 31  1  1
 31 39  1  0
 35 32  1  1
 32 40  1  0
 41 42  1  0
 41 43  1  0
 15 19  2  0
 16 22  2  0
 12 17  1  1
 17 19  1  0
 17 20  1  0
 18 19  1  0
 18 22  1  0
 18 23  1  0
  9 10  1  0
  9 11  1  0
 10 12  1  0
 11  5  1  1
 33 34  1  0
 33 35  1  0
 34 36  1  0
 35 37  1  0
 36 42  1  6
 20 21  2  0
 21 22  1  0
M  CHG  2   2  -1  26  -1
M  END
>  <COMPND>  (575) 
    8629 

>  <AUTHOR>  (575) 
    GENERATED BY OPEN BABEL 3.1.1

>  <MASTER>  (575) 
        0    0    0    0    0    0    0    0   58    0   58    0

>  <minimizedAffinity>  (575) 
-7.58422

>  <CNNscore>  (575) 
0.6500599384

>  <CNNaffinity>  (575) 
4.3756895065

>  <CNN_VS>  (575) 
2.8444604874

>  <CNNaffinity_variance>  (575) 
0.1380843520

$$$$
576
     RDKit          3D

 43 45  0  0  0  0  0  0  0  0999 V2000
   23.3161   72.0012   -3.3613 P   0  0  2  0  0  0  0  0  0  0  0  0
   23.9099   73.4684   -3.0263 O   0  0  0  0  0  0  0  0  0  0  0  0
   24.1986   70.8545   -2.9642 O   0  0  0  0  0  0  0  0  0  0  0  0
   22.9371   72.0849   -4.9321 O   0  0  0  0  0  0  0  0  0  0  0  0
   21.5915   72.3479   -5.2898 C   0  0  0  0  0  0  0  0  0  0  0  0
   20.4975   70.4115   -6.1994 O   0  0  0  0  0  0  0  0  0  0  0  0
   20.5725   71.8388   -8.8354 O   0  0  0  0  0  0  0  0  0  0  0  0
   18.0013   72.2353   -8.0176 O   0  0  0  0  0  0  0  0  0  0  0  0
   20.3786   72.3715   -7.5262 C   0  0  1  0  0  0  0  0  0  0  0  0
   18.9881   72.0415   -7.0249 C   0  0  2  0  0  0  0  0  0  0  0  0
   21.2588   71.5837   -6.5639 C   0  0  1  0  0  0  0  0  0  0  0  0
   19.1355   70.5836   -6.6237 C   0  0  2  0  0  0  0  0  0  0  0  0
   20.0206   72.3263   -9.4676 H   0  0  0  0  0  0  0  0  0  0  0  0
   17.9456   73.1780   -8.2386 H   0  0  0  0  0  0  0  0  0  0  0  0
   16.4704   69.7079   -6.9527 O   0  0  0  0  0  0  0  0  0  0  0  0
   15.8752   69.2235   -2.4083 O   0  0  0  0  0  0  0  0  0  0  0  0
   18.2614   70.2217   -5.5437 N   0  0  0  0  0  0  0  0  0  0  0  0
   16.1762   69.4672   -4.6897 N   0  0  0  0  0  0  0  0  0  0  0  0
   16.9406   69.7957   -5.8166 C   0  0  0  0  0  0  0  0  0  0  0  0
   18.7161   70.2907   -4.2313 C   0  0  0  0  0  0  0  0  0  0  0  0
   17.9742   69.9753   -3.1677 C   0  0  0  0  0  0  0  0  0  0  0  0
   16.5827   69.5207   -3.3658 C   0  0  0  0  0  0  0  0  0  0  0  0
   15.2527   69.1682   -4.8554 H   0  0  0  0  0  0  0  0  0  0  0  0
   21.8710   72.0200   -2.6374 O   0  0  0  0  0  0  0  0  0  0  0  0
   21.2571   73.0119   -1.5183 P   0  0  2  0  0  0  0  0  0  0  0  0
   19.6956   72.5916   -1.4664 O   0  0  0  0  0  0  0  0  0  0  0  0
   21.4976   74.4689   -1.7889 O   0  0  0  0  0  0  0  0  0  0  0  0
   21.8688   72.4810   -0.1222 O   0  0  0  0  0  0  0  0  0  0  0  0
   22.8846   74.0754    1.3069 O   0  0  0  0  0  0  0  0  0  0  0  0
   24.5019   70.6297    2.9075 O   0  0  0  0  0  0  0  0  0  0  0  0
   22.4755   72.0533    4.3619 O   0  0  0  0  0  0  0  0  0  0  0  0
   24.1598   70.8688    0.0431 O   0  0  0  0  0  0  0  0  0  0  0  0
   23.4902   71.4284    2.2880 C   0  0  1  0  0  0  0  0  0  0  0  0
   23.1523   72.5877    3.2275 C   0  0  1  0  0  0  0  0  0  0  0  0
   24.0164   71.9536    0.9536 C   0  0  2  0  0  0  0  0  0  0  0  0
   22.2747   73.6324    2.5249 C   0  0  1  0  0  0  0  0  0  0  0  0
   23.0942   73.0224    0.3641 C   0  0  1  0  0  0  0  0  0  0  0  0
   24.1740   70.2927    3.7551 H   0  0  0  0  0  0  0  0  0  0  0  0
   23.0402   71.3947    4.7961 H   0  0  0  0  0  0  0  0  0  0  0  0
   24.7459   70.1993    0.4277 H   0  0  0  0  0  0  0  0  0  0  0  0
   21.0265   74.5930    4.3216 O   0  0  0  0  0  0  0  0  0  0  0  0
   22.0562   74.8713    3.3907 C   0  0  0  0  0  0  0  0  0  0  0  0
   20.8767   75.3726    4.8798 H   0  0  0  0  0  0  0  0  0  0  0  0
 25 28  1  0
 25 24  1  0
 25 26  1  1
 25 27  2  0
  1  4  1  0
  1 24  1  0
  1  2  1  1
  1  3  2  0
  6 11  1  0
  6 12  1  0
 29 36  1  0
 29 37  1  0
  9  7  1  6
  7 13  1  0
 10  8  1  6
  8 14  1  0
 37 28  1  1
  4  5  1  0
 33 30  1  1
 30 38  1  0
 34 31  1  1
 31 39  1  0
 35 32  1  6
 32 40  1  0
 41 42  1  0
 41 43  1  0
 15 19  2  0
 16 22  2  0
 12 17  1  1
 17 19  1  0
 17 20  1  0
 18 19  1  0
 18 22  1  0
 18 23  1  0
  9 10  1  0
  9 11  1  0
 10 12  1  0
 11  5  1  1
 33 34  1  0
 33 35  1  0
 34 36  1  0
 35 37  1  0
 36 42  1  1
 20 21  2  0
 21 22  1  0
M  CHG  2   2  -1  26  -1
M  END
>  <COMPND>  (576) 
    8629 

>  <AUTHOR>  (576) 
    GENERATED BY OPEN BABEL 3.1.1

>  <MASTER>  (576) 
        0    0    0    0    0    0    0    0   58    0   58    0

>  <minimizedAffinity>  (576) 
-7.20911

>  <CNNscore>  (576) 
0.6179489493

>  <CNNaffinity>  (576) 
4.2619237900

>  <CNN_VS>  (576) 
2.6336512566

>  <CNNaffinity_variance>  (576) 
0.1893061846

$$$$
577
     RDKit          3D

 43 45  0  0  0  0  0  0  0  0999 V2000
   19.5970   74.1845   -3.7629 P   0  0  2  0  0  0  0  0  0  0  0  0
   21.2057   74.0168   -3.8034 O   0  0  0  0  0  0  0  0  0  0  0  0
   19.0303   74.5376   -2.4191 O   0  0  0  0  0  0  0  0  0  0  0  0
   19.0467   72.8117   -4.4189 O   0  0  0  0  0  0  0  0  0  0  0  0
   18.7043   71.7403   -3.5571 C   0  0  0  0  0  0  0  0  0  0  0  0
   16.9054   71.6622   -5.1482 O   0  0  0  0  0  0  0  0  0  0  0  0
   15.5636   69.7618   -3.2564 O   0  0  0  0  0  0  0  0  0  0  0  0
   16.5887   68.0897   -5.1511 O   0  0  0  0  0  0  0  0  0  0  0  0
   16.9495   69.8981   -3.5665 C   0  0  1  0  0  0  0  0  0  0  0  0
   17.2402   69.3255   -4.9381 C   0  0  2  0  0  0  0  0  0  0  0  0
   17.2408   71.3794   -3.7720 C   0  0  1  0  0  0  0  0  0  0  0  0
   16.7253   70.4232   -5.8535 C   0  0  2  0  0  0  0  0  0  0  0  0
   15.3536   68.8241   -3.1205 H   0  0  0  0  0  0  0  0  0  0  0  0
   16.9511   67.4244   -4.5455 H   0  0  0  0  0  0  0  0  0  0  0  0
   15.5161   70.7452   -8.3856 O   0  0  0  0  0  0  0  0  0  0  0  0
   19.5860   70.6417  -10.5458 O   0  0  0  0  0  0  0  0  0  0  0  0
   17.4451   70.4841   -7.0943 N   0  0  0  0  0  0  0  0  0  0  0  0
   17.5436   70.6936   -9.4592 N   0  0  0  0  0  0  0  0  0  0  0  0
   16.7426   70.6468   -8.3110 C   0  0  0  0  0  0  0  0  0  0  0  0
   18.8321   70.3833   -7.0965 C   0  0  0  0  0  0  0  0  0  0  0  0
   19.5812   70.4285   -8.2002 C   0  0  0  0  0  0  0  0  0  0  0  0
   18.9250   70.5965   -9.5129 C   0  0  0  0  0  0  0  0  0  0  0  0
   17.0759   70.8060  -10.3185 H   0  0  0  0  0  0  0  0  0  0  0  0
   19.3164   75.2781   -4.9197 O   0  0  0  0  0  0  0  0  0  0  0  0
   18.4042   76.6126   -4.9203 P   0  0  2  0  0  0  0  0  0  0  0  0
   19.3964   77.7400   -5.5218 O   0  0  0  0  0  0  0  0  0  0  0  0
   17.8153   76.9559   -3.5826 O   0  0  0  0  0  0  0  0  0  0  0  0
   17.3161   76.3632   -6.0860 O   0  0  0  0  0  0  0  0  0  0  0  0
   15.0366   75.7278   -5.9568 O   0  0  0  0  0  0  0  0  0  0  0  0
   16.1169   73.6249   -9.3424 O   0  0  0  0  0  0  0  0  0  0  0  0
   14.4501   75.9506   -9.5893 O   0  0  0  0  0  0  0  0  0  0  0  0
   17.9643   73.8378   -7.1239 O   0  0  0  0  0  0  0  0  0  0  0  0
   16.1430   74.7239   -8.4274 C   0  0  1  0  0  0  0  0  0  0  0  0
   14.7338   75.3140   -8.3465 C   0  0  1  0  0  0  0  0  0  0  0  0
   16.5952   74.2221   -7.0574 C   0  0  2  0  0  0  0  0  0  0  0  0
   14.6197   76.3196   -7.1928 C   0  0  1  0  0  0  0  0  0  0  0  0
   16.3942   75.2822   -5.9730 C   0  0  1  0  0  0  0  0  0  0  0  0
   15.8311   73.9369  -10.2144 H   0  0  0  0  0  0  0  0  0  0  0  0
   14.5261   75.3050  -10.3095 H   0  0  0  0  0  0  0  0  0  0  0  0
   18.0784   73.1662   -7.8138 H   0  0  0  0  0  0  0  0  0  0  0  0
   12.3077   75.8568   -7.5792 O   0  0  0  0  0  0  0  0  0  0  0  0
   13.1845   76.8022   -6.9946 C   0  0  0  0  0  0  0  0  0  0  0  0
   11.3905   76.1506   -7.4604 H   0  0  0  0  0  0  0  0  0  0  0  0
 25 28  1  0
 25 24  1  0
 25 26  1  6
 25 27  2  0
  1  4  1  0
  1 24  1  0
  1  2  1  1
  1  3  2  0
  6 11  1  0
  6 12  1  0
 29 36  1  0
 29 37  1  0
  9  7  1  6
  7 13  1  0
 10  8  1  6
  8 14  1  0
 37 28  1  6
  4  5  1  0
 33 30  1  6
 30 38  1  0
 34 31  1  6
 31 39  1  0
 35 32  1  6
 32 40  1  0
 41 42  1  0
 41 43  1  0
 15 19  2  0
 16 22  2  0
 12 17  1  6
 17 19  1  0
 17 20  1  0
 18 19  1  0
 18 22  1  0
 18 23  1  0
  9 10  1  0
  9 11  1  0
 10 12  1  0
 11  5  1  6
 33 34  1  0
 33 35  1  0
 34 36  1  0
 35 37  1  0
 36 42  1  1
 20 21  2  0
 21 22  1  0
M  CHG  2   2  -1  26  -1
M  END
>  <COMPND>  (577) 
    8629 

>  <AUTHOR>  (577) 
    GENERATED BY OPEN BABEL 3.1.1

>  <MASTER>  (577) 
        0    0    0    0    0    0    0    0   58    0   58    0

>  <minimizedAffinity>  (577) 
-5.55609

>  <CNNscore>  (577) 
0.6145015955

>  <CNNaffinity>  (577) 
4.3294768333

>  <CNN_VS>  (577) 
2.6604704857

>  <CNNaffinity_variance>  (577) 
0.1624760926

$$$$
578
     RDKit          3D

 43 45  0  0  0  0  0  0  0  0999 V2000
   22.8331   71.6166   -2.9248 P   0  0  2  0  0  0  0  0  0  0  0  0
   24.2617   70.8601   -2.8607 O   0  0  0  0  0  0  0  0  0  0  0  0
   21.9542   71.4138   -1.7257 O   0  0  0  0  0  0  0  0  0  0  0  0
   22.2082   71.1471   -4.3415 O   0  0  0  0  0  0  0  0  0  0  0  0
   21.6942   72.1372   -5.2151 C   0  0  0  0  0  0  0  0  0  0  0  0
   20.4753   70.3335   -6.2324 O   0  0  0  0  0  0  0  0  0  0  0  0
   20.6012   71.9275   -8.7690 O   0  0  0  0  0  0  0  0  0  0  0  0
   18.0689   72.4180   -7.8838 O   0  0  0  0  0  0  0  0  0  0  0  0
   20.4562   72.3816   -7.4243 C   0  0  1  0  0  0  0  0  0  0  0  0
   19.0551   72.1007   -6.9227 C   0  0  2  0  0  0  0  0  0  0  0  0
   21.3003   71.4809   -6.5313 C   0  0  1  0  0  0  0  0  0  0  0  0
   19.1206   70.6131   -6.6215 C   0  0  2  0  0  0  0  0  0  0  0  0
   20.0713   72.4878   -9.3582 H   0  0  0  0  0  0  0  0  0  0  0  0
   18.0665   73.3751   -8.0409 H   0  0  0  0  0  0  0  0  0  0  0  0
   16.4181   69.8690   -6.9693 O   0  0  0  0  0  0  0  0  0  0  0  0
   15.8388   69.1689   -2.4510 O   0  0  0  0  0  0  0  0  0  0  0  0
   18.2405   70.2313   -5.5533 N   0  0  0  0  0  0  0  0  0  0  0  0
   16.1319   69.5208   -4.7193 N   0  0  0  0  0  0  0  0  0  0  0  0
   16.9006   69.8763   -5.8349 C   0  0  0  0  0  0  0  0  0  0  0  0
   18.7080   70.2111   -4.2438 C   0  0  0  0  0  0  0  0  0  0  0  0
   17.9618   69.8710   -3.1909 C   0  0  0  0  0  0  0  0  0  0  0  0
   16.5507   69.4866   -3.3986 C   0  0  0  0  0  0  0  0  0  0  0  0
   15.1952   69.2701   -4.8912 H   0  0  0  0  0  0  0  0  0  0  0  0
   23.2480   73.1541   -3.2025 O   0  0  0  0  0  0  0  0  0  0  0  0
   23.3394   74.4251   -2.2079 P   0  0  2  0  0  0  0  0  0  0  0  0
   21.7885   74.7687   -1.9015 O   0  0  0  0  0  0  0  0  0  0  0  0
   24.1330   75.5771   -2.7530 O   0  0  0  0  0  0  0  0  0  0  0  0
   23.9043   73.8199   -0.8224 O   0  0  0  0  0  0  0  0  0  0  0  0
   22.3112   73.4646    0.8958 O   0  0  0  0  0  0  0  0  0  0  0  0
   25.7659   73.2755    3.1498 O   0  0  0  0  0  0  0  0  0  0  0  0
   24.2882   70.8716    2.6153 O   0  0  0  0  0  0  0  0  0  0  0  0
   25.5554   75.1886    0.9875 O   0  0  0  0  0  0  0  0  0  0  0  0
   24.9565   73.0805    1.9869 C   0  0  1  0  0  0  0  0  0  0  0  0
   23.7800   72.1794    2.3670 C   0  0  1  0  0  0  0  0  0  0  0  0
   24.4572   74.4370    1.4930 C   0  0  2  0  0  0  0  0  0  0  0  0
   22.7283   72.1408    1.2501 C   0  0  1  0  0  0  0  0  0  0  0  0
   23.3793   74.2850    0.4183 C   0  0  1  0  0  0  0  0  0  0  0  0
   26.0865   72.4180    3.4681 H   0  0  0  0  0  0  0  0  0  0  0  0
   24.9516   70.9100    3.3221 H   0  0  0  0  0  0  0  0  0  0  0  0
   26.2307   75.2780    1.6773 H   0  0  0  0  0  0  0  0  0  0  0  0
   21.5382   70.0731    1.1202 O   0  0  0  0  0  0  0  0  0  0  0  0
   21.4752   71.3759    1.6706 C   0  0  0  0  0  0  0  0  0  0  0  0
   20.7472   69.5745    1.3798 H   0  0  0  0  0  0  0  0  0  0  0  0
 25 28  1  0
 25 24  1  0
 25 26  1  1
 25 27  2  0
  1  4  1  0
  1 24  1  0
  1  2  1  1
  1  3  2  0
  6 11  1  0
  6 12  1  0
 29 36  1  0
 29 37  1  0
  9  7  1  6
  7 13  1  0
 10  8  1  6
  8 14  1  0
 37 28  1  6
  4  5  1  0
 33 30  1  1
 30 38  1  0
 34 31  1  6
 31 39  1  0
 35 32  1  6
 32 40  1  0
 41 42  1  0
 41 43  1  0
 15 19  2  0
 16 22  2  0
 12 17  1  1
 17 19  1  0
 17 20  1  0
 18 19  1  0
 18 22  1  0
 18 23  1  0
  9 10  1  0
  9 11  1  0
 10 12  1  0
 11  5  1  1
 33 34  1  0
 33 35  1  0
 34 36  1  0
 35 37  1  0
 36 42  1  1
 20 21  2  0
 21 22  1  0
M  CHG  2   2  -1  26  -1
M  END
>  <COMPND>  (578) 
    8629 

>  <AUTHOR>  (578) 
    GENERATED BY OPEN BABEL 3.1.1

>  <MASTER>  (578) 
        0    0    0    0    0    0    0    0   58    0   58    0

>  <minimizedAffinity>  (578) 
-6.99408

>  <CNNscore>  (578) 
0.6033131480

>  <CNNaffinity>  (578) 
4.2857313156

>  <CNN_VS>  (578) 
2.5856380463

>  <CNNaffinity_variance>  (578) 
0.1395936906

$$$$
579
     RDKit          3D

 43 45  0  0  0  0  0  0  0  0999 V2000
   21.6977   72.7786   -4.3325 P   0  0  2  0  0  0  0  0  0  0  0  0
   23.1394   72.1096   -4.6346 O   0  0  0  0  0  0  0  0  0  0  0  0
   21.2908   73.8644   -5.2849 O   0  0  0  0  0  0  0  0  0  0  0  0
   21.7871   73.2074   -2.7749 O   0  0  0  0  0  0  0  0  0  0  0  0
   22.8644   72.7131   -1.9984 C   0  0  0  0  0  0  0  0  0  0  0  0
   23.4793   71.0502   -0.3765 O   0  0  0  0  0  0  0  0  0  0  0  0
   20.5438   70.5065   -0.0973 O   0  0  0  0  0  0  0  0  0  0  0  0
   21.0727   72.0504    2.0874 O   0  0  0  0  0  0  0  0  0  0  0  0
   21.2145   71.7456   -0.3205 C   0  0  1  0  0  0  0  0  0  0  0  0
   21.8951   72.2114    0.9497 C   0  0  2  0  0  0  0  0  0  0  0  0
   22.4015   71.4781   -1.2376 C   0  0  1  0  0  0  0  0  0  0  0  0
   23.1284   71.3251    0.9896 C   0  0  2  0  0  0  0  0  0  0  0  0
   19.7816   70.6520    0.4857 H   0  0  0  0  0  0  0  0  0  0  0  0
   20.3021   72.6350    2.0149 H   0  0  0  0  0  0  0  0  0  0  0  0
   25.1090   69.9601    2.4701 O   0  0  0  0  0  0  0  0  0  0  0  0
   27.3463   73.8729    3.4324 O   0  0  0  0  0  0  0  0  0  0  0  0
   24.2400   71.9623    1.6374 N   0  0  0  0  0  0  0  0  0  0  0  0
   26.2215   71.9095    2.9479 N   0  0  0  0  0  0  0  0  0  0  0  0
   25.1781   71.1857    2.3568 C   0  0  0  0  0  0  0  0  0  0  0  0
   24.3918   73.3422    1.5556 C   0  0  0  0  0  0  0  0  0  0  0  0
   25.3918   74.0174    2.1261 C   0  0  0  0  0  0  0  0  0  0  0  0
   26.4148   73.2808    2.8961 C   0  0  0  0  0  0  0  0  0  0  0  0
   26.8868   71.3894    3.4545 H   0  0  0  0  0  0  0  0  0  0  0  0
   20.7046   71.5036   -4.3019 O   0  0  0  0  0  0  0  0  0  0  0  0
   19.1959   71.3462   -3.7432 P   0  0  2  0  0  0  0  0  0  0  0  0
   18.7965   72.8567   -3.3230 O   0  0  0  0  0  0  0  0  0  0  0  0
   19.0501   70.3377   -2.6407 O   0  0  0  0  0  0  0  0  0  0  0  0
   18.3051   71.0385   -5.0534 O   0  0  0  0  0  0  0  0  0  0  0  0
   19.1602   72.2217   -6.9203 O   0  0  0  0  0  0  0  0  0  0  0  0
   15.6937   70.7429   -8.6077 O   0  0  0  0  0  0  0  0  0  0  0  0
   18.2294   69.6344   -9.3755 O   0  0  0  0  0  0  0  0  0  0  0  0
   15.6881   71.6520   -5.8594 O   0  0  0  0  0  0  0  0  0  0  0  0
   16.8420   70.7170   -7.7556 C   0  0  1  0  0  0  0  0  0  0  0  0
   18.0911   70.8410   -8.6303 C   0  0  1  0  0  0  0  0  0  0  0  0
   16.7583   71.8808   -6.7697 C   0  0  2  0  0  0  0  0  0  0  0  0
   19.3425   71.0885   -7.7772 C   0  0  1  0  0  0  0  0  0  0  0  0
   18.0711   72.0709   -6.0076 C   0  0  1  0  0  0  0  0  0  0  0  0
   15.7404   70.0061   -9.2358 H   0  0  0  0  0  0  0  0  0  0  0  0
   17.4324   69.4896   -9.9094 H   0  0  0  0  0  0  0  0  0  0  0  0
   14.8628   71.5335   -6.3541 H   0  0  0  0  0  0  0  0  0  0  0  0
   21.2182   72.5260   -8.1296 O   0  0  0  0  0  0  0  0  0  0  0  0
   20.5732   71.3719   -8.6358 C   0  0  0  0  0  0  0  0  0  0  0  0
   22.0036   72.7183   -8.6661 H   0  0  0  0  0  0  0  0  0  0  0  0
 25 28  1  0
 25 24  1  0
 25 26  1  1
 25 27  2  0
  1  4  1  0
  1 24  1  0
  1  2  1  6
  1  3  2  0
  6 11  1  0
  6 12  1  0
 29 36  1  0
 29 37  1  0
  9  7  1  1
  7 13  1  0
 10  8  1  1
  8 14  1  0
 37 28  1  1
  4  5  1  0
 33 30  1  6
 30 38  1  0
 34 31  1  1
 31 39  1  0
 35 32  1  1
 32 40  1  0
 41 42  1  0
 41 43  1  0
 15 19  2  0
 16 22  2  0
 12 17  1  6
 17 19  1  0
 17 20  1  0
 18 19  1  0
 18 22  1  0
 18 23  1  0
  9 10  1  0
  9 11  1  0
 10 12  1  0
 11  5  1  1
 33 34  1  0
 33 35  1  0
 34 36  1  0
 35 37  1  0
 36 42  1  6
 20 21  2  0
 21 22  1  0
M  CHG  2   2  -1  26  -1
M  END
>  <COMPND>  (579) 
    8629 

>  <AUTHOR>  (579) 
    GENERATED BY OPEN BABEL 3.1.1

>  <MASTER>  (579) 
        0    0    0    0    0    0    0    0   58    0   58    0

>  <minimizedAffinity>  (579) 
-7.44968

>  <CNNscore>  (579) 
0.5816469789

>  <CNNaffinity>  (579) 
4.2959561348

>  <CNN_VS>  (579) 
2.4987299442

>  <CNNaffinity_variance>  (579) 
0.1102498174

$$$$
580
     RDKit          3D

 43 45  0  0  0  0  0  0  0  0999 V2000
   21.8050   72.7318   -6.0796 P   0  0  2  0  0  0  0  0  0  0  0  0
   21.7750   73.9499   -7.1440 O   0  0  0  0  0  0  0  0  0  0  0  0
   23.1724   72.3435   -5.5992 O   0  0  0  0  0  0  0  0  0  0  0  0
   20.9564   71.5609   -6.8053 O   0  0  0  0  0  0  0  0  0  0  0  0
   20.2953   71.8600   -8.0224 C   0  0  0  0  0  0  0  0  0  0  0  0
   19.0478   69.9305   -7.3191 O   0  0  0  0  0  0  0  0  0  0  0  0
   17.9895   69.8251  -10.1226 O   0  0  0  0  0  0  0  0  0  0  0  0
   15.9326   70.9794   -8.7538 O   0  0  0  0  0  0  0  0  0  0  0  0
   18.2978   70.9613   -9.3168 C   0  0  1  0  0  0  0  0  0  0  0  0
   17.2411   71.1507   -8.2485 C   0  0  2  0  0  0  0  0  0  0  0  0
   19.5319   70.6277   -8.4879 C   0  0  1  0  0  0  0  0  0  0  0  0
   17.6214   70.0833   -7.2365 C   0  0  2  0  0  0  0  0  0  0  0  0
   17.2047   70.0144  -10.6614 H   0  0  0  0  0  0  0  0  0  0  0  0
   15.7382   71.6825   -9.3931 H   0  0  0  0  0  0  0  0  0  0  0  0
   16.3537   68.3612   -5.3911 O   0  0  0  0  0  0  0  0  0  0  0  0
   16.3149   71.6020   -2.1144 O   0  0  0  0  0  0  0  0  0  0  0  0
   17.2687   70.4509   -5.8941 N   0  0  0  0  0  0  0  0  0  0  0  0
   16.3355   69.9762   -3.7610 N   0  0  0  0  0  0  0  0  0  0  0  0
   16.6339   69.5117   -5.0484 C   0  0  0  0  0  0  0  0  0  0  0  0
   17.5528   71.7302   -5.4286 C   0  0  0  0  0  0  0  0  0  0  0  0
   17.2606   72.1579   -4.1986 C   0  0  0  0  0  0  0  0  0  0  0  0
   16.5966   71.2386   -3.2521 C   0  0  0  0  0  0  0  0  0  0  0  0
   15.8927   69.3394   -3.1543 H   0  0  0  0  0  0  0  0  0  0  0  0
   20.8028   73.2399   -4.9175 O   0  0  0  0  0  0  0  0  0  0  0  0
   20.8123   74.5848   -4.0207 P   0  0  2  0  0  0  0  0  0  0  0  0
   19.2909   75.1218   -4.1413 O   0  0  0  0  0  0  0  0  0  0  0  0
   21.8561   75.5858   -4.4237 O   0  0  0  0  0  0  0  0  0  0  0  0
   20.9402   74.0606   -2.4996 O   0  0  0  0  0  0  0  0  0  0  0  0
   20.7698   71.9009   -1.5387 O   0  0  0  0  0  0  0  0  0  0  0  0
   18.7975   74.0732    1.3667 O   0  0  0  0  0  0  0  0  0  0  0  0
   21.4246   73.0447    1.9039 O   0  0  0  0  0  0  0  0  0  0  0  0
   18.4370   74.7384   -1.4274 O   0  0  0  0  0  0  0  0  0  0  0  0
   19.7838   73.8424    0.3572 C   0  0  1  0  0  0  0  0  0  0  0  0
   20.6372   72.6468    0.7850 C   0  0  1  0  0  0  0  0  0  0  0  0
   19.0827   73.5553   -0.9693 C   0  0  2  0  0  0  0  0  0  0  0  0
   21.5398   72.1718   -0.3617 C   0  0  1  0  0  0  0  0  0  0  0  0
   20.0622   73.0425   -2.0265 C   0  0  1  0  0  0  0  0  0  0  0  0
   19.2361   74.2566    2.2114 H   0  0  0  0  0  0  0  0  0  0  0  0
   20.8427   73.3428    2.6207 H   0  0  0  0  0  0  0  0  0  0  0  0
   17.8194   75.0528   -0.7494 H   0  0  0  0  0  0  0  0  0  0  0  0
   21.5837   70.2339    1.0353 O   0  0  0  0  0  0  0  0  0  0  0  0
   22.2832   70.8853   -0.0091 C   0  0  0  0  0  0  0  0  0  0  0  0
   22.0453   69.4132    1.2700 H   0  0  0  0  0  0  0  0  0  0  0  0
 25 28  1  0
 25 24  1  0
 25 26  1  1
 25 27  2  0
  1  4  1  0
  1 24  1  0
  1  2  1  6
  1  3  2  0
  6 11  1  0
  6 12  1  0
 29 36  1  0
 29 37  1  0
  9  7  1  6
  7 13  1  0
 10  8  1  6
  8 14  1  0
 37 28  1  1
  4  5  1  0
 33 30  1  1
 30 38  1  0
 34 31  1  1
 31 39  1  0
 35 32  1  6
 32 40  1  0
 41 42  1  0
 41 43  1  0
 15 19  2  0
 16 22  2  0
 12 17  1  1
 17 19  1  0
 17 20  1  0
 18 19  1  0
 18 22  1  0
 18 23  1  0
  9 10  1  0
  9 11  1  0
 10 12  1  0
 11  5  1  1
 33 34  1  0
 33 35  1  0
 34 36  1  0
 35 37  1  0
 36 42  1  1
 20 21  2  0
 21 22  1  0
M  CHG  2   2  -1  26  -1
M  END
