1
     RDKit          3D

 43 45  0  0  0  0  0  0  0  0999 V2000
   29.4964   74.0007   -2.2803 P   0  0  2  0  0  0  0  0  0  0  0  0
   28.0053   73.7796   -2.8691 O   0  0  0  0  0  0  0  0  0  0  0  0
   30.0014   75.4122   -2.3477 O   0  0  0  0  0  0  0  0  0  0  0  0
   30.3887   72.8974   -3.0577 O   0  0  0  0  0  0  0  0  0  0  0  0
   29.7459   71.7407   -3.5609 C   0  0  0  0  0  0  0  0  0  0  0  0
   28.7182   69.7021   -2.8088 O   0  0  0  0  0  0  0  0  0  0  0  0
   31.1521   69.3246   -1.0984 O   0  0  0  0  0  0  0  0  0  0  0  0
   31.6401   67.6625   -3.2045 O   0  0  0  0  0  0  0  0  0  0  0  0
   31.0459   69.8819   -2.4087 C   0  0  1  0  0  0  0  0  0  0  0  0
   30.8139   68.7860   -3.4272 C   0  0  2  0  0  0  0  0  0  0  0  0
   29.7427   70.6658   -2.4816 C   0  0  1  0  0  0  0  0  0  0  0  0
   29.3400   68.4768   -3.2274 C   0  0  2  0  0  0  0  0  0  0  0  0
   31.9773   68.8190   -1.0277 H   0  0  0  0  0  0  0  0  0  0  0  0
   32.5679   67.9107   -3.3443 H   0  0  0  0  0  0  0  0  0  0  0  0
   26.7947   67.2571   -3.3296 O   0  0  0  0  0  0  0  0  0  0  0  0
   27.0125   66.7650   -7.9072 O   0  0  0  0  0  0  0  0  0  0  0  0
   28.7076   68.0203   -4.4327 N   0  0  0  0  0  0  0  0  0  0  0  0
   26.9060   67.0123   -5.6093 N   0  0  0  0  0  0  0  0  0  0  0  0
   27.4272   67.4208   -4.3746 C   0  0  0  0  0  0  0  0  0  0  0  0
   29.3532   68.1696   -5.6541 C   0  0  0  0  0  0  0  0  0  0  0  0
   28.8437   67.7752   -6.8227 C   0  0  0  0  0  0  0  0  0  0  0  0
   27.5104   67.1387   -6.8496 C   0  0  0  0  0  0  0  0  0  0  0  0
   26.0166   66.5903   -5.5939 H   0  0  0  0  0  0  0  0  0  0  0  0
   29.3899   73.3943   -0.7857 O   0  0  0  0  0  0  0  0  0  0  0  0
   30.5137   73.1859    0.3578 P   0  0  2  0  0  0  0  0  0  0  0  0
   30.9092   74.7010    0.7681 O   0  0  0  0  0  0  0  0  0  0  0  0
   31.6763   72.3372   -0.0688 O   0  0  0  0  0  0  0  0  0  0  0  0
   29.7017   72.6181    1.6309 O   0  0  0  0  0  0  0  0  0  0  0  0
   30.6397   70.8185    2.8518 O   0  0  0  0  0  0  0  0  0  0  0  0
   26.7352   70.8057    4.2019 O   0  0  0  0  0  0  0  0  0  0  0  0
   27.3208   71.2046    1.3677 O   0  0  0  0  0  0  0  0  0  0  0  0
   28.8568   71.8663    5.8826 O   0  0  0  0  0  0  0  0  0  0  0  0
   27.9408   71.3878    3.7061 C   0  0  2  0  0  0  0  0  0  0  0  0
   28.2738   70.7892    2.3393 C   0  0  2  0  0  0  0  0  0  0  0  0
   29.0585   71.0848    4.7066 C   0  0  1  0  0  0  0  0  0  0  0  0
   29.6697   71.2142    1.8813 C   0  0  1  0  0  0  0  0  0  0  0  0
   30.4301   71.4196    4.1277 C   0  0  1  0  0  0  0  0  0  0  0  0
   26.0106   70.9854    3.5823 H   0  0  0  0  0  0  0  0  0  0  0  0
   26.4328   70.9384    1.6521 H   0  0  0  0  0  0  0  0  0  0  0  0
   27.9871   71.6628    6.2609 H   0  0  0  0  0  0  0  0  0  0  0  0
   31.8057   71.6268    6.0161 O   0  0  0  0  0  0  0  0  0  0  0  0
   32.0739   69.7606    4.7337 O   0  0  0  0  0  0  0  0  0  0  0  0
   31.5175   70.8243    4.9617 C   0  0  0  0  0  0  0  0  0  0  0  0
  1  4  1  0
  1 24  1  0
  1  2  1  6
  1  3  2  0
 25 28  1  0
 25 24  1  0
 25 26  1  1
 25 27  2  0
  6 11  1  0
  6 12  1  0
 29 36  1  0
 29 37  1  0
  9  7  1  1
  7 13  1  0
 10  8  1  1
  8 14  1  0
  4  5  1  0
 36 28  1  1
 33 30  1  1
 30 38  1  0
 34 31  1  6
 31 39  1  0
 35 32  1  1
 32 40  1  0
 41 43  1  0
 15 19  2  0
 42 43  2  0
 16 22  2  0
 12 17  1  6
 17 19  1  0
 17 20  1  0
 18 19  1  0
 18 22  1  0
 18 23  1  0
  9 10  1  0
  9 11  1  0
 10 12  1  0
 11  5  1  6
 33 34  1  0
 33 35  1  0
 34 36  1  0
 35 37  1  0
 37 43  1  1
 20 21  2  0
 21 22  1  0
M  CHG  3   2  -1  26  -1  41  -1
M  END
>  <COMPND>  (1) 
    udp_gluA.pdb 

>  <AUTHOR>  (1) 
    GENERATED BY OPEN BABEL 3.1.1

>  <MASTER>  (1) 
        0    0    0    0    0    0    0    0   56    0   56    0

>  <minimizedAffinity>  (1) 
-7.54732

>  <CNNscore>  (1) 
0.6521354914

>  <CNNaffinity>  (1) 
4.4491910934

>  <CNN_VS>  (1) 
2.9014754295

>  <CNNaffinity_variance>  (1) 
0.0400859192

$$$$
2
     RDKit          3D

 43 45  0  0  0  0  0  0  0  0999 V2000
   26.1786   72.2376   -3.9420 P   0  0  2  0  0  0  0  0  0  0  0  0
   25.6445   70.7933   -3.4443 O   0  0  0  0  0  0  0  0  0  0  0  0
   26.2030   72.4254   -5.4306 O   0  0  0  0  0  0  0  0  0  0  0  0
   27.6007   72.4065   -3.1890 O   0  0  0  0  0  0  0  0  0  0  0  0
   28.7411   71.7827   -3.7501 C   0  0  0  0  0  0  0  0  0  0  0  0
   28.5103   69.5187   -2.9762 O   0  0  0  0  0  0  0  0  0  0  0  0
   31.2462   69.8414   -1.7919 O   0  0  0  0  0  0  0  0  0  0  0  0
   31.7468   68.4350   -4.0739 O   0  0  0  0  0  0  0  0  0  0  0  0
   30.7217   70.3670   -3.0115 C   0  0  1  0  0  0  0  0  0  0  0  0
   30.6082   69.2701   -4.0489 C   0  0  2  0  0  0  0  0  0  0  0  0
   29.2631   70.7347   -2.7756 C   0  0  1  0  0  0  0  0  0  0  0  0
   29.3557   68.5380   -3.5981 C   0  0  2  0  0  0  0  0  0  0  0  0
   32.1774   69.5993   -1.9179 H   0  0  0  0  0  0  0  0  0  0  0  0
   32.5171   68.9473   -4.3673 H   0  0  0  0  0  0  0  0  0  0  0  0
   26.8035   67.3472   -3.3859 O   0  0  0  0  0  0  0  0  0  0  0  0
   26.7337   66.2673   -7.8661 O   0  0  0  0  0  0  0  0  0  0  0  0
   28.6475   67.9381   -4.6933 N   0  0  0  0  0  0  0  0  0  0  0  0
   26.7716   66.8096   -5.6173 N   0  0  0  0  0  0  0  0  0  0  0  0
   27.3705   67.3672   -4.4800 C   0  0  0  0  0  0  0  0  0  0  0  0
   29.2165   67.9209   -5.9609 C   0  0  0  0  0  0  0  0  0  0  0  0
   28.6333   67.3858   -7.0354 C   0  0  0  0  0  0  0  0  0  0  0  0
   27.2982   66.7678   -6.8981 C   0  0  0  0  0  0  0  0  0  0  0  0
   25.8830   66.4042   -5.4932 H   0  0  0  0  0  0  0  0  0  0  0  0
   25.2222   73.2713   -3.1485 O   0  0  0  0  0  0  0  0  0  0  0  0
   24.6347   73.2317   -1.6428 P   0  0  2  0  0  0  0  0  0  0  0  0
   24.0178   74.7155   -1.4474 O   0  0  0  0  0  0  0  0  0  0  0  0
   25.6399   72.8376   -0.5997 O   0  0  0  0  0  0  0  0  0  0  0  0
   23.3471   72.2638   -1.7312 O   0  0  0  0  0  0  0  0  0  0  0  0
   22.0714   72.6418   -3.6905 O   0  0  0  0  0  0  0  0  0  0  0  0
   19.6888   69.9608   -1.6403 O   0  0  0  0  0  0  0  0  0  0  0  0
   21.0107   72.1491   -0.2266 O   0  0  0  0  0  0  0  0  0  0  0  0
   21.2565   69.0718   -3.9213 O   0  0  0  0  0  0  0  0  0  0  0  0
   20.9158   70.5597   -2.0572 C   0  0  2  0  0  0  0  0  0  0  0  0
   20.9338   72.0312   -1.6426 C   0  0  2  0  0  0  0  0  0  0  0  0
   21.0100   70.4344   -3.5795 C   0  0  1  0  0  0  0  0  0  0  0  0
   22.1229   72.7614   -2.2684 C   0  0  1  0  0  0  0  0  0  0  0  0
   22.1421   71.2904   -4.1399 C   0  0  1  0  0  0  0  0  0  0  0  0
   19.6070   70.0285   -0.6759 H   0  0  0  0  0  0  0  0  0  0  0  0
   20.2593   71.6878    0.1771 H   0  0  0  0  0  0  0  0  0  0  0  0
   20.5431   68.5162   -3.5703 H   0  0  0  0  0  0  0  0  0  0  0  0
   23.0170   72.2024   -6.1159 O   0  0  0  0  0  0  0  0  0  0  0  0
   21.1527   70.9034   -6.3061 O   0  0  0  0  0  0  0  0  0  0  0  0
   22.0223   71.4234   -5.6232 C   0  0  0  0  0  0  0  0  0  0  0  0
  1  4  1  0
  1 24  1  0
  1  2  1  6
  1  3  2  0
 25 28  1  0
 25 24  1  0
 25 26  1  1
 25 27  2  0
  6 11  1  0
  6 12  1  0
 29 36  1  0
 29 37  1  0
  9  7  1  1
  7 13  1  0
 10  8  1  1
  8 14  1  0
  4  5  1  0
 36 28  1  1
 33 30  1  6
 30 38  1  0
 34 31  1  1
 31 39  1  0
 35 32  1  1
 32 40  1  0
 41 43  1  0
 15 19  2  0
 42 43  2  0
 16 22  2  0
 12 17  1  6
 17 19  1  0
 17 20  1  0
 18 19  1  0
 18 22  1  0
 18 23  1  0
  9 10  1  0
  9 11  1  0
 10 12  1  0
 11  5  1  6
 33 34  1  0
 33 35  1  0
 34 36  1  0
 35 37  1  0
 37 43  1  6
 20 21  2  0
 21 22  1  0
M  CHG  3   2  -1  26  -1  41  -1
M  END
>  <COMPND>  (2) 
    udp_gluA.pdb 

>  <AUTHOR>  (2) 
    GENERATED BY OPEN BABEL 3.1.1

>  <MASTER>  (2) 
        0    0    0    0    0    0    0    0   56    0   56    0

>  <minimizedAffinity>  (2) 
-7.55053

>  <CNNscore>  (2) 
0.6348755956

>  <CNNaffinity>  (2) 
4.8269581795

>  <CNN_VS>  (2) 
3.0645179749

>  <CNNaffinity_variance>  (2) 
0.0968152434

$$$$
3
     RDKit          3D

 43 45  0  0  0  0  0  0  0  0999 V2000
   25.7781   72.0666   -1.7977 P   0  0  2  0  0  0  0  0  0  0  0  0
   25.7470   70.6583   -2.5944 O   0  0  0  0  0  0  0  0  0  0  0  0
   24.4774   72.8149   -1.7829 O   0  0  0  0  0  0  0  0  0  0  0  0
   27.0338   72.8531   -2.4478 O   0  0  0  0  0  0  0  0  0  0  0  0
   27.9888   72.1109   -3.1838 C   0  0  0  0  0  0  0  0  0  0  0  0
   29.1344   70.1403   -2.4209 O   0  0  0  0  0  0  0  0  0  0  0  0
   31.1903   72.0025   -1.2820 O   0  0  0  0  0  0  0  0  0  0  0  0
   32.3758   71.1404   -3.5814 O   0  0  0  0  0  0  0  0  0  0  0  0
   30.4361   72.1181   -2.4888 C   0  0  1  0  0  0  0  0  0  0  0  0
   30.9645   71.1557   -3.5313 C   0  0  2  0  0  0  0  0  0  0  0  0
   29.0410   71.5681   -2.2254 C   0  0  1  0  0  0  0  0  0  0  0  0
   30.3816   69.8330   -3.0637 C   0  0  2  0  0  0  0  0  0  0  0  0
   32.0857   72.3478   -1.4256 H   0  0  0  0  0  0  0  0  0  0  0  0
   32.6979   72.0043   -3.8847 H   0  0  0  0  0  0  0  0  0  0  0  0
   31.6451   67.3254   -3.3666 O   0  0  0  0  0  0  0  0  0  0  0  0
   29.3628   66.4424   -7.2724 O   0  0  0  0  0  0  0  0  0  0  0  0
   30.1362   68.9277   -4.1504 N   0  0  0  0  0  0  0  0  0  0  0  0
   30.5079   66.8884   -5.3122 N   0  0  0  0  0  0  0  0  0  0  0  0
   30.8238   67.6924   -4.2091 C   0  0  0  0  0  0  0  0  0  0  0  0
   29.2227   69.2653   -5.1416 C   0  0  0  0  0  0  0  0  0  0  0  0
   28.9320   68.4884   -6.1870 C   0  0  0  0  0  0  0  0  0  0  0  0
   29.6074   67.1813   -6.3235 C   0  0  0  0  0  0  0  0  0  0  0  0
   30.9756   66.0244   -5.3757 H   0  0  0  0  0  0  0  0  0  0  0  0
   26.3293   71.6455   -0.3377 O   0  0  0  0  0  0  0  0  0  0  0  0
   26.4895   72.5022    1.0240 P   0  0  2  0  0  0  0  0  0  0  0  0
   25.4552   71.7804    2.0387 O   0  0  0  0  0  0  0  0  0  0  0  0
   26.2622   73.9764    0.8544 O   0  0  0  0  0  0  0  0  0  0  0  0
   27.9504   72.1101    1.5847 O   0  0  0  0  0  0  0  0  0  0  0  0
   29.2203   70.1132    1.6785 O   0  0  0  0  0  0  0  0  0  0  0  0
   30.0326   71.7998    5.3614 O   0  0  0  0  0  0  0  0  0  0  0  0
   27.3190   71.8405    4.2800 O   0  0  0  0  0  0  0  0  0  0  0  0
   32.0202   71.8959    3.2421 O   0  0  0  0  0  0  0  0  0  0  0  0
   29.7246   71.7999    3.9674 C   0  0  2  0  0  0  0  0  0  0  0  0
   28.3941   71.0827    3.7373 C   0  0  2  0  0  0  0  0  0  0  0  0
   30.8544   71.0741    3.2334 C   0  0  1  0  0  0  0  0  0  0  0  0
   28.1433   70.8606    2.2451 C   0  0  1  0  0  0  0  0  0  0  0  0
   30.4774   70.7777    1.7848 C   0  0  1  0  0  0  0  0  0  0  0  0
   29.3282   72.2558    5.8484 H   0  0  0  0  0  0  0  0  0  0  0  0
   27.4718   71.9855    5.2266 H   0  0  0  0  0  0  0  0  0  0  0  0
   32.2707   72.0921    4.1584 H   0  0  0  0  0  0  0  0  0  0  0  0
   30.8912   69.2333    0.0687 O   0  0  0  0  0  0  0  0  0  0  0  0
   32.5380   69.5338    1.6169 O   0  0  0  0  0  0  0  0  0  0  0  0
   31.4278   69.7966    1.1795 C   0  0  0  0  0  0  0  0  0  0  0  0
  1  4  1  0
  1 24  1  0
  1  2  1  6
  1  3  2  0
 25 28  1  0
 25 24  1  0
 25 26  1  1
 25 27  2  0
  6 11  1  0
  6 12  1  0
 29 36  1  0
 29 37  1  0
  9  7  1  1
  7 13  1  0
 10  8  1  1
  8 14  1  0
  4  5  1  0
 36 28  1  6
 33 30  1  1
 30 38  1  0
 34 31  1  6
 31 39  1  0
 35 32  1  6
 32 40  1  0
 41 43  1  0
 15 19  2  0
 42 43  2  0
 16 22  2  0
 12 17  1  6
 17 19  1  0
 17 20  1  0
 18 19  1  0
 18 22  1  0
 18 23  1  0
  9 10  1  0
  9 11  1  0
 10 12  1  0
 11  5  1  6
 33 34  1  0
 33 35  1  0
 34 36  1  0
 35 37  1  0
 37 43  1  1
 20 21  2  0
 21 22  1  0
M  CHG  3   2  -1  26  -1  41  -1
M  END
>  <COMPND>  (3) 
    udp_gluA.pdb 

>  <AUTHOR>  (3) 
    GENERATED BY OPEN BABEL 3.1.1

>  <MASTER>  (3) 
        0    0    0    0    0    0    0    0   56    0   56    0

>  <minimizedAffinity>  (3) 
-6.73594

>  <CNNscore>  (3) 
0.5951178074

>  <CNNaffinity>  (3) 
4.3577933311

>  <CNN_VS>  (3) 
2.5934004784

>  <CNNaffinity_variance>  (3) 
0.1781530827

$$$$
4
     RDKit          3D

 43 45  0  0  0  0  0  0  0  0999 V2000
   24.6993   73.5265   -4.9456 P   0  0  2  0  0  0  0  0  0  0  0  0
   25.0584   74.7010   -5.9994 O   0  0  0  0  0  0  0  0  0  0  0  0
   24.1153   73.9980   -3.6462 O   0  0  0  0  0  0  0  0  0  0  0  0
   26.0701   72.6744   -4.8316 O   0  0  0  0  0  0  0  0  0  0  0  0
   25.9939   71.3241   -4.4129 C   0  0  0  0  0  0  0  0  0  0  0  0
   27.3938   69.8103   -3.1775 O   0  0  0  0  0  0  0  0  0  0  0  0
   28.4164   72.2301   -1.7316 O   0  0  0  0  0  0  0  0  0  0  0  0
   30.3996   71.7315   -3.5355 O   0  0  0  0  0  0  0  0  0  0  0  0
   28.0344   72.0894   -3.1001 C   0  0  1  0  0  0  0  0  0  0  0  0
   29.0898   71.3164   -3.8621 C   0  0  2  0  0  0  0  0  0  0  0  0
   26.8419   71.1446   -3.1603 C   0  0  1  0  0  0  0  0  0  0  0  0
   28.8053   69.8871   -3.4329 C   0  0  2  0  0  0  0  0  0  0  0  0
   29.1768   72.8295   -1.6678 H   0  0  0  0  0  0  0  0  0  0  0  0
   30.5313   72.6471   -3.8293 H   0  0  0  0  0  0  0  0  0  0  0  0
   30.9021   68.0083   -3.2099 O   0  0  0  0  0  0  0  0  0  0  0  0
   30.0332   66.2691   -7.3889 O   0  0  0  0  0  0  0  0  0  0  0  0
   29.1488   68.9316   -4.4477 N   0  0  0  0  0  0  0  0  0  0  0  0
   30.4680   67.1446   -5.2919 N   0  0  0  0  0  0  0  0  0  0  0  0
   30.2203   68.0319   -4.2363 C   0  0  0  0  0  0  0  0  0  0  0  0
   28.4276   68.8908   -5.6347 C   0  0  0  0  0  0  0  0  0  0  0  0
   28.6755   68.0393   -6.6318 C   0  0  0  0  0  0  0  0  0  0  0  0
   29.7788   67.0665   -6.4913 C   0  0  0  0  0  0  0  0  0  0  0  0
   31.2105   66.5099   -5.1687 H   0  0  0  0  0  0  0  0  0  0  0  0
   23.7358   72.5520   -5.8027 O   0  0  0  0  0  0  0  0  0  0  0  0
   22.2191   72.0586   -5.5384 P   0  0  2  0  0  0  0  0  0  0  0  0
   21.7615   72.9387   -4.2592 O   0  0  0  0  0  0  0  0  0  0  0  0
   22.0777   70.5757   -5.3513 O   0  0  0  0  0  0  0  0  0  0  0  0
   21.3718   72.6615   -6.7716 O   0  0  0  0  0  0  0  0  0  0  0  0
   20.2897   74.7311   -6.3776 O   0  0  0  0  0  0  0  0  0  0  0  0
   18.5595   73.5418   -9.9357 O   0  0  0  0  0  0  0  0  0  0  0  0
   19.0049   71.6123   -7.7879 O   0  0  0  0  0  0  0  0  0  0  0  0
   20.5835   75.6284   -9.9232 O   0  0  0  0  0  0  0  0  0  0  0  0
   19.6003   73.6488   -8.9645 C   0  0  2  0  0  0  0  0  0  0  0  0
   19.1386   73.0220   -7.6486 C   0  0  2  0  0  0  0  0  0  0  0  0
   19.9114   75.1340   -8.7663 C   0  0  1  0  0  0  0  0  0  0  0  0
   20.1307   73.3194   -6.5233 C   0  0  1  0  0  0  0  0  0  0  0  0
   20.8048   75.3586   -7.5498 C   0  0  1  0  0  0  0  0  0  0  0  0
   18.3448   72.6064  -10.0781 H   0  0  0  0  0  0  0  0  0  0  0  0
   18.3770   71.4164   -8.5005 H   0  0  0  0  0  0  0  0  0  0  0  0
   20.0255   75.4914  -10.7046 H   0  0  0  0  0  0  0  0  0  0  0  0
   20.0519   77.5323   -8.0075 O   0  0  0  0  0  0  0  0  0  0  0  0
   21.4674   77.2727   -6.2388 O   0  0  0  0  0  0  0  0  0  0  0  0
   20.8329   76.8038   -7.1719 C   0  0  0  0  0  0  0  0  0  0  0  0
  1  4  1  0
  1 24  1  0
  1  2  1  6
  1  3  2  0
 25 28  1  0
 25 24  1  0
 25 26  1  1
 25 27  2  0
  6 11  1  0
  6 12  1  0
 29 36  1  0
 29 37  1  0
  9  7  1  1
  7 13  1  0
 10  8  1  1
  8 14  1  0
  4  5  1  0
 36 28  1  6
 33 30  1  6
 30 38  1  0
 34 31  1  6
 31 39  1  0
 35 32  1  6
 32 40  1  0
 41 43  1  0
 15 19  2  0
 42 43  2  0
 16 22  2  0
 12 17  1  6
 17 19  1  0
 17 20  1  0
 18 19  1  0
 18 22  1  0
 18 23  1  0
  9 10  1  0
  9 11  1  0
 10 12  1  0
 11  5  1  6
 33 34  1  0
 33 35  1  0
 34 36  1  0
 35 37  1  0
 37 43  1  1
 20 21  2  0
 21 22  1  0
M  CHG  3   2  -1  26  -1  41  -1
M  END
>  <COMPND>  (4) 
    udp_gluA.pdb 

>  <AUTHOR>  (4) 
    GENERATED BY OPEN BABEL 3.1.1

>  <MASTER>  (4) 
        0    0    0    0    0    0    0    0   56    0   56    0

>  <minimizedAffinity>  (4) 
-7.12405

>  <CNNscore>  (4) 
0.5819447637

>  <CNNaffinity>  (4) 
4.5141143799

>  <CNN_VS>  (4) 
2.6269652843

>  <CNNaffinity_variance>  (4) 
0.1007237434

$$$$
5
     RDKit          3D

 43 45  0  0  0  0  0  0  0  0999 V2000
   25.1808   72.9294   -4.7751 P   0  0  2  0  0  0  0  0  0  0  0  0
   26.0524   74.2562   -5.0891 O   0  0  0  0  0  0  0  0  0  0  0  0
   24.0092   72.7105   -5.6868 O   0  0  0  0  0  0  0  0  0  0  0  0
   24.8314   73.0578   -3.2005 O   0  0  0  0  0  0  0  0  0  0  0  0
   23.7052   73.8260   -2.8183 C   0  0  0  0  0  0  0  0  0  0  0  0
   23.1519   71.8100   -1.6321 O   0  0  0  0  0  0  0  0  0  0  0  0
   20.3250   72.8102   -1.6265 O   0  0  0  0  0  0  0  0  0  0  0  0
   21.1754   73.4132    0.8933 O   0  0  0  0  0  0  0  0  0  0  0  0
   21.5436   73.5445   -1.5066 C   0  0  1  0  0  0  0  0  0  0  0  0
   22.1444   73.3421   -0.1317 C   0  0  2  0  0  0  0  0  0  0  0  0
   22.5796   72.8857   -2.4071 C   0  0  1  0  0  0  0  0  0  0  0  0
   22.7619   71.9598   -0.2577 C   0  0  2  0  0  0  0  0  0  0  0  0
   19.6476   73.2124   -1.0599 H   0  0  0  0  0  0  0  0  0  0  0  0
   20.8126   74.3125    0.9334 H   0  0  0  0  0  0  0  0  0  0  0  0
   22.6838   71.0874    2.4273 O   0  0  0  0  0  0  0  0  0  0  0  0
   27.2646   71.3778    2.8462 O   0  0  0  0  0  0  0  0  0  0  0  0
   23.9192   71.7986    0.5762 N   0  0  0  0  0  0  0  0  0  0  0  0
   24.9653   71.2339    2.6337 N   0  0  0  0  0  0  0  0  0  0  0  0
   23.7707   71.3547    1.9115 C   0  0  0  0  0  0  0  0  0  0  0  0
   25.1831   72.0770    0.0701 C   0  0  0  0  0  0  0  0  0  0  0  0
   26.3125   71.9569    0.7706 C   0  0  0  0  0  0  0  0  0  0  0  0
   26.2450   71.4996    2.1741 C   0  0  0  0  0  0  0  0  0  0  0  0
   24.8871   70.9284    3.5664 H   0  0  0  0  0  0  0  0  0  0  0  0
   26.2879   71.7520   -4.8068 O   0  0  0  0  0  0  0  0  0  0  0  0
   26.5684   70.5310   -3.7849 P   0  0  2  0  0  0  0  0  0  0  0  0
   25.0983   69.8920   -3.5598 O   0  0  0  0  0  0  0  0  0  0  0  0
   27.2673   70.9355   -2.5193 O   0  0  0  0  0  0  0  0  0  0  0  0
   27.3588   69.4341   -4.6651 O   0  0  0  0  0  0  0  0  0  0  0  0
   26.9226   67.1732   -5.2190 O   0  0  0  0  0  0  0  0  0  0  0  0
   31.0217   67.1370   -4.7045 O   0  0  0  0  0  0  0  0  0  0  0  0
   29.3105   68.6198   -2.8585 O   0  0  0  0  0  0  0  0  0  0  0  0
   29.8862   67.0679   -7.3797 O   0  0  0  0  0  0  0  0  0  0  0  0
   29.7575   67.6983   -5.0579 C   0  0  2  0  0  0  0  0  0  0  0  0
   28.8386   67.6997   -3.8359 C   0  0  2  0  0  0  0  0  0  0  0  0
   29.1560   66.8430   -6.1752 C   0  0  1  0  0  0  0  0  0  0  0  0
   27.4092   68.0777   -4.2267 C   0  0  1  0  0  0  0  0  0  0  0  0
   27.6915   67.1954   -6.4196 C   0  0  1  0  0  0  0  0  0  0  0  0
   31.4230   67.6642   -3.9957 H   0  0  0  0  0  0  0  0  0  0  0  0
   30.2172   68.3861   -2.6061 H   0  0  0  0  0  0  0  0  0  0  0  0
   30.8200   66.8476   -7.2377 H   0  0  0  0  0  0  0  0  0  0  0  0
   26.1643   65.4181   -6.5205 O   0  0  0  0  0  0  0  0  0  0  0  0
   27.2303   65.9845   -8.4549 O   0  0  0  0  0  0  0  0  0  0  0  0
   27.0288   66.1543   -7.2617 C   0  0  0  0  0  0  0  0  0  0  0  0
  1  4  1  0
  1 24  1  0
  1  2  1  6
  1  3  2  0
 25 28  1  0
 25 24  1  0
 25 26  1  1
 25 27  2  0
  6 11  1  0
  6 12  1  0
 29 36  1  0
 29 37  1  0
  9  7  1  1
  7 13  1  0
 10  8  1  1
  8 14  1  0
  4  5  1  0
 36 28  1  6
 33 30  1  1
 30 38  1  0
 34 31  1  1
 31 39  1  0
 35 32  1  6
 32 40  1  0
 41 43  1  0
 15 19  2  0
 42 43  2  0
 16 22  2  0
 12 17  1  1
 17 19  1  0
 17 20  1  0
 18 19  1  0
 18 22  1  0
 18 23  1  0
  9 10  1  0
  9 11  1  0
 10 12  1  0
 11  5  1  1
 33 34  1  0
 33 35  1  0
 34 36  1  0
 35 37  1  0
 37 43  1  6
 20 21  2  0
 21 22  1  0
M  CHG  3   2  -1  26  -1  41  -1
M  END
>  <COMPND>  (5) 
    udp_gluA.pdb 

>  <AUTHOR>  (5) 
    GENERATED BY OPEN BABEL 3.1.1

>  <MASTER>  (5) 
        0    0    0    0    0    0    0    0   56    0   56    0

>  <minimizedAffinity>  (5) 
-7.76151

>  <CNNscore>  (5) 
0.5587562919

>  <CNNaffinity>  (5) 
4.2610864639

>  <CNN_VS>  (5) 
2.3809089661

>  <CNNaffinity_variance>  (5) 
0.0593656078

$$$$
6
     RDKit          3D

 43 45  0  0  0  0  0  0  0  0999 V2000
   24.5943   72.9597   -4.8663 P   0  0  2  0  0  0  0  0  0  0  0  0
   25.4984   73.5018   -6.0942 O   0  0  0  0  0  0  0  0  0  0  0  0
   24.2168   73.9981   -3.8509 O   0  0  0  0  0  0  0  0  0  0  0  0
   25.4272   71.6934   -4.3000 O   0  0  0  0  0  0  0  0  0  0  0  0
   26.8414   71.7609   -4.2972 C   0  0  0  0  0  0  0  0  0  0  0  0
   27.5554   69.7541   -3.1833 O   0  0  0  0  0  0  0  0  0  0  0  0
   28.8596   71.5562   -1.1726 O   0  0  0  0  0  0  0  0  0  0  0  0
   30.9590   70.7874   -2.7339 O   0  0  0  0  0  0  0  0  0  0  0  0
   28.7213   71.7268   -2.5834 C   0  0  1  0  0  0  0  0  0  0  0  0
   29.6735   70.8072   -3.3183 C   0  0  2  0  0  0  0  0  0  0  0  0
   27.3635   71.1727   -2.9927 C   0  0  1  0  0  0  0  0  0  0  0  0
   28.9628   69.4686   -3.2138 C   0  0  2  0  0  0  0  0  0  0  0  0
   29.7199   71.9030   -0.8874 H   0  0  0  0  0  0  0  0  0  0  0  0
   31.3698   71.6618   -2.8265 H   0  0  0  0  0  0  0  0  0  0  0  0
   31.1228   67.6529   -3.3317 O   0  0  0  0  0  0  0  0  0  0  0  0
   29.9345   66.2305   -7.5517 O   0  0  0  0  0  0  0  0  0  0  0  0
   29.2413   68.6116   -4.3313 N   0  0  0  0  0  0  0  0  0  0  0  0
   30.5295   66.9469   -5.4338 N   0  0  0  0  0  0  0  0  0  0  0  0
   30.3520   67.7360   -4.2897 C   0  0  0  0  0  0  0  0  0  0  0  0
   28.4187   68.6423   -5.4508 C   0  0  0  0  0  0  0  0  0  0  0  0
   28.6006   67.8841   -6.5338 C   0  0  0  0  0  0  0  0  0  0  0  0
   29.7388   66.9426   -6.5715 C   0  0  0  0  0  0  0  0  0  0  0  0
   31.2975   66.3308   -5.4291 H   0  0  0  0  0  0  0  0  0  0  0  0
   23.3423   72.2651   -5.6165 O   0  0  0  0  0  0  0  0  0  0  0  0
   21.7526   72.3595   -5.3379 P   0  0  2  0  0  0  0  0  0  0  0  0
   21.1931   70.9511   -5.9068 O   0  0  0  0  0  0  0  0  0  0  0  0
   21.0944   73.5714   -5.9312 O   0  0  0  0  0  0  0  0  0  0  0  0
   21.6099   72.2370   -3.7357 O   0  0  0  0  0  0  0  0  0  0  0  0
   23.0144   71.1133   -2.1950 O   0  0  0  0  0  0  0  0  0  0  0  0
   19.3268   70.7916   -0.3603 O   0  0  0  0  0  0  0  0  0  0  0  0
   19.5865   70.3934   -3.2428 O   0  0  0  0  0  0  0  0  0  0  0  0
   21.2868   72.6976    0.6277 O   0  0  0  0  0  0  0  0  0  0  0  0
   20.3316   71.4054   -1.1675 C   0  0  2  0  0  0  0  0  0  0  0  0
   20.6806   70.4855   -2.3377 C   0  0  2  0  0  0  0  0  0  0  0  0
   21.5633   71.6419   -0.2907 C   0  0  1  0  0  0  0  0  0  0  0  0
   21.9081   71.0000   -3.0909 C   0  0  1  0  0  0  0  0  0  0  0  0
   22.7777   72.0303   -1.1291 C   0  0  1  0  0  0  0  0  0  0  0  0
   18.5342   70.6316   -0.8965 H   0  0  0  0  0  0  0  0  0  0  0  0
   18.8040   70.0677   -2.7714 H   0  0  0  0  0  0  0  0  0  0  0  0
   20.5158   72.4630    1.1674 H   0  0  0  0  0  0  0  0  0  0  0  0
   23.7529   71.5743    0.9548 O   0  0  0  0  0  0  0  0  0  0  0  0
   25.1567   72.1538   -0.7460 O   0  0  0  0  0  0  0  0  0  0  0  0
   24.0315   71.9371   -0.3218 C   0  0  0  0  0  0  0  0  0  0  0  0
  1  4  1  0
  1 24  1  0
  1  2  1  6
  1  3  2  0
 25 28  1  0
 25 24  1  0
 25 26  1  6
 25 27  2  0
  6 11  1  0
  6 12  1  0
 29 36  1  0
 29 37  1  0
  9  7  1  1
  7 13  1  0
 10  8  1  1
  8 14  1  0
  4  5  1  0
 36 28  1  1
 33 30  1  1
 30 38  1  0
 34 31  1  6
 31 39  1  0
 35 32  1  1
 32 40  1  0
 41 43  1  0
 15 19  2  0
 42 43  2  0
 16 22  2  0
 12 17  1  6
 17 19  1  0
 17 20  1  0
 18 19  1  0
 18 22  1  0
 18 23  1  0
  9 10  1  0
  9 11  1  0
 10 12  1  0
 11  5  1  6
 33 34  1  0
 33 35  1  0
 34 36  1  0
 35 37  1  0
 37 43  1  1
 20 21  2  0
 21 22  1  0
M  CHG  3   2  -1  26  -1  41  -1
M  END
>  <COMPND>  (6) 
    udp_gluA.pdb 

>  <AUTHOR>  (6) 
    GENERATED BY OPEN BABEL 3.1.1

>  <MASTER>  (6) 
        0    0    0    0    0    0    0    0   56    0   56    0

>  <minimizedAffinity>  (6) 
-7.23604

>  <CNNscore>  (6) 
0.5549051762

>  <CNNaffinity>  (6) 
4.5499200821

>  <CNN_VS>  (6) 
2.5247743130

>  <CNNaffinity_variance>  (6) 
0.0442925915

$$$$
7
     RDKit          3D

 43 45  0  0  0  0  0  0  0  0999 V2000
   28.9450   73.6278   -2.0784 P   0  0  2  0  0  0  0  0  0  0  0  0
   29.7184   74.8936   -1.4315 O   0  0  0  0  0  0  0  0  0  0  0  0
   28.2545   72.7345   -1.0900 O   0  0  0  0  0  0  0  0  0  0  0  0
   30.0672   72.9179   -3.0028 O   0  0  0  0  0  0  0  0  0  0  0  0
   29.7653   71.6661   -3.5915 C   0  0  0  0  0  0  0  0  0  0  0  0
   28.7557   69.6277   -2.8149 O   0  0  0  0  0  0  0  0  0  0  0  0
   31.2279   69.2522   -1.1600 O   0  0  0  0  0  0  0  0  0  0  0  0
   31.6687   67.5890   -3.2755 O   0  0  0  0  0  0  0  0  0  0  0  0
   31.0918   69.8087   -2.4678 C   0  0  1  0  0  0  0  0  0  0  0  0
   30.8371   68.7120   -3.4801 C   0  0  2  0  0  0  0  0  0  0  0  0
   29.7869   70.5920   -2.5116 C   0  0  1  0  0  0  0  0  0  0  0  0
   29.3683   68.4023   -3.2468 C   0  0  2  0  0  0  0  0  0  0  0  0
   32.0547   68.7469   -1.1077 H   0  0  0  0  0  0  0  0  0  0  0  0
   32.5929   67.8374   -3.4365 H   0  0  0  0  0  0  0  0  0  0  0  0
   26.7772   67.2800   -3.3034 O   0  0  0  0  0  0  0  0  0  0  0  0
   26.9381   66.6815   -7.8707 O   0  0  0  0  0  0  0  0  0  0  0  0
   28.7089   67.9448   -4.4370 N   0  0  0  0  0  0  0  0  0  0  0  0
   26.8602   66.9820   -5.5780 N   0  0  0  0  0  0  0  0  0  0  0  0
   27.4069   67.3966   -4.3564 C   0  0  0  0  0  0  0  0  0  0  0  0
   29.3496   68.0428   -5.6662 C   0  0  0  0  0  0  0  0  0  0  0  0
   28.8156   67.6434   -6.8221 C   0  0  0  0  0  0  0  0  0  0  0  0
   27.4588   67.0584   -6.8252 C   0  0  0  0  0  0  0  0  0  0  0  0
   25.9554   66.5951   -5.5468 H   0  0  0  0  0  0  0  0  0  0  0  0
   27.9642   74.3173   -3.1627 O   0  0  0  0  0  0  0  0  0  0  0  0
   26.7429   75.3602   -2.9771 P   0  0  2  0  0  0  0  0  0  0  0  0
   27.0169   76.4600   -4.1328 O   0  0  0  0  0  0  0  0  0  0  0  0
   26.6264   75.9323   -1.5940 O   0  0  0  0  0  0  0  0  0  0  0  0
   25.4381   74.5564   -3.4811 O   0  0  0  0  0  0  0  0  0  0  0  0
   24.7267   72.5127   -2.5187 O   0  0  0  0  0  0  0  0  0  0  0  0
   22.9427   72.3546   -6.2416 O   0  0  0  0  0  0  0  0  0  0  0  0
   25.6886   73.3095   -5.9547 O   0  0  0  0  0  0  0  0  0  0  0  0
   21.3536   72.9728   -3.8871 O   0  0  0  0  0  0  0  0  0  0  0  0
   23.4540   72.9851   -5.0673 C   0  0  2  0  0  0  0  0  0  0  0  0
   24.9434   72.6703   -4.9248 C   0  0  2  0  0  0  0  0  0  0  0  0
   22.6782   72.4443   -3.8642 C   0  0  1  0  0  0  0  0  0  0  0  0
   25.4728   73.1329   -3.5666 C   0  0  1  0  0  0  0  0  0  0  0  0
   23.3403   72.8444   -2.5488 C   0  0  1  0  0  0  0  0  0  0  0  0
   23.4208   72.6828   -7.0194 H   0  0  0  0  0  0  0  0  0  0  0  0
   25.3578   73.0208   -6.8193 H   0  0  0  0  0  0  0  0  0  0  0  0
   20.9211   72.7254   -4.7193 H   0  0  0  0  0  0  0  0  0  0  0  0
   23.0871   72.6370   -0.2262 O   0  0  0  0  0  0  0  0  0  0  0  0
   22.1345   71.0227   -1.5246 O   0  0  0  0  0  0  0  0  0  0  0  0
   22.7813   72.0532   -1.4114 C   0  0  0  0  0  0  0  0  0  0  0  0
  1  4  1  0
  1 24  1  0
  1  2  1  1
  1  3  2  0
 25 28  1  0
 25 24  1  0
 25 26  1  6
 25 27  2  0
  6 11  1  0
  6 12  1  0
 29 36  1  0
 29 37  1  0
  9  7  1  1
  7 13  1  0
 10  8  1  1
  8 14  1  0
  4  5  1  0
 36 28  1  6
 33 30  1  6
 30 38  1  0
 34 31  1  6
 31 39  1  0
 35 32  1  1
 32 40  1  0
 41 43  1  0
 15 19  2  0
 42 43  2  0
 16 22  2  0
 12 17  1  6
 17 19  1  0
 17 20  1  0
 18 19  1  0
 18 22  1  0
 18 23  1  0
  9 10  1  0
  9 11  1  0
 10 12  1  0
 11  5  1  6
 33 34  1  0
 33 35  1  0
 34 36  1  0
 35 37  1  0
 37 43  1  1
 20 21  2  0
 21 22  1  0
M  CHG  3   2  -1  26  -1  41  -1
M  END
>  <COMPND>  (7) 
    udp_gluA.pdb 

>  <AUTHOR>  (7) 
    GENERATED BY OPEN BABEL 3.1.1

>  <MASTER>  (7) 
        0    0    0    0    0    0    0    0   56    0   56    0

>  <minimizedAffinity>  (7) 
-7.56471

>  <CNNscore>  (7) 
0.5154682994

>  <CNNaffinity>  (7) 
4.3315634727

>  <CNN_VS>  (7) 
2.2327835560

>  <CNNaffinity_variance>  (7) 
0.6008443832

$$$$
8
     RDKit          3D

 43 45  0  0  0  0  0  0  0  0999 V2000
   27.9036   73.5903   -2.9823 P   0  0  2  0  0  0  0  0  0  0  0  0
   27.1653   72.4861   -3.9066 O   0  0  0  0  0  0  0  0  0  0  0  0
   27.7941   75.0038   -3.4742 O   0  0  0  0  0  0  0  0  0  0  0  0
   29.4080   73.0176   -2.8195 O   0  0  0  0  0  0  0  0  0  0  0  0
   29.7365   71.7919   -3.4474 C   0  0  0  0  0  0  0  0  0  0  0  0
   28.7674   69.7126   -2.7299 O   0  0  0  0  0  0  0  0  0  0  0  0
   31.2385   69.3474   -1.0712 O   0  0  0  0  0  0  0  0  0  0  0  0
   31.7263   67.7499   -3.2266 O   0  0  0  0  0  0  0  0  0  0  0  0
   31.0972   69.9348   -2.3648 C   0  0  1  0  0  0  0  0  0  0  0  0
   30.8717   68.8597   -3.4067 C   0  0  2  0  0  0  0  0  0  0  0  0
   29.7759   70.6906   -2.3958 C   0  0  1  0  0  0  0  0  0  0  0  0
   29.4087   68.5124   -3.1900 C   0  0  2  0  0  0  0  0  0  0  0  0
   32.0758   68.8589   -1.0272 H   0  0  0  0  0  0  0  0  0  0  0  0
   32.6458   68.0223   -3.3757 H   0  0  0  0  0  0  0  0  0  0  0  0
   26.8502   67.3205   -3.2889 O   0  0  0  0  0  0  0  0  0  0  0  0
   27.0402   66.8618   -7.8712 O   0  0  0  0  0  0  0  0  0  0  0  0
   28.7656   68.0721   -4.3956 N   0  0  0  0  0  0  0  0  0  0  0  0
   26.9477   67.0922   -5.5709 N   0  0  0  0  0  0  0  0  0  0  0  0
   27.4793   67.4857   -4.3357 C   0  0  0  0  0  0  0  0  0  0  0  0
   29.4067   68.2240   -5.6190 C   0  0  0  0  0  0  0  0  0  0  0  0
   28.8873   67.8442   -6.7881 C   0  0  0  0  0  0  0  0  0  0  0  0
   27.5473   67.2220   -6.8132 C   0  0  0  0  0  0  0  0  0  0  0  0
   26.0540   66.6795   -5.5544 H   0  0  0  0  0  0  0  0  0  0  0  0
   27.2570   73.3332   -1.5233 O   0  0  0  0  0  0  0  0  0  0  0  0
   25.7394   73.4977   -0.9909 P   0  0  2  0  0  0  0  0  0  0  0  0
   24.9516   72.3004   -1.7433 O   0  0  0  0  0  0  0  0  0  0  0  0
   25.1524   74.8611   -1.2154 O   0  0  0  0  0  0  0  0  0  0  0  0
   25.7960   73.0395    0.5549 O   0  0  0  0  0  0  0  0  0  0  0  0
   25.5780   71.2007    2.0315 O   0  0  0  0  0  0  0  0  0  0  0  0
   22.5734   73.7061    3.3595 O   0  0  0  0  0  0  0  0  0  0  0  0
   23.0302   73.3282    0.4989 O   0  0  0  0  0  0  0  0  0  0  0  0
   25.0461   73.4651    4.8691 O   0  0  0  0  0  0  0  0  0  0  0  0
   23.8391   73.3792    2.7856 C   0  0  2  0  0  0  0  0  0  0  0  0
   23.6279   72.5424    1.5236 C   0  0  2  0  0  0  0  0  0  0  0  0
   24.6378   72.5862    3.8225 C   0  0  1  0  0  0  0  0  0  0  0  0
   24.9550   71.9814    1.0108 C   0  0  1  0  0  0  0  0  0  0  0  0
   25.8811   71.9541    3.2036 C   0  0  1  0  0  0  0  0  0  0  0  0
   22.0481   74.2104    2.7184 H   0  0  0  0  0  0  0  0  0  0  0  0
   22.1878   73.6876    0.8175 H   0  0  0  0  0  0  0  0  0  0  0  0
   24.2640   73.8742    5.2713 H   0  0  0  0  0  0  0  0  0  0  0  0
   25.4899   70.2887    4.8083 O   0  0  0  0  0  0  0  0  0  0  0  0
   27.6598   70.6919    4.2354 O   0  0  0  0  0  0  0  0  0  0  0  0
   26.4667   70.9289    4.1192 C   0  0  0  0  0  0  0  0  0  0  0  0
  1  4  1  0
  1 24  1  0
  1  2  1  6
  1  3  2  0
 25 28  1  0
 25 24  1  0
 25 26  1  6
 25 27  2  0
  6 11  1  0
  6 12  1  0
 29 36  1  0
 29 37  1  0
  9  7  1  1
  7 13  1  0
 10  8  1  1
  8 14  1  0
  4  5  1  0
 36 28  1  1
 33 30  1  1
 30 38  1  0
 34 31  1  6
 31 39  1  0
 35 32  1  1
 32 40  1  0
 41 43  1  0
 15 19  2  0
 42 43  2  0
 16 22  2  0
 12 17  1  6
 17 19  1  0
 17 20  1  0
 18 19  1  0
 18 22  1  0
 18 23  1  0
  9 10  1  0
  9 11  1  0
 10 12  1  0
 11  5  1  6
 33 34  1  0
 33 35  1  0
 34 36  1  0
 35 37  1  0
 37 43  1  1
 20 21  2  0
 21 22  1  0
M  CHG  3   2  -1  26  -1  41  -1
M  END
>  <COMPND>  (8) 
    udp_gluA.pdb 

>  <AUTHOR>  (8) 
    GENERATED BY OPEN BABEL 3.1.1

>  <MASTER>  (8) 
        0    0    0    0    0    0    0    0   56    0   56    0

>  <minimizedAffinity>  (8) 
-7.04902

>  <CNNscore>  (8) 
0.4786233902

>  <CNNaffinity>  (8) 
4.3490724564

>  <CNN_VS>  (8) 
2.0815677643

>  <CNNaffinity_variance>  (8) 
0.0297672935

$$$$
9
     RDKit          3D

 43 45  0  0  0  0  0  0  0  0999 V2000
   27.7877   73.1563   -2.4534 P   0  0  2  0  0  0  0  0  0  0  0  0
   27.6830   74.7435   -2.1553 O   0  0  0  0  0  0  0  0  0  0  0  0
   27.3003   72.2700   -1.3449 O   0  0  0  0  0  0  0  0  0  0  0  0
   29.3297   72.9449   -2.8956 O   0  0  0  0  0  0  0  0  0  0  0  0
   29.6910   71.7316   -3.5296 C   0  0  0  0  0  0  0  0  0  0  0  0
   28.7894   69.6311   -2.7863 O   0  0  0  0  0  0  0  0  0  0  0  0
   31.3129   69.3227   -1.1963 O   0  0  0  0  0  0  0  0  0  0  0  0
   31.7774   67.7359   -3.3648 O   0  0  0  0  0  0  0  0  0  0  0  0
   31.1228   69.9062   -2.4854 C   0  0  1  0  0  0  0  0  0  0  0  0
   30.8931   68.8260   -3.5210 C   0  0  2  0  0  0  0  0  0  0  0  0
   29.7843   70.6319   -2.4798 C   0  0  1  0  0  0  0  0  0  0  0  0
   29.4449   68.4456   -3.2642 C   0  0  2  0  0  0  0  0  0  0  0  0
   32.1620   68.8533   -1.1755 H   0  0  0  0  0  0  0  0  0  0  0  0
   32.6860   68.0292   -3.5391 H   0  0  0  0  0  0  0  0  0  0  0  0
   26.8406   67.3540   -3.3134 O   0  0  0  0  0  0  0  0  0  0  0  0
   26.9904   66.7319   -7.8779 O   0  0  0  0  0  0  0  0  0  0  0  0
   28.7791   67.9904   -4.4518 N   0  0  0  0  0  0  0  0  0  0  0  0
   26.9181   67.0443   -5.5866 N   0  0  0  0  0  0  0  0  0  0  0  0
   27.4708   67.4581   -4.3674 C   0  0  0  0  0  0  0  0  0  0  0  0
   29.4199   68.0748   -5.6819 C   0  0  0  0  0  0  0  0  0  0  0  0
   28.8802   67.6763   -6.8354 C   0  0  0  0  0  0  0  0  0  0  0  0
   27.5164   67.1076   -6.8346 C   0  0  0  0  0  0  0  0  0  0  0  0
   26.0087   66.6684   -5.5528 H   0  0  0  0  0  0  0  0  0  0  0  0
   26.9847   72.9950   -3.8470 O   0  0  0  0  0  0  0  0  0  0  0  0
   25.5799   72.2696   -4.1847 P   0  0  2  0  0  0  0  0  0  0  0  0
   25.8991   70.7046   -3.9214 O   0  0  0  0  0  0  0  0  0  0  0  0
   25.0458   72.5696   -5.5554 O   0  0  0  0  0  0  0  0  0  0  0  0
   24.5991   72.6941   -2.9763 O   0  0  0  0  0  0  0  0  0  0  0  0
   22.3807   71.9398   -3.3207 O   0  0  0  0  0  0  0  0  0  0  0  0
   21.9631   74.2577    0.0735 O   0  0  0  0  0  0  0  0  0  0  0  0
   23.6341   75.1663   -2.1438 O   0  0  0  0  0  0  0  0  0  0  0  0
   21.9559   71.3578    0.2770 O   0  0  0  0  0  0  0  0  0  0  0  0
   22.6361   73.3848   -0.8337 C   0  0  2  0  0  0  0  0  0  0  0  0
   22.7462   74.0559   -2.2030 C   0  0  2  0  0  0  0  0  0  0  0  0
   21.8226   72.0928   -0.9381 C   0  0  1  0  0  0  0  0  0  0  0  0
   23.2518   73.0695   -3.2567 C   0  0  1  0  0  0  0  0  0  0  0  0
   22.3086   71.2202   -2.0918 C   0  0  1  0  0  0  0  0  0  0  0  0
   22.4619   75.0858    0.1559 H   0  0  0  0  0  0  0  0  0  0  0  0
   23.3195   75.7961   -1.4769 H   0  0  0  0  0  0  0  0  0  0  0  0
   21.6501   71.9021    1.0193 H   0  0  0  0  0  0  0  0  0  0  0  0
   20.1642   70.3474   -1.7159 O   0  0  0  0  0  0  0  0  0  0  0  0
   21.5189   69.1985   -3.1455 O   0  0  0  0  0  0  0  0  0  0  0  0
   21.3209   70.1403   -2.3928 C   0  0  0  0  0  0  0  0  0  0  0  0
  1  4  1  0
  1 24  1  0
  1  2  1  1
  1  3  2  0
 25 28  1  0
 25 24  1  0
 25 26  1  6
 25 27  2  0
  6 11  1  0
  6 12  1  0
 29 36  1  0
 29 37  1  0
  9  7  1  1
  7 13  1  0
 10  8  1  1
  8 14  1  0
  4  5  1  0
 36 28  1  1
 33 30  1  1
 30 38  1  0
 34 31  1  1
 31 39  1  0
 35 32  1  1
 32 40  1  0
 41 43  1  0
 15 19  2  0
 42 43  2  0
 16 22  2  0
 12 17  1  6
 17 19  1  0
 17 20  1  0
 18 19  1  0
 18 22  1  0
 18 23  1  0
  9 10  1  0
  9 11  1  0
 10 12  1  0
 11  5  1  6
 33 34  1  0
 33 35  1  0
 34 36  1  0
 35 37  1  0
 37 43  1  6
 20 21  2  0
 21 22  1  0
M  CHG  3   2  -1  26  -1  41  -1
M  END
>  <COMPND>  (9) 
    udp_gluA.pdb 

>  <AUTHOR>  (9) 
    GENERATED BY OPEN BABEL 3.1.1

>  <MASTER>  (9) 
        0    0    0    0    0    0    0    0   56    0   56    0

>  <minimizedAffinity>  (9) 
-7.43919

>  <CNNscore>  (9) 
0.4535370469

>  <CNNaffinity>  (9) 
4.5021238327

>  <CNN_VS>  (9) 
2.0418798923

>  <CNNaffinity_variance>  (9) 
0.2005395144

$$$$
10
     RDKit          3D

 43 45  0  0  0  0  0  0  0  0999 V2000
   24.8856   73.6770   -4.4990 P   0  0  2  0  0  0  0  0  0  0  0  0
   23.5150   73.9432   -5.3172 O   0  0  0  0  0  0  0  0  0  0  0  0
   26.0444   74.5390   -4.9065 O   0  0  0  0  0  0  0  0  0  0  0  0
   25.1153   72.0811   -4.6346 O   0  0  0  0  0  0  0  0  0  0  0  0
   26.4400   71.5966   -4.7571 C   0  0  0  0  0  0  0  0  0  0  0  0
   27.2075   69.7039   -3.4898 O   0  0  0  0  0  0  0  0  0  0  0  0
   28.2838   71.6937   -1.5215 O   0  0  0  0  0  0  0  0  0  0  0  0
   30.5117   70.9731   -2.9191 O   0  0  0  0  0  0  0  0  0  0  0  0
   28.2169   71.7765   -2.9453 C   0  0  1  0  0  0  0  0  0  0  0  0
   29.2630   70.8793   -3.5722 C   0  0  2  0  0  0  0  0  0  0  0  0
   26.9205   71.1159   -3.3939 C   0  0  1  0  0  0  0  0  0  0  0  0
   28.6289   69.5065   -3.4273 C   0  0  2  0  0  0  0  0  0  0  0  0
   29.1039   72.1094   -1.2113 H   0  0  0  0  0  0  0  0  0  0  0  0
   30.8741   71.8652   -3.0409 H   0  0  0  0  0  0  0  0  0  0  0  0
   30.9215   67.8593   -3.3397 O   0  0  0  0  0  0  0  0  0  0  0  0
   30.0393   66.0981   -7.5067 O   0  0  0  0  0  0  0  0  0  0  0  0
   29.0220   68.6079   -4.4756 N   0  0  0  0  0  0  0  0  0  0  0  0
   30.4805   66.9844   -5.4156 N   0  0  0  0  0  0  0  0  0  0  0  0
   30.1918   67.8248   -4.3323 C   0  0  0  0  0  0  0  0  0  0  0  0
   28.2522   68.5076   -5.6281 C   0  0  0  0  0  0  0  0  0  0  0  0
   28.5401   67.7019   -6.6522 C   0  0  0  0  0  0  0  0  0  0  0  0
   29.7459   66.8506   -6.5826 C   0  0  0  0  0  0  0  0  0  0  0  0
   31.2912   66.4310   -5.3398 H   0  0  0  0  0  0  0  0  0  0  0  0
   24.4278   73.8486   -2.9583 O   0  0  0  0  0  0  0  0  0  0  0  0
   25.2105   74.4532   -1.6795 P   0  0  2  0  0  0  0  0  0  0  0  0
   24.5692   75.9306   -1.5178 O   0  0  0  0  0  0  0  0  0  0  0  0
   26.7061   74.4391   -1.8098 O   0  0  0  0  0  0  0  0  0  0  0  0
   24.6404   73.6217   -0.4201 O   0  0  0  0  0  0  0  0  0  0  0  0
   25.9374   71.7150    0.1200 O   0  0  0  0  0  0  0  0  0  0  0  0
   22.6484   71.2160    2.5699 O   0  0  0  0  0  0  0  0  0  0  0  0
   22.3162   72.1112   -0.1911 O   0  0  0  0  0  0  0  0  0  0  0  0
   25.1729   72.1300    3.6845 O   0  0  0  0  0  0  0  0  0  0  0  0
   23.6312   71.9520    1.8416 C   0  0  2  0  0  0  0  0  0  0  0  0
   23.5302   71.6087    0.3551 C   0  0  2  0  0  0  0  0  0  0  0  0
   25.0091   71.5666    2.3844 C   0  0  1  0  0  0  0  0  0  0  0  0
   24.7077   72.1969   -0.4235 C   0  0  1  0  0  0  0  0  0  0  0  0
   26.1272   72.0840    1.4841 C   0  0  1  0  0  0  0  0  0  0  0  0
   21.7643   71.4446    2.2421 H   0  0  0  0  0  0  0  0  0  0  0  0
   21.5647   71.7423    0.2984 H   0  0  0  0  0  0  0  0  0  0  0  0
   24.4673   71.8087    4.2674 H   0  0  0  0  0  0  0  0  0  0  0  0
   27.2469   70.4574    2.7498 O   0  0  0  0  0  0  0  0  0  0  0  0
   28.5114   71.7384    1.3501 O   0  0  0  0  0  0  0  0  0  0  0  0
   27.4286   71.4361    1.8289 C   0  0  0  0  0  0  0  0  0  0  0  0
  1  4  1  0
  1 24  1  0
  1  2  1  6
  1  3  2  0
 25 28  1  0
 25 24  1  0
 25 26  1  1
 25 27  2  0
  6 11  1  0
  6 12  1  0
 29 36  1  0
 29 37  1  0
  9  7  1  1
  7 13  1  0
 10  8  1  1
  8 14  1  0
  4  5  1  0
 36 28  1  1
 33 30  1  1
 30 38  1  0
 34 31  1  6
 31 39  1  0
 35 32  1  1
 32 40  1  0
 41 43  1  0
 15 19  2  0
 42 43  2  0
 16 22  2  0
 12 17  1  6
 17 19  1  0
 17 20  1  0
 18 19  1  0
 18 22  1  0
 18 23  1  0
  9 10  1  0
  9 11  1  0
 10 12  1  0
 11  5  1  6
 33 34  1  0
 33 35  1  0
 34 36  1  0
 35 37  1  0
 37 43  1  1
 20 21  2  0
 21 22  1  0
M  CHG  3   2  -1  26  -1  41  -1
M  END
>  <COMPND>  (10) 
    udp_gluA.pdb 

>  <AUTHOR>  (10) 
    GENERATED BY OPEN BABEL 3.1.1

>  <MASTER>  (10) 
        0    0    0    0    0    0    0    0   56    0   56    0

>  <minimizedAffinity>  (10) 
-6.63276

>  <CNNscore>  (10) 
0.4435237050

>  <CNNaffinity>  (10) 
4.2804470062

>  <CNN_VS>  (10) 
1.8984797001

>  <CNNaffinity_variance>  (10) 
0.0776959285

$$$$
11
     RDKit          3D

 43 45  0  0  0  0  0  0  0  0999 V2000
   29.1297   73.8298   -2.1149 P   0  0  2  0  0  0  0  0  0  0  0  0
   29.8393   75.2705   -1.9157 O   0  0  0  0  0  0  0  0  0  0  0  0
   28.6053   73.2024   -0.8567 O   0  0  0  0  0  0  0  0  0  0  0  0
   30.2296   72.9638   -2.9262 O   0  0  0  0  0  0  0  0  0  0  0  0
   29.8280   71.7389   -3.5117 C   0  0  0  0  0  0  0  0  0  0  0  0
   28.7877   69.7037   -2.7675 O   0  0  0  0  0  0  0  0  0  0  0  0
   31.2324   69.2896   -1.0812 O   0  0  0  0  0  0  0  0  0  0  0  0
   31.6871   67.6406   -3.2049 O   0  0  0  0  0  0  0  0  0  0  0  0
   31.1204   69.8587   -2.3859 C   0  0  1  0  0  0  0  0  0  0  0  0
   30.8695   68.7735   -3.4113 C   0  0  2  0  0  0  0  0  0  0  0  0
   29.8239   70.6552   -2.4412 C   0  0  1  0  0  0  0  0  0  0  0  0
   29.3945   68.4762   -3.2015 C   0  0  2  0  0  0  0  0  0  0  0  0
   32.0535   68.7758   -1.0217 H   0  0  0  0  0  0  0  0  0  0  0  0
   32.6159   67.8813   -3.3506 H   0  0  0  0  0  0  0  0  0  0  0  0
   26.8295   67.2978   -3.2939 O   0  0  0  0  0  0  0  0  0  0  0  0
   27.0119   66.8240   -7.8749 O   0  0  0  0  0  0  0  0  0  0  0  0
   28.7477   68.0356   -4.4050 N   0  0  0  0  0  0  0  0  0  0  0  0
   26.9232   67.0620   -5.5753 N   0  0  0  0  0  0  0  0  0  0  0  0
   27.4583   67.4564   -4.3419 C   0  0  0  0  0  0  0  0  0  0  0  0
   29.3883   68.1804   -5.6296 C   0  0  0  0  0  0  0  0  0  0  0  0
   28.8655   67.7998   -6.7969 C   0  0  0  0  0  0  0  0  0  0  0  0
   27.5221   67.1847   -6.8186 C   0  0  0  0  0  0  0  0  0  0  0  0
   26.0273   66.6542   -5.5565 H   0  0  0  0  0  0  0  0  0  0  0  0
   28.0052   74.1311   -3.2364 O   0  0  0  0  0  0  0  0  0  0  0  0
   26.4947   74.6912   -3.1013 P   0  0  2  0  0  0  0  0  0  0  0  0
   26.3652   75.7110   -4.3518 O   0  0  0  0  0  0  0  0  0  0  0  0
   26.1828   75.3056   -1.7674 O   0  0  0  0  0  0  0  0  0  0  0  0
   25.5571   73.4398   -3.4976 O   0  0  0  0  0  0  0  0  0  0  0  0
   23.2925   74.1328   -3.5224 O   0  0  0  0  0  0  0  0  0  0  0  0
   22.9493   70.1075   -4.3868 O   0  0  0  0  0  0  0  0  0  0  0  0
   24.8108   71.0273   -2.3318 O   0  0  0  0  0  0  0  0  0  0  0  0
   22.6354   72.0846   -6.4948 O   0  0  0  0  0  0  0  0  0  0  0  0
   23.5729   71.3917   -4.3862 C   0  0  2  0  0  0  0  0  0  0  0  0
   23.8178   71.8410   -2.9455 C   0  0  2  0  0  0  0  0  0  0  0  0
   22.6375   72.3719   -5.0977 C   0  0  1  0  0  0  0  0  0  0  0  0
   24.2706   73.3009   -2.8972 C   0  0  1  0  0  0  0  0  0  0  0  0
   23.0873   73.8163   -4.8975 C   0  0  1  0  0  0  0  0  0  0  0  0
   23.5256   69.4678   -3.9397 H   0  0  0  0  0  0  0  0  0  0  0  0
   24.5301   70.0995   -2.3591 H   0  0  0  0  0  0  0  0  0  0  0  0
   22.3510   71.1681   -6.6360 H   0  0  0  0  0  0  0  0  0  0  0  0
   22.1562   75.1307   -6.6024 O   0  0  0  0  0  0  0  0  0  0  0  0
   21.1158   75.1689   -4.5738 O   0  0  0  0  0  0  0  0  0  0  0  0
   22.0101   74.7685   -5.3038 C   0  0  0  0  0  0  0  0  0  0  0  0
  1  4  1  0
  1 24  1  0
  1  2  1  1
  1  3  2  0
 25 28  1  0
 25 24  1  0
 25 26  1  6
 25 27  2  0
  6 11  1  0
  6 12  1  0
 29 36  1  0
 29 37  1  0
  9  7  1  1
  7 13  1  0
 10  8  1  1
  8 14  1  0
  4  5  1  0
 36 28  1  6
 33 30  1  1
 30 38  1  0
 34 31  1  6
 31 39  1  0
 35 32  1  6
 32 40  1  0
 41 43  1  0
 15 19  2  0
 42 43  2  0
 16 22  2  0
 12 17  1  6
 17 19  1  0
 17 20  1  0
 18 19  1  0
 18 22  1  0
 18 23  1  0
  9 10  1  0
  9 11  1  0
 10 12  1  0
 11  5  1  6
 33 34  1  0
 33 35  1  0
 34 36  1  0
 35 37  1  0
 37 43  1  1
 20 21  2  0
 21 22  1  0
M  CHG  3   2  -1  26  -1  41  -1
M  END
>  <COMPND>  (11) 
    udp_gluA.pdb 

>  <AUTHOR>  (11) 
    GENERATED BY OPEN BABEL 3.1.1

>  <MASTER>  (11) 
        0    0    0    0    0    0    0    0   56    0   56    0

>  <minimizedAffinity>  (11) 
-7.15343

>  <CNNscore>  (11) 
0.4393480420

>  <CNNaffinity>  (11) 
4.2246956825

>  <CNN_VS>  (11) 
1.8561117649

>  <CNNaffinity_variance>  (11) 
0.4315837026

$$$$
12
     RDKit          3D

 43 45  0  0  0  0  0  0  0  0999 V2000
   23.8299   73.0191   -4.9321 P   0  0  2  0  0  0  0  0  0  0  0  0
   24.9834   73.2859   -6.0354 O   0  0  0  0  0  0  0  0  0  0  0  0
   23.1508   74.2530   -4.4144 O   0  0  0  0  0  0  0  0  0  0  0  0
   24.5619   72.1006   -3.8192 O   0  0  0  0  0  0  0  0  0  0  0  0
   25.7166   71.3732   -4.1960 C   0  0  0  0  0  0  0  0  0  0  0  0
   27.3271   70.0219   -3.0306 O   0  0  0  0  0  0  0  0  0  0  0  0
   28.2564   72.5670   -1.7461 O   0  0  0  0  0  0  0  0  0  0  0  0
   30.1287   72.1608   -3.6866 O   0  0  0  0  0  0  0  0  0  0  0  0
   27.7827   72.3460   -3.0747 C   0  0  1  0  0  0  0  0  0  0  0  0
   28.8360   71.6313   -3.8946 C   0  0  2  0  0  0  0  0  0  0  0  0
   26.6706   71.3080   -3.0103 C   0  0  1  0  0  0  0  0  0  0  0  0
   28.7035   70.2009   -3.4004 C   0  0  2  0  0  0  0  0  0  0  0  0
   28.9678   73.2268   -1.7617 H   0  0  0  0  0  0  0  0  0  0  0  0
   30.1618   73.0724   -4.0180 H   0  0  0  0  0  0  0  0  0  0  0  0
   30.5552   68.0993   -3.0388 O   0  0  0  0  0  0  0  0  0  0  0  0
   29.9353   66.5684   -7.3418 O   0  0  0  0  0  0  0  0  0  0  0  0
   29.0448   69.2386   -4.4095 N   0  0  0  0  0  0  0  0  0  0  0  0
   30.2455   67.3394   -5.1826 N   0  0  0  0  0  0  0  0  0  0  0  0
   29.9875   68.2223   -4.1257 C   0  0  0  0  0  0  0  0  0  0  0  0
   28.4476   69.3061   -5.6624 C   0  0  0  0  0  0  0  0  0  0  0  0
   28.7036   68.4572   -6.6598 C   0  0  0  0  0  0  0  0  0  0  0  0
   29.6773   67.3666   -6.4459 C   0  0  0  0  0  0  0  0  0  0  0  0
   30.8999   66.6246   -5.0095 H   0  0  0  0  0  0  0  0  0  0  0  0
   22.8489   71.9733   -5.6783 O   0  0  0  0  0  0  0  0  0  0  0  0
   21.5518   71.1691   -5.1451 P   0  0  2  0  0  0  0  0  0  0  0  0
   21.0348   72.0784   -3.9097 O   0  0  0  0  0  0  0  0  0  0  0  0
   21.8197   69.7357   -4.7882 O   0  0  0  0  0  0  0  0  0  0  0  0
   20.4404   71.3759   -6.2960 O   0  0  0  0  0  0  0  0  0  0  0  0
   20.3409   71.3112   -8.6613 O   0  0  0  0  0  0  0  0  0  0  0  0
   18.2218   74.7577   -7.8248 O   0  0  0  0  0  0  0  0  0  0  0  0
   20.6845   74.1454   -6.3774 O   0  0  0  0  0  0  0  0  0  0  0  0
   16.8176   72.3336   -8.6013 O   0  0  0  0  0  0  0  0  0  0  0  0
   18.7056   73.4355   -7.5882 C   0  0  2  0  0  0  0  0  0  0  0  0
   20.2334   73.4515   -7.5349 C   0  0  2  0  0  0  0  0  0  0  0  0
   18.2222   72.5431   -8.7336 C   0  0  1  0  0  0  0  0  0  0  0  0
   20.7950   72.0292   -7.5134 C   0  0  1  0  0  0  0  0  0  0  0  0
   18.9215   71.1869   -8.7164 C   0  0  1  0  0  0  0  0  0  0  0  0
   18.5167   75.3429   -7.1093 H   0  0  0  0  0  0  0  0  0  0  0  0
   20.3317   75.0486   -6.3844 H   0  0  0  0  0  0  0  0  0  0  0  0
   16.3607   73.1892   -8.6107 H   0  0  0  0  0  0  0  0  0  0  0  0
   19.8414   70.4099  -10.7292 O   0  0  0  0  0  0  0  0  0  0  0  0
   17.6358   69.9690  -10.3550 O   0  0  0  0  0  0  0  0  0  0  0  0
   18.6981   70.4585  -10.0016 C   0  0  0  0  0  0  0  0  0  0  0  0
  1  4  1  0
  1 24  1  0
  1  2  1  6
  1  3  2  0
 25 28  1  0
 25 24  1  0
 25 26  1  1
 25 27  2  0
  6 11  1  0
  6 12  1  0
 29 36  1  0
 29 37  1  0
  9  7  1  1
  7 13  1  0
 10  8  1  1
  8 14  1  0
  4  5  1  0
 36 28  1  1
 33 30  1  6
 30 38  1  0
 34 31  1  1
 31 39  1  0
 35 32  1  1
 32 40  1  0
 41 43  1  0
 15 19  2  0
 42 43  2  0
 16 22  2  0
 12 17  1  6
 17 19  1  0
 17 20  1  0
 18 19  1  0
 18 22  1  0
 18 23  1  0
  9 10  1  0
  9 11  1  0
 10 12  1  0
 11  5  1  6
 33 34  1  0
 33 35  1  0
 34 36  1  0
 35 37  1  0
 37 43  1  6
 20 21  2  0
 21 22  1  0
M  CHG  3   2  -1  26  -1  41  -1
M  END
>  <COMPND>  (12) 
    udp_gluA.pdb 

>  <AUTHOR>  (12) 
    GENERATED BY OPEN BABEL 3.1.1

>  <MASTER>  (12) 
        0    0    0    0    0    0    0    0   56    0   56    0

>  <minimizedAffinity>  (12) 
-7.39736

>  <CNNscore>  (12) 
0.4101229906

>  <CNNaffinity>  (12) 
4.3434128761

>  <CNN_VS>  (12) 
1.7813334465

>  <CNNaffinity_variance>  (12) 
0.0466702506

$$$$
13
     RDKit          3D

 43 45  0  0  0  0  0  0  0  0999 V2000
   31.8452   70.7855    1.3841 P   0  0  2  0  0  0  0  0  0  0  0  0
   32.7909   69.4810    1.2327 O   0  0  0  0  0  0  0  0  0  0  0  0
   32.5535   72.1011    1.2456 O   0  0  0  0  0  0  0  0  0  0  0  0
   31.0751   70.5463    2.7869 O   0  0  0  0  0  0  0  0  0  0  0  0
   30.3751   71.6314    3.3674 C   0  0  0  0  0  0  0  0  0  0  0  0
   28.4117   71.0699    4.6352 O   0  0  0  0  0  0  0  0  0  0  0  0
   26.8370   72.0482    2.2783 O   0  0  0  0  0  0  0  0  0  0  0  0
   26.6890   74.1510    4.0081 O   0  0  0  0  0  0  0  0  0  0  0  0
   28.0655   72.5424    2.8123 C   0  0  1  0  0  0  0  0  0  0  0  0
   27.8111   73.2983    4.0993 C   0  0  2  0  0  0  0  0  0  0  0  0
   28.8795   71.3509    3.2982 C   0  0  1  0  0  0  0  0  0  0  0  0
   27.6074   72.1681    5.0938 C   0  0  2  0  0  0  0  0  0  0  0  0
   26.2996   72.7915    1.9613 H   0  0  0  0  0  0  0  0  0  0  0  0
   26.8684   74.8535    3.3629 H   0  0  0  0  0  0  0  0  0  0  0  0
   25.9092   73.3203    7.0342 O   0  0  0  0  0  0  0  0  0  0  0  0
   29.2955   73.4997   10.1559 O   0  0  0  0  0  0  0  0  0  0  0  0
   28.0192   72.5259    6.4217 N   0  0  0  0  0  0  0  0  0  0  0  0
   27.5976   73.4095    8.5868 N   0  0  0  0  0  0  0  0  0  0  0  0
   27.0876   73.0990    7.3193 C   0  0  0  0  0  0  0  0  0  0  0  0
   29.3313   72.3071    6.8235 C   0  0  0  0  0  0  0  0  0  0  0  0
   29.8027   72.6082    8.0351 C   0  0  0  0  0  0  0  0  0  0  0  0
   28.8944   73.2112    9.0325 C   0  0  0  0  0  0  0  0  0  0  0  0
   26.9682   73.8114    9.2284 H   0  0  0  0  0  0  0  0  0  0  0  0
   30.6885   70.5246    0.2855 O   0  0  0  0  0  0  0  0  0  0  0  0
   30.7427   70.5117   -1.3302 P   0  0  2  0  0  0  0  0  0  0  0  0
   31.0764   68.9660   -1.6767 O   0  0  0  0  0  0  0  0  0  0  0  0
   31.7056   71.4999   -1.9220 O   0  0  0  0  0  0  0  0  0  0  0  0
   29.2101   70.7109   -1.7928 O   0  0  0  0  0  0  0  0  0  0  0  0
   28.9676   70.5129   -4.1403 O   0  0  0  0  0  0  0  0  0  0  0  0
   25.1685   71.6651   -2.9969 O   0  0  0  0  0  0  0  0  0  0  0  0
   27.5196   72.9196   -1.7998 O   0  0  0  0  0  0  0  0  0  0  0  0
   25.6973   68.9014   -3.7272 O   0  0  0  0  0  0  0  0  0  0  0  0
   26.4343   71.0213   -2.8510 C   0  0  2  0  0  0  0  0  0  0  0  0
   27.5507   72.0625   -2.9352 C   0  0  2  0  0  0  0  0  0  0  0  0
   26.5763   69.9963   -3.9784 C   0  0  1  0  0  0  0  0  0  0  0  0
   28.9217   71.3895   -3.0138 C   0  0  1  0  0  0  0  0  0  0  0  0
   28.0036   69.4646   -4.0713 C   0  0  1  0  0  0  0  0  0  0  0  0
   25.0560   72.3212   -2.2911 H   0  0  0  0  0  0  0  0  0  0  0  0
   26.6524   73.3498   -1.7436 H   0  0  0  0  0  0  0  0  0  0  0  0
   24.7854   69.2264   -3.6656 H   0  0  0  0  0  0  0  0  0  0  0  0
   27.9245   67.4140   -5.2074 O   0  0  0  0  0  0  0  0  0  0  0  0
   28.5911   69.2392   -6.4006 O   0  0  0  0  0  0  0  0  0  0  0  0
   28.2136   68.7306   -5.3557 C   0  0  0  0  0  0  0  0  0  0  0  0
  1  4  1  0
  1 24  1  0
  1  2  1  6
  1  3  2  0
 25 28  1  0
 25 24  1  0
 25 26  1  1
 25 27  2  0
  6 11  1  0
  6 12  1  0
 29 36  1  0
 29 37  1  0
  9  7  1  1
  7 13  1  0
 10  8  1  6
  8 14  1  0
  4  5  1  0
 36 28  1  1
 33 30  1  6
 30 38  1  0
 34 31  1  1
 31 39  1  0
 35 32  1  1
 32 40  1  0
 41 43  1  0
 15 19  2  0
 42 43  2  0
 16 22  2  0
 12 17  1  1
 17 19  1  0
 17 20  1  0
 18 19  1  0
 18 22  1  0
 18 23  1  0
  9 10  1  0
  9 11  1  0
 10 12  1  0
 11  5  1  1
 33 34  1  0
 33 35  1  0
 34 36  1  0
 35 37  1  0
 37 43  1  6
 20 21  2  0
 21 22  1  0
M  CHG  3   2  -1  26  -1  41  -1
M  END
>  <COMPND>  (13) 
    udp_gluA.pdb 

>  <AUTHOR>  (13) 
    GENERATED BY OPEN BABEL 3.1.1

>  <MASTER>  (13) 
        0    0    0    0    0    0    0    0   56    0   56    0

>  <minimizedAffinity>  (13) 
-6.47396

>  <CNNscore>  (13) 
0.3829384446

>  <CNNaffinity>  (13) 
3.8258051872

>  <CNN_VS>  (13) 
1.4650478363

>  <CNNaffinity_variance>  (13) 
0.0355418846

$$$$
14
     RDKit          3D

 43 45  0  0  0  0  0  0  0  0999 V2000
   22.2989   71.7530   -4.6438 P   0  0  2  0  0  0  0  0  0  0  0  0
   21.7673   70.4164   -5.3854 O   0  0  0  0  0  0  0  0  0  0  0  0
   21.7945   71.9437   -3.2434 O   0  0  0  0  0  0  0  0  0  0  0  0
   21.9476   72.9407   -5.6849 O   0  0  0  0  0  0  0  0  0  0  0  0
   20.6810   72.9328   -6.3174 C   0  0  0  0  0  0  0  0  0  0  0  0
   20.2541   71.4664   -8.1735 O   0  0  0  0  0  0  0  0  0  0  0  0
   20.8559   73.8199   -9.9314 O   0  0  0  0  0  0  0  0  0  0  0  0
   18.1300   73.7457   -9.9475 O   0  0  0  0  0  0  0  0  0  0  0  0
   20.1959   73.7826   -8.6658 C   0  0  1  0  0  0  0  0  0  0  0  0
   18.7985   73.2206   -8.8197 C   0  0  2  0  0  0  0  0  0  0  0  0
   20.8748   72.7194   -7.8132 C   0  0  1  0  0  0  0  0  0  0  0  0
   19.0695   71.7308   -8.9417 C   0  0  2  0  0  0  0  0  0  0  0  0
   20.4395   74.4922  -10.4938 H   0  0  0  0  0  0  0  0  0  0  0  0
   17.9806   74.6964   -9.8212 H   0  0  0  0  0  0  0  0  0  0  0  0
   16.7976   70.9661  -10.4352 O   0  0  0  0  0  0  0  0  0  0  0  0
   14.9971   68.6726   -6.8656 O   0  0  0  0  0  0  0  0  0  0  0  0
   17.9918   70.9339   -8.4274 N   0  0  0  0  0  0  0  0  0  0  0  0
   15.9025   69.8254   -8.6556 N   0  0  0  0  0  0  0  0  0  0  0  0
   16.8965   70.6057   -9.2607 C   0  0  0  0  0  0  0  0  0  0  0  0
   18.0273   70.4851   -7.1127 C   0  0  0  0  0  0  0  0  0  0  0  0
   17.0724   69.7420   -6.5500 C   0  0  0  0  0  0  0  0  0  0  0  0
   15.8930   69.3558   -7.3521 C   0  0  0  0  0  0  0  0  0  0  0  0
   15.1289   69.5858   -9.2155 H   0  0  0  0  0  0  0  0  0  0  0  0
   23.9052   71.6231   -4.7691 O   0  0  0  0  0  0  0  0  0  0  0  0
   25.0603   72.7528   -4.8240 P   0  0  2  0  0  0  0  0  0  0  0  0
   24.8848   73.5301   -3.4150 O   0  0  0  0  0  0  0  0  0  0  0  0
   24.9959   73.6412   -6.0325 O   0  0  0  0  0  0  0  0  0  0  0  0
   26.4414   71.9339   -4.6680 O   0  0  0  0  0  0  0  0  0  0  0  0
   26.5744   69.9272   -3.4171 O   0  0  0  0  0  0  0  0  0  0  0  0
   30.5301   71.1141   -3.5250 O   0  0  0  0  0  0  0  0  0  0  0  0
   28.4093   73.0696   -3.0637 O   0  0  0  0  0  0  0  0  0  0  0  0
   29.6136   68.9353   -5.2174 O   0  0  0  0  0  0  0  0  0  0  0  0
   29.1957   70.9807   -4.0146 C   0  0  2  0  0  0  0  0  0  0  0  0
   28.2254   71.6587   -3.0470 C   0  0  2  0  0  0  0  0  0  0  0  0
   28.8799   69.4875   -4.1260 C   0  0  1  0  0  0  0  0  0  0  0  0
   26.7752   71.3411   -3.4142 C   0  0  1  0  0  0  0  0  0  0  0  0
   27.3922   69.2492   -4.3681 C   0  0  1  0  0  0  0  0  0  0  0  0
   30.7531   72.0550   -3.4460 H   0  0  0  0  0  0  0  0  0  0  0  0
   29.3275   73.2783   -2.8319 H   0  0  0  0  0  0  0  0  0  0  0  0
   30.5622   69.0804   -5.0756 H   0  0  0  0  0  0  0  0  0  0  0  0
   27.3526   67.0726   -5.2411 O   0  0  0  0  0  0  0  0  0  0  0  0
   26.5469   67.3604   -3.1276 O   0  0  0  0  0  0  0  0  0  0  0  0
   27.0423   67.8134   -4.1485 C   0  0  0  0  0  0  0  0  0  0  0  0
  1  4  1  0
  1 24  1  0
  1  2  1  6
  1  3  2  0
 25 28  1  0
 25 24  1  0
 25 26  1  1
 25 27  2  0
  6 11  1  0
  6 12  1  0
 29 36  1  0
 29 37  1  0
  9  7  1  6
  7 13  1  0
 10  8  1  6
  8 14  1  0
  4  5  1  0
 36 28  1  6
 33 30  1  1
 30 38  1  0
 34 31  1  6
 31 39  1  0
 35 32  1  6
 32 40  1  0
 41 43  1  0
 15 19  2  0
 42 43  2  0
 16 22  2  0
 12 17  1  1
 17 19  1  0
 17 20  1  0
 18 19  1  0
 18 22  1  0
 18 23  1  0
  9 10  1  0
  9 11  1  0
 10 12  1  0
 11  5  1  1
 33 34  1  0
 33 35  1  0
 34 36  1  0
 35 37  1  0
 37 43  1  1
 20 21  2  0
 21 22  1  0
M  CHG  3   2  -1  26  -1  41  -1
M  END
>  <COMPND>  (14) 
    udp_gluA.pdb 

>  <AUTHOR>  (14) 
    GENERATED BY OPEN BABEL 3.1.1

>  <MASTER>  (14) 
        0    0    0    0    0    0    0    0   56    0   56    0

>  <minimizedAffinity>  (14) 
-7.82774

>  <CNNscore>  (14) 
0.3662980795

>  <CNNaffinity>  (14) 
4.1492071152

>  <CNN_VS>  (14) 
1.5198465586

>  <CNNaffinity_variance>  (14) 
0.0450933054

$$$$
15
     RDKit          3D

 43 45  0  0  0  0  0  0  0  0999 V2000
   23.8096   72.0891   -4.4250 P   0  0  2  0  0  0  0  0  0  0  0  0
   23.6135   70.4925   -4.2477 O   0  0  0  0  0  0  0  0  0  0  0  0
   23.6970   72.5884   -5.8356 O   0  0  0  0  0  0  0  0  0  0  0  0
   25.2147   72.3928   -3.6823 O   0  0  0  0  0  0  0  0  0  0  0  0
   26.3698   71.6942   -4.1090 C   0  0  0  0  0  0  0  0  0  0  0  0
   27.6525   69.9875   -3.0047 O   0  0  0  0  0  0  0  0  0  0  0  0
   28.9262   72.2122   -1.4491 O   0  0  0  0  0  0  0  0  0  0  0  0
   30.8133   71.6472   -3.3347 O   0  0  0  0  0  0  0  0  0  0  0  0
   28.5016   72.1904   -2.8121 C   0  0  1  0  0  0  0  0  0  0  0  0
   29.4637   71.3729   -3.6478 C   0  0  2  0  0  0  0  0  0  0  0  0
   27.2262   71.3627   -2.8936 C   0  0  1  0  0  0  0  0  0  0  0  0
   29.0588   69.9518   -3.2952 C   0  0  2  0  0  0  0  0  0  0  0  0
   29.7398   72.7354   -1.3718 H   0  0  0  0  0  0  0  0  0  0  0  0
   31.0219   72.5633   -3.5779 H   0  0  0  0  0  0  0  0  0  0  0  0
   30.9151   67.8250   -3.2083 O   0  0  0  0  0  0  0  0  0  0  0  0
   29.8610   66.4885   -7.4916 O   0  0  0  0  0  0  0  0  0  0  0  0
   29.2897   69.0327   -4.3736 N   0  0  0  0  0  0  0  0  0  0  0  0
   30.3891   67.1620   -5.3421 N   0  0  0  0  0  0  0  0  0  0  0  0
   30.2450   67.9992   -4.2279 C   0  0  0  0  0  0  0  0  0  0  0  0
   28.5734   69.1588   -5.5577 C   0  0  0  0  0  0  0  0  0  0  0  0
   28.7217   68.3530   -6.6110 C   0  0  0  0  0  0  0  0  0  0  0  0
   29.7002   67.2481   -6.5411 C   0  0  0  0  0  0  0  0  0  0  0  0
   31.0499   66.4362   -5.2651 H   0  0  0  0  0  0  0  0  0  0  0  0
   22.7183   72.7044   -3.4037 O   0  0  0  0  0  0  0  0  0  0  0  0
   22.0858   72.1083   -2.0405 P   0  0  2  0  0  0  0  0  0  0  0  0
   21.8060   70.5573   -2.4099 O   0  0  0  0  0  0  0  0  0  0  0  0
   20.8804   72.8529   -1.5439 O   0  0  0  0  0  0  0  0  0  0  0  0
   23.3197   72.0634   -1.0023 O   0  0  0  0  0  0  0  0  0  0  0  0
   23.5565   72.5331    1.3069 O   0  0  0  0  0  0  0  0  0  0  0  0
   27.0682   74.0748   -0.2290 O   0  0  0  0  0  0  0  0  0  0  0  0
   24.5350   74.4866   -1.6245 O   0  0  0  0  0  0  0  0  0  0  0  0
   27.0892   71.5472    1.2069 O   0  0  0  0  0  0  0  0  0  0  0  0
   25.9591   73.1787   -0.1591 C   0  0  2  0  0  0  0  0  0  0  0  0
   24.6560   73.9649   -0.3063 C   0  0  2  0  0  0  0  0  0  0  0  0
   26.0052   72.4742    1.1986 C   0  0  1  0  0  0  0  0  0  0  0  0
   23.4458   73.0786   -0.0083 C   0  0  1  0  0  0  0  0  0  0  0  0
   24.7114   71.7142    1.4761 C   0  0  1  0  0  0  0  0  0  0  0  0
   27.0597   74.5341   -1.0835 H   0  0  0  0  0  0  0  0  0  0  0  0
   25.2997   75.0497   -1.8204 H   0  0  0  0  0  0  0  0  0  0  0  0
   27.9188   72.0182    1.0313 H   0  0  0  0  0  0  0  0  0  0  0  0
   25.2417   70.1182    3.1111 O   0  0  0  0  0  0  0  0  0  0  0  0
   24.0909   71.9643    3.7942 O   0  0  0  0  0  0  0  0  0  0  0  0
   24.6300   71.3121    2.9127 C   0  0  0  0  0  0  0  0  0  0  0  0
  1  4  1  0
  1 24  1  0
  1  2  1  6
  1  3  2  0
 25 28  1  0
 25 24  1  0
 25 26  1  6
 25 27  2  0
  6 11  1  0
  6 12  1  0
 29 36  1  0
 29 37  1  0
  9  7  1  1
  7 13  1  0
 10  8  1  1
  8 14  1  0
  4  5  1  0
 36 28  1  6
 33 30  1  1
 30 38  1  0
 34 31  1  6
 31 39  1  0
 35 32  1  6
 32 40  1  0
 41 43  1  0
 15 19  2  0
 42 43  2  0
 16 22  2  0
 12 17  1  6
 17 19  1  0
 17 20  1  0
 18 19  1  0
 18 22  1  0
 18 23  1  0
  9 10  1  0
  9 11  1  0
 10 12  1  0
 11  5  1  6
 33 34  1  0
 33 35  1  0
 34 36  1  0
 35 37  1  0
 37 43  1  1
 20 21  2  0
 21 22  1  0
M  CHG  3   2  -1  26  -1  41  -1
M  END
>  <COMPND>  (15) 
    udp_gluA.pdb 

>  <AUTHOR>  (15) 
    GENERATED BY OPEN BABEL 3.1.1

>  <MASTER>  (15) 
        0    0    0    0    0    0    0    0   56    0   56    0

>  <minimizedAffinity>  (15) 
-6.55488

>  <CNNscore>  (15) 
0.3463355601

>  <CNNaffinity>  (15) 
4.0747084618

>  <CNN_VS>  (15) 
1.4112163782

>  <CNNaffinity_variance>  (15) 
0.1107196659

$$$$
16
     RDKit          3D

 43 45  0  0  0  0  0  0  0  0999 V2000
   27.6475   73.2863   -2.5462 P   0  0  2  0  0  0  0  0  0  0  0  0
   27.5725   74.8984   -2.4264 O   0  0  0  0  0  0  0  0  0  0  0  0
   27.1525   72.5379   -1.3434 O   0  0  0  0  0  0  0  0  0  0  0  0
   29.1825   72.9992   -2.9697 O   0  0  0  0  0  0  0  0  0  0  0  0
   29.4897   71.7736   -3.6086 C   0  0  0  0  0  0  0  0  0  0  0  0
   28.6926   69.6431   -2.8320 O   0  0  0  0  0  0  0  0  0  0  0  0
   31.2531   69.4592   -1.2823 O   0  0  0  0  0  0  0  0  0  0  0  0
   31.7500   67.8736   -3.4445 O   0  0  0  0  0  0  0  0  0  0  0  0
   31.0164   70.0218   -2.5730 C   0  0  1  0  0  0  0  0  0  0  0  0
   30.8168   68.9229   -3.5952 C   0  0  2  0  0  0  0  0  0  0  0  0
   29.6479   70.6889   -2.5510 C   0  0  1  0  0  0  0  0  0  0  0  0
   29.3909   68.4827   -3.3106 C   0  0  2  0  0  0  0  0  0  0  0  0
   32.1219   69.0272   -1.2719 H   0  0  0  0  0  0  0  0  0  0  0  0
   32.6420   68.2042   -3.6367 H   0  0  0  0  0  0  0  0  0  0  0  0
   26.7933   67.3742   -3.3221 O   0  0  0  0  0  0  0  0  0  0  0  0
   26.9391   66.6163   -7.8661 O   0  0  0  0  0  0  0  0  0  0  0  0
   28.7259   67.9879   -4.4827 N   0  0  0  0  0  0  0  0  0  0  0  0
   26.8688   66.9968   -5.5851 N   0  0  0  0  0  0  0  0  0  0  0  0
   27.4210   67.4505   -4.3800 C   0  0  0  0  0  0  0  0  0  0  0  0
   29.3641   68.0393   -5.7160 C   0  0  0  0  0  0  0  0  0  0  0  0
   28.8249   67.6031   -6.8561 C   0  0  0  0  0  0  0  0  0  0  0  0
   27.4646   67.0263   -6.8356 C   0  0  0  0  0  0  0  0  0  0  0  0
   25.9619   66.6166   -5.5384 H   0  0  0  0  0  0  0  0  0  0  0  0
   26.8321   72.9853   -3.9091 O   0  0  0  0  0  0  0  0  0  0  0  0
   25.3673   73.4644   -4.3974 P   0  0  2  0  0  0  0  0  0  0  0  0
   25.5283   73.5663   -6.0049 O   0  0  0  0  0  0  0  0  0  0  0  0
   24.8821   74.7257   -3.7433 O   0  0  0  0  0  0  0  0  0  0  0  0
   24.4180   72.1812   -4.1638 O   0  0  0  0  0  0  0  0  0  0  0  0
   22.7010   71.9320   -2.5517 O   0  0  0  0  0  0  0  0  0  0  0  0
   23.9265   68.0229   -3.0857 O   0  0  0  0  0  0  0  0  0  0  0  0
   25.8893   70.1797   -2.9127 O   0  0  0  0  0  0  0  0  0  0  0  0
   21.4376   68.9467   -4.2703 O   0  0  0  0  0  0  0  0  0  0  0  0
   23.6709   69.3730   -3.4730 C   0  0  2  0  0  0  0  0  0  0  0  0
   24.5060   70.3197   -2.6105 C   0  0  2  0  0  0  0  0  0  0  0  0
   22.1787   69.6478   -3.2735 C   0  0  1  0  0  0  0  0  0  0  0  0
   24.0916   71.7744   -2.8362 C   0  0  1  0  0  0  0  0  0  0  0  0
   21.8661   71.1368   -3.3905 C   0  0  1  0  0  0  0  0  0  0  0  0
   24.8689   67.8253   -3.2038 H   0  0  0  0  0  0  0  0  0  0  0  0
   26.1591   69.2589   -2.7720 H   0  0  0  0  0  0  0  0  0  0  0  0
   21.6278   67.9976   -4.2068 H   0  0  0  0  0  0  0  0  0  0  0  0
   20.5548   72.2486   -1.7949 O   0  0  0  0  0  0  0  0  0  0  0  0
   19.4571   71.0052   -3.3595 O   0  0  0  0  0  0  0  0  0  0  0  0
   20.4948   71.4329   -2.8765 C   0  0  0  0  0  0  0  0  0  0  0  0
  1  4  1  0
  1 24  1  0
  1  2  1  1
  1  3  2  0
 25 28  1  0
 25 24  1  0
 25 26  1  6
 25 27  2  0
  6 11  1  0
  6 12  1  0
 29 36  1  0
 29 37  1  0
  9  7  1  1
  7 13  1  0
 10  8  1  1
  8 14  1  0
  4  5  1  0
 36 28  1  6
 33 30  1  1
 30 38  1  0
 34 31  1  6
 31 39  1  0
 35 32  1  6
 32 40  1  0
 41 43  1  0
 15 19  2  0
 42 43  2  0
 16 22  2  0
 12 17  1  6
 17 19  1  0
 17 20  1  0
 18 19  1  0
 18 22  1  0
 18 23  1  0
  9 10  1  0
  9 11  1  0
 10 12  1  0
 11  5  1  6
 33 34  1  0
 33 35  1  0
 34 36  1  0
 35 37  1  0
 37 43  1  1
 20 21  2  0
 21 22  1  0
M  CHG  3   2  -1  26  -1  41  -1
M  END
>  <COMPND>  (16) 
    udp_gluA.pdb 

>  <AUTHOR>  (16) 
    GENERATED BY OPEN BABEL 3.1.1

>  <MASTER>  (16) 
        0    0    0    0    0    0    0    0   56    0   56    0

>  <minimizedAffinity>  (16) 
-7.79100

>  <CNNscore>  (16) 
0.3200173974

>  <CNNaffinity>  (16) 
4.2211389542

>  <CNN_VS>  (16) 
1.3508379459

>  <CNNaffinity_variance>  (16) 
0.5156630874

$$$$
17
     RDKit          3D

 43 45  0  0  0  0  0  0  0  0999 V2000
   21.3655   72.7613   -6.3376 P   0  0  2  0  0  0  0  0  0  0  0  0
   21.6199   74.3470   -6.5368 O   0  0  0  0  0  0  0  0  0  0  0  0
   20.2233   72.4120   -5.4292 O   0  0  0  0  0  0  0  0  0  0  0  0
   22.8133   72.1878   -5.8983 O   0  0  0  0  0  0  0  0  0  0  0  0
   23.3802   72.6422   -4.6831 C   0  0  0  0  0  0  0  0  0  0  0  0
   23.7017   71.8553   -2.4347 O   0  0  0  0  0  0  0  0  0  0  0  0
   23.3731   69.0924   -3.5529 O   0  0  0  0  0  0  0  0  0  0  0  0
   20.9274   69.5843   -2.4516 O   0  0  0  0  0  0  0  0  0  0  0  0
   22.7185   70.3038   -3.9304 C   0  0  1  0  0  0  0  0  0  0  0  0
   21.6895   70.6900   -2.8891 C   0  0  2  0  0  0  0  0  0  0  0  0
   23.7277   71.4382   -3.8170 C   0  0  1  0  0  0  0  0  0  0  0  0
   22.5585   71.2736   -1.7882 C   0  0  2  0  0  0  0  0  0  0  0  0
   22.7480   68.3530   -3.6174 H   0  0  0  0  0  0  0  0  0  0  0  0
   20.3915   69.2492   -3.1882 H   0  0  0  0  0  0  0  0  0  0  0  0
   22.4603   71.3715    1.0327 O   0  0  0  0  0  0  0  0  0  0  0  0
   19.9263   75.2213    0.9928 O   0  0  0  0  0  0  0  0  0  0  0  0
   21.8801   72.2905   -1.0355 N   0  0  0  0  0  0  0  0  0  0  0  0
   21.1974   73.2883    1.0101 N   0  0  0  0  0  0  0  0  0  0  0  0
   21.8912   72.2475    0.3788 C   0  0  0  0  0  0  0  0  0  0  0  0
   21.2153   73.3158   -1.6971 C   0  0  0  0  0  0  0  0  0  0  0  0
   20.5585   74.3009   -1.0816 C   0  0  0  0  0  0  0  0  0  0  0  0
   20.5209   74.3293    0.3953 C   0  0  0  0  0  0  0  0  0  0  0  0
   21.1894   73.2786    1.9946 H   0  0  0  0  0  0  0  0  0  0  0  0
   21.2076   72.2258   -7.8545 O   0  0  0  0  0  0  0  0  0  0  0  0
   20.4148   72.8432   -9.1210 P   0  0  2  0  0  0  0  0  0  0  0  0
   20.9820   71.9813  -10.3683 O   0  0  0  0  0  0  0  0  0  0  0  0
   20.5649   74.3288   -9.2767 O   0  0  0  0  0  0  0  0  0  0  0  0
   18.8933   72.3397   -8.9365 O   0  0  0  0  0  0  0  0  0  0  0  0
   17.9347   70.7728   -7.4415 O   0  0  0  0  0  0  0  0  0  0  0  0
   15.6365   70.2172  -10.8294 O   0  0  0  0  0  0  0  0  0  0  0  0
   18.5299   70.5596  -11.0425 O   0  0  0  0  0  0  0  0  0  0  0  0
   14.5599   71.6800   -8.5596 O   0  0  0  0  0  0  0  0  0  0  0  0
   16.4276   70.9551   -9.8980 C   0  0  2  0  0  0  0  0  0  0  0  0
   17.8287   70.3479   -9.8226 C   0  0  2  0  0  0  0  0  0  0  0  0
   15.7414   70.8814   -8.5321 C   0  0  1  0  0  0  0  0  0  0  0  0
   18.6303   70.9625   -8.6743 C   0  0  1  0  0  0  0  0  0  0  0  0
   16.6529   71.3972   -7.4222 C   0  0  1  0  0  0  0  0  0  0  0  0
   16.0532   70.2498  -11.7050 H   0  0  0  0  0  0  0  0  0  0  0  0
   18.0268   70.1723  -11.7755 H   0  0  0  0  0  0  0  0  0  0  0  0
   13.9712   71.3622   -9.2620 H   0  0  0  0  0  0  0  0  0  0  0  0
   17.1277   70.8591   -5.1891 O   0  0  0  0  0  0  0  0  0  0  0  0
   14.9337   70.8821   -5.8096 O   0  0  0  0  0  0  0  0  0  0  0  0
   16.1173   71.0222   -6.0788 C   0  0  0  0  0  0  0  0  0  0  0  0
  1  4  1  0
  1 24  1  0
  1  2  1  6
  1  3  2  0
 25 28  1  0
 25 24  1  0
 25 26  1  6
 25 27  2  0
  6 11  1  0
  6 12  1  0
 29 36  1  0
 29 37  1  0
  9  7  1  1
  7 13  1  0
 10  8  1  1
  8 14  1  0
  4  5  1  0
 36 28  1  6
 33 30  1  6
 30 38  1  0
 34 31  1  6
 31 39  1  0
 35 32  1  6
 32 40  1  0
 41 43  1  0
 15 19  2  0
 42 43  2  0
 16 22  2  0
 12 17  1  6
 17 19  1  0
 17 20  1  0
 18 19  1  0
 18 22  1  0
 18 23  1  0
  9 10  1  0
  9 11  1  0
 10 12  1  0
 11  5  1  6
 33 34  1  0
 33 35  1  0
 34 36  1  0
 35 37  1  0
 37 43  1  1
 20 21  2  0
 21 22  1  0
M  CHG  3   2  -1  26  -1  41  -1
M  END
>  <COMPND>  (17) 
    udp_gluA.pdb 

>  <AUTHOR>  (17) 
    GENERATED BY OPEN BABEL 3.1.1

>  <MASTER>  (17) 
        0    0    0    0    0    0    0    0   56    0   56    0

>  <minimizedAffinity>  (17) 
-6.46463

>  <CNNscore>  (17) 
0.3154493272

>  <CNNaffinity>  (17) 
3.9322571754

>  <CNN_VS>  (17) 
1.2404278517

>  <CNNaffinity_variance>  (17) 
0.1209501177

$$$$
18
     RDKit          3D

 43 45  0  0  0  0  0  0  0  0999 V2000
   29.8578   72.1257    2.4881 P   0  0  2  0  0  0  0  0  0  0  0  0
   30.2345   70.8753    3.4438 O   0  0  0  0  0  0  0  0  0  0  0  0
   30.8647   73.2383    2.4741 O   0  0  0  0  0  0  0  0  0  0  0  0
   28.3640   72.5358    2.9554 O   0  0  0  0  0  0  0  0  0  0  0  0
   27.5483   71.5469    3.5566 C   0  0  0  0  0  0  0  0  0  0  0  0
   25.6697   72.8577    2.8283 O   0  0  0  0  0  0  0  0  0  0  0  0
   24.2456   71.8262    5.2572 O   0  0  0  0  0  0  0  0  0  0  0  0
   23.2341   70.2632    3.2647 O   0  0  0  0  0  0  0  0  0  0  0  0
   25.1823   71.1620    4.4087 C   0  0  1  0  0  0  0  0  0  0  0  0
   24.5300   70.7973    3.0920 C   0  0  2  0  0  0  0  0  0  0  0  0
   26.2278   72.1804    3.9751 C   0  0  1  0  0  0  0  0  0  0  0  0
   24.5206   72.1311    2.3647 C   0  0  2  0  0  0  0  0  0  0  0  0
   23.5675   71.1955    5.5471 H   0  0  0  0  0  0  0  0  0  0  0  0
   23.2937   69.4147    3.7321 H   0  0  0  0  0  0  0  0  0  0  0  0
   22.3153   71.6142    0.6777 O   0  0  0  0  0  0  0  0  0  0  0  0
   24.9736   71.5658   -3.0872 O   0  0  0  0  0  0  0  0  0  0  0  0
   24.6080   71.9789    0.9399 N   0  0  0  0  0  0  0  0  0  0  0  0
   23.6415   71.5896   -1.1957 N   0  0  0  0  0  0  0  0  0  0  0  0
   23.4397   71.7208    0.1846 C   0  0  0  0  0  0  0  0  0  0  0  0
   25.8394   72.0868    0.3051 C   0  0  0  0  0  0  0  0  0  0  0  0
   26.0160   71.9594   -1.0115 C   0  0  0  0  0  0  0  0  0  0  0  0
   24.8464   71.6881   -1.8727 C   0  0  0  0  0  0  0  0  0  0  0  0
   22.8431   71.4076   -1.7422 H   0  0  0  0  0  0  0  0  0  0  0  0
   29.6098   71.4240    1.0532 O   0  0  0  0  0  0  0  0  0  0  0  0
   30.6514   70.9169   -0.0745 P   0  0  2  0  0  0  0  0  0  0  0  0
   31.0008   69.4081    0.3965 O   0  0  0  0  0  0  0  0  0  0  0  0
   31.8502   71.8036   -0.2488 O   0  0  0  0  0  0  0  0  0  0  0  0
   29.7568   70.7315   -1.4041 O   0  0  0  0  0  0  0  0  0  0  0  0
   30.9110   69.7706   -3.2354 O   0  0  0  0  0  0  0  0  0  0  0  0
   27.3745   70.9665   -5.0048 O   0  0  0  0  0  0  0  0  0  0  0  0
   28.7268   72.6983   -3.0795 O   0  0  0  0  0  0  0  0  0  0  0  0
   27.8310   68.1582   -4.4084 O   0  0  0  0  0  0  0  0  0  0  0  0
   28.2071   70.4927   -3.9463 C   0  0  2  0  0  0  0  0  0  0  0  0
   29.2951   71.5250   -3.6498 C   0  0  2  0  0  0  0  0  0  0  0  0
   28.8352   69.1711   -4.3942 C   0  0  1  0  0  0  0  0  0  0  0  0
   30.3390   70.9584   -2.6864 C   0  0  1  0  0  0  0  0  0  0  0  0
   29.9525   68.7370   -3.4498 C   0  0  1  0  0  0  0  0  0  0  0  0
   26.9645   71.8059   -4.7428 H   0  0  0  0  0  0  0  0  0  0  0  0
   28.0633   73.0630   -3.6854 H   0  0  0  0  0  0  0  0  0  0  0  0
   27.1138   68.4222   -5.0057 H   0  0  0  0  0  0  0  0  0  0  0  0
   30.5198   67.5468   -5.3897 O   0  0  0  0  0  0  0  0  0  0  0  0
   31.5550   66.9333   -3.4529 O   0  0  0  0  0  0  0  0  0  0  0  0
   30.7683   67.6442   -4.0602 C   0  0  0  0  0  0  0  0  0  0  0  0
  1  4  1  0
  1 24  1  0
  1  2  1  1
  1  3  2  0
 25 28  1  0
 25 24  1  0
 25 26  1  1
 25 27  2  0
  6 11  1  0
  6 12  1  0
 29 36  1  0
 29 37  1  0
  9  7  1  1
  7 13  1  0
 10  8  1  1
  8 14  1  0
  4  5  1  0
 36 28  1  1
 33 30  1  6
 30 38  1  0
 34 31  1  1
 31 39  1  0
 35 32  1  1
 32 40  1  0
 41 43  1  0
 15 19  2  0
 42 43  2  0
 16 22  2  0
 12 17  1  6
 17 19  1  0
 17 20  1  0
 18 19  1  0
 18 22  1  0
 18 23  1  0
  9 10  1  0
  9 11  1  0
 10 12  1  0
 11  5  1  6
 33 34  1  0
 33 35  1  0
 34 36  1  0
 35 37  1  0
 37 43  1  6
 20 21  2  0
 21 22  1  0
M  CHG  3   2  -1  26  -1  41  -1
M  END
>  <COMPND>  (18) 
    udp_gluA.pdb 

>  <AUTHOR>  (18) 
    GENERATED BY OPEN BABEL 3.1.1

>  <MASTER>  (18) 
        0    0    0    0    0    0    0    0   56    0   56    0

>  <minimizedAffinity>  (18) 
-6.83461

>  <CNNscore>  (18) 
0.3110175133

>  <CNNaffinity>  (18) 
3.7736411095

>  <CNN_VS>  (18) 
1.1736685038

>  <CNNaffinity_variance>  (18) 
0.4005088806

$$$$
19
     RDKit          3D

 43 45  0  0  0  0  0  0  0  0999 V2000
   22.0621   70.2575   -4.0758 P   0  0  2  0  0  0  0  0  0  0  0  0
   21.2498   71.4133   -3.2865 O   0  0  0  0  0  0  0  0  0  0  0  0
   21.3347   68.9521   -4.2119 O   0  0  0  0  0  0  0  0  0  0  0  0
   23.4863   70.1919   -3.3107 O   0  0  0  0  0  0  0  0  0  0  0  0
   24.5730   70.9287   -3.8404 C   0  0  0  0  0  0  0  0  0  0  0  0
   26.5655   70.3048   -2.6495 O   0  0  0  0  0  0  0  0  0  0  0  0
   26.6262   73.1297   -1.6454 O   0  0  0  0  0  0  0  0  0  0  0  0
   28.4843   73.1666   -3.6409 O   0  0  0  0  0  0  0  0  0  0  0  0
   26.2237   72.6329   -2.9220 C   0  0  1  0  0  0  0  0  0  0  0  0
   27.4361   72.2244   -3.7315 C   0  0  2  0  0  0  0  0  0  0  0  0
   25.5204   71.2997   -2.7068 C   0  0  1  0  0  0  0  0  0  0  0  0
   27.7963   70.8871   -3.1072 C   0  0  2  0  0  0  0  0  0  0  0  0
   27.0780   73.9812   -1.7572 H   0  0  0  0  0  0  0  0  0  0  0  0
   28.2060   74.0004   -4.0524 H   0  0  0  0  0  0  0  0  0  0  0  0
   29.7607   68.9744   -2.4294 O   0  0  0  0  0  0  0  0  0  0  0  0
   30.1015   67.5118   -6.7870 O   0  0  0  0  0  0  0  0  0  0  0  0
   28.4152   69.9935   -4.0449 N   0  0  0  0  0  0  0  0  0  0  0  0
   29.9293   68.2485   -4.6006 N   0  0  0  0  0  0  0  0  0  0  0  0
   29.3915   69.0703   -3.6013 C   0  0  0  0  0  0  0  0  0  0  0  0
   28.0533   70.0358   -5.3859 C   0  0  0  0  0  0  0  0  0  0  0  0
   28.5748   69.2460   -6.3266 C   0  0  0  0  0  0  0  0  0  0  0  0
   29.6019   68.2539   -5.9468 C   0  0  0  0  0  0  0  0  0  0  0  0
   30.6124   67.5990   -4.3162 H   0  0  0  0  0  0  0  0  0  0  0  0
   22.4356   70.9695   -5.4781 O   0  0  0  0  0  0  0  0  0  0  0  0
   21.5245   71.8050   -6.5200 P   0  0  2  0  0  0  0  0  0  0  0  0
   22.0304   71.2732   -7.9628 O   0  0  0  0  0  0  0  0  0  0  0  0
   21.6013   73.2945   -6.3483 O   0  0  0  0  0  0  0  0  0  0  0  0
   20.0433   71.1876   -6.3550 O   0  0  0  0  0  0  0  0  0  0  0  0
   17.9751   71.4161   -7.4861 O   0  0  0  0  0  0  0  0  0  0  0  0
   16.7758   71.4190   -3.5326 O   0  0  0  0  0  0  0  0  0  0  0  0
   19.1483   72.9085   -4.3615 O   0  0  0  0  0  0  0  0  0  0  0  0
   16.3814   69.0533   -5.1754 O   0  0  0  0  0  0  0  0  0  0  0  0
   17.5974   71.0644   -4.6449 C   0  0  2  0  0  0  0  0  0  0  0  0
   18.2056   72.3275   -5.2551 C   0  0  2  0  0  0  0  0  0  0  0  0
   16.7188   70.3470   -5.6722 C   0  0  1  0  0  0  0  0  0  0  0  0
   18.9026   72.0142   -6.5798 C   0  0  1  0  0  0  0  0  0  0  0  0
   17.4414   70.1840   -7.0063 C   0  0  1  0  0  0  0  0  0  0  0  0
   17.3129   71.8764   -2.8666 H   0  0  0  0  0  0  0  0  0  0  0  0
   18.7129   73.1096   -3.5187 H   0  0  0  0  0  0  0  0  0  0  0  0
   15.9210   69.1429   -4.3264 H   0  0  0  0  0  0  0  0  0  0  0  0
   17.1324   69.6232   -9.2627 O   0  0  0  0  0  0  0  0  0  0  0  0
   15.2812   69.6374   -7.9316 O   0  0  0  0  0  0  0  0  0  0  0  0
   16.4838   69.7910   -8.0837 C   0  0  0  0  0  0  0  0  0  0  0  0
  1  4  1  0
  1 24  1  0
  1  2  1  1
  1  3  2  0
 25 28  1  0
 25 24  1  0
 25 26  1  6
 25 27  2  0
  6 11  1  0
  6 12  1  0
 29 36  1  0
 29 37  1  0
  9  7  1  1
  7 13  1  0
 10  8  1  1
  8 14  1  0
  4  5  1  0
 36 28  1  1
 33 30  1  1
 30 38  1  0
 34 31  1  1
 31 39  1  0
 35 32  1  1
 32 40  1  0
 41 43  1  0
 15 19  2  0
 42 43  2  0
 16 22  2  0
 12 17  1  6
 17 19  1  0
 17 20  1  0
 18 19  1  0
 18 22  1  0
 18 23  1  0
  9 10  1  0
  9 11  1  0
 10 12  1  0
 11  5  1  6
 33 34  1  0
 33 35  1  0
 34 36  1  0
 35 37  1  0
 37 43  1  6
 20 21  2  0
 21 22  1  0
M  CHG  3   2  -1  26  -1  41  -1
M  END
>  <COMPND>  (19) 
    udp_gluA.pdb 

>  <AUTHOR>  (19) 
    GENERATED BY OPEN BABEL 3.1.1

>  <MASTER>  (19) 
        0    0    0    0    0    0    0    0   56    0   56    0

>  <minimizedAffinity>  (19) 
-7.32132

>  <CNNscore>  (19) 
0.2947328091

>  <CNNaffinity>  (19) 
4.3166675568

>  <CNN_VS>  (19) 
1.2722635269

>  <CNNaffinity_variance>  (19) 
0.1102064848

$$$$
20
     RDKit          3D

 43 45  0  0  0  0  0  0  0  0999 V2000
   22.3448   73.6145   -5.6747 P   0  0  2  0  0  0  0  0  0  0  0  0
   23.5705   72.5942   -5.9491 O   0  0  0  0  0  0  0  0  0  0  0  0
   22.7045   75.0698   -5.7428 O   0  0  0  0  0  0  0  0  0  0  0  0
   21.7257   73.1088   -4.2680 O   0  0  0  0  0  0  0  0  0  0  0  0
   22.5460   72.3431   -3.4046 C   0  0  0  0  0  0  0  0  0  0  0  0
   21.2782   70.8183   -2.0463 O   0  0  0  0  0  0  0  0  0  0  0  0
   20.9033   69.1989   -4.5420 O   0  0  0  0  0  0  0  0  0  0  0  0
   18.5256   70.5160   -4.3236 O   0  0  0  0  0  0  0  0  0  0  0  0
   20.9543   70.6170   -4.3841 C   0  0  1  0  0  0  0  0  0  0  0  0
   19.6704   71.1213   -3.7599 C   0  0  2  0  0  0  0  0  0  0  0  0
   21.9794   70.9328   -3.3035 C   0  0  1  0  0  0  0  0  0  0  0  0
   19.8655   70.7558   -2.2983 C   0  0  2  0  0  0  0  0  0  0  0  0
   20.2549   68.9726   -5.2275 H   0  0  0  0  0  0  0  0  0  0  0  0
   18.4455   70.7798   -5.2542 H   0  0  0  0  0  0  0  0  0  0  0  0
   17.7431   70.0289   -0.5826 O   0  0  0  0  0  0  0  0  0  0  0  0
   17.3584   74.3188    1.0583 O   0  0  0  0  0  0  0  0  0  0  0  0
   19.1925   71.6628   -1.4121 N   0  0  0  0  0  0  0  0  0  0  0  0
   17.5528   72.1664    0.2323 N   0  0  0  0  0  0  0  0  0  0  0  0
   18.1382   71.1963   -0.5918 C   0  0  0  0  0  0  0  0  0  0  0  0
   19.5788   72.9966   -1.3604 C   0  0  0  0  0  0  0  0  0  0  0  0
   19.0114   73.9096   -0.5696 C   0  0  0  0  0  0  0  0  0  0  0  0
   17.9019   73.5045    0.3183 C   0  0  0  0  0  0  0  0  0  0  0  0
   16.8153   71.8658    0.8110 H   0  0  0  0  0  0  0  0  0  0  0  0
   21.2336   73.1445   -6.7506 O   0  0  0  0  0  0  0  0  0  0  0  0
   20.0163   73.9535   -7.4415 P   0  0  2  0  0  0  0  0  0  0  0  0
   20.6907   74.5637   -8.7806 O   0  0  0  0  0  0  0  0  0  0  0  0
   19.3735   74.9772   -6.5512 O   0  0  0  0  0  0  0  0  0  0  0  0
   19.0146   72.8075   -7.9760 O   0  0  0  0  0  0  0  0  0  0  0  0
   18.7028   70.5375   -7.3769 O   0  0  0  0  0  0  0  0  0  0  0  0
   18.0976   70.4196  -11.4620 O   0  0  0  0  0  0  0  0  0  0  0  0
   20.2654   72.0188  -10.3317 O   0  0  0  0  0  0  0  0  0  0  0  0
   15.8322   70.2701   -9.6464 O   0  0  0  0  0  0  0  0  0  0  0  0
   18.0716   70.9976  -10.1569 C   0  0  2  0  0  0  0  0  0  0  0  0
   19.4942   71.0717   -9.6017 C   0  0  2  0  0  0  0  0  0  0  0  0
   17.1976   70.1128   -9.2652 C   0  0  1  0  0  0  0  0  0  0  0  0
   19.4851   71.4691   -8.1249 C   0  0  1  0  0  0  0  0  0  0  0  0
   17.3400   70.4915   -7.7938 C   0  0  1  0  0  0  0  0  0  0  0  0
   18.6474   70.9650  -12.0465 H   0  0  0  0  0  0  0  0  0  0  0  0
   20.2753   71.7729  -11.2697 H   0  0  0  0  0  0  0  0  0  0  0  0
   15.7279   70.0324  -10.5810 H   0  0  0  0  0  0  0  0  0  0  0  0
   15.4021   69.5131   -6.9059 O   0  0  0  0  0  0  0  0  0  0  0  0
   17.4013   68.6065   -6.2891 O   0  0  0  0  0  0  0  0  0  0  0  0
   16.7558   69.4339   -6.9149 C   0  0  0  0  0  0  0  0  0  0  0  0
  1  4  1  0
  1 24  1  0
  1  2  1  6
  1  3  2  0
 25 28  1  0
 25 24  1  0
 25 26  1  6
 25 27  2  0
  6 11  1  0
  6 12  1  0
 29 36  1  0
 29 37  1  0
  9  7  1  1
  7 13  1  0
 10  8  1  6
  8 14  1  0
  4  5  1  0
 36 28  1  6
 33 30  1  6
 30 38  1  0
 34 31  1  6
 31 39  1  0
 35 32  1  6
 32 40  1  0
 41 43  1  0
 15 19  2  0
 42 43  2  0
 16 22  2  0
 12 17  1  1
 17 19  1  0
 17 20  1  0
 18 19  1  0
 18 22  1  0
 18 23  1  0
  9 10  1  0
  9 11  1  0
 10 12  1  0
 11  5  1  6
 33 34  1  0
 33 35  1  0
 34 36  1  0
 35 37  1  0
 37 43  1  1
 20 21  2  0
 21 22  1  0
M  CHG  3   2  -1  26  -1  41  -1
M  END
>  <COMPND>  (20) 
    udp_gluA.pdb 

>  <AUTHOR>  (20) 
    GENERATED BY OPEN BABEL 3.1.1

>  <MASTER>  (20) 
        0    0    0    0    0    0    0    0   56    0   56    0

>  <minimizedAffinity>  (20) 
-6.09264

>  <CNNscore>  (20) 
0.2781711817

>  <CNNaffinity>  (20) 
3.8696472645

>  <CNN_VS>  (20) 
1.0764243603

>  <CNNaffinity_variance>  (20) 
0.1092454791

$$$$
21
     RDKit          3D

 43 45  0  0  0  0  0  0  0  0999 V2000
   28.5778   73.7889   -2.5379 P   0  0  2  0  0  0  0  0  0  0  0  0
   27.0555   74.3230   -2.6660 O   0  0  0  0  0  0  0  0  0  0  0  0
   29.6343   74.7989   -2.8776 O   0  0  0  0  0  0  0  0  0  0  0  0
   28.5901   72.4344   -3.4230 O   0  0  0  0  0  0  0  0  0  0  0  0
   29.7990   71.7048   -3.5256 C   0  0  0  0  0  0  0  0  0  0  0  0
   28.7841   69.6558   -2.7847 O   0  0  0  0  0  0  0  0  0  0  0  0
   31.2446   69.2571   -1.1179 O   0  0  0  0  0  0  0  0  0  0  0  0
   31.7004   67.6235   -3.2532 O   0  0  0  0  0  0  0  0  0  0  0  0
   31.1177   69.8318   -2.4187 C   0  0  1  0  0  0  0  0  0  0  0  0
   30.8703   68.7494   -3.4480 C   0  0  2  0  0  0  0  0  0  0  0  0
   29.8131   70.6157   -2.4608 C   0  0  1  0  0  0  0  0  0  0  0  0
   29.3998   68.4365   -3.2294 C   0  0  2  0  0  0  0  0  0  0  0  0
   32.0711   68.7511   -1.0668 H   0  0  0  0  0  0  0  0  0  0  0  0
   32.6258   67.8742   -3.4042 H   0  0  0  0  0  0  0  0  0  0  0  0
   26.8204   67.2895   -3.3166 O   0  0  0  0  0  0  0  0  0  0  0  0
   27.0018   66.7819   -7.8941 O   0  0  0  0  0  0  0  0  0  0  0  0
   28.7488   67.9957   -4.4305 N   0  0  0  0  0  0  0  0  0  0  0  0
   26.9137   67.0368   -5.5962 N   0  0  0  0  0  0  0  0  0  0  0  0
   27.4523   67.4330   -4.3650 C   0  0  0  0  0  0  0  0  0  0  0  0
   29.3925   68.1241   -5.6554 C   0  0  0  0  0  0  0  0  0  0  0  0
   28.8662   67.7420   -6.8206 C   0  0  0  0  0  0  0  0  0  0  0  0
   27.5154   67.1435   -6.8397 C   0  0  0  0  0  0  0  0  0  0  0  0
   26.0127   66.6403   -5.5757 H   0  0  0  0  0  0  0  0  0  0  0  0
   28.6408   73.2326   -1.0215 O   0  0  0  0  0  0  0  0  0  0  0  0
   28.4212   73.9821    0.3940 P   0  0  2  0  0  0  0  0  0  0  0  0
   26.9225   73.5410    0.8176 O   0  0  0  0  0  0  0  0  0  0  0  0
   28.6382   75.4669    0.3448 O   0  0  0  0  0  0  0  0  0  0  0  0
   29.3831   73.1988    1.4254 O   0  0  0  0  0  0  0  0  0  0  0  0
   30.7879   71.3465    0.9736 O   0  0  0  0  0  0  0  0  0  0  0  0
   29.8829   70.7621    4.9620 O   0  0  0  0  0  0  0  0  0  0  0  0
   27.8132   71.6098    3.0826 O   0  0  0  0  0  0  0  0  0  0  0  0
   32.4951   71.7793    4.1923 O   0  0  0  0  0  0  0  0  0  0  0  0
   30.1350   71.5232    3.7809 C   0  0  2  0  0  0  0  0  0  0  0  0
   29.1092   71.1576    2.7078 C   0  0  2  0  0  0  0  0  0  0  0  0
   31.5497   71.1939    3.2991 C   0  0  1  0  0  0  0  0  0  0  0  0
   29.4825   71.7773    1.3604 C   0  0  1  0  0  0  0  0  0  0  0  0
   31.8015   71.7393    1.8963 C   0  0  1  0  0  0  0  0  0  0  0  0
   28.9892   70.9550    5.2866 H   0  0  0  0  0  0  0  0  0  0  0  0
   27.5700   71.2206    3.9369 H   0  0  0  0  0  0  0  0  0  0  0  0
   32.3456   71.4406    5.0889 H   0  0  0  0  0  0  0  0  0  0  0  0
   34.0852   71.9971    1.4275 O   0  0  0  0  0  0  0  0  0  0  0  0
   33.1084   70.0366    0.7943 O   0  0  0  0  0  0  0  0  0  0  0  0
   33.0391   71.1424    1.3094 C   0  0  0  0  0  0  0  0  0  0  0  0
  1  4  1  0
  1 24  1  0
  1  2  1  1
  1  3  2  0
 25 28  1  0
 25 24  1  0
 25 26  1  1
 25 27  2  0
  6 11  1  0
  6 12  1  0
 29 36  1  0
 29 37  1  0
  9  7  1  1
  7 13  1  0
 10  8  1  1
  8 14  1  0
  4  5  1  0
 36 28  1  1
 33 30  1  1
 30 38  1  0
 34 31  1  1
 31 39  1  0
 35 32  1  1
 32 40  1  0
 41 43  1  0
 15 19  2  0
 42 43  2  0
 16 22  2  0
 12 17  1  6
 17 19  1  0
 17 20  1  0
 18 19  1  0
 18 22  1  0
 18 23  1  0
  9 10  1  0
  9 11  1  0
 10 12  1  0
 11  5  1  6
 33 34  1  0
 33 35  1  0
 34 36  1  0
 35 37  1  0
 37 43  1  6
 20 21  2  0
 21 22  1  0
M  CHG  3   2  -1  26  -1  41  -1
M  END
>  <COMPND>  (21) 
    udp_gluA.pdb 

>  <AUTHOR>  (21) 
    GENERATED BY OPEN BABEL 3.1.1

>  <MASTER>  (21) 
        0    0    0    0    0    0    0    0   56    0   56    0

>  <minimizedAffinity>  (21) 
-7.13238

>  <CNNscore>  (21) 
0.6054742336

>  <CNNaffinity>  (21) 
4.4262561798

>  <CNN_VS>  (21) 
2.6799840927

>  <CNNaffinity_variance>  (21) 
0.0853551403

$$$$
22
     RDKit          3D

 43 45  0  0  0  0  0  0  0  0999 V2000
   26.9120   72.5792   -1.9008 P   0  0  2  0  0  0  0  0  0  0  0  0
   27.2827   73.9452   -1.1162 O   0  0  0  0  0  0  0  0  0  0  0  0
   26.0793   71.6057   -1.1193 O   0  0  0  0  0  0  0  0  0  0  0  0
   28.3430   72.0257   -2.4145 O   0  0  0  0  0  0  0  0  0  0  0  0
   29.4766   72.8648   -2.2904 C   0  0  0  0  0  0  0  0  0  0  0  0
   31.5251   71.9953   -1.3819 O   0  0  0  0  0  0  0  0  0  0  0  0
   31.5427   70.1115   -3.7148 O   0  0  0  0  0  0  0  0  0  0  0  0
   30.6135   68.5414   -1.6881 O   0  0  0  0  0  0  0  0  0  0  0  0
   30.4356   70.6057   -2.9607 C   0  0  1  0  0  0  0  0  0  0  0  0
   30.3819   69.9322   -1.6058 C   0  0  2  0  0  0  0  0  0  0  0  0
   30.7304   72.0518   -2.5862 C   0  0  1  0  0  0  0  0  0  0  0  0
   31.4761   70.6632   -0.8466 C   0  0  2  0  0  0  0  0  0  0  0  0
   31.3775   69.1888   -3.9655 H   0  0  0  0  0  0  0  0  0  0  0  0
   29.8897   68.1217   -2.1800 H   0  0  0  0  0  0  0  0  0  0  0  0
   33.2858   69.8440    1.1609 O   0  0  0  0  0  0  0  0  0  0  0  0
   30.3525   70.9867    4.5274 O   0  0  0  0  0  0  0  0  0  0  0  0
   31.2109   70.7357    0.5624 N   0  0  0  0  0  0  0  0  0  0  0  0
   31.8227   70.4130    2.8357 N   0  0  0  0  0  0  0  0  0  0  0  0
   32.1876   70.2978    1.4878 C   0  0  0  0  0  0  0  0  0  0  0  0
   29.9965   71.2372    1.0147 C   0  0  0  0  0  0  0  0  0  0  0  0
   29.6631   71.3409    2.3027 C   0  0  0  0  0  0  0  0  0  0  0  0
   30.6271   70.9045    3.3341 C   0  0  0  0  0  0  0  0  0  0  0  0
   32.4857   70.1125    3.4986 H   0  0  0  0  0  0  0  0  0  0  0  0
   26.2214   73.1171   -3.2596 O   0  0  0  0  0  0  0  0  0  0  0  0
   25.6462   72.3223   -4.5445 P   0  0  2  0  0  0  0  0  0  0  0  0
   26.7442   71.1563   -4.7801 O   0  0  0  0  0  0  0  0  0  0  0  0
   25.3979   73.1895   -5.7446 O   0  0  0  0  0  0  0  0  0  0  0  0
   24.3414   71.5480   -3.9965 O   0  0  0  0  0  0  0  0  0  0  0  0
   22.3387   72.2158   -5.0700 O   0  0  0  0  0  0  0  0  0  0  0  0
   20.9035   69.8044   -2.0380 O   0  0  0  0  0  0  0  0  0  0  0  0
   23.0714   71.6945   -1.5263 O   0  0  0  0  0  0  0  0  0  0  0  0
   20.9767   68.8219   -4.7730 O   0  0  0  0  0  0  0  0  0  0  0  0
   21.8384   70.2390   -3.0254 C   0  0  2  0  0  0  0  0  0  0  0  0
   22.2863   71.6670   -2.7126 C   0  0  2  0  0  0  0  0  0  0  0  0
   21.1456   70.1851   -4.3889 C   0  0  1  0  0  0  0  0  0  0  0  0
   23.1056   72.2483   -3.8657 C   0  0  1  0  0  0  0  0  0  0  0  0
   21.9680   70.8954   -5.4601 C   0  0  1  0  0  0  0  0  0  0  0  0
   21.3217   69.8303   -1.1629 H   0  0  0  0  0  0  0  0  0  0  0  0
   22.5578   71.3267   -0.7905 H   0  0  0  0  0  0  0  0  0  0  0  0
   20.4549   68.3583   -4.0994 H   0  0  0  0  0  0  0  0  0  0  0  0
   21.9513   71.3796   -7.7551 O   0  0  0  0  0  0  0  0  0  0  0  0
   19.9310   71.0897   -6.7385 O   0  0  0  0  0  0  0  0  0  0  0  0
   21.1513   71.1257   -6.6899 C   0  0  0  0  0  0  0  0  0  0  0  0
  1  4  1  0
  1 24  1  0
  1  2  1  1
  1  3  2  0
 25 28  1  0
 25 24  1  0
 25 26  1  6
 25 27  2  0
  6 11  1  0
  6 12  1  0
 29 36  1  0
 29 37  1  0
  9  7  1  6
  7 13  1  0
 10  8  1  6
  8 14  1  0
  4  5  1  0
 36 28  1  6
 33 30  1  1
 30 38  1  0
 34 31  1  1
 31 39  1  0
 35 32  1  6
 32 40  1  0
 41 43  1  0
 15 19  2  0
 42 43  2  0
 16 22  2  0
 12 17  1  1
 17 19  1  0
 17 20  1  0
 18 19  1  0
 18 22  1  0
 18 23  1  0
  9 10  1  0
  9 11  1  0
 10 12  1  0
 11  5  1  1
 33 34  1  0
 33 35  1  0
 34 36  1  0
 35 37  1  0
 37 43  1  6
 20 21  2  0
 21 22  1  0
M  CHG  3   2  -1  26  -1  41  -1
M  END
>  <COMPND>  (22) 
    udp_gluA.pdb 

>  <AUTHOR>  (22) 
    GENERATED BY OPEN BABEL 3.1.1

>  <MASTER>  (22) 
        0    0    0    0    0    0    0    0   56    0   56    0

>  <minimizedAffinity>  (22) 
-6.88899

>  <CNNscore>  (22) 
0.5785448551

>  <CNNaffinity>  (22) 
4.0902204514

>  <CNN_VS>  (22) 
2.3663759232

>  <CNNaffinity_variance>  (22) 
0.0315652415

$$$$
23
     RDKit          3D

 43 45  0  0  0  0  0  0  0  0999 V2000
   23.3256   73.6734   -5.0939 P   0  0  2  0  0  0  0  0  0  0  0  0
   23.9905   74.9545   -5.8257 O   0  0  0  0  0  0  0  0  0  0  0  0
   22.9009   73.9049   -3.6734 O   0  0  0  0  0  0  0  0  0  0  0  0
   24.4075   72.4918   -5.3201 O   0  0  0  0  0  0  0  0  0  0  0  0
   25.7494   72.7201   -4.9306 C   0  0  0  0  0  0  0  0  0  0  0  0
   26.3113   70.8588   -3.5172 O   0  0  0  0  0  0  0  0  0  0  0  0
   26.8075   72.8842   -1.3625 O   0  0  0  0  0  0  0  0  0  0  0  0
   29.3286   72.2954   -2.2186 O   0  0  0  0  0  0  0  0  0  0  0  0
   27.0593   72.9767   -2.7648 C   0  0  1  0  0  0  0  0  0  0  0  0
   28.2664   72.1419   -3.1367 C   0  0  2  0  0  0  0  0  0  0  0  0
   25.9349   72.2528   -3.4927 C   0  0  1  0  0  0  0  0  0  0  0  0
   27.6905   70.7362   -3.1348 C   0  0  2  0  0  0  0  0  0  0  0  0
   27.5130   73.3398   -0.8762 H   0  0  0  0  0  0  0  0  0  0  0  0
   29.6608   73.2065   -2.2580 H   0  0  0  0  0  0  0  0  0  0  0  0
   29.8113   68.9989   -2.4561 O   0  0  0  0  0  0  0  0  0  0  0  0
   30.1748   67.4562   -6.7841 O   0  0  0  0  0  0  0  0  0  0  0  0
   28.3576   69.8694   -4.0646 N   0  0  0  0  0  0  0  0  0  0  0  0
   29.9910   68.2330   -4.6125 N   0  0  0  0  0  0  0  0  0  0  0  0
   29.4116   69.0360   -3.6213 C   0  0  0  0  0  0  0  0  0  0  0  0
   27.9659   69.8493   -5.3977 C   0  0  0  0  0  0  0  0  0  0  0  0
   28.5276   69.0784   -6.3309 C   0  0  0  0  0  0  0  0  0  0  0  0
   29.6364   68.1787   -5.9508 C   0  0  0  0  0  0  0  0  0  0  0  0
   30.7282   67.6456   -4.3283 H   0  0  0  0  0  0  0  0  0  0  0  0
   22.1259   73.2646   -6.0972 O   0  0  0  0  0  0  0  0  0  0  0  0
   21.4118   71.8408   -6.3733 P   0  0  2  0  0  0  0  0  0  0  0  0
   20.8104   71.4416   -4.9244 O   0  0  0  0  0  0  0  0  0  0  0  0
   22.3165   70.8043   -6.9742 O   0  0  0  0  0  0  0  0  0  0  0  0
   20.1172   72.1986   -7.2669 O   0  0  0  0  0  0  0  0  0  0  0  0
   19.2365   71.0984   -9.1703 O   0  0  0  0  0  0  0  0  0  0  0  0
   18.2409   75.0337   -9.9383 O   0  0  0  0  0  0  0  0  0  0  0  0
   20.8678   74.3551   -8.8550 O   0  0  0  0  0  0  0  0  0  0  0  0
   16.2065   73.1632   -9.0366 O   0  0  0  0  0  0  0  0  0  0  0  0
   18.5017   73.8906   -9.1240 C   0  0  2  0  0  0  0  0  0  0  0  0
   19.9333   73.4090   -9.3614 C   0  0  2  0  0  0  0  0  0  0  0  0
   17.5019   72.7978   -9.5087 C   0  0  1  0  0  0  0  0  0  0  0  0
   20.1755   72.0588   -8.6853 C   0  0  1  0  0  0  0  0  0  0  0  0
   17.8830   71.4532   -8.8960 C   0  0  1  0  0  0  0  0  0  0  0  0
   18.8645   75.7416   -9.7116 H   0  0  0  0  0  0  0  0  0  0  0  0
   20.7196   75.2143   -9.2795 H   0  0  0  0  0  0  0  0  0  0  0  0
   15.9520   74.0175   -9.4191 H   0  0  0  0  0  0  0  0  0  0  0  0
   17.8750   69.2288   -9.6399 O   0  0  0  0  0  0  0  0  0  0  0  0
   15.9478   70.4194   -9.8997 O   0  0  0  0  0  0  0  0  0  0  0  0
   17.1100   70.3431   -9.5302 C   0  0  0  0  0  0  0  0  0  0  0  0
  1  4  1  0
  1 24  1  0
  1  2  1  6
  1  3  2  0
 25 28  1  0
 25 24  1  0
 25 26  1  1
 25 27  2  0
  6 11  1  0
  6 12  1  0
 29 36  1  0
 29 37  1  0
  9  7  1  1
  7 13  1  0
 10  8  1  1
  8 14  1  0
  4  5  1  0
 36 28  1  1
 33 30  1  6
 30 38  1  0
 34 31  1  1
 31 39  1  0
 35 32  1  1
 32 40  1  0
 41 43  1  0
 15 19  2  0
 42 43  2  0
 16 22  2  0
 12 17  1  6
 17 19  1  0
 17 20  1  0
 18 19  1  0
 18 22  1  0
 18 23  1  0
  9 10  1  0
  9 11  1  0
 10 12  1  0
 11  5  1  6
 33 34  1  0
 33 35  1  0
 34 36  1  0
 35 37  1  0
 37 43  1  6
 20 21  2  0
 21 22  1  0
M  CHG  3   2  -1  26  -1  41  -1
M  END
>  <COMPND>  (23) 
    udp_gluA.pdb 

>  <AUTHOR>  (23) 
    GENERATED BY OPEN BABEL 3.1.1

>  <MASTER>  (23) 
        0    0    0    0    0    0    0    0   56    0   56    0

>  <minimizedAffinity>  (23) 
-7.18570

>  <CNNscore>  (23) 
0.5532419682

>  <CNNaffinity>  (23) 
4.4306068420

>  <CNN_VS>  (23) 
2.4511976242

>  <CNNaffinity_variance>  (23) 
0.0883603543

$$$$
24
     RDKit          3D

 43 45  0  0  0  0  0  0  0  0999 V2000
   27.4181   73.4317   -2.8178 P   0  0  2  0  0  0  0  0  0  0  0  0
   28.2128   74.6053   -3.5988 O   0  0  0  0  0  0  0  0  0  0  0  0
   27.4493   73.5331   -1.3210 O   0  0  0  0  0  0  0  0  0  0  0  0
   28.0259   72.0686   -3.4426 O   0  0  0  0  0  0  0  0  0  0  0  0
   29.4265   71.8679   -3.3929 C   0  0  0  0  0  0  0  0  0  0  0  0
   28.8314   69.6322   -2.7409 O   0  0  0  0  0  0  0  0  0  0  0  0
   31.4973   69.5208   -1.3728 O   0  0  0  0  0  0  0  0  0  0  0  0
   31.9543   68.1432   -3.6813 O   0  0  0  0  0  0  0  0  0  0  0  0
   31.1361   70.1600   -2.5973 C   0  0  1  0  0  0  0  0  0  0  0  0
   30.9435   69.1294   -3.6895 C   0  0  2  0  0  0  0  0  0  0  0  0
   29.7298   70.7212   -2.4372 C   0  0  1  0  0  0  0  0  0  0  0  0
   29.5735   68.5655   -3.3531 C   0  0  2  0  0  0  0  0  0  0  0  0
   32.3924   69.1542   -1.4508 H   0  0  0  0  0  0  0  0  0  0  0  0
   32.8066   68.5520   -3.9015 H   0  0  0  0  0  0  0  0  0  0  0  0
   27.0268   67.3459   -3.2980 O   0  0  0  0  0  0  0  0  0  0  0  0
   26.9548   66.8682   -7.8818 O   0  0  0  0  0  0  0  0  0  0  0  0
   28.8662   68.1128   -4.5174 N   0  0  0  0  0  0  0  0  0  0  0  0
   26.9938   67.1082   -5.5810 N   0  0  0  0  0  0  0  0  0  0  0  0
   27.5920   67.5130   -4.3804 C   0  0  0  0  0  0  0  0  0  0  0  0
   29.4334   68.2660   -5.7767 C   0  0  0  0  0  0  0  0  0  0  0  0
   28.8510   67.8753   -6.9120 C   0  0  0  0  0  0  0  0  0  0  0  0
   27.5187   67.2387   -6.8565 C   0  0  0  0  0  0  0  0  0  0  0  0
   26.1071   66.6861   -5.5108 H   0  0  0  0  0  0  0  0  0  0  0  0
   25.9392   73.5010   -3.4667 O   0  0  0  0  0  0  0  0  0  0  0  0
   25.3339   72.8230   -4.8037 P   0  0  2  0  0  0  0  0  0  0  0  0
   26.3171   71.5621   -5.0566 O   0  0  0  0  0  0  0  0  0  0  0  0
   25.2173   73.7601   -5.9708 O   0  0  0  0  0  0  0  0  0  0  0  0
   23.9390   72.1635   -4.3327 O   0  0  0  0  0  0  0  0  0  0  0  0
   24.2596   71.0449   -2.2699 O   0  0  0  0  0  0  0  0  0  0  0  0
   20.2897   70.2222   -3.0642 O   0  0  0  0  0  0  0  0  0  0  0  0
   22.2822   70.1036   -5.1974 O   0  0  0  0  0  0  0  0  0  0  0  0
   20.9961   72.2085   -1.0626 O   0  0  0  0  0  0  0  0  0  0  0  0
   21.4898   70.9951   -3.0847 C   0  0  2  0  0  0  0  0  0  0  0  0
   22.5869   70.2175   -3.8122 C   0  0  2  0  0  0  0  0  0  0  0  0
   21.9016   71.2675   -1.6362 C   0  0  1  0  0  0  0  0  0  0  0  0
   23.9425   70.9080   -3.6556 C   0  0  1  0  0  0  0  0  0  0  0  0
   23.3142   71.8391   -1.5568 C   0  0  1  0  0  0  0  0  0  0  0  0
   20.0088   70.0367   -3.9742 H   0  0  0  0  0  0  0  0  0  0  0  0
   21.4232   69.6666   -5.3042 H   0  0  0  0  0  0  0  0  0  0  0  0
   20.0932   71.8568   -1.1071 H   0  0  0  0  0  0  0  0  0  0  0  0
   22.8216   71.5224    0.7145 O   0  0  0  0  0  0  0  0  0  0  0  0
   24.9909   71.9701    0.1733 O   0  0  0  0  0  0  0  0  0  0  0  0
   23.8272   71.7927   -0.1543 C   0  0  0  0  0  0  0  0  0  0  0  0
  1  4  1  0
  1 24  1  0
  1  2  1  6
  1  3  2  0
 25 28  1  0
 25 24  1  0
 25 26  1  6
 25 27  2  0
  6 11  1  0
  6 12  1  0
 29 36  1  0
 29 37  1  0
  9  7  1  1
  7 13  1  0
 10  8  1  1
  8 14  1  0
  4  5  1  0
 36 28  1  1
 33 30  1  1
 30 38  1  0
 34 31  1  6
 31 39  1  0
 35 32  1  6
 32 40  1  0
 41 43  1  0
 15 19  2  0
 42 43  2  0
 16 22  2  0
 12 17  1  6
 17 19  1  0
 17 20  1  0
 18 19  1  0
 18 22  1  0
 18 23  1  0
  9 10  1  0
  9 11  1  0
 10 12  1  0
 11  5  1  6
 33 34  1  0
 33 35  1  0
 34 36  1  0
 35 37  1  0
 37 43  1  1
 20 21  2  0
 21 22  1  0
M  CHG  3   2  -1  26  -1  41  -1
M  END
>  <COMPND>  (24) 
    udp_gluA.pdb 

>  <AUTHOR>  (24) 
    GENERATED BY OPEN BABEL 3.1.1

>  <MASTER>  (24) 
        0    0    0    0    0    0    0    0   56    0   56    0

>  <minimizedAffinity>  (24) 
-7.78765

>  <CNNscore>  (24) 
0.5485072136

>  <CNNaffinity>  (24) 
4.6297984123

>  <CNN_VS>  (24) 
2.5394778252

>  <CNNaffinity_variance>  (24) 
0.3384340703

$$$$
25
     RDKit          3D

 43 45  0  0  0  0  0  0  0  0999 V2000
   24.5720   73.3120   -4.7737 P   0  0  2  0  0  0  0  0  0  0  0  0
   25.5247   73.7884   -5.9921 O   0  0  0  0  0  0  0  0  0  0  0  0
   24.5358   74.2423   -3.5968 O   0  0  0  0  0  0  0  0  0  0  0  0
   25.0657   71.8031   -4.4617 O   0  0  0  0  0  0  0  0  0  0  0  0
   26.4409   71.4986   -4.6043 C   0  0  0  0  0  0  0  0  0  0  0  0
   27.2879   69.6116   -3.3797 O   0  0  0  0  0  0  0  0  0  0  0  0
   28.4150   71.6080   -1.4469 O   0  0  0  0  0  0  0  0  0  0  0  0
   30.5938   70.9273   -2.9388 O   0  0  0  0  0  0  0  0  0  0  0  0
   28.2883   71.6964   -2.8663 C   0  0  1  0  0  0  0  0  0  0  0  0
   29.3207   70.8179   -3.5405 C   0  0  2  0  0  0  0  0  0  0  0  0
   26.9843   71.0187   -3.2646 C   0  0  1  0  0  0  0  0  0  0  0  0
   28.7134   69.4351   -3.3768 C   0  0  2  0  0  0  0  0  0  0  0  0
   29.2411   72.0344   -1.1685 H   0  0  0  0  0  0  0  0  0  0  0  0
   30.9376   71.8253   -3.0707 H   0  0  0  0  0  0  0  0  0  0  0  0
   31.0267   67.8149   -3.3882 O   0  0  0  0  0  0  0  0  0  0  0  0
   30.0046   66.0677   -7.5290 O   0  0  0  0  0  0  0  0  0  0  0  0
   29.0761   68.5474   -4.4451 N   0  0  0  0  0  0  0  0  0  0  0  0
   30.5160   66.9470   -5.4510 N   0  0  0  0  0  0  0  0  0  0  0  0
   30.2596   67.7775   -4.3521 C   0  0  0  0  0  0  0  0  0  0  0  0
   28.2635   68.4446   -5.5677 C   0  0  0  0  0  0  0  0  0  0  0  0
   28.5209   67.6485   -6.6072 C   0  0  0  0  0  0  0  0  0  0  0  0
   29.7384   66.8112   -6.5897 C   0  0  0  0  0  0  0  0  0  0  0  0
   31.3354   66.4028   -5.4101 H   0  0  0  0  0  0  0  0  0  0  0  0
   23.1443   73.0851   -5.4968 O   0  0  0  0  0  0  0  0  0  0  0  0
   21.8494   74.0459   -5.6145 P   0  0  2  0  0  0  0  0  0  0  0  0
   22.4860   75.4754   -6.0285 O   0  0  0  0  0  0  0  0  0  0  0  0
   20.9961   74.0832   -4.3798 O   0  0  0  0  0  0  0  0  0  0  0  0
   21.0844   73.5410   -6.9420 O   0  0  0  0  0  0  0  0  0  0  0  0
   18.9174   72.6122   -6.7166 O   0  0  0  0  0  0  0  0  0  0  0  0
   19.9594   71.4003  -10.5262 O   0  0  0  0  0  0  0  0  0  0  0  0
   21.9077   71.2895   -8.3522 O   0  0  0  0  0  0  0  0  0  0  0  0
   18.0775   73.5844  -10.1534 O   0  0  0  0  0  0  0  0  0  0  0  0
   19.9464   72.2678   -9.3926 C   0  0  2  0  0  0  0  0  0  0  0  0
   20.5165   71.5328   -8.1791 C   0  0  2  0  0  0  0  0  0  0  0  0
   18.4968   72.6824   -9.1310 C   0  0  1  0  0  0  0  0  0  0  0  0
   20.3083   72.3449   -6.9001 C   0  0  1  0  0  0  0  0  0  0  0  0
   18.3508   73.3754   -7.7793 C   0  0  1  0  0  0  0  0  0  0  0  0
   20.8707   71.1236  -10.7115 H   0  0  0  0  0  0  0  0  0  0  0  0
   22.0472   70.7748   -9.1622 H   0  0  0  0  0  0  0  0  0  0  0  0
   18.1656   73.1555  -11.0189 H   0  0  0  0  0  0  0  0  0  0  0  0
   16.1492   72.6572   -8.1516 O   0  0  0  0  0  0  0  0  0  0  0  0
   16.4758   74.1984   -6.5032 O   0  0  0  0  0  0  0  0  0  0  0  0
   16.9124   73.4783   -7.3886 C   0  0  0  0  0  0  0  0  0  0  0  0
  1  4  1  0
  1 24  1  0
  1  2  1  6
  1  3  2  0
 25 28  1  0
 25 24  1  0
 25 26  1  6
 25 27  2  0
  6 11  1  0
  6 12  1  0
 29 36  1  0
 29 37  1  0
  9  7  1  1
  7 13  1  0
 10  8  1  1
  8 14  1  0
  4  5  1  0
 36 28  1  6
 33 30  1  6
 30 38  1  0
 34 31  1  6
 31 39  1  0
 35 32  1  6
 32 40  1  0
 41 43  1  0
 15 19  2  0
 42 43  2  0
 16 22  2  0
 12 17  1  6
 17 19  1  0
 17 20  1  0
 18 19  1  0
 18 22  1  0
 18 23  1  0
  9 10  1  0
  9 11  1  0
 10 12  1  0
 11  5  1  6
 33 34  1  0
 33 35  1  0
 34 36  1  0
 35 37  1  0
 37 43  1  1
 20 21  2  0
 21 22  1  0
M  CHG  3   2  -1  26  -1  41  -1
M  END
>  <COMPND>  (25) 
    udp_gluA.pdb 

>  <AUTHOR>  (25) 
    GENERATED BY OPEN BABEL 3.1.1

>  <MASTER>  (25) 
        0    0    0    0    0    0    0    0   56    0   56    0

>  <minimizedAffinity>  (25) 
-7.51389

>  <CNNscore>  (25) 
0.5410703421

>  <CNNaffinity>  (25) 
4.4213356972

>  <CNN_VS>  (25) 
2.3922536373

>  <CNNaffinity_variance>  (25) 
0.0269141495

$$$$
26
     RDKit          3D

 43 45  0  0  0  0  0  0  0  0999 V2000
   24.1474   72.8545   -4.5252 P   0  0  2  0  0  0  0  0  0  0  0  0
   24.7694   73.2897   -5.9545 O   0  0  0  0  0  0  0  0  0  0  0  0
   23.9758   73.9746   -3.5415 O   0  0  0  0  0  0  0  0  0  0  0  0
   25.0961   71.6355   -4.0436 O   0  0  0  0  0  0  0  0  0  0  0  0
   26.4828   71.7083   -4.3195 C   0  0  0  0  0  0  0  0  0  0  0  0
   27.6436   69.9772   -3.1222 O   0  0  0  0  0  0  0  0  0  0  0  0
   28.9047   72.1822   -1.5289 O   0  0  0  0  0  0  0  0  0  0  0  0
   30.8726   71.5253   -3.2986 O   0  0  0  0  0  0  0  0  0  0  0  0
   28.5555   72.1533   -2.9130 C   0  0  1  0  0  0  0  0  0  0  0  0
   29.5338   71.2913   -3.6825 C   0  0  2  0  0  0  0  0  0  0  0  0
   27.2591   71.3674   -3.0540 C   0  0  1  0  0  0  0  0  0  0  0  0
   29.0617   69.8901   -3.3335 C   0  0  2  0  0  0  0  0  0  0  0  0
   29.7303   72.6792   -1.4137 H   0  0  0  0  0  0  0  0  0  0  0  0
   31.1255   72.4300   -3.5424 H   0  0  0  0  0  0  0  0  0  0  0  0
   30.9963   67.8372   -3.1942 O   0  0  0  0  0  0  0  0  0  0  0  0
   29.9672   66.3300   -7.4266 O   0  0  0  0  0  0  0  0  0  0  0  0
   29.3202   68.9471   -4.3846 N   0  0  0  0  0  0  0  0  0  0  0  0
   30.4826   67.0891   -5.3027 N   0  0  0  0  0  0  0  0  0  0  0  0
   30.3142   67.9547   -4.2139 C   0  0  0  0  0  0  0  0  0  0  0  0
   28.5927   69.0098   -5.5669 C   0  0  0  0  0  0  0  0  0  0  0  0
   28.7646   68.1776   -6.5959 C   0  0  0  0  0  0  0  0  0  0  0  0
   29.7840   67.1123   -6.4989 C   0  0  0  0  0  0  0  0  0  0  0  0
   31.1704   66.3910   -5.2080 H   0  0  0  0  0  0  0  0  0  0  0  0
   22.7759   72.1059   -4.9392 O   0  0  0  0  0  0  0  0  0  0  0  0
   21.6929   72.4362   -6.0932 P   0  0  2  0  0  0  0  0  0  0  0  0
   22.1652   71.4963   -7.3236 O   0  0  0  0  0  0  0  0  0  0  0  0
   21.5828   73.8938   -6.4353 O   0  0  0  0  0  0  0  0  0  0  0  0
   20.3216   71.7655   -5.5716 O   0  0  0  0  0  0  0  0  0  0  0  0
   18.5333   71.9723   -7.1106 O   0  0  0  0  0  0  0  0  0  0  0  0
   16.6134   70.4304   -3.7934 O   0  0  0  0  0  0  0  0  0  0  0  0
   18.6302   72.5231   -3.4976 O   0  0  0  0  0  0  0  0  0  0  0  0
   17.1855   68.7210   -6.0740 O   0  0  0  0  0  0  0  0  0  0  0  0
   17.7033   70.6270   -4.6941 C   0  0  2  0  0  0  0  0  0  0  0  0
   18.0693   72.1107   -4.7386 C   0  0  2  0  0  0  0  0  0  0  0  0
   17.2652   70.1451   -6.0789 C   0  0  1  0  0  0  0  0  0  0  0  0
   19.0730   72.3934   -5.8573 C   0  0  1  0  0  0  0  0  0  0  0  0
   18.2557   70.5745   -7.1574 C   0  0  1  0  0  0  0  0  0  0  0  0
   16.8686   70.7296   -2.9065 H   0  0  0  0  0  0  0  0  0  0  0  0
   17.9987   72.3464   -2.7832 H   0  0  0  0  0  0  0  0  0  0  0  0
   16.5584   68.4345   -5.3918 H   0  0  0  0  0  0  0  0  0  0  0  0
   18.2535   71.2351   -9.4080 O   0  0  0  0  0  0  0  0  0  0  0  0
   16.7838   69.6004   -8.8024 O   0  0  0  0  0  0  0  0  0  0  0  0
   17.6681   70.3946   -8.5193 C   0  0  0  0  0  0  0  0  0  0  0  0
  1  4  1  0
  1 24  1  0
  1  2  1  6
  1  3  2  0
 25 28  1  0
 25 24  1  0
 25 26  1  6
 25 27  2  0
  6 11  1  0
  6 12  1  0
 29 36  1  0
 29 37  1  0
  9  7  1  1
  7 13  1  0
 10  8  1  1
  8 14  1  0
  4  5  1  0
 36 28  1  1
 33 30  1  1
 30 38  1  0
 34 31  1  1
 31 39  1  0
 35 32  1  1
 32 40  1  0
 41 43  1  0
 15 19  2  0
 42 43  2  0
 16 22  2  0
 12 17  1  6
 17 19  1  0
 17 20  1  0
 18 19  1  0
 18 22  1  0
 18 23  1  0
  9 10  1  0
  9 11  1  0
 10 12  1  0
 11  5  1  6
 33 34  1  0
 33 35  1  0
 34 36  1  0
 35 37  1  0
 37 43  1  6
 20 21  2  0
 21 22  1  0
M  CHG  3   2  -1  26  -1  41  -1
M  END
>  <COMPND>  (26) 
    udp_gluA.pdb 

>  <AUTHOR>  (26) 
    GENERATED BY OPEN BABEL 3.1.1

>  <MASTER>  (26) 
        0    0    0    0    0    0    0    0   56    0   56    0

>  <minimizedAffinity>  (26) 
-7.59644

>  <CNNscore>  (26) 
0.5304545164

>  <CNNaffinity>  (26) 
4.4502019882

>  <CNN_VS>  (26) 
2.3606297970

>  <CNNaffinity_variance>  (26) 
0.0341052935

$$$$
27
     RDKit          3D

 43 45  0  0  0  0  0  0  0  0999 V2000
   27.4046   73.0798   -2.8326 P   0  0  2  0  0  0  0  0  0  0  0  0
   27.6549   74.4468   -3.6619 O   0  0  0  0  0  0  0  0  0  0  0  0
   27.7875   73.1392   -1.3829 O   0  0  0  0  0  0  0  0  0  0  0  0
   28.1563   71.9487   -3.7121 O   0  0  0  0  0  0  0  0  0  0  0  0
   29.5381   71.7305   -3.4943 C   0  0  0  0  0  0  0  0  0  0  0  0
   28.7526   69.5712   -2.7887 O   0  0  0  0  0  0  0  0  0  0  0  0
   31.3292   69.3355   -1.2730 O   0  0  0  0  0  0  0  0  0  0  0  0
   31.8065   67.8317   -3.4972 O   0  0  0  0  0  0  0  0  0  0  0  0
   31.0784   69.9448   -2.5396 C   0  0  1  0  0  0  0  0  0  0  0  0
   30.8701   68.8839   -3.5995 C   0  0  2  0  0  0  0  0  0  0  0  0
   29.7091   70.6078   -2.4791 C   0  0  1  0  0  0  0  0  0  0  0  0
   29.4479   68.4306   -3.3168 C   0  0  2  0  0  0  0  0  0  0  0  0
   32.1988   68.9052   -1.2874 H   0  0  0  0  0  0  0  0  0  0  0  0
   32.6960   68.1710   -3.6861 H   0  0  0  0  0  0  0  0  0  0  0  0
   26.8222   67.3911   -3.3535 O   0  0  0  0  0  0  0  0  0  0  0  0
   26.9542   66.7245   -7.9122 O   0  0  0  0  0  0  0  0  0  0  0  0
   28.7717   67.9780   -4.4995 N   0  0  0  0  0  0  0  0  0  0  0  0
   26.8908   67.0591   -5.6238 N   0  0  0  0  0  0  0  0  0  0  0  0
   27.4531   67.4729   -4.4091 C   0  0  0  0  0  0  0  0  0  0  0  0
   29.4127   68.0383   -5.7310 C   0  0  0  0  0  0  0  0  0  0  0  0
   28.8638   67.6402   -6.8803 C   0  0  0  0  0  0  0  0  0  0  0  0
   27.4889   67.0990   -6.8730 C   0  0  0  0  0  0  0  0  0  0  0  0
   25.9742   66.7019   -5.5858 H   0  0  0  0  0  0  0  0  0  0  0  0
   25.8412   72.7718   -3.1041 O   0  0  0  0  0  0  0  0  0  0  0  0
   24.9026   73.0912   -4.3810 P   0  0  2  0  0  0  0  0  0  0  0  0
   25.8401   72.6910   -5.6385 O   0  0  0  0  0  0  0  0  0  0  0  0
   24.3782   74.4973   -4.4235 O   0  0  0  0  0  0  0  0  0  0  0  0
   23.7611   71.9518   -4.3452 O   0  0  0  0  0  0  0  0  0  0  0  0
   22.1210   72.1047   -2.6435 O   0  0  0  0  0  0  0  0  0  0  0  0
   21.5414   68.2550   -4.0263 O   0  0  0  0  0  0  0  0  0  0  0  0
   24.2425   69.3022   -3.6495 O   0  0  0  0  0  0  0  0  0  0  0  0
   19.6789   70.3639   -4.7573 O   0  0  0  0  0  0  0  0  0  0  0  0
   21.8869   69.6367   -4.1242 C   0  0  2  0  0  0  0  0  0  0  0  0
   23.0569   69.9393   -3.1877 C   0  0  2  0  0  0  0  0  0  0  0  0
   20.6600   70.4603   -3.7264 C   0  0  1  0  0  0  0  0  0  0  0  0
   23.3057   71.4452   -3.0919 C   0  0  1  0  0  0  0  0  0  0  0  0
   21.0164   71.9307   -3.5283 C   0  0  1  0  0  0  0  0  0  0  0  0
   22.3061   67.7119   -4.2744 H   0  0  0  0  0  0  0  0  0  0  0  0
   24.0917   68.3464   -3.7129 H   0  0  0  0  0  0  0  0  0  0  0  0
   19.4433   69.4329   -4.8934 H   0  0  0  0  0  0  0  0  0  0  0  0
   19.1970   71.8046   -2.0534 O   0  0  0  0  0  0  0  0  0  0  0  0
   19.6774   73.8496   -2.9401 O   0  0  0  0  0  0  0  0  0  0  0  0
   19.9111   72.6553   -2.8315 C   0  0  0  0  0  0  0  0  0  0  0  0
  1  4  1  0
  1 24  1  0
  1  2  1  6
  1  3  2  0
 25 28  1  0
 25 24  1  0
 25 26  1  6
 25 27  2  0
  6 11  1  0
  6 12  1  0
 29 36  1  0
 29 37  1  0
  9  7  1  1
  7 13  1  0
 10  8  1  1
  8 14  1  0
  4  5  1  0
 36 28  1  6
 33 30  1  1
 30 38  1  0
 34 31  1  6
 31 39  1  0
 35 32  1  6
 32 40  1  0
 41 43  1  0
 15 19  2  0
 42 43  2  0
 16 22  2  0
 12 17  1  6
 17 19  1  0
 17 20  1  0
 18 19  1  0
 18 22  1  0
 18 23  1  0
  9 10  1  0
  9 11  1  0
 10 12  1  0
 11  5  1  6
 33 34  1  0
 33 35  1  0
 34 36  1  0
 35 37  1  0
 37 43  1  1
 20 21  2  0
 21 22  1  0
M  CHG  3   2  -1  26  -1  41  -1
M  END
>  <COMPND>  (27) 
    udp_gluA.pdb 

>  <AUTHOR>  (27) 
    GENERATED BY OPEN BABEL 3.1.1

>  <MASTER>  (27) 
        0    0    0    0    0    0    0    0   56    0   56    0

>  <minimizedAffinity>  (27) 
-7.96170

>  <CNNscore>  (27) 
0.5162534118

>  <CNNaffinity>  (27) 
4.4544572830

>  <CNN_VS>  (27) 
2.2996287346

>  <CNNaffinity_variance>  (27) 
0.5476593375

$$$$
28
     RDKit          3D

 43 45  0  0  0  0  0  0  0  0999 V2000
   24.7271   73.6599   -4.9776 P   0  0  2  0  0  0  0  0  0  0  0  0
   25.0511   74.7009   -6.1735 O   0  0  0  0  0  0  0  0  0  0  0  0
   24.0610   74.2629   -3.7757 O   0  0  0  0  0  0  0  0  0  0  0  0
   26.1448   72.9301   -4.7030 O   0  0  0  0  0  0  0  0  0  0  0  0
   26.1905   71.5151   -4.7159 C   0  0  0  0  0  0  0  0  0  0  0  0
   26.9944   69.6236   -3.4694 O   0  0  0  0  0  0  0  0  0  0  0  0
   27.9388   71.6061   -1.4275 O   0  0  0  0  0  0  0  0  0  0  0  0
   30.2305   71.0025   -2.7763 O   0  0  0  0  0  0  0  0  0  0  0  0
   27.9083   71.7194   -2.8504 C   0  0  1  0  0  0  0  0  0  0  0  0
   29.0050   70.8771   -3.4669 C   0  0  2  0  0  0  0  0  0  0  0  0
   26.6511   71.0212   -3.3505 C   0  0  1  0  0  0  0  0  0  0  0  0
   28.4201   69.4783   -3.3706 C   0  0  2  0  0  0  0  0  0  0  0  0
   28.7335   72.0450   -1.0847 H   0  0  0  0  0  0  0  0  0  0  0  0
   30.5618   71.9102   -2.8679 H   0  0  0  0  0  0  0  0  0  0  0  0
   30.7721   67.9191   -3.2552 O   0  0  0  0  0  0  0  0  0  0  0  0
   30.0724   66.2211   -7.4826 O   0  0  0  0  0  0  0  0  0  0  0  0
   28.8762   68.6198   -4.4269 N   0  0  0  0  0  0  0  0  0  0  0  0
   30.4219   67.0757   -5.3612 N   0  0  0  0  0  0  0  0  0  0  0  0
   30.0714   67.8792   -4.2682 C   0  0  0  0  0  0  0  0  0  0  0  0
   28.1423   68.5163   -5.6024 C   0  0  0  0  0  0  0  0  0  0  0  0
   28.4890   67.7460   -6.6354 C   0  0  0  0  0  0  0  0  0  0  0  0
   29.7249   66.9404   -6.5509 C   0  0  0  0  0  0  0  0  0  0  0  0
   31.2513   66.5522   -5.2749 H   0  0  0  0  0  0  0  0  0  0  0  0
   23.8650   72.5115   -5.7198 O   0  0  0  0  0  0  0  0  0  0  0  0
   22.2837   72.1775   -5.6780 P   0  0  2  0  0  0  0  0  0  0  0  0
   22.2082   70.6711   -6.2658 O   0  0  0  0  0  0  0  0  0  0  0  0
   21.4253   73.1698   -6.4077 O   0  0  0  0  0  0  0  0  0  0  0  0
   21.9399   72.0203   -4.1097 O   0  0  0  0  0  0  0  0  0  0  0  0
   23.3080   71.3532   -2.2953 O   0  0  0  0  0  0  0  0  0  0  0  0
   19.6221   69.8748   -1.1568 O   0  0  0  0  0  0  0  0  0  0  0  0
   20.5236   69.6337   -3.9251 O   0  0  0  0  0  0  0  0  0  0  0  0
   20.6842   72.2717    0.0993 O   0  0  0  0  0  0  0  0  0  0  0  0
   20.5226   70.7842   -1.7892 C   0  0  2  0  0  0  0  0  0  0  0  0
   21.3482   70.0401   -2.8391 C   0  0  2  0  0  0  0  0  0  0  0  0
   21.4367   71.3710   -0.7112 C   0  0  1  0  0  0  0  0  0  0  0  0
   22.4769   70.9227   -3.3738 C   0  0  1  0  0  0  0  0  0  0  0  0
   22.6077   72.1313   -1.3272 C   0  0  1  0  0  0  0  0  0  0  0  0
   19.0311   69.4892   -1.8226 H   0  0  0  0  0  0  0  0  0  0  0  0
   19.8051   69.0735   -3.5930 H   0  0  0  0  0  0  0  0  0  0  0  0
   19.9356   71.8002    0.4972 H   0  0  0  0  0  0  0  0  0  0  0  0
   24.8957   72.2373   -0.8220 O   0  0  0  0  0  0  0  0  0  0  0  0
   23.4361   72.7562    0.8511 O   0  0  0  0  0  0  0  0  0  0  0  0
   23.6562   72.4127   -0.3007 C   0  0  0  0  0  0  0  0  0  0  0  0
  1  4  1  0
  1 24  1  0
  1  2  1  6
  1  3  2  0
 25 28  1  0
 25 24  1  0
 25 26  1  6
 25 27  2  0
  6 11  1  0
  6 12  1  0
 29 36  1  0
 29 37  1  0
  9  7  1  1
  7 13  1  0
 10  8  1  1
  8 14  1  0
  4  5  1  0
 36 28  1  1
 33 30  1  1
 30 38  1  0
 34 31  1  6
 31 39  1  0
 35 32  1  1
 32 40  1  0
 41 43  1  0
 15 19  2  0
 42 43  2  0
 16 22  2  0
 12 17  1  6
 17 19  1  0
 17 20  1  0
 18 19  1  0
 18 22  1  0
 18 23  1  0
  9 10  1  0
  9 11  1  0
 10 12  1  0
 11  5  1  6
 33 34  1  0
 33 35  1  0
 34 36  1  0
 35 37  1  0
 37 43  1  1
 20 21  2  0
 21 22  1  0
M  CHG  3   2  -1  26  -1  41  -1
M  END
>  <COMPND>  (28) 
    udp_gluA.pdb 

>  <AUTHOR>  (28) 
    GENERATED BY OPEN BABEL 3.1.1

>  <MASTER>  (28) 
        0    0    0    0    0    0    0    0   56    0   56    0

>  <minimizedAffinity>  (28) 
-7.41570

>  <CNNscore>  (28) 
0.5041642785

>  <CNNaffinity>  (28) 
4.4351887703

>  <CNN_VS>  (28) 
2.2360637188

>  <CNNaffinity_variance>  (28) 
0.0634370893

$$$$
29
     RDKit          3D

 43 45  0  0  0  0  0  0  0  0999 V2000
   24.5328   73.5356   -4.1691 P   0  0  2  0  0  0  0  0  0  0  0  0
   23.6914   72.2303   -4.6242 O   0  0  0  0  0  0  0  0  0  0  0  0
   24.0567   74.8324   -4.7553 O   0  0  0  0  0  0  0  0  0  0  0  0
   26.0681   73.1402   -4.4922 O   0  0  0  0  0  0  0  0  0  0  0  0
   26.4273   71.7707   -4.4955 C   0  0  0  0  0  0  0  0  0  0  0  0
   27.5248   70.0502   -3.2254 O   0  0  0  0  0  0  0  0  0  0  0  0
   28.7108   72.2696   -1.5946 O   0  0  0  0  0  0  0  0  0  0  0  0
   30.7615   71.5918   -3.2593 O   0  0  0  0  0  0  0  0  0  0  0  0
   28.4295   72.2271   -2.9938 C   0  0  1  0  0  0  0  0  0  0  0  0
   29.4426   71.3559   -3.7058 C   0  0  2  0  0  0  0  0  0  0  0  0
   27.1400   71.4416   -3.1901 C   0  0  1  0  0  0  0  0  0  0  0  0
   28.9514   69.9590   -3.3662 C   0  0  2  0  0  0  0  0  0  0  0  0
   29.5306   72.7665   -1.4442 H   0  0  0  0  0  0  0  0  0  0  0  0
   31.0277   72.4937   -3.4996 H   0  0  0  0  0  0  0  0  0  0  0  0
   30.9532   67.9779   -3.1554 O   0  0  0  0  0  0  0  0  0  0  0  0
   30.0450   66.3524   -7.3717 O   0  0  0  0  0  0  0  0  0  0  0  0
   29.2591   69.0050   -4.3938 N   0  0  0  0  0  0  0  0  0  0  0  0
   30.4996   67.1708   -5.2559 N   0  0  0  0  0  0  0  0  0  0  0  0
   30.2839   68.0513   -4.1877 C   0  0  0  0  0  0  0  0  0  0  0  0
   28.5491   69.0188   -5.5882 C   0  0  0  0  0  0  0  0  0  0  0  0
   28.7660   68.1730   -6.5973 C   0  0  0  0  0  0  0  0  0  0  0  0
   29.8199   67.1460   -6.4630 C   0  0  0  0  0  0  0  0  0  0  0  0
   31.2095   66.4991   -5.1366 H   0  0  0  0  0  0  0  0  0  0  0  0
   24.4707   73.4630   -2.5555 O   0  0  0  0  0  0  0  0  0  0  0  0
   23.3157   73.9105   -1.5166 P   0  0  2  0  0  0  0  0  0  0  0  0
   22.0943   72.9077   -1.8669 O   0  0  0  0  0  0  0  0  0  0  0  0
   22.9584   75.3672   -1.5830 O   0  0  0  0  0  0  0  0  0  0  0  0
   23.8476   73.4167   -0.0758 O   0  0  0  0  0  0  0  0  0  0  0  0
   25.5001   71.7941    0.4196 O   0  0  0  0  0  0  0  0  0  0  0  0
   22.9956   71.4686    3.6891 O   0  0  0  0  0  0  0  0  0  0  0  0
   21.8907   71.7588    1.0003 O   0  0  0  0  0  0  0  0  0  0  0  0
   25.5507   72.8324    3.9384 O   0  0  0  0  0  0  0  0  0  0  0  0
   23.6590   72.1388    2.6173 C   0  0  2  0  0  0  0  0  0  0  0  0
   23.2596   71.4982    1.2878 C   0  0  2  0  0  0  0  0  0  0  0  0
   25.1675   72.0080    2.8393 C   0  0  1  0  0  0  0  0  0  0  0  0
   24.1198   72.0336    0.1423 C   0  0  1  0  0  0  0  0  0  0  0  0
   25.9521   72.4443    1.6054 C   0  0  1  0  0  0  0  0  0  0  0  0
   22.0353   71.5385    3.5693 H   0  0  0  0  0  0  0  0  0  0  0  0
   21.3391   71.4219    1.7232 H   0  0  0  0  0  0  0  0  0  0  0  0
   25.0584   72.5651    4.7302 H   0  0  0  0  0  0  0  0  0  0  0  0
   27.9911   72.6124    2.7525 O   0  0  0  0  0  0  0  0  0  0  0  0
   27.9248   71.2210    0.9473 O   0  0  0  0  0  0  0  0  0  0  0  0
   27.3785   72.0105    1.7030 C   0  0  0  0  0  0  0  0  0  0  0  0
  1  4  1  0
  1 24  1  0
  1  2  1  6
  1  3  2  0
 25 28  1  0
 25 24  1  0
 25 26  1  6
 25 27  2  0
  6 11  1  0
  6 12  1  0
 29 36  1  0
 29 37  1  0
  9  7  1  1
  7 13  1  0
 10  8  1  1
  8 14  1  0
  4  5  1  0
 36 28  1  1
 33 30  1  1
 30 38  1  0
 34 31  1  6
 31 39  1  0
 35 32  1  1
 32 40  1  0
 41 43  1  0
 15 19  2  0
 42 43  2  0
 16 22  2  0
 12 17  1  6
 17 19  1  0
 17 20  1  0
 18 19  1  0
 18 22  1  0
 18 23  1  0
  9 10  1  0
  9 11  1  0
 10 12  1  0
 11  5  1  6
 33 34  1  0
 33 35  1  0
 34 36  1  0
 35 37  1  0
 37 43  1  1
 20 21  2  0
 21 22  1  0
M  CHG  3   2  -1  26  -1  41  -1
M  END
>  <COMPND>  (29) 
    udp_gluA.pdb 

>  <AUTHOR>  (29) 
    GENERATED BY OPEN BABEL 3.1.1

>  <MASTER>  (29) 
        0    0    0    0    0    0    0    0   56    0   56    0

>  <minimizedAffinity>  (29) 
-6.41356

>  <CNNscore>  (29) 
0.4974798262

>  <CNNaffinity>  (29) 
4.2856583595

>  <CNN_VS>  (29) 
2.1320285797

>  <CNNaffinity_variance>  (29) 
0.0551150329

$$$$
30
     RDKit          3D

 43 45  0  0  0  0  0  0  0  0999 V2000
   26.4309   71.2330   -3.8578 P   0  0  2  0  0  0  0  0  0  0  0  0
   25.2012   70.2553   -3.4696 O   0  0  0  0  0  0  0  0  0  0  0  0
   27.0298   70.9906   -5.2122 O   0  0  0  0  0  0  0  0  0  0  0  0
   27.4465   71.0958   -2.6058 O   0  0  0  0  0  0  0  0  0  0  0  0
   28.8077   71.4337   -2.7992 C   0  0  0  0  0  0  0  0  0  0  0  0
   29.0943   69.0548   -2.6081 O   0  0  0  0  0  0  0  0  0  0  0  0
   31.9409   69.6441   -1.8725 O   0  0  0  0  0  0  0  0  0  0  0  0
   32.1418   68.9103   -4.4911 O   0  0  0  0  0  0  0  0  0  0  0  0
   31.0916   70.3128   -2.8053 C   0  0  1  0  0  0  0  0  0  0  0  0
   30.9230   69.4748   -4.0548 C   0  0  2  0  0  0  0  0  0  0  0  0
   29.6803   70.3204   -2.2339 C   0  0  1  0  0  0  0  0  0  0  0  0
   29.9230   68.4260   -3.5987 C   0  0  2  0  0  0  0  0  0  0  0  0
   32.8484   69.6267   -2.2158 H   0  0  0  0  0  0  0  0  0  0  0  0
   32.7440   69.6181   -4.7711 H   0  0  0  0  0  0  0  0  0  0  0  0
   27.2636   67.5289   -3.2834 O   0  0  0  0  0  0  0  0  0  0  0  0
   26.8341   66.6471   -7.7869 O   0  0  0  0  0  0  0  0  0  0  0  0
   29.0932   67.9566   -4.6720 N   0  0  0  0  0  0  0  0  0  0  0  0
   27.0526   67.0896   -5.5265 N   0  0  0  0  0  0  0  0  0  0  0  0
   27.7712   67.5280   -4.4065 C   0  0  0  0  0  0  0  0  0  0  0  0
   29.5893   67.9255   -5.9696 C   0  0  0  0  0  0  0  0  0  0  0  0
   28.8923   67.5051   -7.0271 C   0  0  0  0  0  0  0  0  0  0  0  0
   27.5031   67.0396   -6.8358 C   0  0  0  0  0  0  0  0  0  0  0  0
   26.1304   66.7844   -5.3663 H   0  0  0  0  0  0  0  0  0  0  0  0
   25.8004   72.7074   -3.6545 O   0  0  0  0  0  0  0  0  0  0  0  0
   24.5956   73.4621   -4.4243 P   0  0  2  0  0  0  0  0  0  0  0  0
   24.9314   73.1977   -5.9856 O   0  0  0  0  0  0  0  0  0  0  0  0
   24.4446   74.9109   -4.0610 O   0  0  0  0  0  0  0  0  0  0  0  0
   23.2921   72.5585   -4.1295 O   0  0  0  0  0  0  0  0  0  0  0  0
   21.4053   72.9381   -5.5098 O   0  0  0  0  0  0  0  0  0  0  0  0
   19.7865   70.6315   -2.4886 O   0  0  0  0  0  0  0  0  0  0  0  0
   21.6851   72.7635   -1.8686 O   0  0  0  0  0  0  0  0  0  0  0  0
   20.3244   69.4567   -5.0927 O   0  0  0  0  0  0  0  0  0  0  0  0
   20.8062   71.0818   -3.3805 C   0  0  2  0  0  0  0  0  0  0  0  0
   21.0770   72.5672   -3.1400 C   0  0  2  0  0  0  0  0  0  0  0  0
   20.3160   70.8552   -4.8124 C   0  0  1  0  0  0  0  0  0  0  0  0
   21.9924   73.1389   -4.2235 C   0  0  1  0  0  0  0  0  0  0  0  0
   21.2116   71.5613   -5.8261 C   0  0  1  0  0  0  0  0  0  0  0  0
   20.0757   70.7657   -1.5723 H   0  0  0  0  0  0  0  0  0  0  0  0
   21.1097   72.4028   -1.1764 H   0  0  0  0  0  0  0  0  0  0  0  0
   19.7581   68.9955   -4.4544 H   0  0  0  0  0  0  0  0  0  0  0  0
   19.2730   71.1805   -7.0903 O   0  0  0  0  0  0  0  0  0  0  0  0
   21.0922   71.9969   -8.1962 O   0  0  0  0  0  0  0  0  0  0  0  0
   20.5554   71.6144   -7.1674 C   0  0  0  0  0  0  0  0  0  0  0  0
  1  4  1  0
  1 24  1  0
  1  2  1  1
  1  3  2  0
 25 28  1  0
 25 24  1  0
 25 26  1  6
 25 27  2  0
  6 11  1  0
  6 12  1  0
 29 36  1  0
 29 37  1  0
  9  7  1  1
  7 13  1  0
 10  8  1  1
  8 14  1  0
  4  5  1  0
 36 28  1  6
 33 30  1  1
 30 38  1  0
 34 31  1  1
 31 39  1  0
 35 32  1  6
 32 40  1  0
 41 43  1  0
 15 19  2  0
 42 43  2  0
 16 22  2  0
 12 17  1  6
 17 19  1  0
 17 20  1  0
 18 19  1  0
 18 22  1  0
 18 23  1  0
  9 10  1  0
  9 11  1  0
 10 12  1  0
 11  5  1  6
 33 34  1  0
 33 35  1  0
 34 36  1  0
 35 37  1  0
 37 43  1  6
 20 21  2  0
 21 22  1  0
M  CHG  3   2  -1  26  -1  41  -1
M  END
>  <COMPND>  (30) 
    udp_gluA.pdb 

>  <AUTHOR>  (30) 
    GENERATED BY OPEN BABEL 3.1.1

>  <MASTER>  (30) 
        0    0    0    0    0    0    0    0   56    0   56    0

>  <minimizedAffinity>  (30) 
-7.46746

>  <CNNscore>  (30) 
0.4687984288

>  <CNNaffinity>  (30) 
4.4671049118

>  <CNN_VS>  (30) 
2.0941717625

>  <CNNaffinity_variance>  (30) 
0.1075705066

$$$$
31
     RDKit          3D

 43 45  0  0  0  0  0  0  0  0999 V2000
   25.9713   73.4567   -2.5526 P   0  0  2  0  0  0  0  0  0  0  0  0
   27.1997   74.2134   -1.8196 O   0  0  0  0  0  0  0  0  0  0  0  0
   24.8184   73.1067   -1.6580 O   0  0  0  0  0  0  0  0  0  0  0  0
   26.6771   72.2122   -3.3084 O   0  0  0  0  0  0  0  0  0  0  0  0
   28.0796   72.2443   -3.4989 C   0  0  0  0  0  0  0  0  0  0  0  0
   28.1691   69.9438   -2.8080 O   0  0  0  0  0  0  0  0  0  0  0  0
   30.8071   70.6175   -1.5515 O   0  0  0  0  0  0  0  0  0  0  0  0
   31.5481   69.3843   -3.8680 O   0  0  0  0  0  0  0  0  0  0  0  0
   30.2328   71.1058   -2.7640 C   0  0  1  0  0  0  0  0  0  0  0  0
   30.2992   70.0432   -3.8406 C   0  0  2  0  0  0  0  0  0  0  0  0
   28.7322   71.2481   -2.5491 C   0  0  1  0  0  0  0  0  0  0  0  0
   29.1597   69.1203   -3.4435 C   0  0  2  0  0  0  0  0  0  0  0  0
   31.7658   70.5183   -1.6644 H   0  0  0  0  0  0  0  0  0  0  0  0
   32.2402   70.0138   -4.1262 H   0  0  0  0  0  0  0  0  0  0  0  0
   26.9716   67.3414   -3.2883 O   0  0  0  0  0  0  0  0  0  0  0  0
   26.9650   66.6628   -7.8472 O   0  0  0  0  0  0  0  0  0  0  0  0
   28.5662   68.4647   -4.5743 N   0  0  0  0  0  0  0  0  0  0  0  0
   26.9711   67.0043   -5.5589 N   0  0  0  0  0  0  0  0  0  0  0  0
   27.4702   67.5894   -4.3877 C   0  0  0  0  0  0  0  0  0  0  0  0
   29.0680   68.6920   -5.8501 C   0  0  0  0  0  0  0  0  0  0  0  0
   28.5816   68.1271   -6.9569 C   0  0  0  0  0  0  0  0  0  0  0  0
   27.4369   67.1990   -6.8491 C   0  0  0  0  0  0  0  0  0  0  0  0
   26.2092   66.3896   -5.4539 H   0  0  0  0  0  0  0  0  0  0  0  0
   25.6016   74.4572   -3.7672 O   0  0  0  0  0  0  0  0  0  0  0  0
   24.5468   74.3063   -4.9830 P   0  0  2  0  0  0  0  0  0  0  0  0
   25.3229   73.3450   -6.0288 O   0  0  0  0  0  0  0  0  0  0  0  0
   24.0882   75.6116   -5.5659 O   0  0  0  0  0  0  0  0  0  0  0  0
   23.3631   73.3870   -4.3862 O   0  0  0  0  0  0  0  0  0  0  0  0
   22.4444   71.2061   -4.4814 O   0  0  0  0  0  0  0  0  0  0  0  0
   19.1765   73.5383   -5.4559 O   0  0  0  0  0  0  0  0  0  0  0  0
   21.8102   74.1413   -6.5669 O   0  0  0  0  0  0  0  0  0  0  0  0
   19.3877   72.3555   -2.8088 O   0  0  0  0  0  0  0  0  0  0  0  0
   20.4103   73.2296   -4.8076 C   0  0  2  0  0  0  0  0  0  0  0  0
   21.4850   72.9508   -5.8587 C   0  0  2  0  0  0  0  0  0  0  0  0
   20.1885   71.9940   -3.9324 C   0  0  1  0  0  0  0  0  0  0  0  0
   22.7534   72.3949   -5.2100 C   0  0  1  0  0  0  0  0  0  0  0  0
   21.5109   71.4252   -3.4261 C   0  0  1  0  0  0  0  0  0  0  0  0
   19.2931   74.3205   -6.0179 H   0  0  0  0  0  0  0  0  0  0  0  0
   21.0098   74.4996   -6.9808 H   0  0  0  0  0  0  0  0  0  0  0  0
   18.5430   72.7192   -3.1172 H   0  0  0  0  0  0  0  0  0  0  0  0
   20.5331   70.1019   -1.7545 O   0  0  0  0  0  0  0  0  0  0  0  0
   21.7942   69.0313   -3.3238 O   0  0  0  0  0  0  0  0  0  0  0  0
   21.3173   70.0562   -2.8598 C   0  0  0  0  0  0  0  0  0  0  0  0
  1  4  1  0
  1 24  1  0
  1  2  1  1
  1  3  2  0
 25 28  1  0
 25 24  1  0
 25 26  1  6
 25 27  2  0
  6 11  1  0
  6 12  1  0
 29 36  1  0
 29 37  1  0
  9  7  1  1
  7 13  1  0
 10  8  1  1
  8 14  1  0
  4  5  1  0
 36 28  1  1
 33 30  1  6
 30 38  1  0
 34 31  1  1
 31 39  1  0
 35 32  1  1
 32 40  1  0
 41 43  1  0
 15 19  2  0
 42 43  2  0
 16 22  2  0
 12 17  1  6
 17 19  1  0
 17 20  1  0
 18 19  1  0
 18 22  1  0
 18 23  1  0
  9 10  1  0
  9 11  1  0
 10 12  1  0
 11  5  1  6
 33 34  1  0
 33 35  1  0
 34 36  1  0
 35 37  1  0
 37 43  1  6
 20 21  2  0
 21 22  1  0
M  CHG  3   2  -1  26  -1  41  -1
M  END
>  <COMPND>  (31) 
    udp_gluA.pdb 

>  <AUTHOR>  (31) 
    GENERATED BY OPEN BABEL 3.1.1

>  <MASTER>  (31) 
        0    0    0    0    0    0    0    0   56    0   56    0

>  <minimizedAffinity>  (31) 
-6.99903

>  <CNNscore>  (31) 
0.4672387838

>  <CNNaffinity>  (31) 
4.4817676544

>  <CNN_VS>  (31) 
2.0940556526

>  <CNNaffinity_variance>  (31) 
0.2226508558

$$$$
32
     RDKit          3D

 43 45  0  0  0  0  0  0  0  0999 V2000
   27.8431   73.6549   -2.6790 P   0  0  2  0  0  0  0  0  0  0  0  0
   27.7605   74.7857   -3.8337 O   0  0  0  0  0  0  0  0  0  0  0  0
   28.7175   74.0050   -1.5108 O   0  0  0  0  0  0  0  0  0  0  0  0
   28.2478   72.3093   -3.4812 O   0  0  0  0  0  0  0  0  0  0  0  0
   29.5901   71.8633   -3.4195 C   0  0  0  0  0  0  0  0  0  0  0  0
   28.7265   69.7354   -2.7096 O   0  0  0  0  0  0  0  0  0  0  0  0
   31.2409   69.4615   -1.0990 O   0  0  0  0  0  0  0  0  0  0  0  0
   31.7593   67.9108   -3.2814 O   0  0  0  0  0  0  0  0  0  0  0  0
   31.0505   70.0562   -2.3830 C   0  0  1  0  0  0  0  0  0  0  0  0
   30.8536   68.9837   -3.4334 C   0  0  2  0  0  0  0  0  0  0  0  0
   29.6969   70.7533   -2.3818 C   0  0  1  0  0  0  0  0  0  0  0  0
   29.4115   68.5698   -3.1950 C   0  0  2  0  0  0  0  0  0  0  0  0
   32.0995   69.0100   -1.0756 H   0  0  0  0  0  0  0  0  0  0  0  0
   32.6631   68.2253   -3.4435 H   0  0  0  0  0  0  0  0  0  0  0  0
   26.8865   67.3065   -3.2670 O   0  0  0  0  0  0  0  0  0  0  0  0
   27.0344   66.8657   -7.8526 O   0  0  0  0  0  0  0  0  0  0  0  0
   28.7666   68.1148   -4.3942 N   0  0  0  0  0  0  0  0  0  0  0  0
   26.9631   67.0873   -5.5507 N   0  0  0  0  0  0  0  0  0  0  0  0
   27.4981   67.4922   -4.3208 C   0  0  0  0  0  0  0  0  0  0  0  0
   29.3885   68.2881   -5.6247 C   0  0  0  0  0  0  0  0  0  0  0  0
   28.8660   67.8969   -6.7886 C   0  0  0  0  0  0  0  0  0  0  0  0
   27.5438   67.2372   -6.7996 C   0  0  0  0  0  0  0  0  0  0  0  0
   26.0816   66.6495   -5.5248 H   0  0  0  0  0  0  0  0  0  0  0  0
   26.2906   73.4027   -2.3063 O   0  0  0  0  0  0  0  0  0  0  0  0
   25.6094   72.4981   -1.1524 P   0  0  2  0  0  0  0  0  0  0  0  0
   24.8967   73.5930   -0.1966 O   0  0  0  0  0  0  0  0  0  0  0  0
   26.5656   71.5852   -0.4409 O   0  0  0  0  0  0  0  0  0  0  0  0
   24.3882   71.7452   -1.8901 O   0  0  0  0  0  0  0  0  0  0  0  0
   23.0111   72.8332   -3.4803 O   0  0  0  0  0  0  0  0  0  0  0  0
   20.6172   69.6734   -2.3171 O   0  0  0  0  0  0  0  0  0  0  0  0
   22.1524   71.1755   -0.3369 O   0  0  0  0  0  0  0  0  0  0  0  0
   21.9786   69.6046   -4.8848 O   0  0  0  0  0  0  0  0  0  0  0  0
   21.8468   70.3434   -2.5952 C   0  0  2  0  0  0  0  0  0  0  0  0
   21.9765   71.5704   -1.6925 C   0  0  2  0  0  0  0  0  0  0  0  0
   21.8338   70.7640   -4.0666 C   0  0  1  0  0  0  0  0  0  0  0  0
   23.1622   72.4384   -2.1162 C   0  0  1  0  0  0  0  0  0  0  0  0
   22.9743   71.7280   -4.3804 C   0  0  1  0  0  0  0  0  0  0  0  0
   20.6026   69.3968   -1.3873 H   0  0  0  0  0  0  0  0  0  0  0  0
   21.4037   70.6242   -0.0614 H   0  0  0  0  0  0  0  0  0  0  0  0
   21.2589   68.9828   -4.6947 H   0  0  0  0  0  0  0  0  0  0  0  0
   22.9847   73.7182   -5.6217 O   0  0  0  0  0  0  0  0  0  0  0  0
   22.4443   71.8020   -6.7331 O   0  0  0  0  0  0  0  0  0  0  0  0
   22.7656   72.3826   -5.7071 C   0  0  0  0  0  0  0  0  0  0  0  0
  1  4  1  0
  1 24  1  0
  1  2  1  6
  1  3  2  0
 25 28  1  0
 25 24  1  0
 25 26  1  1
 25 27  2  0
  6 11  1  0
  6 12  1  0
 29 36  1  0
 29 37  1  0
  9  7  1  1
  7 13  1  0
 10  8  1  1
  8 14  1  0
  4  5  1  0
 36 28  1  6
 33 30  1  1
 30 38  1  0
 34 31  1  1
 31 39  1  0
 35 32  1  6
 32 40  1  0
 41 43  1  0
 15 19  2  0
 42 43  2  0
 16 22  2  0
 12 17  1  6
 17 19  1  0
 17 20  1  0
 18 19  1  0
 18 22  1  0
 18 23  1  0
  9 10  1  0
  9 11  1  0
 10 12  1  0
 11  5  1  6
 33 34  1  0
 33 35  1  0
 34 36  1  0
 35 37  1  0
 37 43  1  6
 20 21  2  0
 21 22  1  0
M  CHG  3   2  -1  26  -1  41  -1
M  END
>  <COMPND>  (32) 
    udp_gluA.pdb 

>  <AUTHOR>  (32) 
    GENERATED BY OPEN BABEL 3.1.1

>  <MASTER>  (32) 
        0    0    0    0    0    0    0    0   56    0   56    0

>  <minimizedAffinity>  (32) 
-7.71724

>  <CNNscore>  (32) 
0.4310942292

>  <CNNaffinity>  (32) 
4.3869652748

>  <CNN_VS>  (32) 
1.8911954165

>  <CNNaffinity_variance>  (32) 
0.3927219808

$$$$
33
     RDKit          3D

 43 45  0  0  0  0  0  0  0  0999 V2000
   27.9846   72.1008   -1.8744 P   0  0  2  0  0  0  0  0  0  0  0  0
   29.4432   71.4566   -1.5979 O   0  0  0  0  0  0  0  0  0  0  0  0
   27.9707   73.2433   -2.8471 O   0  0  0  0  0  0  0  0  0  0  0  0
   27.4188   72.4307   -0.3949 O   0  0  0  0  0  0  0  0  0  0  0  0
   26.1898   73.1242   -0.2802 C   0  0  0  0  0  0  0  0  0  0  0  0
   25.2071   71.4311    1.1145 O   0  0  0  0  0  0  0  0  0  0  0  0
   22.7286   71.7711   -0.5386 O   0  0  0  0  0  0  0  0  0  0  0  0
   22.1436   73.1953    1.7121 O   0  0  0  0  0  0  0  0  0  0  0  0
   23.6781   72.7524   -0.1213 C   0  0  1  0  0  0  0  0  0  0  0  0
   23.5021   73.0593    1.3508 C   0  0  2  0  0  0  0  0  0  0  0  0
   25.0591   72.1119   -0.1504 C   0  0  1  0  0  0  0  0  0  0  0  0
   24.1636   71.8581    2.0047 C   0  0  2  0  0  0  0  0  0  0  0  0
   21.8383   72.1572   -0.5281 H   0  0  0  0  0  0  0  0  0  0  0  0
   21.7680   73.9738    1.2706 H   0  0  0  0  0  0  0  0  0  0  0  0
   22.7365   71.8646    4.4418 O   0  0  0  0  0  0  0  0  0  0  0  0
   26.4756   73.0964    6.8388 O   0  0  0  0  0  0  0  0  0  0  0  0
   24.7396   72.1767    3.2804 N   0  0  0  0  0  0  0  0  0  0  0  0
   24.5999   72.4791    5.6332 N   0  0  0  0  0  0  0  0  0  0  0  0
   23.9352   72.1507    4.4443 C   0  0  0  0  0  0  0  0  0  0  0  0
   26.0860   72.5084    3.3702 C   0  0  0  0  0  0  0  0  0  0  0  0
   26.7055   72.8189    4.5107 C   0  0  0  0  0  0  0  0  0  0  0  0
   25.9365   72.8161    5.7725 C   0  0  0  0  0  0  0  0  0  0  0  0
   24.0601   72.4698    6.4565 H   0  0  0  0  0  0  0  0  0  0  0  0
   27.1028   70.8228   -2.3241 O   0  0  0  0  0  0  0  0  0  0  0  0
   26.3224   70.5042   -3.7036 P   0  0  2  0  0  0  0  0  0  0  0  0
   26.4309   71.8976   -4.5202 O   0  0  0  0  0  0  0  0  0  0  0  0
   24.9190   70.0050   -3.5159 O   0  0  0  0  0  0  0  0  0  0  0  0
   27.2931   69.4899   -4.4981 O   0  0  0  0  0  0  0  0  0  0  0  0
   26.8604   67.2355   -5.0808 O   0  0  0  0  0  0  0  0  0  0  0  0
   30.9774   67.2396   -4.7368 O   0  0  0  0  0  0  0  0  0  0  0  0
   29.3274   68.6630   -2.7911 O   0  0  0  0  0  0  0  0  0  0  0  0
   29.7327   67.2111   -7.3637 O   0  0  0  0  0  0  0  0  0  0  0  0
   29.6933   67.7923   -5.0258 C   0  0  2  0  0  0  0  0  0  0  0  0
   28.8260   67.7573   -3.7673 C   0  0  2  0  0  0  0  0  0  0  0  0
   29.0559   66.9526   -6.1351 C   0  0  1  0  0  0  0  0  0  0  0  0
   27.3773   68.1254   -4.0908 C   0  0  1  0  0  0  0  0  0  0  0  0
   27.5785   67.2918   -6.3114 C   0  0  1  0  0  0  0  0  0  0  0  0
   31.4017   67.7571   -4.0343 H   0  0  0  0  0  0  0  0  0  0  0  0
   30.2464   68.4354   -2.5813 H   0  0  0  0  0  0  0  0  0  0  0  0
   30.6742   66.9995   -7.2650 H   0  0  0  0  0  0  0  0  0  0  0  0
   26.8237   66.6609   -8.4406 O   0  0  0  0  0  0  0  0  0  0  0  0
   26.4558   65.1978   -6.7310 O   0  0  0  0  0  0  0  0  0  0  0  0
   26.8935   66.2600   -7.1471 C   0  0  0  0  0  0  0  0  0  0  0  0
  1  4  1  0
  1 24  1  0
  1  2  1  1
  1  3  2  0
 25 28  1  0
 25 24  1  0
 25 26  1  6
 25 27  2  0
  6 11  1  0
  6 12  1  0
 29 36  1  0
 29 37  1  0
  9  7  1  1
  7 13  1  0
 10  8  1  6
  8 14  1  0
  4  5  1  0
 36 28  1  6
 33 30  1  1
 30 38  1  0
 34 31  1  1
 31 39  1  0
 35 32  1  6
 32 40  1  0
 41 43  1  0
 15 19  2  0
 42 43  2  0
 16 22  2  0
 12 17  1  1
 17 19  1  0
 17 20  1  0
 18 19  1  0
 18 22  1  0
 18 23  1  0
  9 10  1  0
  9 11  1  0
 10 12  1  0
 11  5  1  1
 33 34  1  0
 33 35  1  0
 34 36  1  0
 35 37  1  0
 37 43  1  6
 20 21  2  0
 21 22  1  0
M  CHG  3   2  -1  26  -1  41  -1
M  END
>  <COMPND>  (33) 
    udp_gluA.pdb 

>  <AUTHOR>  (33) 
    GENERATED BY OPEN BABEL 3.1.1

>  <MASTER>  (33) 
        0    0    0    0    0    0    0    0   56    0   56    0

>  <minimizedAffinity>  (33) 
-7.08449

>  <CNNscore>  (33) 
0.4228841066

>  <CNNaffinity>  (33) 
4.0741987228

>  <CNN_VS>  (33) 
1.7229138613

>  <CNNaffinity_variance>  (33) 
0.0228416901

$$$$
34
     RDKit          3D

 43 45  0  0  0  0  0  0  0  0999 V2000
   22.3397   72.3048   -4.6409 P   0  0  2  0  0  0  0  0  0  0  0  0
   21.6418   70.8479   -4.7366 O   0  0  0  0  0  0  0  0  0  0  0  0
   21.8810   73.1527   -3.4909 O   0  0  0  0  0  0  0  0  0  0  0  0
   22.1193   72.9387   -6.1131 O   0  0  0  0  0  0  0  0  0  0  0  0
   20.8064   72.9808   -6.6415 C   0  0  0  0  0  0  0  0  0  0  0  0
   20.1281   71.0542   -7.9085 O   0  0  0  0  0  0  0  0  0  0  0  0
   20.5249   72.7507  -10.3490 O   0  0  0  0  0  0  0  0  0  0  0  0
   17.8190   72.8087  -10.0166 O   0  0  0  0  0  0  0  0  0  0  0  0
   20.0328   73.1214   -9.0610 C   0  0  1  0  0  0  0  0  0  0  0  0
   18.6211   72.6082   -8.8716 C   0  0  2  0  0  0  0  0  0  0  0  0
   20.8039   72.3257   -8.0167 C   0  0  1  0  0  0  0  0  0  0  0  0
   18.8575   71.1375   -8.5735 C   0  0  2  0  0  0  0  0  0  0  0  0
   20.0472   73.2463  -11.0330 H   0  0  0  0  0  0  0  0  0  0  0  0
   17.6976   73.7603  -10.1637 H   0  0  0  0  0  0  0  0  0  0  0  0
   16.4857   69.9137   -9.4972 O   0  0  0  0  0  0  0  0  0  0  0  0
   15.0480   69.0412   -5.2058 O   0  0  0  0  0  0  0  0  0  0  0  0
   17.8462   70.5820   -7.7193 N   0  0  0  0  0  0  0  0  0  0  0  0
   15.7714   69.4812   -7.3590 N   0  0  0  0  0  0  0  0  0  0  0  0
   16.6921   69.9899   -8.2846 C   0  0  0  0  0  0  0  0  0  0  0  0
   18.0034   70.6254   -6.3394 C   0  0  0  0  0  0  0  0  0  0  0  0
   17.1171   70.1363   -5.4698 C   0  0  0  0  0  0  0  0  0  0  0  0
   15.8834   69.5016   -5.9782 C   0  0  0  0  0  0  0  0  0  0  0  0
   14.9589   69.0660   -7.7287 H   0  0  0  0  0  0  0  0  0  0  0  0
   23.9171   71.9515   -4.6298 O   0  0  0  0  0  0  0  0  0  0  0  0
   25.2181   72.8992   -4.7812 P   0  0  2  0  0  0  0  0  0  0  0  0
   25.1969   73.7766   -3.4211 O   0  0  0  0  0  0  0  0  0  0  0  0
   25.2433   73.7136   -6.0422 O   0  0  0  0  0  0  0  0  0  0  0  0
   26.4737   71.9020   -4.6030 O   0  0  0  0  0  0  0  0  0  0  0  0
   26.5492   69.7861   -3.5418 O   0  0  0  0  0  0  0  0  0  0  0  0
   30.3862   71.1808   -2.9098 O   0  0  0  0  0  0  0  0  0  0  0  0
   28.0933   72.9656   -2.6075 O   0  0  0  0  0  0  0  0  0  0  0  0
   29.8870   69.1448   -4.9238 O   0  0  0  0  0  0  0  0  0  0  0  0
   29.1541   71.0301   -3.6148 C   0  0  2  0  0  0  0  0  0  0  0  0
   28.0043   71.5530   -2.7533 C   0  0  2  0  0  0  0  0  0  0  0  0
   28.9601   69.5421   -3.9152 C   0  0  1  0  0  0  0  0  0  0  0  0
   26.6517   71.2005   -3.3738 C   0  0  1  0  0  0  0  0  0  0  0  0
   27.5461   69.2536   -4.4112 C   0  0  1  0  0  0  0  0  0  0  0  0
   30.5309   72.1187   -2.7080 H   0  0  0  0  0  0  0  0  0  0  0  0
   28.9493   73.1964   -2.2146 H   0  0  0  0  0  0  0  0  0  0  0  0
   30.7909   69.3233   -4.6207 H   0  0  0  0  0  0  0  0  0  0  0  0
   26.6631   67.4344   -3.2227 O   0  0  0  0  0  0  0  0  0  0  0  0
   27.5325   67.0053   -5.2865 O   0  0  0  0  0  0  0  0  0  0  0  0
   27.2642   67.7866   -4.3862 C   0  0  0  0  0  0  0  0  0  0  0  0
  1  4  1  0
  1 24  1  0
  1  2  1  6
  1  3  2  0
 25 28  1  0
 25 24  1  0
 25 26  1  1
 25 27  2  0
  6 11  1  0
  6 12  1  0
 29 36  1  0
 29 37  1  0
  9  7  1  6
  7 13  1  0
 10  8  1  6
  8 14  1  0
  4  5  1  0
 36 28  1  6
 33 30  1  1
 30 38  1  0
 34 31  1  6
 31 39  1  0
 35 32  1  6
 32 40  1  0
 41 43  1  0
 15 19  2  0
 42 43  2  0
 16 22  2  0
 12 17  1  1
 17 19  1  0
 17 20  1  0
 18 19  1  0
 18 22  1  0
 18 23  1  0
  9 10  1  0
  9 11  1  0
 10 12  1  0
 11  5  1  1
 33 34  1  0
 33 35  1  0
 34 36  1  0
 35 37  1  0
 37 43  1  1
 20 21  2  0
 21 22  1  0
M  CHG  3   2  -1  26  -1  41  -1
M  END
>  <COMPND>  (34) 
    udp_gluA.pdb 

>  <AUTHOR>  (34) 
    GENERATED BY OPEN BABEL 3.1.1

>  <MASTER>  (34) 
        0    0    0    0    0    0    0    0   56    0   56    0

>  <minimizedAffinity>  (34) 
-7.67972

>  <CNNscore>  (34) 
0.3695183396

>  <CNNaffinity>  (34) 
4.1275300980

>  <CNN_VS>  (34) 
1.5251981020

>  <CNNaffinity_variance>  (34) 
0.0438472629

$$$$
35
     RDKit          3D

 43 45  0  0  0  0  0  0  0  0999 V2000
   28.0096   73.7540   -2.8550 P   0  0  2  0  0  0  0  0  0  0  0  0
   27.1965   74.5408   -4.0121 O   0  0  0  0  0  0  0  0  0  0  0  0
   29.1965   74.4883   -2.3038 O   0  0  0  0  0  0  0  0  0  0  0  0
   28.3208   72.3089   -3.5129 O   0  0  0  0  0  0  0  0  0  0  0  0
   29.6515   71.8262   -3.4859 C   0  0  0  0  0  0  0  0  0  0  0  0
   28.7763   69.7120   -2.7497 O   0  0  0  0  0  0  0  0  0  0  0  0
   31.3030   69.4304   -1.1598 O   0  0  0  0  0  0  0  0  0  0  0  0
   31.7882   67.8566   -3.3333 O   0  0  0  0  0  0  0  0  0  0  0  0
   31.1059   70.0157   -2.4471 C   0  0  1  0  0  0  0  0  0  0  0  0
   30.8902   68.9359   -3.4863 C   0  0  2  0  0  0  0  0  0  0  0  0
   29.7583   70.7243   -2.4396 C   0  0  1  0  0  0  0  0  0  0  0  0
   29.4469   68.5365   -3.2312 C   0  0  2  0  0  0  0  0  0  0  0  0
   32.1580   68.9717   -1.1403 H   0  0  0  0  0  0  0  0  0  0  0  0
   32.6931   68.1619   -3.5063 H   0  0  0  0  0  0  0  0  0  0  0  0
   26.8793   67.3611   -3.2776 O   0  0  0  0  0  0  0  0  0  0  0  0
   27.0143   66.8095   -7.8516 O   0  0  0  0  0  0  0  0  0  0  0  0
   28.7872   68.0767   -4.4204 N   0  0  0  0  0  0  0  0  0  0  0  0
   26.9494   67.0866   -5.5555 N   0  0  0  0  0  0  0  0  0  0  0  0
   27.4976   67.5008   -4.3345 C   0  0  0  0  0  0  0  0  0  0  0  0
   29.4155   68.1997   -5.6538 C   0  0  0  0  0  0  0  0  0  0  0  0
   28.8802   67.8003   -6.8091 C   0  0  0  0  0  0  0  0  0  0  0  0
   27.5358   67.1872   -6.8068 C   0  0  0  0  0  0  0  0  0  0  0  0
   26.0531   66.6806   -5.5207 H   0  0  0  0  0  0  0  0  0  0  0  0
   26.8609   73.4188   -1.7683 O   0  0  0  0  0  0  0  0  0  0  0  0
   25.6613   72.3353   -1.7918 P   0  0  2  0  0  0  0  0  0  0  0  0
   24.7606   72.7530   -0.5132 O   0  0  0  0  0  0  0  0  0  0  0  0
   26.1218   70.9064   -1.7835 O   0  0  0  0  0  0  0  0  0  0  0  0
   24.7666   72.7430   -3.0707 O   0  0  0  0  0  0  0  0  0  0  0  0
   23.6154   70.7635   -3.6755 O   0  0  0  0  0  0  0  0  0  0  0  0
   22.0221   73.5049   -6.3239 O   0  0  0  0  0  0  0  0  0  0  0  0
   24.8857   73.4962   -5.7455 O   0  0  0  0  0  0  0  0  0  0  0  0
   20.4736   72.6258   -4.0260 O   0  0  0  0  0  0  0  0  0  0  0  0
   22.5901   73.0618   -5.0914 C   0  0  2  0  0  0  0  0  0  0  0  0
   23.9780   72.4745   -5.3493 C   0  0  2  0  0  0  0  0  0  0  0  0
   21.6635   71.9976   -4.4992 C   0  0  1  0  0  0  0  0  0  0  0  0
   24.5210   71.7838   -4.0976 C   0  0  1  0  0  0  0  0  0  0  0  0
   22.3261   71.2679   -3.3343 C   0  0  1  0  0  0  0  0  0  0  0  0
   22.5940   74.1819   -6.7188 H   0  0  0  0  0  0  0  0  0  0  0  0
   24.5472   73.9389   -6.5391 H   0  0  0  0  0  0  0  0  0  0  0  0
   20.0422   73.0940   -4.7578 H   0  0  0  0  0  0  0  0  0  0  0  0
   20.5244   70.3276   -2.1633 O   0  0  0  0  0  0  0  0  0  0  0  0
   21.8347   68.9060   -3.3721 O   0  0  0  0  0  0  0  0  0  0  0  0
   21.5650   70.0317   -2.9809 C   0  0  0  0  0  0  0  0  0  0  0  0
  1  4  1  0
  1 24  1  0
  1  2  1  6
  1  3  2  0
 25 28  1  0
 25 24  1  0
 25 26  1  1
 25 27  2  0
  6 11  1  0
  6 12  1  0
 29 36  1  0
 29 37  1  0
  9  7  1  1
  7 13  1  0
 10  8  1  1
  8 14  1  0
  4  5  1  0
 36 28  1  1
 33 30  1  6
 30 38  1  0
 34 31  1  1
 31 39  1  0
 35 32  1  1
 32 40  1  0
 41 43  1  0
 15 19  2  0
 42 43  2  0
 16 22  2  0
 12 17  1  6
 17 19  1  0
 17 20  1  0
 18 19  1  0
 18 22  1  0
 18 23  1  0
  9 10  1  0
  9 11  1  0
 10 12  1  0
 11  5  1  6
 33 34  1  0
 33 35  1  0
 34 36  1  0
 35 37  1  0
 37 43  1  6
 20 21  2  0
 21 22  1  0
M  CHG  3   2  -1  26  -1  41  -1
M  END
>  <COMPND>  (35) 
    udp_gluA.pdb 

>  <AUTHOR>  (35) 
    GENERATED BY OPEN BABEL 3.1.1

>  <MASTER>  (35) 
        0    0    0    0    0    0    0    0   56    0   56    0

>  <minimizedAffinity>  (35) 
-7.55914

>  <CNNscore>  (35) 
0.3685129881

>  <CNNaffinity>  (35) 
4.2313280106

>  <CNN_VS>  (35) 
1.5592993498

>  <CNNaffinity_variance>  (35) 
0.6266470551

$$$$
36
     RDKit          3D

 43 45  0  0  0  0  0  0  0  0999 V2000
   21.9796   73.3539   -5.6368 P   0  0  2  0  0  0  0  0  0  0  0  0
   22.6431   74.8117   -5.8681 O   0  0  0  0  0  0  0  0  0  0  0  0
   21.1931   73.2100   -4.3670 O   0  0  0  0  0  0  0  0  0  0  0  0
   23.2196   72.3299   -5.8151 O   0  0  0  0  0  0  0  0  0  0  0  0
   24.3591   72.4981   -4.9918 C   0  0  0  0  0  0  0  0  0  0  0  0
   24.6705   70.3367   -3.9872 O   0  0  0  0  0  0  0  0  0  0  0  0
   24.3790   71.7280   -1.3470 O   0  0  0  0  0  0  0  0  0  0  0  0
   27.0794   71.4150   -1.5606 O   0  0  0  0  0  0  0  0  0  0  0  0
   24.9970   72.1898   -2.5484 C   0  0  1  0  0  0  0  0  0  0  0  0
   26.3274   71.4967   -2.7533 C   0  0  2  0  0  0  0  0  0  0  0  0
   24.1826   71.6704   -3.7253 C   0  0  1  0  0  0  0  0  0  0  0  0
   25.8969   70.1336   -3.2676 C   0  0  2  0  0  0  0  0  0  0  0  0
   24.8818   72.0474   -0.5809 H   0  0  0  0  0  0  0  0  0  0  0  0
   27.3295   72.3081   -1.2744 H   0  0  0  0  0  0  0  0  0  0  0  0
   26.5502   67.3866   -3.3291 O   0  0  0  0  0  0  0  0  0  0  0  0
   29.6303   68.0077   -6.7012 O   0  0  0  0  0  0  0  0  0  0  0  0
   26.8660   69.5504   -4.1517 N   0  0  0  0  0  0  0  0  0  0  0  0
   28.0844   67.6987   -5.0079 N   0  0  0  0  0  0  0  0  0  0  0  0
   27.1199   68.1593   -4.1020 C   0  0  0  0  0  0  0  0  0  0  0  0
   27.5514   70.3528   -5.0558 C   0  0  0  0  0  0  0  0  0  0  0  0
   28.4680   69.8993   -5.9132 C   0  0  0  0  0  0  0  0  0  0  0  0
   28.7929   68.4578   -5.9252 C   0  0  0  0  0  0  0  0  0  0  0  0
   28.2797   66.7339   -4.9905 H   0  0  0  0  0  0  0  0  0  0  0  0
   21.1232   73.1263   -6.9887 O   0  0  0  0  0  0  0  0  0  0  0  0
   20.0382   74.0687   -7.7291 P   0  0  2  0  0  0  0  0  0  0  0  0
   20.8719   74.6872   -8.9712 O   0  0  0  0  0  0  0  0  0  0  0  0
   19.4044   75.0964   -6.8369 O   0  0  0  0  0  0  0  0  0  0  0  0
   18.9983   73.0396   -8.4089 O   0  0  0  0  0  0  0  0  0  0  0  0
   18.1946   71.0478   -7.4111 O   0  0  0  0  0  0  0  0  0  0  0  0
   17.7778   70.2006  -11.4331 O   0  0  0  0  0  0  0  0  0  0  0  0
   20.1721   71.5515  -10.4446 O   0  0  0  0  0  0  0  0  0  0  0  0
   15.4449   70.8721   -9.8340 O   0  0  0  0  0  0  0  0  0  0  0  0
   17.8085   71.0317  -10.2727 C   0  0  2  0  0  0  0  0  0  0  0  0
   19.1868   70.9441   -9.6169 C   0  0  2  0  0  0  0  0  0  0  0  0
   16.7279   70.5375   -9.3084 C   0  0  1  0  0  0  0  0  0  0  0  0
   19.1883   71.6346   -8.2523 C   0  0  1  0  0  0  0  0  0  0  0  0
   16.8738   71.1796   -7.9318 C   0  0  1  0  0  0  0  0  0  0  0  0
   18.4564   70.4959  -12.0605 H   0  0  0  0  0  0  0  0  0  0  0  0
   20.1765   71.1185  -11.3122 H   0  0  0  0  0  0  0  0  0  0  0  0
   15.3393   70.4696  -10.7101 H   0  0  0  0  0  0  0  0  0  0  0  0
   15.4512   69.3721   -7.4726 O   0  0  0  0  0  0  0  0  0  0  0  0
   15.9068   70.7998   -5.7542 O   0  0  0  0  0  0  0  0  0  0  0  0
   16.0411   70.4611   -6.9205 C   0  0  0  0  0  0  0  0  0  0  0  0
  1  4  1  0
  1 24  1  0
  1  2  1  6
  1  3  2  0
 25 28  1  0
 25 24  1  0
 25 26  1  6
 25 27  2  0
  6 11  1  0
  6 12  1  0
 29 36  1  0
 29 37  1  0
  9  7  1  1
  7 13  1  0
 10  8  1  1
  8 14  1  0
  4  5  1  0
 36 28  1  6
 33 30  1  6
 30 38  1  0
 34 31  1  6
 31 39  1  0
 35 32  1  6
 32 40  1  0
 41 43  1  0
 15 19  2  0
 42 43  2  0
 16 22  2  0
 12 17  1  6
 17 19  1  0
 17 20  1  0
 18 19  1  0
 18 22  1  0
 18 23  1  0
  9 10  1  0
  9 11  1  0
 10 12  1  0
 11  5  1  6
 33 34  1  0
 33 35  1  0
 34 36  1  0
 35 37  1  0
 37 43  1  1
 20 21  2  0
 21 22  1  0
M  CHG  3   2  -1  26  -1  41  -1
M  END
>  <COMPND>  (36) 
    udp_gluA.pdb 

>  <AUTHOR>  (36) 
    GENERATED BY OPEN BABEL 3.1.1

>  <MASTER>  (36) 
        0    0    0    0    0    0    0    0   56    0   56    0

>  <minimizedAffinity>  (36) 
-7.39631

>  <CNNscore>  (36) 
0.3663284183

>  <CNNaffinity>  (36) 
4.2191939354

>  <CNN_VS>  (36) 
1.5456106663

>  <CNNaffinity_variance>  (36) 
0.1361983269

$$$$
37
     RDKit          3D

 43 45  0  0  0  0  0  0  0  0999 V2000
   17.2157   71.4013   -3.0926 P   0  0  2  0  0  0  0  0  0  0  0  0
   18.7613   71.2110   -3.5328 O   0  0  0  0  0  0  0  0  0  0  0  0
   16.7408   72.8240   -3.0461 O   0  0  0  0  0  0  0  0  0  0  0  0
   17.1028   70.5772   -1.7048 O   0  0  0  0  0  0  0  0  0  0  0  0
   15.8743   69.9474   -1.3905 C   0  0  0  0  0  0  0  0  0  0  0  0
   14.0416   69.9404    0.1648 O   0  0  0  0  0  0  0  0  0  0  0  0
   15.7700   71.6473    1.9228 O   0  0  0  0  0  0  0  0  0  0  0  0
   16.0265   69.1783    3.0516 O   0  0  0  0  0  0  0  0  0  0  0  0
   16.1414   70.5708    1.0616 C   0  0  1  0  0  0  0  0  0  0  0  0
   15.7331   69.2467    1.6718 C   0  0  2  0  0  0  0  0  0  0  0  0
   15.2600   70.6355   -0.1782 C   0  0  1  0  0  0  0  0  0  0  0  0
   14.2408   69.2159    1.3890 C   0  0  2  0  0  0  0  0  0  0  0  0
   16.3197   71.6267    2.7222 H   0  0  0  0  0  0  0  0  0  0  0  0
   16.9884   69.2010    3.1791 H   0  0  0  0  0  0  0  0  0  0  0  0
   13.6093   67.4802    3.5256 O   0  0  0  0  0  0  0  0  0  0  0  0
   12.3311   64.1113    0.6515 O   0  0  0  0  0  0  0  0  0  0  0  0
   13.7412   67.8798    1.2275 N   0  0  0  0  0  0  0  0  0  0  0  0
   12.9742   65.8036    2.0921 N   0  0  0  0  0  0  0  0  0  0  0  0
   13.4554   67.0905    2.3666 C   0  0  0  0  0  0  0  0  0  0  0  0
   13.5375   67.3648   -0.0470 C   0  0  0  0  0  0  0  0  0  0  0  0
   13.0781   66.1363   -0.2928 C   0  0  0  0  0  0  0  0  0  0  0  0
   12.7559   65.2468    0.8423 C   0  0  0  0  0  0  0  0  0  0  0  0
   12.7701   65.2347    2.8693 H   0  0  0  0  0  0  0  0  0  0  0  0
   16.4217   70.4602   -4.1397 O   0  0  0  0  0  0  0  0  0  0  0  0
   15.8832   70.7555   -5.6352 P   0  0  2  0  0  0  0  0  0  0  0  0
   14.8205   71.9566   -5.4152 O   0  0  0  0  0  0  0  0  0  0  0  0
   15.3207   69.5527   -6.3359 O   0  0  0  0  0  0  0  0  0  0  0  0
   17.1297   71.4478   -6.3898 O   0  0  0  0  0  0  0  0  0  0  0  0
   17.5038   70.3050   -8.4302 O   0  0  0  0  0  0  0  0  0  0  0  0
   20.5062   73.1422   -8.4929 O   0  0  0  0  0  0  0  0  0  0  0  0
   19.8750   71.7083   -6.0271 O   0  0  0  0  0  0  0  0  0  0  0  0
   18.1472   73.4769  -10.1585 O   0  0  0  0  0  0  0  0  0  0  0  0
   19.2169   72.6159   -8.1787 C   0  0  2  0  0  0  0  0  0  0  0  0
   19.3717   71.3652   -7.3131 C   0  0  2  0  0  0  0  0  0  0  0  0
   18.5142   72.2697   -9.4934 C   0  0  1  0  0  0  0  0  0  0  0  0
   18.0327   70.6450   -7.1480 C   0  0  1  0  0  0  0  0  0  0  0  0
   17.2541   71.4440   -9.2508 C   0  0  1  0  0  0  0  0  0  0  0  0
   20.9716   73.3694   -7.6725 H   0  0  0  0  0  0  0  0  0  0  0  0
   20.7244   72.1660   -6.1244 H   0  0  0  0  0  0  0  0  0  0  0  0
   18.9404   74.0118  -10.3187 H   0  0  0  0  0  0  0  0  0  0  0  0
   17.6680   69.9540  -11.0144 O   0  0  0  0  0  0  0  0  0  0  0  0
   15.6950   71.0960  -11.0590 O   0  0  0  0  0  0  0  0  0  0  0  0
   16.7635   70.8381  -10.5254 C   0  0  0  0  0  0  0  0  0  0  0  0
  1  4  1  0
  1 24  1  0
  1  2  1  6
  1  3  2  0
 25 28  1  0
 25 24  1  0
 25 26  1  1
 25 27  2  0
  6 11  1  0
  6 12  1  0
 29 36  1  0
 29 37  1  0
  9  7  1  1
  7 13  1  0
 10  8  1  1
  8 14  1  0
  4  5  1  0
 36 28  1  6
 33 30  1  6
 30 38  1  0
 34 31  1  1
 31 39  1  0
 35 32  1  1
 32 40  1  0
 41 43  1  0
 15 19  2  0
 42 43  2  0
 16 22  2  0
 12 17  1  6
 17 19  1  0
 17 20  1  0
 18 19  1  0
 18 22  1  0
 18 23  1  0
  9 10  1  0
  9 11  1  0
 10 12  1  0
 11  5  1  6
 33 34  1  0
 33 35  1  0
 34 36  1  0
 35 37  1  0
 37 43  1  6
 20 21  2  0
 21 22  1  0
M  CHG  3   2  -1  26  -1  41  -1
M  END
>  <COMPND>  (37) 
    udp_gluA.pdb 

>  <AUTHOR>  (37) 
    GENERATED BY OPEN BABEL 3.1.1

>  <MASTER>  (37) 
        0    0    0    0    0    0    0    0   56    0   56    0

>  <minimizedAffinity>  (37) 
-6.62716

>  <CNNscore>  (37) 
0.3613118529

>  <CNNaffinity>  (37) 
4.0623216629

>  <CNN_VS>  (37) 
1.4677649736

>  <CNNaffinity_variance>  (37) 
0.1405967027

$$$$
38
     RDKit          3D

 43 45  0  0  0  0  0  0  0  0999 V2000
   24.2644   72.7033   -4.7046 P   0  0  2  0  0  0  0  0  0  0  0  0
   24.9942   73.4284   -5.9538 O   0  0  0  0  0  0  0  0  0  0  0  0
   23.9996   73.5904   -3.5236 O   0  0  0  0  0  0  0  0  0  0  0  0
   25.1867   71.4056   -4.4158 O   0  0  0  0  0  0  0  0  0  0  0  0
   26.5929   71.5411   -4.5091 C   0  0  0  0  0  0  0  0  0  0  0  0
   27.5115   69.6684   -3.3146 O   0  0  0  0  0  0  0  0  0  0  0  0
   28.7777   71.6879   -1.4953 O   0  0  0  0  0  0  0  0  0  0  0  0
   30.8464   70.9703   -3.1206 O   0  0  0  0  0  0  0  0  0  0  0  0
   28.5552   71.7548   -2.9040 C   0  0  1  0  0  0  0  0  0  0  0  0
   29.5348   70.8594   -3.6326 C   0  0  2  0  0  0  0  0  0  0  0  0
   27.2237   71.0790   -3.2018 C   0  0  1  0  0  0  0  0  0  0  0  0
   28.9330   69.4831   -3.4058 C   0  0  2  0  0  0  0  0  0  0  0  0
   29.6230   72.1135   -1.2806 H   0  0  0  0  0  0  0  0  0  0  0  0
   31.1851   71.8640   -3.2900 H   0  0  0  0  0  0  0  0  0  0  0  0
   31.1745   67.7673   -3.4949 O   0  0  0  0  0  0  0  0  0  0  0  0
   29.9243   66.0471   -7.5841 O   0  0  0  0  0  0  0  0  0  0  0  0
   29.2176   68.5765   -4.4819 N   0  0  0  0  0  0  0  0  0  0  0  0
   30.5503   66.9129   -5.5319 N   0  0  0  0  0  0  0  0  0  0  0  0
   30.3706   67.7580   -4.4290 C   0  0  0  0  0  0  0  0  0  0  0  0
   28.3595   68.5033   -5.5724 C   0  0  0  0  0  0  0  0  0  0  0  0
   28.5440   67.6926   -6.6162 C   0  0  0  0  0  0  0  0  0  0  0  0
   29.7251   66.8051   -6.6397 C   0  0  0  0  0  0  0  0  0  0  0  0
   31.3472   66.3350   -5.5187 H   0  0  0  0  0  0  0  0  0  0  0  0
   22.9406   72.0656   -5.3781 O   0  0  0  0  0  0  0  0  0  0  0  0
   21.7637   71.1534   -4.7484 P   0  0  2  0  0  0  0  0  0  0  0  0
   21.0872   72.1298   -3.6487 O   0  0  0  0  0  0  0  0  0  0  0  0
   22.2316   69.8360   -4.2012 O   0  0  0  0  0  0  0  0  0  0  0  0
   20.6630   71.0379   -5.9222 O   0  0  0  0  0  0  0  0  0  0  0  0
   19.6164   73.0959   -6.4496 O   0  0  0  0  0  0  0  0  0  0  0  0
   17.3538   70.4178   -8.6350 O   0  0  0  0  0  0  0  0  0  0  0  0
   18.1846   69.7757   -5.9089 O   0  0  0  0  0  0  0  0  0  0  0  0
   19.3081   72.1064   -9.9692 O   0  0  0  0  0  0  0  0  0  0  0  0
   18.5367   70.9241   -8.0168 C   0  0  2  0  0  0  0  0  0  0  0  0
   18.3095   71.0589   -6.5109 C   0  0  2  0  0  0  0  0  0  0  0  0
   18.8446   72.2907   -8.6330 C   0  0  1  0  0  0  0  0  0  0  0  0
   19.4655   71.8094   -5.8482 C   0  0  1  0  0  0  0  0  0  0  0  0
   19.9197   73.0294   -7.8412 C   0  0  1  0  0  0  0  0  0  0  0  0
   17.1385   69.5497   -8.2591 H   0  0  0  0  0  0  0  0  0  0  0  0
   17.4530   69.2937   -6.3248 H   0  0  0  0  0  0  0  0  0  0  0  0
   18.6330   71.6371  -10.4839 H   0  0  0  0  0  0  0  0  0  0  0  0
   20.9476   74.6675   -9.1683 O   0  0  0  0  0  0  0  0  0  0  0  0
   19.2557   75.3486   -7.7998 O   0  0  0  0  0  0  0  0  0  0  0  0
   19.9787   74.4678   -8.2409 C   0  0  0  0  0  0  0  0  0  0  0  0
  1  4  1  0
  1 24  1  0
  1  2  1  6
  1  3  2  0
 25 28  1  0
 25 24  1  0
 25 26  1  1
 25 27  2  0
  6 11  1  0
  6 12  1  0
 29 36  1  0
 29 37  1  0
  9  7  1  1
  7 13  1  0
 10  8  1  1
  8 14  1  0
  4  5  1  0
 36 28  1  6
 33 30  1  6
 30 38  1  0
 34 31  1  1
 31 39  1  0
 35 32  1  6
 32 40  1  0
 41 43  1  0
 15 19  2  0
 42 43  2  0
 16 22  2  0
 12 17  1  6
 17 19  1  0
 17 20  1  0
 18 19  1  0
 18 22  1  0
 18 23  1  0
  9 10  1  0
  9 11  1  0
 10 12  1  0
 11  5  1  6
 33 34  1  0
 33 35  1  0
 34 36  1  0
 35 37  1  0
 37 43  1  6
 20 21  2  0
 21 22  1  0
M  CHG  3   2  -1  26  -1  41  -1
M  END
>  <COMPND>  (38) 
    udp_gluA.pdb 

>  <AUTHOR>  (38) 
    GENERATED BY OPEN BABEL 3.1.1

>  <MASTER>  (38) 
        0    0    0    0    0    0    0    0   56    0   56    0

>  <minimizedAffinity>  (38) 
-7.35334

>  <CNNscore>  (38) 
0.3512614965

>  <CNNaffinity>  (38) 
4.3485364914

>  <CNN_VS>  (38) 
1.5274734497

>  <CNNaffinity_variance>  (38) 
0.0461325832

$$$$
39
     RDKit          3D

 43 45  0  0  0  0  0  0  0  0999 V2000
   31.8057   70.4478    0.8771 P   0  0  2  0  0  0  0  0  0  0  0  0
   32.6073   69.2035    1.5313 O   0  0  0  0  0  0  0  0  0  0  0  0
   32.4569   71.7873    1.0599 O   0  0  0  0  0  0  0  0  0  0  0  0
   30.3102   70.3057    1.4781 O   0  0  0  0  0  0  0  0  0  0  0  0
   29.4416   71.4211    1.4007 C   0  0  0  0  0  0  0  0  0  0  0  0
   28.7782   70.6164    3.5664 O   0  0  0  0  0  0  0  0  0  0  0  0
   26.2512   72.1808    3.1678 O   0  0  0  0  0  0  0  0  0  0  0  0
   27.7008   73.7999    4.8149 O   0  0  0  0  0  0  0  0  0  0  0  0
   27.5836   72.4982    2.7646 C   0  0  1  0  0  0  0  0  0  0  0  0
   28.4066   72.9226    3.9624 C   0  0  2  0  0  0  0  0  0  0  0  0
   28.2696   71.2039    2.3492 C   0  0  1  0  0  0  0  0  0  0  0  0
   28.7154   71.5892    4.6215 C   0  0  2  0  0  0  0  0  0  0  0  0
   25.7928   72.9923    3.4378 H   0  0  0  0  0  0  0  0  0  0  0  0
   27.5287   74.6341    4.3496 H   0  0  0  0  0  0  0  0  0  0  0  0
   29.0617   72.5417    7.2576 O   0  0  0  0  0  0  0  0  0  0  0  0
   33.5704   71.5858    7.2054 O   0  0  0  0  0  0  0  0  0  0  0  0
   29.9689   71.6009    5.3210 N   0  0  0  0  0  0  0  0  0  0  0  0
   31.3072   72.0657    7.2287 N   0  0  0  0  0  0  0  0  0  0  0  0
   30.0349   72.1011    6.6430 C   0  0  0  0  0  0  0  0  0  0  0  0
   31.1146   71.1194    4.6993 C   0  0  0  0  0  0  0  0  0  0  0  0
   32.3203   71.0920    5.2705 C   0  0  0  0  0  0  0  0  0  0  0  0
   32.4758   71.5971    6.6504 C   0  0  0  0  0  0  0  0  0  0  0  0
   31.3785   72.4105    8.1481 H   0  0  0  0  0  0  0  0  0  0  0  0
   31.6232   69.9924   -0.6631 O   0  0  0  0  0  0  0  0  0  0  0  0
   31.4093   70.8623   -2.0089 P   0  0  2  0  0  0  0  0  0  0  0  0
   32.8655   71.5246   -2.2565 O   0  0  0  0  0  0  0  0  0  0  0  0
   30.2846   71.8535   -1.9292 O   0  0  0  0  0  0  0  0  0  0  0  0
   31.2549   69.7674   -3.1836 O   0  0  0  0  0  0  0  0  0  0  0  0
   28.9680   69.1651   -3.0559 O   0  0  0  0  0  0  0  0  0  0  0  0
   30.1655   67.1968   -6.4851 O   0  0  0  0  0  0  0  0  0  0  0  0
   31.8775   67.2228   -4.1181 O   0  0  0  0  0  0  0  0  0  0  0  0
   28.5819   69.6272   -6.6753 O   0  0  0  0  0  0  0  0  0  0  0  0
   30.1730   68.2414   -5.5121 C   0  0  2  0  0  0  0  0  0  0  0  0
   30.5242   67.6617   -4.1417 C   0  0  2  0  0  0  0  0  0  0  0  0
   28.7781   68.8701   -5.4825 C   0  0  1  0  0  0  0  0  0  0  0  0
   30.3185   68.7012   -3.0389 C   0  0  1  0  0  0  0  0  0  0  0  0
   28.6106   69.7980   -4.2827 C   0  0  1  0  0  0  0  0  0  0  0  0
   31.0419   66.7823   -6.5216 H   0  0  0  0  0  0  0  0  0  0  0  0
   32.0153   66.5632   -4.8155 H   0  0  0  0  0  0  0  0  0  0  0  0
   28.6860   69.0483   -7.4465 H   0  0  0  0  0  0  0  0  0  0  0  0
   26.8390   71.2522   -4.7810 O   0  0  0  0  0  0  0  0  0  0  0  0
   26.3944   69.5159   -3.3715 O   0  0  0  0  0  0  0  0  0  0  0  0
   27.1717   70.1428   -4.0756 C   0  0  0  0  0  0  0  0  0  0  0  0
  1  4  1  0
  1 24  1  0
  1  2  1  1
  1  3  2  0
 25 28  1  0
 25 24  1  0
 25 26  1  6
 25 27  2  0
  6 11  1  0
  6 12  1  0
 29 36  1  0
 29 37  1  0
  9  7  1  1
  7 13  1  0
 10  8  1  1
  8 14  1  0
  4  5  1  0
 36 28  1  6
 33 30  1  6
 30 38  1  0
 34 31  1  6
 31 39  1  0
 35 32  1  6
 32 40  1  0
 41 43  1  0
 15 19  2  0
 42 43  2  0
 16 22  2  0
 12 17  1  6
 17 19  1  0
 17 20  1  0
 18 19  1  0
 18 22  1  0
 18 23  1  0
  9 10  1  0
  9 11  1  0
 10 12  1  0
 11  5  1  6
 33 34  1  0
 33 35  1  0
 34 36  1  0
 35 37  1  0
 37 43  1  1
 20 21  2  0
 21 22  1  0
M  CHG  3   2  -1  26  -1  41  -1
M  END
>  <COMPND>  (39) 
    udp_gluA.pdb 

>  <AUTHOR>  (39) 
    GENERATED BY OPEN BABEL 3.1.1

>  <MASTER>  (39) 
        0    0    0    0    0    0    0    0   56    0   56    0

>  <minimizedAffinity>  (39) 
-7.25447

>  <CNNscore>  (39) 
0.3469220400

>  <CNNaffinity>  (39) 
3.8643321991

>  <CNN_VS>  (39) 
1.3406220675

>  <CNNaffinity_variance>  (39) 
0.1160675436

$$$$
40
     RDKit          3D

 43 45  0  0  0  0  0  0  0  0999 V2000
   29.7887   71.0894   -0.5288 P   0  0  2  0  0  0  0  0  0  0  0  0
   28.4321   71.6021   -1.2469 O   0  0  0  0  0  0  0  0  0  0  0  0
   30.9413   72.0481   -0.5941 O   0  0  0  0  0  0  0  0  0  0  0  0
   30.0484   69.6329   -1.1838 O   0  0  0  0  0  0  0  0  0  0  0  0
   30.8853   69.5429   -2.3222 C   0  0  0  0  0  0  0  0  0  0  0  0
   29.1237   68.0592   -3.0098 O   0  0  0  0  0  0  0  0  0  0  0  0
   31.0536   67.0151   -5.0535 O   0  0  0  0  0  0  0  0  0  0  0  0
   29.4781   68.6881   -6.5216 O   0  0  0  0  0  0  0  0  0  0  0  0
   30.8846   68.3470   -4.5677 C   0  0  1  0  0  0  0  0  0  0  0  0
   29.6251   68.9591   -5.1434 C   0  0  2  0  0  0  0  0  0  0  0  0
   30.5507   68.2672   -3.0843 C   0  0  1  0  0  0  0  0  0  0  0  0
   28.5432   68.3059   -4.3003 C   0  0  2  0  0  0  0  0  0  0  0  0
   31.2677   67.0405   -5.9997 H   0  0  0  0  0  0  0  0  0  0  0  0
   30.1902   69.1258   -7.0149 H   0  0  0  0  0  0  0  0  0  0  0  0
   26.0349   67.4112   -3.3599 O   0  0  0  0  0  0  0  0  0  0  0  0
   24.1909   71.6193   -3.7289 O   0  0  0  0  0  0  0  0  0  0  0  0
   27.3905   69.1464   -4.1409 N   0  0  0  0  0  0  0  0  0  0  0  0
   25.1186   69.5077   -3.5456 N   0  0  0  0  0  0  0  0  0  0  0  0
   26.1777   68.5977   -3.6611 C   0  0  0  0  0  0  0  0  0  0  0  0
   27.4683   70.4975   -4.4564 C   0  0  0  0  0  0  0  0  0  0  0  0
   26.4502   71.3525   -4.3410 C   0  0  0  0  0  0  0  0  0  0  0  0
   25.1475   70.8596   -3.8475 C   0  0  0  0  0  0  0  0  0  0  0  0
   24.2634   69.1486   -3.2155 H   0  0  0  0  0  0  0  0  0  0  0  0
   29.2941   70.7319    0.9680 O   0  0  0  0  0  0  0  0  0  0  0  0
   28.7786   71.6813    2.1707 P   0  0  2  0  0  0  0  0  0  0  0  0
   29.0549   73.1738    1.6081 O   0  0  0  0  0  0  0  0  0  0  0  0
   29.4160   71.3933    3.4991 O   0  0  0  0  0  0  0  0  0  0  0  0
   27.1726   71.5299    2.1519 O   0  0  0  0  0  0  0  0  0  0  0  0
   25.2396   72.6622    1.3833 O   0  0  0  0  0  0  0  0  0  0  0  0
   24.2865   71.9637    5.3421 O   0  0  0  0  0  0  0  0  0  0  0  0
   26.9724   72.8390    4.5978 O   0  0  0  0  0  0  0  0  0  0  0  0
   23.0755   70.3565    3.2441 O   0  0  0  0  0  0  0  0  0  0  0  0
   24.8983   71.6913    4.0813 C   0  0  2  0  0  0  0  0  0  0  0  0
   25.8531   72.8291    3.7193 C   0  0  2  0  0  0  0  0  0  0  0  0
   23.7894   71.5732    3.0333 C   0  0  1  0  0  0  0  0  0  0  0  0
   26.3508   72.6888    2.2801 C   0  0  1  0  0  0  0  0  0  0  0  0
   24.3593   71.5653    1.6178 C   0  0  1  0  0  0  0  0  0  0  0  0
   24.9720   72.0430    6.0240 H   0  0  0  0  0  0  0  0  0  0  0  0
   26.6640   72.9275    5.5129 H   0  0  0  0  0  0  0  0  0  0  0  0
   22.7077   70.3488    4.1416 H   0  0  0  0  0  0  0  0  0  0  0  0
   23.7840   72.3236   -0.5260 O   0  0  0  0  0  0  0  0  0  0  0  0
   22.0990   71.5079    0.7757 O   0  0  0  0  0  0  0  0  0  0  0  0
   23.2782   71.7814    0.6094 C   0  0  0  0  0  0  0  0  0  0  0  0
  1  4  1  0
  1 24  1  0
  1  2  1  6
  1  3  2  0
 25 28  1  0
 25 24  1  0
 25 26  1  6
 25 27  2  0
  6 11  1  0
  6 12  1  0
 29 36  1  0
 29 37  1  0
  9  7  1  6
  7 13  1  0
 10  8  1  6
  8 14  1  0
  4  5  1  0
 36 28  1  1
 33 30  1  1
 30 38  1  0
 34 31  1  1
 31 39  1  0
 35 32  1  1
 32 40  1  0
 41 43  1  0
 15 19  2  0
 42 43  2  0
 16 22  2  0
 12 17  1  1
 17 19  1  0
 17 20  1  0
 18 19  1  0
 18 22  1  0
 18 23  1  0
  9 10  1  0
  9 11  1  0
 10 12  1  0
 11  5  1  1
 33 34  1  0
 33 35  1  0
 34 36  1  0
 35 37  1  0
 37 43  1  6
 20 21  2  0
 21 22  1  0
M  CHG  3   2  -1  26  -1  41  -1
M  END
>  <COMPND>  (40) 
    udp_gluA.pdb 

>  <AUTHOR>  (40) 
    GENERATED BY OPEN BABEL 3.1.1

>  <MASTER>  (40) 
        0    0    0    0    0    0    0    0   56    0   56    0

>  <minimizedAffinity>  (40) 
-6.78748

>  <CNNscore>  (40) 
0.3056933284

>  <CNNaffinity>  (40) 
3.9554939270

>  <CNN_VS>  (40) 
1.2091680765

>  <CNNaffinity_variance>  (40) 
0.3756255507

$$$$
41
     RDKit          3D

 43 45  0  0  0  0  0  0  0  0999 V2000
   27.4881   73.6669   -3.0243 P   0  0  2  0  0  0  0  0  0  0  0  0
   26.6657   72.5549   -3.8647 O   0  0  0  0  0  0  0  0  0  0  0  0
   27.6411   74.9933   -3.7091 O   0  0  0  0  0  0  0  0  0  0  0  0
   28.8663   72.9159   -2.6312 O   0  0  0  0  0  0  0  0  0  0  0  0
   29.2750   71.8037   -3.4061 C   0  0  0  0  0  0  0  0  0  0  0  0
   28.7886   69.5362   -2.7738 O   0  0  0  0  0  0  0  0  0  0  0  0
   31.4844   69.5205   -1.4609 O   0  0  0  0  0  0  0  0  0  0  0  0
   31.9518   68.1943   -3.7973 O   0  0  0  0  0  0  0  0  0  0  0  0
   31.0713   70.1598   -2.6688 C   0  0  1  0  0  0  0  0  0  0  0  0
   30.9001   69.1365   -3.7714 C   0  0  2  0  0  0  0  0  0  0  0  0
   29.6461   70.6584   -2.4728 C   0  0  1  0  0  0  0  0  0  0  0  0
   29.5625   68.5103   -3.4157 C   0  0  2  0  0  0  0  0  0  0  0  0
   32.3925   69.1935   -1.5619 H   0  0  0  0  0  0  0  0  0  0  0  0
   32.7813   68.6419   -4.0286 H   0  0  0  0  0  0  0  0  0  0  0  0
   26.9718   67.3877   -3.3486 O   0  0  0  0  0  0  0  0  0  0  0  0
   26.9307   66.7525   -7.9135 O   0  0  0  0  0  0  0  0  0  0  0  0
   28.8513   68.0433   -4.5719 N   0  0  0  0  0  0  0  0  0  0  0  0
   26.9542   67.0715   -5.6221 N   0  0  0  0  0  0  0  0  0  0  0  0
   27.5543   67.4958   -4.4293 C   0  0  0  0  0  0  0  0  0  0  0  0
   29.4370   68.1313   -5.8289 C   0  0  0  0  0  0  0  0  0  0  0  0
   28.8526   67.7226   -6.9568 C   0  0  0  0  0  0  0  0  0  0  0  0
   27.4970   67.1377   -6.8951 C   0  0  0  0  0  0  0  0  0  0  0  0
   26.0518   66.6849   -5.5479 H   0  0  0  0  0  0  0  0  0  0  0  0
   26.6910   73.7225   -1.6192 O   0  0  0  0  0  0  0  0  0  0  0  0
   27.0204   74.5030   -0.2422 P   0  0  2  0  0  0  0  0  0  0  0  0
   25.8913   75.6619   -0.1948 O   0  0  0  0  0  0  0  0  0  0  0  0
   28.4304   75.0090   -0.1433 O   0  0  0  0  0  0  0  0  0  0  0  0
   26.5955   73.4726    0.9240 O   0  0  0  0  0  0  0  0  0  0  0  0
   27.7135   71.4030    0.6481 O   0  0  0  0  0  0  0  0  0  0  0  0
   25.2570   70.6080    3.8732 O   0  0  0  0  0  0  0  0  0  0  0  0
   24.2544   72.1248    1.5866 O   0  0  0  0  0  0  0  0  0  0  0  0
   28.0998   71.0586    4.2805 O   0  0  0  0  0  0  0  0  0  0  0  0
   26.0743   71.4149    3.0254 C   0  0  2  0  0  0  0  0  0  0  0  0
   25.4925   71.4240    1.6115 C   0  0  2  0  0  0  0  0  0  0  0  0
   27.4828   70.8165    3.0175 C   0  0  1  0  0  0  0  0  0  0  0  0
   26.4585   72.0842    0.6267 C   0  0  1  0  0  0  0  0  0  0  0  0
   28.3468   71.4398    1.9250 C   0  0  1  0  0  0  0  0  0  0  0  0
   24.3567   70.9692    3.8937 H   0  0  0  0  0  0  0  0  0  0  0  0
   23.6368   71.7114    2.2094 H   0  0  0  0  0  0  0  0  0  0  0  0
   27.5597   70.6670    4.9846 H   0  0  0  0  0  0  0  0  0  0  0  0
   30.4996   70.8922    2.6779 O   0  0  0  0  0  0  0  0  0  0  0  0
   29.7640   69.8538    0.7859 O   0  0  0  0  0  0  0  0  0  0  0  0
   29.5877   70.6368    1.7073 C   0  0  0  0  0  0  0  0  0  0  0  0
  1  4  1  0
  1 24  1  0
  1  2  1  6
  1  3  2  0
 25 28  1  0
 25 24  1  0
 25 26  1  1
 25 27  2  0
  6 11  1  0
  6 12  1  0
 29 36  1  0
 29 37  1  0
  9  7  1  1
  7 13  1  0
 10  8  1  1
  8 14  1  0
  4  5  1  0
 36 28  1  1
 33 30  1  1
 30 38  1  0
 34 31  1  1
 31 39  1  0
 35 32  1  1
 32 40  1  0
 41 43  1  0
 15 19  2  0
 42 43  2  0
 16 22  2  0
 12 17  1  6
 17 19  1  0
 17 20  1  0
 18 19  1  0
 18 22  1  0
 18 23  1  0
  9 10  1  0
  9 11  1  0
 10 12  1  0
 11  5  1  6
 33 34  1  0
 33 35  1  0
 34 36  1  0
 35 37  1  0
 37 43  1  6
 20 21  2  0
 21 22  1  0
M  CHG  3   2  -1  26  -1  41  -1
M  END
>  <COMPND>  (41) 
    udp_gluA.pdb 

>  <AUTHOR>  (41) 
    GENERATED BY OPEN BABEL 3.1.1

>  <MASTER>  (41) 
        0    0    0    0    0    0    0    0   56    0   56    0

>  <minimizedAffinity>  (41) 
-7.11575

>  <CNNscore>  (41) 
0.6258563399

>  <CNNaffinity>  (41) 
4.4854249954

>  <CNN_VS>  (41) 
2.8072316647

>  <CNNaffinity_variance>  (41) 
0.0635707751

$$$$
42
     RDKit          3D

 43 45  0  0  0  0  0  0  0  0999 V2000
   24.4143   73.3871   -4.8962 P   0  0  2  0  0  0  0  0  0  0  0  0
   25.3271   73.9256   -6.1192 O   0  0  0  0  0  0  0  0  0  0  0  0
   24.3767   74.2816   -3.6920 O   0  0  0  0  0  0  0  0  0  0  0  0
   24.9568   71.8846   -4.6387 O   0  0  0  0  0  0  0  0  0  0  0  0
   26.3521   71.6510   -4.6932 C   0  0  0  0  0  0  0  0  0  0  0  0
   27.1252   69.7458   -3.4482 O   0  0  0  0  0  0  0  0  0  0  0  0
   28.1680   71.7144   -1.4411 O   0  0  0  0  0  0  0  0  0  0  0  0
   30.4136   71.0339   -2.8305 O   0  0  0  0  0  0  0  0  0  0  0  0
   28.1123   71.8183   -2.8640 C   0  0  1  0  0  0  0  0  0  0  0  0
   29.1712   70.9395   -3.4955 C   0  0  2  0  0  0  0  0  0  0  0  0
   26.8254   71.1537   -3.3334 C   0  0  1  0  0  0  0  0  0  0  0  0
   28.5477   69.5593   -3.3767 C   0  0  2  0  0  0  0  0  0  0  0  0
   28.9820   72.1322   -1.1177 H   0  0  0  0  0  0  0  0  0  0  0  0
   30.7693   71.9307   -2.9357 H   0  0  0  0  0  0  0  0  0  0  0  0
   30.8142   67.8779   -3.2662 O   0  0  0  0  0  0  0  0  0  0  0  0
   30.0229   66.2279   -7.4965 O   0  0  0  0  0  0  0  0  0  0  0  0
   28.9571   68.6801   -4.4351 N   0  0  0  0  0  0  0  0  0  0  0  0
   30.4185   67.0585   -5.3736 N   0  0  0  0  0  0  0  0  0  0  0  0
   30.1117   67.8772   -4.2788 C   0  0  0  0  0  0  0  0  0  0  0  0
   28.2180   68.6179   -5.6101 C   0  0  0  0  0  0  0  0  0  0  0  0
   28.5229   67.8325   -6.6450 C   0  0  0  0  0  0  0  0  0  0  0  0
   29.7145   66.9627   -6.5631 C   0  0  0  0  0  0  0  0  0  0  0  0
   31.2192   66.4918   -5.2891 H   0  0  0  0  0  0  0  0  0  0  0  0
   22.9785   73.1399   -5.5965 O   0  0  0  0  0  0  0  0  0  0  0  0
   21.5224   72.8471   -4.9579 P   0  0  2  0  0  0  0  0  0  0  0  0
   21.2254   74.1795   -4.0879 O   0  0  0  0  0  0  0  0  0  0  0  0
   21.4384   71.5674   -4.1774 O   0  0  0  0  0  0  0  0  0  0  0  0
   20.5028   72.9391   -6.2046 O   0  0  0  0  0  0  0  0  0  0  0  0
   18.5700   71.7814   -6.9348 O   0  0  0  0  0  0  0  0  0  0  0  0
   20.6823   72.1987  -10.4607 O   0  0  0  0  0  0  0  0  0  0  0  0
   22.0581   71.4761   -7.9869 O   0  0  0  0  0  0  0  0  0  0  0  0
   18.3716   73.8827   -9.9361 O   0  0  0  0  0  0  0  0  0  0  0  0
   20.2365   72.5714   -9.1568 C   0  0  2  0  0  0  0  0  0  0  0  0
   20.6446   71.4959   -8.1496 C   0  0  2  0  0  0  0  0  0  0  0  0
   18.7131   72.7100   -9.1995 C   0  0  1  0  0  0  0  0  0  0  0  0
   19.9902   71.7434   -6.7897 C   0  0  1  0  0  0  0  0  0  0  0  0
   18.1248   72.8267   -7.7963 C   0  0  1  0  0  0  0  0  0  0  0  0
   21.6480   72.1046  -10.4579 H   0  0  0  0  0  0  0  0  0  0  0  0
   22.4798   71.3198   -8.8460 H   0  0  0  0  0  0  0  0  0  0  0  0
   18.7402   73.8212  -10.8311 H   0  0  0  0  0  0  0  0  0  0  0  0
   16.0867   73.0260   -6.6527 O   0  0  0  0  0  0  0  0  0  0  0  0
   16.0136   72.1794   -8.7686 O   0  0  0  0  0  0  0  0  0  0  0  0
   16.6439   72.6307   -7.8241 C   0  0  0  0  0  0  0  0  0  0  0  0
  1  4  1  0
  1 24  1  0
  1  2  1  6
  1  3  2  0
 25 28  1  0
 25 24  1  0
 25 26  1  1
 25 27  2  0
  6 11  1  0
  6 12  1  0
 29 36  1  0
 29 37  1  0
  9  7  1  1
  7 13  1  0
 10  8  1  1
  8 14  1  0
  4  5  1  0
 36 28  1  6
 33 30  1  6
 30 38  1  0
 34 31  1  1
 31 39  1  0
 35 32  1  6
 32 40  1  0
 41 43  1  0
 15 19  2  0
 42 43  2  0
 16 22  2  0
 12 17  1  6
 17 19  1  0
 17 20  1  0
 18 19  1  0
 18 22  1  0
 18 23  1  0
  9 10  1  0
  9 11  1  0
 10 12  1  0
 11  5  1  6
 33 34  1  0
 33 35  1  0
 34 36  1  0
 35 37  1  0
 37 43  1  6
 20 21  2  0
 21 22  1  0
M  CHG  3   2  -1  26  -1  41  -1
M  END
>  <COMPND>  (42) 
    udp_gluA.pdb 

>  <AUTHOR>  (42) 
    GENERATED BY OPEN BABEL 3.1.1

>  <MASTER>  (42) 
        0    0    0    0    0    0    0    0   56    0   56    0

>  <minimizedAffinity>  (42) 
-7.70882

>  <CNNscore>  (42) 
0.5850645900

>  <CNNaffinity>  (42) 
4.4531884193

>  <CNN_VS>  (42) 
2.6054029465

>  <CNNaffinity_variance>  (42) 
0.0261192136

$$$$
43
     RDKit          3D

 43 45  0  0  0  0  0  0  0  0999 V2000
   29.3559   73.6872   -1.9902 P   0  0  2  0  0  0  0  0  0  0  0  0
   28.7607   75.1216   -2.4451 O   0  0  0  0  0  0  0  0  0  0  0  0
   30.8302   73.6729   -1.7106 O   0  0  0  0  0  0  0  0  0  0  0  0
   28.8499   72.6728   -3.1447 O   0  0  0  0  0  0  0  0  0  0  0  0
   29.7290   71.6523   -3.5810 C   0  0  0  0  0  0  0  0  0  0  0  0
   28.7719   69.5806   -2.8264 O   0  0  0  0  0  0  0  0  0  0  0  0
   31.2736   69.2282   -1.2113 O   0  0  0  0  0  0  0  0  0  0  0  0
   31.7193   67.6105   -3.3609 O   0  0  0  0  0  0  0  0  0  0  0  0
   31.1084   69.8038   -2.5074 C   0  0  1  0  0  0  0  0  0  0  0  0
   30.8623   68.7195   -3.5350 C   0  0  2  0  0  0  0  0  0  0  0  0
   29.7873   70.5607   -2.5203 C   0  0  1  0  0  0  0  0  0  0  0  0
   29.4034   68.3756   -3.2875 C   0  0  2  0  0  0  0  0  0  0  0  0
   32.1112   68.7392   -1.1787 H   0  0  0  0  0  0  0  0  0  0  0  0
   32.6361   67.8807   -3.5299 H   0  0  0  0  0  0  0  0  0  0  0  0
   26.7877   67.3120   -3.3445 O   0  0  0  0  0  0  0  0  0  0  0  0
   26.9484   66.6782   -7.9070 O   0  0  0  0  0  0  0  0  0  0  0  0
   28.7373   67.9249   -4.4767 N   0  0  0  0  0  0  0  0  0  0  0  0
   26.8706   66.9964   -5.6166 N   0  0  0  0  0  0  0  0  0  0  0  0
   27.4230   67.4070   -4.3963 C   0  0  0  0  0  0  0  0  0  0  0  0
   29.3838   67.9998   -5.7045 C   0  0  0  0  0  0  0  0  0  0  0  0
   28.8442   67.6046   -6.8592 C   0  0  0  0  0  0  0  0  0  0  0  0
   27.4744   67.0505   -6.8625 C   0  0  0  0  0  0  0  0  0  0  0  0
   25.9572   66.6303   -5.5856 H   0  0  0  0  0  0  0  0  0  0  0  0
   28.4272   73.2928   -0.7273 O   0  0  0  0  0  0  0  0  0  0  0  0
   28.7718   72.4934    0.6350 P   0  0  2  0  0  0  0  0  0  0  0  0
   29.2467   73.6676    1.6429 O   0  0  0  0  0  0  0  0  0  0  0  0
   29.7696   71.3850    0.4629 O   0  0  0  0  0  0  0  0  0  0  0  0
   27.3387   72.0214    1.2061 O   0  0  0  0  0  0  0  0  0  0  0  0
   25.7883   73.6873    1.8620 O   0  0  0  0  0  0  0  0  0  0  0  0
   24.1711   70.3042    3.5961 O   0  0  0  0  0  0  0  0  0  0  0  0
   27.0529   70.7763    3.6767 O   0  0  0  0  0  0  0  0  0  0  0  0
   22.9801   71.4230    1.1918 O   0  0  0  0  0  0  0  0  0  0  0  0
   24.8899   71.0474    2.6118 C   0  0  2  0  0  0  0  0  0  0  0  0
   26.0877   71.7373    3.2652 C   0  0  2  0  0  0  0  0  0  0  0  0
   23.9378   72.0862    2.0149 C   0  0  1  0  0  0  0  0  0  0  0  0
   26.7463   72.7222    2.2982 C   0  0  1  0  0  0  0  0  0  0  0  0
   24.6888   73.1064    1.1642 C   0  0  1  0  0  0  0  0  0  0  0  0
   24.7562   69.6377    3.9894 H   0  0  0  0  0  0  0  0  0  0  0  0
   26.6417   70.1479    4.2903 H   0  0  0  0  0  0  0  0  0  0  0  0
   22.4952   70.7707    1.7211 H   0  0  0  0  0  0  0  0  0  0  0  0
   24.3910   75.4276    1.3221 O   0  0  0  0  0  0  0  0  0  0  0  0
   22.7497   74.2369    0.2793 O   0  0  0  0  0  0  0  0  0  0  0  0
   23.8225   74.2856    0.8621 C   0  0  0  0  0  0  0  0  0  0  0  0
  1  4  1  0
  1 24  1  0
  1  2  1  6
  1  3  2  0
 25 28  1  0
 25 24  1  0
 25 26  1  1
 25 27  2  0
  6 11  1  0
  6 12  1  0
 29 36  1  0
 29 37  1  0
  9  7  1  1
  7 13  1  0
 10  8  1  1
  8 14  1  0
  4  5  1  0
 36 28  1  6
 33 30  1  1
 30 38  1  0
 34 31  1  6
 31 39  1  0
 35 32  1  6
 32 40  1  0
 41 43  1  0
 15 19  2  0
 42 43  2  0
 16 22  2  0
 12 17  1  6
 17 19  1  0
 17 20  1  0
 18 19  1  0
 18 22  1  0
 18 23  1  0
  9 10  1  0
  9 11  1  0
 10 12  1  0
 11  5  1  6
 33 34  1  0
 33 35  1  0
 34 36  1  0
 35 37  1  0
 37 43  1  1
 20 21  2  0
 21 22  1  0
M  CHG  3   2  -1  26  -1  41  -1
M  END
>  <COMPND>  (43) 
    udp_gluA.pdb 

>  <AUTHOR>  (43) 
    GENERATED BY OPEN BABEL 3.1.1

>  <MASTER>  (43) 
        0    0    0    0    0    0    0    0   56    0   56    0

>  <minimizedAffinity>  (43) 
-7.02498

>  <CNNscore>  (43) 
0.5677793622

>  <CNNaffinity>  (43) 
4.4811811447

>  <CNN_VS>  (43) 
2.5443222523

>  <CNNaffinity_variance>  (43) 
0.0383343883

$$$$
44
     RDKit          3D

 43 45  0  0  0  0  0  0  0  0999 V2000
   23.9256   73.5024   -5.0703 P   0  0  2  0  0  0  0  0  0  0  0  0
   24.9971   73.9589   -6.1938 O   0  0  0  0  0  0  0  0  0  0  0  0
   23.1125   74.6170   -4.4802 O   0  0  0  0  0  0  0  0  0  0  0  0
   24.8065   72.6429   -4.0198 O   0  0  0  0  0  0  0  0  0  0  0  0
   26.1666   72.3931   -4.3234 C   0  0  0  0  0  0  0  0  0  0  0  0
   26.6960   70.3277   -3.2136 O   0  0  0  0  0  0  0  0  0  0  0  0
   28.7460   71.8915   -1.6827 O   0  0  0  0  0  0  0  0  0  0  0  0
   30.2502   70.6295   -3.5751 O   0  0  0  0  0  0  0  0  0  0  0  0
   28.3347   72.0295   -3.0430 C   0  0  1  0  0  0  0  0  0  0  0  0
   28.8974   70.8988   -3.8780 C   0  0  2  0  0  0  0  0  0  0  0  0
   26.8375   71.7611   -3.1106 C   0  0  1  0  0  0  0  0  0  0  0  0
   27.9758   69.7478   -3.5121 C   0  0  2  0  0  0  0  0  0  0  0  0
   29.6995   72.0584   -1.6144 H   0  0  0  0  0  0  0  0  0  0  0  0
   30.7958   71.3918   -3.8266 H   0  0  0  0  0  0  0  0  0  0  0  0
   26.3882   67.4161   -3.3729 O   0  0  0  0  0  0  0  0  0  0  0  0
   27.4632   66.2064   -7.6886 O   0  0  0  0  0  0  0  0  0  0  0  0
   27.8230   68.8060   -4.5847 N   0  0  0  0  0  0  0  0  0  0  0  0
   26.9259   66.8153   -5.5222 N   0  0  0  0  0  0  0  0  0  0  0  0
   27.0020   67.6665   -4.4119 C   0  0  0  0  0  0  0  0  0  0  0  0
   28.4800   69.0159   -5.7910 C   0  0  0  0  0  0  0  0  0  0  0  0
   28.3977   68.1956   -6.8403 C   0  0  0  0  0  0  0  0  0  0  0  0
   27.5612   66.9815   -6.7422 C   0  0  0  0  0  0  0  0  0  0  0  0
   26.3619   66.0142   -5.4250 H   0  0  0  0  0  0  0  0  0  0  0  0
   23.0612   72.3689   -5.8325 O   0  0  0  0  0  0  0  0  0  0  0  0
   21.8099   71.4746   -5.3345 P   0  0  2  0  0  0  0  0  0  0  0  0
   21.3477   72.2125   -3.9699 O   0  0  0  0  0  0  0  0  0  0  0  0
   22.1218   70.0149   -5.1731 O   0  0  0  0  0  0  0  0  0  0  0  0
   20.6323   71.7948   -6.3896 O   0  0  0  0  0  0  0  0  0  0  0  0
   20.3994   71.3282   -8.6998 O   0  0  0  0  0  0  0  0  0  0  0  0
   18.5604   75.0153   -8.3974 O   0  0  0  0  0  0  0  0  0  0  0  0
   21.0531   74.4822   -6.9702 O   0  0  0  0  0  0  0  0  0  0  0  0
   16.9596   72.6044   -8.6724 O   0  0  0  0  0  0  0  0  0  0  0  0
   18.9685   73.7220   -7.9513 C   0  0  2  0  0  0  0  0  0  0  0  0
   20.4947   73.6334   -7.9664 C   0  0  2  0  0  0  0  0  0  0  0  0
   18.3656   72.6828   -8.8992 C   0  0  1  0  0  0  0  0  0  0  0  0
   20.9620   72.1987   -7.7173 C   0  0  1  0  0  0  0  0  0  0  0  0
   18.9741   71.3020   -8.6718 C   0  0  1  0  0  0  0  0  0  0  0  0
   18.9319   75.6922   -7.8099 H   0  0  0  0  0  0  0  0  0  0  0  0
   20.7605   75.3942   -7.1220 H   0  0  0  0  0  0  0  0  0  0  0  0
   16.5601   73.4769   -8.8137 H   0  0  0  0  0  0  0  0  0  0  0  0
   19.6279   70.3620  -10.7188 O   0  0  0  0  0  0  0  0  0  0  0  0
   17.6040   69.7274   -9.8820 O   0  0  0  0  0  0  0  0  0  0  0  0
   18.6333   70.3803   -9.7972 C   0  0  0  0  0  0  0  0  0  0  0  0
  1  4  1  0
  1 24  1  0
  1  2  1  6
  1  3  2  0
 25 28  1  0
 25 24  1  0
 25 26  1  1
 25 27  2  0
  6 11  1  0
  6 12  1  0
 29 36  1  0
 29 37  1  0
  9  7  1  1
  7 13  1  0
 10  8  1  1
  8 14  1  0
  4  5  1  0
 36 28  1  1
 33 30  1  6
 30 38  1  0
 34 31  1  1
 31 39  1  0
 35 32  1  1
 32 40  1  0
 41 43  1  0
 15 19  2  0
 42 43  2  0
 16 22  2  0
 12 17  1  6
 17 19  1  0
 17 20  1  0
 18 19  1  0
 18 22  1  0
 18 23  1  0
  9 10  1  0
  9 11  1  0
 10 12  1  0
 11  5  1  6
 33 34  1  0
 33 35  1  0
 34 36  1  0
 35 37  1  0
 37 43  1  6
 20 21  2  0
 21 22  1  0
M  CHG  3   2  -1  26  -1  41  -1
M  END
>  <COMPND>  (44) 
    udp_gluA.pdb 

>  <AUTHOR>  (44) 
    GENERATED BY OPEN BABEL 3.1.1

>  <MASTER>  (44) 
        0    0    0    0    0    0    0    0   56    0   56    0

>  <minimizedAffinity>  (44) 
-7.77298

>  <CNNscore>  (44) 
0.5410056114

>  <CNNaffinity>  (44) 
4.3873596191

>  <CNN_VS>  (44) 
2.3735861778

>  <CNNaffinity_variance>  (44) 
0.1180382967

$$$$
45
     RDKit          3D

 43 45  0  0  0  0  0  0  0  0999 V2000
   25.9799   74.8645   -2.9337 P   0  0  2  0  0  0  0  0  0  0  0  0
   27.4447   74.7427   -3.6106 O   0  0  0  0  0  0  0  0  0  0  0  0
   25.2102   76.0976   -3.3067 O   0  0  0  0  0  0  0  0  0  0  0  0
   26.2643   74.6649   -1.3535 O   0  0  0  0  0  0  0  0  0  0  0  0
   25.2274   74.9637   -0.4369 C   0  0  0  0  0  0  0  0  0  0  0  0
   24.4941   72.6863   -0.2054 O   0  0  0  0  0  0  0  0  0  0  0  0
   21.7057   73.7503   -0.4964 O   0  0  0  0  0  0  0  0  0  0  0  0
   21.9247   73.3815    2.1966 O   0  0  0  0  0  0  0  0  0  0  0  0
   22.8335   74.3369    0.1536 C   0  0  1  0  0  0  0  0  0  0  0  0
   23.1068   73.6329    1.4659 C   0  0  2  0  0  0  0  0  0  0  0  0
   24.0750   73.9922   -0.6575 C   0  0  1  0  0  0  0  0  0  0  0  0
   23.7907   72.3577    1.0032 C   0  0  2  0  0  0  0  0  0  0  0  0
   20.9002   73.9569    0.0037 H   0  0  0  0  0  0  0  0  0  0  0  0
   21.5273   74.2242    2.4685 H   0  0  0  0  0  0  0  0  0  0  0  0
   23.1283   70.5902    3.1040 O   0  0  0  0  0  0  0  0  0  0  0  0
   27.4709   70.5054    4.6463 O   0  0  0  0  0  0  0  0  0  0  0  0
   24.7287   71.8578    1.9681 N   0  0  0  0  0  0  0  0  0  0  0  0
   25.2916   70.5504    3.8708 N   0  0  0  0  0  0  0  0  0  0  0  0
   24.2932   70.9744    2.9840 C   0  0  0  0  0  0  0  0  0  0  0  0
   26.0628   72.2411    1.9017 C   0  0  0  0  0  0  0  0  0  0  0  0
   27.0029   71.8285    2.7541 C   0  0  0  0  0  0  0  0  0  0  0  0
   26.6309   70.9045    3.8455 C   0  0  0  0  0  0  0  0  0  0  0  0
   25.0120   69.9365    4.5879 H   0  0  0  0  0  0  0  0  0  0  0  0
   25.2694   73.4747   -3.3535 O   0  0  0  0  0  0  0  0  0  0  0  0
   25.0890   72.7683   -4.7965 P   0  0  2  0  0  0  0  0  0  0  0  0
   26.1806   71.5735   -4.7625 O   0  0  0  0  0  0  0  0  0  0  0  0
   25.2319   73.7035   -5.9621 O   0  0  0  0  0  0  0  0  0  0  0  0
   23.6628   72.0193   -4.7101 O   0  0  0  0  0  0  0  0  0  0  0  0
   21.9058   72.3148   -3.1496 O   0  0  0  0  0  0  0  0  0  0  0  0
   21.5188   68.3138   -4.1035 O   0  0  0  0  0  0  0  0  0  0  0  0
   24.1606   69.4855   -3.6765 O   0  0  0  0  0  0  0  0  0  0  0  0
   19.6594   70.2615   -5.1988 O   0  0  0  0  0  0  0  0  0  0  0  0
   21.8358   69.6853   -4.3409 C   0  0  2  0  0  0  0  0  0  0  0  0
   22.9306   70.1327   -3.3719 C   0  0  2  0  0  0  0  0  0  0  0  0
   20.5643   70.5089   -4.1244 C   0  0  1  0  0  0  0  0  0  0  0  0
   23.1346   71.6469   -3.4384 C   0  0  1  0  0  0  0  0  0  0  0  0
   20.8696   72.0033   -4.0782 C   0  0  1  0  0  0  0  0  0  0  0  0
   22.3121   67.7709   -4.2351 H   0  0  0  0  0  0  0  0  0  0  0  0
   24.0384   68.5243   -3.6365 H   0  0  0  0  0  0  0  0  0  0  0  0
   19.4570   69.3137   -5.2394 H   0  0  0  0  0  0  0  0  0  0  0  0
   19.6985   72.7542   -2.1898 O   0  0  0  0  0  0  0  0  0  0  0  0
   18.8608   73.3309   -4.2305 O   0  0  0  0  0  0  0  0  0  0  0  0
   19.7012   72.7672   -3.5458 C   0  0  0  0  0  0  0  0  0  0  0  0
  1  4  1  0
  1 24  1  0
  1  2  1  6
  1  3  2  0
 25 28  1  0
 25 24  1  0
 25 26  1  6
 25 27  2  0
  6 11  1  0
  6 12  1  0
 29 36  1  0
 29 37  1  0
  9  7  1  6
  7 13  1  0
 10  8  1  6
  8 14  1  0
  4  5  1  0
 36 28  1  6
 33 30  1  1
 30 38  1  0
 34 31  1  6
 31 39  1  0
 35 32  1  6
 32 40  1  0
 41 43  1  0
 15 19  2  0
 42 43  2  0
 16 22  2  0
 12 17  1  1
 17 19  1  0
 17 20  1  0
 18 19  1  0
 18 22  1  0
 18 23  1  0
  9 10  1  0
  9 11  1  0
 10 12  1  0
 11  5  1  1
 33 34  1  0
 33 35  1  0
 34 36  1  0
 35 37  1  0
 37 43  1  1
 20 21  2  0
 21 22  1  0
M  CHG  3   2  -1  26  -1  41  -1
M  END
>  <COMPND>  (45) 
    udp_gluA.pdb 

>  <AUTHOR>  (45) 
    GENERATED BY OPEN BABEL 3.1.1

>  <MASTER>  (45) 
        0    0    0    0    0    0    0    0   56    0   56    0

>  <minimizedAffinity>  (45) 
-5.97971

>  <CNNscore>  (45) 
0.5121982098

>  <CNNaffinity>  (45) 
3.8171265125

>  <CNN_VS>  (45) 
1.9551253319

>  <CNNaffinity_variance>  (45) 
0.3540302813

$$$$
46
     RDKit          3D

 43 45  0  0  0  0  0  0  0  0999 V2000
   27.6124   73.2613   -2.5533 P   0  0  2  0  0  0  0  0  0  0  0  0
   27.4837   74.8712   -2.6550 O   0  0  0  0  0  0  0  0  0  0  0  0
   27.2384   72.6787   -1.2219 O   0  0  0  0  0  0  0  0  0  0  0  0
   29.1215   72.9598   -3.0531 O   0  0  0  0  0  0  0  0  0  0  0  0
   29.3861   71.7288   -3.7004 C   0  0  0  0  0  0  0  0  0  0  0  0
   28.6273   69.5848   -2.9223 O   0  0  0  0  0  0  0  0  0  0  0  0
   31.2039   69.4347   -1.3959 O   0  0  0  0  0  0  0  0  0  0  0  0
   31.7049   67.8621   -3.5665 O   0  0  0  0  0  0  0  0  0  0  0  0
   30.9476   69.9970   -2.6830 C   0  0  1  0  0  0  0  0  0  0  0  0
   30.7550   68.8979   -3.7062 C   0  0  2  0  0  0  0  0  0  0  0  0
   29.5697   70.6438   -2.6471 C   0  0  1  0  0  0  0  0  0  0  0  0
   29.3384   68.4360   -3.4102 C   0  0  2  0  0  0  0  0  0  0  0  0
   32.0791   69.0156   -1.3942 H   0  0  0  0  0  0  0  0  0  0  0  0
   32.5902   68.2063   -3.7657 H   0  0  0  0  0  0  0  0  0  0  0  0
   26.7999   67.1982   -3.3867 O   0  0  0  0  0  0  0  0  0  0  0  0
   26.8718   66.5496   -7.9494 O   0  0  0  0  0  0  0  0  0  0  0  0
   28.6703   67.9344   -4.5776 N   0  0  0  0  0  0  0  0  0  0  0  0
   26.8386   66.8754   -5.6591 N   0  0  0  0  0  0  0  0  0  0  0  0
   27.3969   67.3295   -4.4569 C   0  0  0  0  0  0  0  0  0  0  0  0
   29.2746   68.0453   -5.8240 C   0  0  0  0  0  0  0  0  0  0  0  0
   28.7301   67.6078   -6.9610 C   0  0  0  0  0  0  0  0  0  0  0  0
   27.4013   66.9627   -6.9222 C   0  0  0  0  0  0  0  0  0  0  0  0
   25.9532   66.4488   -5.6001 H   0  0  0  0  0  0  0  0  0  0  0  0
   26.7098   72.7460   -3.7913 O   0  0  0  0  0  0  0  0  0  0  0  0
   25.2573   73.2232   -4.3167 P   0  0  2  0  0  0  0  0  0  0  0  0
   25.4767   73.3875   -5.9120 O   0  0  0  0  0  0  0  0  0  0  0  0
   24.7292   74.4524   -3.6353 O   0  0  0  0  0  0  0  0  0  0  0  0
   24.3192   71.9194   -4.1669 O   0  0  0  0  0  0  0  0  0  0  0  0
   23.0141   72.0807   -2.1971 O   0  0  0  0  0  0  0  0  0  0  0  0
   21.9637   68.3385   -3.5973 O   0  0  0  0  0  0  0  0  0  0  0  0
   24.7489   69.2174   -3.6663 O   0  0  0  0  0  0  0  0  0  0  0  0
   20.1369   70.5785   -3.9080 O   0  0  0  0  0  0  0  0  0  0  0  0
   22.3720   69.7023   -3.7036 C   0  0  2  0  0  0  0  0  0  0  0  0
   23.7041   69.8957   -2.9785 C   0  0  2  0  0  0  0  0  0  0  0  0
   21.2870   70.5720   -3.0644 C   0  0  1  0  0  0  0  0  0  0  0  0
   24.0589   71.3795   -2.8724 C   0  0  1  0  0  0  0  0  0  0  0  0
   21.7634   72.0097   -2.8781 C   0  0  1  0  0  0  0  0  0  0  0  0
   22.6380   67.7669   -3.9970 H   0  0  0  0  0  0  0  0  0  0  0  0
   24.5302   68.2753   -3.7375 H   0  0  0  0  0  0  0  0  0  0  0  0
   19.8238   69.6693   -4.0348 H   0  0  0  0  0  0  0  0  0  0  0  0
   20.1422   71.9040   -1.1863 O   0  0  0  0  0  0  0  0  0  0  0  0
   20.7350   73.9760   -1.9309 O   0  0  0  0  0  0  0  0  0  0  0  0
   20.8440   72.7596   -1.9701 C   0  0  0  0  0  0  0  0  0  0  0  0
  1  4  1  0
  1 24  1  0
  1  2  1  1
  1  3  2  0
 25 28  1  0
 25 24  1  0
 25 26  1  6
 25 27  2  0
  6 11  1  0
  6 12  1  0
 29 36  1  0
 29 37  1  0
  9  7  1  1
  7 13  1  0
 10  8  1  1
  8 14  1  0
  4  5  1  0
 36 28  1  6
 33 30  1  1
 30 38  1  0
 34 31  1  6
 31 39  1  0
 35 32  1  6
 32 40  1  0
 41 43  1  0
 15 19  2  0
 42 43  2  0
 16 22  2  0
 12 17  1  6
 17 19  1  0
 17 20  1  0
 18 19  1  0
 18 22  1  0
 18 23  1  0
  9 10  1  0
  9 11  1  0
 10 12  1  0
 11  5  1  6
 33 34  1  0
 33 35  1  0
 34 36  1  0
 35 37  1  0
 37 43  1  1
 20 21  2  0
 21 22  1  0
M  CHG  3   2  -1  26  -1  41  -1
M  END
>  <COMPND>  (46) 
    udp_gluA.pdb 

>  <AUTHOR>  (46) 
    GENERATED BY OPEN BABEL 3.1.1

>  <MASTER>  (46) 
        0    0    0    0    0    0    0    0   56    0   56    0

>  <minimizedAffinity>  (46) 
-7.99040

>  <CNNscore>  (46) 
0.4987705052

>  <CNNaffinity>  (46) 
4.4477219582

>  <CNN_VS>  (46) 
2.2183926105

>  <CNNaffinity_variance>  (46) 
0.5286597013

$$$$
47
     RDKit          3D

 43 45  0  0  0  0  0  0  0  0999 V2000
   27.2298   72.9104   -2.7850 P   0  0  2  0  0  0  0  0  0  0  0  0
   26.7301   71.7579   -3.8053 O   0  0  0  0  0  0  0  0  0  0  0  0
   26.6544   74.2731   -3.0375 O   0  0  0  0  0  0  0  0  0  0  0  0
   28.8435   72.8073   -2.8426 O   0  0  0  0  0  0  0  0  0  0  0  0
   29.4271   71.7213   -3.5385 C   0  0  0  0  0  0  0  0  0  0  0  0
   28.7829   69.5130   -2.8413 O   0  0  0  0  0  0  0  0  0  0  0  0
   31.4351   69.3806   -1.4487 O   0  0  0  0  0  0  0  0  0  0  0  0
   31.8832   67.9423   -3.7218 O   0  0  0  0  0  0  0  0  0  0  0  0
   31.0963   69.9988   -2.6903 C   0  0  1  0  0  0  0  0  0  0  0  0
   30.8921   68.9477   -3.7607 C   0  0  2  0  0  0  0  0  0  0  0  0
   29.7001   70.5909   -2.5547 C   0  0  1  0  0  0  0  0  0  0  0  0
   29.5087   68.4184   -3.4231 C   0  0  2  0  0  0  0  0  0  0  0  0
   32.3234   68.9949   -1.5110 H   0  0  0  0  0  0  0  0  0  0  0  0
   32.7451   68.3292   -3.9440 H   0  0  0  0  0  0  0  0  0  0  0  0
   26.9209   67.2885   -3.3668 O   0  0  0  0  0  0  0  0  0  0  0  0
   26.8938   66.6684   -7.9339 O   0  0  0  0  0  0  0  0  0  0  0  0
   28.8018   67.9533   -4.5828 N   0  0  0  0  0  0  0  0  0  0  0  0
   26.9103   66.9798   -5.6414 N   0  0  0  0  0  0  0  0  0  0  0  0
   27.5060   67.4018   -4.4455 C   0  0  0  0  0  0  0  0  0  0  0  0
   29.3907   68.0471   -5.8379 C   0  0  0  0  0  0  0  0  0  0  0  0
   28.8104   67.6407   -6.9687 C   0  0  0  0  0  0  0  0  0  0  0  0
   27.4563   67.0518   -6.9127 C   0  0  0  0  0  0  0  0  0  0  0  0
   26.0087   66.5905   -5.5709 H   0  0  0  0  0  0  0  0  0  0  0  0
   26.8776   72.2889   -1.3349 O   0  0  0  0  0  0  0  0  0  0  0  0
   25.5268   72.3598   -0.4494 P   0  0  2  0  0  0  0  0  0  0  0  0
   25.1953   73.9437   -0.4067 O   0  0  0  0  0  0  0  0  0  0  0  0
   25.6417   71.7154    0.9017 O   0  0  0  0  0  0  0  0  0  0  0  0
   24.3829   71.7298   -1.3966 O   0  0  0  0  0  0  0  0  0  0  0  0
   23.3557   72.9480   -3.1487 O   0  0  0  0  0  0  0  0  0  0  0  0
   20.5574   69.9964   -2.4239 O   0  0  0  0  0  0  0  0  0  0  0  0
   21.9000   71.3411   -0.2050 O   0  0  0  0  0  0  0  0  0  0  0  0
   22.2769   69.8344   -4.7623 O   0  0  0  0  0  0  0  0  0  0  0  0
   21.8667   70.5600   -2.5017 C   0  0  2  0  0  0  0  0  0  0  0  0
   21.9628   71.7626   -1.5626 C   0  0  2  0  0  0  0  0  0  0  0  0
   22.1095   70.9941   -3.9490 C   0  0  1  0  0  0  0  0  0  0  0  0
   23.2673   72.5287   -1.7864 C   0  0  1  0  0  0  0  0  0  0  0  0
   23.3611   71.8587   -4.0687 C   0  0  1  0  0  0  0  0  0  0  0  0
   20.3806   69.7132   -1.5129 H   0  0  0  0  0  0  0  0  0  0  0  0
   21.0748   70.8541   -0.0560 H   0  0  0  0  0  0  0  0  0  0  0  0
   21.4871   69.2754   -4.6949 H   0  0  0  0  0  0  0  0  0  0  0  0
   22.2082   72.4586   -6.0213 O   0  0  0  0  0  0  0  0  0  0  0  0
   24.3900   73.1018   -5.8624 O   0  0  0  0  0  0  0  0  0  0  0  0
   23.4091   72.5415   -5.3968 C   0  0  0  0  0  0  0  0  0  0  0  0
  1  4  1  0
  1 24  1  0
  1  2  1  6
  1  3  2  0
 25 28  1  0
 25 24  1  0
 25 26  1  1
 25 27  2  0
  6 11  1  0
  6 12  1  0
 29 36  1  0
 29 37  1  0
  9  7  1  1
  7 13  1  0
 10  8  1  1
  8 14  1  0
  4  5  1  0
 36 28  1  6
 33 30  1  6
 30 38  1  0
 34 31  1  1
 31 39  1  0
 35 32  1  6
 32 40  1  0
 41 43  1  0
 15 19  2  0
 42 43  2  0
 16 22  2  0
 12 17  1  6
 17 19  1  0
 17 20  1  0
 18 19  1  0
 18 22  1  0
 18 23  1  0
  9 10  1  0
  9 11  1  0
 10 12  1  0
 11  5  1  6
 33 34  1  0
 33 35  1  0
 34 36  1  0
 35 37  1  0
 37 43  1  6
 20 21  2  0
 21 22  1  0
M  CHG  3   2  -1  26  -1  41  -1
M  END
>  <COMPND>  (47) 
    udp_gluA.pdb 

>  <AUTHOR>  (47) 
    GENERATED BY OPEN BABEL 3.1.1

>  <MASTER>  (47) 
        0    0    0    0    0    0    0    0   56    0   56    0

>  <minimizedAffinity>  (47) 
-7.82743

>  <CNNscore>  (47) 
0.4771428704

>  <CNNaffinity>  (47) 
4.4962701797

>  <CNN_VS>  (47) 
2.1453633308

>  <CNNaffinity_variance>  (47) 
0.3895891309

$$$$
48
     RDKit          3D

 43 45  0  0  0  0  0  0  0  0999 V2000
   24.8733   73.3007   -4.3050 P   0  0  2  0  0  0  0  0  0  0  0  0
   24.5585   73.3195   -5.8923 O   0  0  0  0  0  0  0  0  0  0  0  0
   24.5382   74.5696   -3.5775 O   0  0  0  0  0  0  0  0  0  0  0  0
   26.4191   72.8299   -4.2211 O   0  0  0  0  0  0  0  0  0  0  0  0
   26.7162   71.4543   -4.3756 C   0  0  0  0  0  0  0  0  0  0  0  0
   27.5891   69.5198   -3.2470 O   0  0  0  0  0  0  0  0  0  0  0  0
   28.8717   71.4430   -1.3372 O   0  0  0  0  0  0  0  0  0  0  0  0
   30.9443   70.7526   -2.9693 O   0  0  0  0  0  0  0  0  0  0  0  0
   28.6651   71.5692   -2.7442 C   0  0  1  0  0  0  0  0  0  0  0  0
   29.6364   70.6856   -3.4980 C   0  0  2  0  0  0  0  0  0  0  0  0
   27.3250   70.9298   -3.0815 C   0  0  1  0  0  0  0  0  0  0  0  0
   29.0080   69.3126   -3.3316 C   0  0  2  0  0  0  0  0  0  0  0  0
   29.7220   71.8445   -1.0976 H   0  0  0  0  0  0  0  0  0  0  0  0
   31.3004   71.6459   -3.0999 H   0  0  0  0  0  0  0  0  0  0  0  0
   31.2796   67.6447   -3.5166 O   0  0  0  0  0  0  0  0  0  0  0  0
   29.9790   66.0217   -7.6298 O   0  0  0  0  0  0  0  0  0  0  0  0
   29.2877   68.4439   -4.4398 N   0  0  0  0  0  0  0  0  0  0  0  0
   30.6302   66.8387   -5.5655 N   0  0  0  0  0  0  0  0  0  0  0  0
   30.4570   67.6472   -4.4344 C   0  0  0  0  0  0  0  0  0  0  0  0
   28.4090   68.3860   -5.5147 C   0  0  0  0  0  0  0  0  0  0  0  0
   28.5875   67.6104   -6.5858 C   0  0  0  0  0  0  0  0  0  0  0  0
   29.7847   66.7474   -6.6593 C   0  0  0  0  0  0  0  0  0  0  0  0
   31.4382   66.2765   -5.5855 H   0  0  0  0  0  0  0  0  0  0  0  0
   24.0680   71.9969   -3.7908 O   0  0  0  0  0  0  0  0  0  0  0  0
   23.1825   71.7527   -2.4604 P   0  0  2  0  0  0  0  0  0  0  0  0
   22.7416   70.2004   -2.5893 O   0  0  0  0  0  0  0  0  0  0  0  0
   22.0369   72.7095   -2.2989 O   0  0  0  0  0  0  0  0  0  0  0  0
   24.2484   71.7740   -1.2496 O   0  0  0  0  0  0  0  0  0  0  0  0
   23.5388   72.6036    0.8521 O   0  0  0  0  0  0  0  0  0  0  0  0
   27.6465   72.5996    1.2932 O   0  0  0  0  0  0  0  0  0  0  0  0
   26.4260   73.5036   -1.2023 O   0  0  0  0  0  0  0  0  0  0  0  0
   26.0391   70.5452    2.5765 O   0  0  0  0  0  0  0  0  0  0  0  0
   26.3881   72.1376    0.8023 C   0  0  2  0  0  0  0  0  0  0  0  0
   25.7112   73.2504    0.0018 C   0  0  2  0  0  0  0  0  0  0  0  0
   25.5259   71.7470    2.0049 C   0  0  1  0  0  0  0  0  0  0  0  0
   24.2694   72.8761   -0.3443 C   0  0  1  0  0  0  0  0  0  0  0  0
   24.0744   71.5120    1.5968 C   0  0  1  0  0  0  0  0  0  0  0  0
   28.2115   72.8536    0.5466 H   0  0  0  0  0  0  0  0  0  0  0  0
   27.3419   73.7415   -0.9902 H   0  0  0  0  0  0  0  0  0  0  0  0
   26.9625   70.6813    2.8404 H   0  0  0  0  0  0  0  0  0  0  0  0
   22.3787   72.5455    2.8450 O   0  0  0  0  0  0  0  0  0  0  0  0
   23.1838   70.5609    3.6275 O   0  0  0  0  0  0  0  0  0  0  0  0
   23.1877   71.4582    2.7981 C   0  0  0  0  0  0  0  0  0  0  0  0
  1  4  1  0
  1 24  1  0
  1  2  1  6
  1  3  2  0
 25 28  1  0
 25 24  1  0
 25 26  1  6
 25 27  2  0
  6 11  1  0
  6 12  1  0
 29 36  1  0
 29 37  1  0
  9  7  1  1
  7 13  1  0
 10  8  1  1
  8 14  1  0
  4  5  1  0
 36 28  1  6
 33 30  1  1
 30 38  1  0
 34 31  1  6
 31 39  1  0
 35 32  1  6
 32 40  1  0
 41 43  1  0
 15 19  2  0
 42 43  2  0
 16 22  2  0
 12 17  1  6
 17 19  1  0
 17 20  1  0
 18 19  1  0
 18 22  1  0
 18 23  1  0
  9 10  1  0
  9 11  1  0
 10 12  1  0
 11  5  1  6
 33 34  1  0
 33 35  1  0
 34 36  1  0
 35 37  1  0
 37 43  1  1
 20 21  2  0
 21 22  1  0
M  CHG  3   2  -1  26  -1  41  -1
M  END
>  <COMPND>  (48) 
    udp_gluA.pdb 

>  <AUTHOR>  (48) 
    GENERATED BY OPEN BABEL 3.1.1

>  <MASTER>  (48) 
        0    0    0    0    0    0    0    0   56    0   56    0

>  <minimizedAffinity>  (48) 
-6.86331

>  <CNNscore>  (48) 
0.4740834832

>  <CNNaffinity>  (48) 
4.2659025192

>  <CNN_VS>  (48) 
2.0223939419

>  <CNNaffinity_variance>  (48) 
0.0896595269

$$$$
49
     RDKit          3D

 43 45  0  0  0  0  0  0  0  0999 V2000
   29.4134   73.8794   -2.3150 P   0  0  2  0  0  0  0  0  0  0  0  0
   29.2441   75.1797   -3.2634 O   0  0  0  0  0  0  0  0  0  0  0  0
   30.7665   73.7271   -1.6844 O   0  0  0  0  0  0  0  0  0  0  0  0
   28.9321   72.6505   -3.2511 O   0  0  0  0  0  0  0  0  0  0  0  0
   29.8692   71.6399   -3.5748 C   0  0  0  0  0  0  0  0  0  0  0  0
   28.7763   69.6355   -2.8226 O   0  0  0  0  0  0  0  0  0  0  0  0
   31.1986   69.1776   -1.1155 O   0  0  0  0  0  0  0  0  0  0  0  0
   31.6296   67.5018   -3.2230 O   0  0  0  0  0  0  0  0  0  0  0  0
   31.1092   69.7389   -2.4252 C   0  0  1  0  0  0  0  0  0  0  0  0
   30.8402   68.6518   -3.4441 C   0  0  2  0  0  0  0  0  0  0  0  0
   29.8321   70.5650   -2.4961 C   0  0  1  0  0  0  0  0  0  0  0  0
   29.3572   68.3908   -3.2428 C   0  0  2  0  0  0  0  0  0  0  0  0
   32.0069   68.6452   -1.0460 H   0  0  0  0  0  0  0  0  0  0  0  0
   32.5648   67.7196   -3.3638 H   0  0  0  0  0  0  0  0  0  0  0  0
   26.7871   67.2239   -3.3388 O   0  0  0  0  0  0  0  0  0  0  0  0
   26.9689   66.7605   -7.9210 O   0  0  0  0  0  0  0  0  0  0  0  0
   28.7089   67.9560   -4.4475 N   0  0  0  0  0  0  0  0  0  0  0  0
   26.8805   66.9933   -5.6208 N   0  0  0  0  0  0  0  0  0  0  0  0
   27.4169   67.3823   -4.3863 C   0  0  0  0  0  0  0  0  0  0  0  0
   29.3505   68.1009   -5.6716 C   0  0  0  0  0  0  0  0  0  0  0  0
   28.8264   67.7255   -6.8400 C   0  0  0  0  0  0  0  0  0  0  0  0
   27.4803   67.1164   -6.8636 C   0  0  0  0  0  0  0  0  0  0  0  0
   25.9828   66.5894   -5.6033 H   0  0  0  0  0  0  0  0  0  0  0  0
   28.1947   74.0351   -1.2647 O   0  0  0  0  0  0  0  0  0  0  0  0
   26.9556   73.0543   -0.9235 P   0  0  2  0  0  0  0  0  0  0  0  0
   26.0702   73.9245    0.1153 O   0  0  0  0  0  0  0  0  0  0  0  0
   27.3627   71.7040   -0.4090 O   0  0  0  0  0  0  0  0  0  0  0  0
   26.0775   73.0184   -2.2763 O   0  0  0  0  0  0  0  0  0  0  0  0
   24.5008   71.2544   -2.1708 O   0  0  0  0  0  0  0  0  0  0  0  0
   23.8549   72.7328   -5.9741 O   0  0  0  0  0  0  0  0  0  0  0  0
   26.5724   72.4224   -4.9477 O   0  0  0  0  0  0  0  0  0  0  0  0
   21.9762   73.3304   -3.8378 O   0  0  0  0  0  0  0  0  0  0  0  0
   24.2026   72.8007   -4.5912 C   0  0  2  0  0  0  0  0  0  0  0  0
   25.4070   71.8985   -4.3214 C   0  0  2  0  0  0  0  0  0  0  0  0
   22.9944   72.3335   -3.7764 C   0  0  1  0  0  0  0  0  0  0  0  0
   25.6656   71.7656   -2.8199 C   0  0  1  0  0  0  0  0  0  0  0  0
   23.3642   72.1033   -2.3139 C   0  0  1  0  0  0  0  0  0  0  0  0
   24.6078   73.0251   -6.5117 H   0  0  0  0  0  0  0  0  0  0  0  0
   26.4153   72.5097   -5.9006 H   0  0  0  0  0  0  0  0  0  0  0  0
   21.7319   73.4865   -4.7634 H   0  0  0  0  0  0  0  0  0  0  0  0
   22.3501   71.5592   -0.2701 O   0  0  0  0  0  0  0  0  0  0  0  0
   21.4604   70.6299   -2.1526 O   0  0  0  0  0  0  0  0  0  0  0  0
   22.2879   71.3449   -1.6077 C   0  0  0  0  0  0  0  0  0  0  0  0
  1  4  1  0
  1 24  1  0
  1  2  1  6
  1  3  2  0
 25 28  1  0
 25 24  1  0
 25 26  1  1
 25 27  2  0
  6 11  1  0
  6 12  1  0
 29 36  1  0
 29 37  1  0
  9  7  1  1
  7 13  1  0
 10  8  1  1
  8 14  1  0
  4  5  1  0
 36 28  1  1
 33 30  1  6
 30 38  1  0
 34 31  1  6
 31 39  1  0
 35 32  1  1
 32 40  1  0
 41 43  1  0
 15 19  2  0
 42 43  2  0
 16 22  2  0
 12 17  1  6
 17 19  1  0
 17 20  1  0
 18 19  1  0
 18 22  1  0
 18 23  1  0
  9 10  1  0
  9 11  1  0
 10 12  1  0
 11  5  1  6
 33 34  1  0
 33 35  1  0
 34 36  1  0
 35 37  1  0
 37 43  1  1
 20 21  2  0
 21 22  1  0
M  CHG  3   2  -1  26  -1  41  -1
M  END
>  <COMPND>  (49) 
    udp_gluA.pdb 

>  <AUTHOR>  (49) 
    GENERATED BY OPEN BABEL 3.1.1

>  <MASTER>  (49) 
        0    0    0    0    0    0    0    0   56    0   56    0

>  <minimizedAffinity>  (49) 
-7.58125

>  <CNNscore>  (49) 
0.4680871964

>  <CNNaffinity>  (49) 
4.2877988815

>  <CNN_VS>  (49) 
2.0070638657

>  <CNNaffinity_variance>  (49) 
0.5771728754

$$$$
50
     RDKit          3D

 43 45  0  0  0  0  0  0  0  0999 V2000
   24.5399   73.0326   -4.8657 P   0  0  2  0  0  0  0  0  0  0  0  0
   23.0436   72.6420   -5.3428 O   0  0  0  0  0  0  0  0  0  0  0  0
   25.3401   73.8140   -5.8661 O   0  0  0  0  0  0  0  0  0  0  0  0
   25.1806   71.6212   -4.4018 O   0  0  0  0  0  0  0  0  0  0  0  0
   26.5655   71.4082   -4.6045 C   0  0  0  0  0  0  0  0  0  0  0  0
   27.4974   69.5487   -3.3997 O   0  0  0  0  0  0  0  0  0  0  0  0
   28.7358   71.5866   -1.5818 O   0  0  0  0  0  0  0  0  0  0  0  0
   30.8184   70.8840   -3.1958 O   0  0  0  0  0  0  0  0  0  0  0  0
   28.5187   71.6466   -2.9917 C   0  0  1  0  0  0  0  0  0  0  0  0
   29.5103   70.7585   -3.7130 C   0  0  2  0  0  0  0  0  0  0  0  0
   27.1952   70.9567   -3.2929 C   0  0  1  0  0  0  0  0  0  0  0  0
   28.9210   69.3771   -3.4841 C   0  0  2  0  0  0  0  0  0  0  0  0
   29.5759   72.0212   -1.3650 H   0  0  0  0  0  0  0  0  0  0  0  0
   31.1490   71.7803   -3.3668 H   0  0  0  0  0  0  0  0  0  0  0  0
   31.2024   67.7148   -3.5783 O   0  0  0  0  0  0  0  0  0  0  0  0
   29.9630   65.9353   -7.6454 O   0  0  0  0  0  0  0  0  0  0  0  0
   29.2192   68.4697   -4.5559 N   0  0  0  0  0  0  0  0  0  0  0  0
   30.5834   66.8308   -5.6043 N   0  0  0  0  0  0  0  0  0  0  0  0
   30.3919   67.6795   -4.5061 C   0  0  0  0  0  0  0  0  0  0  0  0
   28.3549   68.3679   -5.6392 C   0  0  0  0  0  0  0  0  0  0  0  0
   28.5508   67.5543   -6.6786 C   0  0  0  0  0  0  0  0  0  0  0  0
   29.7528   66.6952   -6.7049 C   0  0  0  0  0  0  0  0  0  0  0  0
   31.3941   66.2723   -5.5932 H   0  0  0  0  0  0  0  0  0  0  0  0
   24.2861   73.7950   -3.4632 O   0  0  0  0  0  0  0  0  0  0  0  0
   25.3212   74.4577   -2.4129 P   0  0  2  0  0  0  0  0  0  0  0  0
   24.6963   75.9287   -2.1560 O   0  0  0  0  0  0  0  0  0  0  0  0
   26.7490   74.4647   -2.8766 O   0  0  0  0  0  0  0  0  0  0  0  0
   25.0694   73.6617   -1.0325 O   0  0  0  0  0  0  0  0  0  0  0  0
   26.0113   71.6659   -0.1730 O   0  0  0  0  0  0  0  0  0  0  0  0
   22.1359   71.4436    1.2411 O   0  0  0  0  0  0  0  0  0  0  0  0
   22.6670   72.3366   -1.4892 O   0  0  0  0  0  0  0  0  0  0  0  0
   24.3044   72.1708    3.0354 O   0  0  0  0  0  0  0  0  0  0  0  0
   23.3376   72.0952    0.8299 C   0  0  2  0  0  0  0  0  0  0  0  0
   23.6350   71.7471   -0.6289 C   0  0  2  0  0  0  0  0  0  0  0  0
   24.4723   71.6099    1.7348 C   0  0  1  0  0  0  0  0  0  0  0  0
   25.0260   72.2359   -1.0353 C   0  0  1  0  0  0  0  0  0  0  0  0
   25.8354   72.0315    1.1939 C   0  0  1  0  0  0  0  0  0  0  0  0
   21.4007   71.7366    0.6800 H   0  0  0  0  0  0  0  0  0  0  0  0
   21.7820   72.0310   -1.2368 H   0  0  0  0  0  0  0  0  0  0  0  0
   23.4404   71.9101    3.3910 H   0  0  0  0  0  0  0  0  0  0  0  0
   28.0452   71.2499    1.1093 O   0  0  0  0  0  0  0  0  0  0  0  0
   26.8488   70.7845    2.9937 O   0  0  0  0  0  0  0  0  0  0  0  0
   26.9328   71.2886    1.8839 C   0  0  0  0  0  0  0  0  0  0  0  0
  1  4  1  0
  1 24  1  0
  1  2  1  6
  1  3  2  0
 25 28  1  0
 25 24  1  0
 25 26  1  1
 25 27  2  0
  6 11  1  0
  6 12  1  0
 29 36  1  0
 29 37  1  0
  9  7  1  1
  7 13  1  0
 10  8  1  1
  8 14  1  0
  4  5  1  0
 36 28  1  1
 33 30  1  1
 30 38  1  0
 34 31  1  6
 31 39  1  0
 35 32  1  1
 32 40  1  0
 41 43  1  0
 15 19  2  0
 42 43  2  0
 16 22  2  0
 12 17  1  6
 17 19  1  0
 17 20  1  0
 18 19  1  0
 18 22  1  0
 18 23  1  0
  9 10  1  0
  9 11  1  0
 10 12  1  0
 11  5  1  6
 33 34  1  0
 33 35  1  0
 34 36  1  0
 35 37  1  0
 37 43  1  1
 20 21  2  0
 21 22  1  0
M  CHG  3   2  -1  26  -1  41  -1
M  END
>  <COMPND>  (50) 
    udp_gluA.pdb 

>  <AUTHOR>  (50) 
    GENERATED BY OPEN BABEL 3.1.1

>  <MASTER>  (50) 
        0    0    0    0    0    0    0    0   56    0   56    0

>  <minimizedAffinity>  (50) 
-7.12706

>  <CNNscore>  (50) 
0.4624766707

>  <CNNaffinity>  (50) 
4.2888398170

>  <CNN_VS>  (50) 
1.9834883213

>  <CNNaffinity_variance>  (50) 
0.1079776436

$$$$
51
     RDKit          3D

 43 45  0  0  0  0  0  0  0  0999 V2000
   27.4774   73.6368    3.8464 P   0  0  2  0  0  0  0  0  0  0  0  0
   28.6116   74.7888    3.9191 O   0  0  0  0  0  0  0  0  0  0  0  0
   26.0761   74.1105    4.0989 O   0  0  0  0  0  0  0  0  0  0  0  0
   28.0231   72.4905    4.8495 O   0  0  0  0  0  0  0  0  0  0  0  0
   29.3882   72.5140    5.2243 C   0  0  0  0  0  0  0  0  0  0  0  0
   30.2908   70.7905    3.8128 O   0  0  0  0  0  0  0  0  0  0  0  0
   31.3382   69.5377    6.3278 O   0  0  0  0  0  0  0  0  0  0  0  0
   33.5477   70.7713    5.3117 O   0  0  0  0  0  0  0  0  0  0  0  0
   31.2171   70.9195    5.9891 C   0  0  1  0  0  0  0  0  0  0  0  0
   32.2827   71.3086    4.9864 C   0  0  2  0  0  0  0  0  0  0  0  0
   29.9393   71.0946    5.1800 C   0  0  1  0  0  0  0  0  0  0  0  0
   31.7215   70.7416    3.6936 C   0  0  2  0  0  0  0  0  0  0  0  0
   32.1476   69.4010    6.8452 H   0  0  0  0  0  0  0  0  0  0  0  0
   33.8618   71.1637    6.1419 H   0  0  0  0  0  0  0  0  0  0  0  0
   32.9041   69.6326    1.3810 O   0  0  0  0  0  0  0  0  0  0  0  0
   33.2116   73.7537   -0.6601 O   0  0  0  0  0  0  0  0  0  0  0  0
   32.1204   71.5018    2.5430 N   0  0  0  0  0  0  0  0  0  0  0  0
   33.0571   71.6863    0.3671 N   0  0  0  0  0  0  0  0  0  0  0  0
   32.7058   70.8479    1.4332 C   0  0  0  0  0  0  0  0  0  0  0  0
   31.9295   72.8781    2.5208 C   0  0  0  0  0  0  0  0  0  0  0  0
   32.2694   73.6640    1.4973 C   0  0  0  0  0  0  0  0  0  0  0  0
   32.8876   73.0597    0.2989 C   0  0  0  0  0  0  0  0  0  0  0  0
   33.4682   71.2541   -0.4162 H   0  0  0  0  0  0  0  0  0  0  0  0
   27.7151   72.9851    2.3864 O   0  0  0  0  0  0  0  0  0  0  0  0
   27.0405   71.6996    1.6752 P   0  0  2  0  0  0  0  0  0  0  0  0
   25.5538   72.2206    1.3029 O   0  0  0  0  0  0  0  0  0  0  0  0
   27.0676   70.4504    2.5076 O   0  0  0  0  0  0  0  0  0  0  0  0
   27.7954   71.5743    0.2550 O   0  0  0  0  0  0  0  0  0  0  0  0
   30.0092   71.7024   -0.5767 O   0  0  0  0  0  0  0  0  0  0  0  0
   27.9491   74.0161   -3.3100 O   0  0  0  0  0  0  0  0  0  0  0  0
   27.3704   74.2299   -0.4545 O   0  0  0  0  0  0  0  0  0  0  0  0
   28.8011   71.3292   -4.0210 O   0  0  0  0  0  0  0  0  0  0  0  0
   28.1265   72.9530   -2.3738 C   0  0  2  0  0  0  0  0  0  0  0  0
   28.4817   73.5314   -1.0039 C   0  0  2  0  0  0  0  0  0  0  0  0
   29.2585   72.0581   -2.8835 C   0  0  1  0  0  0  0  0  0  0  0  0
   28.9028   72.4252   -0.0355 C   0  0  1  0  0  0  0  0  0  0  0  0
   29.7069   71.0646   -1.8156 C   0  0  1  0  0  0  0  0  0  0  0  0
   27.2345   74.5981   -3.0069 H   0  0  0  0  0  0  0  0  0  0  0  0
   27.0976   74.9331   -1.0639 H   0  0  0  0  0  0  0  0  0  0  0  0
   28.5125   71.9500   -4.7082 H   0  0  0  0  0  0  0  0  0  0  0  0
   31.3106   69.4198   -1.3420 O   0  0  0  0  0  0  0  0  0  0  0  0
   31.7039   70.7697   -3.1371 O   0  0  0  0  0  0  0  0  0  0  0  0
   31.0065   70.4311   -2.1927 C   0  0  0  0  0  0  0  0  0  0  0  0
  1  4  1  0
  1 24  1  0
  1  2  1  6
  1  3  2  0
 25 28  1  0
 25 24  1  0
 25 26  1  6
 25 27  2  0
  6 11  1  0
  6 12  1  0
 29 36  1  0
 29 37  1  0
  9  7  1  6
  7 13  1  0
 10  8  1  1
  8 14  1  0
  4  5  1  0
 36 28  1  6
 33 30  1  6
 30 38  1  0
 34 31  1  1
 31 39  1  0
 35 32  1  6
 32 40  1  0
 41 43  1  0
 15 19  2  0
 42 43  2  0
 16 22  2  0
 12 17  1  6
 17 19  1  0
 17 20  1  0
 18 19  1  0
 18 22  1  0
 18 23  1  0
  9 10  1  0
  9 11  1  0
 10 12  1  0
 11  5  1  6
 33 34  1  0
 33 35  1  0
 34 36  1  0
 35 37  1  0
 37 43  1  6
 20 21  2  0
 21 22  1  0
M  CHG  3   2  -1  26  -1  41  -1
M  END
>  <COMPND>  (51) 
    udp_gluA.pdb 

>  <AUTHOR>  (51) 
    GENERATED BY OPEN BABEL 3.1.1

>  <MASTER>  (51) 
        0    0    0    0    0    0    0    0   56    0   56    0

>  <minimizedAffinity>  (51) 
-5.65149

>  <CNNscore>  (51) 
0.4341072738

>  <CNNaffinity>  (51) 
3.7473881245

>  <CNN_VS>  (51) 
1.6267684698

>  <CNNaffinity_variance>  (51) 
0.5533362031

$$$$
52
     RDKit          3D

 43 45  0  0  0  0  0  0  0  0999 V2000
   23.9225   73.5841   -4.5367 P   0  0  2  0  0  0  0  0  0  0  0  0
   24.0637   72.6801   -5.8716 O   0  0  0  0  0  0  0  0  0  0  0  0
   23.6292   75.0351   -4.7823 O   0  0  0  0  0  0  0  0  0  0  0  0
   25.2780   73.2712   -3.7104 O   0  0  0  0  0  0  0  0  0  0  0  0
   26.1688   72.2946   -4.2176 C   0  0  0  0  0  0  0  0  0  0  0  0
   26.8173   70.2331   -3.1653 O   0  0  0  0  0  0  0  0  0  0  0  0
   28.9249   71.8325   -1.7542 O   0  0  0  0  0  0  0  0  0  0  0  0
   30.3326   70.6235   -3.7524 O   0  0  0  0  0  0  0  0  0  0  0  0
   28.4233   71.9723   -3.0836 C   0  0  1  0  0  0  0  0  0  0  0  0
   28.9570   70.8628   -3.9646 C   0  0  2  0  0  0  0  0  0  0  0  0
   26.9315   71.6685   -3.0571 C   0  0  1  0  0  0  0  0  0  0  0  0
   28.0884   69.6868   -3.5517 C   0  0  2  0  0  0  0  0  0  0  0  0
   29.8766   72.0217   -1.7458 H   0  0  0  0  0  0  0  0  0  0  0  0
   30.8427   71.4008   -4.0309 H   0  0  0  0  0  0  0  0  0  0  0  0
   26.4593   67.3865   -3.3750 O   0  0  0  0  0  0  0  0  0  0  0  0
   27.3951   66.1666   -7.7201 O   0  0  0  0  0  0  0  0  0  0  0  0
   27.8885   68.7508   -4.6217 N   0  0  0  0  0  0  0  0  0  0  0  0
   26.9277   66.7806   -5.5389 N   0  0  0  0  0  0  0  0  0  0  0  0
   27.0501   67.6273   -4.4294 C   0  0  0  0  0  0  0  0  0  0  0  0
   28.5173   68.9508   -5.8447 C   0  0  0  0  0  0  0  0  0  0  0  0
   28.3909   68.1350   -6.8931 C   0  0  0  0  0  0  0  0  0  0  0  0
   27.5335   66.9373   -6.7751 C   0  0  0  0  0  0  0  0  0  0  0  0
   26.3508   65.9905   -5.4284 H   0  0  0  0  0  0  0  0  0  0  0  0
   22.7907   72.8027   -3.6874 O   0  0  0  0  0  0  0  0  0  0  0  0
   22.3496   71.2474   -3.6859 P   0  0  2  0  0  0  0  0  0  0  0  0
   21.6511   71.0624   -2.2374 O   0  0  0  0  0  0  0  0  0  0  0  0
   23.4724   70.2886   -3.9580 O   0  0  0  0  0  0  0  0  0  0  0  0
   21.1304   71.1667   -4.7392 O   0  0  0  0  0  0  0  0  0  0  0  0
   20.0833   72.9165   -5.9438 O   0  0  0  0  0  0  0  0  0  0  0  0
   16.9693   70.2438   -5.4666 O   0  0  0  0  0  0  0  0  0  0  0  0
   18.8055   70.7874   -3.2604 O   0  0  0  0  0  0  0  0  0  0  0  0
   18.3008   70.4887   -8.0392 O   0  0  0  0  0  0  0  0  0  0  0  0
   18.3295   70.6434   -5.6350 C   0  0  2  0  0  0  0  0  0  0  0  0
   18.7483   71.5379   -4.4679 C   0  0  2  0  0  0  0  0  0  0  0  0
   18.4378   71.4072   -6.9566 C   0  0  1  0  0  0  0  0  0  0  0  0
   20.1165   72.1700   -4.7268 C   0  0  1  0  0  0  0  0  0  0  0  0
   19.7847   72.1130   -7.0833 C   0  0  1  0  0  0  0  0  0  0  0  0
   16.8762   69.7564   -4.6329 H   0  0  0  0  0  0  0  0  0  0  0  0
   17.9406   70.3832   -3.0901 H   0  0  0  0  0  0  0  0  0  0  0  0
   17.4475   70.0325   -7.9702 H   0  0  0  0  0  0  0  0  0  0  0  0
   18.4844   73.3663   -8.5799 O   0  0  0  0  0  0  0  0  0  0  0  0
   20.7468   73.6238   -8.6999 O   0  0  0  0  0  0  0  0  0  0  0  0
   19.7596   73.1077   -8.1979 C   0  0  0  0  0  0  0  0  0  0  0  0
  1  4  1  0
  1 24  1  0
  1  2  1  6
  1  3  2  0
 25 28  1  0
 25 24  1  0
 25 26  1  1
 25 27  2  0
  6 11  1  0
  6 12  1  0
 29 36  1  0
 29 37  1  0
  9  7  1  1
  7 13  1  0
 10  8  1  1
  8 14  1  0
  4  5  1  0
 36 28  1  6
 33 30  1  1
 30 38  1  0
 34 31  1  1
 31 39  1  0
 35 32  1  6
 32 40  1  0
 41 43  1  0
 15 19  2  0
 42 43  2  0
 16 22  2  0
 12 17  1  6
 17 19  1  0
 17 20  1  0
 18 19  1  0
 18 22  1  0
 18 23  1  0
  9 10  1  0
  9 11  1  0
 10 12  1  0
 11  5  1  6
 33 34  1  0
 33 35  1  0
 34 36  1  0
 35 37  1  0
 37 43  1  6
 20 21  2  0
 21 22  1  0
M  CHG  3   2  -1  26  -1  41  -1
M  END
>  <COMPND>  (52) 
    udp_gluA.pdb 

>  <AUTHOR>  (52) 
    GENERATED BY OPEN BABEL 3.1.1

>  <MASTER>  (52) 
        0    0    0    0    0    0    0    0   56    0   56    0

>  <minimizedAffinity>  (52) 
-7.12889

>  <CNNscore>  (52) 
0.4130308032

>  <CNNaffinity>  (52) 
4.3511452675

>  <CNN_VS>  (52) 
1.7971570492

>  <CNNaffinity_variance>  (52) 
0.1242786422

$$$$
53
     RDKit          3D

 43 45  0  0  0  0  0  0  0  0999 V2000
   22.1521   73.3424   -5.5259 P   0  0  2  0  0  0  0  0  0  0  0  0
   22.7431   74.8191   -5.8245 O   0  0  0  0  0  0  0  0  0  0  0  0
   21.4536   73.1945   -4.2061 O   0  0  0  0  0  0  0  0  0  0  0  0
   23.4168   72.3620   -5.7653 O   0  0  0  0  0  0  0  0  0  0  0  0
   24.5801   72.5556   -4.9820 C   0  0  0  0  0  0  0  0  0  0  0  0
   24.8645   70.4082   -3.9401 O   0  0  0  0  0  0  0  0  0  0  0  0
   24.7735   71.8724   -1.3249 O   0  0  0  0  0  0  0  0  0  0  0  0
   27.4440   71.4482   -1.6777 O   0  0  0  0  0  0  0  0  0  0  0  0
   25.3409   72.2807   -2.5699 C   0  0  1  0  0  0  0  0  0  0  0  0
   26.6304   71.5310   -2.8292 C   0  0  2  0  0  0  0  0  0  0  0  0
   24.4430   71.7659   -3.6866 C   0  0  1  0  0  0  0  0  0  0  0  0
   26.1204   70.1740   -3.2836 C   0  0  2  0  0  0  0  0  0  0  0  0
   25.3300   72.1898   -0.5960 H   0  0  0  0  0  0  0  0  0  0  0  0
   27.7434   72.3372   -1.4289 H   0  0  0  0  0  0  0  0  0  0  0  0
   26.5983   67.3917   -3.3660 O   0  0  0  0  0  0  0  0  0  0  0  0
   29.5768   67.8221   -6.8571 O   0  0  0  0  0  0  0  0  0  0  0  0
   27.0159   69.5322   -4.2040 N   0  0  0  0  0  0  0  0  0  0  0  0
   28.0820   67.6088   -5.1040 N   0  0  0  0  0  0  0  0  0  0  0  0
   27.1843   68.1280   -4.1619 C   0  0  0  0  0  0  0  0  0  0  0  0
   27.7142   70.2910   -5.1355 C   0  0  0  0  0  0  0  0  0  0  0  0
   28.5663   69.7818   -6.0273 C   0  0  0  0  0  0  0  0  0  0  0  0
   28.8000   68.3229   -6.0496 C   0  0  0  0  0  0  0  0  0  0  0  0
   28.2174   66.6337   -5.0927 H   0  0  0  0  0  0  0  0  0  0  0  0
   21.2213   73.0564   -6.8161 O   0  0  0  0  0  0  0  0  0  0  0  0
   20.0964   73.9673   -7.5363 P   0  0  2  0  0  0  0  0  0  0  0  0
   20.8478   74.4990   -8.8678 O   0  0  0  0  0  0  0  0  0  0  0  0
   19.5354   75.0550   -6.6667 O   0  0  0  0  0  0  0  0  0  0  0  0
   19.0025   72.9133   -8.0795 O   0  0  0  0  0  0  0  0  0  0  0  0
   18.4809   70.7233   -7.3441 O   0  0  0  0  0  0  0  0  0  0  0  0
   17.7639   70.4403  -11.4029 O   0  0  0  0  0  0  0  0  0  0  0  0
   20.1084   71.8724  -10.4096 O   0  0  0  0  0  0  0  0  0  0  0  0
   15.5415   70.6218   -9.5377 O   0  0  0  0  0  0  0  0  0  0  0  0
   17.8288   71.0896  -10.1332 C   0  0  2  0  0  0  0  0  0  0  0  0
   19.2652   71.0502   -9.6111 C   0  0  2  0  0  0  0  0  0  0  0  0
   16.8936   70.3487   -9.1748 C   0  0  1  0  0  0  0  0  0  0  0  0
   19.3331   71.5281   -8.1599 C   0  0  1  0  0  0  0  0  0  0  0  0
   17.1103   70.7923   -7.7309 C   0  0  1  0  0  0  0  0  0  0  0  0
   18.3504   70.8939  -12.0286 H   0  0  0  0  0  0  0  0  0  0  0  0
   20.0700   71.5750  -11.3318 H   0  0  0  0  0  0  0  0  0  0  0  0
   15.3904   70.3442  -10.4548 H   0  0  0  0  0  0  0  0  0  0  0  0
   17.1417   69.7705   -5.6199 O   0  0  0  0  0  0  0  0  0  0  0  0
   15.4160   69.2331   -7.0099 O   0  0  0  0  0  0  0  0  0  0  0  0
   16.4458   69.8497   -6.7811 C   0  0  0  0  0  0  0  0  0  0  0  0
  1  4  1  0
  1 24  1  0
  1  2  1  6
  1  3  2  0
 25 28  1  0
 25 24  1  0
 25 26  1  6
 25 27  2  0
  6 11  1  0
  6 12  1  0
 29 36  1  0
 29 37  1  0
  9  7  1  1
  7 13  1  0
 10  8  1  1
  8 14  1  0
  4  5  1  0
 36 28  1  6
 33 30  1  6
 30 38  1  0
 34 31  1  6
 31 39  1  0
 35 32  1  6
 32 40  1  0
 41 43  1  0
 15 19  2  0
 42 43  2  0
 16 22  2  0
 12 17  1  6
 17 19  1  0
 17 20  1  0
 18 19  1  0
 18 22  1  0
 18 23  1  0
  9 10  1  0
  9 11  1  0
 10 12  1  0
 11  5  1  6
 33 34  1  0
 33 35  1  0
 34 36  1  0
 35 37  1  0
 37 43  1  1
 20 21  2  0
 21 22  1  0
M  CHG  3   2  -1  26  -1  41  -1
M  END
>  <COMPND>  (53) 
    udp_gluA.pdb 

>  <AUTHOR>  (53) 
    GENERATED BY OPEN BABEL 3.1.1

>  <MASTER>  (53) 
        0    0    0    0    0    0    0    0   56    0   56    0

>  <minimizedAffinity>  (53) 
-7.56904

>  <CNNscore>  (53) 
0.3616127670

>  <CNNaffinity>  (53) 
4.2664384842

>  <CNN_VS>  (53) 
1.5427986383

>  <CNNaffinity_variance>  (53) 
0.1046002731

$$$$
54
     RDKit          3D

 43 45  0  0  0  0  0  0  0  0999 V2000
   22.4525   72.0160   -4.6193 P   0  0  2  0  0  0  0  0  0  0  0  0
   21.8100   70.6142   -5.1103 O   0  0  0  0  0  0  0  0  0  0  0  0
   22.1359   72.3964   -3.2027 O   0  0  0  0  0  0  0  0  0  0  0  0
   21.9876   73.0742   -5.7516 O   0  0  0  0  0  0  0  0  0  0  0  0
   20.7155   72.9083   -6.3505 C   0  0  0  0  0  0  0  0  0  0  0  0
   20.2610   71.4663   -8.2192 O   0  0  0  0  0  0  0  0  0  0  0  0
   20.8683   73.8343   -9.9557 O   0  0  0  0  0  0  0  0  0  0  0  0
   18.1418   73.7830   -9.9502 O   0  0  0  0  0  0  0  0  0  0  0  0
   20.2184   73.7883   -8.6852 C   0  0  1  0  0  0  0  0  0  0  0  0
   18.8151   73.2398   -8.8339 C   0  0  2  0  0  0  0  0  0  0  0  0
   20.8952   72.7100   -7.8501 C   0  0  1  0  0  0  0  0  0  0  0  0
   19.0724   71.7492   -8.9746 C   0  0  2  0  0  0  0  0  0  0  0  0
   20.4530   74.5163  -10.5072 H   0  0  0  0  0  0  0  0  0  0  0  0
   18.0015   74.7334   -9.8120 H   0  0  0  0  0  0  0  0  0  0  0  0
   16.7924   71.0018  -10.4644 O   0  0  0  0  0  0  0  0  0  0  0  0
   14.9909   68.7030   -6.8987 O   0  0  0  0  0  0  0  0  0  0  0  0
   17.9923   70.9557   -8.4603 N   0  0  0  0  0  0  0  0  0  0  0  0
   15.8968   69.8585   -8.6867 N   0  0  0  0  0  0  0  0  0  0  0  0
   16.8929   70.6362   -9.2917 C   0  0  0  0  0  0  0  0  0  0  0  0
   18.0294   70.5014   -7.1475 C   0  0  0  0  0  0  0  0  0  0  0  0
   17.0724   69.7608   -6.5850 C   0  0  0  0  0  0  0  0  0  0  0  0
   15.8888   69.3837   -7.3851 C   0  0  0  0  0  0  0  0  0  0  0  0
   15.1204   69.6250   -9.2453 H   0  0  0  0  0  0  0  0  0  0  0  0
   24.0271   71.8215   -4.9284 O   0  0  0  0  0  0  0  0  0  0  0  0
   25.2608   72.8634   -4.8498 P   0  0  2  0  0  0  0  0  0  0  0  0
   25.0749   73.5478   -3.3947 O   0  0  0  0  0  0  0  0  0  0  0  0
   25.3164   73.8391   -5.9896 O   0  0  0  0  0  0  0  0  0  0  0  0
   26.5715   71.9351   -4.6987 O   0  0  0  0  0  0  0  0  0  0  0  0
   26.6487   69.9333   -3.4353 O   0  0  0  0  0  0  0  0  0  0  0  0
   30.6286   71.0398   -3.5013 O   0  0  0  0  0  0  0  0  0  0  0  0
   28.5422   73.0402   -3.0766 O   0  0  0  0  0  0  0  0  0  0  0  0
   29.6890   68.8703   -5.1928 O   0  0  0  0  0  0  0  0  0  0  0  0
   29.2978   70.9305   -4.0064 C   0  0  2  0  0  0  0  0  0  0  0  0
   28.3297   71.6334   -3.0545 C   0  0  2  0  0  0  0  0  0  0  0  0
   28.9533   69.4433   -4.1135 C   0  0  1  0  0  0  0  0  0  0  0  0
   26.8780   71.3429   -3.4377 C   0  0  1  0  0  0  0  0  0  0  0  0
   27.4642   69.2337   -4.3726 C   0  0  1  0  0  0  0  0  0  0  0  0
   30.8696   71.9765   -3.4246 H   0  0  0  0  0  0  0  0  0  0  0  0
   29.4616   73.2317   -2.8347 H   0  0  0  0  0  0  0  0  0  0  0  0
   30.6385   68.9971   -5.0402 H   0  0  0  0  0  0  0  0  0  0  0  0
   27.2106   67.0921   -5.2950 O   0  0  0  0  0  0  0  0  0  0  0  0
   26.7086   67.3386   -3.0845 O   0  0  0  0  0  0  0  0  0  0  0  0
   27.0828   67.8064   -4.1495 C   0  0  0  0  0  0  0  0  0  0  0  0
  1  4  1  0
  1 24  1  0
  1  2  1  6
  1  3  2  0
 25 28  1  0
 25 24  1  0
 25 26  1  1
 25 27  2  0
  6 11  1  0
  6 12  1  0
 29 36  1  0
 29 37  1  0
  9  7  1  6
  7 13  1  0
 10  8  1  6
  8 14  1  0
  4  5  1  0
 36 28  1  6
 33 30  1  1
 30 38  1  0
 34 31  1  6
 31 39  1  0
 35 32  1  6
 32 40  1  0
 41 43  1  0
 15 19  2  0
 42 43  2  0
 16 22  2  0
 12 17  1  1
 17 19  1  0
 17 20  1  0
 18 19  1  0
 18 22  1  0
 18 23  1  0
  9 10  1  0
  9 11  1  0
 10 12  1  0
 11  5  1  1
 33 34  1  0
 33 35  1  0
 34 36  1  0
 35 37  1  0
 37 43  1  1
 20 21  2  0
 21 22  1  0
M  CHG  3   2  -1  26  -1  41  -1
M  END
>  <COMPND>  (54) 
    udp_gluA.pdb 

>  <AUTHOR>  (54) 
    GENERATED BY OPEN BABEL 3.1.1

>  <MASTER>  (54) 
        0    0    0    0    0    0    0    0   56    0   56    0

>  <minimizedAffinity>  (54) 
-7.78525

>  <CNNscore>  (54) 
0.3615682721

>  <CNNaffinity>  (54) 
4.1601362228

>  <CNN_VS>  (54) 
1.5041732788

>  <CNNaffinity_variance>  (54) 
0.0584528223

$$$$
55
     RDKit          3D

 43 45  0  0  0  0  0  0  0  0999 V2000
   28.2939   71.8658   -2.0286 P   0  0  2  0  0  0  0  0  0  0  0  0
   28.8199   71.3821   -0.5766 O   0  0  0  0  0  0  0  0  0  0  0  0
   29.3627   72.0202   -3.0705 O   0  0  0  0  0  0  0  0  0  0  0  0
   27.4300   73.1953   -1.7058 O   0  0  0  0  0  0  0  0  0  0  0  0
   26.6165   73.2082   -0.5471 C   0  0  0  0  0  0  0  0  0  0  0  0
   25.3083   71.5245    0.5625 O   0  0  0  0  0  0  0  0  0  0  0  0
   23.3752   71.7907   -1.7142 O   0  0  0  0  0  0  0  0  0  0  0  0
   22.1783   73.2460    0.2570 O   0  0  0  0  0  0  0  0  0  0  0  0
   24.1622   72.7958   -1.0748 C   0  0  1  0  0  0  0  0  0  0  0  0
   23.5852   73.1269    0.2853 C   0  0  2  0  0  0  0  0  0  0  0  0
   25.5054   72.1789   -0.7095 C   0  0  1  0  0  0  0  0  0  0  0  0
   24.0557   71.9497    1.1224 C   0  0  2  0  0  0  0  0  0  0  0  0
   22.5118   72.1613   -1.9570 H   0  0  0  0  0  0  0  0  0  0  0  0
   21.9293   74.0095   -0.2881 H   0  0  0  0  0  0  0  0  0  0  0  0
   23.1113   70.4328    3.3096 O   0  0  0  0  0  0  0  0  0  0  0  0
   24.8807   73.3966    6.3640 O   0  0  0  0  0  0  0  0  0  0  0  0
   24.2555   72.3019    2.4997 N   0  0  0  0  0  0  0  0  0  0  0  0
   23.9926   71.9109    4.8287 N   0  0  0  0  0  0  0  0  0  0  0  0
   23.7399   71.4712    3.5226 C   0  0  0  0  0  0  0  0  0  0  0  0
   24.9562   73.4568    2.8257 C   0  0  0  0  0  0  0  0  0  0  0  0
   25.1891   73.8628    4.0754 C   0  0  0  0  0  0  0  0  0  0  0  0
   24.6836   73.0521    5.2026 C   0  0  0  0  0  0  0  0  0  0  0  0
   23.6416   71.3501    5.5578 H   0  0  0  0  0  0  0  0  0  0  0  0
   27.1582   70.7724   -2.3859 O   0  0  0  0  0  0  0  0  0  0  0  0
   26.3788   70.4647   -3.7684 P   0  0  2  0  0  0  0  0  0  0  0  0
   26.5119   71.8556   -4.5856 O   0  0  0  0  0  0  0  0  0  0  0  0
   24.9671   69.9870   -3.5863 O   0  0  0  0  0  0  0  0  0  0  0  0
   27.3373   69.4351   -4.5582 O   0  0  0  0  0  0  0  0  0  0  0  0
   26.8438   67.1870   -5.1166 O   0  0  0  0  0  0  0  0  0  0  0  0
   30.9675   67.1084   -4.8786 O   0  0  0  0  0  0  0  0  0  0  0  0
   29.3977   68.5755   -2.8993 O   0  0  0  0  0  0  0  0  0  0  0  0
   29.6551   67.0918   -7.4724 O   0  0  0  0  0  0  0  0  0  0  0  0
   29.6879   67.6859   -5.1377 C   0  0  2  0  0  0  0  0  0  0  0  0
   28.8529   67.6752   -3.8571 C   0  0  2  0  0  0  0  0  0  0  0  0
   29.0050   66.8537   -6.2254 C   0  0  1  0  0  0  0  0  0  0  0  0
   27.4041   68.0714   -4.1453 C   0  0  1  0  0  0  0  0  0  0  0  0
   27.5309   67.2221   -6.3655 C   0  0  1  0  0  0  0  0  0  0  0  0
   31.4203   67.6207   -4.1902 H   0  0  0  0  0  0  0  0  0  0  0  0
   30.3170   68.3302   -2.7119 H   0  0  0  0  0  0  0  0  0  0  0  0
   30.5942   66.8614   -7.3967 H   0  0  0  0  0  0  0  0  0  0  0  0
   26.8082   66.5401   -8.4902 O   0  0  0  0  0  0  0  0  0  0  0  0
   26.2765   65.1933   -6.7288 O   0  0  0  0  0  0  0  0  0  0  0  0
   26.8035   66.2003   -7.1774 C   0  0  0  0  0  0  0  0  0  0  0  0
  1  4  1  0
  1 24  1  0
  1  2  1  1
  1  3  2  0
 25 28  1  0
 25 24  1  0
 25 26  1  6
 25 27  2  0
  6 11  1  0
  6 12  1  0
 29 36  1  0
 29 37  1  0
  9  7  1  1
  7 13  1  0
 10  8  1  6
  8 14  1  0
  4  5  1  0
 36 28  1  6
 33 30  1  1
 30 38  1  0
 34 31  1  1
 31 39  1  0
 35 32  1  6
 32 40  1  0
 41 43  1  0
 15 19  2  0
 42 43  2  0
 16 22  2  0
 12 17  1  1
 17 19  1  0
 17 20  1  0
 18 19  1  0
 18 22  1  0
 18 23  1  0
  9 10  1  0
  9 11  1  0
 10 12  1  0
 11  5  1  1
 33 34  1  0
 33 35  1  0
 34 36  1  0
 35 37  1  0
 37 43  1  6
 20 21  2  0
 21 22  1  0
M  CHG  3   2  -1  26  -1  41  -1
M  END
>  <COMPND>  (55) 
    udp_gluA.pdb 

>  <AUTHOR>  (55) 
    GENERATED BY OPEN BABEL 3.1.1

>  <MASTER>  (55) 
        0    0    0    0    0    0    0    0   56    0   56    0

>  <minimizedAffinity>  (55) 
-7.44294

>  <CNNscore>  (55) 
0.3561476767

>  <CNNaffinity>  (55) 
3.9834399223

>  <CNN_VS>  (55) 
1.4186928272

>  <CNNaffinity_variance>  (55) 
0.0926293507

$$$$
56
     RDKit          3D

 43 45  0  0  0  0  0  0  0  0999 V2000
   25.6678   72.9430   -2.3516 P   0  0  2  0  0  0  0  0  0  0  0  0
   25.1254   73.4167   -0.9023 O   0  0  0  0  0  0  0  0  0  0  0  0
   25.7173   71.4570   -2.5548 O   0  0  0  0  0  0  0  0  0  0  0  0
   27.0771   73.7214   -2.5124 O   0  0  0  0  0  0  0  0  0  0  0  0
   28.1767   73.0217   -3.0652 C   0  0  0  0  0  0  0  0  0  0  0  0
   28.7405   70.8917   -2.1044 O   0  0  0  0  0  0  0  0  0  0  0  0
   30.9518   72.3296   -0.6781 O   0  0  0  0  0  0  0  0  0  0  0  0
   32.2593   71.1300   -2.7487 O   0  0  0  0  0  0  0  0  0  0  0  0
   30.4330   72.5450   -1.9908 C   0  0  1  0  0  0  0  0  0  0  0  0
   30.8938   71.4450   -2.9235 C   0  0  2  0  0  0  0  0  0  0  0  0
   28.9287   72.3146   -1.9450 C   0  0  1  0  0  0  0  0  0  0  0  0
   29.9750   70.2985   -2.5371 C   0  0  2  0  0  0  0  0  0  0  0  0
   31.9118   72.4710   -0.6823 H   0  0  0  0  0  0  0  0  0  0  0  0
   32.8025   71.8913   -3.0084 H   0  0  0  0  0  0  0  0  0  0  0  0
   31.4159   67.9272   -3.0639 O   0  0  0  0  0  0  0  0  0  0  0  0
   28.8648   66.9873   -6.7858 O   0  0  0  0  0  0  0  0  0  0  0  0
   29.7084   69.4153   -3.6370 N   0  0  0  0  0  0  0  0  0  0  0  0
   30.1446   67.4619   -4.9177 N   0  0  0  0  0  0  0  0  0  0  0  0
   30.4914   68.2498   -3.8122 C   0  0  0  0  0  0  0  0  0  0  0  0
   28.6811   69.7058   -4.5265 C   0  0  0  0  0  0  0  0  0  0  0  0
   28.3624   68.9451   -5.5755 C   0  0  0  0  0  0  0  0  0  0  0  0
   29.1321   67.7098   -5.8303 C   0  0  0  0  0  0  0  0  0  0  0  0
   30.6769   66.6462   -5.0614 H   0  0  0  0  0  0  0  0  0  0  0  0
   24.6982   73.7309   -3.3772 O   0  0  0  0  0  0  0  0  0  0  0  0
   24.3291   73.4405   -4.9241 P   0  0  2  0  0  0  0  0  0  0  0  0
   25.7284   72.9158   -5.5461 O   0  0  0  0  0  0  0  0  0  0  0  0
   23.7331   74.6144   -5.6458 O   0  0  0  0  0  0  0  0  0  0  0  0
   23.3864   72.1321   -4.8813 O   0  0  0  0  0  0  0  0  0  0  0  0
   21.3978   72.5120   -3.6524 O   0  0  0  0  0  0  0  0  0  0  0  0
   21.1342   68.4666   -4.4485 O   0  0  0  0  0  0  0  0  0  0  0  0
   23.6801   69.6558   -3.6492 O   0  0  0  0  0  0  0  0  0  0  0  0
   19.5023   70.3562   -5.9376 O   0  0  0  0  0  0  0  0  0  0  0  0
   21.5001   69.8233   -4.7007 C   0  0  2  0  0  0  0  0  0  0  0  0
   22.4231   70.3198   -3.5876 C   0  0  2  0  0  0  0  0  0  0  0  0
   20.2186   70.6588   -4.7419 C   0  0  1  0  0  0  0  0  0  0  0  0
   22.6507   71.8281   -3.6976 C   0  0  1  0  0  0  0  0  0  0  0  0
   20.5271   72.1532   -4.7231 C   0  0  1  0  0  0  0  0  0  0  0  0
   21.9328   67.9165   -4.4180 H   0  0  0  0  0  0  0  0  0  0  0  0
   23.5432   68.6983   -3.5803 H   0  0  0  0  0  0  0  0  0  0  0  0
   19.2999   69.4079   -5.9620 H   0  0  0  0  0  0  0  0  0  0  0  0
   18.5921   73.1724   -5.5706 O   0  0  0  0  0  0  0  0  0  0  0  0
   18.9565   73.3374   -3.3259 O   0  0  0  0  0  0  0  0  0  0  0  0
   19.2943   72.9457   -4.4329 C   0  0  0  0  0  0  0  0  0  0  0  0
  1  4  1  0
  1 24  1  0
  1  2  1  1
  1  3  2  0
 25 28  1  0
 25 24  1  0
 25 26  1  6
 25 27  2  0
  6 11  1  0
  6 12  1  0
 29 36  1  0
 29 37  1  0
  9  7  1  1
  7 13  1  0
 10  8  1  1
  8 14  1  0
  4  5  1  0
 36 28  1  6
 33 30  1  1
 30 38  1  0
 34 31  1  6
 31 39  1  0
 35 32  1  6
 32 40  1  0
 41 43  1  0
 15 19  2  0
 42 43  2  0
 16 22  2  0
 12 17  1  6
 17 19  1  0
 17 20  1  0
 18 19  1  0
 18 22  1  0
 18 23  1  0
  9 10  1  0
  9 11  1  0
 10 12  1  0
 11  5  1  6
 33 34  1  0
 33 35  1  0
 34 36  1  0
 35 37  1  0
 37 43  1  1
 20 21  2  0
 21 22  1  0
M  CHG  3   2  -1  26  -1  41  -1
M  END
>  <COMPND>  (56) 
    udp_gluA.pdb 

>  <AUTHOR>  (56) 
    GENERATED BY OPEN BABEL 3.1.1

>  <MASTER>  (56) 
        0    0    0    0    0    0    0    0   56    0   56    0

>  <minimizedAffinity>  (56) 
-6.56325

>  <CNNscore>  (56) 
0.3484709561

>  <CNNaffinity>  (56) 
4.2251191139

>  <CNN_VS>  (56) 
1.4723312855

>  <CNNaffinity_variance>  (56) 
0.1603514701

$$$$
57
     RDKit          3D

 43 45  0  0  0  0  0  0  0  0999 V2000
   31.8665   70.7835    0.1934 P   0  0  2  0  0  0  0  0  0  0  0  0
   32.0029   69.4245    1.0614 O   0  0  0  0  0  0  0  0  0  0  0  0
   33.1543   71.3051   -0.3735 O   0  0  0  0  0  0  0  0  0  0  0  0
   31.0711   71.7936    1.1757 O   0  0  0  0  0  0  0  0  0  0  0  0
   30.5042   71.2742    2.3646 C   0  0  0  0  0  0  0  0  0  0  0  0
   30.7423   72.5885    4.3630 O   0  0  0  0  0  0  0  0  0  0  0  0
   32.9190   70.6772    5.1378 O   0  0  0  0  0  0  0  0  0  0  0  0
   30.8025   69.8016    6.6176 O   0  0  0  0  0  0  0  0  0  0  0  0
   31.6975   70.4225    4.4438 C   0  0  1  0  0  0  0  0  0  0  0  0
   30.5286   70.4713    5.4048 C   0  0  2  0  0  0  0  0  0  0  0  0
   31.4150   71.6130    3.5376 C   0  0  1  0  0  0  0  0  0  0  0  0
   30.3372   71.9666    5.5928 C   0  0  2  0  0  0  0  0  0  0  0  0
   33.1205   69.9300    5.7233 H   0  0  0  0  0  0  0  0  0  0  0  0
   30.9159   68.8533    6.4448 H   0  0  0  0  0  0  0  0  0  0  0  0
   29.4783   73.3998    7.8698 O   0  0  0  0  0  0  0  0  0  0  0  0
   25.0708   73.2447    6.5304 O   0  0  0  0  0  0  0  0  0  0  0  0
   28.9711   72.3143    5.8641 N   0  0  0  0  0  0  0  0  0  0  0  0
   27.2838   73.3203    7.2010 N   0  0  0  0  0  0  0  0  0  0  0  0
   28.6459   73.0359    7.0369 C   0  0  0  0  0  0  0  0  0  0  0  0
   27.9710   71.9431    4.9736 C   0  0  0  0  0  0  0  0  0  0  0  0
   26.6770   72.2215    5.1435 C   0  0  0  0  0  0  0  0  0  0  0  0
   26.2527   72.9717    6.3438 C   0  0  0  0  0  0  0  0  0  0  0  0
   27.0328   73.8201    8.0113 H   0  0  0  0  0  0  0  0  0  0  0  0
   30.7516   70.3980   -0.9116 O   0  0  0  0  0  0  0  0  0  0  0  0
   29.9466   71.3151   -1.9720 P   0  0  2  0  0  0  0  0  0  0  0  0
   31.0958   71.7644   -3.0197 O   0  0  0  0  0  0  0  0  0  0  0  0
   29.1943   72.4570   -1.3521 O   0  0  0  0  0  0  0  0  0  0  0  0
   29.0274   70.2768   -2.7963 O   0  0  0  0  0  0  0  0  0  0  0  0
   28.7535   69.9139   -5.1206 O   0  0  0  0  0  0  0  0  0  0  0  0
   24.9410   69.1923   -3.7020 O   0  0  0  0  0  0  0  0  0  0  0  0
   26.5028   71.4376   -2.6754 O   0  0  0  0  0  0  0  0  0  0  0  0
   26.6541   66.9747   -4.4755 O   0  0  0  0  0  0  0  0  0  0  0  0
   26.3674   69.2199   -3.6498 C   0  0  2  0  0  0  0  0  0  0  0  0
   26.8577   70.6589   -3.8122 C   0  0  2  0  0  0  0  0  0  0  0  0
   26.8992   68.3449   -4.7871 C   0  0  1  0  0  0  0  0  0  0  0  0
   28.3758   70.7027   -3.9916 C   0  0  1  0  0  0  0  0  0  0  0  0
   28.3998   68.5393   -4.9845 C   0  0  1  0  0  0  0  0  0  0  0  0
   24.5805   69.7418   -2.9883 H   0  0  0  0  0  0  0  0  0  0  0  0
   25.5408   71.4141   -2.5554 H   0  0  0  0  0  0  0  0  0  0  0  0
   25.7025   66.8375   -4.3472 H   0  0  0  0  0  0  0  0  0  0  0  0
   27.7778   67.5476   -7.0171 O   0  0  0  0  0  0  0  0  0  0  0  0
   30.0079   67.8394   -6.6415 O   0  0  0  0  0  0  0  0  0  0  0  0
   28.8450   67.9483   -6.2825 C   0  0  0  0  0  0  0  0  0  0  0  0
  1  4  1  0
  1 24  1  0
  1  2  1  1
  1  3  2  0
 25 28  1  0
 25 24  1  0
 25 26  1  6
 25 27  2  0
  6 11  1  0
  6 12  1  0
 29 36  1  0
 29 37  1  0
  9  7  1  1
  7 13  1  0
 10  8  1  1
  8 14  1  0
  4  5  1  0
 36 28  1  1
 33 30  1  6
 30 38  1  0
 34 31  1  1
 31 39  1  0
 35 32  1  1
 32 40  1  0
 41 43  1  0
 15 19  2  0
 42 43  2  0
 16 22  2  0
 12 17  1  6
 17 19  1  0
 17 20  1  0
 18 19  1  0
 18 22  1  0
 18 23  1  0
  9 10  1  0
  9 11  1  0
 10 12  1  0
 11  5  1  6
 33 34  1  0
 33 35  1  0
 34 36  1  0
 35 37  1  0
 37 43  1  6
 20 21  2  0
 21 22  1  0
M  CHG  3   2  -1  26  -1  41  -1
M  END
>  <COMPND>  (57) 
    udp_gluA.pdb 

>  <AUTHOR>  (57) 
    GENERATED BY OPEN BABEL 3.1.1

>  <MASTER>  (57) 
        0    0    0    0    0    0    0    0   56    0   56    0

>  <minimizedAffinity>  (57) 
-6.87318

>  <CNNscore>  (57) 
0.3146098554

>  <CNNaffinity>  (57) 
3.7743816376

>  <CNN_VS>  (57) 
1.1874576807

>  <CNNaffinity_variance>  (57) 
0.2299942076

$$$$
58
     RDKit          3D

 43 45  0  0  0  0  0  0  0  0999 V2000
   28.3436   71.2124    2.0982 P   0  0  2  0  0  0  0  0  0  0  0  0
   27.8735   72.1879    0.8955 O   0  0  0  0  0  0  0  0  0  0  0  0
   27.2283   70.5195    2.8246 O   0  0  0  0  0  0  0  0  0  0  0  0
   29.2990   72.1496    3.0076 O   0  0  0  0  0  0  0  0  0  0  0  0
   29.6107   71.7241    4.3215 C   0  0  0  0  0  0  0  0  0  0  0  0
   31.9326   71.5763    3.7177 O   0  0  0  0  0  0  0  0  0  0  0  0
   32.0447   69.1528    5.4800 O   0  0  0  0  0  0  0  0  0  0  0  0
   33.1394   71.0884    7.0583 O   0  0  0  0  0  0  0  0  0  0  0  0
   31.2984   70.3583    5.6477 C   0  0  1  0  0  0  0  0  0  0  0  0
   32.2146   71.4878    6.0685 C   0  0  2  0  0  0  0  0  0  0  0  0
   30.8352   70.8193    4.2725 C   0  0  1  0  0  0  0  0  0  0  0  0
   32.8853   71.8554    4.7559 C   0  0  2  0  0  0  0  0  0  0  0  0
   32.3514   68.8389    6.3455 H   0  0  0  0  0  0  0  0  0  0  0  0
   32.6635   70.8652    7.8742 H   0  0  0  0  0  0  0  0  0  0  0  0
   35.0601   72.8720    3.2682 O   0  0  0  0  0  0  0  0  0  0  0  0
   34.1846   77.1972    4.5985 O   0  0  0  0  0  0  0  0  0  0  0  0
   33.2483   73.2430    4.6957 N   0  0  0  0  0  0  0  0  0  0  0  0
   34.6226   75.0251    3.9330 N   0  0  0  0  0  0  0  0  0  0  0  0
   34.3589   73.6491    3.9188 C   0  0  0  0  0  0  0  0  0  0  0  0
   32.5073   74.1849    5.3992 C   0  0  0  0  0  0  0  0  0  0  0  0
   32.7708   75.4930    5.4030 C   0  0  0  0  0  0  0  0  0  0  0  0
   33.9150   76.0000    4.6173 C   0  0  0  0  0  0  0  0  0  0  0  0
   35.3923   75.3315    3.4010 H   0  0  0  0  0  0  0  0  0  0  0  0
   29.3928   70.2203    1.3717 O   0  0  0  0  0  0  0  0  0  0  0  0
   30.6147   70.5254    0.3581 P   0  0  2  0  0  0  0  0  0  0  0  0
   31.7495   69.4664    0.8175 O   0  0  0  0  0  0  0  0  0  0  0  0
   31.0694   71.9562    0.3547 O   0  0  0  0  0  0  0  0  0  0  0  0
   30.1053   69.9814   -1.0726 O   0  0  0  0  0  0  0  0  0  0  0  0
   31.3022   69.1955   -2.9591 O   0  0  0  0  0  0  0  0  0  0  0  0
   28.0671   71.0558   -4.7313 O   0  0  0  0  0  0  0  0  0  0  0  0
   29.4264   72.2938   -2.4610 O   0  0  0  0  0  0  0  0  0  0  0  0
   28.1803   68.1548   -4.5818 O   0  0  0  0  0  0  0  0  0  0  0  0
   28.7556   70.3278   -3.7144 C   0  0  2  0  0  0  0  0  0  0  0  0
   29.9159   71.1679   -3.1802 C   0  0  2  0  0  0  0  0  0  0  0  0
   29.2790   69.0301   -4.3340 C   0  0  1  0  0  0  0  0  0  0  0  0
   30.8122   70.3395   -2.2587 C   0  0  1  0  0  0  0  0  0  0  0  0
   30.2633   68.3263   -3.4043 C   0  0  1  0  0  0  0  0  0  0  0  0
   27.7255   71.8848   -4.3607 H   0  0  0  0  0  0  0  0  0  0  0  0
   28.8566   72.8238   -3.0397 H   0  0  0  0  0  0  0  0  0  0  0  0
   27.5463   68.5909   -5.1722 H   0  0  0  0  0  0  0  0  0  0  0  0
   30.5718   67.1548   -5.4128 O   0  0  0  0  0  0  0  0  0  0  0  0
   31.8958   66.5671   -3.6519 O   0  0  0  0  0  0  0  0  0  0  0  0
   31.0098   67.2571   -4.1334 C   0  0  0  0  0  0  0  0  0  0  0  0
  1  4  1  0
  1 24  1  0
  1  2  1  6
  1  3  2  0
 25 28  1  0
 25 24  1  0
 25 26  1  1
 25 27  2  0
  6 11  1  0
  6 12  1  0
 29 36  1  0
 29 37  1  0
  9  7  1  6
  7 13  1  0
 10  8  1  1
  8 14  1  0
  4  5  1  0
 36 28  1  1
 33 30  1  6
 30 38  1  0
 34 31  1  1
 31 39  1  0
 35 32  1  1
 32 40  1  0
 41 43  1  0
 15 19  2  0
 42 43  2  0
 16 22  2  0
 12 17  1  1
 17 19  1  0
 17 20  1  0
 18 19  1  0
 18 22  1  0
 18 23  1  0
  9 10  1  0
  9 11  1  0
 10 12  1  0
 11  5  1  1
 33 34  1  0
 33 35  1  0
 34 36  1  0
 35 37  1  0
 37 43  1  6
 20 21  2  0
 21 22  1  0
M  CHG  3   2  -1  26  -1  41  -1
M  END
>  <COMPND>  (58) 
    udp_gluA.pdb 

>  <AUTHOR>  (58) 
    GENERATED BY OPEN BABEL 3.1.1

>  <MASTER>  (58) 
        0    0    0    0    0    0    0    0   56    0   56    0

>  <minimizedAffinity>  (58) 
-6.87743

>  <CNNscore>  (58) 
0.2899678051

>  <CNNaffinity>  (58) 
3.8851838112

>  <CNN_VS>  (58) 
1.1265782118

>  <CNNaffinity_variance>  (58) 
0.0911633298

$$$$
59
     RDKit          3D

 43 45  0  0  0  0  0  0  0  0999 V2000
   30.0680   72.5556    0.3019 P   0  0  2  0  0  0  0  0  0  0  0  0
   30.9878   71.8519    1.4322 O   0  0  0  0  0  0  0  0  0  0  0  0
   30.4531   73.9648   -0.0412 O   0  0  0  0  0  0  0  0  0  0  0  0
   28.5585   72.3529    0.8479 O   0  0  0  0  0  0  0  0  0  0  0  0
   28.3491   71.4944    1.9541 C   0  0  0  0  0  0  0  0  0  0  0  0
   26.3692   72.8434    2.1480 O   0  0  0  0  0  0  0  0  0  0  0  0
   26.1989   71.8568    4.9745 O   0  0  0  0  0  0  0  0  0  0  0  0
   24.3591   70.3068    3.6905 O   0  0  0  0  0  0  0  0  0  0  0  0
   26.6305   71.1673    3.8012 C   0  0  1  0  0  0  0  0  0  0  0  0
   25.4409   70.8107    2.9353 C   0  0  2  0  0  0  0  0  0  0  0  0
   27.3788   72.1596    2.9216 C   0  0  1  0  0  0  0  0  0  0  0  0
   25.1228   72.1405    2.2733 C   0  0  2  0  0  0  0  0  0  0  0  0
   25.7181   71.2430    5.5522 H   0  0  0  0  0  0  0  0  0  0  0  0
   24.6113   69.4596    4.0911 H   0  0  0  0  0  0  0  0  0  0  0  0
   22.4041   71.5417    1.7970 O   0  0  0  0  0  0  0  0  0  0  0  0
   23.0151   71.5436   -2.7714 O   0  0  0  0  0  0  0  0  0  0  0  0
   24.5446   71.9791    0.9692 N   0  0  0  0  0  0  0  0  0  0  0  0
   22.7112   71.5422   -0.4778 N   0  0  0  0  0  0  0  0  0  0  0  0
   23.1680   71.6788    0.8397 C   0  0  0  0  0  0  0  0  0  0  0  0
   25.3376   72.1196   -0.1632 C   0  0  0  0  0  0  0  0  0  0  0  0
   24.8879   71.9866   -1.4125 C   0  0  0  0  0  0  0  0  0  0  0  0
   23.4614   71.6721   -1.6354 C   0  0  0  0  0  0  0  0  0  0  0  0
   21.7565   71.3311   -0.5933 H   0  0  0  0  0  0  0  0  0  0  0  0
   30.1507   71.5154   -0.9326 O   0  0  0  0  0  0  0  0  0  0  0  0
   31.4008   70.6953   -1.5477 P   0  0  2  0  0  0  0  0  0  0  0  0
   31.5101   69.4046   -0.5769 O   0  0  0  0  0  0  0  0  0  0  0  0
   32.6668   71.4946   -1.6587 O   0  0  0  0  0  0  0  0  0  0  0  0
   30.8555   70.1070   -2.9473 O   0  0  0  0  0  0  0  0  0  0  0  0
   28.5775   69.4660   -3.0421 O   0  0  0  0  0  0  0  0  0  0  0  0
   30.0799   67.7418   -6.4828 O   0  0  0  0  0  0  0  0  0  0  0  0
   31.5985   67.6375   -3.9893 O   0  0  0  0  0  0  0  0  0  0  0  0
   28.4704   70.1572   -6.6439 O   0  0  0  0  0  0  0  0  0  0  0  0
   29.9905   68.7208   -5.4477 C   0  0  2  0  0  0  0  0  0  0  0  0
   30.2432   68.0582   -4.0932 C   0  0  2  0  0  0  0  0  0  0  0  0
   28.5859   69.3269   -5.4900 C   0  0  1  0  0  0  0  0  0  0  0  0
   29.9311   69.0207   -2.9465 C   0  0  1  0  0  0  0  0  0  0  0  0
   28.3064   70.1723   -4.2508 C   0  0  1  0  0  0  0  0  0  0  0  0
   30.9643   67.3428   -6.4752 H   0  0  0  0  0  0  0  0  0  0  0  0
   31.8035   67.0267   -4.7140 H   0  0  0  0  0  0  0  0  0  0  0  0
   28.6462   69.6312   -7.4397 H   0  0  0  0  0  0  0  0  0  0  0  0
   26.2084   69.5215   -3.4283 O   0  0  0  0  0  0  0  0  0  0  0  0
   26.3029   71.4665   -4.6147 O   0  0  0  0  0  0  0  0  0  0  0  0
   26.8493   70.4829   -4.1381 C   0  0  0  0  0  0  0  0  0  0  0  0
  1  4  1  0
  1 24  1  0
  1  2  1  1
  1  3  2  0
 25 28  1  0
 25 24  1  0
 25 26  1  1
 25 27  2  0
  6 11  1  0
  6 12  1  0
 29 36  1  0
 29 37  1  0
  9  7  1  1
  7 13  1  0
 10  8  1  1
  8 14  1  0
  4  5  1  0
 36 28  1  6
 33 30  1  6
 30 38  1  0
 34 31  1  6
 31 39  1  0
 35 32  1  6
 32 40  1  0
 41 43  1  0
 15 19  2  0
 42 43  2  0
 16 22  2  0
 12 17  1  6
 17 19  1  0
 17 20  1  0
 18 19  1  0
 18 22  1  0
 18 23  1  0
  9 10  1  0
  9 11  1  0
 10 12  1  0
 11  5  1  6
 33 34  1  0
 33 35  1  0
 34 36  1  0
 35 37  1  0
 37 43  1  1
 20 21  2  0
 21 22  1  0
M  CHG  3   2  -1  26  -1  41  -1
M  END
>  <COMPND>  (59) 
    udp_gluA.pdb 

>  <AUTHOR>  (59) 
    GENERATED BY OPEN BABEL 3.1.1

>  <MASTER>  (59) 
        0    0    0    0    0    0    0    0   56    0   56    0

>  <minimizedAffinity>  (59) 
-6.93102

>  <CNNscore>  (59) 
0.2789970338

>  <CNNaffinity>  (59) 
3.8648161888

>  <CNN_VS>  (59) 
1.0782722235

>  <CNNaffinity_variance>  (59) 
0.3835726082

$$$$
60
     RDKit          3D

 43 45  0  0  0  0  0  0  0  0999 V2000
   25.1394   72.7732   -4.8976 P   0  0  2  0  0  0  0  0  0  0  0  0
   25.4803   73.3343   -3.4185 O   0  0  0  0  0  0  0  0  0  0  0  0
   25.0409   73.8223   -5.9661 O   0  0  0  0  0  0  0  0  0  0  0  0
   23.8153   71.8704   -4.6751 O   0  0  0  0  0  0  0  0  0  0  0  0
   23.1643   71.9231   -3.4189 C   0  0  0  0  0  0  0  0  0  0  0  0
   21.4847   70.8053   -2.1123 O   0  0  0  0  0  0  0  0  0  0  0  0
   21.4376   68.7373   -4.2832 O   0  0  0  0  0  0  0  0  0  0  0  0
   19.2297   70.2373   -4.8411 O   0  0  0  0  0  0  0  0  0  0  0  0
   21.6164   70.1502   -4.3848 C   0  0  1  0  0  0  0  0  0  0  0  0
   20.2990   70.8625   -4.1628 C   0  0  2  0  0  0  0  0  0  0  0  0
   22.4326   70.6080   -3.1838 C   0  0  1  0  0  0  0  0  0  0  0  0
   20.1537   70.7931   -2.6522 C   0  0  2  0  0  0  0  0  0  0  0  0
   20.9187   68.4214   -5.0399 H   0  0  0  0  0  0  0  0  0  0  0  0
   19.3686   70.3086   -5.7990 H   0  0  0  0  0  0  0  0  0  0  0  0
   18.5259   70.6808   -0.3469 O   0  0  0  0  0  0  0  0  0  0  0  0
   17.3999   75.1361   -0.7021 O   0  0  0  0  0  0  0  0  0  0  0  0
   19.4238   71.9089   -2.1201 N   0  0  0  0  0  0  0  0  0  0  0  0
   17.9658   72.8996   -0.5266 N   0  0  0  0  0  0  0  0  0  0  0  0
   18.6349   71.7462   -0.9567 C   0  0  0  0  0  0  0  0  0  0  0  0
   19.4946   73.1468   -2.7474 C   0  0  0  0  0  0  0  0  0  0  0  0
   18.8512   74.2371   -2.3256 C   0  0  0  0  0  0  0  0  0  0  0  0
   18.0048   74.1523   -1.1174 C   0  0  0  0  0  0  0  0  0  0  0  0
   17.4087   72.8105    0.2803 H   0  0  0  0  0  0  0  0  0  0  0  0
   26.2948   71.6695   -5.1422 O   0  0  0  0  0  0  0  0  0  0  0  0
   27.1921   70.8228   -4.0974 P   0  0  2  0  0  0  0  0  0  0  0  0
   26.0918   70.1898   -3.0930 O   0  0  0  0  0  0  0  0  0  0  0  0
   28.2635   71.6237   -3.4157 O   0  0  0  0  0  0  0  0  0  0  0  0
   27.7361   69.5659   -4.9499 O   0  0  0  0  0  0  0  0  0  0  0  0
   27.0037   67.3568   -5.3889 O   0  0  0  0  0  0  0  0  0  0  0  0
   31.0456   66.7907   -4.7481 O   0  0  0  0  0  0  0  0  0  0  0  0
   29.5150   68.6017   -3.0416 O   0  0  0  0  0  0  0  0  0  0  0  0
   29.9721   66.7176   -7.4487 O   0  0  0  0  0  0  0  0  0  0  0  0
   29.8796   67.4976   -5.1709 C   0  0  2  0  0  0  0  0  0  0  0  0
   28.9425   67.6979   -3.9797 C   0  0  2  0  0  0  0  0  0  0  0  0
   29.1908   66.6673   -6.2563 C   0  0  1  0  0  0  0  0  0  0  0  0
   27.5883   68.2439   -4.4347 C   0  0  1  0  0  0  0  0  0  0  0  0
   27.7951   67.2016   -6.5648 C   0  0  1  0  0  0  0  0  0  0  0  0
   31.4999   67.2995   -4.0581 H   0  0  0  0  0  0  0  0  0  0  0  0
   30.3747   68.2616   -2.7488 H   0  0  0  0  0  0  0  0  0  0  0  0
   30.8630   66.3804   -7.2660 H   0  0  0  0  0  0  0  0  0  0  0  0
   26.2620   65.4265   -6.5570 O   0  0  0  0  0  0  0  0  0  0  0  0
   27.0408   66.1194   -8.5850 O   0  0  0  0  0  0  0  0  0  0  0  0
   27.0138   66.2125   -7.3669 C   0  0  0  0  0  0  0  0  0  0  0  0
  1  4  1  0
  1 24  1  0
  1  2  1  1
  1  3  2  0
 25 28  1  0
 25 24  1  0
 25 26  1  1
 25 27  2  0
  6 11  1  0
  6 12  1  0
 29 36  1  0
 29 37  1  0
  9  7  1  1
  7 13  1  0
 10  8  1  6
  8 14  1  0
  4  5  1  0
 36 28  1  6
 33 30  1  1
 30 38  1  0
 34 31  1  1
 31 39  1  0
 35 32  1  6
 32 40  1  0
 41 43  1  0
 15 19  2  0
 42 43  2  0
 16 22  2  0
 12 17  1  1
 17 19  1  0
 17 20  1  0
 18 19  1  0
 18 22  1  0
 18 23  1  0
  9 10  1  0
  9 11  1  0
 10 12  1  0
 11  5  1  6
 33 34  1  0
 33 35  1  0
 34 36  1  0
 35 37  1  0
 37 43  1  6
 20 21  2  0
 21 22  1  0
M  CHG  3   2  -1  26  -1  41  -1
M  END
>  <COMPND>  (60) 
    udp_gluA.pdb 

>  <AUTHOR>  (60) 
    GENERATED BY OPEN BABEL 3.1.1

>  <MASTER>  (60) 
        0    0    0    0    0    0    0    0   56    0   56    0

>  <minimizedAffinity>  (60) 
-7.73349

>  <CNNscore>  (60) 
0.2625885010

>  <CNNaffinity>  (60) 
4.0685162544

>  <CNN_VS>  (60) 
1.0683455467

>  <CNNaffinity_variance>  (60) 
0.1286884844

$$$$
61
     RDKit          3D

 43 45  0  0  0  0  0  0  0  0999 V2000
   26.4428   71.5371   -4.0958 P   0  0  2  0  0  0  0  0  0  0  0  0
   25.6461   70.1327   -3.9862 O   0  0  0  0  0  0  0  0  0  0  0  0
   25.9034   72.4933   -5.1188 O   0  0  0  0  0  0  0  0  0  0  0  0
   27.9863   71.0937   -4.2934 O   0  0  0  0  0  0  0  0  0  0  0  0
   28.9583   71.6144   -3.4053 C   0  0  0  0  0  0  0  0  0  0  0  0
   28.7257   69.2939   -2.8232 O   0  0  0  0  0  0  0  0  0  0  0  0
   31.4886   69.4968   -1.6757 O   0  0  0  0  0  0  0  0  0  0  0  0
   31.9293   68.2882   -4.0801 O   0  0  0  0  0  0  0  0  0  0  0  0
   30.9426   70.1283   -2.8340 C   0  0  1  0  0  0  0  0  0  0  0  0
   30.7982   69.1252   -3.9589 C   0  0  2  0  0  0  0  0  0  0  0  0
   29.4923   70.4834   -2.5358 C   0  0  1  0  0  0  0  0  0  0  0  0
   29.5497   68.3649   -3.5452 C   0  0  2  0  0  0  0  0  0  0  0  0
   32.4149   69.2605   -1.8422 H   0  0  0  0  0  0  0  0  0  0  0  0
   32.6973   68.8189   -4.3453 H   0  0  0  0  0  0  0  0  0  0  0  0
   26.9539   67.2626   -3.3927 O   0  0  0  0  0  0  0  0  0  0  0  0
   26.8215   66.4805   -7.9330 O   0  0  0  0  0  0  0  0  0  0  0  0
   28.8136   67.8656   -4.6720 N   0  0  0  0  0  0  0  0  0  0  0  0
   26.8909   66.8732   -5.6540 N   0  0  0  0  0  0  0  0  0  0  0  0
   27.5163   67.3318   -4.4872 C   0  0  0  0  0  0  0  0  0  0  0  0
   29.3757   67.9089   -5.9420 C   0  0  0  0  0  0  0  0  0  0  0  0
   28.7672   67.4681   -7.0448 C   0  0  0  0  0  0  0  0  0  0  0  0
   27.4096   66.8946   -6.9386 C   0  0  0  0  0  0  0  0  0  0  0  0
   25.9877   66.4953   -5.5502 H   0  0  0  0  0  0  0  0  0  0  0  0
   26.4150   72.0895   -2.5770 O   0  0  0  0  0  0  0  0  0  0  0  0
   25.1877   72.5938   -1.6533 P   0  0  2  0  0  0  0  0  0  0  0  0
   24.8860   74.0804   -2.2184 O   0  0  0  0  0  0  0  0  0  0  0  0
   25.4632   72.5370   -0.1785 O   0  0  0  0  0  0  0  0  0  0  0  0
   23.9250   71.7118   -2.1330 O   0  0  0  0  0  0  0  0  0  0  0  0
   22.4688   72.3845   -3.8754 O   0  0  0  0  0  0  0  0  0  0  0  0
   20.1083   69.7090   -1.7927 O   0  0  0  0  0  0  0  0  0  0  0  0
   21.7798   71.6327   -0.3645 O   0  0  0  0  0  0  0  0  0  0  0  0
   21.3111   68.9316   -4.3225 O   0  0  0  0  0  0  0  0  0  0  0  0
   21.3275   70.2474   -2.3042 C   0  0  2  0  0  0  0  0  0  0  0  0
   21.5276   71.6638   -1.7645 C   0  0  2  0  0  0  0  0  0  0  0  0
   21.2312   70.2683   -3.8313 C   0  0  1  0  0  0  0  0  0  0  0  0
   22.6969   72.3564   -2.4659 C   0  0  1  0  0  0  0  0  0  0  0  0
   22.3633   71.0836   -4.4497 C   0  0  1  0  0  0  0  0  0  0  0  0
   20.1462   69.6859   -0.8235 H   0  0  0  0  0  0  0  0  0  0  0  0
   21.0419   71.1943    0.0869 H   0  0  0  0  0  0  0  0  0  0  0  0
   20.5961   68.4020   -3.9363 H   0  0  0  0  0  0  0  0  0  0  0  0
   22.9181   72.3359   -6.3538 O   0  0  0  0  0  0  0  0  0  0  0  0
   21.2247   70.8231   -6.5609 O   0  0  0  0  0  0  0  0  0  0  0  0
   22.0834   71.3738   -5.8884 C   0  0  0  0  0  0  0  0  0  0  0  0
  1  4  1  0
  1 24  1  0
  1  2  1  1
  1  3  2  0
 25 28  1  0
 25 24  1  0
 25 26  1  6
 25 27  2  0
  6 11  1  0
  6 12  1  0
 29 36  1  0
 29 37  1  0
  9  7  1  1
  7 13  1  0
 10  8  1  1
  8 14  1  0
  4  5  1  0
 36 28  1  6
 33 30  1  1
 30 38  1  0
 34 31  1  1
 31 39  1  0
 35 32  1  6
 32 40  1  0
 41 43  1  0
 15 19  2  0
 42 43  2  0
 16 22  2  0
 12 17  1  6
 17 19  1  0
 17 20  1  0
 18 19  1  0
 18 22  1  0
 18 23  1  0
  9 10  1  0
  9 11  1  0
 10 12  1  0
 11  5  1  6
 33 34  1  0
 33 35  1  0
 34 36  1  0
 35 37  1  0
 37 43  1  6
 20 21  2  0
 21 22  1  0
M  CHG  3   2  -1  26  -1  41  -1
M  END
>  <COMPND>  (61) 
    udp_gluA.pdb 

>  <AUTHOR>  (61) 
    GENERATED BY OPEN BABEL 3.1.1

>  <MASTER>  (61) 
        0    0    0    0    0    0    0    0   56    0   56    0

>  <minimizedAffinity>  (61) 
-7.90471

>  <CNNscore>  (61) 
0.6056684256

>  <CNNaffinity>  (61) 
4.6284437180

>  <CNN_VS>  (61) 
2.8033022881

>  <CNNaffinity_variance>  (61) 
0.3000213504

$$$$
62
     RDKit          3D

 43 45  0  0  0  0  0  0  0  0999 V2000
   29.0618   73.9576   -2.5835 P   0  0  2  0  0  0  0  0  0  0  0  0
   27.6655   73.2094   -2.9139 O   0  0  0  0  0  0  0  0  0  0  0  0
   29.2045   75.3261   -3.1825 O   0  0  0  0  0  0  0  0  0  0  0  0
   30.1907   72.8812   -3.0136 O   0  0  0  0  0  0  0  0  0  0  0  0
   29.7728   71.6549   -3.5845 C   0  0  0  0  0  0  0  0  0  0  0  0
   28.7617   69.6123   -2.8208 O   0  0  0  0  0  0  0  0  0  0  0  0
   31.2294   69.2295   -1.1609 O   0  0  0  0  0  0  0  0  0  0  0  0
   31.6766   67.5767   -3.2832 O   0  0  0  0  0  0  0  0  0  0  0  0
   31.0968   69.7923   -2.4663 C   0  0  1  0  0  0  0  0  0  0  0  0
   30.8453   68.7005   -3.4847 C   0  0  2  0  0  0  0  0  0  0  0  0
   29.7918   70.5754   -2.5099 C   0  0  1  0  0  0  0  0  0  0  0  0
   29.3759   68.3893   -3.2570 C   0  0  2  0  0  0  0  0  0  0  0  0
   32.0562   68.7242   -1.1087 H   0  0  0  0  0  0  0  0  0  0  0  0
   32.6013   67.8263   -3.4404 H   0  0  0  0  0  0  0  0  0  0  0  0
   26.7732   67.2950   -3.3306 O   0  0  0  0  0  0  0  0  0  0  0  0
   26.9598   66.6890   -7.8959 O   0  0  0  0  0  0  0  0  0  0  0  0
   28.7200   67.9374   -4.4513 N   0  0  0  0  0  0  0  0  0  0  0  0
   26.8691   66.9933   -5.6042 N   0  0  0  0  0  0  0  0  0  0  0  0
   27.4116   67.4035   -4.3792 C   0  0  0  0  0  0  0  0  0  0  0  0
   29.3704   68.0269   -5.6760 C   0  0  0  0  0  0  0  0  0  0  0  0
   28.8403   67.6319   -6.8352 C   0  0  0  0  0  0  0  0  0  0  0  0
   27.4772   67.0616   -6.8472 C   0  0  0  0  0  0  0  0  0  0  0  0
   25.9599   66.6162   -5.5790 H   0  0  0  0  0  0  0  0  0  0  0  0
   29.1204   73.9200   -0.9686 O   0  0  0  0  0  0  0  0  0  0  0  0
   30.1789   74.5633    0.0704 P   0  0  2  0  0  0  0  0  0  0  0  0
   29.4252   75.8998    0.5862 O   0  0  0  0  0  0  0  0  0  0  0  0
   31.5416   74.8069   -0.5105 O   0  0  0  0  0  0  0  0  0  0  0  0
   30.1607   73.5695    1.3411 O   0  0  0  0  0  0  0  0  0  0  0  0
   30.8336   71.3670    0.7883 O   0  0  0  0  0  0  0  0  0  0  0  0
   29.5836   70.9076    4.6991 O   0  0  0  0  0  0  0  0  0  0  0  0
   28.0476   72.5532    2.8371 O   0  0  0  0  0  0  0  0  0  0  0  0
   32.4215   70.9636    4.0713 O   0  0  0  0  0  0  0  0  0  0  0  0
   30.1486   71.5971    3.5840 C   0  0  2  0  0  0  0  0  0  0  0  0
   29.1143   71.6894    2.4619 C   0  0  2  0  0  0  0  0  0  0  0  0
   31.3750   70.8115    3.1142 C   0  0  1  0  0  0  0  0  0  0  0  0
   29.7500   72.2137    1.1736 C   0  0  1  0  0  0  0  0  0  0  0  0
   31.8737   71.3135    1.7622 C   0  0  1  0  0  0  0  0  0  0  0  0
   28.8025   71.3885    5.0149 H   0  0  0  0  0  0  0  0  0  0  0  0
   27.6398   72.2267    3.6541 H   0  0  0  0  0  0  0  0  0  0  0  0
   32.1169   70.6478    4.9364 H   0  0  0  0  0  0  0  0  0  0  0  0
   32.6156   69.0929    1.6211 O   0  0  0  0  0  0  0  0  0  0  0  0
   33.7250   70.6417    0.3684 O   0  0  0  0  0  0  0  0  0  0  0  0
   32.8446   70.3486    1.1634 C   0  0  0  0  0  0  0  0  0  0  0  0
  1  4  1  0
  1 24  1  0
  1  2  1  1
  1  3  2  0
 25 28  1  0
 25 24  1  0
 25 26  1  1
 25 27  2  0
  6 11  1  0
  6 12  1  0
 29 36  1  0
 29 37  1  0
  9  7  1  1
  7 13  1  0
 10  8  1  1
  8 14  1  0
  4  5  1  0
 36 28  1  1
 33 30  1  1
 30 38  1  0
 34 31  1  1
 31 39  1  0
 35 32  1  1
 32 40  1  0
 41 43  1  0
 15 19  2  0
 42 43  2  0
 16 22  2  0
 12 17  1  6
 17 19  1  0
 17 20  1  0
 18 19  1  0
 18 22  1  0
 18 23  1  0
  9 10  1  0
  9 11  1  0
 10 12  1  0
 11  5  1  6
 33 34  1  0
 33 35  1  0
 34 36  1  0
 35 37  1  0
 37 43  1  6
 20 21  2  0
 21 22  1  0
M  CHG  3   2  -1  26  -1  41  -1
M  END
>  <COMPND>  (62) 
    udp_gluA.pdb 

>  <AUTHOR>  (62) 
    GENERATED BY OPEN BABEL 3.1.1

>  <MASTER>  (62) 
        0    0    0    0    0    0    0    0   56    0   56    0

>  <minimizedAffinity>  (62) 
-7.70390

>  <CNNscore>  (62) 
0.6048984528

>  <CNNaffinity>  (62) 
4.4199552536

>  <CNN_VS>  (62) 
2.6736240387

>  <CNNaffinity_variance>  (62) 
0.1353369653

$$$$
63
     RDKit          3D

 43 45  0  0  0  0  0  0  0  0999 V2000
   27.1872   72.6440   -2.5255 P   0  0  2  0  0  0  0  0  0  0  0  0
   26.9105   74.1555   -2.0180 O   0  0  0  0  0  0  0  0  0  0  0  0
   26.7308   71.5667   -1.5860 O   0  0  0  0  0  0  0  0  0  0  0  0
   28.7640   72.6384   -2.8881 O   0  0  0  0  0  0  0  0  0  0  0  0
   29.2856   71.5445   -3.6201 C   0  0  0  0  0  0  0  0  0  0  0  0
   28.7358   69.3123   -2.9182 O   0  0  0  0  0  0  0  0  0  0  0  0
   31.4339   69.2584   -1.6110 O   0  0  0  0  0  0  0  0  0  0  0  0
   31.8559   67.8489   -3.9070 O   0  0  0  0  0  0  0  0  0  0  0  0
   31.0359   69.8725   -2.8370 C   0  0  1  0  0  0  0  0  0  0  0  0
   30.8320   68.8216   -3.9076 C   0  0  2  0  0  0  0  0  0  0  0  0
   29.6263   70.4179   -2.6532 C   0  0  1  0  0  0  0  0  0  0  0  0
   29.4779   68.2455   -3.5302 C   0  0  2  0  0  0  0  0  0  0  0  0
   32.3319   68.9024   -1.7040 H   0  0  0  0  0  0  0  0  0  0  0  0
   32.6973   68.2651   -4.1536 H   0  0  0  0  0  0  0  0  0  0  0  0
   26.7963   67.3626   -3.4536 O   0  0  0  0  0  0  0  0  0  0  0  0
   26.7861   66.4205   -7.9654 O   0  0  0  0  0  0  0  0  0  0  0  0
   28.7500   67.7644   -4.6701 N   0  0  0  0  0  0  0  0  0  0  0  0
   26.7941   66.8933   -5.7006 N   0  0  0  0  0  0  0  0  0  0  0  0
   27.4068   67.3443   -4.5241 C   0  0  0  0  0  0  0  0  0  0  0  0
   29.3653   67.7136   -5.9150 C   0  0  0  0  0  0  0  0  0  0  0  0
   28.7684   67.2813   -7.0275 C   0  0  0  0  0  0  0  0  0  0  0  0
   27.3650   66.8237   -6.9611 C   0  0  0  0  0  0  0  0  0  0  0  0
   25.8594   66.5937   -5.6235 H   0  0  0  0  0  0  0  0  0  0  0  0
   26.4800   72.6140   -3.9788 O   0  0  0  0  0  0  0  0  0  0  0  0
   25.0335   73.1462   -4.4665 P   0  0  2  0  0  0  0  0  0  0  0  0
   25.2384   73.3698   -6.0565 O   0  0  0  0  0  0  0  0  0  0  0  0
   24.5429   74.3588   -3.7297 O   0  0  0  0  0  0  0  0  0  0  0  0
   24.0661   71.8598   -4.3575 O   0  0  0  0  0  0  0  0  0  0  0  0
   22.5115   72.1212   -2.5900 O   0  0  0  0  0  0  0  0  0  0  0  0
   21.6939   68.2782   -3.8672 O   0  0  0  0  0  0  0  0  0  0  0  0
   24.4546   69.2038   -3.6291 O   0  0  0  0  0  0  0  0  0  0  0  0
   19.9005   70.4587   -4.5600 O   0  0  0  0  0  0  0  0  0  0  0  0
   22.0983   69.6401   -4.0083 C   0  0  2  0  0  0  0  0  0  0  0  0
   23.3213   69.9044   -3.1297 C   0  0  2  0  0  0  0  0  0  0  0  0
   20.9296   70.5278   -3.5748 C   0  0  1  0  0  0  0  0  0  0  0  0
   23.6434   71.3984   -3.0756 C   0  0  1  0  0  0  0  0  0  0  0  0
   21.3621   71.9832   -3.4224 C   0  0  1  0  0  0  0  0  0  0  0  0
   22.4210   67.6952   -4.1370 H   0  0  0  0  0  0  0  0  0  0  0  0
   24.2571   68.2551   -3.6664 H   0  0  0  0  0  0  0  0  0  0  0  0
   19.6163   69.5375   -4.6668 H   0  0  0  0  0  0  0  0  0  0  0  0
   19.4833   71.9483   -2.0187 O   0  0  0  0  0  0  0  0  0  0  0  0
   20.2369   73.9905   -2.6973 O   0  0  0  0  0  0  0  0  0  0  0  0
   20.3233   72.7717   -2.6934 C   0  0  0  0  0  0  0  0  0  0  0  0
  1  4  1  0
  1 24  1  0
  1  2  1  1
  1  3  2  0
 25 28  1  0
 25 24  1  0
 25 26  1  6
 25 27  2  0
  6 11  1  0
  6 12  1  0
 29 36  1  0
 29 37  1  0
  9  7  1  1
  7 13  1  0
 10  8  1  1
  8 14  1  0
  4  5  1  0
 36 28  1  6
 33 30  1  1
 30 38  1  0
 34 31  1  6
 31 39  1  0
 35 32  1  6
 32 40  1  0
 41 43  1  0
 15 19  2  0
 42 43  2  0
 16 22  2  0
 12 17  1  6
 17 19  1  0
 17 20  1  0
 18 19  1  0
 18 22  1  0
 18 23  1  0
  9 10  1  0
  9 11  1  0
 10 12  1  0
 11  5  1  6
 33 34  1  0
 33 35  1  0
 34 36  1  0
 35 37  1  0
 37 43  1  1
 20 21  2  0
 21 22  1  0
M  CHG  3   2  -1  26  -1  41  -1
M  END
>  <COMPND>  (63) 
    udp_gluA.pdb 

>  <AUTHOR>  (63) 
    GENERATED BY OPEN BABEL 3.1.1

>  <MASTER>  (63) 
        0    0    0    0    0    0    0    0   56    0   56    0

>  <minimizedAffinity>  (63) 
-8.42593

>  <CNNscore>  (63) 
0.5509101748

>  <CNNaffinity>  (63) 
4.5771498680

>  <CNN_VS>  (63) 
2.5215983391

>  <CNNaffinity_variance>  (63) 
0.5767780542

$$$$
64
     RDKit          3D

 43 45  0  0  0  0  0  0  0  0999 V2000
   25.3200   72.9794   -4.4692 P   0  0  2  0  0  0  0  0  0  0  0  0
   25.6512   73.6145   -5.9204 O   0  0  0  0  0  0  0  0  0  0  0  0
   25.0637   73.9819   -3.3824 O   0  0  0  0  0  0  0  0  0  0  0  0
   26.5438   71.9544   -4.2052 O   0  0  0  0  0  0  0  0  0  0  0  0
   27.7740   72.4763   -3.7374 C   0  0  0  0  0  0  0  0  0  0  0  0
   27.7910   70.2279   -2.8878 O   0  0  0  0  0  0  0  0  0  0  0  0
   30.3000   70.9939   -1.4353 O   0  0  0  0  0  0  0  0  0  0  0  0
   31.2535   69.6102   -3.5829 O   0  0  0  0  0  0  0  0  0  0  0  0
   29.8446   71.3974   -2.7269 C   0  0  1  0  0  0  0  0  0  0  0  0
   30.0096   70.2651   -3.7183 C   0  0  2  0  0  0  0  0  0  0  0  0
   28.3308   71.5487   -2.6652 C   0  0  1  0  0  0  0  0  0  0  0  0
   28.8349   69.3670   -3.3697 C   0  0  2  0  0  0  0  0  0  0  0  0
   31.2648   70.8907   -1.4500 H   0  0  0  0  0  0  0  0  0  0  0  0
   31.9688   70.2233   -3.8162 H   0  0  0  0  0  0  0  0  0  0  0  0
   26.8106   67.4011   -3.2522 O   0  0  0  0  0  0  0  0  0  0  0  0
   27.0513   66.6209   -7.7884 O   0  0  0  0  0  0  0  0  0  0  0  0
   28.3493   68.6346   -4.5049 N   0  0  0  0  0  0  0  0  0  0  0  0
   26.9331   67.0136   -5.5115 N   0  0  0  0  0  0  0  0  0  0  0  0
   27.3295   67.6681   -4.3377 C   0  0  0  0  0  0  0  0  0  0  0  0
   28.8805   68.8773   -5.7658 C   0  0  0  0  0  0  0  0  0  0  0  0
   28.4924   68.2456   -6.8753 C   0  0  0  0  0  0  0  0  0  0  0  0
   27.4320   67.2202   -6.7874 C   0  0  0  0  0  0  0  0  0  0  0  0
   26.2258   66.3349   -5.4199 H   0  0  0  0  0  0  0  0  0  0  0  0
   24.0791   71.9913   -4.7801 O   0  0  0  0  0  0  0  0  0  0  0  0
   22.5274   72.3064   -5.1067 P   0  0  2  0  0  0  0  0  0  0  0  0
   22.0541   71.0048   -5.9446 O   0  0  0  0  0  0  0  0  0  0  0  0
   22.2994   73.6122   -5.8116 O   0  0  0  0  0  0  0  0  0  0  0  0
   21.7747   72.1721   -3.6862 O   0  0  0  0  0  0  0  0  0  0  0  0
   22.4859   71.3072   -1.5993 O   0  0  0  0  0  0  0  0  0  0  0  0
   18.5000   70.2216   -1.6449 O   0  0  0  0  0  0  0  0  0  0  0  0
   20.1349   69.9553   -4.0512 O   0  0  0  0  0  0  0  0  0  0  0  0
   19.3868   72.4496   -0.0015 O   0  0  0  0  0  0  0  0  0  0  0  0
   19.6309   71.0410   -1.9409 C   0  0  2  0  0  0  0  0  0  0  0  0
   20.6464   70.2374   -2.7537 C   0  0  2  0  0  0  0  0  0  0  0  0
   20.2479   71.4923   -0.6152 C   0  0  1  0  0  0  0  0  0  0  0  0
   21.9636   71.0017   -2.8929 C   0  0  1  0  0  0  0  0  0  0  0  0
   21.6167   72.1326   -0.8271 C   0  0  1  0  0  0  0  0  0  0  0  0
   18.0914   69.9229   -2.4726 H   0  0  0  0  0  0  0  0  0  0  0  0
   19.2989   69.4706   -3.9704 H   0  0  0  0  0  0  0  0  0  0  0  0
   18.5121   72.0547    0.1387 H   0  0  0  0  0  0  0  0  0  0  0  0
   22.9124   73.4945    0.5758 O   0  0  0  0  0  0  0  0  0  0  0  0
   22.4244   71.3966    1.3240 O   0  0  0  0  0  0  0  0  0  0  0  0
   22.3461   72.2669    0.4699 C   0  0  0  0  0  0  0  0  0  0  0  0
  1  4  1  0
  1 24  1  0
  1  2  1  6
  1  3  2  0
 25 28  1  0
 25 24  1  0
 25 26  1  6
 25 27  2  0
  6 11  1  0
  6 12  1  0
 29 36  1  0
 29 37  1  0
  9  7  1  1
  7 13  1  0
 10  8  1  1
  8 14  1  0
  4  5  1  0
 36 28  1  6
 33 30  1  1
 30 38  1  0
 34 31  1  6
 31 39  1  0
 35 32  1  6
 32 40  1  0
 41 43  1  0
 15 19  2  0
 42 43  2  0
 16 22  2  0
 12 17  1  6
 17 19  1  0
 17 20  1  0
 18 19  1  0
 18 22  1  0
 18 23  1  0
  9 10  1  0
  9 11  1  0
 10 12  1  0
 11  5  1  6
 33 34  1  0
 33 35  1  0
 34 36  1  0
 35 37  1  0
 37 43  1  1
 20 21  2  0
 21 22  1  0
M  CHG  3   2  -1  26  -1  41  -1
M  END
>  <COMPND>  (64) 
    udp_gluA.pdb 

>  <AUTHOR>  (64) 
    GENERATED BY OPEN BABEL 3.1.1

>  <MASTER>  (64) 
        0    0    0    0    0    0    0    0   56    0   56    0

>  <minimizedAffinity>  (64) 
-7.47157

>  <CNNscore>  (64) 
0.5477098823

>  <CNNaffinity>  (64) 
4.5320496559

>  <CNN_VS>  (64) 
2.4822483063

>  <CNNaffinity_variance>  (64) 
0.2669516504

$$$$
65
     RDKit          3D

 43 45  0  0  0  0  0  0  0  0999 V2000
   24.4800   73.0730   -5.0949 P   0  0  2  0  0  0  0  0  0  0  0  0
   23.0510   72.6244   -5.7077 O   0  0  0  0  0  0  0  0  0  0  0  0
   25.3493   73.8638   -6.0280 O   0  0  0  0  0  0  0  0  0  0  0  0
   25.1166   71.6919   -4.5423 O   0  0  0  0  0  0  0  0  0  0  0  0
   26.5179   71.5104   -4.6307 C   0  0  0  0  0  0  0  0  0  0  0  0
   27.3117   69.5878   -3.4261 O   0  0  0  0  0  0  0  0  0  0  0  0
   28.4618   71.5307   -1.4528 O   0  0  0  0  0  0  0  0  0  0  0  0
   30.6404   70.8252   -2.9332 O   0  0  0  0  0  0  0  0  0  0  0  0
   28.3513   71.6428   -2.8718 C   0  0  1  0  0  0  0  0  0  0  0  0
   29.3715   70.7522   -3.5489 C   0  0  2  0  0  0  0  0  0  0  0  0
   27.0373   70.9993   -3.2930 C   0  0  1  0  0  0  0  0  0  0  0  0
   28.7331   69.3805   -3.4119 C   0  0  2  0  0  0  0  0  0  0  0  0
   29.2939   71.9351   -1.1600 H   0  0  0  0  0  0  0  0  0  0  0  0
   31.0048   71.7174   -3.0483 H   0  0  0  0  0  0  0  0  0  0  0  0
   31.0500   67.7662   -3.4569 O   0  0  0  0  0  0  0  0  0  0  0  0
   29.9917   66.0446   -7.5994 O   0  0  0  0  0  0  0  0  0  0  0  0
   29.0875   68.5010   -4.4897 N   0  0  0  0  0  0  0  0  0  0  0  0
   30.5213   66.9110   -5.5205 N   0  0  0  0  0  0  0  0  0  0  0  0
   30.2737   67.7334   -4.4135 C   0  0  0  0  0  0  0  0  0  0  0  0
   28.2642   68.4039   -5.6049 C   0  0  0  0  0  0  0  0  0  0  0  0
   28.5134   67.6155   -6.6523 C   0  0  0  0  0  0  0  0  0  0  0  0
   29.7329   66.7811   -6.6524 C   0  0  0  0  0  0  0  0  0  0  0  0
   31.3424   66.3686   -5.4912 H   0  0  0  0  0  0  0  0  0  0  0  0
   24.0657   73.8501   -3.7394 O   0  0  0  0  0  0  0  0  0  0  0  0
   24.9670   74.6160   -2.6373 P   0  0  2  0  0  0  0  0  0  0  0  0
   24.2279   76.0482   -2.4856 O   0  0  0  0  0  0  0  0  0  0  0  0
   26.4240   74.7061   -2.9880 O   0  0  0  0  0  0  0  0  0  0  0  0
   24.6581   73.8496   -1.2517 O   0  0  0  0  0  0  0  0  0  0  0  0
   25.8570   72.0674   -0.2539 O   0  0  0  0  0  0  0  0  0  0  0  0
   22.0131   71.3432    1.0757 O   0  0  0  0  0  0  0  0  0  0  0  0
   22.4953   72.1562   -1.6885 O   0  0  0  0  0  0  0  0  0  0  0  0
   23.9894   72.4840    2.8767 O   0  0  0  0  0  0  0  0  0  0  0  0
   23.1177   72.1445    0.6564 C   0  0  2  0  0  0  0  0  0  0  0  0
   23.5113   71.7663   -0.7717 C   0  0  2  0  0  0  0  0  0  0  0  0
   24.2814   71.8848    1.6157 C   0  0  1  0  0  0  0  0  0  0  0  0
   24.8269   72.4355   -1.1720 C   0  0  1  0  0  0  0  0  0  0  0  0
   25.5839   72.4763    1.0845 C   0  0  1  0  0  0  0  0  0  0  0  0
   21.2614   71.4916    0.4805 H   0  0  0  0  0  0  0  0  0  0  0  0
   21.6576   71.7354   -1.4403 H   0  0  0  0  0  0  0  0  0  0  0  0
   23.1625   72.1162    3.2257 H   0  0  0  0  0  0  0  0  0  0  0  0
   26.7606   72.4219    3.1127 O   0  0  0  0  0  0  0  0  0  0  0  0
   27.5979   71.1835    1.3910 O   0  0  0  0  0  0  0  0  0  0  0  0
   26.7561   71.9450    1.8433 C   0  0  0  0  0  0  0  0  0  0  0  0
  1  4  1  0
  1 24  1  0
  1  2  1  6
  1  3  2  0
 25 28  1  0
 25 24  1  0
 25 26  1  1
 25 27  2  0
  6 11  1  0
  6 12  1  0
 29 36  1  0
 29 37  1  0
  9  7  1  1
  7 13  1  0
 10  8  1  1
  8 14  1  0
  4  5  1  0
 36 28  1  1
 33 30  1  1
 30 38  1  0
 34 31  1  6
 31 39  1  0
 35 32  1  1
 32 40  1  0
 41 43  1  0
 15 19  2  0
 42 43  2  0
 16 22  2  0
 12 17  1  6
 17 19  1  0
 17 20  1  0
 18 19  1  0
 18 22  1  0
 18 23  1  0
  9 10  1  0
  9 11  1  0
 10 12  1  0
 11  5  1  6
 33 34  1  0
 33 35  1  0
 34 36  1  0
 35 37  1  0
 37 43  1  1
 20 21  2  0
 21 22  1  0
M  CHG  3   2  -1  26  -1  41  -1
M  END
>  <COMPND>  (65) 
    udp_gluA.pdb 

>  <AUTHOR>  (65) 
    GENERATED BY OPEN BABEL 3.1.1

>  <MASTER>  (65) 
        0    0    0    0    0    0    0    0   56    0   56    0

>  <minimizedAffinity>  (65) 
-6.91403

>  <CNNscore>  (65) 
0.5009313822

>  <CNNaffinity>  (65) 
4.3211970329

>  <CNN_VS>  (65) 
2.1646232605

>  <CNNaffinity_variance>  (65) 
0.0832143277

$$$$
66
     RDKit          3D

 43 45  0  0  0  0  0  0  0  0999 V2000
   24.1604   72.5713   -4.3035 P   0  0  2  0  0  0  0  0  0  0  0  0
   23.8538   73.0374   -5.8226 O   0  0  0  0  0  0  0  0  0  0  0  0
   24.5182   73.6820   -3.3600 O   0  0  0  0  0  0  0  0  0  0  0  0
   25.2711   71.4067   -4.4712 O   0  0  0  0  0  0  0  0  0  0  0  0
   26.6378   71.7516   -4.3386 C   0  0  0  0  0  0  0  0  0  0  0  0
   27.4085   69.7803   -3.1994 O   0  0  0  0  0  0  0  0  0  0  0  0
   28.6259   71.6435   -1.1900 O   0  0  0  0  0  0  0  0  0  0  0  0
   30.7686   70.9358   -2.7210 O   0  0  0  0  0  0  0  0  0  0  0  0
   28.4980   71.7975   -2.6036 C   0  0  1  0  0  0  0  0  0  0  0  0
   29.4900   70.9058   -3.3199 C   0  0  2  0  0  0  0  0  0  0  0  0
   27.1651   71.1928   -3.0233 C   0  0  1  0  0  0  0  0  0  0  0  0
   28.8253   69.5440   -3.2117 C   0  0  2  0  0  0  0  0  0  0  0  0
   29.4703   72.0226   -0.8982 H   0  0  0  0  0  0  0  0  0  0  0  0
   31.1497   71.8232   -2.8166 H   0  0  0  0  0  0  0  0  0  0  0  0
   31.0291   67.7789   -3.2759 O   0  0  0  0  0  0  0  0  0  0  0  0
   29.9602   66.3074   -7.5110 O   0  0  0  0  0  0  0  0  0  0  0  0
   29.1464   68.6880   -4.3186 N   0  0  0  0  0  0  0  0  0  0  0  0
   30.4952   67.0484   -5.3856 N   0  0  0  0  0  0  0  0  0  0  0  0
   30.2761   67.8389   -4.2497 C   0  0  0  0  0  0  0  0  0  0  0  0
   28.3462   68.6937   -5.4546 C   0  0  0  0  0  0  0  0  0  0  0  0
   28.5676   67.9345   -6.5294 C   0  0  0  0  0  0  0  0  0  0  0  0
   29.7281   67.0197   -6.5389 C   0  0  0  0  0  0  0  0  0  0  0  0
   31.2771   66.4506   -5.3619 H   0  0  0  0  0  0  0  0  0  0  0  0
   22.8288   71.7483   -3.9006 O   0  0  0  0  0  0  0  0  0  0  0  0
   22.5714   70.6445   -2.7478 P   0  0  2  0  0  0  0  0  0  0  0  0
   23.7932   69.6028   -2.9537 O   0  0  0  0  0  0  0  0  0  0  0  0
   21.2088   70.0157   -2.7906 O   0  0  0  0  0  0  0  0  0  0  0  0
   22.9141   71.4064   -1.3678 O   0  0  0  0  0  0  0  0  0  0  0  0
   21.9420   71.5670    0.7859 O   0  0  0  0  0  0  0  0  0  0  0  0
   22.9986   75.4918    0.0457 O   0  0  0  0  0  0  0  0  0  0  0  0
   21.7991   73.8589   -2.0589 O   0  0  0  0  0  0  0  0  0  0  0  0
   24.5806   73.8741    1.8709 O   0  0  0  0  0  0  0  0  0  0  0  0
   23.1209   74.0718   -0.0357 C   0  0  2  0  0  0  0  0  0  0  0  0
   21.8676   73.4867   -0.6873 C   0  0  2  0  0  0  0  0  0  0  0  0
   23.2844   73.5290    1.3858 C   0  0  1  0  0  0  0  0  0  0  0  0
   21.8589   71.9609   -0.5843 C   0  0  1  0  0  0  0  0  0  0  0  0
   23.1383   72.0105    1.4226 C   0  0  1  0  0  0  0  0  0  0  0  0
   22.8935   75.8590   -0.8461 H   0  0  0  0  0  0  0  0  0  0  0  0
   21.8045   74.8259   -2.1318 H   0  0  0  0  0  0  0  0  0  0  0  0
   24.6866   74.8381    1.8526 H   0  0  0  0  0  0  0  0  0  0  0  0
   23.3208   70.2217    2.9286 O   0  0  0  0  0  0  0  0  0  0  0  0
   22.5741   72.2092    3.7600 O   0  0  0  0  0  0  0  0  0  0  0  0
   22.9701   71.5276    2.8264 C   0  0  0  0  0  0  0  0  0  0  0  0
  1  4  1  0
  1 24  1  0
  1  2  1  6
  1  3  2  0
 25 28  1  0
 25 24  1  0
 25 26  1  6
 25 27  2  0
  6 11  1  0
  6 12  1  0
 29 36  1  0
 29 37  1  0
  9  7  1  1
  7 13  1  0
 10  8  1  1
  8 14  1  0
  4  5  1  0
 36 28  1  6
 33 30  1  1
 30 38  1  0
 34 31  1  6
 31 39  1  0
 35 32  1  6
 32 40  1  0
 41 43  1  0
 15 19  2  0
 42 43  2  0
 16 22  2  0
 12 17  1  6
 17 19  1  0
 17 20  1  0
 18 19  1  0
 18 22  1  0
 18 23  1  0
  9 10  1  0
  9 11  1  0
 10 12  1  0
 11  5  1  6
 33 34  1  0
 33 35  1  0
 34 36  1  0
 35 37  1  0
 37 43  1  1
 20 21  2  0
 21 22  1  0
M  CHG  3   2  -1  26  -1  41  -1
M  END
>  <COMPND>  (66) 
    udp_gluA.pdb 

>  <AUTHOR>  (66) 
    GENERATED BY OPEN BABEL 3.1.1

>  <MASTER>  (66) 
        0    0    0    0    0    0    0    0   56    0   56    0

>  <minimizedAffinity>  (66) 
-7.09213

>  <CNNscore>  (66) 
0.4990181923

>  <CNNaffinity>  (66) 
4.4478907585

>  <CNN_VS>  (66) 
2.2195785046

>  <CNNaffinity_variance>  (66) 
0.0566998124

$$$$
67
     RDKit          3D

 43 45  0  0  0  0  0  0  0  0999 V2000
   23.1637   72.9357   -4.7229 P   0  0  2  0  0  0  0  0  0  0  0  0
   24.3175   72.9887   -5.8563 O   0  0  0  0  0  0  0  0  0  0  0  0
   22.6804   74.2746   -4.2477 O   0  0  0  0  0  0  0  0  0  0  0  0
   23.7822   71.9672   -3.5838 O   0  0  0  0  0  0  0  0  0  0  0  0
   24.9897   71.2822   -3.8616 C   0  0  0  0  0  0  0  0  0  0  0  0
   26.8919   70.3910   -2.6932 O   0  0  0  0  0  0  0  0  0  0  0  0
   27.2321   73.1357   -1.5347 O   0  0  0  0  0  0  0  0  0  0  0  0
   29.1089   73.0869   -3.5124 O   0  0  0  0  0  0  0  0  0  0  0  0
   26.7963   72.7533   -2.8394 C   0  0  1  0  0  0  0  0  0  0  0  0
   27.9700   72.2652   -3.6619 C   0  0  2  0  0  0  0  0  0  0  0  0
   25.9562   71.4908   -2.7027 C   0  0  1  0  0  0  0  0  0  0  0  0
   28.1820   70.8659   -3.1098 C   0  0  2  0  0  0  0  0  0  0  0  0
   27.7710   73.9404   -1.5963 H   0  0  0  0  0  0  0  0  0  0  0  0
   28.9235   73.9662   -3.8792 H   0  0  0  0  0  0  0  0  0  0  0  0
   30.4995   69.2953   -2.7375 O   0  0  0  0  0  0  0  0  0  0  0  0
   30.1419   67.4438   -6.9432 O   0  0  0  0  0  0  0  0  0  0  0  0
   28.7167   69.9648   -4.0910 N   0  0  0  0  0  0  0  0  0  0  0  0
   30.3198   68.3754   -4.8329 N   0  0  0  0  0  0  0  0  0  0  0  0
   29.8865   69.2222   -3.8042 C   0  0  0  0  0  0  0  0  0  0  0  0
   28.0837   69.8223   -5.3198 C   0  0  0  0  0  0  0  0  0  0  0  0
   28.5085   69.0110   -6.2905 C   0  0  0  0  0  0  0  0  0  0  0  0
   29.7244   68.2003   -6.0717 C   0  0  0  0  0  0  0  0  0  0  0  0
   31.1334   67.8497   -4.6573 H   0  0  0  0  0  0  0  0  0  0  0  0
   22.0260   72.0128   -5.4061 O   0  0  0  0  0  0  0  0  0  0  0  0
   21.2257   72.1733   -6.8016 P   0  0  2  0  0  0  0  0  0  0  0  0
   22.0846   71.2621   -7.8274 O   0  0  0  0  0  0  0  0  0  0  0  0
   21.0399   73.5956   -7.2448 O   0  0  0  0  0  0  0  0  0  0  0  0
   19.8526   71.3555   -6.5824 O   0  0  0  0  0  0  0  0  0  0  0  0
   17.7612   71.5838   -7.6700 O   0  0  0  0  0  0  0  0  0  0  0  0
   16.6146   70.3836   -3.8868 O   0  0  0  0  0  0  0  0  0  0  0  0
   18.7450   72.3522   -4.2337 O   0  0  0  0  0  0  0  0  0  0  0  0
   16.5401   68.5005   -6.1002 O   0  0  0  0  0  0  0  0  0  0  0  0
   17.4663   70.4506   -5.0305 C   0  0  2  0  0  0  0  0  0  0  0  0
   17.8843   71.9011   -5.2731 C   0  0  2  0  0  0  0  0  0  0  0  0
   16.6869   69.9131   -6.2327 C   0  0  1  0  0  0  0  0  0  0  0  0
   18.6047   72.0458   -6.6143 C   0  0  1  0  0  0  0  0  0  0  0  0
   17.4113   70.2074   -7.5431 C   0  0  1  0  0  0  0  0  0  0  0  0
   17.0888   70.7203   -3.1101 H   0  0  0  0  0  0  0  0  0  0  0  0
   18.2944   72.2630   -3.3797 H   0  0  0  0  0  0  0  0  0  0  0  0
   16.0806   68.2996   -5.2699 H   0  0  0  0  0  0  0  0  0  0  0  0
   15.2225   69.8399   -8.3017 O   0  0  0  0  0  0  0  0  0  0  0  0
   16.8676   69.9332   -9.8778 O   0  0  0  0  0  0  0  0  0  0  0  0
   16.5074   69.9819   -8.7112 C   0  0  0  0  0  0  0  0  0  0  0  0
  1  4  1  0
  1 24  1  0
  1  2  1  6
  1  3  2  0
 25 28  1  0
 25 24  1  0
 25 26  1  6
 25 27  2  0
  6 11  1  0
  6 12  1  0
 29 36  1  0
 29 37  1  0
  9  7  1  1
  7 13  1  0
 10  8  1  1
  8 14  1  0
  4  5  1  0
 36 28  1  1
 33 30  1  1
 30 38  1  0
 34 31  1  1
 31 39  1  0
 35 32  1  1
 32 40  1  0
 41 43  1  0
 15 19  2  0
 42 43  2  0
 16 22  2  0
 12 17  1  6
 17 19  1  0
 17 20  1  0
 18 19  1  0
 18 22  1  0
 18 23  1  0
  9 10  1  0
  9 11  1  0
 10 12  1  0
 11  5  1  6
 33 34  1  0
 33 35  1  0
 34 36  1  0
 35 37  1  0
 37 43  1  6
 20 21  2  0
 21 22  1  0
M  CHG  3   2  -1  26  -1  41  -1
M  END
>  <COMPND>  (67) 
    udp_gluA.pdb 

>  <AUTHOR>  (67) 
    GENERATED BY OPEN BABEL 3.1.1

>  <MASTER>  (67) 
        0    0    0    0    0    0    0    0   56    0   56    0

>  <minimizedAffinity>  (67) 
-7.22331

>  <CNNscore>  (67) 
0.4921775162

>  <CNNaffinity>  (67) 
4.3806204796

>  <CNN_VS>  (67) 
2.1560428143

>  <CNNaffinity_variance>  (67) 
0.0790796354

$$$$
68
     RDKit          3D

 43 45  0  0  0  0  0  0  0  0999 V2000
   28.3356   73.8427   -2.6543 P   0  0  2  0  0  0  0  0  0  0  0  0
   27.5387   74.7381   -3.7415 O   0  0  0  0  0  0  0  0  0  0  0  0
   29.7187   74.3249   -2.3280 O   0  0  0  0  0  0  0  0  0  0  0  0
   28.2364   72.3385   -3.2421 O   0  0  0  0  0  0  0  0  0  0  0  0
   29.4338   71.6690   -3.5921 C   0  0  0  0  0  0  0  0  0  0  0  0
   28.7568   69.4786   -2.8700 O   0  0  0  0  0  0  0  0  0  0  0  0
   31.3986   69.3305   -1.4592 O   0  0  0  0  0  0  0  0  0  0  0  0
   31.8418   67.8568   -3.7103 O   0  0  0  0  0  0  0  0  0  0  0  0
   31.0753   69.9366   -2.7109 C   0  0  1  0  0  0  0  0  0  0  0  0
   30.8641   68.8742   -3.7686 C   0  0  2  0  0  0  0  0  0  0  0  0
   29.6861   70.5483   -2.5918 C   0  0  1  0  0  0  0  0  0  0  0  0
   29.4719   68.3672   -3.4328 C   0  0  2  0  0  0  0  0  0  0  0  0
   32.2822   68.9327   -1.5108 H   0  0  0  0  0  0  0  0  0  0  0  0
   32.7100   68.2296   -3.9322 H   0  0  0  0  0  0  0  0  0  0  0  0
   26.8437   67.3343   -3.3878 O   0  0  0  0  0  0  0  0  0  0  0  0
   26.8636   66.5884   -7.9362 O   0  0  0  0  0  0  0  0  0  0  0  0
   28.7662   67.8960   -4.5907 N   0  0  0  0  0  0  0  0  0  0  0  0
   26.8565   66.9628   -5.6530 N   0  0  0  0  0  0  0  0  0  0  0  0
   27.4490   67.3961   -4.4596 C   0  0  0  0  0  0  0  0  0  0  0  0
   29.3773   67.9332   -5.8382 C   0  0  0  0  0  0  0  0  0  0  0  0
   28.7997   67.5168   -6.9668 C   0  0  0  0  0  0  0  0  0  0  0  0
   27.4242   66.9794   -6.9168 C   0  0  0  0  0  0  0  0  0  0  0  0
   25.9402   66.6087   -5.5866 H   0  0  0  0  0  0  0  0  0  0  0  0
   27.3200   73.8094   -1.3972 O   0  0  0  0  0  0  0  0  0  0  0  0
   26.7553   72.5733   -0.5214 P   0  0  2  0  0  0  0  0  0  0  0  0
   26.0812   73.3031    0.7566 O   0  0  0  0  0  0  0  0  0  0  0  0
   27.7900   71.5435   -0.1709 O   0  0  0  0  0  0  0  0  0  0  0  0
   25.5071   72.0060   -1.3715 O   0  0  0  0  0  0  0  0  0  0  0  0
   24.3549   73.3396   -2.9535 O   0  0  0  0  0  0  0  0  0  0  0  0
   21.5730   70.3919   -2.1539 O   0  0  0  0  0  0  0  0  0  0  0  0
   23.1306   71.5845    0.0108 O   0  0  0  0  0  0  0  0  0  0  0  0
   23.0780   70.3420   -4.6405 O   0  0  0  0  0  0  0  0  0  0  0  0
   22.8813   70.9398   -2.3148 C   0  0  2  0  0  0  0  0  0  0  0  0
   23.0828   72.0839   -1.3208 C   0  0  2  0  0  0  0  0  0  0  0  0
   23.0052   71.4544   -3.7507 C   0  0  1  0  0  0  0  0  0  0  0  0
   24.3777   72.8425   -1.6149 C   0  0  1  0  0  0  0  0  0  0  0  0
   24.2584   72.3061   -3.9311 C   0  0  1  0  0  0  0  0  0  0  0  0
   21.4710   70.0584   -1.2485 H   0  0  0  0  0  0  0  0  0  0  0  0
   22.3122   71.1017    0.2042 H   0  0  0  0  0  0  0  0  0  0  0  0
   22.2862   69.7916   -4.5355 H   0  0  0  0  0  0  0  0  0  0  0  0
   25.4050   73.0295   -5.8452 O   0  0  0  0  0  0  0  0  0  0  0  0
   23.2162   73.6385   -5.6515 O   0  0  0  0  0  0  0  0  0  0  0  0
   24.2036   73.0647   -5.2171 C   0  0  0  0  0  0  0  0  0  0  0  0
  1  4  1  0
  1 24  1  0
  1  2  1  6
  1  3  2  0
 25 28  1  0
 25 24  1  0
 25 26  1  1
 25 27  2  0
  6 11  1  0
  6 12  1  0
 29 36  1  0
 29 37  1  0
  9  7  1  1
  7 13  1  0
 10  8  1  1
  8 14  1  0
  4  5  1  0
 36 28  1  6
 33 30  1  6
 30 38  1  0
 34 31  1  1
 31 39  1  0
 35 32  1  6
 32 40  1  0
 41 43  1  0
 15 19  2  0
 42 43  2  0
 16 22  2  0
 12 17  1  6
 17 19  1  0
 17 20  1  0
 18 19  1  0
 18 22  1  0
 18 23  1  0
  9 10  1  0
  9 11  1  0
 10 12  1  0
 11  5  1  6
 33 34  1  0
 33 35  1  0
 34 36  1  0
 35 37  1  0
 37 43  1  6
 20 21  2  0
 21 22  1  0
M  CHG  3   2  -1  26  -1  41  -1
M  END
>  <COMPND>  (68) 
    udp_gluA.pdb 

>  <AUTHOR>  (68) 
    GENERATED BY OPEN BABEL 3.1.1

>  <MASTER>  (68) 
        0    0    0    0    0    0    0    0   56    0   56    0

>  <minimizedAffinity>  (68) 
-7.63484

>  <CNNscore>  (68) 
0.4837708771

>  <CNNaffinity>  (68) 
4.4448184967

>  <CNN_VS>  (68) 
2.1502737999

>  <CNNaffinity_variance>  (68) 
0.5203439593

$$$$
69
     RDKit          3D

 43 45  0  0  0  0  0  0  0  0999 V2000
   27.3713   72.6684   -1.5656 P   0  0  2  0  0  0  0  0  0  0  0  0
   27.2119   74.2283   -1.1655 O   0  0  0  0  0  0  0  0  0  0  0  0
   27.4559   71.7219   -0.4041 O   0  0  0  0  0  0  0  0  0  0  0  0
   28.6340   72.6538   -2.5772 O   0  0  0  0  0  0  0  0  0  0  0  0
   29.8670   73.1845   -2.1273 C   0  0  0  0  0  0  0  0  0  0  0  0
   31.9136   72.1969   -1.3441 O   0  0  0  0  0  0  0  0  0  0  0  0
   31.4296   70.0390   -3.3692 O   0  0  0  0  0  0  0  0  0  0  0  0
   30.6123   68.8695   -1.0453 O   0  0  0  0  0  0  0  0  0  0  0  0
   30.4881   70.7578   -2.5720 C   0  0  1  0  0  0  0  0  0  0  0  0
   30.5408   70.2769   -1.1374 C   0  0  2  0  0  0  0  0  0  0  0  0
   30.9792   72.1934   -2.4451 C   0  0  1  0  0  0  0  0  0  0  0  0
   31.7951   70.9612   -0.6212 C   0  0  2  0  0  0  0  0  0  0  0  0
   31.1371   69.1187   -3.4644 H   0  0  0  0  0  0  0  0  0  0  0  0
   29.7906   68.4810   -1.3858 H   0  0  0  0  0  0  0  0  0  0  0  0
   32.6411   69.1915    1.4107 O   0  0  0  0  0  0  0  0  0  0  0  0
   31.4778   72.1634    4.7362 O   0  0  0  0  0  0  0  0  0  0  0  0
   31.7246   71.2471    0.7838 N   0  0  0  0  0  0  0  0  0  0  0  0
   32.0599   70.6729    3.0651 N   0  0  0  0  0  0  0  0  0  0  0  0
   32.1761   70.2894    1.7225 C   0  0  0  0  0  0  0  0  0  0  0  0
   31.2149   72.4643    1.2192 C   0  0  0  0  0  0  0  0  0  0  0  0
   31.1106   72.8156    2.5024 C   0  0  0  0  0  0  0  0  0  0  0  0
   31.5592   71.8716    3.5468 C   0  0  0  0  0  0  0  0  0  0  0  0
   32.3659   70.0218    3.7371 H   0  0  0  0  0  0  0  0  0  0  0  0
   26.1142   72.4158   -2.5498 O   0  0  0  0  0  0  0  0  0  0  0  0
   25.8835   71.3220   -3.7177 P   0  0  2  0  0  0  0  0  0  0  0  0
   26.8070   70.0785   -3.2475 O   0  0  0  0  0  0  0  0  0  0  0  0
   26.1815   71.8254   -5.1004 O   0  0  0  0  0  0  0  0  0  0  0  0
   24.3693   70.8083   -3.5041 O   0  0  0  0  0  0  0  0  0  0  0  0
   22.6813   71.9229   -4.7362 O   0  0  0  0  0  0  0  0  0  0  0  0
   20.4484   69.7803   -1.9992 O   0  0  0  0  0  0  0  0  0  0  0  0
   22.8945   71.1454   -1.1702 O   0  0  0  0  0  0  0  0  0  0  0  0
   20.6143   68.8915   -4.7620 O   0  0  0  0  0  0  0  0  0  0  0  0
   21.5564   70.0356   -2.8624 C   0  0  2  0  0  0  0  0  0  0  0  0
   22.2563   71.3240   -2.4293 C   0  0  2  0  0  0  0  0  0  0  0  0
   21.0218   70.1742   -4.2896 C   0  0  1  0  0  0  0  0  0  0  0  0
   23.3009   71.7525   -3.4608 C   0  0  1  0  0  0  0  0  0  0  0  0
   22.0874   70.7254   -5.2326 C   0  0  1  0  0  0  0  0  0  0  0  0
   20.7639   69.6886   -1.0863 H   0  0  0  0  0  0  0  0  0  0  0  0
   22.2375   70.8732   -0.5109 H   0  0  0  0  0  0  0  0  0  0  0  0
   19.9362   68.5295   -4.1705 H   0  0  0  0  0  0  0  0  0  0  0  0
   20.1280   71.2399   -6.4146 O   0  0  0  0  0  0  0  0  0  0  0  0
   22.1013   71.4225   -7.5424 O   0  0  0  0  0  0  0  0  0  0  0  0
   21.4775   71.1638   -6.5241 C   0  0  0  0  0  0  0  0  0  0  0  0
  1  4  1  0
  1 24  1  0
  1  2  1  1
  1  3  2  0
 25 28  1  0
 25 24  1  0
 25 26  1  1
 25 27  2  0
  6 11  1  0
  6 12  1  0
 29 36  1  0
 29 37  1  0
  9  7  1  6
  7 13  1  0
 10  8  1  6
  8 14  1  0
  4  5  1  0
 36 28  1  6
 33 30  1  1
 30 38  1  0
 34 31  1  1
 31 39  1  0
 35 32  1  6
 32 40  1  0
 41 43  1  0
 15 19  2  0
 42 43  2  0
 16 22  2  0
 12 17  1  1
 17 19  1  0
 17 20  1  0
 18 19  1  0
 18 22  1  0
 18 23  1  0
  9 10  1  0
  9 11  1  0
 10 12  1  0
 11  5  1  1
 33 34  1  0
 33 35  1  0
 34 36  1  0
 35 37  1  0
 37 43  1  6
 20 21  2  0
 21 22  1  0
M  CHG  3   2  -1  26  -1  41  -1
M  END
>  <COMPND>  (69) 
    udp_gluA.pdb 

>  <AUTHOR>  (69) 
    GENERATED BY OPEN BABEL 3.1.1

>  <MASTER>  (69) 
        0    0    0    0    0    0    0    0   56    0   56    0

>  <minimizedAffinity>  (69) 
-6.91395

>  <CNNscore>  (69) 
0.4789530337

>  <CNNaffinity>  (69) 
4.0378708839

>  <CNN_VS>  (69) 
1.9339505434

>  <CNNaffinity_variance>  (69) 
0.0580336154

$$$$
70
     RDKit          3D

 43 45  0  0  0  0  0  0  0  0999 V2000
   22.7941   72.7280   -5.2346 P   0  0  2  0  0  0  0  0  0  0  0  0
   22.7125   71.8196   -6.5714 O   0  0  0  0  0  0  0  0  0  0  0  0
   23.4342   74.0725   -5.4204 O   0  0  0  0  0  0  0  0  0  0  0  0
   23.4991   71.7582   -4.1482 O   0  0  0  0  0  0  0  0  0  0  0  0
   24.8291   71.3336   -4.3834 C   0  0  0  0  0  0  0  0  0  0  0  0
   26.4748   70.2703   -2.9910 O   0  0  0  0  0  0  0  0  0  0  0  0
   26.7937   72.9349   -1.6532 O   0  0  0  0  0  0  0  0  0  0  0  0
   28.9448   72.8472   -3.3269 O   0  0  0  0  0  0  0  0  0  0  0  0
   26.5410   72.6378   -3.0266 C   0  0  1  0  0  0  0  0  0  0  0  0
   27.7961   72.1092   -3.6881 C   0  0  2  0  0  0  0  0  0  0  0  0
   25.6175   71.4286   -3.0835 C   0  0  1  0  0  0  0  0  0  0  0  0
   27.8389   70.6768   -3.1840 C   0  0  2  0  0  0  0  0  0  0  0  0
   27.3818   73.7043   -1.5913 H   0  0  0  0  0  0  0  0  0  0  0  0
   28.8695   73.7516   -3.6710 H   0  0  0  0  0  0  0  0  0  0  0  0
   29.8400   68.8020   -2.5076 O   0  0  0  0  0  0  0  0  0  0  0  0
   30.1656   67.3070   -6.8554 O   0  0  0  0  0  0  0  0  0  0  0  0
   28.4639   69.7851   -4.1196 N   0  0  0  0  0  0  0  0  0  0  0  0
   30.0010   68.0599   -4.6739 N   0  0  0  0  0  0  0  0  0  0  0  0
   29.4588   68.8816   -3.6769 C   0  0  0  0  0  0  0  0  0  0  0  0
   28.0894   69.8097   -5.4575 C   0  0  0  0  0  0  0  0  0  0  0  0
   28.6152   69.0202   -6.3962 C   0  0  0  0  0  0  0  0  0  0  0  0
   29.6616   68.0482   -6.0171 C   0  0  0  0  0  0  0  0  0  0  0  0
   30.6970   67.4240   -4.3901 H   0  0  0  0  0  0  0  0  0  0  0  0
   21.2576   72.7771   -4.7349 O   0  0  0  0  0  0  0  0  0  0  0  0
   20.0949   71.6543   -4.7662 P   0  0  2  0  0  0  0  0  0  0  0  0
   19.1683   72.0459   -3.4980 O   0  0  0  0  0  0  0  0  0  0  0  0
   20.6025   70.2415   -4.7483 O   0  0  0  0  0  0  0  0  0  0  0  0
   19.1998   72.0278   -6.0552 O   0  0  0  0  0  0  0  0  0  0  0  0
   18.2279   70.4058   -7.4813 O   0  0  0  0  0  0  0  0  0  0  0  0
   18.3635   73.7187   -9.9459 O   0  0  0  0  0  0  0  0  0  0  0  0
   20.6198   73.0742   -8.2058 O   0  0  0  0  0  0  0  0  0  0  0  0
   15.8421   72.8786   -8.7678 O   0  0  0  0  0  0  0  0  0  0  0  0
   18.2464   73.0207   -8.7060 C   0  0  2  0  0  0  0  0  0  0  0  0
   19.5174   72.2093   -8.4536 C   0  0  2  0  0  0  0  0  0  0  0  0
   17.0325   72.0935   -8.7981 C   0  0  1  0  0  0  0  0  0  0  0  0
   19.3402   71.2730   -7.2574 C   0  0  1  0  0  0  0  0  0  0  0  0
   16.9957   71.1067   -7.6347 C   0  0  1  0  0  0  0  0  0  0  0  0
   19.1286   74.3142   -9.9109 H   0  0  0  0  0  0  0  0  0  0  0  0
   20.7379   73.6713   -8.9607 H   0  0  0  0  0  0  0  0  0  0  0  0
   15.8530   73.5110   -9.5032 H   0  0  0  0  0  0  0  0  0  0  0  0
   15.9992   69.1247   -6.8730 O   0  0  0  0  0  0  0  0  0  0  0  0
   15.3218   69.9168   -8.9010 O   0  0  0  0  0  0  0  0  0  0  0  0
   16.0166   70.0098   -7.9002 C   0  0  0  0  0  0  0  0  0  0  0  0
  1  4  1  0
  1 24  1  0
  1  2  1  6
  1  3  2  0
 25 28  1  0
 25 24  1  0
 25 26  1  1
 25 27  2  0
  6 11  1  0
  6 12  1  0
 29 36  1  0
 29 37  1  0
  9  7  1  1
  7 13  1  0
 10  8  1  1
  8 14  1  0
  4  5  1  0
 36 28  1  1
 33 30  1  6
 30 38  1  0
 34 31  1  1
 31 39  1  0
 35 32  1  1
 32 40  1  0
 41 43  1  0
 15 19  2  0
 42 43  2  0
 16 22  2  0
 12 17  1  6
 17 19  1  0
 17 20  1  0
 18 19  1  0
 18 22  1  0
 18 23  1  0
  9 10  1  0
  9 11  1  0
 10 12  1  0
 11  5  1  6
 33 34  1  0
 33 35  1  0
 34 36  1  0
 35 37  1  0
 37 43  1  6
 20 21  2  0
 21 22  1  0
M  CHG  3   2  -1  26  -1  41  -1
M  END
>  <COMPND>  (70) 
    udp_gluA.pdb 

>  <AUTHOR>  (70) 
    GENERATED BY OPEN BABEL 3.1.1

>  <MASTER>  (70) 
        0    0    0    0    0    0    0    0   56    0   56    0

>  <minimizedAffinity>  (70) 
-7.08520

>  <CNNscore>  (70) 
0.4675277472

>  <CNNaffinity>  (70) 
4.3841190338

>  <CNN_VS>  (70) 
2.0496973991

>  <CNNaffinity_variance>  (70) 
0.1146423221

$$$$
71
     RDKit          3D

 43 45  0  0  0  0  0  0  0  0999 V2000
   27.1348   72.1603    0.1939 P   0  0  2  0  0  0  0  0  0  0  0  0
   26.6009   73.6010    0.7022 O   0  0  0  0  0  0  0  0  0  0  0  0
   26.6099   71.7258   -1.1430 O   0  0  0  0  0  0  0  0  0  0  0  0
   26.8134   71.1683    1.4311 O   0  0  0  0  0  0  0  0  0  0  0  0
   26.5045   71.7363    2.6906 C   0  0  0  0  0  0  0  0  0  0  0  0
   25.4585   71.0874    4.7552 O   0  0  0  0  0  0  0  0  0  0  0  0
   23.0404   70.4312    3.1079 O   0  0  0  0  0  0  0  0  0  0  0  0
   22.3947   72.8565    4.1741 O   0  0  0  0  0  0  0  0  0  0  0  0
   23.9852   71.4890    2.9443 C   0  0  1  0  0  0  0  0  0  0  0  0
   23.7631   72.5571    3.9941 C   0  0  2  0  0  0  0  0  0  0  0  0
   25.3599   70.9533    3.3207 C   0  0  1  0  0  0  0  0  0  0  0  0
   24.3902   71.9249    5.2250 C   0  0  2  0  0  0  0  0  0  0  0  0
   22.1542   70.7496    2.8732 H   0  0  0  0  0  0  0  0  0  0  0  0
   22.0421   73.2570    3.3634 H   0  0  0  0  0  0  0  0  0  0  0  0
   22.8652   73.3260    7.1453 O   0  0  0  0  0  0  0  0  0  0  0  0
   26.5521   75.6504    8.6446 O   0  0  0  0  0  0  0  0  0  0  0  0
   24.9262   72.9018    6.1300 N   0  0  0  0  0  0  0  0  0  0  0  0
   24.7027   74.4831    7.8895 N   0  0  0  0  0  0  0  0  0  0  0  0
   24.0741   73.5484    7.0563 C   0  0  0  0  0  0  0  0  0  0  0  0
   26.2809   73.2092    6.0960 C   0  0  0  0  0  0  0  0  0  0  0  0
   26.8657   74.1024    6.8966 C   0  0  0  0  0  0  0  0  0  0  0  0
   26.0459   74.8231    7.8925 C   0  0  0  0  0  0  0  0  0  0  0  0
   24.1295   74.9477    8.5413 H   0  0  0  0  0  0  0  0  0  0  0  0
   28.7414   72.3226    0.2662 O   0  0  0  0  0  0  0  0  0  0  0  0
   29.9274   71.2425    0.0651 P   0  0  2  0  0  0  0  0  0  0  0  0
   29.6346   70.1515    1.2244 O   0  0  0  0  0  0  0  0  0  0  0  0
   31.3084   71.8301    0.1035 O   0  0  0  0  0  0  0  0  0  0  0  0
   29.5609   70.4835   -1.3104 O   0  0  0  0  0  0  0  0  0  0  0  0
   30.8425   69.6314   -3.1106 O   0  0  0  0  0  0  0  0  0  0  0  0
   27.5632   71.1938   -5.0786 O   0  0  0  0  0  0  0  0  0  0  0  0
   28.8015   72.6554   -2.8731 O   0  0  0  0  0  0  0  0  0  0  0  0
   27.8182   68.3200   -4.7219 O   0  0  0  0  0  0  0  0  0  0  0  0
   28.2618   70.5750   -3.9984 C   0  0  2  0  0  0  0  0  0  0  0  0
   29.3648   71.5091   -3.5002 C   0  0  2  0  0  0  0  0  0  0  0  0
   28.8650   69.2662   -4.5133 C   0  0  1  0  0  0  0  0  0  0  0  0
   30.2783   70.7944   -2.5034 C   0  0  1  0  0  0  0  0  0  0  0  0
   29.8599   68.6807   -3.5153 C   0  0  1  0  0  0  0  0  0  0  0  0
   27.1712   72.0277   -4.7750 H   0  0  0  0  0  0  0  0  0  0  0  0
   28.2205   73.1137   -3.4998 H   0  0  0  0  0  0  0  0  0  0  0  0
   27.1780   68.6805   -5.3552 H   0  0  0  0  0  0  0  0  0  0  0  0
   31.6062   67.1322   -3.2827 O   0  0  0  0  0  0  0  0  0  0  0  0
   30.5333   67.1957   -5.2937 O   0  0  0  0  0  0  0  0  0  0  0  0
   30.6772   67.6035   -4.1509 C   0  0  0  0  0  0  0  0  0  0  0  0
  1  4  1  0
  1 24  1  0
  1  2  1  1
  1  3  2  0
 25 28  1  0
 25 24  1  0
 25 26  1  1
 25 27  2  0
  6 11  1  0
  6 12  1  0
 29 36  1  0
 29 37  1  0
  9  7  1  1
  7 13  1  0
 10  8  1  1
  8 14  1  0
  4  5  1  0
 36 28  1  1
 33 30  1  6
 30 38  1  0
 34 31  1  1
 31 39  1  0
 35 32  1  1
 32 40  1  0
 41 43  1  0
 15 19  2  0
 42 43  2  0
 16 22  2  0
 12 17  1  1
 17 19  1  0
 17 20  1  0
 18 19  1  0
 18 22  1  0
 18 23  1  0
  9 10  1  0
  9 11  1  0
 10 12  1  0
 11  5  1  6
 33 34  1  0
 33 35  1  0
 34 36  1  0
 35 37  1  0
 37 43  1  6
 20 21  2  0
 21 22  1  0
M  CHG  3   2  -1  26  -1  41  -1
M  END
>  <COMPND>  (71) 
    udp_gluA.pdb 

>  <AUTHOR>  (71) 
    GENERATED BY OPEN BABEL 3.1.1

>  <MASTER>  (71) 
        0    0    0    0    0    0    0    0   56    0   56    0

>  <minimizedAffinity>  (71) 
-6.54597

>  <CNNscore>  (71) 
0.4453181922

>  <CNNaffinity>  (71) 
3.9304594994

>  <CNN_VS>  (71) 
1.7503051758

>  <CNNaffinity_variance>  (71) 
0.1344781667

$$$$
72
     RDKit          3D

 43 45  0  0  0  0  0  0  0  0999 V2000
   26.0290   72.0869   -1.2900 P   0  0  2  0  0  0  0  0  0  0  0  0
   26.8606   73.4167   -1.6886 O   0  0  0  0  0  0  0  0  0  0  0  0
   24.5369   72.2254   -1.3688 O   0  0  0  0  0  0  0  0  0  0  0  0
   26.6211   71.6782    0.1593 O   0  0  0  0  0  0  0  0  0  0  0  0
   26.7010   72.6743    1.1623 C   0  0  0  0  0  0  0  0  0  0  0  0
   25.7265   73.0980    3.3183 O   0  0  0  0  0  0  0  0  0  0  0  0
   25.3594   70.1294    3.5292 O   0  0  0  0  0  0  0  0  0  0  0  0
   22.8662   70.9905    2.8373 O   0  0  0  0  0  0  0  0  0  0  0  0
   25.2548   70.9737    2.3825 C   0  0  1  0  0  0  0  0  0  0  0  0
   23.9707   71.7741    2.4364 C   0  0  2  0  0  0  0  0  0  0  0  0
   26.3134   72.0615    2.5019 C   0  0  1  0  0  0  0  0  0  0  0  0
   24.3161   72.8570    3.4443 C   0  0  2  0  0  0  0  0  0  0  0  0
   24.6926   69.4264    3.4754 H   0  0  0  0  0  0  0  0  0  0  0  0
   22.6863   70.3163    2.1628 H   0  0  0  0  0  0  0  0  0  0  0  0
   23.3820   74.5957    5.4645 O   0  0  0  0  0  0  0  0  0  0  0  0
   21.6160   77.5282    2.3781 O   0  0  0  0  0  0  0  0  0  0  0  0
   23.6092   74.0816    3.1967 N   0  0  0  0  0  0  0  0  0  0  0  0
   22.5025   76.0541    3.9254 N   0  0  0  0  0  0  0  0  0  0  0  0
   23.1832   74.8827    4.2825 C   0  0  0  0  0  0  0  0  0  0  0  0
   23.3461   74.4789    1.8914 C   0  0  0  0  0  0  0  0  0  0  0  0
   22.6962   75.5982    1.5667 C   0  0  0  0  0  0  0  0  0  0  0  0
   22.2166   76.4909    2.6420 C   0  0  0  0  0  0  0  0  0  0  0  0
   22.1943   76.6270    4.6644 H   0  0  0  0  0  0  0  0  0  0  0  0
   26.6533   70.9616   -2.2681 O   0  0  0  0  0  0  0  0  0  0  0  0
   26.1166   70.3554   -3.6674 P   0  0  2  0  0  0  0  0  0  0  0  0
   26.0406   71.6555   -4.6288 O   0  0  0  0  0  0  0  0  0  0  0  0
   24.8279   69.5935   -3.5545 O   0  0  0  0  0  0  0  0  0  0  0  0
   27.3545   69.4955   -4.2425 O   0  0  0  0  0  0  0  0  0  0  0  0
   26.9238   67.2830   -4.9694 O   0  0  0  0  0  0  0  0  0  0  0  0
   31.0473   67.2970   -4.7165 O   0  0  0  0  0  0  0  0  0  0  0  0
   29.4321   68.5700   -2.6416 O   0  0  0  0  0  0  0  0  0  0  0  0
   29.7441   67.4389   -7.3111 O   0  0  0  0  0  0  0  0  0  0  0  0
   29.7534   67.8578   -4.9385 C   0  0  2  0  0  0  0  0  0  0  0  0
   28.9149   67.7294   -3.6666 C   0  0  2  0  0  0  0  0  0  0  0  0
   29.0967   67.0911   -6.0887 C   0  0  1  0  0  0  0  0  0  0  0  0
   27.4569   68.1070   -3.9320 C   0  0  1  0  0  0  0  0  0  0  0  0
   27.6136   67.4295   -6.2086 C   0  0  1  0  0  0  0  0  0  0  0  0
   31.4839   67.7685   -3.9895 H   0  0  0  0  0  0  0  0  0  0  0  0
   30.3571   68.3360   -2.4682 H   0  0  0  0  0  0  0  0  0  0  0  0
   30.6889   67.2287   -7.2479 H   0  0  0  0  0  0  0  0  0  0  0  0
   26.2237   65.5465   -6.3641 O   0  0  0  0  0  0  0  0  0  0  0  0
   26.9583   66.4613   -8.3192 O   0  0  0  0  0  0  0  0  0  0  0  0
   26.9168   66.4520   -7.0981 C   0  0  0  0  0  0  0  0  0  0  0  0
  1  4  1  0
  1 24  1  0
  1  2  1  6
  1  3  2  0
 25 28  1  0
 25 24  1  0
 25 26  1  6
 25 27  2  0
  6 11  1  0
  6 12  1  0
 29 36  1  0
 29 37  1  0
  9  7  1  1
  7 13  1  0
 10  8  1  1
  8 14  1  0
  4  5  1  0
 36 28  1  6
 33 30  1  1
 30 38  1  0
 34 31  1  1
 31 39  1  0
 35 32  1  6
 32 40  1  0
 41 43  1  0
 15 19  2  0
 42 43  2  0
 16 22  2  0
 12 17  1  6
 17 19  1  0
 17 20  1  0
 18 19  1  0
 18 22  1  0
 18 23  1  0
  9 10  1  0
  9 11  1  0
 10 12  1  0
 11  5  1  6
 33 34  1  0
 33 35  1  0
 34 36  1  0
 35 37  1  0
 37 43  1  6
 20 21  2  0
 21 22  1  0
M  CHG  3   2  -1  26  -1  41  -1
M  END
>  <COMPND>  (72) 
    udp_gluA.pdb 

>  <AUTHOR>  (72) 
    GENERATED BY OPEN BABEL 3.1.1

>  <MASTER>  (72) 
        0    0    0    0    0    0    0    0   56    0   56    0

>  <minimizedAffinity>  (72) 
-6.85714

>  <CNNscore>  (72) 
0.4399578273

>  <CNNaffinity>  (72) 
4.2263541222

>  <CNN_VS>  (72) 
1.8594175577

>  <CNNaffinity_variance>  (72) 
0.1194124594

$$$$
73
     RDKit          3D

 43 45  0  0  0  0  0  0  0  0999 V2000
   15.3883   69.5315   -4.9108 P   0  0  2  0  0  0  0  0  0  0  0  0
   14.5483   70.9078   -5.0490 O   0  0  0  0  0  0  0  0  0  0  0  0
   15.2598   68.5913   -6.0732 O   0  0  0  0  0  0  0  0  0  0  0  0
   14.9322   68.9404   -3.4753 O   0  0  0  0  0  0  0  0  0  0  0  0
   13.5499   68.7654   -3.2245 C   0  0  0  0  0  0  0  0  0  0  0  0
   14.0561   66.8707   -1.8347 O   0  0  0  0  0  0  0  0  0  0  0  0
   11.5547   65.6331   -2.9312 O   0  0  0  0  0  0  0  0  0  0  0  0
   10.7533   66.5274   -0.4829 O   0  0  0  0  0  0  0  0  0  0  0  0
   11.8233   66.9992   -2.6147 C   0  0  1  0  0  0  0  0  0  0  0  0
   11.8232   67.1994   -1.1140 C   0  0  2  0  0  0  0  0  0  0  0  0
   13.2742   67.2882   -2.9746 C   0  0  1  0  0  0  0  0  0  0  0  0
   13.1792   66.6385   -0.7209 C   0  0  2  0  0  0  0  0  0  0  0  0
   10.6331   65.4247   -2.7098 H   0  0  0  0  0  0  0  0  0  0  0  0
    9.9124   66.9213   -0.7654 H   0  0  0  0  0  0  0  0  0  0  0  0
   12.5877   65.8888    1.9370 O   0  0  0  0  0  0  0  0  0  0  0  0
   15.3183   69.1754    3.6650 O   0  0  0  0  0  0  0  0  0  0  0  0
   13.7217   67.2812    0.4424 N   0  0  0  0  0  0  0  0  0  0  0  0
   13.9475   67.5271    2.7951 N   0  0  0  0  0  0  0  0  0  0  0  0
   13.3600   66.8273    1.7329 C   0  0  0  0  0  0  0  0  0  0  0  0
   14.6021   68.3467    0.2991 C   0  0  0  0  0  0  0  0  0  0  0  0
   15.1540   69.0037    1.3211 C   0  0  0  0  0  0  0  0  0  0  0  0
   14.8278   68.5929    2.7025 C   0  0  0  0  0  0  0  0  0  0  0  0
   13.7092   67.2305    3.7031 H   0  0  0  0  0  0  0  0  0  0  0  0
   16.8926   70.0513   -4.6284 O   0  0  0  0  0  0  0  0  0  0  0  0
   17.5309   71.5355   -4.6848 P   0  0  2  0  0  0  0  0  0  0  0  0
   19.0575   71.3004   -4.2005 O   0  0  0  0  0  0  0  0  0  0  0  0
   16.7792   72.5599   -3.8850 O   0  0  0  0  0  0  0  0  0  0  0  0
   17.6500   71.8703   -6.2584 O   0  0  0  0  0  0  0  0  0  0  0  0
   17.3090   70.3571   -8.0481 O   0  0  0  0  0  0  0  0  0  0  0  0
   19.9126   73.0840   -9.7373 O   0  0  0  0  0  0  0  0  0  0  0  0
   20.3163   72.1517   -6.9983 O   0  0  0  0  0  0  0  0  0  0  0  0
   17.0910   73.1352  -10.4350 O   0  0  0  0  0  0  0  0  0  0  0  0
   18.8616   72.6468   -8.8757 C   0  0  2  0  0  0  0  0  0  0  0  0
   19.3945   71.5798   -7.9191 C   0  0  2  0  0  0  0  0  0  0  0  0
   17.7444   72.0697   -9.7478 C   0  0  1  0  0  0  0  0  0  0  0  0
   18.2534   70.9248   -7.1396 C   0  0  1  0  0  0  0  0  0  0  0  0
   16.7109   71.3244   -8.9081 C   0  0  1  0  0  0  0  0  0  0  0  0
   20.6341   73.4548   -9.2051 H   0  0  0  0  0  0  0  0  0  0  0  0
   21.0430   72.5693   -7.4861 H   0  0  0  0  0  0  0  0  0  0  0  0
   17.7378   73.6177  -10.9730 H   0  0  0  0  0  0  0  0  0  0  0  0
   15.0591   69.6631   -9.0235 O   0  0  0  0  0  0  0  0  0  0  0  0
   15.7745   70.5574  -10.9953 O   0  0  0  0  0  0  0  0  0  0  0  0
   15.8198   70.4965   -9.7757 C   0  0  0  0  0  0  0  0  0  0  0  0
  1  4  1  0
  1 24  1  0
  1  2  1  6
  1  3  2  0
 25 28  1  0
 25 24  1  0
 25 26  1  1
 25 27  2  0
  6 11  1  0
  6 12  1  0
 29 36  1  0
 29 37  1  0
  9  7  1  1
  7 13  1  0
 10  8  1  1
  8 14  1  0
  4  5  1  0
 36 28  1  6
 33 30  1  6
 30 38  1  0
 34 31  1  1
 31 39  1  0
 35 32  1  1
 32 40  1  0
 41 43  1  0
 15 19  2  0
 42 43  2  0
 16 22  2  0
 12 17  1  1
 17 19  1  0
 17 20  1  0
 18 19  1  0
 18 22  1  0
 18 23  1  0
  9 10  1  0
  9 11  1  0
 10 12  1  0
 11  5  1  1
 33 34  1  0
 33 35  1  0
 34 36  1  0
 35 37  1  0
 37 43  1  6
 20 21  2  0
 21 22  1  0
M  CHG  3   2  -1  26  -1  41  -1
M  END
>  <COMPND>  (73) 
    udp_gluA.pdb 

>  <AUTHOR>  (73) 
    GENERATED BY OPEN BABEL 3.1.1

>  <MASTER>  (73) 
        0    0    0    0    0    0    0    0   56    0   56    0

>  <minimizedAffinity>  (73) 
-6.61770

>  <CNNscore>  (73) 
0.4075131714

>  <CNNaffinity>  (73) 
3.9146010876

>  <CNN_VS>  (73) 
1.5952515602

>  <CNNaffinity_variance>  (73) 
0.2831361890

$$$$
74
     RDKit          3D

 43 45  0  0  0  0  0  0  0  0999 V2000
   14.3607   69.8318   -3.3548 P   0  0  2  0  0  0  0  0  0  0  0  0
   15.7754   69.5825   -2.6096 O   0  0  0  0  0  0  0  0  0  0  0  0
   13.4067   70.7272   -2.6199 O   0  0  0  0  0  0  0  0  0  0  0  0
   13.8208   68.3400   -3.6727 O   0  0  0  0  0  0  0  0  0  0  0  0
   12.4818   68.0207   -3.3416 C   0  0  0  0  0  0  0  0  0  0  0  0
   13.3394   66.2175   -2.0034 O   0  0  0  0  0  0  0  0  0  0  0  0
   10.8580   64.7174   -2.7676 O   0  0  0  0  0  0  0  0  0  0  0  0
   10.2767   65.5872   -0.2494 O   0  0  0  0  0  0  0  0  0  0  0  0
   11.0263   66.1102   -2.5025 C   0  0  1  0  0  0  0  0  0  0  0  0
   11.1895   66.3448   -1.0157 C   0  0  2  0  0  0  0  0  0  0  0  0
   12.3866   66.5301   -3.0426 C   0  0  1  0  0  0  0  0  0  0  0  0
   12.6323   65.9277   -0.7871 C   0  0  2  0  0  0  0  0  0  0  0  0
    9.9957   64.4258   -2.4315 H   0  0  0  0  0  0  0  0  0  0  0  0
    9.3727   65.8910   -0.4301 H   0  0  0  0  0  0  0  0  0  0  0  0
   12.4179   65.2070    1.9352 O   0  0  0  0  0  0  0  0  0  0  0  0
   15.0298   68.7621    3.2707 O   0  0  0  0  0  0  0  0  0  0  0  0
   13.2463   66.6473    0.2927 N   0  0  0  0  0  0  0  0  0  0  0  0
   13.7182   66.9789    2.5978 N   0  0  0  0  0  0  0  0  0  0  0  0
   13.0764   66.2015    1.6248 C   0  0  0  0  0  0  0  0  0  0  0  0
   14.0076   67.7792    0.0276 C   0  0  0  0  0  0  0  0  0  0  0  0
   14.6133   68.5098    0.9657 C   0  0  0  0  0  0  0  0  0  0  0  0
   14.4851   68.1126    2.3831 C   0  0  0  0  0  0  0  0  0  0  0  0
   13.6126   66.6893    3.5329 H   0  0  0  0  0  0  0  0  0  0  0  0
   14.8078   70.3743   -4.8103 O   0  0  0  0  0  0  0  0  0  0  0  0
   15.7552   69.7165   -5.9432 P   0  0  2  0  0  0  0  0  0  0  0  0
   15.0797   68.2670   -6.1942 O   0  0  0  0  0  0  0  0  0  0  0  0
   17.2100   69.6655   -5.5757 O   0  0  0  0  0  0  0  0  0  0  0  0
   15.4323   70.5539   -7.2836 O   0  0  0  0  0  0  0  0  0  0  0  0
   17.3887   71.7391   -7.8974 O   0  0  0  0  0  0  0  0  0  0  0  0
   14.7443   72.8930  -10.8544 O   0  0  0  0  0  0  0  0  0  0  0  0
   13.8698   72.7154   -8.0726 O   0  0  0  0  0  0  0  0  0  0  0  0
   16.8281   70.9516  -11.4369 O   0  0  0  0  0  0  0  0  0  0  0  0
   15.3153   72.0099   -9.8889 C   0  0  2  0  0  0  0  0  0  0  0  0
   15.2250   72.6427   -8.5001 C   0  0  2  0  0  0  0  0  0  0  0  0
   16.7779   71.7727  -10.2717 C   0  0  1  0  0  0  0  0  0  0  0  0
   16.0270   71.8358   -7.4780 C   0  0  1  0  0  0  0  0  0  0  0  0
   17.5411   71.0747   -9.1498 C   0  0  1  0  0  0  0  0  0  0  0  0
   13.8146   73.0584  -10.6316 H   0  0  0  0  0  0  0  0  0  0  0  0
   13.3550   73.2259   -8.7167 H   0  0  0  0  0  0  0  0  0  0  0  0
   16.3457   71.3844  -12.1585 H   0  0  0  0  0  0  0  0  0  0  0  0
   19.6450   71.7109   -8.3308 O   0  0  0  0  0  0  0  0  0  0  0  0
   19.5815   70.7415  -10.3937 O   0  0  0  0  0  0  0  0  0  0  0  0
   19.0145   71.1426   -9.3884 C   0  0  0  0  0  0  0  0  0  0  0  0
  1  4  1  0
  1 24  1  0
  1  2  1  1
  1  3  2  0
 25 28  1  0
 25 24  1  0
 25 26  1  6
 25 27  2  0
  6 11  1  0
  6 12  1  0
 29 36  1  0
 29 37  1  0
  9  7  1  1
  7 13  1  0
 10  8  1  1
  8 14  1  0
  4  5  1  0
 36 28  1  6
 33 30  1  6
 30 38  1  0
 34 31  1  1
 31 39  1  0
 35 32  1  6
 32 40  1  0
 41 43  1  0
 15 19  2  0
 42 43  2  0
 16 22  2  0
 12 17  1  1
 17 19  1  0
 17 20  1  0
 18 19  1  0
 18 22  1  0
 18 23  1  0
  9 10  1  0
  9 11  1  0
 10 12  1  0
 11  5  1  1
 33 34  1  0
 33 35  1  0
 34 36  1  0
 35 37  1  0
 37 43  1  6
 20 21  2  0
 21 22  1  0
M  CHG  3   2  -1  26  -1  41  -1
M  END
>  <COMPND>  (74) 
    udp_gluA.pdb 

>  <AUTHOR>  (74) 
    GENERATED BY OPEN BABEL 3.1.1

>  <MASTER>  (74) 
        0    0    0    0    0    0    0    0   56    0   56    0

>  <minimizedAffinity>  (74) 
-6.78949

>  <CNNscore>  (74) 
0.3924433887

>  <CNNaffinity>  (74) 
3.8291656971

>  <CNN_VS>  (74) 
1.5027307272

>  <CNNaffinity_variance>  (74) 
0.1336557716

$$$$
75
     RDKit          3D

 43 45  0  0  0  0  0  0  0  0999 V2000
   22.3527   71.9622   -4.7795 P   0  0  2  0  0  0  0  0  0  0  0  0
   21.7983   70.4853   -5.1403 O   0  0  0  0  0  0  0  0  0  0  0  0
   21.7868   72.5627   -3.5261 O   0  0  0  0  0  0  0  0  0  0  0  0
   22.1107   72.8102   -6.1361 O   0  0  0  0  0  0  0  0  0  0  0  0
   20.8006   72.8737   -6.6691 C   0  0  0  0  0  0  0  0  0  0  0  0
   20.1094   71.0186   -8.0323 O   0  0  0  0  0  0  0  0  0  0  0  0
   20.5676   72.8181  -10.3867 O   0  0  0  0  0  0  0  0  0  0  0  0
   17.8586   72.9058  -10.0881 O   0  0  0  0  0  0  0  0  0  0  0  0
   20.0635   73.1377   -9.0897 C   0  0  1  0  0  0  0  0  0  0  0  0
   18.6412   72.6399   -8.9430 C   0  0  2  0  0  0  0  0  0  0  0  0
   20.8069   72.2824   -8.0729 C   0  0  1  0  0  0  0  0  0  0  0  0
   18.8499   71.1533   -8.7096 C   0  0  2  0  0  0  0  0  0  0  0  0
   20.1075   73.3523  -11.0535 H   0  0  0  0  0  0  0  0  0  0  0  0
   17.7545   73.8651  -10.1929 H   0  0  0  0  0  0  0  0  0  0  0  0
   16.4573   70.0419   -9.7180 O   0  0  0  0  0  0  0  0  0  0  0  0
   14.9611   68.9673   -5.4930 O   0  0  0  0  0  0  0  0  0  0  0  0
   17.8179   70.5762   -7.8954 N   0  0  0  0  0  0  0  0  0  0  0  0
   15.7139   69.5087   -7.6127 N   0  0  0  0  0  0  0  0  0  0  0  0
   16.6548   70.0452   -8.5015 C   0  0  0  0  0  0  0  0  0  0  0  0
   17.9639   70.5387   -6.5140 C   0  0  0  0  0  0  0  0  0  0  0  0
   17.0584   70.0239   -5.6798 C   0  0  0  0  0  0  0  0  0  0  0  0
   15.8142   69.4493   -6.2321 C   0  0  0  0  0  0  0  0  0  0  0  0
   14.8949   69.1349   -8.0111 H   0  0  0  0  0  0  0  0  0  0  0  0
   23.9555   71.7539   -4.7622 O   0  0  0  0  0  0  0  0  0  0  0  0
   25.1655   72.8260   -4.7811 P   0  0  2  0  0  0  0  0  0  0  0  0
   25.0014   73.5939   -3.3656 O   0  0  0  0  0  0  0  0  0  0  0  0
   25.1676   73.7310   -5.9790 O   0  0  0  0  0  0  0  0  0  0  0  0
   26.5016   71.9383   -4.6102 O   0  0  0  0  0  0  0  0  0  0  0  0
   26.5780   69.9024   -3.4026 O   0  0  0  0  0  0  0  0  0  0  0  0
   30.5378   71.0776   -3.3207 O   0  0  0  0  0  0  0  0  0  0  0  0
   28.4050   73.0292   -2.9005 O   0  0  0  0  0  0  0  0  0  0  0  0
   29.6860   68.9423   -5.1000 O   0  0  0  0  0  0  0  0  0  0  0  0
   29.2243   70.9604   -3.8674 C   0  0  2  0  0  0  0  0  0  0  0  0
   28.2169   71.6189   -2.9246 C   0  0  2  0  0  0  0  0  0  0  0  0
   28.9095   69.4713   -4.0268 C   0  0  1  0  0  0  0  0  0  0  0  0
   26.7822   71.3151   -3.3582 C   0  0  1  0  0  0  0  0  0  0  0  0
   27.4324   69.2441   -4.3352 C   0  0  1  0  0  0  0  0  0  0  0  0
   30.7599   72.0156   -3.2104 H   0  0  0  0  0  0  0  0  0  0  0  0
   29.3134   73.2291   -2.6264 H   0  0  0  0  0  0  0  0  0  0  0  0
   30.6283   69.0807   -4.9162 H   0  0  0  0  0  0  0  0  0  0  0  0
   27.3506   67.1033   -5.2902 O   0  0  0  0  0  0  0  0  0  0  0  0
   26.5894   67.3180   -3.1516 O   0  0  0  0  0  0  0  0  0  0  0  0
   27.0701   67.8047   -4.1640 C   0  0  0  0  0  0  0  0  0  0  0  0
  1  4  1  0
  1 24  1  0
  1  2  1  6
  1  3  2  0
 25 28  1  0
 25 24  1  0
 25 26  1  1
 25 27  2  0
  6 11  1  0
  6 12  1  0
 29 36  1  0
 29 37  1  0
  9  7  1  6
  7 13  1  0
 10  8  1  6
  8 14  1  0
  4  5  1  0
 36 28  1  6
 33 30  1  1
 30 38  1  0
 34 31  1  6
 31 39  1  0
 35 32  1  6
 32 40  1  0
 41 43  1  0
 15 19  2  0
 42 43  2  0
 16 22  2  0
 12 17  1  1
 17 19  1  0
 17 20  1  0
 18 19  1  0
 18 22  1  0
 18 23  1  0
  9 10  1  0
  9 11  1  0
 10 12  1  0
 11  5  1  1
 33 34  1  0
 33 35  1  0
 34 36  1  0
 35 37  1  0
 37 43  1  1
 20 21  2  0
 21 22  1  0
M  CHG  3   2  -1  26  -1  41  -1
M  END
>  <COMPND>  (75) 
    udp_gluA.pdb 

>  <AUTHOR>  (75) 
    GENERATED BY OPEN BABEL 3.1.1

>  <MASTER>  (75) 
        0    0    0    0    0    0    0    0   56    0   56    0

>  <minimizedAffinity>  (75) 
-7.82677

>  <CNNscore>  (75) 
0.3859386444

>  <CNNaffinity>  (75) 
4.1615514755

>  <CNN_VS>  (75) 
1.6061035395

>  <CNNaffinity_variance>  (75) 
0.0461743288

$$$$
76
     RDKit          3D

 43 45  0  0  0  0  0  0  0  0999 V2000
   25.9832   73.0166   -2.0026 P   0  0  2  0  0  0  0  0  0  0  0  0
   25.6311   74.3024   -1.0853 O   0  0  0  0  0  0  0  0  0  0  0  0
   25.1044   71.8206   -1.7812 O   0  0  0  0  0  0  0  0  0  0  0  0
   27.5646   72.7824   -1.7528 O   0  0  0  0  0  0  0  0  0  0  0  0
   28.2487   71.8543   -2.5743 C   0  0  0  0  0  0  0  0  0  0  0  0
   29.5501   69.8881   -2.1074 O   0  0  0  0  0  0  0  0  0  0  0  0
   31.6847   71.7577   -1.1380 O   0  0  0  0  0  0  0  0  0  0  0  0
   32.5666   71.0871   -3.6298 O   0  0  0  0  0  0  0  0  0  0  0  0
   30.7673   71.9170   -2.2204 C   0  0  1  0  0  0  0  0  0  0  0  0
   31.1760   71.0426   -3.3869 C   0  0  2  0  0  0  0  0  0  0  0  0
   29.4401   71.2961   -1.8065 C   0  0  1  0  0  0  0  0  0  0  0  0
   30.7053   69.6713   -2.9332 C   0  0  2  0  0  0  0  0  0  0  0  0
   32.5404   72.1468   -1.3791 H   0  0  0  0  0  0  0  0  0  0  0  0
   32.8163   71.9802   -3.9161 H   0  0  0  0  0  0  0  0  0  0  0  0
   31.8531   67.1433   -3.4512 O   0  0  0  0  0  0  0  0  0  0  0  0
   29.2268   66.5129   -7.1861 O   0  0  0  0  0  0  0  0  0  0  0  0
   30.3401   68.8254   -4.0341 N   0  0  0  0  0  0  0  0  0  0  0  0
   30.5447   66.8322   -5.3115 N   0  0  0  0  0  0  0  0  0  0  0  0
   30.9780   67.5739   -4.2046 C   0  0  0  0  0  0  0  0  0  0  0  0
   29.3598   69.2364   -4.9292 C   0  0  0  0  0  0  0  0  0  0  0  0
   28.9573   68.5183   -5.9795 C   0  0  0  0  0  0  0  0  0  0  0  0
   29.5741   67.1991   -6.2296 C   0  0  0  0  0  0  0  0  0  0  0  0
   30.9757   65.9582   -5.4520 H   0  0  0  0  0  0  0  0  0  0  0  0
   25.9374   73.6174   -3.5026 O   0  0  0  0  0  0  0  0  0  0  0  0
   25.3562   72.9964   -4.8774 P   0  0  2  0  0  0  0  0  0  0  0  0
   26.3030   71.7080   -5.1306 O   0  0  0  0  0  0  0  0  0  0  0  0
   25.3137   73.9670   -6.0220 O   0  0  0  0  0  0  0  0  0  0  0  0
   23.9234   72.3755   -4.4726 O   0  0  0  0  0  0  0  0  0  0  0  0
   22.1053   72.8410   -5.9172 O   0  0  0  0  0  0  0  0  0  0  0  0
   20.1712   71.3471   -2.5862 O   0  0  0  0  0  0  0  0  0  0  0  0
   22.4082   73.2028   -2.2918 O   0  0  0  0  0  0  0  0  0  0  0  0
   20.4654   69.7003   -4.9637 O   0  0  0  0  0  0  0  0  0  0  0  0
   21.2378   71.4732   -3.5266 C   0  0  2  0  0  0  0  0  0  0  0  0
   21.7563   72.9114   -3.5226 C   0  0  2  0  0  0  0  0  0  0  0  0
   20.6947   71.1070   -4.9097 C   0  0  1  0  0  0  0  0  0  0  0  0
   22.7375   73.1425   -4.6727 C   0  0  1  0  0  0  0  0  0  0  0  0
   21.6798   71.4834   -6.0126 C   0  0  1  0  0  0  0  0  0  0  0  0
   20.4929   71.5749   -1.6997 H   0  0  0  0  0  0  0  0  0  0  0  0
   21.7915   73.0580   -1.5576 H   0  0  0  0  0  0  0  0  0  0  0  0
   19.8400   69.4476   -4.2666 H   0  0  0  0  0  0  0  0  0  0  0  0
   19.6712   71.4304   -7.2227 O   0  0  0  0  0  0  0  0  0  0  0  0
   21.6097   71.3974   -8.4228 O   0  0  0  0  0  0  0  0  0  0  0  0
   21.0211   71.4316   -7.3526 C   0  0  0  0  0  0  0  0  0  0  0  0
  1  4  1  0
  1 24  1  0
  1  2  1  1
  1  3  2  0
 25 28  1  0
 25 24  1  0
 25 26  1  6
 25 27  2  0
  6 11  1  0
  6 12  1  0
 29 36  1  0
 29 37  1  0
  9  7  1  1
  7 13  1  0
 10  8  1  1
  8 14  1  0
  4  5  1  0
 36 28  1  1
 33 30  1  1
 30 38  1  0
 34 31  1  1
 31 39  1  0
 35 32  1  1
 32 40  1  0
 41 43  1  0
 15 19  2  0
 42 43  2  0
 16 22  2  0
 12 17  1  6
 17 19  1  0
 17 20  1  0
 18 19  1  0
 18 22  1  0
 18 23  1  0
  9 10  1  0
  9 11  1  0
 10 12  1  0
 11  5  1  6
 33 34  1  0
 33 35  1  0
 34 36  1  0
 35 37  1  0
 37 43  1  6
 20 21  2  0
 21 22  1  0
M  CHG  3   2  -1  26  -1  41  -1
M  END
>  <COMPND>  (76) 
    udp_gluA.pdb 

>  <AUTHOR>  (76) 
    GENERATED BY OPEN BABEL 3.1.1

>  <MASTER>  (76) 
        0    0    0    0    0    0    0    0   56    0   56    0

>  <minimizedAffinity>  (76) 
-6.62323

>  <CNNscore>  (76) 
0.3839740753

>  <CNNaffinity>  (76) 
4.2996611595

>  <CNN_VS>  (76) 
1.6509584188

>  <CNNaffinity_variance>  (76) 
0.0364891961

$$$$
77
     RDKit          3D

 43 45  0  0  0  0  0  0  0  0999 V2000
   26.7532   72.3508    1.1507 P   0  0  2  0  0  0  0  0  0  0  0  0
   27.3862   73.0375   -0.1709 O   0  0  0  0  0  0  0  0  0  0  0  0
   26.6069   73.2650    2.3316 O   0  0  0  0  0  0  0  0  0  0  0  0
   27.6728   71.0405    1.3862 O   0  0  0  0  0  0  0  0  0  0  0  0
   28.9715   71.2136    1.9228 C   0  0  0  0  0  0  0  0  0  0  0  0
   29.7561   70.5938   -0.2631 O   0  0  0  0  0  0  0  0  0  0  0  0
   32.1898   69.5178    1.1194 O   0  0  0  0  0  0  0  0  0  0  0  0
   33.0624   71.9153    0.1568 O   0  0  0  0  0  0  0  0  0  0  0  0
   31.4083   70.6710    1.4326 C   0  0  1  0  0  0  0  0  0  0  0  0
   31.6851   71.7778    0.4373 C   0  0  2  0  0  0  0  0  0  0  0  0
   29.9496   70.3420    1.1456 C   0  0  1  0  0  0  0  0  0  0  0  0
   30.8847   71.3228   -0.7711 C   0  0  2  0  0  0  0  0  0  0  0  0
   33.1259   69.7039    1.2947 H   0  0  0  0  0  0  0  0  0  0  0  0
   33.5278   72.2068    0.9570 H   0  0  0  0  0  0  0  0  0  0  0  0
   29.5337   71.0524   -3.2365 O   0  0  0  0  0  0  0  0  0  0  0  0
   29.1161   75.6173   -3.7167 O   0  0  0  0  0  0  0  0  0  0  0  0
   30.4118   72.4241   -1.5614 N   0  0  0  0  0  0  0  0  0  0  0  0
   29.3279   73.3263   -3.4738 N   0  0  0  0  0  0  0  0  0  0  0  0
   29.7451   72.1796   -2.7852 C   0  0  0  0  0  0  0  0  0  0  0  0
   30.6083   73.7277   -1.1223 C   0  0  0  0  0  0  0  0  0  0  0  0
   30.2048   74.8106   -1.7895 C   0  0  0  0  0  0  0  0  0  0  0  0
   29.5009   74.6427   -3.0779 C   0  0  0  0  0  0  0  0  0  0  0  0
   28.8632   73.1814   -4.3296 H   0  0  0  0  0  0  0  0  0  0  0  0
   25.3649   71.7272    0.6060 O   0  0  0  0  0  0  0  0  0  0  0  0
   24.0862   72.4303   -0.0898 P   0  0  2  0  0  0  0  0  0  0  0  0
   24.1622   73.9541    0.4511 O   0  0  0  0  0  0  0  0  0  0  0  0
   22.7804   71.7416    0.1833 O   0  0  0  0  0  0  0  0  0  0  0  0
   24.4751   72.5329   -1.6520 O   0  0  0  0  0  0  0  0  0  0  0  0
   23.2805   71.6115   -3.4777 O   0  0  0  0  0  0  0  0  0  0  0  0
   27.1375   71.6998   -4.9555 O   0  0  0  0  0  0  0  0  0  0  0  0
   26.6240   70.8562   -2.2061 O   0  0  0  0  0  0  0  0  0  0  0  0
   25.1897   73.6671   -5.8424 O   0  0  0  0  0  0  0  0  0  0  0  0
   26.0315   72.1483   -4.1722 C   0  0  2  0  0  0  0  0  0  0  0  0
   25.6180   71.0487   -3.1937 C   0  0  2  0  0  0  0  0  0  0  0  0
   24.8788   72.4744   -5.1245 C   0  0  1  0  0  0  0  0  0  0  0  0
   24.3006   71.3999   -2.5009 C   0  0  1  0  0  0  0  0  0  0  0  0
   23.5725   72.6885   -4.3654 C   0  0  1  0  0  0  0  0  0  0  0  0
   27.8822   71.4865   -4.3714 H   0  0  0  0  0  0  0  0  0  0  0  0
   27.4628   70.6333   -2.6387 H   0  0  0  0  0  0  0  0  0  0  0  0
   26.0192   73.5442   -6.3299 H   0  0  0  0  0  0  0  0  0  0  0  0
   22.7304   72.0528   -6.4602 O   0  0  0  0  0  0  0  0  0  0  0  0
   21.3110   73.1604   -5.0610 O   0  0  0  0  0  0  0  0  0  0  0  0
   22.4075   72.6776   -5.3007 C   0  0  0  0  0  0  0  0  0  0  0  0
  1  4  1  0
  1 24  1  0
  1  2  1  6
  1  3  2  0
 25 28  1  0
 25 24  1  0
 25 26  1  1
 25 27  2  0
  6 11  1  0
  6 12  1  0
 29 36  1  0
 29 37  1  0
  9  7  1  6
  7 13  1  0
 10  8  1  6
  8 14  1  0
  4  5  1  0
 36 28  1  6
 33 30  1  6
 30 38  1  0
 34 31  1  1
 31 39  1  0
 35 32  1  1
 32 40  1  0
 41 43  1  0
 15 19  2  0
 42 43  2  0
 16 22  2  0
 12 17  1  1
 17 19  1  0
 17 20  1  0
 18 19  1  0
 18 22  1  0
 18 23  1  0
  9 10  1  0
  9 11  1  0
 10 12  1  0
 11  5  1  1
 33 34  1  0
 33 35  1  0
 34 36  1  0
 35 37  1  0
 37 43  1  6
 20 21  2  0
 21 22  1  0
M  CHG  3   2  -1  26  -1  41  -1
M  END
>  <COMPND>  (77) 
    udp_gluA.pdb 

>  <AUTHOR>  (77) 
    GENERATED BY OPEN BABEL 3.1.1

>  <MASTER>  (77) 
        0    0    0    0    0    0    0    0   56    0   56    0

>  <minimizedAffinity>  (77) 
-6.05763

>  <CNNscore>  (77) 
0.3693991899

>  <CNNaffinity>  (77) 
3.7046329975

>  <CNN_VS>  (77) 
1.3684884310

>  <CNNaffinity_variance>  (77) 
0.4672539234

$$$$
78
     RDKit          3D

 43 45  0  0  0  0  0  0  0  0999 V2000
   21.3426   72.4507   -6.4549 P   0  0  2  0  0  0  0  0  0  0  0  0
   21.5950   74.0474   -6.5297 O   0  0  0  0  0  0  0  0  0  0  0  0
   20.1710   72.0331   -5.6153 O   0  0  0  0  0  0  0  0  0  0  0  0
   22.7771   71.8511   -6.0071 O   0  0  0  0  0  0  0  0  0  0  0  0
   23.4207   72.4105   -4.8769 C   0  0  0  0  0  0  0  0  0  0  0  0
   23.6739   71.8263   -2.5591 O   0  0  0  0  0  0  0  0  0  0  0  0
   23.4578   68.9705   -3.4474 O   0  0  0  0  0  0  0  0  0  0  0  0
   20.9596   69.4852   -2.4828 O   0  0  0  0  0  0  0  0  0  0  0  0
   22.7884   70.1267   -3.9512 C   0  0  1  0  0  0  0  0  0  0  0  0
   21.7104   70.5707   -2.9853 C   0  0  2  0  0  0  0  0  0  0  0  0
   23.7640   71.2945   -3.8986 C   0  0  1  0  0  0  0  0  0  0  0  0
   22.5212   71.2697   -1.9073 C   0  0  2  0  0  0  0  0  0  0  0  0
   22.8542   68.2111   -3.4711 H   0  0  0  0  0  0  0  0  0  0  0  0
   20.4613   69.0740   -3.2071 H   0  0  0  0  0  0  0  0  0  0  0  0
   22.0852   71.4547    0.8769 O   0  0  0  0  0  0  0  0  0  0  0  0
   19.6971   75.3712    0.4271 O   0  0  0  0  0  0  0  0  0  0  0  0
   21.7890   72.3273   -1.2700 N   0  0  0  0  0  0  0  0  0  0  0  0
   20.8954   73.4046    0.6501 N   0  0  0  0  0  0  0  0  0  0  0  0
   21.6274   72.3264    0.1357 C   0  0  0  0  0  0  0  0  0  0  0  0
   21.2418   73.3505   -2.0345 C   0  0  0  0  0  0  0  0  0  0  0  0
   20.5466   74.3717   -1.5298 C   0  0  0  0  0  0  0  0  0  0  0  0
   20.3313   74.4454   -0.0698 C   0  0  0  0  0  0  0  0  0  0  0  0
   20.7678   73.4247    1.6262 H   0  0  0  0  0  0  0  0  0  0  0  0
   21.2410   72.0260   -8.0112 O   0  0  0  0  0  0  0  0  0  0  0  0
   20.4755   72.7219   -9.2536 P   0  0  2  0  0  0  0  0  0  0  0  0
   21.0721   71.9410  -10.5399 O   0  0  0  0  0  0  0  0  0  0  0  0
   20.6260   74.2145   -9.3116 O   0  0  0  0  0  0  0  0  0  0  0  0
   18.9513   72.2068   -9.1355 O   0  0  0  0  0  0  0  0  0  0  0  0
   18.0584   70.5854   -7.6579 O   0  0  0  0  0  0  0  0  0  0  0  0
   15.5696   70.1996  -10.9329 O   0  0  0  0  0  0  0  0  0  0  0  0
   18.4506   70.5235  -11.2923 O   0  0  0  0  0  0  0  0  0  0  0  0
   14.6378   71.5723   -8.5457 O   0  0  0  0  0  0  0  0  0  0  0  0
   16.4198   70.8887  -10.0162 C   0  0  2  0  0  0  0  0  0  0  0  0
   17.8156   70.2656  -10.0454 C   0  0  2  0  0  0  0  0  0  0  0  0
   15.8095   70.7622   -8.6185 C   0  0  1  0  0  0  0  0  0  0  0  0
   18.6868   70.8220   -8.9183 C   0  0  1  0  0  0  0  0  0  0  0  0
   16.7872   71.2204   -7.5402 C   0  0  1  0  0  0  0  0  0  0  0  0
   15.9375   70.2664  -11.8281 H   0  0  0  0  0  0  0  0  0  0  0  0
   17.9031   70.1734  -12.0121 H   0  0  0  0  0  0  0  0  0  0  0  0
   14.0074   71.2910   -9.2271 H   0  0  0  0  0  0  0  0  0  0  0  0
   15.1912   70.0506   -6.2809 O   0  0  0  0  0  0  0  0  0  0  0  0
   16.8801   71.0663   -5.1342 O   0  0  0  0  0  0  0  0  0  0  0  0
   16.3224   70.7924   -6.1863 C   0  0  0  0  0  0  0  0  0  0  0  0
  1  4  1  0
  1 24  1  0
  1  2  1  6
  1  3  2  0
 25 28  1  0
 25 24  1  0
 25 26  1  6
 25 27  2  0
  6 11  1  0
  6 12  1  0
 29 36  1  0
 29 37  1  0
  9  7  1  1
  7 13  1  0
 10  8  1  1
  8 14  1  0
  4  5  1  0
 36 28  1  6
 33 30  1  6
 30 38  1  0
 34 31  1  6
 31 39  1  0
 35 32  1  6
 32 40  1  0
 41 43  1  0
 15 19  2  0
 42 43  2  0
 16 22  2  0
 12 17  1  6
 17 19  1  0
 17 20  1  0
 18 19  1  0
 18 22  1  0
 18 23  1  0
  9 10  1  0
  9 11  1  0
 10 12  1  0
 11  5  1  6
 33 34  1  0
 33 35  1  0
 34 36  1  0
 35 37  1  0
 37 43  1  1
 20 21  2  0
 21 22  1  0
M  CHG  3   2  -1  26  -1  41  -1
M  END
>  <COMPND>  (78) 
    udp_gluA.pdb 

>  <AUTHOR>  (78) 
    GENERATED BY OPEN BABEL 3.1.1

>  <MASTER>  (78) 
        0    0    0    0    0    0    0    0   56    0   56    0

>  <minimizedAffinity>  (78) 
-6.58735

>  <CNNscore>  (78) 
0.3549653590

>  <CNNaffinity>  (78) 
4.0488805771

>  <CNN_VS>  (78) 
1.4372123480

>  <CNNaffinity_variance>  (78) 
0.0960533842

$$$$
79
     RDKit          3D

 43 45  0  0  0  0  0  0  0  0999 V2000
   23.6074   71.8251   -3.5379 P   0  0  2  0  0  0  0  0  0  0  0  0
   23.4673   73.4356   -3.6132 O   0  0  0  0  0  0  0  0  0  0  0  0
   23.5483   71.2481   -2.1540 O   0  0  0  0  0  0  0  0  0  0  0  0
   24.9582   71.5132   -4.3722 O   0  0  0  0  0  0  0  0  0  0  0  0
   26.1049   72.3053   -4.1228 C   0  0  0  0  0  0  0  0  0  0  0  0
   26.8114   70.2494   -3.0972 O   0  0  0  0  0  0  0  0  0  0  0  0
   28.9024   71.8820   -1.6993 O   0  0  0  0  0  0  0  0  0  0  0  0
   30.3095   70.7208   -3.7261 O   0  0  0  0  0  0  0  0  0  0  0  0
   28.3805   72.0223   -3.0209 C   0  0  1  0  0  0  0  0  0  0  0  0
   28.9264   70.9320   -3.9184 C   0  0  2  0  0  0  0  0  0  0  0  0
   26.8961   71.6860   -2.9778 C   0  0  1  0  0  0  0  0  0  0  0  0
   28.0888   69.7340   -3.5047 C   0  0  2  0  0  0  0  0  0  0  0  0
   29.8499   72.0917   -1.7016 H   0  0  0  0  0  0  0  0  0  0  0  0
   30.7990   71.5114   -4.0043 H   0  0  0  0  0  0  0  0  0  0  0  0
   26.5178   67.3939   -3.3250 O   0  0  0  0  0  0  0  0  0  0  0  0
   27.4167   66.2355   -7.6947 O   0  0  0  0  0  0  0  0  0  0  0  0
   27.8951   68.8031   -4.5803 N   0  0  0  0  0  0  0  0  0  0  0  0
   26.9678   66.8187   -5.5013 N   0  0  0  0  0  0  0  0  0  0  0  0
   27.0867   67.6582   -4.3859 C   0  0  0  0  0  0  0  0  0  0  0  0
   28.5004   69.0290   -5.8105 C   0  0  0  0  0  0  0  0  0  0  0  0
   28.3777   68.2197   -6.8644 C   0  0  0  0  0  0  0  0  0  0  0  0
   27.5510   67.0009   -6.7448 C   0  0  0  0  0  0  0  0  0  0  0  0
   26.4116   66.0140   -5.3895 H   0  0  0  0  0  0  0  0  0  0  0  0
   22.4401   71.3125   -4.5317 O   0  0  0  0  0  0  0  0  0  0  0  0
   21.2087   70.2941   -4.2864 P   0  0  2  0  0  0  0  0  0  0  0  0
   20.3247   71.0474   -3.1588 O   0  0  0  0  0  0  0  0  0  0  0  0
   21.6266   68.9006   -3.9156 O   0  0  0  0  0  0  0  0  0  0  0  0
   20.3226   70.3919   -5.6309 O   0  0  0  0  0  0  0  0  0  0  0  0
   19.9087   72.2742   -7.0074 O   0  0  0  0  0  0  0  0  0  0  0  0
   16.4292   70.0995   -7.4886 O   0  0  0  0  0  0  0  0  0  0  0  0
   17.6533   70.3703   -4.8499 O   0  0  0  0  0  0  0  0  0  0  0  0
   18.4323   70.1328   -9.5952 O   0  0  0  0  0  0  0  0  0  0  0  0
   17.8268   70.2904   -7.2685 C   0  0  2  0  0  0  0  0  0  0  0  0
   18.0368   71.1164   -5.9992 C   0  0  2  0  0  0  0  0  0  0  0  0
   18.4007   71.0245   -8.4824 C   0  0  1  0  0  0  0  0  0  0  0  0
   19.5004   71.5357   -5.8553 C   0  0  1  0  0  0  0  0  0  0  0  0
   19.8188   71.5203   -8.2143 C   0  0  1  0  0  0  0  0  0  0  0  0
   16.0427   69.6346   -6.7298 H   0  0  0  0  0  0  0  0  0  0  0  0
   16.7256   70.1008   -4.9346 H   0  0  0  0  0  0  0  0  0  0  0  0
   17.5357   69.8098   -9.7762 H   0  0  0  0  0  0  0  0  0  0  0  0
   20.7616   71.8647  -10.3342 O   0  0  0  0  0  0  0  0  0  0  0  0
   20.1380   73.7170   -9.1598 O   0  0  0  0  0  0  0  0  0  0  0  0
   20.2428   72.5035   -9.2564 C   0  0  0  0  0  0  0  0  0  0  0  0
  1  4  1  0
  1 24  1  0
  1  2  1  1
  1  3  2  0
 25 28  1  0
 25 24  1  0
 25 26  1  1
 25 27  2  0
  6 11  1  0
  6 12  1  0
 29 36  1  0
 29 37  1  0
  9  7  1  1
  7 13  1  0
 10  8  1  1
  8 14  1  0
  4  5  1  0
 36 28  1  6
 33 30  1  6
 30 38  1  0
 34 31  1  1
 31 39  1  0
 35 32  1  6
 32 40  1  0
 41 43  1  0
 15 19  2  0
 42 43  2  0
 16 22  2  0
 12 17  1  6
 17 19  1  0
 17 20  1  0
 18 19  1  0
 18 22  1  0
 18 23  1  0
  9 10  1  0
  9 11  1  0
 10 12  1  0
 11  5  1  6
 33 34  1  0
 33 35  1  0
 34 36  1  0
 35 37  1  0
 37 43  1  6
 20 21  2  0
 21 22  1  0
M  CHG  3   2  -1  26  -1  41  -1
M  END
>  <COMPND>  (79) 
    udp_gluA.pdb 

>  <AUTHOR>  (79) 
    GENERATED BY OPEN BABEL 3.1.1

>  <MASTER>  (79) 
        0    0    0    0    0    0    0    0   56    0   56    0

>  <minimizedAffinity>  (79) 
-7.54096

>  <CNNscore>  (79) 
0.3005879223

>  <CNNaffinity>  (79) 
4.3307266235

>  <CNN_VS>  (79) 
1.3017641306

>  <CNNaffinity_variance>  (79) 
0.0732574090

$$$$
80
     RDKit          3D

 43 45  0  0  0  0  0  0  0  0999 V2000
   30.4066   70.8091   -1.6423 P   0  0  2  0  0  0  0  0  0  0  0  0
   30.2342   71.9582   -2.7687 O   0  0  0  0  0  0  0  0  0  0  0  0
   31.7431   70.7860   -0.9603 O   0  0  0  0  0  0  0  0  0  0  0  0
   29.9851   69.4477   -2.4084 O   0  0  0  0  0  0  0  0  0  0  0  0
   30.9046   68.8710   -3.3175 C   0  0  0  0  0  0  0  0  0  0  0  0
   28.8077   67.7729   -3.7358 O   0  0  0  0  0  0  0  0  0  0  0  0
   30.0954   66.6599   -6.2045 O   0  0  0  0  0  0  0  0  0  0  0  0
   28.5952   68.7132   -7.1890 O   0  0  0  0  0  0  0  0  0  0  0  0
   30.2631   67.9411   -5.5970 C   0  0  1  0  0  0  0  0  0  0  0  0
   29.0475   68.8062   -5.8543 C   0  0  2  0  0  0  0  0  0  0  0  0
   30.2083   67.7557   -4.0868 C   0  0  1  0  0  0  0  0  0  0  0  0
   28.0463   68.2479   -4.8574 C   0  0  2  0  0  0  0  0  0  0  0  0
   30.1268   66.7528   -7.1699 H   0  0  0  0  0  0  0  0  0  0  0  0
   29.2672   69.0817   -7.7845 H   0  0  0  0  0  0  0  0  0  0  0  0
   25.7361   67.6864   -3.3330 O   0  0  0  0  0  0  0  0  0  0  0  0
   24.5421   72.1351   -3.1670 O   0  0  0  0  0  0  0  0  0  0  0  0
   27.1144   69.2405   -4.4024 N   0  0  0  0  0  0  0  0  0  0  0  0
   25.1431   69.9025   -3.2526 N   0  0  0  0  0  0  0  0  0  0  0  0
   25.9853   68.8530   -3.6427 C   0  0  0  0  0  0  0  0  0  0  0  0
   27.3237   70.5799   -4.7073 C   0  0  0  0  0  0  0  0  0  0  0  0
   26.5121   71.5691   -4.3283 C   0  0  0  0  0  0  0  0  0  0  0  0
   25.3091   71.2493   -3.5322 C   0  0  0  0  0  0  0  0  0  0  0  0
   24.3492   69.6571   -2.7245 H   0  0  0  0  0  0  0  0  0  0  0  0
   29.1527   71.0751   -0.6576 O   0  0  0  0  0  0  0  0  0  0  0  0
   28.5456   72.4489   -0.0594 P   0  0  2  0  0  0  0  0  0  0  0  0
   27.4615   72.8918   -1.1770 O   0  0  0  0  0  0  0  0  0  0  0  0
   29.5773   73.4948    0.2499 O   0  0  0  0  0  0  0  0  0  0  0  0
   27.6594   71.9875    1.2071 O   0  0  0  0  0  0  0  0  0  0  0  0
   25.5211   72.6196    2.0054 O   0  0  0  0  0  0  0  0  0  0  0  0
   27.6113   72.0903    5.5294 O   0  0  0  0  0  0  0  0  0  0  0  0
   28.8578   73.4369    3.2563 O   0  0  0  0  0  0  0  0  0  0  0  0
   25.6949   70.0870    4.6546 O   0  0  0  0  0  0  0  0  0  0  0  0
   27.2725   71.8411    4.1652 C   0  0  2  0  0  0  0  0  0  0  0  0
   27.4744   73.1164    3.3466 C   0  0  2  0  0  0  0  0  0  0  0  0
   25.8073   71.4023    4.1144 C   0  0  1  0  0  0  0  0  0  0  0  0
   26.9072   72.9563    1.9354 C   0  0  1  0  0  0  0  0  0  0  0  0
   25.2793   71.3884    2.6827 C   0  0  1  0  0  0  0  0  0  0  0  0
   28.5384   72.3707    5.5865 H   0  0  0  0  0  0  0  0  0  0  0  0
   29.2243   73.5397    4.1482 H   0  0  0  0  0  0  0  0  0  0  0  0
   26.0279   70.0821    5.5657 H   0  0  0  0  0  0  0  0  0  0  0  0
   23.2424   72.3341    2.0061 O   0  0  0  0  0  0  0  0  0  0  0  0
   23.1438   70.3803    3.1774 O   0  0  0  0  0  0  0  0  0  0  0  0
   23.7890   71.2844    2.6680 C   0  0  0  0  0  0  0  0  0  0  0  0
  1  4  1  0
  1 24  1  0
  1  2  1  6
  1  3  2  0
 25 28  1  0
 25 24  1  0
 25 26  1  6
 25 27  2  0
  6 11  1  0
  6 12  1  0
 29 36  1  0
 29 37  1  0
  9  7  1  6
  7 13  1  0
 10  8  1  6
  8 14  1  0
  4  5  1  0
 36 28  1  1
 33 30  1  1
 30 38  1  0
 34 31  1  6
 31 39  1  0
 35 32  1  6
 32 40  1  0
 41 43  1  0
 15 19  2  0
 42 43  2  0
 16 22  2  0
 12 17  1  1
 17 19  1  0
 17 20  1  0
 18 19  1  0
 18 22  1  0
 18 23  1  0
  9 10  1  0
  9 11  1  0
 10 12  1  0
 11  5  1  1
 33 34  1  0
 33 35  1  0
 34 36  1  0
 35 37  1  0
 37 43  1  1
 20 21  2  0
 21 22  1  0
M  CHG  3   2  -1  26  -1  41  -1
M  END
>  <COMPND>  (80) 
    udp_gluA.pdb 

>  <AUTHOR>  (80) 
    GENERATED BY OPEN BABEL 3.1.1

>  <MASTER>  (80) 
        0    0    0    0    0    0    0    0   56    0   56    0

>  <minimizedAffinity>  (80) 
-7.13945

>  <CNNscore>  (80) 
0.2931575477

>  <CNNaffinity>  (80) 
3.7431132793

>  <CNN_VS>  (80) 
1.0973218679

>  <CNNaffinity_variance>  (80) 
0.5833870173

$$$$
81
     RDKit          3D

 43 45  0  0  0  0  0  0  0  0999 V2000
   26.5521   72.3291   -4.1291 P   0  0  2  0  0  0  0  0  0  0  0  0
   26.1104   72.5851   -5.6648 O   0  0  0  0  0  0  0  0  0  0  0  0
   26.8947   73.5672   -3.3536 O   0  0  0  0  0  0  0  0  0  0  0  0
   27.7277   71.2231   -4.2422 O   0  0  0  0  0  0  0  0  0  0  0  0
   29.0073   71.5413   -3.7264 C   0  0  0  0  0  0  0  0  0  0  0  0
   28.5967   69.2990   -2.9642 O   0  0  0  0  0  0  0  0  0  0  0  0
   31.3176   69.4256   -1.7104 O   0  0  0  0  0  0  0  0  0  0  0  0
   31.7748   67.9887   -3.9825 O   0  0  0  0  0  0  0  0  0  0  0  0
   30.8629   69.9879   -2.9415 C   0  0  1  0  0  0  0  0  0  0  0  0
   30.6981   68.9026   -3.9842 C   0  0  2  0  0  0  0  0  0  0  0  0
   29.4286   70.4582   -2.7417 C   0  0  1  0  0  0  0  0  0  0  0  0
   29.3858   68.2611   -3.5670 C   0  0  2  0  0  0  0  0  0  0  0  0
   32.2322   69.1180   -1.8134 H   0  0  0  0  0  0  0  0  0  0  0  0
   32.5868   68.4451   -4.2551 H   0  0  0  0  0  0  0  0  0  0  0  0
   26.6872   67.4336   -3.4690 O   0  0  0  0  0  0  0  0  0  0  0  0
   26.7214   66.1761   -7.9031 O   0  0  0  0  0  0  0  0  0  0  0  0
   28.6647   67.7138   -4.6812 N   0  0  0  0  0  0  0  0  0  0  0  0
   26.7071   66.8072   -5.6773 N   0  0  0  0  0  0  0  0  0  0  0  0
   27.3119   67.3291   -4.5262 C   0  0  0  0  0  0  0  0  0  0  0  0
   29.2961   67.5645   -5.9101 C   0  0  0  0  0  0  0  0  0  0  0  0
   28.7064   67.0655   -6.9982 C   0  0  0  0  0  0  0  0  0  0  0  0
   27.2939   66.6387   -6.9210 C   0  0  0  0  0  0  0  0  0  0  0  0
   25.7660   66.5304   -5.5934 H   0  0  0  0  0  0  0  0  0  0  0  0
   25.3122   71.4816   -3.5314 O   0  0  0  0  0  0  0  0  0  0  0  0
   24.2464   71.8365   -2.3687 P   0  0  2  0  0  0  0  0  0  0  0  0
   23.2886   70.5320   -2.3343 O   0  0  0  0  0  0  0  0  0  0  0  0
   23.5183   73.1330   -2.5757 O   0  0  0  0  0  0  0  0  0  0  0  0
   25.0937   71.7558   -0.9983 O   0  0  0  0  0  0  0  0  0  0  0  0
   24.1268   72.6929    0.9501 O   0  0  0  0  0  0  0  0  0  0  0  0
   28.0602   72.2042    2.1152 O   0  0  0  0  0  0  0  0  0  0  0  0
   27.4199   73.2134   -0.5504 O   0  0  0  0  0  0  0  0  0  0  0  0
   26.0157   70.3742    3.0757 O   0  0  0  0  0  0  0  0  0  0  0  0
   26.8628   71.8891    1.4046 C   0  0  2  0  0  0  0  0  0  0  0  0
   26.4775   73.0638    0.5051 C   0  0  2  0  0  0  0  0  0  0  0  0
   25.7602   71.6208    2.4313 C   0  0  1  0  0  0  0  0  0  0  0  0
   25.0857   72.8598   -0.0950 C   0  0  1  0  0  0  0  0  0  0  0  0
   24.3868   71.5554    1.7696 C   0  0  1  0  0  0  0  0  0  0  0  0
   28.7752   72.3786    1.4831 H   0  0  0  0  0  0  0  0  0  0  0  0
   28.3053   73.3430   -0.1768 H   0  0  0  0  0  0  0  0  0  0  0  0
   26.8871   70.4026    3.5008 H   0  0  0  0  0  0  0  0  0  0  0  0
   23.0712   70.4006    3.3308 O   0  0  0  0  0  0  0  0  0  0  0  0
   22.6992   72.6394    3.1106 O   0  0  0  0  0  0  0  0  0  0  0  0
   23.3008   71.6243    2.7934 C   0  0  0  0  0  0  0  0  0  0  0  0
  1  4  1  0
  1 24  1  0
  1  2  1  6
  1  3  2  0
 25 28  1  0
 25 24  1  0
 25 26  1  1
 25 27  2  0
  6 11  1  0
  6 12  1  0
 29 36  1  0
 29 37  1  0
  9  7  1  1
  7 13  1  0
 10  8  1  1
  8 14  1  0
  4  5  1  0
 36 28  1  6
 33 30  1  1
 30 38  1  0
 34 31  1  6
 31 39  1  0
 35 32  1  6
 32 40  1  0
 41 43  1  0
 15 19  2  0
 42 43  2  0
 16 22  2  0
 12 17  1  6
 17 19  1  0
 17 20  1  0
 18 19  1  0
 18 22  1  0
 18 23  1  0
  9 10  1  0
  9 11  1  0
 10 12  1  0
 11  5  1  6
 33 34  1  0
 33 35  1  0
 34 36  1  0
 35 37  1  0
 37 43  1  1
 20 21  2  0
 21 22  1  0
M  CHG  3   2  -1  26  -1  41  -1
M  END
>  <COMPND>  (81) 
    udp_gluA.pdb 

>  <AUTHOR>  (81) 
    GENERATED BY OPEN BABEL 3.1.1

>  <MASTER>  (81) 
        0    0    0    0    0    0    0    0   56    0   56    0

>  <minimizedAffinity>  (81) 
-7.85133

>  <CNNscore>  (81) 
0.6618140340

>  <CNNaffinity>  (81) 
4.6522417068

>  <CNN_VS>  (81) 
3.0789189339

>  <CNNaffinity_variance>  (81) 
0.1108611673

$$$$
82
     RDKit          3D

 43 45  0  0  0  0  0  0  0  0999 V2000
   25.3815   73.0578   -4.6186 P   0  0  2  0  0  0  0  0  0  0  0  0
   26.3893   73.8601   -3.6391 O   0  0  0  0  0  0  0  0  0  0  0  0
   25.0354   73.7705   -5.8930 O   0  0  0  0  0  0  0  0  0  0  0  0
   24.1315   72.6787   -3.6638 O   0  0  0  0  0  0  0  0  0  0  0  0
   24.2353   72.9437   -2.2769 C   0  0  0  0  0  0  0  0  0  0  0  0
   23.2407   71.4913   -0.6401 O   0  0  0  0  0  0  0  0  0  0  0  0
   20.9012   73.3668   -0.6697 O   0  0  0  0  0  0  0  0  0  0  0  0
   22.2310   74.1087    1.5924 O   0  0  0  0  0  0  0  0  0  0  0  0
   22.2935   73.6568   -0.7959 C   0  0  1  0  0  0  0  0  0  0  0  0
   22.9801   73.5251    0.5470 C   0  0  2  0  0  0  0  0  0  0  0  0
   22.9373   72.5317   -1.5945 C   0  0  1  0  0  0  0  0  0  0  0  0
   23.1076   72.0180    0.6896 C   0  0  2  0  0  0  0  0  0  0  0  0
   20.4684   74.0721   -0.1629 H   0  0  0  0  0  0  0  0  0  0  0  0
   22.1790   75.0682    1.4563 H   0  0  0  0  0  0  0  0  0  0  0  0
   23.0009   70.4810    3.0566 O   0  0  0  0  0  0  0  0  0  0  0  0
   27.5801   70.6111    3.5646 O   0  0  0  0  0  0  0  0  0  0  0  0
   24.2568   71.6358    1.4605 N   0  0  0  0  0  0  0  0  0  0  0  0
   25.2816   70.5481    3.3079 N   0  0  0  0  0  0  0  0  0  0  0  0
   24.0940   70.8628    2.6344 C   0  0  0  0  0  0  0  0  0  0  0  0
   25.5267   72.0242    1.0515 C   0  0  0  0  0  0  0  0  0  0  0  0
   26.6494   71.7165    1.7039 C   0  0  0  0  0  0  0  0  0  0  0  0
   26.5670   70.9121    2.9406 C   0  0  0  0  0  0  0  0  0  0  0  0
   25.1934   70.0124    4.1292 H   0  0  0  0  0  0  0  0  0  0  0  0
   26.1269   71.6380   -4.8222 O   0  0  0  0  0  0  0  0  0  0  0  0
   26.4935   70.4705   -3.7656 P   0  0  2  0  0  0  0  0  0  0  0  0
   25.0695   69.7456   -3.5067 O   0  0  0  0  0  0  0  0  0  0  0  0
   27.1743   70.9589   -2.5199 O   0  0  0  0  0  0  0  0  0  0  0  0
   27.3465   69.3996   -4.6187 O   0  0  0  0  0  0  0  0  0  0  0  0
   26.9321   67.1208   -5.1133 O   0  0  0  0  0  0  0  0  0  0  0  0
   31.0522   67.1805   -4.8150 O   0  0  0  0  0  0  0  0  0  0  0  0
   29.4077   68.6575   -2.9050 O   0  0  0  0  0  0  0  0  0  0  0  0
   29.7801   67.0422   -7.4253 O   0  0  0  0  0  0  0  0  0  0  0  0
   29.7592   67.7088   -5.1101 C   0  0  2  0  0  0  0  0  0  0  0  0
   28.9058   67.7112   -3.8416 C   0  0  2  0  0  0  0  0  0  0  0  0
   29.1191   66.8222   -6.1806 C   0  0  1  0  0  0  0  0  0  0  0  0
   27.4498   68.0520   -4.1624 C   0  0  1  0  0  0  0  0  0  0  0  0
   27.6364   67.1391   -6.3530 C   0  0  1  0  0  0  0  0  0  0  0  0
   31.4783   67.7279   -4.1368 H   0  0  0  0  0  0  0  0  0  0  0  0
   30.3312   68.4473   -2.6971 H   0  0  0  0  0  0  0  0  0  0  0  0
   30.7247   66.8442   -7.3292 H   0  0  0  0  0  0  0  0  0  0  0  0
   27.3226   66.1285   -8.4462 O   0  0  0  0  0  0  0  0  0  0  0  0
   26.1716   65.2508   -6.6844 O   0  0  0  0  0  0  0  0  0  0  0  0
   26.9537   66.0701   -7.1425 C   0  0  0  0  0  0  0  0  0  0  0  0
  1  4  1  0
  1 24  1  0
  1  2  1  1
  1  3  2  0
 25 28  1  0
 25 24  1  0
 25 26  1  1
 25 27  2  0
  6 11  1  0
  6 12  1  0
 29 36  1  0
 29 37  1  0
  9  7  1  1
  7 13  1  0
 10  8  1  1
  8 14  1  0
  4  5  1  0
 36 28  1  6
 33 30  1  1
 30 38  1  0
 34 31  1  1
 31 39  1  0
 35 32  1  6
 32 40  1  0
 41 43  1  0
 15 19  2  0
 42 43  2  0
 16 22  2  0
 12 17  1  1
 17 19  1  0
 17 20  1  0
 18 19  1  0
 18 22  1  0
 18 23  1  0
  9 10  1  0
  9 11  1  0
 10 12  1  0
 11  5  1  1
 33 34  1  0
 33 35  1  0
 34 36  1  0
 35 37  1  0
 37 43  1  6
 20 21  2  0
 21 22  1  0
M  CHG  3   2  -1  26  -1  41  -1
M  END
>  <COMPND>  (82) 
    udp_gluA.pdb 

>  <AUTHOR>  (82) 
    GENERATED BY OPEN BABEL 3.1.1

>  <MASTER>  (82) 
        0    0    0    0    0    0    0    0   56    0   56    0

>  <minimizedAffinity>  (82) 
-8.24216

>  <CNNscore>  (82) 
0.6076023579

>  <CNNaffinity>  (82) 
4.3359055519

>  <CNN_VS>  (82) 
2.6345064640

>  <CNNaffinity_variance>  (82) 
0.0616444536

$$$$
83
     RDKit          3D

 43 45  0  0  0  0  0  0  0  0999 V2000
   25.5362   74.0541   -4.7306 P   0  0  2  0  0  0  0  0  0  0  0  0
   24.9442   74.4996   -6.1693 O   0  0  0  0  0  0  0  0  0  0  0  0
   26.8691   74.6490   -4.3822 O   0  0  0  0  0  0  0  0  0  0  0  0
   25.4768   72.4377   -4.7697 O   0  0  0  0  0  0  0  0  0  0  0  0
   26.6940   71.7179   -4.8398 C   0  0  0  0  0  0  0  0  0  0  0  0
   27.1897   69.7188   -3.6007 O   0  0  0  0  0  0  0  0  0  0  0  0
   28.2475   71.5314   -1.4590 O   0  0  0  0  0  0  0  0  0  0  0  0
   30.5235   70.6780   -2.6951 O   0  0  0  0  0  0  0  0  0  0  0  0
   28.3132   71.6748   -2.8781 C   0  0  1  0  0  0  0  0  0  0  0  0
   29.3336   70.7166   -3.4550 C   0  0  2  0  0  0  0  0  0  0  0  0
   27.0117   71.1453   -3.4645 C   0  0  1  0  0  0  0  0  0  0  0  0
   28.5792   69.3983   -3.4275 C   0  0  2  0  0  0  0  0  0  0  0  0
   29.0684   71.8632   -1.0618 H   0  0  0  0  0  0  0  0  0  0  0  0
   30.9668   71.5399   -2.7446 H   0  0  0  0  0  0  0  0  0  0  0  0
   30.8721   67.7526   -3.3238 O   0  0  0  0  0  0  0  0  0  0  0  0
   30.0516   66.0329   -7.5206 O   0  0  0  0  0  0  0  0  0  0  0  0
   28.9882   68.5108   -4.4791 N   0  0  0  0  0  0  0  0  0  0  0  0
   30.4618   66.8985   -5.4146 N   0  0  0  0  0  0  0  0  0  0  0  0
   30.1567   67.7275   -4.3271 C   0  0  0  0  0  0  0  0  0  0  0  0
   28.2351   68.4214   -5.6435 C   0  0  0  0  0  0  0  0  0  0  0  0
   28.5385   67.6265   -6.6715 C   0  0  0  0  0  0  0  0  0  0  0  0
   29.7441   66.7758   -6.5933 C   0  0  0  0  0  0  0  0  0  0  0  0
   31.2720   66.3450   -5.3328 H   0  0  0  0  0  0  0  0  0  0  0  0
   24.3409   74.4371   -3.7120 O   0  0  0  0  0  0  0  0  0  0  0  0
   23.7555   73.6585   -2.4218 P   0  0  2  0  0  0  0  0  0  0  0  0
   22.5323   74.6043   -1.9427 O   0  0  0  0  0  0  0  0  0  0  0  0
   24.7753   73.3792   -1.3560 O   0  0  0  0  0  0  0  0  0  0  0  0
   23.0414   72.3442   -3.0261 O   0  0  0  0  0  0  0  0  0  0  0  0
   21.5808   71.3882   -1.4256 O   0  0  0  0  0  0  0  0  0  0  0  0
   21.3286   68.6679   -4.5247 O   0  0  0  0  0  0  0  0  0  0  0  0
   23.9082   69.8049   -3.7586 O   0  0  0  0  0  0  0  0  0  0  0  0
   19.1596   70.5444   -4.0501 O   0  0  0  0  0  0  0  0  0  0  0  0
   21.4930   69.9559   -3.9314 C   0  0  2  0  0  0  0  0  0  0  0  0
   22.7090   69.9411   -3.0049 C   0  0  2  0  0  0  0  0  0  0  0  0
   20.2239   70.2770   -3.1389 C   0  0  1  0  0  0  0  0  0  0  0  0
   22.7832   71.2261   -2.1789 C   0  0  1  0  0  0  0  0  0  0  0  0
   20.4193   71.4984   -2.2452 C   0  0  1  0  0  0  0  0  0  0  0  0
   22.1231   68.4423   -5.0336 H   0  0  0  0  0  0  0  0  0  0  0  0
   23.8680   68.9917   -4.2853 H   0  0  0  0  0  0  0  0  0  0  0  0
   19.0251   69.7748   -4.6250 H   0  0  0  0  0  0  0  0  0  0  0  0
   19.6794   71.0533   -0.0644 O   0  0  0  0  0  0  0  0  0  0  0  0
   18.2266   72.1250   -1.4572 O   0  0  0  0  0  0  0  0  0  0  0  0
   19.3132   71.6074   -1.2467 C   0  0  0  0  0  0  0  0  0  0  0  0
  1  4  1  0
  1 24  1  0
  1  2  1  6
  1  3  2  0
 25 28  1  0
 25 24  1  0
 25 26  1  1
 25 27  2  0
  6 11  1  0
  6 12  1  0
 29 36  1  0
 29 37  1  0
  9  7  1  1
  7 13  1  0
 10  8  1  1
  8 14  1  0
  4  5  1  0
 36 28  1  6
 33 30  1  1
 30 38  1  0
 34 31  1  6
 31 39  1  0
 35 32  1  6
 32 40  1  0
 41 43  1  0
 15 19  2  0
 42 43  2  0
 16 22  2  0
 12 17  1  6
 17 19  1  0
 17 20  1  0
 18 19  1  0
 18 22  1  0
 18 23  1  0
  9 10  1  0
  9 11  1  0
 10 12  1  0
 11  5  1  6
 33 34  1  0
 33 35  1  0
 34 36  1  0
 35 37  1  0
 37 43  1  1
 20 21  2  0
 21 22  1  0
M  CHG  3   2  -1  26  -1  41  -1
M  END
>  <COMPND>  (83) 
    udp_gluA.pdb 

>  <AUTHOR>  (83) 
    GENERATED BY OPEN BABEL 3.1.1

>  <MASTER>  (83) 
        0    0    0    0    0    0    0    0   56    0   56    0

>  <minimizedAffinity>  (83) 
-7.05730

>  <CNNscore>  (83) 
0.5644863844

>  <CNNaffinity>  (83) 
4.4169793129

>  <CNN_VS>  (83) 
2.4933247566

>  <CNNaffinity_variance>  (83) 
0.0812036917

$$$$
84
     RDKit          3D

 43 45  0  0  0  0  0  0  0  0999 V2000
   26.8908   72.0359    1.9028 P   0  0  2  0  0  0  0  0  0  0  0  0
   27.0288   73.2395    2.9758 O   0  0  0  0  0  0  0  0  0  0  0  0
   25.6694   71.1795    2.0651 O   0  0  0  0  0  0  0  0  0  0  0  0
   28.3089   71.2632    2.0013 O   0  0  0  0  0  0  0  0  0  0  0  0
   28.9231   71.1363    3.2706 C   0  0  0  0  0  0  0  0  0  0  0  0
   30.4477   72.7456    4.1998 O   0  0  0  0  0  0  0  0  0  0  0  0
   32.6325   71.1340    2.9266 O   0  0  0  0  0  0  0  0  0  0  0  0
   32.7431   70.3347    5.5314 O   0  0  0  0  0  0  0  0  0  0  0  0
   31.4148   70.6909    3.5261 C   0  0  1  0  0  0  0  0  0  0  0  0
   31.5044   70.7959    5.0338 C   0  0  2  0  0  0  0  0  0  0  0  0
   30.3322   71.7105    3.1995 C   0  0  1  0  0  0  0  0  0  0  0  0
   31.3015   72.2845    5.2590 C   0  0  2  0  0  0  0  0  0  0  0  0
   33.3393   70.4984    3.1216 H   0  0  0  0  0  0  0  0  0  0  0  0
   32.8242   69.3821    5.3641 H   0  0  0  0  0  0  0  0  0  0  0  0
   32.7006   72.6760    7.6809 O   0  0  0  0  0  0  0  0  0  0  0  0
   28.7986   73.3657   10.0354 O   0  0  0  0  0  0  0  0  0  0  0  0
   30.6761   72.5678    6.5197 N   0  0  0  0  0  0  0  0  0  0  0  0
   30.7558   73.0181    8.8515 N   0  0  0  0  0  0  0  0  0  0  0  0
   31.4702   72.7474    7.6770 C   0  0  0  0  0  0  0  0  0  0  0  0
   29.2924   72.6669    6.6008 C   0  0  0  0  0  0  0  0  0  0  0  0
   28.6257   72.9257    7.7274 C   0  0  0  0  0  0  0  0  0  0  0  0
   29.3806   73.1256    8.9819 C   0  0  0  0  0  0  0  0  0  0  0  0
   31.2869   73.1449    9.6707 H   0  0  0  0  0  0  0  0  0  0  0  0
   26.9922   72.8021    0.4831 O   0  0  0  0  0  0  0  0  0  0  0  0
   26.4965   72.3702   -0.9938 P   0  0  2  0  0  0  0  0  0  0  0  0
   26.6251   73.7423   -1.8431 O   0  0  0  0  0  0  0  0  0  0  0  0
   25.1307   71.7478   -1.0275 O   0  0  0  0  0  0  0  0  0  0  0  0
   27.6760   71.4276   -1.5621 O   0  0  0  0  0  0  0  0  0  0  0  0
   29.9817   71.8975   -1.2935 O   0  0  0  0  0  0  0  0  0  0  0  0
   30.0077   69.4241   -4.6025 O   0  0  0  0  0  0  0  0  0  0  0  0
   27.9773   71.5063   -4.3260 O   0  0  0  0  0  0  0  0  0  0  0  0
   30.8392   68.4029   -2.0108 O   0  0  0  0  0  0  0  0  0  0  0  0
   29.5341   69.9214   -3.3509 C   0  0  2  0  0  0  0  0  0  0  0  0
   29.1317   71.3886   -3.5025 C   0  0  2  0  0  0  0  0  0  0  0  0
   30.6643   69.7824   -2.3286 C   0  0  1  0  0  0  0  0  0  0  0  0
   28.8382   72.0189   -2.1403 C   0  0  1  0  0  0  0  0  0  0  0  0
   30.3498   70.5429   -1.0436 C   0  0  1  0  0  0  0  0  0  0  0  0
   29.3062   69.5024   -5.2681 H   0  0  0  0  0  0  0  0  0  0  0  0
   28.1564   71.1081   -5.1918 H   0  0  0  0  0  0  0  0  0  0  0  0
   31.0398   67.9075   -2.8203 H   0  0  0  0  0  0  0  0  0  0  0  0
   31.8972   71.9845   -0.0292 O   0  0  0  0  0  0  0  0  0  0  0  0
   32.1967   69.7466    0.2894 O   0  0  0  0  0  0  0  0  0  0  0  0
   31.5719   70.6785   -0.1948 C   0  0  0  0  0  0  0  0  0  0  0  0
  1  4  1  0
  1 24  1  0
  1  2  1  1
  1  3  2  0
 25 28  1  0
 25 24  1  0
 25 26  1  6
 25 27  2  0
  6 11  1  0
  6 12  1  0
 29 36  1  0
 29 37  1  0
  9  7  1  6
  7 13  1  0
 10  8  1  6
  8 14  1  0
  4  5  1  0
 36 28  1  1
 33 30  1  6
 30 38  1  0
 34 31  1  6
 31 39  1  0
 35 32  1  1
 32 40  1  0
 41 43  1  0
 15 19  2  0
 42 43  2  0
 16 22  2  0
 12 17  1  1
 17 19  1  0
 17 20  1  0
 18 19  1  0
 18 22  1  0
 18 23  1  0
  9 10  1  0
  9 11  1  0
 10 12  1  0
 11  5  1  1
 33 34  1  0
 33 35  1  0
 34 36  1  0
 35 37  1  0
 37 43  1  1
 20 21  2  0
 21 22  1  0
M  CHG  3   2  -1  26  -1  41  -1
M  END
>  <COMPND>  (84) 
    udp_gluA.pdb 

>  <AUTHOR>  (84) 
    GENERATED BY OPEN BABEL 3.1.1

>  <MASTER>  (84) 
        0    0    0    0    0    0    0    0   56    0   56    0

>  <minimizedAffinity>  (84) 
-6.28530

>  <CNNscore>  (84) 
0.5174359083

>  <CNNaffinity>  (84) 
3.9843590260

>  <CNN_VS>  (84) 
2.0616505146

>  <CNNaffinity_variance>  (84) 
0.3412922919

$$$$
85
     RDKit          3D

 43 45  0  0  0  0  0  0  0  0999 V2000
   29.6714   71.6549    1.5821 P   0  0  2  0  0  0  0  0  0  0  0  0
   28.8038   72.8350    0.8940 O   0  0  0  0  0  0  0  0  0  0  0  0
   29.0796   70.2812    1.4624 O   0  0  0  0  0  0  0  0  0  0  0  0
   29.9192   72.1842    3.0909 O   0  0  0  0  0  0  0  0  0  0  0  0
   30.7314   71.4098    3.9542 C   0  0  0  0  0  0  0  0  0  0  0  0
   31.4315   73.2529    5.3291 O   0  0  0  0  0  0  0  0  0  0  0  0
   34.2076   72.1492    5.0708 O   0  0  0  0  0  0  0  0  0  0  0  0
   33.4545   71.2940    7.5482 O   0  0  0  0  0  0  0  0  0  0  0  0
   32.9646   71.4541    5.1720 C   0  0  1  0  0  0  0  0  0  0  0  0
   32.4410   71.5203    6.5910 C   0  0  2  0  0  0  0  0  0  0  0  0
   31.9167   72.2520    4.4081 C   0  0  1  0  0  0  0  0  0  0  0  0
   31.8807   72.9309    6.6549 C   0  0  2  0  0  0  0  0  0  0  0  0
   34.8930   71.6583    5.5514 H   0  0  0  0  0  0  0  0  0  0  0  0
   33.7782   70.3827    7.4671 H   0  0  0  0  0  0  0  0  0  0  0  0
   32.1263   73.5152    9.4072 O   0  0  0  0  0  0  0  0  0  0  0  0
   27.5649   73.3257   10.0410 O   0  0  0  0  0  0  0  0  0  0  0  0
   30.7737   73.0402    7.5624 N   0  0  0  0  0  0  0  0  0  0  0  0
   29.8543   73.4193    9.7204 N   0  0  0  0  0  0  0  0  0  0  0  0
   31.0056   73.3373    8.9262 C   0  0  0  0  0  0  0  0  0  0  0  0
   29.4765   72.8557    7.0994 C   0  0  0  0  0  0  0  0  0  0  0  0
   28.3891   72.9371    7.8685 C   0  0  0  0  0  0  0  0  0  0  0  0
   28.5441   73.2431    9.3058 C   0  0  0  0  0  0  0  0  0  0  0  0
   29.9907   73.6230   10.6740 H   0  0  0  0  0  0  0  0  0  0  0  0
   31.1244   71.8245    0.8943 O   0  0  0  0  0  0  0  0  0  0  0  0
   32.0882   70.7472    0.1702 P   0  0  2  0  0  0  0  0  0  0  0  0
   32.2653   69.5955    1.2938 O   0  0  0  0  0  0  0  0  0  0  0  0
   33.3798   71.3199   -0.3374 O   0  0  0  0  0  0  0  0  0  0  0  0
   31.1641   70.0696   -0.9653 O   0  0  0  0  0  0  0  0  0  0  0  0
   31.6678   69.3267   -3.1570 O   0  0  0  0  0  0  0  0  0  0  0  0
   27.8037   70.7169   -3.6079 O   0  0  0  0  0  0  0  0  0  0  0  0
   29.7403   72.2159   -2.0152 O   0  0  0  0  0  0  0  0  0  0  0  0
   28.3220   67.8588   -3.4933 O   0  0  0  0  0  0  0  0  0  0  0  0
   28.9031   70.1247   -2.9163 C   0  0  2  0  0  0  0  0  0  0  0  0
   30.0652   71.1165   -2.8580 C   0  0  2  0  0  0  0  0  0  0  0  0
   29.3172   68.8637   -3.6782 C   0  0  1  0  0  0  0  0  0  0  0  0
   31.3334   70.4430   -2.3316 C   0  0  1  0  0  0  0  0  0  0  0  0
   30.6540   68.3243   -3.1777 C   0  0  1  0  0  0  0  0  0  0  0  0
   27.5232   71.5203   -3.1419 H   0  0  0  0  0  0  0  0  0  0  0  0
   28.9364   72.6477   -2.3432 H   0  0  0  0  0  0  0  0  0  0  0  0
   27.4661   68.1896   -3.8078 H   0  0  0  0  0  0  0  0  0  0  0  0
   30.5834   67.3908   -5.3284 O   0  0  0  0  0  0  0  0  0  0  0  0
   32.0944   66.5140   -3.8630 O   0  0  0  0  0  0  0  0  0  0  0  0
   31.2049   67.3095   -4.1259 C   0  0  0  0  0  0  0  0  0  0  0  0
  1  4  1  0
  1 24  1  0
  1  2  1  6
  1  3  2  0
 25 28  1  0
 25 24  1  0
 25 26  1  1
 25 27  2  0
  6 11  1  0
  6 12  1  0
 29 36  1  0
 29 37  1  0
  9  7  1  1
  7 13  1  0
 10  8  1  1
  8 14  1  0
  4  5  1  0
 36 28  1  1
 33 30  1  6
 30 38  1  0
 34 31  1  1
 31 39  1  0
 35 32  1  1
 32 40  1  0
 41 43  1  0
 15 19  2  0
 42 43  2  0
 16 22  2  0
 12 17  1  1
 17 19  1  0
 17 20  1  0
 18 19  1  0
 18 22  1  0
 18 23  1  0
  9 10  1  0
  9 11  1  0
 10 12  1  0
 11  5  1  1
 33 34  1  0
 33 35  1  0
 34 36  1  0
 35 37  1  0
 37 43  1  6
 20 21  2  0
 21 22  1  0
M  CHG  3   2  -1  26  -1  41  -1
M  END
>  <COMPND>  (85) 
    udp_gluA.pdb 

>  <AUTHOR>  (85) 
    GENERATED BY OPEN BABEL 3.1.1

>  <MASTER>  (85) 
        0    0    0    0    0    0    0    0   56    0   56    0

>  <minimizedAffinity>  (85) 
-6.60375

>  <CNNscore>  (85) 
0.5054830313

>  <CNNaffinity>  (85) 
3.9169433117

>  <CNN_VS>  (85) 
1.9799484015

>  <CNNaffinity_variance>  (85) 
0.1412010938

$$$$
86
     RDKit          3D

 43 45  0  0  0  0  0  0  0  0999 V2000
   27.5427   73.1522   -2.7943 P   0  0  2  0  0  0  0  0  0  0  0  0
   27.7431   74.5318   -3.6162 O   0  0  0  0  0  0  0  0  0  0  0  0
   27.9570   73.2075   -1.3531 O   0  0  0  0  0  0  0  0  0  0  0  0
   28.2994   72.0463   -3.7010 O   0  0  0  0  0  0  0  0  0  0  0  0
   29.6627   71.7719   -3.4350 C   0  0  0  0  0  0  0  0  0  0  0  0
   28.7641   69.6584   -2.7254 O   0  0  0  0  0  0  0  0  0  0  0  0
   31.2749   69.3417   -1.1171 O   0  0  0  0  0  0  0  0  0  0  0  0
   31.7655   67.7836   -3.3006 O   0  0  0  0  0  0  0  0  0  0  0  0
   31.0935   69.9401   -2.4006 C   0  0  1  0  0  0  0  0  0  0  0  0
   30.8777   68.8716   -3.4513 C   0  0  2  0  0  0  0  0  0  0  0  0
   29.7517   70.6598   -2.3979 C   0  0  1  0  0  0  0  0  0  0  0  0
   29.4291   68.4818   -3.2120 C   0  0  2  0  0  0  0  0  0  0  0  0
   32.1259   68.8758   -1.0946 H   0  0  0  0  0  0  0  0  0  0  0  0
   32.6743   68.0829   -3.4633 H   0  0  0  0  0  0  0  0  0  0  0  0
   26.8196   67.4050   -3.3011 O   0  0  0  0  0  0  0  0  0  0  0  0
   27.0232   66.8127   -7.8674 O   0  0  0  0  0  0  0  0  0  0  0  0
   28.7757   68.0382   -4.4108 N   0  0  0  0  0  0  0  0  0  0  0  0
   26.9239   67.1101   -5.5751 N   0  0  0  0  0  0  0  0  0  0  0  0
   27.4635   67.5127   -4.3464 C   0  0  0  0  0  0  0  0  0  0  0  0
   29.4323   68.1273   -5.6322 C   0  0  0  0  0  0  0  0  0  0  0  0
   28.9049   67.7396   -6.7951 C   0  0  0  0  0  0  0  0  0  0  0  0
   27.5382   67.1784   -6.8151 C   0  0  0  0  0  0  0  0  0  0  0  0
   26.0122   66.7390   -5.5553 H   0  0  0  0  0  0  0  0  0  0  0  0
   25.9808   72.8111   -3.0332 O   0  0  0  0  0  0  0  0  0  0  0  0
   25.0059   73.1221   -4.2848 P   0  0  2  0  0  0  0  0  0  0  0  0
   25.8993   72.6940   -5.5649 O   0  0  0  0  0  0  0  0  0  0  0  0
   24.4946   74.5329   -4.3314 O   0  0  0  0  0  0  0  0  0  0  0  0
   23.8547   71.9954   -4.1967 O   0  0  0  0  0  0  0  0  0  0  0  0
   22.4068   72.0490   -2.3232 O   0  0  0  0  0  0  0  0  0  0  0  0
   21.6376   68.2974   -3.8729 O   0  0  0  0  0  0  0  0  0  0  0  0
   24.3757   69.3047   -3.7226 O   0  0  0  0  0  0  0  0  0  0  0  0
   19.7331   70.4580   -4.2679 O   0  0  0  0  0  0  0  0  0  0  0  0
   21.9871   69.6807   -3.9211 C   0  0  2  0  0  0  0  0  0  0  0  0
   23.2536   69.9175   -3.0980 C   0  0  2  0  0  0  0  0  0  0  0  0
   20.8194   70.4839   -3.3439 C   0  0  1  0  0  0  0  0  0  0  0  0
   23.5291   71.4130   -2.9359 C   0  0  1  0  0  0  0  0  0  0  0  0
   21.2124   71.9370   -3.0938 C   0  0  1  0  0  0  0  0  0  0  0  0
   22.3650   67.7671   -4.2347 H   0  0  0  0  0  0  0  0  0  0  0  0
   24.2076   68.3555   -3.8290 H   0  0  0  0  0  0  0  0  0  0  0  0
   19.4733   69.5386   -4.4358 H   0  0  0  0  0  0  0  0  0  0  0  0
   19.2341   73.1939   -3.0046 O   0  0  0  0  0  0  0  0  0  0  0  0
   20.2198   72.6635   -1.0182 O   0  0  0  0  0  0  0  0  0  0  0  0
   20.1962   72.6219   -2.2391 C   0  0  0  0  0  0  0  0  0  0  0  0
  1  4  1  0
  1 24  1  0
  1  2  1  6
  1  3  2  0
 25 28  1  0
 25 24  1  0
 25 26  1  6
 25 27  2  0
  6 11  1  0
  6 12  1  0
 29 36  1  0
 29 37  1  0
  9  7  1  1
  7 13  1  0
 10  8  1  1
  8 14  1  0
  4  5  1  0
 36 28  1  6
 33 30  1  1
 30 38  1  0
 34 31  1  6
 31 39  1  0
 35 32  1  6
 32 40  1  0
 41 43  1  0
 15 19  2  0
 42 43  2  0
 16 22  2  0
 12 17  1  6
 17 19  1  0
 17 20  1  0
 18 19  1  0
 18 22  1  0
 18 23  1  0
  9 10  1  0
  9 11  1  0
 10 12  1  0
 11  5  1  6
 33 34  1  0
 33 35  1  0
 34 36  1  0
 35 37  1  0
 37 43  1  1
 20 21  2  0
 21 22  1  0
M  CHG  3   2  -1  26  -1  41  -1
M  END
>  <COMPND>  (86) 
    udp_gluA.pdb 

>  <AUTHOR>  (86) 
    GENERATED BY OPEN BABEL 3.1.1

>  <MASTER>  (86) 
        0    0    0    0    0    0    0    0   56    0   56    0

>  <minimizedAffinity>  (86) 
-7.94667

>  <CNNscore>  (86) 
0.5022422075

>  <CNNaffinity>  (86) 
4.4259371758

>  <CNN_VS>  (86) 
2.2228925228

>  <CNNaffinity_variance>  (86) 
0.5316255689

$$$$
87
     RDKit          3D

 43 45  0  0  0  0  0  0  0  0999 V2000
   25.0811   73.7567   -4.3101 P   0  0  2  0  0  0  0  0  0  0  0  0
   24.9644   73.6659   -5.9216 O   0  0  0  0  0  0  0  0  0  0  0  0
   24.7240   75.0908   -3.7231 O   0  0  0  0  0  0  0  0  0  0  0  0
   26.5791   73.2304   -3.9987 O   0  0  0  0  0  0  0  0  0  0  0  0
   26.8322   71.8385   -4.0557 C   0  0  0  0  0  0  0  0  0  0  0  0
   27.9497   70.0251   -2.9420 O   0  0  0  0  0  0  0  0  0  0  0  0
   29.3635   72.1272   -1.3377 O   0  0  0  0  0  0  0  0  0  0  0  0
   31.2397   71.4282   -3.1890 O   0  0  0  0  0  0  0  0  0  0  0  0
   28.9682   72.1510   -2.7095 C   0  0  1  0  0  0  0  0  0  0  0  0
   29.8796   71.2659   -3.5330 C   0  0  2  0  0  0  0  0  0  0  0  0
   27.6327   71.4291   -2.8261 C   0  0  1  0  0  0  0  0  0  0  0  0
   29.3546   69.8790   -3.2033 C   0  0  2  0  0  0  0  0  0  0  0  0
   30.2145   72.5827   -1.2382 H   0  0  0  0  0  0  0  0  0  0  0  0
   31.5263   72.3266   -3.4185 H   0  0  0  0  0  0  0  0  0  0  0  0
   31.1689   67.7148   -3.1665 O   0  0  0  0  0  0  0  0  0  0  0  0
   29.9604   66.3921   -7.4131 O   0  0  0  0  0  0  0  0  0  0  0  0
   29.5343   68.9534   -4.2858 N   0  0  0  0  0  0  0  0  0  0  0  0
   30.5660   67.0587   -5.2820 N   0  0  0  0  0  0  0  0  0  0  0  0
   30.4723   67.9008   -4.1661 C   0  0  0  0  0  0  0  0  0  0  0  0
   28.7858   69.0918   -5.4483 C   0  0  0  0  0  0  0  0  0  0  0  0
   28.8861   68.2812   -6.5036 C   0  0  0  0  0  0  0  0  0  0  0  0
   29.8436   67.1566   -6.4602 C   0  0  0  0  0  0  0  0  0  0  0  0
   31.2138   66.3197   -5.2229 H   0  0  0  0  0  0  0  0  0  0  0  0
   24.1539   72.5309   -3.8095 O   0  0  0  0  0  0  0  0  0  0  0  0
   23.3936   72.2798   -2.4050 P   0  0  2  0  0  0  0  0  0  0  0  0
   22.9338   70.7310   -2.5050 O   0  0  0  0  0  0  0  0  0  0  0  0
   22.2734   73.2410   -2.1307 O   0  0  0  0  0  0  0  0  0  0  0  0
   24.5669   72.2855   -1.2978 O   0  0  0  0  0  0  0  0  0  0  0  0
   23.8091   72.8834    0.8650 O   0  0  0  0  0  0  0  0  0  0  0  0
   27.9043   72.7977    1.4030 O   0  0  0  0  0  0  0  0  0  0  0  0
   26.7517   73.9818   -1.0061 O   0  0  0  0  0  0  0  0  0  0  0  0
   26.2544   70.6270    2.4114 O   0  0  0  0  0  0  0  0  0  0  0  0
   26.6563   72.4029    0.8335 C   0  0  2  0  0  0  0  0  0  0  0  0
   26.0056   73.6028    0.1447 C   0  0  2  0  0  0  0  0  0  0  0  0
   25.7621   71.8887    1.9639 C   0  0  1  0  0  0  0  0  0  0  0  0
   24.5710   73.2806   -0.2758 C   0  0  1  0  0  0  0  0  0  0  0  0
   24.3201   71.7119    1.4971 C   0  0  1  0  0  0  0  0  0  0  0  0
   28.4893   73.1282    0.7031 H   0  0  0  0  0  0  0  0  0  0  0  0
   27.6632   74.1874   -0.7467 H   0  0  0  0  0  0  0  0  0  0  0  0
   27.1716   70.7257    2.7112 H   0  0  0  0  0  0  0  0  0  0  0  0
   22.9182   72.7290    3.0788 O   0  0  0  0  0  0  0  0  0  0  0  0
   23.1218   70.4600    3.1759 O   0  0  0  0  0  0  0  0  0  0  0  0
   23.4032   71.5328    2.6631 C   0  0  0  0  0  0  0  0  0  0  0  0
  1  4  1  0
  1 24  1  0
  1  2  1  6
  1  3  2  0
 25 28  1  0
 25 24  1  0
 25 26  1  6
 25 27  2  0
  6 11  1  0
  6 12  1  0
 29 36  1  0
 29 37  1  0
  9  7  1  1
  7 13  1  0
 10  8  1  1
  8 14  1  0
  4  5  1  0
 36 28  1  6
 33 30  1  1
 30 38  1  0
 34 31  1  6
 31 39  1  0
 35 32  1  6
 32 40  1  0
 41 43  1  0
 15 19  2  0
 42 43  2  0
 16 22  2  0
 12 17  1  6
 17 19  1  0
 17 20  1  0
 18 19  1  0
 18 22  1  0
 18 23  1  0
  9 10  1  0
  9 11  1  0
 10 12  1  0
 11  5  1  6
 33 34  1  0
 33 35  1  0
 34 36  1  0
 35 37  1  0
 37 43  1  1
 20 21  2  0
 21 22  1  0
M  CHG  3   2  -1  26  -1  41  -1
M  END
>  <COMPND>  (87) 
    udp_gluA.pdb 

>  <AUTHOR>  (87) 
    GENERATED BY OPEN BABEL 3.1.1

>  <MASTER>  (87) 
        0    0    0    0    0    0    0    0   56    0   56    0

>  <minimizedAffinity>  (87) 
-6.95858

>  <CNNscore>  (87) 
0.5020306110

>  <CNNaffinity>  (87) 
4.2648711205

>  <CNN_VS>  (87) 
2.1410958767

>  <CNNaffinity_variance>  (87) 
0.0729994178

$$$$
88
     RDKit          3D

 43 45  0  0  0  0  0  0  0  0999 V2000
   29.4343   73.8279   -2.1277 P   0  0  2  0  0  0  0  0  0  0  0  0
   29.8562   75.3264   -2.5698 O   0  0  0  0  0  0  0  0  0  0  0  0
   29.5287   73.5513   -0.6558 O   0  0  0  0  0  0  0  0  0  0  0  0
   30.3298   72.8750   -3.0805 O   0  0  0  0  0  0  0  0  0  0  0  0
   29.7465   71.6911   -3.5930 C   0  0  0  0  0  0  0  0  0  0  0  0
   28.7229   69.6590   -2.8180 O   0  0  0  0  0  0  0  0  0  0  0  0
   31.1660   69.2961   -1.1177 O   0  0  0  0  0  0  0  0  0  0  0  0
   31.6428   67.6162   -3.2121 O   0  0  0  0  0  0  0  0  0  0  0  0
   31.0528   69.8423   -2.4320 C   0  0  1  0  0  0  0  0  0  0  0  0
   30.8153   68.7378   -3.4399 C   0  0  2  0  0  0  0  0  0  0  0  0
   29.7491   70.6255   -2.5045 C   0  0  1  0  0  0  0  0  0  0  0  0
   29.3425   68.4302   -3.2296 C   0  0  2  0  0  0  0  0  0  0  0  0
   31.9916   68.7911   -1.0471 H   0  0  0  0  0  0  0  0  0  0  0  0
   32.5698   67.8632   -3.3590 H   0  0  0  0  0  0  0  0  0  0  0  0
   26.7172   67.3945   -3.3373 O   0  0  0  0  0  0  0  0  0  0  0  0
   26.9940   66.6692   -7.8805 O   0  0  0  0  0  0  0  0  0  0  0  0
   28.7037   67.9635   -4.4275 N   0  0  0  0  0  0  0  0  0  0  0  0
   26.8580   67.0333   -5.5998 N   0  0  0  0  0  0  0  0  0  0  0  0
   27.3818   67.4618   -4.3730 C   0  0  0  0  0  0  0  0  0  0  0  0
   29.3840   68.0070   -5.6384 C   0  0  0  0  0  0  0  0  0  0  0  0
   28.8714   67.5951   -6.7996 C   0  0  0  0  0  0  0  0  0  0  0  0
   27.4959   67.0561   -6.8295 C   0  0  0  0  0  0  0  0  0  0  0  0
   25.9398   66.6780   -5.5866 H   0  0  0  0  0  0  0  0  0  0  0  0
   27.9501   73.6708   -2.7484 O   0  0  0  0  0  0  0  0  0  0  0  0
   26.5440   74.3443   -2.3209 P   0  0  2  0  0  0  0  0  0  0  0  0
   25.5169   73.8044   -3.4496 O   0  0  0  0  0  0  0  0  0  0  0  0
   26.5912   75.8393   -2.1922 O   0  0  0  0  0  0  0  0  0  0  0  0
   26.1120   73.5696   -0.9734 O   0  0  0  0  0  0  0  0  0  0  0  0
   26.9993   71.5750   -0.0550 O   0  0  0  0  0  0  0  0  0  0  0  0
   23.0669   71.4016    1.1996 O   0  0  0  0  0  0  0  0  0  0  0  0
   23.7185   72.2607   -1.5155 O   0  0  0  0  0  0  0  0  0  0  0  0
   25.1660   72.1290    3.0746 O   0  0  0  0  0  0  0  0  0  0  0  0
   24.2905   72.0383    0.8317 C   0  0  2  0  0  0  0  0  0  0  0  0
   24.6448   71.6721   -0.6098 C   0  0  2  0  0  0  0  0  0  0  0  0
   25.3824   71.5528    1.7879 C   0  0  1  0  0  0  0  0  0  0  0  0
   26.0557   72.1443   -0.9633 C   0  0  1  0  0  0  0  0  0  0  0  0
   26.7705   71.9568    1.2996 C   0  0  1  0  0  0  0  0  0  0  0  0
   22.3582   71.6949    0.6055 H   0  0  0  0  0  0  0  0  0  0  0  0
   22.8211   71.9656   -1.2968 H   0  0  0  0  0  0  0  0  0  0  0  0
   24.2858   71.8796    3.3967 H   0  0  0  0  0  0  0  0  0  0  0  0
   27.7691   71.4848    3.3688 O   0  0  0  0  0  0  0  0  0  0  0  0
   28.6458   70.4566    1.5321 O   0  0  0  0  0  0  0  0  0  0  0  0
   27.8316   71.2117    2.0419 C   0  0  0  0  0  0  0  0  0  0  0  0
  1  4  1  0
  1 24  1  0
  1  2  1  1
  1  3  2  0
 25 28  1  0
 25 24  1  0
 25 26  1  6
 25 27  2  0
  6 11  1  0
  6 12  1  0
 29 36  1  0
 29 37  1  0
  9  7  1  1
  7 13  1  0
 10  8  1  1
  8 14  1  0
  4  5  1  0
 36 28  1  1
 33 30  1  1
 30 38  1  0
 34 31  1  6
 31 39  1  0
 35 32  1  1
 32 40  1  0
 41 43  1  0
 15 19  2  0
 42 43  2  0
 16 22  2  0
 12 17  1  6
 17 19  1  0
 17 20  1  0
 18 19  1  0
 18 22  1  0
 18 23  1  0
  9 10  1  0
  9 11  1  0
 10 12  1  0
 11  5  1  6
 33 34  1  0
 33 35  1  0
 34 36  1  0
 35 37  1  0
 37 43  1  1
 20 21  2  0
 21 22  1  0
M  CHG  3   2  -1  26  -1  41  -1
M  END
>  <COMPND>  (88) 
    udp_gluA.pdb 

>  <AUTHOR>  (88) 
    GENERATED BY OPEN BABEL 3.1.1

>  <MASTER>  (88) 
        0    0    0    0    0    0    0    0   56    0   56    0

>  <minimizedAffinity>  (88) 
-7.17847

>  <CNNscore>  (88) 
0.5001489520

>  <CNNaffinity>  (88) 
4.3722152710

>  <CNN_VS>  (88) 
2.1867589951

>  <CNNaffinity_variance>  (88) 
0.0899743587

$$$$
89
     RDKit          3D

 43 45  0  0  0  0  0  0  0  0999 V2000
   28.3325   72.9779   -1.9663 P   0  0  2  0  0  0  0  0  0  0  0  0
   27.0955   74.0126   -2.1009 O   0  0  0  0  0  0  0  0  0  0  0  0
   29.6859   73.6181   -1.8656 O   0  0  0  0  0  0  0  0  0  0  0  0
   28.1264   71.9621   -3.2087 O   0  0  0  0  0  0  0  0  0  0  0  0
   29.2591   71.2895   -3.7272 C   0  0  0  0  0  0  0  0  0  0  0  0
   28.7581   69.0529   -3.0031 O   0  0  0  0  0  0  0  0  0  0  0  0
   31.5070   69.0239   -1.8055 O   0  0  0  0  0  0  0  0  0  0  0  0
   31.8488   67.6168   -4.1162 O   0  0  0  0  0  0  0  0  0  0  0  0
   31.0544   69.6337   -3.0147 C   0  0  1  0  0  0  0  0  0  0  0  0
   30.8170   68.5803   -4.0759 C   0  0  2  0  0  0  0  0  0  0  0  0
   29.6485   70.1665   -2.7745 C   0  0  1  0  0  0  0  0  0  0  0  0
   29.4844   67.9923   -3.6441 C   0  0  2  0  0  0  0  0  0  0  0  0
   32.4036   68.6758   -1.9344 H   0  0  0  0  0  0  0  0  0  0  0  0
   32.6759   68.0404   -4.3966 H   0  0  0  0  0  0  0  0  0  0  0  0
   26.7102   67.4704   -3.5555 O   0  0  0  0  0  0  0  0  0  0  0  0
   26.6383   66.1209   -7.9621 O   0  0  0  0  0  0  0  0  0  0  0  0
   28.7156   67.5040   -4.7538 N   0  0  0  0  0  0  0  0  0  0  0  0
   26.6772   66.7978   -5.7500 N   0  0  0  0  0  0  0  0  0  0  0  0
   27.3274   67.2746   -4.6042 C   0  0  0  0  0  0  0  0  0  0  0  0
   29.3357   67.2593   -5.9730 C   0  0  0  0  0  0  0  0  0  0  0  0
   28.7027   66.8050   -7.0564 C   0  0  0  0  0  0  0  0  0  0  0  0
   27.2511   66.5386   -6.9842 C   0  0  0  0  0  0  0  0  0  0  0  0
   25.7107   66.6286   -5.6697 H   0  0  0  0  0  0  0  0  0  0  0  0
   27.9162   72.0789   -0.6890 O   0  0  0  0  0  0  0  0  0  0  0  0
   27.7579   72.4634    0.8733 P   0  0  2  0  0  0  0  0  0  0  0  0
   26.5272   71.5316    1.3606 O   0  0  0  0  0  0  0  0  0  0  0  0
   27.5627   73.9297    1.1299 O   0  0  0  0  0  0  0  0  0  0  0  0
   29.0577   71.8264    1.5854 O   0  0  0  0  0  0  0  0  0  0  0  0
   30.5677   72.9463    3.0259 O   0  0  0  0  0  0  0  0  0  0  0  0
   32.9685   69.9890    1.4261 O   0  0  0  0  0  0  0  0  0  0  0  0
   31.0961   71.4555   -0.2703 O   0  0  0  0  0  0  0  0  0  0  0  0
   31.9686   69.7451    4.1449 O   0  0  0  0  0  0  0  0  0  0  0  0
   31.7494   70.5683    1.8912 C   0  0  2  0  0  0  0  0  0  0  0  0
   31.4276   71.8145    1.0660 C   0  0  2  0  0  0  0  0  0  0  0  0
   31.9336   70.9385    3.3646 C   0  0  1  0  0  0  0  0  0  0  0  0
   30.2595   72.5892    1.6779 C   0  0  1  0  0  0  0  0  0  0  0  0
   30.7900   71.8157    3.8658 C   0  0  1  0  0  0  0  0  0  0  0  0
   32.8752   69.7457    0.4916 H   0  0  0  0  0  0  0  0  0  0  0  0
   31.8327   70.9633   -0.6647 H   0  0  0  0  0  0  0  0  0  0  0  0
   32.6922   69.1778    3.8359 H   0  0  0  0  0  0  0  0  0  0  0  0
   30.2148   73.3722    5.5235 O   0  0  0  0  0  0  0  0  0  0  0  0
   32.1077   72.1463    5.8597 O   0  0  0  0  0  0  0  0  0  0  0  0
   31.1346   72.4368    5.1802 C   0  0  0  0  0  0  0  0  0  0  0  0
  1  4  1  0
  1 24  1  0
  1  2  1  6
  1  3  2  0
 25 28  1  0
 25 24  1  0
 25 26  1  1
 25 27  2  0
  6 11  1  0
  6 12  1  0
 29 36  1  0
 29 37  1  0
  9  7  1  1
  7 13  1  0
 10  8  1  1
  8 14  1  0
  4  5  1  0
 36 28  1  1
 33 30  1  6
 30 38  1  0
 34 31  1  6
 31 39  1  0
 35 32  1  1
 32 40  1  0
 41 43  1  0
 15 19  2  0
 42 43  2  0
 16 22  2  0
 12 17  1  6
 17 19  1  0
 17 20  1  0
 18 19  1  0
 18 22  1  0
 18 23  1  0
  9 10  1  0
  9 11  1  0
 10 12  1  0
 11  5  1  6
 33 34  1  0
 33 35  1  0
 34 36  1  0
 35 37  1  0
 37 43  1  1
 20 21  2  0
 21 22  1  0
M  CHG  3   2  -1  26  -1  41  -1
M  END
>  <COMPND>  (89) 
    udp_gluA.pdb 

>  <AUTHOR>  (89) 
    GENERATED BY OPEN BABEL 3.1.1

>  <MASTER>  (89) 
        0    0    0    0    0    0    0    0   56    0   56    0

>  <minimizedAffinity>  (89) 
-7.30421

>  <CNNscore>  (89) 
0.4932731390

>  <CNNaffinity>  (89) 
4.3860507011

>  <CNN_VS>  (89) 
2.1635210514

>  <CNNaffinity_variance>  (89) 
0.0557046048

$$$$
90
     RDKit          3D

 43 45  0  0  0  0  0  0  0  0999 V2000
   29.4339   73.8756   -2.0888 P   0  0  2  0  0  0  0  0  0  0  0  0
   30.0649   75.3429   -2.3490 O   0  0  0  0  0  0  0  0  0  0  0  0
   29.3491   73.4690   -0.6468 O   0  0  0  0  0  0  0  0  0  0  0  0
   30.3063   72.9028   -3.0430 O   0  0  0  0  0  0  0  0  0  0  0  0
   29.6960   71.7318   -3.5536 C   0  0  0  0  0  0  0  0  0  0  0  0
   28.7324   69.6604   -2.8062 O   0  0  0  0  0  0  0  0  0  0  0  0
   31.2103   69.3197   -1.1522 O   0  0  0  0  0  0  0  0  0  0  0  0
   31.6923   67.6956   -3.2889 O   0  0  0  0  0  0  0  0  0  0  0  0
   31.0633   69.8904   -2.4527 C   0  0  1  0  0  0  0  0  0  0  0  0
   30.8354   68.8018   -3.4800 C   0  0  2  0  0  0  0  0  0  0  0  0
   29.7408   70.6440   -2.4882 C   0  0  1  0  0  0  0  0  0  0  0  0
   29.3737   68.4554   -3.2534 C   0  0  2  0  0  0  0  0  0  0  0  0
   32.0484   68.8329   -1.1051 H   0  0  0  0  0  0  0  0  0  0  0  0
   32.6108   67.9674   -3.4450 H   0  0  0  0  0  0  0  0  0  0  0  0
   26.7886   67.3209   -3.3361 O   0  0  0  0  0  0  0  0  0  0  0  0
   26.9915   66.7390   -7.9038 O   0  0  0  0  0  0  0  0  0  0  0  0
   28.7267   67.9988   -4.4508 N   0  0  0  0  0  0  0  0  0  0  0  0
   26.8925   67.0312   -5.6108 N   0  0  0  0  0  0  0  0  0  0  0  0
   27.4268   67.4442   -4.3832 C   0  0  0  0  0  0  0  0  0  0  0  0
   29.3776   68.1040   -5.6740 C   0  0  0  0  0  0  0  0  0  0  0  0
   28.8554   67.7061   -6.8358 C   0  0  0  0  0  0  0  0  0  0  0  0
   27.5014   67.1147   -6.8526 C   0  0  0  0  0  0  0  0  0  0  0  0
   25.9894   66.6399   -5.5888 H   0  0  0  0  0  0  0  0  0  0  0  0
   28.0109   73.9521   -2.8516 O   0  0  0  0  0  0  0  0  0  0  0  0
   26.8232   75.0462   -2.7755 P   0  0  2  0  0  0  0  0  0  0  0  0
   27.1409   76.0245   -4.0254 O   0  0  0  0  0  0  0  0  0  0  0  0
   26.7163   75.7480   -1.4526 O   0  0  0  0  0  0  0  0  0  0  0  0
   25.4962   74.2413   -3.2155 O   0  0  0  0  0  0  0  0  0  0  0  0
   24.7843   72.1113   -2.4633 O   0  0  0  0  0  0  0  0  0  0  0  0
   23.1502   72.2534   -6.2551 O   0  0  0  0  0  0  0  0  0  0  0  0
   25.8654   73.2189   -5.7756 O   0  0  0  0  0  0  0  0  0  0  0  0
   21.4596   72.6406   -3.9221 O   0  0  0  0  0  0  0  0  0  0  0  0
   23.6040   72.7862   -5.0108 C   0  0  2  0  0  0  0  0  0  0  0  0
   25.0920   72.4816   -4.8360 C   0  0  2  0  0  0  0  0  0  0  0  0
   22.7915   72.1313   -3.8915 C   0  0  1  0  0  0  0  0  0  0  0  0
   25.5596   72.8313   -3.4225 C   0  0  1  0  0  0  0  0  0  0  0  0
   23.3944   72.4244   -2.5207 C   0  0  1  0  0  0  0  0  0  0  0  0
   23.6524   72.6551   -6.9815 H   0  0  0  0  0  0  0  0  0  0  0  0
   25.5738   73.0020   -6.6747 H   0  0  0  0  0  0  0  0  0  0  0  0
   21.0644   72.4607   -4.7895 H   0  0  0  0  0  0  0  0  0  0  0  0
   21.8557   70.7263   -2.0205 O   0  0  0  0  0  0  0  0  0  0  0  0
   23.1309   71.5138   -0.3020 O   0  0  0  0  0  0  0  0  0  0  0  0
   22.8056   71.5290   -1.4797 C   0  0  0  0  0  0  0  0  0  0  0  0
  1  4  1  0
  1 24  1  0
  1  2  1  1
  1  3  2  0
 25 28  1  0
 25 24  1  0
 25 26  1  6
 25 27  2  0
  6 11  1  0
  6 12  1  0
 29 36  1  0
 29 37  1  0
  9  7  1  1
  7 13  1  0
 10  8  1  1
  8 14  1  0
  4  5  1  0
 36 28  1  1
 33 30  1  6
 30 38  1  0
 34 31  1  6
 31 39  1  0
 35 32  1  1
 32 40  1  0
 41 43  1  0
 15 19  2  0
 42 43  2  0
 16 22  2  0
 12 17  1  6
 17 19  1  0
 17 20  1  0
 18 19  1  0
 18 22  1  0
 18 23  1  0
  9 10  1  0
  9 11  1  0
 10 12  1  0
 11  5  1  6
 33 34  1  0
 33 35  1  0
 34 36  1  0
 35 37  1  0
 37 43  1  1
 20 21  2  0
 21 22  1  0
M  CHG  3   2  -1  26  -1  41  -1
M  END
>  <COMPND>  (90) 
    udp_gluA.pdb 

>  <AUTHOR>  (90) 
    GENERATED BY OPEN BABEL 3.1.1

>  <MASTER>  (90) 
        0    0    0    0    0    0    0    0   56    0   56    0

>  <minimizedAffinity>  (90) 
-7.70717

>  <CNNscore>  (90) 
0.4887900352

>  <CNNaffinity>  (90) 
4.2906460762

>  <CNN_VS>  (90) 
2.0972249508

>  <CNNaffinity_variance>  (90) 
0.5502485633

$$$$
91
     RDKit          3D

 43 45  0  0  0  0  0  0  0  0999 V2000
   27.2570   72.4294   -0.1553 P   0  0  2  0  0  0  0  0  0  0  0  0
   28.4936   71.5494   -0.7169 O   0  0  0  0  0  0  0  0  0  0  0  0
   26.0485   71.6376    0.2501 O   0  0  0  0  0  0  0  0  0  0  0  0
   27.0155   73.5397   -1.3072 O   0  0  0  0  0  0  0  0  0  0  0  0
   25.8280   73.4702   -2.0750 C   0  0  0  0  0  0  0  0  0  0  0  0
   25.2447   71.3441   -3.0326 O   0  0  0  0  0  0  0  0  0  0  0  0
   26.3109   72.4257   -5.6181 O   0  0  0  0  0  0  0  0  0  0  0  0
   23.6147   72.6921   -5.9275 O   0  0  0  0  0  0  0  0  0  0  0  0
   25.5980   73.1009   -4.5816 C   0  0  1  0  0  0  0  0  0  0  0  0
   24.1345   72.7147   -4.6145 C   0  0  2  0  0  0  0  0  0  0  0  0
   26.0501   72.5233   -3.2474 C   0  0  1  0  0  0  0  0  0  0  0  0
   24.1569   71.3389   -3.9707 C   0  0  2  0  0  0  0  0  0  0  0  0
   26.0388   72.7778   -6.4805 H   0  0  0  0  0  0  0  0  0  0  0  0
   23.6214   73.5910   -6.2934 H   0  0  0  0  0  0  0  0  0  0  0  0
   21.9285   70.0465   -5.1285 O   0  0  0  0  0  0  0  0  0  0  0  0
   19.5367   70.2480   -1.1936 O   0  0  0  0  0  0  0  0  0  0  0  0
   22.9389   71.0412   -3.2715 N   0  0  0  0  0  0  0  0  0  0  0  0
   20.7390   70.1490   -3.1679 N   0  0  0  0  0  0  0  0  0  0  0  0
   21.8794   70.3890   -3.9456 C   0  0  0  0  0  0  0  0  0  0  0  0
   22.8033   71.3924   -1.9339 C   0  0  0  0  0  0  0  0  0  0  0  0
   21.7101   71.1570   -1.2058 C   0  0  0  0  0  0  0  0  0  0  0  0
   20.5571   70.4802   -1.8349 C   0  0  0  0  0  0  0  0  0  0  0  0
   19.9873   69.6979   -3.6160 H   0  0  0  0  0  0  0  0  0  0  0  0
   27.9329   73.2849    1.0381 O   0  0  0  0  0  0  0  0  0  0  0  0
   28.0782   72.9723    2.6176 P   0  0  2  0  0  0  0  0  0  0  0  0
   28.7904   74.3065    3.1947 O   0  0  0  0  0  0  0  0  0  0  0  0
   28.8083   71.6978    2.9284 O   0  0  0  0  0  0  0  0  0  0  0  0
   26.5706   73.0363    3.1879 O   0  0  0  0  0  0  0  0  0  0  0  0
   25.5477   73.0510    5.3240 O   0  0  0  0  0  0  0  0  0  0  0  0
   23.1026   70.4545    3.2390 O   0  0  0  0  0  0  0  0  0  0  0  0
   26.0048   70.3253    2.9307 O   0  0  0  0  0  0  0  0  0  0  0  0
   22.2149   73.1665    3.7940 O   0  0  0  0  0  0  0  0  0  0  0  0
   23.9774   71.5703    3.4058 C   0  0  2  0  0  0  0  0  0  0  0  0
   25.3309   71.0861    3.9265 C   0  0  2  0  0  0  0  0  0  0  0  0
   23.3336   72.5301    4.4088 C   0  0  1  0  0  0  0  0  0  0  0  0
   26.2141   72.2661    4.3344 C   0  0  1  0  0  0  0  0  0  0  0  0
   24.3177   73.6047    4.8620 C   0  0  1  0  0  0  0  0  0  0  0  0
   23.4911   69.8306    2.6056 H   0  0  0  0  0  0  0  0  0  0  0  0
   25.4499   69.5750    2.6670 H   0  0  0  0  0  0  0  0  0  0  0  0
   21.5809   72.4934    3.5008 H   0  0  0  0  0  0  0  0  0  0  0  0
   24.8240   74.8326    6.7953 O   0  0  0  0  0  0  0  0  0  0  0  0
   22.6203   74.4443    6.3572 O   0  0  0  0  0  0  0  0  0  0  0  0
   23.8007   74.3240    6.0652 C   0  0  0  0  0  0  0  0  0  0  0  0
  1  4  1  0
  1 24  1  0
  1  2  1  6
  1  3  2  0
 25 28  1  0
 25 24  1  0
 25 26  1  1
 25 27  2  0
  6 11  1  0
  6 12  1  0
 29 36  1  0
 29 37  1  0
  9  7  1  6
  7 13  1  0
 10  8  1  6
  8 14  1  0
  4  5  1  0
 36 28  1  6
 33 30  1  1
 30 38  1  0
 34 31  1  6
 31 39  1  0
 35 32  1  6
 32 40  1  0
 41 43  1  0
 15 19  2  0
 42 43  2  0
 16 22  2  0
 12 17  1  1
 17 19  1  0
 17 20  1  0
 18 19  1  0
 18 22  1  0
 18 23  1  0
  9 10  1  0
  9 11  1  0
 10 12  1  0
 11  5  1  1
 33 34  1  0
 33 35  1  0
 34 36  1  0
 35 37  1  0
 37 43  1  1
 20 21  2  0
 21 22  1  0
M  CHG  3   2  -1  26  -1  41  -1
M  END
>  <COMPND>  (91) 
    udp_gluA.pdb 

>  <AUTHOR>  (91) 
    GENERATED BY OPEN BABEL 3.1.1

>  <MASTER>  (91) 
        0    0    0    0    0    0    0    0   56    0   56    0

>  <minimizedAffinity>  (91) 
-6.11196

>  <CNNscore>  (91) 
0.4799857438

>  <CNNaffinity>  (91) 
3.9080932140

>  <CNN_VS>  (91) 
1.8758289814

>  <CNNaffinity_variance>  (91) 
0.3552254736

$$$$
92
     RDKit          3D

 43 45  0  0  0  0  0  0  0  0999 V2000
   24.6140   73.6121   -4.6392 P   0  0  2  0  0  0  0  0  0  0  0  0
   24.2145   72.6723   -5.8946 O   0  0  0  0  0  0  0  0  0  0  0  0
   24.3416   75.0752   -4.8311 O   0  0  0  0  0  0  0  0  0  0  0  0
   26.1532   73.2181   -4.3332 O   0  0  0  0  0  0  0  0  0  0  0  0
   26.5261   71.8535   -4.3911 C   0  0  0  0  0  0  0  0  0  0  0  0
   27.5953   70.0815   -3.1685 O   0  0  0  0  0  0  0  0  0  0  0  0
   28.8813   72.2390   -1.5305 O   0  0  0  0  0  0  0  0  0  0  0  0
   30.8766   71.5241   -3.2462 O   0  0  0  0  0  0  0  0  0  0  0  0
   28.5711   72.2260   -2.9241 C   0  0  1  0  0  0  0  0  0  0  0  0
   29.5424   71.3352   -3.6691 C   0  0  2  0  0  0  0  0  0  0  0  0
   27.2543   71.4833   -3.1054 C   0  0  1  0  0  0  0  0  0  0  0  0
   29.0153   69.9490   -3.3397 C   0  0  2  0  0  0  0  0  0  0  0  0
   29.7189   72.7083   -1.3897 H   0  0  0  0  0  0  0  0  0  0  0  0
   31.1656   72.4209   -3.4789 H   0  0  0  0  0  0  0  0  0  0  0  0
   31.0572   67.9994   -3.2597 O   0  0  0  0  0  0  0  0  0  0  0  0
   29.9122   66.3663   -7.4150 O   0  0  0  0  0  0  0  0  0  0  0  0
   29.2730   69.0016   -4.3870 N   0  0  0  0  0  0  0  0  0  0  0  0
   30.4856   67.1886   -5.3298 N   0  0  0  0  0  0  0  0  0  0  0  0
   30.3235   68.0639   -4.2478 C   0  0  0  0  0  0  0  0  0  0  0  0
   28.4893   69.0060   -5.5345 C   0  0  0  0  0  0  0  0  0  0  0  0
   28.6559   68.1654   -6.5574 C   0  0  0  0  0  0  0  0  0  0  0  0
   29.7321   67.1549   -6.4919 C   0  0  0  0  0  0  0  0  0  0  0  0
   31.2120   66.5280   -5.2568 H   0  0  0  0  0  0  0  0  0  0  0  0
   23.8139   72.9339   -3.4092 O   0  0  0  0  0  0  0  0  0  0  0  0
   22.7951   71.6793   -3.3688 P   0  0  2  0  0  0  0  0  0  0  0  0
   21.7815   72.0645   -2.1669 O   0  0  0  0  0  0  0  0  0  0  0  0
   23.4663   70.3460   -3.2082 O   0  0  0  0  0  0  0  0  0  0  0  0
   21.9110   71.8266   -4.7100 O   0  0  0  0  0  0  0  0  0  0  0  0
   20.6120   73.7758   -5.0599 O   0  0  0  0  0  0  0  0  0  0  0  0
   18.9134   71.1397   -7.7494 O   0  0  0  0  0  0  0  0  0  0  0  0
   19.6479   70.2492   -5.0658 O   0  0  0  0  0  0  0  0  0  0  0  0
   20.6837   73.2451   -8.6897 O   0  0  0  0  0  0  0  0  0  0  0  0
   19.9664   71.7127   -6.9744 C   0  0  2  0  0  0  0  0  0  0  0  0
   19.6235   71.6077   -5.4882 C   0  0  2  0  0  0  0  0  0  0  0  0
   20.1113   73.1798   -7.3848 C   0  0  1  0  0  0  0  0  0  0  0  0
   20.6114   72.4106   -4.6407 C   0  0  1  0  0  0  0  0  0  0  0  0
   21.0127   73.9424   -6.4181 C   0  0  1  0  0  0  0  0  0  0  0  0
   18.8029   70.2071   -7.5057 H   0  0  0  0  0  0  0  0  0  0  0  0
   19.0235   69.7338   -5.5996 H   0  0  0  0  0  0  0  0  0  0  0  0
   20.1197   72.7634   -9.3147 H   0  0  0  0  0  0  0  0  0  0  0  0
   21.7534   75.8407   -7.5797 O   0  0  0  0  0  0  0  0  0  0  0  0
   20.1119   76.1462   -6.0270 O   0  0  0  0  0  0  0  0  0  0  0  0
   20.8872   75.4165   -6.6265 C   0  0  0  0  0  0  0  0  0  0  0  0
  1  4  1  0
  1 24  1  0
  1  2  1  6
  1  3  2  0
 25 28  1  0
 25 24  1  0
 25 26  1  1
 25 27  2  0
  6 11  1  0
  6 12  1  0
 29 36  1  0
 29 37  1  0
  9  7  1  1
  7 13  1  0
 10  8  1  1
  8 14  1  0
  4  5  1  0
 36 28  1  6
 33 30  1  6
 30 38  1  0
 34 31  1  1
 31 39  1  0
 35 32  1  6
 32 40  1  0
 41 43  1  0
 15 19  2  0
 42 43  2  0
 16 22  2  0
 12 17  1  6
 17 19  1  0
 17 20  1  0
 18 19  1  0
 18 22  1  0
 18 23  1  0
  9 10  1  0
  9 11  1  0
 10 12  1  0
 11  5  1  6
 33 34  1  0
 33 35  1  0
 34 36  1  0
 35 37  1  0
 37 43  1  6
 20 21  2  0
 21 22  1  0
M  CHG  3   2  -1  26  -1  41  -1
M  END
>  <COMPND>  (92) 
    udp_gluA.pdb 

>  <AUTHOR>  (92) 
    GENERATED BY OPEN BABEL 3.1.1

>  <MASTER>  (92) 
        0    0    0    0    0    0    0    0   56    0   56    0

>  <minimizedAffinity>  (92) 
-6.71360

>  <CNNscore>  (92) 
0.4779780209

>  <CNNaffinity>  (92) 
4.3986039162

>  <CNN_VS>  (92) 
2.1024360657

>  <CNNaffinity_variance>  (92) 
0.0388389118

$$$$
93
     RDKit          3D

 43 45  0  0  0  0  0  0  0  0999 V2000
   25.3714   73.9306   -4.5984 P   0  0  2  0  0  0  0  0  0  0  0  0
   24.9907   73.9418   -6.1713 O   0  0  0  0  0  0  0  0  0  0  0  0
   26.6219   74.6805   -4.2439 O   0  0  0  0  0  0  0  0  0  0  0  0
   25.3587   72.3607   -4.2068 O   0  0  0  0  0  0  0  0  0  0  0  0
   26.4983   71.5783   -4.5126 C   0  0  0  0  0  0  0  0  0  0  0  0
   27.5669   69.8176   -3.2735 O   0  0  0  0  0  0  0  0  0  0  0  0
   28.8157   71.9887   -1.6248 O   0  0  0  0  0  0  0  0  0  0  0  0
   30.8372   71.2864   -3.3148 O   0  0  0  0  0  0  0  0  0  0  0  0
   28.5224   71.9704   -3.0220 C   0  0  1  0  0  0  0  0  0  0  0  0
   29.5098   71.0859   -3.7533 C   0  0  2  0  0  0  0  0  0  0  0  0
   27.2139   71.2167   -3.2174 C   0  0  1  0  0  0  0  0  0  0  0  0
   28.9899   69.6961   -3.4272 C   0  0  2  0  0  0  0  0  0  0  0  0
   29.6477   72.4652   -1.4750 H   0  0  0  0  0  0  0  0  0  0  0  0
   31.1218   72.1851   -3.5460 H   0  0  0  0  0  0  0  0  0  0  0  0
   31.0833   67.8021   -3.3439 O   0  0  0  0  0  0  0  0  0  0  0  0
   29.9627   66.1104   -7.4823 O   0  0  0  0  0  0  0  0  0  0  0  0
   29.2678   68.7486   -4.4693 N   0  0  0  0  0  0  0  0  0  0  0  0
   30.5238   66.9620   -5.4056 N   0  0  0  0  0  0  0  0  0  0  0  0
   30.3435   67.8402   -4.3289 C   0  0  0  0  0  0  0  0  0  0  0  0
   28.4790   68.7244   -5.6130 C   0  0  0  0  0  0  0  0  0  0  0  0
   28.6630   67.8813   -6.6310 C   0  0  0  0  0  0  0  0  0  0  0  0
   29.7660   66.9003   -6.5638 C   0  0  0  0  0  0  0  0  0  0  0  0
   31.2678   66.3214   -5.3316 H   0  0  0  0  0  0  0  0  0  0  0  0
   24.0279   74.4913   -3.8959 O   0  0  0  0  0  0  0  0  0  0  0  0
   23.5338   74.4397   -2.3574 P   0  0  2  0  0  0  0  0  0  0  0  0
   22.4439   75.6339   -2.2788 O   0  0  0  0  0  0  0  0  0  0  0  0
   24.6424   74.5469   -1.3507 O   0  0  0  0  0  0  0  0  0  0  0  0
   22.6628   73.0859   -2.2525 O   0  0  0  0  0  0  0  0  0  0  0  0
   21.3135   72.7998   -4.1778 O   0  0  0  0  0  0  0  0  0  0  0  0
   20.0976   69.6321   -1.8209 O   0  0  0  0  0  0  0  0  0  0  0  0
   20.5474   72.2673   -0.6429 O   0  0  0  0  0  0  0  0  0  0  0  0
   21.8538   69.1718   -4.0913 O   0  0  0  0  0  0  0  0  0  0  0  0
   21.0166   70.5951   -2.3368 C   0  0  2  0  0  0  0  0  0  0  0  0
   20.5018   72.0038   -2.0404 C   0  0  2  0  0  0  0  0  0  0  0  0
   21.1315   70.3772   -3.8472 C   0  0  1  0  0  0  0  0  0  0  0  0
   21.3351   73.0562   -2.7731 C   0  0  1  0  0  0  0  0  0  0  0  0
   21.8667   71.5315   -4.5222 C   0  0  1  0  0  0  0  0  0  0  0  0
   20.0084   69.7513   -0.8622 H   0  0  0  0  0  0  0  0  0  0  0  0
   20.0209   71.6031   -0.1717 H   0  0  0  0  0  0  0  0  0  0  0  0
   21.3965   68.4292   -3.6668 H   0  0  0  0  0  0  0  0  0  0  0  0
   20.5373   70.8392   -6.3263 O   0  0  0  0  0  0  0  0  0  0  0  0
   22.4671   71.9482   -6.8216 O   0  0  0  0  0  0  0  0  0  0  0  0
   21.6887   71.4793   -6.0047 C   0  0  0  0  0  0  0  0  0  0  0  0
  1  4  1  0
  1 24  1  0
  1  2  1  6
  1  3  2  0
 25 28  1  0
 25 24  1  0
 25 26  1  1
 25 27  2  0
  6 11  1  0
  6 12  1  0
 29 36  1  0
 29 37  1  0
  9  7  1  1
  7 13  1  0
 10  8  1  1
  8 14  1  0
  4  5  1  0
 36 28  1  1
 33 30  1  6
 30 38  1  0
 34 31  1  1
 31 39  1  0
 35 32  1  1
 32 40  1  0
 41 43  1  0
 15 19  2  0
 42 43  2  0
 16 22  2  0
 12 17  1  6
 17 19  1  0
 17 20  1  0
 18 19  1  0
 18 22  1  0
 18 23  1  0
  9 10  1  0
  9 11  1  0
 10 12  1  0
 11  5  1  6
 33 34  1  0
 33 35  1  0
 34 36  1  0
 35 37  1  0
 37 43  1  6
 20 21  2  0
 21 22  1  0
M  CHG  3   2  -1  26  -1  41  -1
M  END
>  <COMPND>  (93) 
    udp_gluA.pdb 

>  <AUTHOR>  (93) 
    GENERATED BY OPEN BABEL 3.1.1

>  <MASTER>  (93) 
        0    0    0    0    0    0    0    0   56    0   56    0

>  <minimizedAffinity>  (93) 
-7.32409

>  <CNNscore>  (93) 
0.4471416175

>  <CNNaffinity>  (93) 
4.3387880325

>  <CNN_VS>  (93) 
1.9400527477

>  <CNNaffinity_variance>  (93) 
0.0958354473

$$$$
94
     RDKit          3D

 43 45  0  0  0  0  0  0  0  0999 V2000
   23.9758   73.2111   -4.9044 P   0  0  2  0  0  0  0  0  0  0  0  0
   25.2350   73.4010   -5.9029 O   0  0  0  0  0  0  0  0  0  0  0  0
   23.7400   74.3516   -3.9581 O   0  0  0  0  0  0  0  0  0  0  0  0
   24.2391   71.7704   -4.2166 O   0  0  0  0  0  0  0  0  0  0  0  0
   25.4293   71.0747   -4.5390 C   0  0  0  0  0  0  0  0  0  0  0  0
   26.9478   69.7254   -3.2540 O   0  0  0  0  0  0  0  0  0  0  0  0
   27.8830   72.2899   -2.0130 O   0  0  0  0  0  0  0  0  0  0  0  0
   29.8321   71.7704   -3.8480 O   0  0  0  0  0  0  0  0  0  0  0  0
   27.4659   72.0345   -3.3544 C   0  0  1  0  0  0  0  0  0  0  0  0
   28.5370   71.2661   -4.0990 C   0  0  2  0  0  0  0  0  0  0  0  0
   26.3252   71.0272   -3.3080 C   0  0  1  0  0  0  0  0  0  0  0  0
   28.3442   69.8574   -3.5640 C   0  0  2  0  0  0  0  0  0  0  0  0
   28.6115   72.9310   -2.0170 H   0  0  0  0  0  0  0  0  0  0  0  0
   29.9046   72.6689   -4.2078 H   0  0  0  0  0  0  0  0  0  0  0  0
   30.9598   68.8483   -3.9054 O   0  0  0  0  0  0  0  0  0  0  0  0
   29.6189   66.0032   -7.2745 O   0  0  0  0  0  0  0  0  0  0  0  0
   28.7066   68.8525   -4.5230 N   0  0  0  0  0  0  0  0  0  0  0  0
   30.2897   67.4330   -5.5838 N   0  0  0  0  0  0  0  0  0  0  0  0
   30.0492   68.4150   -4.6138 C   0  0  0  0  0  0  0  0  0  0  0  0
   27.7382   68.3103   -5.3591 C   0  0  0  0  0  0  0  0  0  0  0  0
   27.9826   67.3748   -6.2788 C   0  0  0  0  0  0  0  0  0  0  0  0
   29.3598   66.8638   -6.4387 C   0  0  0  0  0  0  0  0  0  0  0  0
   31.2174   67.1141   -5.6670 H   0  0  0  0  0  0  0  0  0  0  0  0
   22.7517   72.9121   -5.9168 O   0  0  0  0  0  0  0  0  0  0  0  0
   21.4756   71.9292   -5.7783 P   0  0  2  0  0  0  0  0  0  0  0  0
   20.8819   72.2974   -4.3181 O   0  0  0  0  0  0  0  0  0  0  0  0
   21.7954   70.4745   -5.9670 O   0  0  0  0  0  0  0  0  0  0  0  0
   20.3916   72.5167   -6.8186 O   0  0  0  0  0  0  0  0  0  0  0  0
   19.6056   71.0662   -8.5178 O   0  0  0  0  0  0  0  0  0  0  0  0
   18.3212   74.7445   -9.8920 O   0  0  0  0  0  0  0  0  0  0  0  0
   20.9861   74.4447   -8.7332 O   0  0  0  0  0  0  0  0  0  0  0  0
   16.4285   72.8932   -8.6915 O   0  0  0  0  0  0  0  0  0  0  0  0
   18.6630   73.7675   -8.9088 C   0  0  2  0  0  0  0  0  0  0  0  0
   20.1279   73.3631   -9.0770 C   0  0  2  0  0  0  0  0  0  0  0  0
   17.7500   72.5558   -9.1088 C   0  0  1  0  0  0  0  0  0  0  0  0
   20.4674   72.1590   -8.1974 C   0  0  1  0  0  0  0  0  0  0  0  0
   18.2279   71.3576   -8.2937 C   0  0  1  0  0  0  0  0  0  0  0  0
   18.8887   75.5240   -9.7844 H   0  0  0  0  0  0  0  0  0  0  0  0
   20.7760   75.2123   -9.2873 H   0  0  0  0  0  0  0  0  0  0  0  0
   16.1125   73.6546   -9.2026 H   0  0  0  0  0  0  0  0  0  0  0  0
   16.4786   69.8346   -7.9447 O   0  0  0  0  0  0  0  0  0  0  0  0
   17.8880   69.4180   -9.6880 O   0  0  0  0  0  0  0  0  0  0  0  0
   17.5437   70.1062   -8.7389 C   0  0  0  0  0  0  0  0  0  0  0  0
  1  4  1  0
  1 24  1  0
  1  2  1  6
  1  3  2  0
 25 28  1  0
 25 24  1  0
 25 26  1  1
 25 27  2  0
  6 11  1  0
  6 12  1  0
 29 36  1  0
 29 37  1  0
  9  7  1  1
  7 13  1  0
 10  8  1  1
  8 14  1  0
  4  5  1  0
 36 28  1  1
 33 30  1  6
 30 38  1  0
 34 31  1  1
 31 39  1  0
 35 32  1  1
 32 40  1  0
 41 43  1  0
 15 19  2  0
 42 43  2  0
 16 22  2  0
 12 17  1  6
 17 19  1  0
 17 20  1  0
 18 19  1  0
 18 22  1  0
 18 23  1  0
  9 10  1  0
  9 11  1  0
 10 12  1  0
 11  5  1  6
 33 34  1  0
 33 35  1  0
 34 36  1  0
 35 37  1  0
 37 43  1  6
 20 21  2  0
 21 22  1  0
M  CHG  3   2  -1  26  -1  41  -1
M  END
>  <COMPND>  (94) 
    udp_gluA.pdb 

>  <AUTHOR>  (94) 
    GENERATED BY OPEN BABEL 3.1.1

>  <MASTER>  (94) 
        0    0    0    0    0    0    0    0   56    0   56    0

>  <minimizedAffinity>  (94) 
-7.68439

>  <CNNscore>  (94) 
0.4430651367

>  <CNNaffinity>  (94) 
4.3610095978

>  <CNN_VS>  (94) 
1.9322112799

>  <CNNaffinity_variance>  (94) 
0.0553360209

$$$$
95
     RDKit          3D

 43 45  0  0  0  0  0  0  0  0999 V2000
   23.8775   72.6980   -4.6966 P   0  0  2  0  0  0  0  0  0  0  0  0
   24.7616   73.1281   -5.9820 O   0  0  0  0  0  0  0  0  0  0  0  0
   23.4188   73.8366   -3.8334 O   0  0  0  0  0  0  0  0  0  0  0  0
   24.7831   71.5779   -3.9594 O   0  0  0  0  0  0  0  0  0  0  0  0
   26.1389   71.4439   -4.3446 C   0  0  0  0  0  0  0  0  0  0  0  0
   27.4130   69.7936   -3.1484 O   0  0  0  0  0  0  0  0  0  0  0  0
   28.6628   72.0913   -1.6820 O   0  0  0  0  0  0  0  0  0  0  0  0
   30.5732   71.4463   -3.5179 O   0  0  0  0  0  0  0  0  0  0  0  0
   28.2541   72.0057   -3.0474 C   0  0  1  0  0  0  0  0  0  0  0  0
   29.2280   71.1538   -3.8335 C   0  0  2  0  0  0  0  0  0  0  0  0
   26.9819   71.1712   -3.1055 C   0  0  1  0  0  0  0  0  0  0  0  0
   28.8227   69.7490   -3.4208 C   0  0  2  0  0  0  0  0  0  0  0  0
   29.4741   72.6200   -1.6195 H   0  0  0  0  0  0  0  0  0  0  0  0
   30.7822   72.3509   -3.8005 H   0  0  0  0  0  0  0  0  0  0  0  0
   31.2684   68.3819   -3.7760 O   0  0  0  0  0  0  0  0  0  0  0  0
   29.6524   66.0610   -7.4155 O   0  0  0  0  0  0  0  0  0  0  0  0
   29.0684   68.7822   -4.4531 N   0  0  0  0  0  0  0  0  0  0  0  0
   30.4615   67.2280   -5.5889 N   0  0  0  0  0  0  0  0  0  0  0  0
   30.3324   68.1528   -4.5443 C   0  0  0  0  0  0  0  0  0  0  0  0
   28.0642   68.4651   -5.3597 C   0  0  0  0  0  0  0  0  0  0  0  0
   28.2022   67.5814   -6.3501 C   0  0  0  0  0  0  0  0  0  0  0  0
   29.4921   66.8799   -6.5156 C   0  0  0  0  0  0  0  0  0  0  0  0
   31.3333   66.7784   -5.6739 H   0  0  0  0  0  0  0  0  0  0  0  0
   22.6841   71.8267   -5.3520 O   0  0  0  0  0  0  0  0  0  0  0  0
   21.5850   72.2076   -6.4747 P   0  0  2  0  0  0  0  0  0  0  0  0
   22.0344   71.3168   -7.7495 O   0  0  0  0  0  0  0  0  0  0  0  0
   21.4758   73.6783   -6.7556 O   0  0  0  0  0  0  0  0  0  0  0  0
   20.2190   71.5211   -5.9596 O   0  0  0  0  0  0  0  0  0  0  0  0
   18.3817   71.5694   -7.4533 O   0  0  0  0  0  0  0  0  0  0  0  0
   16.5678   70.4117   -3.9267 O   0  0  0  0  0  0  0  0  0  0  0  0
   18.5987   72.5116   -3.9275 O   0  0  0  0  0  0  0  0  0  0  0  0
   17.0601   68.4595   -6.0236 O   0  0  0  0  0  0  0  0  0  0  0  0
   17.6280   70.5017   -4.8784 C   0  0  2  0  0  0  0  0  0  0  0  0
   17.9962   71.9694   -5.0970 C   0  0  2  0  0  0  0  0  0  0  0  0
   17.1433   69.8740   -6.1871 C   0  0  1  0  0  0  0  0  0  0  0  0
   18.9634   72.1217   -6.2718 C   0  0  1  0  0  0  0  0  0  0  0  0
   18.0989   70.1767   -7.3376 C   0  0  1  0  0  0  0  0  0  0  0  0
   16.8528   70.8046   -3.0866 H   0  0  0  0  0  0  0  0  0  0  0  0
   17.9906   72.4181   -3.1779 H   0  0  0  0  0  0  0  0  0  0  0  0
   16.4550   68.2533   -5.2942 H   0  0  0  0  0  0  0  0  0  0  0  0
   16.1271   69.6925   -8.5120 O   0  0  0  0  0  0  0  0  0  0  0  0
   18.0655   69.7466   -9.7115 O   0  0  0  0  0  0  0  0  0  0  0  0
   17.4665   69.8524   -8.6519 C   0  0  0  0  0  0  0  0  0  0  0  0
  1  4  1  0
  1 24  1  0
  1  2  1  6
  1  3  2  0
 25 28  1  0
 25 24  1  0
 25 26  1  6
 25 27  2  0
  6 11  1  0
  6 12  1  0
 29 36  1  0
 29 37  1  0
  9  7  1  1
  7 13  1  0
 10  8  1  1
  8 14  1  0
  4  5  1  0
 36 28  1  1
 33 30  1  1
 30 38  1  0
 34 31  1  1
 31 39  1  0
 35 32  1  1
 32 40  1  0
 41 43  1  0
 15 19  2  0
 42 43  2  0
 16 22  2  0
 12 17  1  6
 17 19  1  0
 17 20  1  0
 18 19  1  0
 18 22  1  0
 18 23  1  0
  9 10  1  0
  9 11  1  0
 10 12  1  0
 11  5  1  6
 33 34  1  0
 33 35  1  0
 34 36  1  0
 35 37  1  0
 37 43  1  6
 20 21  2  0
 21 22  1  0
M  CHG  3   2  -1  26  -1  41  -1
M  END
>  <COMPND>  (95) 
    udp_gluA.pdb 

>  <AUTHOR>  (95) 
    GENERATED BY OPEN BABEL 3.1.1

>  <MASTER>  (95) 
        0    0    0    0    0    0    0    0   56    0   56    0

>  <minimizedAffinity>  (95) 
-7.52418

>  <CNNscore>  (95) 
0.4368640482

>  <CNNaffinity>  (95) 
4.3809051514

>  <CNN_VS>  (95) 
1.9138599634

>  <CNNaffinity_variance>  (95) 
0.0357905887

$$$$
96
     RDKit          3D

 43 45  0  0  0  0  0  0  0  0999 V2000
   21.0092   73.0345   -3.5735 P   0  0  2  0  0  0  0  0  0  0  0  0
   19.4824   73.5422   -3.4008 O   0  0  0  0  0  0  0  0  0  0  0  0
   21.9839   73.6111   -2.5889 O   0  0  0  0  0  0  0  0  0  0  0  0
   21.3376   73.3139   -5.1330 O   0  0  0  0  0  0  0  0  0  0  0  0
   20.2650   73.6169   -6.0060 C   0  0  0  0  0  0  0  0  0  0  0  0
   20.2453   71.9616   -7.7488 O   0  0  0  0  0  0  0  0  0  0  0  0
   20.8531   74.2108   -9.6364 O   0  0  0  0  0  0  0  0  0  0  0  0
   18.1764   73.8363   -9.9980 O   0  0  0  0  0  0  0  0  0  0  0  0
   20.0305   74.2077   -8.4694 C   0  0  1  0  0  0  0  0  0  0  0  0
   18.7296   73.4846   -8.7471 C   0  0  2  0  0  0  0  0  0  0  0  0
   20.6847   73.3011   -7.4358 C   0  0  1  0  0  0  0  0  0  0  0  0
   19.1590   72.0286   -8.6861 C   0  0  2  0  0  0  0  0  0  0  0  0
   20.4554   74.7835  -10.3113 H   0  0  0  0  0  0  0  0  0  0  0  0
   17.9188   74.7719   -9.9860 H   0  0  0  0  0  0  0  0  0  0  0  0
   17.2119   70.8831  -10.3811 O   0  0  0  0  0  0  0  0  0  0  0  0
   15.1550   68.7274   -6.8645 O   0  0  0  0  0  0  0  0  0  0  0  0
   18.1032   71.1642   -8.2399 N   0  0  0  0  0  0  0  0  0  0  0  0
   16.1887   69.8113   -8.6279 N   0  0  0  0  0  0  0  0  0  0  0  0
   17.1767   70.6419   -9.1730 C   0  0  0  0  0  0  0  0  0  0  0  0
   17.9943   70.8408   -6.8929 C   0  0  0  0  0  0  0  0  0  0  0  0
   17.0471   70.0477   -6.3882 C   0  0  0  0  0  0  0  0  0  0  0  0
   16.0392   69.4613   -7.2957 C   0  0  0  0  0  0  0  0  0  0  0  0
   15.5310   69.4373   -9.2579 H   0  0  0  0  0  0  0  0  0  0  0  0
   20.8654   71.4255   -3.5150 O   0  0  0  0  0  0  0  0  0  0  0  0
   21.9300   70.2523   -3.8374 P   0  0  2  0  0  0  0  0  0  0  0  0
   21.8981   70.1577   -5.4530 O   0  0  0  0  0  0  0  0  0  0  0  0
   21.6478   68.9551   -3.1363 O   0  0  0  0  0  0  0  0  0  0  0  0
   23.3678   70.8991   -3.4957 O   0  0  0  0  0  0  0  0  0  0  0  0
   24.6783   72.1325   -5.0352 O   0  0  0  0  0  0  0  0  0  0  0  0
   27.5418   70.8002   -2.3719 O   0  0  0  0  0  0  0  0  0  0  0  0
   25.4041   69.0190   -3.2616 O   0  0  0  0  0  0  0  0  0  0  0  0
   26.6539   73.5673   -2.2965 O   0  0  0  0  0  0  0  0  0  0  0  0
   26.2474   71.2423   -2.7804 C   0  0  2  0  0  0  0  0  0  0  0  0
   25.6907   70.2882   -3.8374 C   0  0  2  0  0  0  0  0  0  0  0  0
   26.3897   72.6522   -3.3582 C   0  0  1  0  0  0  0  0  0  0  0  0
   24.4140   70.8506   -4.4640 C   0  0  1  0  0  0  0  0  0  0  0  0
   25.1165   73.0916   -4.0754 C   0  0  1  0  0  0  0  0  0  0  0  0
   27.4762   69.9060   -2.0013 H   0  0  0  0  0  0  0  0  0  0  0  0
   26.2098   68.6564   -2.8619 H   0  0  0  0  0  0  0  0  0  0  0  0
   27.4618   73.2989   -1.8317 H   0  0  0  0  0  0  0  0  0  0  0  0
   25.0660   74.0690   -6.2070 O   0  0  0  0  0  0  0  0  0  0  0  0
   25.7867   75.3736   -4.4813 O   0  0  0  0  0  0  0  0  0  0  0  0
   25.3684   74.3072   -4.9067 C   0  0  0  0  0  0  0  0  0  0  0  0
  1  4  1  0
  1 24  1  0
  1  2  1  1
  1  3  2  0
 25 28  1  0
 25 24  1  0
 25 26  1  6
 25 27  2  0
  6 11  1  0
  6 12  1  0
 29 36  1  0
 29 37  1  0
  9  7  1  6
  7 13  1  0
 10  8  1  6
  8 14  1  0
  4  5  1  0
 36 28  1  1
 33 30  1  6
 30 38  1  0
 34 31  1  1
 31 39  1  0
 35 32  1  1
 32 40  1  0
 41 43  1  0
 15 19  2  0
 42 43  2  0
 16 22  2  0
 12 17  1  1
 17 19  1  0
 17 20  1  0
 18 19  1  0
 18 22  1  0
 18 23  1  0
  9 10  1  0
  9 11  1  0
 10 12  1  0
 11  5  1  1
 33 34  1  0
 33 35  1  0
 34 36  1  0
 35 37  1  0
 37 43  1  6
 20 21  2  0
 21 22  1  0
M  CHG  3   2  -1  26  -1  41  -1
M  END
>  <COMPND>  (96) 
    udp_gluA.pdb 

>  <AUTHOR>  (96) 
    GENERATED BY OPEN BABEL 3.1.1

>  <MASTER>  (96) 
        0    0    0    0    0    0    0    0   56    0   56    0

>  <minimizedAffinity>  (96) 
-6.34646

>  <CNNscore>  (96) 
0.4336975217

>  <CNNaffinity>  (96) 
4.1681070328

>  <CNN_VS>  (96) 
1.8076976538

>  <CNNaffinity_variance>  (96) 
0.0370782167

$$$$
97
     RDKit          3D

 43 45  0  0  0  0  0  0  0  0999 V2000
   26.0603   70.6747   -3.2712 P   0  0  2  0  0  0  0  0  0  0  0  0
   25.5645   71.5291   -1.9894 O   0  0  0  0  0  0  0  0  0  0  0  0
   25.2325   69.4625   -3.5832 O   0  0  0  0  0  0  0  0  0  0  0  0
   27.6261   70.3982   -2.9717 O   0  0  0  0  0  0  0  0  0  0  0  0
   28.4488   71.4923   -2.6104 C   0  0  0  0  0  0  0  0  0  0  0  0
   29.8268   69.5682   -2.1900 O   0  0  0  0  0  0  0  0  0  0  0  0
   31.9159   71.5019   -1.2474 O   0  0  0  0  0  0  0  0  0  0  0  0
   32.7671   70.8847   -3.7635 O   0  0  0  0  0  0  0  0  0  0  0  0
   30.9707   71.6390   -2.3088 C   0  0  1  0  0  0  0  0  0  0  0  0
   31.3844   70.7898   -3.4920 C   0  0  2  0  0  0  0  0  0  0  0  0
   29.6748   70.9689   -1.8732 C   0  0  1  0  0  0  0  0  0  0  0  0
   30.9709   69.3990   -3.0419 C   0  0  2  0  0  0  0  0  0  0  0  0
   32.7523   71.9226   -1.5025 H   0  0  0  0  0  0  0  0  0  0  0  0
   32.9798   71.7884   -4.0463 H   0  0  0  0  0  0  0  0  0  0  0  0
   31.9644   66.7840   -3.4309 O   0  0  0  0  0  0  0  0  0  0  0  0
   29.5238   66.2364   -7.3023 O   0  0  0  0  0  0  0  0  0  0  0  0
   30.6117   68.5509   -4.1430 N   0  0  0  0  0  0  0  0  0  0  0  0
   30.7487   66.5141   -5.3593 N   0  0  0  0  0  0  0  0  0  0  0  0
   31.1679   67.2538   -4.2456 C   0  0  0  0  0  0  0  0  0  0  0  0
   29.7175   69.0045   -5.1050 C   0  0  0  0  0  0  0  0  0  0  0  0
   29.3273   68.2879   -6.1609 C   0  0  0  0  0  0  0  0  0  0  0  0
   29.8623   66.9225   -6.3427 C   0  0  0  0  0  0  0  0  0  0  0  0
   31.1240   65.6088   -5.4532 H   0  0  0  0  0  0  0  0  0  0  0  0
   26.1053   71.7806   -4.4491 O   0  0  0  0  0  0  0  0  0  0  0  0
   25.4569   73.2586   -4.5428 P   0  0  2  0  0  0  0  0  0  0  0  0
   25.1272   73.4187   -6.1195 O   0  0  0  0  0  0  0  0  0  0  0  0
   26.3224   74.3477   -3.9783 O   0  0  0  0  0  0  0  0  0  0  0  0
   24.0130   73.1175   -3.8372 O   0  0  0  0  0  0  0  0  0  0  0  0
   22.4075   71.6793   -4.8185 O   0  0  0  0  0  0  0  0  0  0  0  0
   20.0720   73.9173   -2.2485 O   0  0  0  0  0  0  0  0  0  0  0  0
   22.1622   75.1937   -3.8412 O   0  0  0  0  0  0  0  0  0  0  0  0
   20.7791   71.1808   -1.5685 O   0  0  0  0  0  0  0  0  0  0  0  0
   21.2583   73.2580   -2.6912 C   0  0  2  0  0  0  0  0  0  0  0  0
   21.7098   73.8570   -4.0235 C   0  0  2  0  0  0  0  0  0  0  0  0
   20.9388   71.7707   -2.8573 C   0  0  1  0  0  0  0  0  0  0  0  0
   22.8379   73.0293   -4.6410 C   0  0  1  0  0  0  0  0  0  0  0  0
   22.0578   71.0393   -3.5932 C   0  0  1  0  0  0  0  0  0  0  0  0
   20.2509   74.8642   -2.1360 H   0  0  0  0  0  0  0  0  0  0  0  0
   21.4514   75.7245   -3.4493 H   0  0  0  0  0  0  0  0  0  0  0  0
   20.0698   71.6373   -1.0896 H   0  0  0  0  0  0  0  0  0  0  0  0
   21.9252   68.7468   -3.1152 O   0  0  0  0  0  0  0  0  0  0  0  0
   21.0227   69.4522   -5.0868 O   0  0  0  0  0  0  0  0  0  0  0  0
   21.6046   69.6870   -4.0383 C   0  0  0  0  0  0  0  0  0  0  0  0
  1  4  1  0
  1 24  1  0
  1  2  1  1
  1  3  2  0
 25 28  1  0
 25 24  1  0
 25 26  1  6
 25 27  2  0
  6 11  1  0
  6 12  1  0
 29 36  1  0
 29 37  1  0
  9  7  1  1
  7 13  1  0
 10  8  1  1
  8 14  1  0
  4  5  1  0
 36 28  1  1
 33 30  1  6
 30 38  1  0
 34 31  1  1
 31 39  1  0
 35 32  1  1
 32 40  1  0
 41 43  1  0
 15 19  2  0
 42 43  2  0
 16 22  2  0
 12 17  1  6
 17 19  1  0
 17 20  1  0
 18 19  1  0
 18 22  1  0
 18 23  1  0
  9 10  1  0
  9 11  1  0
 10 12  1  0
 11  5  1  6
 33 34  1  0
 33 35  1  0
 34 36  1  0
 35 37  1  0
 37 43  1  6
 20 21  2  0
 21 22  1  0
M  CHG  3   2  -1  26  -1  41  -1
M  END
>  <COMPND>  (97) 
    udp_gluA.pdb 

>  <AUTHOR>  (97) 
    GENERATED BY OPEN BABEL 3.1.1

>  <MASTER>  (97) 
        0    0    0    0    0    0    0    0   56    0   56    0

>  <minimizedAffinity>  (97) 
-6.79642

>  <CNNscore>  (97) 
0.4243594408

>  <CNNaffinity>  (97) 
4.2870712280

>  <CNN_VS>  (97) 
1.8192591667

>  <CNNaffinity_variance>  (97) 
0.0990679860

$$$$
98
     RDKit          3D

 43 45  0  0  0  0  0  0  0  0999 V2000
   30.1793   71.4323   -0.3980 P   0  0  2  0  0  0  0  0  0  0  0  0
   28.6594   71.4908    0.1547 O   0  0  0  0  0  0  0  0  0  0  0  0
   30.5778   72.5802   -1.2786 O   0  0  0  0  0  0  0  0  0  0  0  0
   30.2940   69.9625   -1.0646 O   0  0  0  0  0  0  0  0  0  0  0  0
   31.0420   69.8178   -2.2579 C   0  0  0  0  0  0  0  0  0  0  0  0
   29.3110   68.2340   -2.7801 O   0  0  0  0  0  0  0  0  0  0  0  0
   31.2678   67.0072   -4.6925 O   0  0  0  0  0  0  0  0  0  0  0  0
   29.6670   68.4773   -6.3394 O   0  0  0  0  0  0  0  0  0  0  0  0
   31.0721   68.3812   -4.3573 C   0  0  1  0  0  0  0  0  0  0  0  0
   29.8036   68.9018   -4.9993 C   0  0  2  0  0  0  0  0  0  0  0  0
   30.7342   68.4595   -2.8748 C   0  0  1  0  0  0  0  0  0  0  0  0
   28.7309   68.3254   -4.0911 C   0  0  2  0  0  0  0  0  0  0  0  0
   31.4849   66.9318   -5.6353 H   0  0  0  0  0  0  0  0  0  0  0  0
   30.3726   68.8712   -6.8769 H   0  0  0  0  0  0  0  0  0  0  0  0
   26.1592   67.4082   -3.3690 O   0  0  0  0  0  0  0  0  0  0  0  0
   24.3194   71.6030   -3.8814 O   0  0  0  0  0  0  0  0  0  0  0  0
   27.5621   69.1565   -4.0276 N   0  0  0  0  0  0  0  0  0  0  0  0
   25.2451   69.4981   -3.6259 N   0  0  0  0  0  0  0  0  0  0  0  0
   26.3175   68.5968   -3.6538 C   0  0  0  0  0  0  0  0  0  0  0  0
   27.6555   70.5092   -4.3317 C   0  0  0  0  0  0  0  0  0  0  0  0
   26.6245   71.3558   -4.3006 C   0  0  0  0  0  0  0  0  0  0  0  0
   25.2887   70.8512   -3.9206 C   0  0  0  0  0  0  0  0  0  0  0  0
   24.3680   69.1312   -3.3705 H   0  0  0  0  0  0  0  0  0  0  0  0
   31.0520   71.2869    0.9548 O   0  0  0  0  0  0  0  0  0  0  0  0
   32.5437   70.7134    1.1991 P   0  0  2  0  0  0  0  0  0  0  0  0
   33.3522   71.2162   -0.1100 O   0  0  0  0  0  0  0  0  0  0  0  0
   32.6033   69.2314    1.4314 O   0  0  0  0  0  0  0  0  0  0  0  0
   33.1320   71.6048    2.4082 O   0  0  0  0  0  0  0  0  0  0  0  0
   31.4464   71.7848    4.0622 O   0  0  0  0  0  0  0  0  0  0  0  0
   34.5159   73.9768    5.7479 O   0  0  0  0  0  0  0  0  0  0  0  0
   33.9040   74.2307    2.9026 O   0  0  0  0  0  0  0  0  0  0  0  0
   33.9240   71.3038    6.7254 O   0  0  0  0  0  0  0  0  0  0  0  0
   33.9378   72.9391    4.9561 C   0  0  2  0  0  0  0  0  0  0  0  0
   33.0829   73.5562    3.8489 C   0  0  2  0  0  0  0  0  0  0  0  0
   33.0746   72.0697    5.8731 C   0  0  1  0  0  0  0  0  0  0  0  0
   32.2672   72.4837    3.1255 C   0  0  1  0  0  0  0  0  0  0  0  0
   32.1981   71.1127    5.0703 C   0  0  1  0  0  0  0  0  0  0  0  0
   35.0690   74.5423    5.1862 H   0  0  0  0  0  0  0  0  0  0  0  0
   34.4246   74.9125    3.3549 H   0  0  0  0  0  0  0  0  0  0  0  0
   34.4873   71.9011    7.2419 H   0  0  0  0  0  0  0  0  0  0  0  0
   31.2688   69.1637    5.9865 O   0  0  0  0  0  0  0  0  0  0  0  0
   30.2704   71.1427    6.5209 O   0  0  0  0  0  0  0  0  0  0  0  0
   31.1379   70.5125    5.9352 C   0  0  0  0  0  0  0  0  0  0  0  0
  1  4  1  0
  1 24  1  0
  1  2  1  1
  1  3  2  0
 25 28  1  0
 25 24  1  0
 25 26  1  6
 25 27  2  0
  6 11  1  0
  6 12  1  0
 29 36  1  0
 29 37  1  0
  9  7  1  6
  7 13  1  0
 10  8  1  6
  8 14  1  0
  4  5  1  0
 36 28  1  1
 33 30  1  1
 30 38  1  0
 34 31  1  6
 31 39  1  0
 35 32  1  1
 32 40  1  0
 41 43  1  0
 15 19  2  0
 42 43  2  0
 16 22  2  0
 12 17  1  1
 17 19  1  0
 17 20  1  0
 18 19  1  0
 18 22  1  0
 18 23  1  0
  9 10  1  0
  9 11  1  0
 10 12  1  0
 11  5  1  6
 33 34  1  0
 33 35  1  0
 34 36  1  0
 35 37  1  0
 37 43  1  1
 20 21  2  0
 21 22  1  0
M  CHG  3   2  -1  26  -1  41  -1
M  END
>  <COMPND>  (98) 
    udp_gluA.pdb 

>  <AUTHOR>  (98) 
    GENERATED BY OPEN BABEL 3.1.1

>  <MASTER>  (98) 
        0    0    0    0    0    0    0    0   56    0   56    0

>  <minimizedAffinity>  (98) 
-7.22471

>  <CNNscore>  (98) 
0.4046696723

>  <CNNaffinity>  (98) 
3.9082202911

>  <CNN_VS>  (98) 
1.5815382004

>  <CNNaffinity_variance>  (98) 
0.1697209179

$$$$
99
     RDKit          3D

 43 45  0  0  0  0  0  0  0  0999 V2000
   22.3355   72.0891   -4.7026 P   0  0  2  0  0  0  0  0  0  0  0  0
   21.7328   70.5983   -4.8845 O   0  0  0  0  0  0  0  0  0  0  0  0
   21.7618   72.8689   -3.5560 O   0  0  0  0  0  0  0  0  0  0  0  0
   22.1618   72.7594   -6.1649 O   0  0  0  0  0  0  0  0  0  0  0  0
   20.8573   72.8849   -6.7006 C   0  0  0  0  0  0  0  0  0  0  0  0
   20.1365   70.9960   -8.0005 O   0  0  0  0  0  0  0  0  0  0  0  0
   20.5285   72.7393  -10.4085 O   0  0  0  0  0  0  0  0  0  0  0  0
   17.8278   72.8281  -10.0420 O   0  0  0  0  0  0  0  0  0  0  0  0
   20.0571   73.0889   -9.1069 C   0  0  1  0  0  0  0  0  0  0  0  0
   18.6405   72.5915   -8.9115 C   0  0  2  0  0  0  0  0  0  0  0  0
   20.8290   72.2600   -8.0894 C   0  0  1  0  0  0  0  0  0  0  0  0
   18.8595   71.1115   -8.6480 C   0  0  2  0  0  0  0  0  0  0  0  0
   20.0498   73.2563  -11.0758 H   0  0  0  0  0  0  0  0  0  0  0  0
   17.7183   73.7843  -10.1671 H   0  0  0  0  0  0  0  0  0  0  0  0
   16.4523   69.9558   -9.5681 O   0  0  0  0  0  0  0  0  0  0  0  0
   15.0610   68.9955   -5.2801 O   0  0  0  0  0  0  0  0  0  0  0  0
   17.8505   70.5519   -7.7937 N   0  0  0  0  0  0  0  0  0  0  0  0
   15.7612   69.4796   -7.4315 N   0  0  0  0  0  0  0  0  0  0  0  0
   16.6776   69.9959   -8.3570 C   0  0  0  0  0  0  0  0  0  0  0  0
   18.0284   70.5557   -6.4156 C   0  0  0  0  0  0  0  0  0  0  0  0
   17.1460   70.0596   -5.5461 C   0  0  0  0  0  0  0  0  0  0  0  0
   15.8935   69.4612   -6.0525 C   0  0  0  0  0  0  0  0  0  0  0  0
   14.9359   69.0890   -7.7999 H   0  0  0  0  0  0  0  0  0  0  0  0
   23.9279   71.8279   -4.6094 O   0  0  0  0  0  0  0  0  0  0  0  0
   25.1797   72.8416   -4.7479 P   0  0  2  0  0  0  0  0  0  0  0  0
   25.0973   73.7188   -3.3899 O   0  0  0  0  0  0  0  0  0  0  0  0
   25.1773   73.6543   -6.0102 O   0  0  0  0  0  0  0  0  0  0  0  0
   26.4832   71.9112   -4.5531 O   0  0  0  0  0  0  0  0  0  0  0  0
   26.6265   69.8049   -3.4799 O   0  0  0  0  0  0  0  0  0  0  0  0
   30.4172   71.3252   -2.8574 O   0  0  0  0  0  0  0  0  0  0  0  0
   28.0684   73.0375   -2.5644 O   0  0  0  0  0  0  0  0  0  0  0  0
   29.9829   69.2628   -4.8595 O   0  0  0  0  0  0  0  0  0  0  0  0
   29.1903   71.1311   -3.5610 C   0  0  2  0  0  0  0  0  0  0  0  0
   28.0246   71.6219   -2.7021 C   0  0  2  0  0  0  0  0  0  0  0  0
   29.0439   69.6360   -3.8528 C   0  0  1  0  0  0  0  0  0  0  0  0
   26.6838   71.2228   -3.3200 C   0  0  1  0  0  0  0  0  0  0  0  0
   27.6398   69.2996   -4.3465 C   0  0  1  0  0  0  0  0  0  0  0  0
   30.5318   72.2684   -2.6611 H   0  0  0  0  0  0  0  0  0  0  0  0
   28.9167   73.2978   -2.1732 H   0  0  0  0  0  0  0  0  0  0  0  0
   30.8807   69.4718   -4.5578 H   0  0  0  0  0  0  0  0  0  0  0  0
   26.5951   67.4921   -3.2774 O   0  0  0  0  0  0  0  0  0  0  0  0
   27.8722   67.0216   -5.1068 O   0  0  0  0  0  0  0  0  0  0  0  0
   27.4049   67.8245   -4.3131 C   0  0  0  0  0  0  0  0  0  0  0  0
  1  4  1  0
  1 24  1  0
  1  2  1  6
  1  3  2  0
 25 28  1  0
 25 24  1  0
 25 26  1  1
 25 27  2  0
  6 11  1  0
  6 12  1  0
 29 36  1  0
 29 37  1  0
  9  7  1  6
  7 13  1  0
 10  8  1  6
  8 14  1  0
  4  5  1  0
 36 28  1  6
 33 30  1  1
 30 38  1  0
 34 31  1  6
 31 39  1  0
 35 32  1  6
 32 40  1  0
 41 43  1  0
 15 19  2  0
 42 43  2  0
 16 22  2  0
 12 17  1  1
 17 19  1  0
 17 20  1  0
 18 19  1  0
 18 22  1  0
 18 23  1  0
  9 10  1  0
  9 11  1  0
 10 12  1  0
 11  5  1  1
 33 34  1  0
 33 35  1  0
 34 36  1  0
 35 37  1  0
 37 43  1  1
 20 21  2  0
 21 22  1  0
M  CHG  3   2  -1  26  -1  41  -1
M  END
>  <COMPND>  (99) 
    udp_gluA.pdb 

>  <AUTHOR>  (99) 
    GENERATED BY OPEN BABEL 3.1.1

>  <MASTER>  (99) 
        0    0    0    0    0    0    0    0   56    0   56    0

>  <minimizedAffinity>  (99) 
-7.61939

>  <CNNscore>  (99) 
0.3933307230

>  <CNNaffinity>  (99) 
4.1586256027

>  <CNN_VS>  (99) 
1.6357152462

>  <CNNaffinity_variance>  (99) 
0.0565380678

$$$$
100
     RDKit          3D

 43 45  0  0  0  0  0  0  0  0999 V2000
   24.0642   73.1697   -5.0613 P   0  0  2  0  0  0  0  0  0  0  0  0
   25.3396   73.3449   -6.0418 O   0  0  0  0  0  0  0  0  0  0  0  0
   23.4967   74.4511   -4.5248 O   0  0  0  0  0  0  0  0  0  0  0  0
   24.5703   72.1065   -3.9516 O   0  0  0  0  0  0  0  0  0  0  0  0
   25.6756   71.2784   -4.2633 C   0  0  0  0  0  0  0  0  0  0  0  0
   27.2859   69.9515   -3.0701 O   0  0  0  0  0  0  0  0  0  0  0  0
   28.1623   72.5120   -1.7788 O   0  0  0  0  0  0  0  0  0  0  0  0
   30.0687   72.1254   -3.6898 O   0  0  0  0  0  0  0  0  0  0  0  0
   27.7116   72.2812   -3.1138 C   0  0  1  0  0  0  0  0  0  0  0  0
   28.7864   71.5784   -3.9157 C   0  0  2  0  0  0  0  0  0  0  0  0
   26.6124   71.2289   -3.0632 C   0  0  1  0  0  0  0  0  0  0  0  0
   28.6653   70.1476   -3.4195 C   0  0  2  0  0  0  0  0  0  0  0  0
   28.8651   73.1810   -1.7855 H   0  0  0  0  0  0  0  0  0  0  0  0
   30.0949   73.0365   -4.0232 H   0  0  0  0  0  0  0  0  0  0  0  0
   30.6058   68.1284   -3.0541 O   0  0  0  0  0  0  0  0  0  0  0  0
   30.0006   66.5185   -7.3303 O   0  0  0  0  0  0  0  0  0  0  0  0
   29.0344   69.1873   -4.4208 N   0  0  0  0  0  0  0  0  0  0  0  0
   30.3032   67.3291   -5.1845 N   0  0  0  0  0  0  0  0  0  0  0  0
   30.0212   68.2142   -4.1357 C   0  0  0  0  0  0  0  0  0  0  0  0
   28.4208   69.2142   -5.6672 C   0  0  0  0  0  0  0  0  0  0  0  0
   28.7001   68.3639   -6.6570 C   0  0  0  0  0  0  0  0  0  0  0  0
   29.7201   67.3168   -6.4413 C   0  0  0  0  0  0  0  0  0  0  0  0
   30.9884   66.6439   -5.0104 H   0  0  0  0  0  0  0  0  0  0  0  0
   23.0359   72.3001   -5.9553 O   0  0  0  0  0  0  0  0  0  0  0  0
   21.6906   71.5007   -5.5495 P   0  0  2  0  0  0  0  0  0  0  0  0
   21.1151   72.3551   -4.3008 O   0  0  0  0  0  0  0  0  0  0  0  0
   21.9047   70.0441   -5.2558 O   0  0  0  0  0  0  0  0  0  0  0  0
   20.6596   71.7963   -6.7546 O   0  0  0  0  0  0  0  0  0  0  0  0
   18.9089   73.2970   -7.2949 O   0  0  0  0  0  0  0  0  0  0  0  0
   17.1955   69.6472   -8.1955 O   0  0  0  0  0  0  0  0  0  0  0  0
   18.8009   69.9729   -5.7766 O   0  0  0  0  0  0  0  0  0  0  0  0
   18.1275   71.3878  -10.3292 O   0  0  0  0  0  0  0  0  0  0  0  0
   18.2594   70.5893   -8.0598 C   0  0  2  0  0  0  0  0  0  0  0  0
   18.3583   71.0432   -6.6032 C   0  0  2  0  0  0  0  0  0  0  0  0
   17.9541   71.7816   -8.9693 C   0  0  1  0  0  0  0  0  0  0  0  0
   19.3287   72.2167   -6.4606 C   0  0  1  0  0  0  0  0  0  0  0  0
   18.8843   72.9560   -8.6792 C   0  0  1  0  0  0  0  0  0  0  0  0
   17.3677   68.8805   -7.6264 H   0  0  0  0  0  0  0  0  0  0  0  0
   18.1899   69.2248   -5.8624 H   0  0  0  0  0  0  0  0  0  0  0  0
   17.5411   70.6408  -10.5267 H   0  0  0  0  0  0  0  0  0  0  0  0
   19.2171   75.2428   -9.0813 O   0  0  0  0  0  0  0  0  0  0  0  0
   17.3519   74.2891   -9.9815 O   0  0  0  0  0  0  0  0  0  0  0  0
   18.3780   74.2054   -9.3235 C   0  0  0  0  0  0  0  0  0  0  0  0
  1  4  1  0
  1 24  1  0
  1  2  1  6
  1  3  2  0
 25 28  1  0
 25 24  1  0
 25 26  1  1
 25 27  2  0
  6 11  1  0
  6 12  1  0
 29 36  1  0
 29 37  1  0
  9  7  1  1
  7 13  1  0
 10  8  1  1
  8 14  1  0
  4  5  1  0
 36 28  1  6
 33 30  1  1
 30 38  1  0
 34 31  1  1
 31 39  1  0
 35 32  1  6
 32 40  1  0
 41 43  1  0
 15 19  2  0
 42 43  2  0
 16 22  2  0
 12 17  1  6
 17 19  1  0
 17 20  1  0
 18 19  1  0
 18 22  1  0
 18 23  1  0
  9 10  1  0
  9 11  1  0
 10 12  1  0
 11  5  1  6
 33 34  1  0
 33 35  1  0
 34 36  1  0
 35 37  1  0
 37 43  1  6
 20 21  2  0
 21 22  1  0
M  CHG  3   2  -1  26  -1  41  -1
M  END
>  <COMPND>  (100) 
    udp_gluA.pdb 

>  <AUTHOR>  (100) 
    GENERATED BY OPEN BABEL 3.1.1

>  <MASTER>  (100) 
        0    0    0    0    0    0    0    0   56    0   56    0

>  <minimizedAffinity>  (100) 
-7.65033

>  <CNNscore>  (100) 
0.3727094829

>  <CNNaffinity>  (100) 
4.2802891731

>  <CNN_VS>  (100) 
1.5953043699

>  <CNNaffinity_variance>  (100) 
0.0363716185

$$$$
101
     RDKit          3D

 43 45  0  0  0  0  0  0  0  0999 V2000
   25.4774   73.7847   -4.1061 P   0  0  2  0  0  0  0  0  0  0  0  0
   25.6919   72.9543   -5.4784 O   0  0  0  0  0  0  0  0  0  0  0  0
   25.4315   75.2758   -4.2684 O   0  0  0  0  0  0  0  0  0  0  0  0
   26.6338   73.2199   -3.1254 O   0  0  0  0  0  0  0  0  0  0  0  0
   27.6945   72.4722   -3.6913 C   0  0  0  0  0  0  0  0  0  0  0  0
   27.7540   70.2182   -2.8584 O   0  0  0  0  0  0  0  0  0  0  0  0
   30.2546   71.0173   -1.4093 O   0  0  0  0  0  0  0  0  0  0  0  0
   31.2242   69.6664   -3.5704 O   0  0  0  0  0  0  0  0  0  0  0  0
   29.7873   71.4223   -2.6962 C   0  0  1  0  0  0  0  0  0  0  0  0
   29.9685   70.3004   -3.6965 C   0  0  2  0  0  0  0  0  0  0  0  0
   28.2714   71.5465   -2.6279 C   0  0  1  0  0  0  0  0  0  0  0  0
   28.8111   69.3793   -3.3505 C   0  0  2  0  0  0  0  0  0  0  0  0
   31.2209   70.9312   -1.4281 H   0  0  0  0  0  0  0  0  0  0  0  0
   31.9278   70.2937   -3.8018 H   0  0  0  0  0  0  0  0  0  0  0  0
   26.8150   67.3841   -3.2418 O   0  0  0  0  0  0  0  0  0  0  0  0
   27.0598   66.6346   -7.7829 O   0  0  0  0  0  0  0  0  0  0  0  0
   28.3342   68.6469   -4.4893 N   0  0  0  0  0  0  0  0  0  0  0  0
   26.9396   67.0120   -5.5035 N   0  0  0  0  0  0  0  0  0  0  0  0
   27.3284   67.6650   -4.3264 C   0  0  0  0  0  0  0  0  0  0  0  0
   28.8599   68.9046   -5.7495 C   0  0  0  0  0  0  0  0  0  0  0  0
   28.4791   68.2741   -6.8622 C   0  0  0  0  0  0  0  0  0  0  0  0
   27.4335   67.2333   -6.7789 C   0  0  0  0  0  0  0  0  0  0  0  0
   26.2421   66.3228   -5.4149 H   0  0  0  0  0  0  0  0  0  0  0  0
   24.1311   73.1324   -3.4938 O   0  0  0  0  0  0  0  0  0  0  0  0
   23.8742   71.7074   -2.7748 P   0  0  2  0  0  0  0  0  0  0  0  0
   24.3265   71.9785   -1.2443 O   0  0  0  0  0  0  0  0  0  0  0  0
   24.5730   70.5518   -3.4307 O   0  0  0  0  0  0  0  0  0  0  0  0
   22.2686   71.5672   -2.7061 O   0  0  0  0  0  0  0  0  0  0  0  0
   20.5548   73.1995   -2.7945 O   0  0  0  0  0  0  0  0  0  0  0  0
   18.9329   70.4171   -0.2069 O   0  0  0  0  0  0  0  0  0  0  0  0
   21.7502   71.1628   -0.0036 O   0  0  0  0  0  0  0  0  0  0  0  0
   17.9875   70.5829   -2.9509 O   0  0  0  0  0  0  0  0  0  0  0  0
   19.7244   70.8687   -1.3058 C   0  0  2  0  0  0  0  0  0  0  0  0
   20.7896   71.8433   -0.8028 C   0  0  2  0  0  0  0  0  0  0  0  0
   18.7954   71.5640   -2.3035 C   0  0  1  0  0  0  0  0  0  0  0  0
   21.5053   72.5224   -1.9714 C   0  0  1  0  0  0  0  0  0  0  0  0
   19.5861   72.3227   -3.3654 C   0  0  1  0  0  0  0  0  0  0  0  0
   19.5022   69.9718    0.4404 H   0  0  0  0  0  0  0  0  0  0  0  0
   21.3030   70.7293    0.7397 H   0  0  0  0  0  0  0  0  0  0  0  0
   17.4792   70.0927   -2.2860 H   0  0  0  0  0  0  0  0  0  0  0  0
   18.6162   72.8826   -5.4263 O   0  0  0  0  0  0  0  0  0  0  0  0
   18.1177   74.2166   -3.6456 O   0  0  0  0  0  0  0  0  0  0  0  0
   18.6973   73.2534   -4.1245 C   0  0  0  0  0  0  0  0  0  0  0  0
  1  4  1  0
  1 24  1  0
  1  2  1  6
  1  3  2  0
 25 28  1  0
 25 24  1  0
 25 26  1  1
 25 27  2  0
  6 11  1  0
  6 12  1  0
 29 36  1  0
 29 37  1  0
  9  7  1  1
  7 13  1  0
 10  8  1  1
  8 14  1  0
  4  5  1  0
 36 28  1  6
 33 30  1  1
 30 38  1  0
 34 31  1  6
 31 39  1  0
 35 32  1  6
 32 40  1  0
 41 43  1  0
 15 19  2  0
 42 43  2  0
 16 22  2  0
 12 17  1  6
 17 19  1  0
 17 20  1  0
 18 19  1  0
 18 22  1  0
 18 23  1  0
  9 10  1  0
  9 11  1  0
 10 12  1  0
 11  5  1  6
 33 34  1  0
 33 35  1  0
 34 36  1  0
 35 37  1  0
 37 43  1  1
 20 21  2  0
 21 22  1  0
M  CHG  3   2  -1  26  -1  41  -1
M  END
>  <COMPND>  (101) 
    udp_gluA.pdb 

>  <AUTHOR>  (101) 
    GENERATED BY OPEN BABEL 3.1.1

>  <MASTER>  (101) 
        0    0    0    0    0    0    0    0   56    0   56    0

>  <minimizedAffinity>  (101) 
-6.71550

>  <CNNscore>  (101) 
0.6851534247

>  <CNNaffinity>  (101) 
4.6348571777

>  <CNN_VS>  (101) 
3.1755883694

>  <CNNaffinity_variance>  (101) 
0.0365474448

$$$$
102
     RDKit          3D

 43 45  0  0  0  0  0  0  0  0999 V2000
   29.6864   73.9329   -2.2630 P   0  0  2  0  0  0  0  0  0  0  0  0
   28.7687   74.6538   -3.3841 O   0  0  0  0  0  0  0  0  0  0  0  0
   30.5147   74.8644   -1.4275 O   0  0  0  0  0  0  0  0  0  0  0  0
   30.5092   72.8151   -3.0945 O   0  0  0  0  0  0  0  0  0  0  0  0
   29.8114   71.6814   -3.5765 C   0  0  0  0  0  0  0  0  0  0  0  0
   28.7867   69.6433   -2.8189 O   0  0  0  0  0  0  0  0  0  0  0  0
   31.2500   69.2412   -1.1570 O   0  0  0  0  0  0  0  0  0  0  0  0
   31.6894   67.5908   -3.2828 O   0  0  0  0  0  0  0  0  0  0  0  0
   31.1224   69.8079   -2.4613 C   0  0  1  0  0  0  0  0  0  0  0  0
   30.8654   68.7202   -3.4825 C   0  0  2  0  0  0  0  0  0  0  0  0
   29.8224   70.5993   -2.5045 C   0  0  1  0  0  0  0  0  0  0  0  0
   29.3938   68.4175   -3.2573 C   0  0  2  0  0  0  0  0  0  0  0  0
   32.0736   68.7306   -1.1051 H   0  0  0  0  0  0  0  0  0  0  0  0
   32.6158   67.8349   -3.4383 H   0  0  0  0  0  0  0  0  0  0  0  0
   26.8057   67.2892   -3.3295 O   0  0  0  0  0  0  0  0  0  0  0  0
   26.9716   66.7461   -7.9035 O   0  0  0  0  0  0  0  0  0  0  0  0
   28.7365   67.9727   -4.4535 N   0  0  0  0  0  0  0  0  0  0  0  0
   26.8912   67.0189   -5.6074 N   0  0  0  0  0  0  0  0  0  0  0  0
   27.4359   67.4202   -4.3805 C   0  0  0  0  0  0  0  0  0  0  0  0
   29.3779   68.0870   -5.6809 C   0  0  0  0  0  0  0  0  0  0  0  0
   28.8459   67.7001   -6.8419 C   0  0  0  0  0  0  0  0  0  0  0  0
   27.4905   67.1117   -6.8531 C   0  0  0  0  0  0  0  0  0  0  0  0
   25.9874   66.6293   -5.5816 H   0  0  0  0  0  0  0  0  0  0  0  0
   28.6169   73.0522   -1.4302 O   0  0  0  0  0  0  0  0  0  0  0  0
   27.9113   73.3139    0.0006 P   0  0  2  0  0  0  0  0  0  0  0  0
   26.7054   72.2342    0.0213 O   0  0  0  0  0  0  0  0  0  0  0  0
   27.4745   74.7332    0.2214 O   0  0  0  0  0  0  0  0  0  0  0  0
   28.9700   72.7627    1.0860 O   0  0  0  0  0  0  0  0  0  0  0  0
   30.5455   70.9985    0.9650 O   0  0  0  0  0  0  0  0  0  0  0  0
   29.4139   70.8445    4.9354 O   0  0  0  0  0  0  0  0  0  0  0  0
   27.4195   71.2638    2.8424 O   0  0  0  0  0  0  0  0  0  0  0  0
   31.9845   71.9816    4.1938 O   0  0  0  0  0  0  0  0  0  0  0  0
   29.6866   71.4698    3.6814 C   0  0  2  0  0  0  0  0  0  0  0  0
   28.7703   70.8834    2.6072 C   0  0  2  0  0  0  0  0  0  0  0  0
   31.1530   71.2077    3.3311 C   0  0  1  0  0  0  0  0  0  0  0  0
   29.1862   71.3586    1.2143 C   0  0  1  0  0  0  0  0  0  0  0  0
   31.4579   71.5919    1.8862 C   0  0  1  0  0  0  0  0  0  0  0  0
   28.4873   70.9977    5.1787 H   0  0  0  0  0  0  0  0  0  0  0  0
   27.1490   70.9656    3.7247 H   0  0  0  0  0  0  0  0  0  0  0  0
   31.8002   71.7468    5.1167 H   0  0  0  0  0  0  0  0  0  0  0  0
   33.7639   71.9470    1.6455 O   0  0  0  0  0  0  0  0  0  0  0  0
   32.9512   69.9169    0.9995 O   0  0  0  0  0  0  0  0  0  0  0  0
   32.7768   71.0366    1.4566 C   0  0  0  0  0  0  0  0  0  0  0  0
  1  4  1  0
  1 24  1  0
  1  2  1  6
  1  3  2  0
 25 28  1  0
 25 24  1  0
 25 26  1  6
 25 27  2  0
  6 11  1  0
  6 12  1  0
 29 36  1  0
 29 37  1  0
  9  7  1  1
  7 13  1  0
 10  8  1  1
  8 14  1  0
  4  5  1  0
 36 28  1  1
 33 30  1  1
 30 38  1  0
 34 31  1  1
 31 39  1  0
 35 32  1  1
 32 40  1  0
 41 43  1  0
 15 19  2  0
 42 43  2  0
 16 22  2  0
 12 17  1  6
 17 19  1  0
 17 20  1  0
 18 19  1  0
 18 22  1  0
 18 23  1  0
  9 10  1  0
  9 11  1  0
 10 12  1  0
 11  5  1  6
 33 34  1  0
 33 35  1  0
 34 36  1  0
 35 37  1  0
 37 43  1  6
 20 21  2  0
 21 22  1  0
M  CHG  3   2  -1  26  -1  41  -1
M  END
>  <COMPND>  (102) 
    udp_gluA.pdb 

>  <AUTHOR>  (102) 
    GENERATED BY OPEN BABEL 3.1.1

>  <MASTER>  (102) 
        0    0    0    0    0    0    0    0   56    0   56    0

>  <minimizedAffinity>  (102) 
-7.25508

>  <CNNscore>  (102) 
0.6384479403

>  <CNNaffinity>  (102) 
4.4429526329

>  <CNN_VS>  (102) 
2.8365938663

>  <CNNaffinity_variance>  (102) 
0.0984624103

$$$$
103
     RDKit          3D

 43 45  0  0  0  0  0  0  0  0999 V2000
   26.9001   72.3822   -2.7066 P   0  0  2  0  0  0  0  0  0  0  0  0
   27.5398   73.8679   -2.6584 O   0  0  0  0  0  0  0  0  0  0  0  0
   26.7636   71.7076   -1.3731 O   0  0  0  0  0  0  0  0  0  0  0  0
   27.8065   71.6042   -3.7980 O   0  0  0  0  0  0  0  0  0  0  0  0
   29.2123   71.6007   -3.6304 C   0  0  0  0  0  0  0  0  0  0  0  0
   28.7292   69.3549   -2.9228 O   0  0  0  0  0  0  0  0  0  0  0  0
   31.4449   69.3695   -1.6516 O   0  0  0  0  0  0  0  0  0  0  0  0
   31.8723   67.9722   -3.9540 O   0  0  0  0  0  0  0  0  0  0  0  0
   31.0150   69.9737   -2.8717 C   0  0  1  0  0  0  0  0  0  0  0  0
   30.8238   68.9183   -3.9403 C   0  0  2  0  0  0  0  0  0  0  0  0
   29.5945   70.4827   -2.6689 C   0  0  1  0  0  0  0  0  0  0  0  0
   29.4901   68.3076   -3.5453 C   0  0  2  0  0  0  0  0  0  0  0  0
   32.3503   69.0365   -1.7567 H   0  0  0  0  0  0  0  0  0  0  0  0
   32.6994   68.4098   -4.2114 H   0  0  0  0  0  0  0  0  0  0  0  0
   26.8355   67.3500   -3.4326 O   0  0  0  0  0  0  0  0  0  0  0  0
   26.7871   66.4165   -7.9459 O   0  0  0  0  0  0  0  0  0  0  0  0
   28.7597   67.8085   -4.6759 N   0  0  0  0  0  0  0  0  0  0  0  0
   26.8143   66.8850   -5.6804 N   0  0  0  0  0  0  0  0  0  0  0  0
   27.4309   67.3508   -4.5117 C   0  0  0  0  0  0  0  0  0  0  0  0
   29.3583   67.7773   -5.9296 C   0  0  0  0  0  0  0  0  0  0  0  0
   28.7578   67.3305   -7.0344 C   0  0  0  0  0  0  0  0  0  0  0  0
   27.3688   66.8337   -6.9490 C   0  0  0  0  0  0  0  0  0  0  0  0
   25.8895   66.5593   -5.5906 H   0  0  0  0  0  0  0  0  0  0  0  0
   25.5054   72.6128   -3.4904 O   0  0  0  0  0  0  0  0  0  0  0  0
   25.0677   73.7329   -4.5709 P   0  0  2  0  0  0  0  0  0  0  0  0
   25.6910   73.1740   -5.9563 O   0  0  0  0  0  0  0  0  0  0  0  0
   25.4954   75.1283   -4.2188 O   0  0  0  0  0  0  0  0  0  0  0  0
   23.4742   73.5425   -4.7352 O   0  0  0  0  0  0  0  0  0  0  0  0
   23.0668   71.2170   -4.9224 O   0  0  0  0  0  0  0  0  0  0  0  0
   19.2394   72.7596   -5.1206 O   0  0  0  0  0  0  0  0  0  0  0  0
   21.4327   74.0512   -6.5543 O   0  0  0  0  0  0  0  0  0  0  0  0
   20.1734   71.4823   -2.6819 O   0  0  0  0  0  0  0  0  0  0  0  0
   20.6054   72.7116   -4.7085 C   0  0  2  0  0  0  0  0  0  0  0  0
   21.5130   72.7715   -5.9373 C   0  0  2  0  0  0  0  0  0  0  0  0
   20.8243   71.4015   -3.9485 C   0  0  1  0  0  0  0  0  0  0  0  0
   22.9678   72.4924   -5.5571 C   0  0  1  0  0  0  0  0  0  0  0  0
   22.3086   71.1327   -3.7178 C   0  0  1  0  0  0  0  0  0  0  0  0
   19.0766   73.5838   -5.6058 H   0  0  0  0  0  0  0  0  0  0  0  0
   20.5122   74.2350   -6.7980 H   0  0  0  0  0  0  0  0  0  0  0  0
   19.2279   71.6533   -2.8146 H   0  0  0  0  0  0  0  0  0  0  0  0
   23.8516   69.4169   -3.2974 O   0  0  0  0  0  0  0  0  0  0  0  0
   21.6487   68.9433   -2.9478 O   0  0  0  0  0  0  0  0  0  0  0  0
   22.5303   69.7215   -3.2799 C   0  0  0  0  0  0  0  0  0  0  0  0
  1  4  1  0
  1 24  1  0
  1  2  1  1
  1  3  2  0
 25 28  1  0
 25 24  1  0
 25 26  1  6
 25 27  2  0
  6 11  1  0
  6 12  1  0
 29 36  1  0
 29 37  1  0
  9  7  1  1
  7 13  1  0
 10  8  1  1
  8 14  1  0
  4  5  1  0
 36 28  1  1
 33 30  1  6
 30 38  1  0
 34 31  1  1
 31 39  1  0
 35 32  1  1
 32 40  1  0
 41 43  1  0
 15 19  2  0
 42 43  2  0
 16 22  2  0
 12 17  1  6
 17 19  1  0
 17 20  1  0
 18 19  1  0
 18 22  1  0
 18 23  1  0
  9 10  1  0
  9 11  1  0
 10 12  1  0
 11  5  1  6
 33 34  1  0
 33 35  1  0
 34 36  1  0
 35 37  1  0
 37 43  1  6
 20 21  2  0
 21 22  1  0
M  CHG  3   2  -1  26  -1  41  -1
M  END
>  <COMPND>  (103) 
    udp_gluA.pdb 

>  <AUTHOR>  (103) 
    GENERATED BY OPEN BABEL 3.1.1

>  <MASTER>  (103) 
        0    0    0    0    0    0    0    0   56    0   56    0

>  <minimizedAffinity>  (103) 
-7.78275

>  <CNNscore>  (103) 
0.5785030723

>  <CNNaffinity>  (103) 
4.6886000633

>  <CNN_VS>  (103) 
2.7123694420

>  <CNNaffinity_variance>  (103) 
0.2831435800

$$$$
104
     RDKit          3D

 43 45  0  0  0  0  0  0  0  0999 V2000
   24.5345   73.2045   -5.0456 P   0  0  2  0  0  0  0  0  0  0  0  0
   23.4938   72.2779   -5.8685 O   0  0  0  0  0  0  0  0  0  0  0  0
   25.2264   74.2576   -5.8605 O   0  0  0  0  0  0  0  0  0  0  0  0
   25.5025   72.1394   -4.3064 O   0  0  0  0  0  0  0  0  0  0  0  0
   26.8554   72.4942   -4.0869 C   0  0  0  0  0  0  0  0  0  0  0  0
   27.0456   70.3117   -3.0980 O   0  0  0  0  0  0  0  0  0  0  0  0
   29.2538   71.4645   -1.4288 O   0  0  0  0  0  0  0  0  0  0  0  0
   30.6152   70.1093   -3.3643 O   0  0  0  0  0  0  0  0  0  0  0  0
   28.9082   71.7414   -2.7861 C   0  0  1  0  0  0  0  0  0  0  0  0
   29.3256   70.5917   -3.6783 C   0  0  2  0  0  0  0  0  0  0  0  0
   27.3906   71.7002   -2.9022 C   0  0  1  0  0  0  0  0  0  0  0  0
   28.2361   69.5688   -3.4051 C   0  0  2  0  0  0  0  0  0  0  0  0
   30.2189   71.4853   -1.3298 H   0  0  0  0  0  0  0  0  0  0  0  0
   31.2730   70.7967   -3.5558 H   0  0  0  0  0  0  0  0  0  0  0  0
   26.4744   67.3614   -3.3836 O   0  0  0  0  0  0  0  0  0  0  0  0
   27.3331   66.4004   -7.8089 O   0  0  0  0  0  0  0  0  0  0  0  0
   27.9805   68.7246   -4.5377 N   0  0  0  0  0  0  0  0  0  0  0  0
   26.9045   66.8843   -5.5874 N   0  0  0  0  0  0  0  0  0  0  0  0
   27.0775   67.6415   -4.4213 C   0  0  0  0  0  0  0  0  0  0  0  0
   28.6190   68.9737   -5.7465 C   0  0  0  0  0  0  0  0  0  0  0  0
   28.4439   68.2432   -6.8495 C   0  0  0  0  0  0  0  0  0  0  0  0
   27.5175   67.0926   -6.8123 C   0  0  0  0  0  0  0  0  0  0  0  0
   26.2821   66.1236   -5.5302 H   0  0  0  0  0  0  0  0  0  0  0  0
   23.6310   73.7766   -3.8335 O   0  0  0  0  0  0  0  0  0  0  0  0
   22.7829   73.0117   -2.6892 P   0  0  2  0  0  0  0  0  0  0  0  0
   22.0700   74.2226   -1.8856 O   0  0  0  0  0  0  0  0  0  0  0  0
   23.6003   72.0940   -1.8268 O   0  0  0  0  0  0  0  0  0  0  0  0
   21.5809   72.2880   -3.4854 O   0  0  0  0  0  0  0  0  0  0  0  0
   20.3867   72.9944   -5.4048 O   0  0  0  0  0  0  0  0  0  0  0  0
   17.4956   70.8787   -3.3473 O   0  0  0  0  0  0  0  0  0  0  0  0
   19.3105   72.6729   -1.9256 O   0  0  0  0  0  0  0  0  0  0  0  0
   18.7729   69.7111   -5.6831 O   0  0  0  0  0  0  0  0  0  0  0  0
   18.8185   71.1919   -3.7831 C   0  0  2  0  0  0  0  0  0  0  0  0
   19.1806   72.6100   -3.3411 C   0  0  2  0  0  0  0  0  0  0  0  0
   18.8512   71.0853   -5.3094 C   0  0  1  0  0  0  0  0  0  0  0  0
   20.4925   73.0646   -3.9824 C   0  0  1  0  0  0  0  0  0  0  0  0
   20.1377   71.6738   -5.8814 C   0  0  1  0  0  0  0  0  0  0  0  0
   17.4507   70.9399   -2.3800 H   0  0  0  0  0  0  0  0  0  0  0  0
   18.4818   72.3855   -1.5122 H   0  0  0  0  0  0  0  0  0  0  0  0
   17.9585   69.3245   -5.3251 H   0  0  0  0  0  0  0  0  0  0  0  0
   18.7504   71.6412   -7.7724 O   0  0  0  0  0  0  0  0  0  0  0  0
   20.9405   72.1855   -8.0984 O   0  0  0  0  0  0  0  0  0  0  0  0
   20.0219   71.8665   -7.3585 C   0  0  0  0  0  0  0  0  0  0  0  0
  1  4  1  0
  1 24  1  0
  1  2  1  6
  1  3  2  0
 25 28  1  0
 25 24  1  0
 25 26  1  1
 25 27  2  0
  6 11  1  0
  6 12  1  0
 29 36  1  0
 29 37  1  0
  9  7  1  1
  7 13  1  0
 10  8  1  1
  8 14  1  0
  4  5  1  0
 36 28  1  1
 33 30  1  6
 30 38  1  0
 34 31  1  1
 31 39  1  0
 35 32  1  1
 32 40  1  0
 41 43  1  0
 15 19  2  0
 42 43  2  0
 16 22  2  0
 12 17  1  6
 17 19  1  0
 17 20  1  0
 18 19  1  0
 18 22  1  0
 18 23  1  0
  9 10  1  0
  9 11  1  0
 10 12  1  0
 11  5  1  6
 33 34  1  0
 33 35  1  0
 34 36  1  0
 35 37  1  0
 37 43  1  6
 20 21  2  0
 21 22  1  0
M  CHG  3   2  -1  26  -1  41  -1
M  END
>  <COMPND>  (104) 
    udp_gluA.pdb 

>  <AUTHOR>  (104) 
    GENERATED BY OPEN BABEL 3.1.1

>  <MASTER>  (104) 
        0    0    0    0    0    0    0    0   56    0   56    0

>  <minimizedAffinity>  (104) 
-7.05226

>  <CNNscore>  (104) 
0.5541030765

>  <CNNaffinity>  (104) 
4.3811659813

>  <CNN_VS>  (104) 
2.4276175499

>  <CNNaffinity_variance>  (104) 
0.1646765321

$$$$
105
     RDKit          3D

 43 45  0  0  0  0  0  0  0  0999 V2000
   26.9487   72.1258   -3.2572 P   0  0  2  0  0  0  0  0  0  0  0  0
   27.6865   73.3904   -2.5677 O   0  0  0  0  0  0  0  0  0  0  0  0
   26.1786   71.2496   -2.3131 O   0  0  0  0  0  0  0  0  0  0  0  0
   28.1275   71.3951   -4.0905 O   0  0  0  0  0  0  0  0  0  0  0  0
   29.4583   71.5094   -3.6210 C   0  0  0  0  0  0  0  0  0  0  0  0
   28.7998   69.3152   -2.8934 O   0  0  0  0  0  0  0  0  0  0  0  0
   31.4708   69.1658   -1.5388 O   0  0  0  0  0  0  0  0  0  0  0  0
   31.8690   67.7014   -3.8044 O   0  0  0  0  0  0  0  0  0  0  0  0
   31.1205   69.7762   -2.7811 C   0  0  1  0  0  0  0  0  0  0  0  0
   30.8887   68.7175   -3.8383 C   0  0  2  0  0  0  0  0  0  0  0  0
   29.7332   70.3853   -2.6305 C   0  0  1  0  0  0  0  0  0  0  0  0
   29.5047   68.2071   -3.4753 C   0  0  2  0  0  0  0  0  0  0  0  0
   32.3537   68.7696   -1.6105 H   0  0  0  0  0  0  0  0  0  0  0  0
   32.7318   68.0765   -4.0430 H   0  0  0  0  0  0  0  0  0  0  0  0
   26.8046   67.3807   -3.4178 O   0  0  0  0  0  0  0  0  0  0  0  0
   26.8091   66.4306   -7.9279 O   0  0  0  0  0  0  0  0  0  0  0  0
   28.7755   67.7392   -4.6200 N   0  0  0  0  0  0  0  0  0  0  0  0
   26.8097   66.9074   -5.6639 N   0  0  0  0  0  0  0  0  0  0  0  0
   27.4227   67.3477   -4.4835 C   0  0  0  0  0  0  0  0  0  0  0  0
   29.3991   67.6733   -5.8601 C   0  0  0  0  0  0  0  0  0  0  0  0
   28.8017   67.2515   -6.9763 C   0  0  0  0  0  0  0  0  0  0  0  0
   27.3886   66.8234   -6.9199 C   0  0  0  0  0  0  0  0  0  0  0  0
   25.8684   66.6276   -5.5935 H   0  0  0  0  0  0  0  0  0  0  0  0
   26.0568   72.8138   -4.4165 O   0  0  0  0  0  0  0  0  0  0  0  0
   24.5530   73.4067   -4.3877 P   0  0  2  0  0  0  0  0  0  0  0  0
   24.4015   74.1014   -5.8419 O   0  0  0  0  0  0  0  0  0  0  0  0
   24.2747   74.3239   -3.2322 O   0  0  0  0  0  0  0  0  0  0  0  0
   23.5995   72.1072   -4.4558 O   0  0  0  0  0  0  0  0  0  0  0  0
   21.6426   72.3549   -3.1448 O   0  0  0  0  0  0  0  0  0  0  0  0
   21.3653   68.4075   -4.3319 O   0  0  0  0  0  0  0  0  0  0  0  0
   23.9290   69.5222   -3.4838 O   0  0  0  0  0  0  0  0  0  0  0  0
   19.6922   70.4286   -5.5836 O   0  0  0  0  0  0  0  0  0  0  0  0
   21.7222   69.7840   -4.4573 C   0  0  2  0  0  0  0  0  0  0  0  0
   22.6729   70.1715   -3.3244 C   0  0  2  0  0  0  0  0  0  0  0  0
   20.4388   70.6141   -4.3825 C   0  0  1  0  0  0  0  0  0  0  0  0
   22.8951   71.6842   -3.2898 C   0  0  1  0  0  0  0  0  0  0  0  0
   20.7452   72.1005   -4.2232 C   0  0  1  0  0  0  0  0  0  0  0  0
   22.1653   67.8604   -4.3765 H   0  0  0  0  0  0  0  0  0  0  0  0
   23.7955   68.5620   -3.5068 H   0  0  0  0  0  0  0  0  0  0  0  0
   19.4908   69.4866   -5.6969 H   0  0  0  0  0  0  0  0  0  0  0  0
   19.6609   73.3759   -2.5803 O   0  0  0  0  0  0  0  0  0  0  0  0
   18.5223   72.9912   -4.5180 O   0  0  0  0  0  0  0  0  0  0  0  0
   19.5189   72.8551   -3.8243 C   0  0  0  0  0  0  0  0  0  0  0  0
  1  4  1  0
  1 24  1  0
  1  2  1  1
  1  3  2  0
 25 28  1  0
 25 24  1  0
 25 26  1  6
 25 27  2  0
  6 11  1  0
  6 12  1  0
 29 36  1  0
 29 37  1  0
  9  7  1  1
  7 13  1  0
 10  8  1  1
  8 14  1  0
  4  5  1  0
 36 28  1  6
 33 30  1  1
 30 38  1  0
 34 31  1  6
 31 39  1  0
 35 32  1  6
 32 40  1  0
 41 43  1  0
 15 19  2  0
 42 43  2  0
 16 22  2  0
 12 17  1  6
 17 19  1  0
 17 20  1  0
 18 19  1  0
 18 22  1  0
 18 23  1  0
  9 10  1  0
  9 11  1  0
 10 12  1  0
 11  5  1  6
 33 34  1  0
 33 35  1  0
 34 36  1  0
 35 37  1  0
 37 43  1  1
 20 21  2  0
 21 22  1  0
M  CHG  3   2  -1  26  -1  41  -1
M  END
>  <COMPND>  (105) 
    udp_gluA.pdb 

>  <AUTHOR>  (105) 
    GENERATED BY OPEN BABEL 3.1.1

>  <MASTER>  (105) 
        0    0    0    0    0    0    0    0   56    0   56    0

>  <minimizedAffinity>  (105) 
-7.92924

>  <CNNscore>  (105) 
0.5423437953

>  <CNNaffinity>  (105) 
4.5139226913

>  <CNN_VS>  (105) 
2.4480979443

>  <CNNaffinity_variance>  (105) 
0.3848860264

$$$$
106
     RDKit          3D

 43 45  0  0  0  0  0  0  0  0999 V2000
   26.0779   74.7363   -2.8344 P   0  0  2  0  0  0  0  0  0  0  0  0
   27.5926   74.5473   -3.3718 O   0  0  0  0  0  0  0  0  0  0  0  0
   25.3985   75.9963   -3.2846 O   0  0  0  0  0  0  0  0  0  0  0  0
   26.2066   74.5410   -1.2334 O   0  0  0  0  0  0  0  0  0  0  0  0
   25.1178   74.9281   -0.4153 C   0  0  0  0  0  0  0  0  0  0  0  0
   24.4000   72.6469   -0.1736 O   0  0  0  0  0  0  0  0  0  0  0  0
   21.6027   73.6944   -0.4373 O   0  0  0  0  0  0  0  0  0  0  0  0
   21.8514   73.3303    2.2537 O   0  0  0  0  0  0  0  0  0  0  0  0
   22.7337   74.2883    0.2004 C   0  0  1  0  0  0  0  0  0  0  0  0
   23.0245   73.5876    1.5106 C   0  0  2  0  0  0  0  0  0  0  0  0
   23.9688   73.9498   -0.6230 C   0  0  1  0  0  0  0  0  0  0  0  0
   23.7109   72.3158    1.0425 C   0  0  2  0  0  0  0  0  0  0  0  0
   20.8012   73.8970    0.0708 H   0  0  0  0  0  0  0  0  0  0  0  0
   21.4520   74.1710    2.5287 H   0  0  0  0  0  0  0  0  0  0  0  0
   23.0758   70.5656    3.1662 O   0  0  0  0  0  0  0  0  0  0  0  0
   27.4391   70.4882    4.6492 O   0  0  0  0  0  0  0  0  0  0  0  0
   24.6616   71.8225    1.9984 N   0  0  0  0  0  0  0  0  0  0  0  0
   25.2494   70.5295    3.9034 N   0  0  0  0  0  0  0  0  0  0  0  0
   24.2392   70.9476    3.0271 C   0  0  0  0  0  0  0  0  0  0  0  0
   25.9950   72.2037    1.9106 C   0  0  0  0  0  0  0  0  0  0  0  0
   26.9464   71.7968    2.7532 C   0  0  0  0  0  0  0  0  0  0  0  0
   26.5885   70.8819    3.8569 C   0  0  0  0  0  0  0  0  0  0  0  0
   24.9790   69.9216    4.6291 H   0  0  0  0  0  0  0  0  0  0  0  0
   25.3514   73.3728   -3.3096 O   0  0  0  0  0  0  0  0  0  0  0  0
   25.1563   72.7312   -4.7806 P   0  0  2  0  0  0  0  0  0  0  0  0
   26.2677   71.5550   -4.8215 O   0  0  0  0  0  0  0  0  0  0  0  0
   25.2627   73.7218   -5.9036 O   0  0  0  0  0  0  0  0  0  0  0  0
   23.7443   71.9547   -4.7044 O   0  0  0  0  0  0  0  0  0  0  0  0
   21.9753   72.3106   -3.1704 O   0  0  0  0  0  0  0  0  0  0  0  0
   21.5117   68.3059   -4.0737 O   0  0  0  0  0  0  0  0  0  0  0  0
   24.1733   69.4254   -3.6298 O   0  0  0  0  0  0  0  0  0  0  0  0
   19.7093   70.2783   -5.2191 O   0  0  0  0  0  0  0  0  0  0  0  0
   21.8618   69.6667   -4.3260 C   0  0  2  0  0  0  0  0  0  0  0  0
   22.9542   70.1036   -3.3497 C   0  0  2  0  0  0  0  0  0  0  0  0
   20.6063   70.5209   -4.1370 C   0  0  1  0  0  0  0  0  0  0  0  0
   23.1925   71.6119   -3.4345 C   0  0  1  0  0  0  0  0  0  0  0  0
   20.9439   72.0088   -4.1076 C   0  0  1  0  0  0  0  0  0  0  0  0
   22.2944   67.7440   -4.1878 H   0  0  0  0  0  0  0  0  0  0  0  0
   24.0294   68.4678   -3.5780 H   0  0  0  0  0  0  0  0  0  0  0  0
   19.4865   69.3347   -5.2491 H   0  0  0  0  0  0  0  0  0  0  0  0
   18.7576   72.7704   -4.4834 O   0  0  0  0  0  0  0  0  0  0  0  0
   19.7605   73.4068   -2.5371 O   0  0  0  0  0  0  0  0  0  0  0  0
   19.7862   72.8056   -3.6005 C   0  0  0  0  0  0  0  0  0  0  0  0
  1  4  1  0
  1 24  1  0
  1  2  1  6
  1  3  2  0
 25 28  1  0
 25 24  1  0
 25 26  1  6
 25 27  2  0
  6 11  1  0
  6 12  1  0
 29 36  1  0
 29 37  1  0
  9  7  1  6
  7 13  1  0
 10  8  1  6
  8 14  1  0
  4  5  1  0
 36 28  1  6
 33 30  1  1
 30 38  1  0
 34 31  1  6
 31 39  1  0
 35 32  1  6
 32 40  1  0
 41 43  1  0
 15 19  2  0
 42 43  2  0
 16 22  2  0
 12 17  1  1
 17 19  1  0
 17 20  1  0
 18 19  1  0
 18 22  1  0
 18 23  1  0
  9 10  1  0
  9 11  1  0
 10 12  1  0
 11  5  1  1
 33 34  1  0
 33 35  1  0
 34 36  1  0
 35 37  1  0
 37 43  1  1
 20 21  2  0
 21 22  1  0
M  CHG  3   2  -1  26  -1  41  -1
M  END
>  <COMPND>  (106) 
    udp_gluA.pdb 

>  <AUTHOR>  (106) 
    GENERATED BY OPEN BABEL 3.1.1

>  <MASTER>  (106) 
        0    0    0    0    0    0    0    0   56    0   56    0

>  <minimizedAffinity>  (106) 
-5.98221

>  <CNNscore>  (106) 
0.5290337801

>  <CNNaffinity>  (106) 
3.8346271515

>  <CNN_VS>  (106) 
2.0286471844

>  <CNNaffinity_variance>  (106) 
0.3396915495

$$$$
107
     RDKit          3D

 43 45  0  0  0  0  0  0  0  0999 V2000
   27.3382   72.9924   -2.3749 P   0  0  2  0  0  0  0  0  0  0  0  0
   27.4355   74.3171   -1.4504 O   0  0  0  0  0  0  0  0  0  0  0  0
   26.8512   71.7612   -1.6686 O   0  0  0  0  0  0  0  0  0  0  0  0
   28.8043   72.8814   -3.0502 O   0  0  0  0  0  0  0  0  0  0  0  0
   29.9397   73.1568   -2.2505 C   0  0  0  0  0  0  0  0  0  0  0  0
   31.7831   71.9060   -1.3478 O   0  0  0  0  0  0  0  0  0  0  0  0
   31.4662   70.0888   -3.7118 O   0  0  0  0  0  0  0  0  0  0  0  0
   30.2451   68.6884   -1.7158 O   0  0  0  0  0  0  0  0  0  0  0  0
   30.4652   70.7692   -2.9544 C   0  0  1  0  0  0  0  0  0  0  0  0
   30.2767   70.0964   -1.6112 C   0  0  2  0  0  0  0  0  0  0  0  0
   31.0218   72.1287   -2.5545 C   0  0  1  0  0  0  0  0  0  0  0  0
   31.4823   70.5983   -0.8351 C   0  0  2  0  0  0  0  0  0  0  0  0
   31.1334   69.2172   -3.9787 H   0  0  0  0  0  0  0  0  0  0  0  0
   29.4594   68.4190   -2.2179 H   0  0  0  0  0  0  0  0  0  0  0  0
   33.3268   69.8749    1.1776 O   0  0  0  0  0  0  0  0  0  0  0  0
   30.3869   71.0186    4.5380 O   0  0  0  0  0  0  0  0  0  0  0  0
   31.2249   70.6969    0.5737 N   0  0  0  0  0  0  0  0  0  0  0  0
   31.8604   70.4443    2.8493 N   0  0  0  0  0  0  0  0  0  0  0  0
   32.2191   70.3070    1.5019 C   0  0  0  0  0  0  0  0  0  0  0  0
   30.0006   71.1766    1.0231 C   0  0  0  0  0  0  0  0  0  0  0  0
   29.6733   71.3018    2.3108 C   0  0  0  0  0  0  0  0  0  0  0  0
   30.6555   70.9156    3.3449 C   0  0  0  0  0  0  0  0  0  0  0  0
   32.5356   70.1772    3.5142 H   0  0  0  0  0  0  0  0  0  0  0  0
   26.4073   73.4758   -3.6047 O   0  0  0  0  0  0  0  0  0  0  0  0
   25.6750   72.6355   -4.7758 P   0  0  2  0  0  0  0  0  0  0  0  0
   26.6788   71.3891   -5.0197 O   0  0  0  0  0  0  0  0  0  0  0  0
   25.3709   73.4351   -6.0095 O   0  0  0  0  0  0  0  0  0  0  0  0
   24.3820   71.9838   -4.0647 O   0  0  0  0  0  0  0  0  0  0  0  0
   22.1236   72.4269   -4.6237 O   0  0  0  0  0  0  0  0  0  0  0  0
   21.8022   71.2899   -0.6649 O   0  0  0  0  0  0  0  0  0  0  0  0
   23.9681   73.0495   -1.5291 O   0  0  0  0  0  0  0  0  0  0  0  0
   21.0205   69.4535   -2.7786 O   0  0  0  0  0  0  0  0  0  0  0  0
   22.3589   71.2906   -1.9795 C   0  0  2  0  0  0  0  0  0  0  0  0
   22.8449   72.6976   -2.3286 C   0  0  2  0  0  0  0  0  0  0  0  0
   21.2670   70.8472   -2.9557 C   0  0  1  0  0  0  0  0  0  0  0  0
   23.2351   72.7911   -3.8044 C   0  0  1  0  0  0  0  0  0  0  0  0
   21.6829   71.0888   -4.4039 C   0  0  1  0  0  0  0  0  0  0  0  0
   22.4781   71.5686   -0.0272 H   0  0  0  0  0  0  0  0  0  0  0  0
   23.7277   72.9921   -0.5914 H   0  0  0  0  0  0  0  0  0  0  0  0
   20.7550   69.2862   -1.8608 H   0  0  0  0  0  0  0  0  0  0  0  0
   20.7829   71.5253   -6.5255 O   0  0  0  0  0  0  0  0  0  0  0  0
   19.4463   70.4377   -5.0323 O   0  0  0  0  0  0  0  0  0  0  0  0
   20.5091   70.9673   -5.3202 C   0  0  0  0  0  0  0  0  0  0  0  0
  1  4  1  0
  1 24  1  0
  1  2  1  1
  1  3  2  0
 25 28  1  0
 25 24  1  0
 25 26  1  6
 25 27  2  0
  6 11  1  0
  6 12  1  0
 29 36  1  0
 29 37  1  0
  9  7  1  6
  7 13  1  0
 10  8  1  6
  8 14  1  0
  4  5  1  0
 36 28  1  1
 33 30  1  1
 30 38  1  0
 34 31  1  1
 31 39  1  0
 35 32  1  6
 32 40  1  0
 41 43  1  0
 15 19  2  0
 42 43  2  0
 16 22  2  0
 12 17  1  1
 17 19  1  0
 17 20  1  0
 18 19  1  0
 18 22  1  0
 18 23  1  0
  9 10  1  0
  9 11  1  0
 10 12  1  0
 11  5  1  1
 33 34  1  0
 33 35  1  0
 34 36  1  0
 35 37  1  0
 37 43  1  6
 20 21  2  0
 21 22  1  0
M  CHG  3   2  -1  26  -1  41  -1
M  END
>  <COMPND>  (107) 
    udp_gluA.pdb 

>  <AUTHOR>  (107) 
    GENERATED BY OPEN BABEL 3.1.1

>  <MASTER>  (107) 
        0    0    0    0    0    0    0    0   56    0   56    0

>  <minimizedAffinity>  (107) 
-6.48587

>  <CNNscore>  (107) 
0.4952462316

>  <CNNaffinity>  (107) 
4.0796327591

>  <CNN_VS>  (107) 
2.0204226971

>  <CNNaffinity_variance>  (107) 
0.0410157740

$$$$
108
     RDKit          3D

 43 45  0  0  0  0  0  0  0  0999 V2000
   29.5141   73.8341   -2.0328 P   0  0  2  0  0  0  0  0  0  0  0  0
   29.9485   75.3340   -2.4576 O   0  0  0  0  0  0  0  0  0  0  0  0
   29.7673   73.4842   -0.5957 O   0  0  0  0  0  0  0  0  0  0  0  0
   30.2485   72.8929   -3.1249 O   0  0  0  0  0  0  0  0  0  0  0  0
   29.5725   71.7372   -3.5852 C   0  0  0  0  0  0  0  0  0  0  0  0
   28.6835   69.6370   -2.8260 O   0  0  0  0  0  0  0  0  0  0  0  0
   31.1905   69.3747   -1.2021 O   0  0  0  0  0  0  0  0  0  0  0  0
   31.6973   67.7656   -3.3445 O   0  0  0  0  0  0  0  0  0  0  0  0
   31.0101   69.9400   -2.5007 C   0  0  1  0  0  0  0  0  0  0  0  0
   30.8040   68.8444   -3.5252 C   0  0  2  0  0  0  0  0  0  0  0  0
   29.6643   70.6518   -2.5203 C   0  0  1  0  0  0  0  0  0  0  0  0
   29.3567   68.4524   -3.2809 C   0  0  2  0  0  0  0  0  0  0  0  0
   32.0440   68.9144   -1.1652 H   0  0  0  0  0  0  0  0  0  0  0  0
   32.6050   68.0659   -3.5116 H   0  0  0  0  0  0  0  0  0  0  0  0
   26.7496   67.3689   -3.3535 O   0  0  0  0  0  0  0  0  0  0  0  0
   26.9765   66.6536   -7.9011 O   0  0  0  0  0  0  0  0  0  0  0  0
   28.7099   67.9754   -4.4704 N   0  0  0  0  0  0  0  0  0  0  0  0
   26.8654   67.0127   -5.6182 N   0  0  0  0  0  0  0  0  0  0  0  0
   27.3984   67.4494   -4.3982 C   0  0  0  0  0  0  0  0  0  0  0  0
   29.3724   68.0326   -5.6906 C   0  0  0  0  0  0  0  0  0  0  0  0
   28.8514   67.6126   -6.8451 C   0  0  0  0  0  0  0  0  0  0  0  0
   27.4857   67.0486   -6.8566 C   0  0  0  0  0  0  0  0  0  0  0  0
   25.9543   66.6407   -5.5928 H   0  0  0  0  0  0  0  0  0  0  0  0
   27.9620   73.7656   -2.4791 O   0  0  0  0  0  0  0  0  0  0  0  0
   26.8962   74.9389   -2.7970 P   0  0  2  0  0  0  0  0  0  0  0  0
   27.3779   75.4955   -4.2387 O   0  0  0  0  0  0  0  0  0  0  0  0
   26.8005   75.9898   -1.7290 O   0  0  0  0  0  0  0  0  0  0  0  0
   25.5138   74.1649   -3.1005 O   0  0  0  0  0  0  0  0  0  0  0  0
   24.7304   72.0228   -2.4625 O   0  0  0  0  0  0  0  0  0  0  0  0
   23.1165   72.4159   -6.2452 O   0  0  0  0  0  0  0  0  0  0  0  0
   25.8596   73.2663   -5.7099 O   0  0  0  0  0  0  0  0  0  0  0  0
   21.4302   72.7354   -3.8989 O   0  0  0  0  0  0  0  0  0  0  0  0
   23.5824   72.8679   -4.9738 C   0  0  2  0  0  0  0  0  0  0  0  0
   25.0591   72.5064   -4.8118 C   0  0  2  0  0  0  0  0  0  0  0  0
   22.7449   72.1821   -3.8921 C   0  0  1  0  0  0  0  0  0  0  0  0
   25.5323   72.7664   -3.3810 C   0  0  1  0  0  0  0  0  0  0  0  0
   23.3516   72.3835   -2.5065 C   0  0  1  0  0  0  0  0  0  0  0  0
   23.6343   72.8385   -6.9485 H   0  0  0  0  0  0  0  0  0  0  0  0
   25.5647   73.1063   -6.6197 H   0  0  0  0  0  0  0  0  0  0  0  0
   21.0328   72.6140   -4.7753 H   0  0  0  0  0  0  0  0  0  0  0  0
   21.8334   70.6376   -2.1214 O   0  0  0  0  0  0  0  0  0  0  0  0
   22.9899   71.4262   -0.3215 O   0  0  0  0  0  0  0  0  0  0  0  0
   22.7301   71.4545   -1.5151 C   0  0  0  0  0  0  0  0  0  0  0  0
  1  4  1  0
  1 24  1  0
  1  2  1  1
  1  3  2  0
 25 28  1  0
 25 24  1  0
 25 26  1  6
 25 27  2  0
  6 11  1  0
  6 12  1  0
 29 36  1  0
 29 37  1  0
  9  7  1  1
  7 13  1  0
 10  8  1  1
  8 14  1  0
  4  5  1  0
 36 28  1  1
 33 30  1  6
 30 38  1  0
 34 31  1  6
 31 39  1  0
 35 32  1  1
 32 40  1  0
 41 43  1  0
 15 19  2  0
 42 43  2  0
 16 22  2  0
 12 17  1  6
 17 19  1  0
 17 20  1  0
 18 19  1  0
 18 22  1  0
 18 23  1  0
  9 10  1  0
  9 11  1  0
 10 12  1  0
 11  5  1  6
 33 34  1  0
 33 35  1  0
 34 36  1  0
 35 37  1  0
 37 43  1  1
 20 21  2  0
 21 22  1  0
M  CHG  3   2  -1  26  -1  41  -1
M  END
>  <COMPND>  (108) 
    udp_gluA.pdb 

>  <AUTHOR>  (108) 
    GENERATED BY OPEN BABEL 3.1.1

>  <MASTER>  (108) 
        0    0    0    0    0    0    0    0   56    0   56    0

>  <minimizedAffinity>  (108) 
-7.64220

>  <CNNscore>  (108) 
0.4852602780

>  <CNNaffinity>  (108) 
4.2869443893

>  <CNN_VS>  (108) 
2.0802838802

>  <CNNaffinity_variance>  (108) 
0.5521550179

$$$$
109
     RDKit          3D

 43 45  0  0  0  0  0  0  0  0999 V2000
   24.7446   73.6893   -4.4504 P   0  0  2  0  0  0  0  0  0  0  0  0
   25.3075   73.3898   -5.9377 O   0  0  0  0  0  0  0  0  0  0  0  0
   25.0029   75.0776   -3.9427 O   0  0  0  0  0  0  0  0  0  0  0  0
   25.3559   72.4885   -3.5545 O   0  0  0  0  0  0  0  0  0  0  0  0
   26.5363   71.8461   -4.0000 C   0  0  0  0  0  0  0  0  0  0  0  0
   27.8377   70.1641   -2.8798 O   0  0  0  0  0  0  0  0  0  0  0  0
   29.1604   72.4247   -1.4199 O   0  0  0  0  0  0  0  0  0  0  0  0
   30.9973   71.7962   -3.3347 O   0  0  0  0  0  0  0  0  0  0  0  0
   28.7020   72.3668   -2.7708 C   0  0  1  0  0  0  0  0  0  0  0  0
   29.6391   71.5207   -3.6065 C   0  0  2  0  0  0  0  0  0  0  0  0
   27.4210   71.5442   -2.7973 C   0  0  1  0  0  0  0  0  0  0  0  0
   29.2361   70.1124   -3.2038 C   0  0  2  0  0  0  0  0  0  0  0  0
   29.9782   72.9453   -1.3776 H   0  0  0  0  0  0  0  0  0  0  0  0
   31.2042   72.7039   -3.6090 H   0  0  0  0  0  0  0  0  0  0  0  0
   31.0230   67.9293   -3.0696 O   0  0  0  0  0  0  0  0  0  0  0  0
   29.9200   66.5300   -7.3204 O   0  0  0  0  0  0  0  0  0  0  0  0
   29.4356   69.1619   -4.2611 N   0  0  0  0  0  0  0  0  0  0  0  0
   30.4727   67.2350   -5.1873 N   0  0  0  0  0  0  0  0  0  0  0  0
   30.3573   68.1017   -4.0924 C   0  0  0  0  0  0  0  0  0  0  0  0
   28.7221   69.2840   -5.4472 C   0  0  0  0  0  0  0  0  0  0  0  0
   28.8427   68.4500   -6.4819 C   0  0  0  0  0  0  0  0  0  0  0  0
   29.7852   67.3159   -6.3875 C   0  0  0  0  0  0  0  0  0  0  0  0
   31.1098   66.4902   -5.0942 H   0  0  0  0  0  0  0  0  0  0  0  0
   23.1813   73.2953   -4.5679 O   0  0  0  0  0  0  0  0  0  0  0  0
   22.3759   71.9864   -4.0662 P   0  0  2  0  0  0  0  0  0  0  0  0
   22.1124   72.2925   -2.4987 O   0  0  0  0  0  0  0  0  0  0  0  0
   23.0827   70.6889   -4.3326 O   0  0  0  0  0  0  0  0  0  0  0  0
   20.9226   72.1110   -4.7553 O   0  0  0  0  0  0  0  0  0  0  0  0
   19.1149   70.9760   -5.7816 O   0  0  0  0  0  0  0  0  0  0  0  0
   20.6226   73.1796   -8.9342 O   0  0  0  0  0  0  0  0  0  0  0  0
   22.4263   71.8252   -7.0777 O   0  0  0  0  0  0  0  0  0  0  0  0
   18.1702   74.0115   -7.6134 O   0  0  0  0  0  0  0  0  0  0  0  0
   20.3094   72.9039   -7.5690 C   0  0  2  0  0  0  0  0  0  0  0  0
   21.0189   71.6227   -7.1298 C   0  0  2  0  0  0  0  0  0  0  0  0
   18.7924   72.7377   -7.4560 C   0  0  1  0  0  0  0  0  0  0  0  0
   20.5294   71.1706   -5.7533 C   0  0  1  0  0  0  0  0  0  0  0  0
   18.3942   72.1646   -6.0990 C   0  0  1  0  0  0  0  0  0  0  0  0
   21.5818   73.2890   -9.0304 H   0  0  0  0  0  0  0  0  0  0  0  0
   22.7437   72.1125   -7.9478 H   0  0  0  0  0  0  0  0  0  0  0  0
   18.4157   74.3873   -8.4732 H   0  0  0  0  0  0  0  0  0  0  0  0
   16.1309   72.7488   -6.2932 O   0  0  0  0  0  0  0  0  0  0  0  0
   16.6128   70.5412   -5.9875 O   0  0  0  0  0  0  0  0  0  0  0  0
   16.9738   71.7016   -6.1147 C   0  0  0  0  0  0  0  0  0  0  0  0
  1  4  1  0
  1 24  1  0
  1  2  1  6
  1  3  2  0
 25 28  1  0
 25 24  1  0
 25 26  1  1
 25 27  2  0
  6 11  1  0
  6 12  1  0
 29 36  1  0
 29 37  1  0
  9  7  1  1
  7 13  1  0
 10  8  1  1
  8 14  1  0
  4  5  1  0
 36 28  1  1
 33 30  1  6
 30 38  1  0
 34 31  1  1
 31 39  1  0
 35 32  1  1
 32 40  1  0
 41 43  1  0
 15 19  2  0
 42 43  2  0
 16 22  2  0
 12 17  1  6
 17 19  1  0
 17 20  1  0
 18 19  1  0
 18 22  1  0
 18 23  1  0
  9 10  1  0
  9 11  1  0
 10 12  1  0
 11  5  1  6
 33 34  1  0
 33 35  1  0
 34 36  1  0
 35 37  1  0
 37 43  1  6
 20 21  2  0
 21 22  1  0
M  CHG  3   2  -1  26  -1  41  -1
M  END
>  <COMPND>  (109) 
    udp_gluA.pdb 

>  <AUTHOR>  (109) 
    GENERATED BY OPEN BABEL 3.1.1

>  <MASTER>  (109) 
        0    0    0    0    0    0    0    0   56    0   56    0

>  <minimizedAffinity>  (109) 
-7.00452

>  <CNNscore>  (109) 
0.4743393064

>  <CNNaffinity>  (109) 
4.3752012253

>  <CNN_VS>  (109) 
2.0753300190

>  <CNNaffinity_variance>  (109) 
0.0312636979

$$$$
110
     RDKit          3D

 43 45  0  0  0  0  0  0  0  0999 V2000
   24.2069   73.0886   -4.3370 P   0  0  2  0  0  0  0  0  0  0  0  0
   23.9479   72.9998   -5.9319 O   0  0  0  0  0  0  0  0  0  0  0  0
   23.5805   74.2713   -3.6583 O   0  0  0  0  0  0  0  0  0  0  0  0
   25.8144   72.9683   -4.1971 O   0  0  0  0  0  0  0  0  0  0  0  0
   26.4108   71.6910   -4.3283 C   0  0  0  0  0  0  0  0  0  0  0  0
   27.6156   69.9983   -3.1195 O   0  0  0  0  0  0  0  0  0  0  0  0
   28.8414   72.2474   -1.5605 O   0  0  0  0  0  0  0  0  0  0  0  0
   30.8103   71.6111   -3.3365 O   0  0  0  0  0  0  0  0  0  0  0  0
   28.4833   72.1952   -2.9417 C   0  0  1  0  0  0  0  0  0  0  0  0
   29.4741   71.3449   -3.7082 C   0  0  2  0  0  0  0  0  0  0  0  0
   27.2026   71.3810   -3.0645 C   0  0  1  0  0  0  0  0  0  0  0  0
   29.0338   69.9383   -3.3399 C   0  0  2  0  0  0  0  0  0  0  0  0
   29.6571   72.7627   -1.4569 H   0  0  0  0  0  0  0  0  0  0  0  0
   31.0425   72.5180   -3.5925 H   0  0  0  0  0  0  0  0  0  0  0  0
   30.9598   67.8804   -3.1611 O   0  0  0  0  0  0  0  0  0  0  0  0
   29.9878   66.3530   -7.3998 O   0  0  0  0  0  0  0  0  0  0  0  0
   29.3046   68.9888   -4.3819 N   0  0  0  0  0  0  0  0  0  0  0  0
   30.4746   67.1223   -5.2728 N   0  0  0  0  0  0  0  0  0  0  0  0
   30.2929   67.9943   -4.1913 C   0  0  0  0  0  0  0  0  0  0  0  0
   28.5947   69.0471   -5.5750 C   0  0  0  0  0  0  0  0  0  0  0  0
   28.7789   68.2088   -6.5969 C   0  0  0  0  0  0  0  0  0  0  0  0
   29.7935   67.1410   -6.4791 C   0  0  0  0  0  0  0  0  0  0  0  0
   31.1588   66.4227   -5.1643 H   0  0  0  0  0  0  0  0  0  0  0  0
   23.6874   71.6535   -3.8045 O   0  0  0  0  0  0  0  0  0  0  0  0
   22.5489   71.2717   -2.7221 P   0  0  2  0  0  0  0  0  0  0  0  0
   22.5434   69.6531   -2.7464 O   0  0  0  0  0  0  0  0  0  0  0  0
   21.2111   71.8987   -2.9883 O   0  0  0  0  0  0  0  0  0  0  0  0
   23.1959   71.6552   -1.2950 O   0  0  0  0  0  0  0  0  0  0  0  0
   22.6575   71.3640    0.9929 O   0  0  0  0  0  0  0  0  0  0  0  0
   23.8461   75.3197    0.9059 O   0  0  0  0  0  0  0  0  0  0  0  0
   22.1569   74.2340   -1.2159 O   0  0  0  0  0  0  0  0  0  0  0  0
   25.6162   73.2879    1.9964 O   0  0  0  0  0  0  0  0  0  0  0  0
   23.8451   73.9501    0.5032 C   0  0  2  0  0  0  0  0  0  0  0  0
   22.4523   73.5644    0.0043 C   0  0  2  0  0  0  0  0  0  0  0  0
   24.2303   73.1003    1.7161 C   0  0  1  0  0  0  0  0  0  0  0  0
   22.3497   72.0549   -0.2184 C   0  0  1  0  0  0  0  0  0  0  0  0
   23.9812   71.6169    1.4588 C   0  0  1  0  0  0  0  0  0  0  0  0
   23.6040   75.8791    0.1511 H   0  0  0  0  0  0  0  0  0  0  0  0
   22.2204   75.1923   -1.0820 H   0  0  0  0  0  0  0  0  0  0  0  0
   25.7883   74.2280    2.1619 H   0  0  0  0  0  0  0  0  0  0  0  0
   25.3131   70.4421    2.9909 O   0  0  0  0  0  0  0  0  0  0  0  0
   23.0852   70.5941    3.4519 O   0  0  0  0  0  0  0  0  0  0  0  0
   24.0425   70.8398    2.7334 C   0  0  0  0  0  0  0  0  0  0  0  0
  1  4  1  0
  1 24  1  0
  1  2  1  6
  1  3  2  0
 25 28  1  0
 25 24  1  0
 25 26  1  1
 25 27  2  0
  6 11  1  0
  6 12  1  0
 29 36  1  0
 29 37  1  0
  9  7  1  1
  7 13  1  0
 10  8  1  1
  8 14  1  0
  4  5  1  0
 36 28  1  6
 33 30  1  1
 30 38  1  0
 34 31  1  6
 31 39  1  0
 35 32  1  6
 32 40  1  0
 41 43  1  0
 15 19  2  0
 42 43  2  0
 16 22  2  0
 12 17  1  6
 17 19  1  0
 17 20  1  0
 18 19  1  0
 18 22  1  0
 18 23  1  0
  9 10  1  0
  9 11  1  0
 10 12  1  0
 11  5  1  6
 33 34  1  0
 33 35  1  0
 34 36  1  0
 35 37  1  0
 37 43  1  1
 20 21  2  0
 21 22  1  0
M  CHG  3   2  -1  26  -1  41  -1
M  END
>  <COMPND>  (110) 
    udp_gluA.pdb 

>  <AUTHOR>  (110) 
    GENERATED BY OPEN BABEL 3.1.1

>  <MASTER>  (110) 
        0    0    0    0    0    0    0    0   56    0   56    0

>  <minimizedAffinity>  (110) 
-7.18998

>  <CNNscore>  (110) 
0.4673678875

>  <CNNaffinity>  (110) 
4.3428950310

>  <CNN_VS>  (110) 
2.0297296047

>  <CNNaffinity_variance>  (110) 
0.0402054489

$$$$
111
     RDKit          3D

 43 45  0  0  0  0  0  0  0  0999 V2000
   22.7444   73.4732   -5.2870 P   0  0  2  0  0  0  0  0  0  0  0  0
   23.2297   74.9347   -5.7846 O   0  0  0  0  0  0  0  0  0  0  0  0
   22.1861   73.4310   -3.8948 O   0  0  0  0  0  0  0  0  0  0  0  0
   24.0268   72.5247   -5.5589 O   0  0  0  0  0  0  0  0  0  0  0  0
   25.2192   72.7769   -4.8384 C   0  0  0  0  0  0  0  0  0  0  0  0
   25.3016   70.6451   -3.7312 O   0  0  0  0  0  0  0  0  0  0  0  0
   25.8361   72.1826   -1.2129 O   0  0  0  0  0  0  0  0  0  0  0  0
   28.3208   71.3040   -1.9133 O   0  0  0  0  0  0  0  0  0  0  0  0
   26.2724   72.4514   -2.5456 C   0  0  1  0  0  0  0  0  0  0  0  0
   27.3707   71.4875   -2.9419 C   0  0  2  0  0  0  0  0  0  0  0  0
   25.1482   72.0615   -3.4955 C   0  0  1  0  0  0  0  0  0  0  0  0
   26.5858   70.2227   -3.2456 C   0  0  2  0  0  0  0  0  0  0  0  0
   26.5380   72.4238   -0.5877 H   0  0  0  0  0  0  0  0  0  0  0  0
   28.7939   72.1370   -1.7578 H   0  0  0  0  0  0  0  0  0  0  0  0
   26.4774   67.4014   -3.3149 O   0  0  0  0  0  0  0  0  0  0  0  0
   29.0551   67.2141   -7.1312 O   0  0  0  0  0  0  0  0  0  0  0  0
   27.2196   69.4115   -4.2461 N   0  0  0  0  0  0  0  0  0  0  0  0
   27.7622   67.3107   -5.2150 N   0  0  0  0  0  0  0  0  0  0  0  0
   27.1039   68.0024   -4.1897 C   0  0  0  0  0  0  0  0  0  0  0  0
   27.9440   70.0115   -5.2689 C   0  0  0  0  0  0  0  0  0  0  0  0
   28.5659   69.3390   -6.2393 C   0  0  0  0  0  0  0  0  0  0  0  0
   28.4951   67.8631   -6.2530 C   0  0  0  0  0  0  0  0  0  0  0  0
   27.6976   66.3285   -5.1957 H   0  0  0  0  0  0  0  0  0  0  0  0
   21.7076   73.0224   -6.4423 O   0  0  0  0  0  0  0  0  0  0  0  0
   21.2861   71.5561   -6.9769 P   0  0  2  0  0  0  0  0  0  0  0  0
   21.1977   70.6788   -5.6194 O   0  0  0  0  0  0  0  0  0  0  0  0
   22.2081   70.9920   -8.0189 O   0  0  0  0  0  0  0  0  0  0  0  0
   19.7544   71.7199   -7.4562 O   0  0  0  0  0  0  0  0  0  0  0  0
   18.1359   70.9245   -8.9915 O   0  0  0  0  0  0  0  0  0  0  0  0
   18.2790   74.9456   -9.9286 O   0  0  0  0  0  0  0  0  0  0  0  0
   20.7373   73.4627   -9.3883 O   0  0  0  0  0  0  0  0  0  0  0  0
   16.0420   73.8804   -8.4080 O   0  0  0  0  0  0  0  0  0  0  0  0
   18.3553   73.8026   -9.0769 C   0  0  2  0  0  0  0  0  0  0  0  0
   19.4582   72.8673   -9.5732 C   0  0  2  0  0  0  0  0  0  0  0  0
   16.9996   73.0937   -9.1140 C   0  0  1  0  0  0  0  0  0  0  0  0
   19.4185   71.5315   -8.8297 C   0  0  1  0  0  0  0  0  0  0  0  0
   17.0736   71.7154   -8.4633 C   0  0  1  0  0  0  0  0  0  0  0  0
   19.1296   75.4122   -9.9210 H   0  0  0  0  0  0  0  0  0  0  0  0
   20.7695   74.3109   -9.8572 H   0  0  0  0  0  0  0  0  0  0  0  0
   15.9854   74.7604   -8.8122 H   0  0  0  0  0  0  0  0  0  0  0  0
   14.8350   71.2270   -7.9615 O   0  0  0  0  0  0  0  0  0  0  0  0
   15.7903   70.0758   -9.6824 O   0  0  0  0  0  0  0  0  0  0  0  0
   15.8596   70.9083   -8.7907 C   0  0  0  0  0  0  0  0  0  0  0  0
  1  4  1  0
  1 24  1  0
  1  2  1  6
  1  3  2  0
 25 28  1  0
 25 24  1  0
 25 26  1  1
 25 27  2  0
  6 11  1  0
  6 12  1  0
 29 36  1  0
 29 37  1  0
  9  7  1  1
  7 13  1  0
 10  8  1  1
  8 14  1  0
  4  5  1  0
 36 28  1  1
 33 30  1  6
 30 38  1  0
 34 31  1  1
 31 39  1  0
 35 32  1  1
 32 40  1  0
 41 43  1  0
 15 19  2  0
 42 43  2  0
 16 22  2  0
 12 17  1  6
 17 19  1  0
 17 20  1  0
 18 19  1  0
 18 22  1  0
 18 23  1  0
  9 10  1  0
  9 11  1  0
 10 12  1  0
 11  5  1  6
 33 34  1  0
 33 35  1  0
 34 36  1  0
 35 37  1  0
 37 43  1  6
 20 21  2  0
 21 22  1  0
M  CHG  3   2  -1  26  -1  41  -1
M  END
>  <COMPND>  (111) 
    udp_gluA.pdb 

>  <AUTHOR>  (111) 
    GENERATED BY OPEN BABEL 3.1.1

>  <MASTER>  (111) 
        0    0    0    0    0    0    0    0   56    0   56    0

>  <minimizedAffinity>  (111) 
-7.65844

>  <CNNscore>  (111) 
0.4614295065

>  <CNNaffinity>  (111) 
4.3935155869

>  <CNN_VS>  (111) 
2.0272977352

>  <CNNaffinity_variance>  (111) 
0.0986094326

$$$$
112
     RDKit          3D

 43 45  0  0  0  0  0  0  0  0999 V2000
   23.8530   71.9128   -3.1914 P   0  0  2  0  0  0  0  0  0  0  0  0
   23.8325   71.6865   -1.5891 O   0  0  0  0  0  0  0  0  0  0  0  0
   23.8504   70.6546   -4.0091 O   0  0  0  0  0  0  0  0  0  0  0  0
   25.1114   72.9019   -3.4279 O   0  0  0  0  0  0  0  0  0  0  0  0
   26.2999   72.3642   -3.9784 C   0  0  0  0  0  0  0  0  0  0  0  0
   26.9814   70.2711   -3.0130 O   0  0  0  0  0  0  0  0  0  0  0  0
   29.1503   71.8226   -1.6417 O   0  0  0  0  0  0  0  0  0  0  0  0
   30.4720   70.6680   -3.7288 O   0  0  0  0  0  0  0  0  0  0  0  0
   28.5965   72.0025   -2.9454 C   0  0  1  0  0  0  0  0  0  0  0  0
   29.0900   70.9174   -3.8788 C   0  0  2  0  0  0  0  0  0  0  0  0
   27.1058   71.7025   -2.8680 C   0  0  1  0  0  0  0  0  0  0  0  0
   28.2338   69.7325   -3.4656 C   0  0  2  0  0  0  0  0  0  0  0  0
   30.1023   72.0087   -1.6660 H   0  0  0  0  0  0  0  0  0  0  0  0
   30.9738   71.4516   -4.0049 H   0  0  0  0  0  0  0  0  0  0  0  0
   26.5427   67.4757   -3.3121 O   0  0  0  0  0  0  0  0  0  0  0  0
   27.3633   66.3348   -7.7018 O   0  0  0  0  0  0  0  0  0  0  0  0
   27.9875   68.8286   -4.5534 N   0  0  0  0  0  0  0  0  0  0  0  0
   26.9538   66.9090   -5.4983 N   0  0  0  0  0  0  0  0  0  0  0  0
   27.1208   67.7250   -4.3716 C   0  0  0  0  0  0  0  0  0  0  0  0
   28.5993   69.0401   -5.7830 C   0  0  0  0  0  0  0  0  0  0  0  0
   28.4303   68.2536   -6.8477 C   0  0  0  0  0  0  0  0  0  0  0  0
   27.5411   67.0783   -6.7417 C   0  0  0  0  0  0  0  0  0  0  0  0
   26.3565   66.1331   -5.3955 H   0  0  0  0  0  0  0  0  0  0  0  0
   22.5804   72.8786   -3.4378 O   0  0  0  0  0  0  0  0  0  0  0  0
   20.9948   72.6065   -3.2783 P   0  0  2  0  0  0  0  0  0  0  0  0
   20.4096   74.0592   -2.8688 O   0  0  0  0  0  0  0  0  0  0  0  0
   20.6525   71.5078   -2.3141 O   0  0  0  0  0  0  0  0  0  0  0  0
   20.4675   72.3647   -4.7836 O   0  0  0  0  0  0  0  0  0  0  0  0
   19.5238   70.3669   -5.6363 O   0  0  0  0  0  0  0  0  0  0  0  0
   21.1038   72.0744   -9.0504 O   0  0  0  0  0  0  0  0  0  0  0  0
   22.6054   72.1120   -6.5448 O   0  0  0  0  0  0  0  0  0  0  0  0
   18.2378   72.1555   -8.5704 O   0  0  0  0  0  0  0  0  0  0  0  0
   20.5033   72.0666   -7.7553 C   0  0  2  0  0  0  0  0  0  0  0  0
   21.4249   71.3496   -6.7683 C   0  0  2  0  0  0  0  0  0  0  0  0
   19.1632   71.3351   -7.8598 C   0  0  1  0  0  0  0  0  0  0  0  0
   20.7203   71.1189   -5.4307 C   0  0  1  0  0  0  0  0  0  0  0  0
   18.5857   71.0305   -6.4806 C   0  0  1  0  0  0  0  0  0  0  0  0
   21.9571   72.5342   -9.0086 H   0  0  0  0  0  0  0  0  0  0  0  0
   23.0574   72.2624   -7.3894 H   0  0  0  0  0  0  0  0  0  0  0  0
   18.5934   72.3569   -9.4501 H   0  0  0  0  0  0  0  0  0  0  0  0
   17.3600   69.5683   -7.8447 O   0  0  0  0  0  0  0  0  0  0  0  0
   16.7462   69.7066   -5.6531 O   0  0  0  0  0  0  0  0  0  0  0  0
   17.4675   70.0446   -6.5796 C   0  0  0  0  0  0  0  0  0  0  0  0
  1  4  1  0
  1 24  1  0
  1  2  1  1
  1  3  2  0
 25 28  1  0
 25 24  1  0
 25 26  1  1
 25 27  2  0
  6 11  1  0
  6 12  1  0
 29 36  1  0
 29 37  1  0
  9  7  1  1
  7 13  1  0
 10  8  1  1
  8 14  1  0
  4  5  1  0
 36 28  1  6
 33 30  1  6
 30 38  1  0
 34 31  1  1
 31 39  1  0
 35 32  1  6
 32 40  1  0
 41 43  1  0
 15 19  2  0
 42 43  2  0
 16 22  2  0
 12 17  1  6
 17 19  1  0
 17 20  1  0
 18 19  1  0
 18 22  1  0
 18 23  1  0
  9 10  1  0
  9 11  1  0
 10 12  1  0
 11  5  1  6
 33 34  1  0
 33 35  1  0
 34 36  1  0
 35 37  1  0
 37 43  1  6
 20 21  2  0
 21 22  1  0
M  CHG  3   2  -1  26  -1  41  -1
M  END
>  <COMPND>  (112) 
    udp_gluA.pdb 

>  <AUTHOR>  (112) 
    GENERATED BY OPEN BABEL 3.1.1

>  <MASTER>  (112) 
        0    0    0    0    0    0    0    0   56    0   56    0

>  <minimizedAffinity>  (112) 
-7.24328

>  <CNNscore>  (112) 
0.4390729666

>  <CNNaffinity>  (112) 
4.2066001892

>  <CNN_VS>  (112) 
1.8470044136

>  <CNNaffinity_variance>  (112) 
0.2671668231

$$$$
113
     RDKit          3D

 43 45  0  0  0  0  0  0  0  0999 V2000
   25.7599   71.5589   -2.7798 P   0  0  2  0  0  0  0  0  0  0  0  0
   24.6400   71.9038   -1.6636 O   0  0  0  0  0  0  0  0  0  0  0  0
   25.3636   70.5032   -3.7699 O   0  0  0  0  0  0  0  0  0  0  0  0
   27.0892   71.2450   -1.9123 O   0  0  0  0  0  0  0  0  0  0  0  0
   28.1074   72.2270   -1.8562 C   0  0  0  0  0  0  0  0  0  0  0  0
   29.4195   70.2172   -1.7255 O   0  0  0  0  0  0  0  0  0  0  0  0
   31.6952   71.9793   -0.8842 O   0  0  0  0  0  0  0  0  0  0  0  0
   32.2412   71.5165   -3.5155 O   0  0  0  0  0  0  0  0  0  0  0  0
   30.6513   72.2381   -1.8232 C   0  0  1  0  0  0  0  0  0  0  0  0
   30.8921   71.4631   -3.1014 C   0  0  2  0  0  0  0  0  0  0  0  0
   29.3755   71.5954   -1.2964 C   0  0  1  0  0  0  0  0  0  0  0  0
   30.4563   70.0620   -2.7075 C   0  0  2  0  0  0  0  0  0  0  0  0
   32.5208   72.3803   -1.1992 H   0  0  0  0  0  0  0  0  0  0  0  0
   32.4698   72.4286   -3.7557 H   0  0  0  0  0  0  0  0  0  0  0  0
   31.3023   67.4626   -3.4171 O   0  0  0  0  0  0  0  0  0  0  0  0
   28.3997   67.2967   -6.9936 O   0  0  0  0  0  0  0  0  0  0  0  0
   29.9384   69.3163   -3.8195 N   0  0  0  0  0  0  0  0  0  0  0  0
   29.8565   67.3829   -5.1984 N   0  0  0  0  0  0  0  0  0  0  0  0
   30.4316   68.0180   -4.0898 C   0  0  0  0  0  0  0  0  0  0  0  0
   28.9525   69.8702   -4.6272 C   0  0  0  0  0  0  0  0  0  0  0  0
   28.4140   69.2525   -5.6803 C   0  0  0  0  0  0  0  0  0  0  0  0
   28.8744   67.8931   -6.0317 C   0  0  0  0  0  0  0  0  0  0  0  0
   30.1854   66.4788   -5.4076 H   0  0  0  0  0  0  0  0  0  0  0  0
   26.0824   73.0037   -3.4288 O   0  0  0  0  0  0  0  0  0  0  0  0
   25.2773   73.8788   -4.5242 P   0  0  2  0  0  0  0  0  0  0  0  0
   25.5616   73.0902   -5.9090 O   0  0  0  0  0  0  0  0  0  0  0  0
   25.6558   75.3314   -4.5508 O   0  0  0  0  0  0  0  0  0  0  0  0
   23.7205   73.5983   -4.2081 O   0  0  0  0  0  0  0  0  0  0  0  0
   22.4788   71.6120   -4.5572 O   0  0  0  0  0  0  0  0  0  0  0  0
   19.5683   74.5110   -4.9967 O   0  0  0  0  0  0  0  0  0  0  0  0
   22.2199   74.8856   -6.1644 O   0  0  0  0  0  0  0  0  0  0  0  0
   19.6961   72.9290   -2.5612 O   0  0  0  0  0  0  0  0  0  0  0  0
   20.7643   73.9340   -4.4726 C   0  0  2  0  0  0  0  0  0  0  0  0
   21.7444   73.6625   -5.6142 C   0  0  2  0  0  0  0  0  0  0  0  0
   20.3904   72.6270   -3.7700 C   0  0  1  0  0  0  0  0  0  0  0  0
   22.9372   72.8387   -5.1269 C   0  0  1  0  0  0  0  0  0  0  0  0
   21.6292   71.8040   -3.4283 C   0  0  1  0  0  0  0  0  0  0  0  0
   19.7813   75.3430   -5.4480 H   0  0  0  0  0  0  0  0  0  0  0  0
   21.4682   75.4136   -6.4753 H   0  0  0  0  0  0  0  0  0  0  0  0
   18.9054   73.4528   -2.7646 H   0  0  0  0  0  0  0  0  0  0  0  0
   21.7155   69.5230   -3.9678 O   0  0  0  0  0  0  0  0  0  0  0  0
   20.6148   70.0986   -2.0557 O   0  0  0  0  0  0  0  0  0  0  0  0
   21.2515   70.4084   -3.0515 C   0  0  0  0  0  0  0  0  0  0  0  0
  1  4  1  0
  1 24  1  0
  1  2  1  1
  1  3  2  0
 25 28  1  0
 25 24  1  0
 25 26  1  6
 25 27  2  0
  6 11  1  0
  6 12  1  0
 29 36  1  0
 29 37  1  0
  9  7  1  1
  7 13  1  0
 10  8  1  1
  8 14  1  0
  4  5  1  0
 36 28  1  1
 33 30  1  6
 30 38  1  0
 34 31  1  1
 31 39  1  0
 35 32  1  1
 32 40  1  0
 41 43  1  0
 15 19  2  0
 42 43  2  0
 16 22  2  0
 12 17  1  6
 17 19  1  0
 17 20  1  0
 18 19  1  0
 18 22  1  0
 18 23  1  0
  9 10  1  0
  9 11  1  0
 10 12  1  0
 11  5  1  6
 33 34  1  0
 33 35  1  0
 34 36  1  0
 35 37  1  0
 37 43  1  6
 20 21  2  0
 21 22  1  0
M  CHG  3   2  -1  26  -1  41  -1
M  END
>  <COMPND>  (113) 
    udp_gluA.pdb 

>  <AUTHOR>  (113) 
    GENERATED BY OPEN BABEL 3.1.1

>  <MASTER>  (113) 
        0    0    0    0    0    0    0    0   56    0   56    0

>  <minimizedAffinity>  (113) 
-6.50068

>  <CNNscore>  (113) 
0.4175463617

>  <CNNaffinity>  (113) 
4.3193879128

>  <CNN_VS>  (113) 
1.8035447598

>  <CNNaffinity_variance>  (113) 
0.0534733944

$$$$
114
     RDKit          3D

 43 45  0  0  0  0  0  0  0  0999 V2000
   24.0857   73.1632   -4.9600 P   0  0  2  0  0  0  0  0  0  0  0  0
   25.2737   73.4117   -6.0304 O   0  0  0  0  0  0  0  0  0  0  0  0
   23.6126   74.3930   -4.2419 O   0  0  0  0  0  0  0  0  0  0  0  0
   24.6523   71.9747   -4.0196 O   0  0  0  0  0  0  0  0  0  0  0  0
   25.8521   71.3259   -4.3992 C   0  0  0  0  0  0  0  0  0  0  0  0
   27.2027   69.7579   -3.1765 O   0  0  0  0  0  0  0  0  0  0  0  0
   28.3703   72.1391   -1.7771 O   0  0  0  0  0  0  0  0  0  0  0  0
   30.2895   71.5280   -3.6154 O   0  0  0  0  0  0  0  0  0  0  0  0
   27.9537   72.0041   -3.1360 C   0  0  1  0  0  0  0  0  0  0  0  0
   28.9548   71.1737   -3.9111 C   0  0  2  0  0  0  0  0  0  0  0  0
   26.7162   71.1175   -3.1622 C   0  0  1  0  0  0  0  0  0  0  0  0
   28.6106   69.7640   -3.4613 C   0  0  2  0  0  0  0  0  0  0  0  0
   29.1599   72.7016   -1.7349 H   0  0  0  0  0  0  0  0  0  0  0  0
   30.4590   72.4334   -3.9214 H   0  0  0  0  0  0  0  0  0  0  0  0
   31.1413   68.5866   -3.8925 O   0  0  0  0  0  0  0  0  0  0  0  0
   29.5539   66.0125   -7.3707 O   0  0  0  0  0  0  0  0  0  0  0  0
   28.8867   68.7833   -4.4727 N   0  0  0  0  0  0  0  0  0  0  0  0
   30.3485   67.3064   -5.6251 N   0  0  0  0  0  0  0  0  0  0  0  0
   30.1925   68.2550   -4.6058 C   0  0  0  0  0  0  0  0  0  0  0  0
   27.8708   68.3536   -5.3177 C   0  0  0  0  0  0  0  0  0  0  0  0
   28.0347   67.4486   -6.2846 C   0  0  0  0  0  0  0  0  0  0  0  0
   29.3689   66.8479   -6.4909 C   0  0  0  0  0  0  0  0  0  0  0  0
   31.2494   66.9258   -5.7384 H   0  0  0  0  0  0  0  0  0  0  0  0
   22.9526   72.4203   -5.8414 O   0  0  0  0  0  0  0  0  0  0  0  0
   21.6788   71.5286   -5.3988 P   0  0  2  0  0  0  0  0  0  0  0  0
   21.2392   72.1869   -3.9868 O   0  0  0  0  0  0  0  0  0  0  0  0
   21.9519   70.0537   -5.3351 O   0  0  0  0  0  0  0  0  0  0  0  0
   20.5081   71.9489   -6.4260 O   0  0  0  0  0  0  0  0  0  0  0  0
   20.1850   71.2881   -8.6773 O   0  0  0  0  0  0  0  0  0  0  0  0
   18.5770   75.0937   -8.6791 O   0  0  0  0  0  0  0  0  0  0  0  0
   21.0717   74.5408   -7.2629 O   0  0  0  0  0  0  0  0  0  0  0  0
   16.8290   72.7710   -8.6941 O   0  0  0  0  0  0  0  0  0  0  0  0
   18.9196   73.8240   -8.1236 C   0  0  2  0  0  0  0  0  0  0  0  0
   20.4369   73.6405   -8.1636 C   0  0  2  0  0  0  0  0  0  0  0  0
   18.2304   72.7416   -8.9575 C   0  0  1  0  0  0  0  0  0  0  0  0
   20.8248   72.2085   -7.7924 C   0  0  1  0  0  0  0  0  0  0  0  0
   18.7619   71.3525   -8.6160 C   0  0  1  0  0  0  0  0  0  0  0  0
   19.0038   75.7973   -8.1653 H   0  0  0  0  0  0  0  0  0  0  0  0
   20.8297   75.4514   -7.4924 H   0  0  0  0  0  0  0  0  0  0  0  0
   16.4783   73.6499   -8.9071 H   0  0  0  0  0  0  0  0  0  0  0  0
   19.2100   70.3328  -10.6803 O   0  0  0  0  0  0  0  0  0  0  0  0
   17.3416   69.6493   -9.5663 O   0  0  0  0  0  0  0  0  0  0  0  0
   18.3364   70.3545   -9.6432 C   0  0  0  0  0  0  0  0  0  0  0  0
  1  4  1  0
  1 24  1  0
  1  2  1  6
  1  3  2  0
 25 28  1  0
 25 24  1  0
 25 26  1  1
 25 27  2  0
  6 11  1  0
  6 12  1  0
 29 36  1  0
 29 37  1  0
  9  7  1  1
  7 13  1  0
 10  8  1  1
  8 14  1  0
  4  5  1  0
 36 28  1  1
 33 30  1  6
 30 38  1  0
 34 31  1  1
 31 39  1  0
 35 32  1  1
 32 40  1  0
 41 43  1  0
 15 19  2  0
 42 43  2  0
 16 22  2  0
 12 17  1  6
 17 19  1  0
 17 20  1  0
 18 19  1  0
 18 22  1  0
 18 23  1  0
  9 10  1  0
  9 11  1  0
 10 12  1  0
 11  5  1  6
 33 34  1  0
 33 35  1  0
 34 36  1  0
 35 37  1  0
 37 43  1  6
 20 21  2  0
 21 22  1  0
M  CHG  3   2  -1  26  -1  41  -1
M  END
>  <COMPND>  (114) 
    udp_gluA.pdb 

>  <AUTHOR>  (114) 
    GENERATED BY OPEN BABEL 3.1.1

>  <MASTER>  (114) 
        0    0    0    0    0    0    0    0   56    0   56    0

>  <minimizedAffinity>  (114) 
-7.50955

>  <CNNscore>  (114) 
0.4001864195

>  <CNNaffinity>  (114) 
4.2835731506

>  <CNN_VS>  (114) 
1.7142277956

>  <CNNaffinity_variance>  (114) 
0.0366103202

$$$$
115
     RDKit          3D

 43 45  0  0  0  0  0  0  0  0999 V2000
   24.5957   73.5999   -4.8301 P   0  0  2  0  0  0  0  0  0  0  0  0
   25.3505   73.8281   -6.2433 O   0  0  0  0  0  0  0  0  0  0  0  0
   23.7548   74.7534   -4.3675 O   0  0  0  0  0  0  0  0  0  0  0  0
   25.7804   73.1467   -3.8256 O   0  0  0  0  0  0  0  0  0  0  0  0
   26.3675   71.8708   -4.0046 C   0  0  0  0  0  0  0  0  0  0  0  0
   27.6611   70.1730   -2.8993 O   0  0  0  0  0  0  0  0  0  0  0  0
   28.9318   72.4082   -1.3563 O   0  0  0  0  0  0  0  0  0  0  0  0
   30.8140   71.8441   -3.2471 O   0  0  0  0  0  0  0  0  0  0  0  0
   28.5021   72.3799   -2.7176 C   0  0  1  0  0  0  0  0  0  0  0  0
   29.4643   71.5634   -3.5540 C   0  0  2  0  0  0  0  0  0  0  0  0
   27.2298   71.5469   -2.7914 C   0  0  1  0  0  0  0  0  0  0  0  0
   29.0664   70.1419   -3.1950 C   0  0  2  0  0  0  0  0  0  0  0  0
   29.7436   72.9349   -1.2840 H   0  0  0  0  0  0  0  0  0  0  0  0
   31.0180   72.7602   -3.4943 H   0  0  0  0  0  0  0  0  0  0  0  0
   30.9398   68.0300   -3.1121 O   0  0  0  0  0  0  0  0  0  0  0  0
   29.8659   66.6667   -7.3821 O   0  0  0  0  0  0  0  0  0  0  0  0
   29.2968   69.2200   -4.2710 N   0  0  0  0  0  0  0  0  0  0  0  0
   30.4039   67.3536   -5.2393 N   0  0  0  0  0  0  0  0  0  0  0  0
   30.2612   68.1945   -4.1277 C   0  0  0  0  0  0  0  0  0  0  0  0
   28.5713   69.3353   -5.4505 C   0  0  0  0  0  0  0  0  0  0  0  0
   28.7183   68.5262   -6.5014 C   0  0  0  0  0  0  0  0  0  0  0  0
   29.7060   67.4292   -6.4337 C   0  0  0  0  0  0  0  0  0  0  0  0
   31.0709   66.6334   -5.1639 H   0  0  0  0  0  0  0  0  0  0  0  0
   23.7794   72.2259   -5.0725 O   0  0  0  0  0  0  0  0  0  0  0  0
   22.2159   71.9618   -5.3881 P   0  0  2  0  0  0  0  0  0  0  0  0
   22.1856   70.4046   -5.8292 O   0  0  0  0  0  0  0  0  0  0  0  0
   21.6241   72.9022   -6.3977 O   0  0  0  0  0  0  0  0  0  0  0  0
   21.4966   71.9901   -3.9444 O   0  0  0  0  0  0  0  0  0  0  0  0
   22.4355   72.2999   -1.7923 O   0  0  0  0  0  0  0  0  0  0  0  0
   19.2556   69.7941   -0.9693 O   0  0  0  0  0  0  0  0  0  0  0  0
   20.9292   69.3397   -3.3203 O   0  0  0  0  0  0  0  0  0  0  0  0
   19.0929   72.6217   -0.3141 O   0  0  0  0  0  0  0  0  0  0  0  0
   19.9567   70.8242   -1.6661 C   0  0  2  0  0  0  0  0  0  0  0  0
   21.2380   70.2513   -2.2724 C   0  0  2  0  0  0  0  0  0  0  0  0
   20.2908   71.9306   -0.6630 C   0  0  1  0  0  0  0  0  0  0  0  0
   22.1264   71.3656   -2.8272 C   0  0  1  0  0  0  0  0  0  0  0  0
   21.2796   72.9341   -1.2494 C   0  0  1  0  0  0  0  0  0  0  0  0
   19.0327   69.0798   -1.5868 H   0  0  0  0  0  0  0  0  0  0  0  0
   20.3654   68.6301   -2.9753 H   0  0  0  0  0  0  0  0  0  0  0  0
   18.4550   71.9941    0.0603 H   0  0  0  0  0  0  0  0  0  0  0  0
   21.8506   73.1609    1.0142 O   0  0  0  0  0  0  0  0  0  0  0  0
   22.2580   74.9457   -0.3452 O   0  0  0  0  0  0  0  0  0  0  0  0
   21.8478   73.8069   -0.1781 C   0  0  0  0  0  0  0  0  0  0  0  0
  1  4  1  0
  1 24  1  0
  1  2  1  6
  1  3  2  0
 25 28  1  0
 25 24  1  0
 25 26  1  6
 25 27  2  0
  6 11  1  0
  6 12  1  0
 29 36  1  0
 29 37  1  0
  9  7  1  1
  7 13  1  0
 10  8  1  1
  8 14  1  0
  4  5  1  0
 36 28  1  6
 33 30  1  1
 30 38  1  0
 34 31  1  6
 31 39  1  0
 35 32  1  6
 32 40  1  0
 41 43  1  0
 15 19  2  0
 42 43  2  0
 16 22  2  0
 12 17  1  6
 17 19  1  0
 17 20  1  0
 18 19  1  0
 18 22  1  0
 18 23  1  0
  9 10  1  0
  9 11  1  0
 10 12  1  0
 11  5  1  6
 33 34  1  0
 33 35  1  0
 34 36  1  0
 35 37  1  0
 37 43  1  1
 20 21  2  0
 21 22  1  0
M  CHG  3   2  -1  26  -1  41  -1
M  END
>  <COMPND>  (115) 
    udp_gluA.pdb 

>  <AUTHOR>  (115) 
    GENERATED BY OPEN BABEL 3.1.1

>  <MASTER>  (115) 
        0    0    0    0    0    0    0    0   56    0   56    0

>  <minimizedAffinity>  (115) 
-7.23757

>  <CNNscore>  (115) 
0.3991441429

>  <CNNaffinity>  (115) 
4.2200441360

>  <CNN_VS>  (115) 
1.6844059229

>  <CNNaffinity_variance>  (115) 
0.0675825402

$$$$
116
     RDKit          3D

 43 45  0  0  0  0  0  0  0  0999 V2000
   22.4135   72.2481   -5.1019 P   0  0  2  0  0  0  0  0  0  0  0  0
   21.6559   70.8973   -4.6329 O   0  0  0  0  0  0  0  0  0  0  0  0
   21.8600   73.5179   -4.5248 O   0  0  0  0  0  0  0  0  0  0  0  0
   22.4144   72.1523   -6.7171 O   0  0  0  0  0  0  0  0  0  0  0  0
   21.4762   71.2973   -7.3441 C   0  0  0  0  0  0  0  0  0  0  0  0
   19.8116   71.2095   -9.0759 O   0  0  0  0  0  0  0  0  0  0  0  0
   20.3610   74.1274   -9.4947 O   0  0  0  0  0  0  0  0  0  0  0  0
   18.0580   74.1583   -8.0348 O   0  0  0  0  0  0  0  0  0  0  0  0
   20.3469   73.3757   -8.2810 C   0  0  1  0  0  0  0  0  0  0  0  0
   18.9229   73.0524   -7.8812 C   0  0  2  0  0  0  0  0  0  0  0  0
   20.9160   71.9948   -8.5770 C   0  0  1  0  0  0  0  0  0  0  0  0
   18.5830   71.9091   -8.8220 C   0  0  2  0  0  0  0  0  0  0  0  0
   20.0018   75.0138   -9.3306 H   0  0  0  0  0  0  0  0  0  0  0  0
   18.3154   74.8587   -7.4143 H   0  0  0  0  0  0  0  0  0  0  0  0
   16.3375   70.8821  -10.1930 O   0  0  0  0  0  0  0  0  0  0  0  0
   15.0095   68.4071   -6.5385 O   0  0  0  0  0  0  0  0  0  0  0  0
   17.6340   70.9946   -8.2527 N   0  0  0  0  0  0  0  0  0  0  0  0
   15.6777   69.6512   -8.3712 N   0  0  0  0  0  0  0  0  0  0  0  0
   16.5406   70.5393   -9.0267 C   0  0  0  0  0  0  0  0  0  0  0  0
   17.7920   70.5570   -6.9433 C   0  0  0  0  0  0  0  0  0  0  0  0
   16.9613   69.7102   -6.3321 C   0  0  0  0  0  0  0  0  0  0  0  0
   15.7929   69.1878   -7.0706 C   0  0  0  0  0  0  0  0  0  0  0  0
   14.9078   69.3220   -8.8892 H   0  0  0  0  0  0  0  0  0  0  0  0
   23.9556   71.9507   -4.7194 O   0  0  0  0  0  0  0  0  0  0  0  0
   25.2757   72.8767   -4.8360 P   0  0  2  0  0  0  0  0  0  0  0  0
   25.2839   73.6872   -3.4347 O   0  0  0  0  0  0  0  0  0  0  0  0
   25.3089   73.7509   -6.0561 O   0  0  0  0  0  0  0  0  0  0  0  0
   26.5107   71.8457   -4.7173 O   0  0  0  0  0  0  0  0  0  0  0  0
   26.6719   69.8579   -3.4397 O   0  0  0  0  0  0  0  0  0  0  0  0
   30.5989   71.1397   -3.4993 O   0  0  0  0  0  0  0  0  0  0  0  0
   28.4242   73.0482   -3.0960 O   0  0  0  0  0  0  0  0  0  0  0  0
   29.7631   68.9191   -5.1790 O   0  0  0  0  0  0  0  0  0  0  0  0
   29.2763   70.9679   -4.0084 C   0  0  2  0  0  0  0  0  0  0  0  0
   28.2743   71.6336   -3.0648 C   0  0  2  0  0  0  0  0  0  0  0  0
   28.9986   69.4662   -4.1063 C   0  0  1  0  0  0  0  0  0  0  0  0
   26.8383   71.2763   -3.4511 C   0  0  1  0  0  0  0  0  0  0  0  0
   27.5213   69.1888   -4.3692 C   0  0  1  0  0  0  0  0  0  0  0  0
   30.7978   72.0866   -3.4284 H   0  0  0  0  0  0  0  0  0  0  0  0
   29.3332   73.2821   -2.8522 H   0  0  0  0  0  0  0  0  0  0  0  0
   30.7054   69.0890   -5.0240 H   0  0  0  0  0  0  0  0  0  0  0  0
   27.6335   66.9892   -5.1759 O   0  0  0  0  0  0  0  0  0  0  0  0
   26.6349   67.3046   -3.1504 O   0  0  0  0  0  0  0  0  0  0  0  0
   27.2027   67.7476   -4.1375 C   0  0  0  0  0  0  0  0  0  0  0  0
  1  4  1  0
  1 24  1  0
  1  2  1  1
  1  3  2  0
 25 28  1  0
 25 24  1  0
 25 26  1  1
 25 27  2  0
  6 11  1  0
  6 12  1  0
 29 36  1  0
 29 37  1  0
  9  7  1  6
  7 13  1  0
 10  8  1  6
  8 14  1  0
  4  5  1  0
 36 28  1  6
 33 30  1  1
 30 38  1  0
 34 31  1  6
 31 39  1  0
 35 32  1  6
 32 40  1  0
 41 43  1  0
 15 19  2  0
 42 43  2  0
 16 22  2  0
 12 17  1  1
 17 19  1  0
 17 20  1  0
 18 19  1  0
 18 22  1  0
 18 23  1  0
  9 10  1  0
  9 11  1  0
 10 12  1  0
 11  5  1  1
 33 34  1  0
 33 35  1  0
 34 36  1  0
 35 37  1  0
 37 43  1  1
 20 21  2  0
 21 22  1  0
M  CHG  3   2  -1  26  -1  41  -1
M  END
>  <COMPND>  (116) 
    udp_gluA.pdb 

>  <AUTHOR>  (116) 
    GENERATED BY OPEN BABEL 3.1.1

>  <MASTER>  (116) 
        0    0    0    0    0    0    0    0   56    0   56    0

>  <minimizedAffinity>  (116) 
-7.75588

>  <CNNscore>  (116) 
0.3832442462

>  <CNNaffinity>  (116) 
4.1248197556

>  <CNN_VS>  (116) 
1.5808134079

>  <CNNaffinity_variance>  (116) 
0.0830989704

$$$$
117
     RDKit          3D

 43 45  0  0  0  0  0  0  0  0999 V2000
   26.7816   71.2323    2.8375 P   0  0  2  0  0  0  0  0  0  0  0  0
   26.5833   72.7694    3.3032 O   0  0  0  0  0  0  0  0  0  0  0  0
   25.5397   70.3912    2.8831 O   0  0  0  0  0  0  0  0  0  0  0  0
   28.0180   70.7091    3.7405 O   0  0  0  0  0  0  0  0  0  0  0  0
   28.6514   71.6247    4.6152 C   0  0  0  0  0  0  0  0  0  0  0  0
   30.5649   73.0597    4.8540 O   0  0  0  0  0  0  0  0  0  0  0  0
   31.9964   71.1409    3.0484 O   0  0  0  0  0  0  0  0  0  0  0  0
   32.9051   70.4260    5.5180 O   0  0  0  0  0  0  0  0  0  0  0  0
   31.0173   70.8768    4.0534 C   0  0  1  0  0  0  0  0  0  0  0  0
   31.6279   71.0225    5.4311 C   0  0  2  0  0  0  0  0  0  0  0  0
   30.0040   72.0131    4.0322 C   0  0  1  0  0  0  0  0  0  0  0  0
   31.6749   72.5318    5.5973 C   0  0  2  0  0  0  0  0  0  0  0  0
   32.6549   70.4282    3.0428 H   0  0  0  0  0  0  0  0  0  0  0  0
   32.8216   69.4655    5.4062 H   0  0  0  0  0  0  0  0  0  0  0  0
   33.8328   72.6857    7.4129 O   0  0  0  0  0  0  0  0  0  0  0  0
   31.0889   74.0955   10.8375 O   0  0  0  0  0  0  0  0  0  0  0  0
   31.5526   72.9361    6.9693 N   0  0  0  0  0  0  0  0  0  0  0  0
   32.4639   73.3867    9.1171 N   0  0  0  0  0  0  0  0  0  0  0  0
   32.6992   72.9794    7.7973 C   0  0  0  0  0  0  0  0  0  0  0  0
   30.3090   73.2858    7.4812 C   0  0  0  0  0  0  0  0  0  0  0  0
   30.1004   73.6722    8.7413 C   0  0  0  0  0  0  0  0  0  0  0  0
   31.2457   73.7436    9.6722 C   0  0  0  0  0  0  0  0  0  0  0  0
   33.2468   73.4227    9.7131 H   0  0  0  0  0  0  0  0  0  0  0  0
   27.4410   71.3802    1.3691 O   0  0  0  0  0  0  0  0  0  0  0  0
   26.9270   72.1575    0.0481 P   0  0  2  0  0  0  0  0  0  0  0  0
   27.6015   73.6217    0.1945 O   0  0  0  0  0  0  0  0  0  0  0  0
   25.4345   72.1775   -0.1129 O   0  0  0  0  0  0  0  0  0  0  0  0
   27.7226   71.4628   -1.1712 O   0  0  0  0  0  0  0  0  0  0  0  0
   30.0449   71.8660   -0.9396 O   0  0  0  0  0  0  0  0  0  0  0  0
   29.9029   69.7990   -4.5139 O   0  0  0  0  0  0  0  0  0  0  0  0
   27.9225   71.8619   -3.9165 O   0  0  0  0  0  0  0  0  0  0  0  0
   30.8113   68.4686   -2.0939 O   0  0  0  0  0  0  0  0  0  0  0  0
   29.4853   70.1521   -3.1952 C   0  0  2  0  0  0  0  0  0  0  0  0
   29.1044   71.6323   -3.1582 C   0  0  2  0  0  0  0  0  0  0  0  0
   30.6500   69.8781   -2.2410 C   0  0  1  0  0  0  0  0  0  0  0  0
   28.8732   72.1019   -1.7212 C   0  0  1  0  0  0  0  0  0  0  0  0
   30.3973   70.4864   -0.8645 C   0  0  1  0  0  0  0  0  0  0  0  0
   29.1787   69.9647   -5.1378 H   0  0  0  0  0  0  0  0  0  0  0  0
   28.0620   71.5659   -4.8294 H   0  0  0  0  0  0  0  0  0  0  0  0
   30.9726   68.0692   -2.9630 H   0  0  0  0  0  0  0  0  0  0  0  0
   31.7429   69.3896    0.7127 O   0  0  0  0  0  0  0  0  0  0  0  0
   32.4882   71.3954   -0.0750 O   0  0  0  0  0  0  0  0  0  0  0  0
   31.6523   70.5044   -0.0540 C   0  0  0  0  0  0  0  0  0  0  0  0
  1  4  1  0
  1 24  1  0
  1  2  1  1
  1  3  2  0
 25 28  1  0
 25 24  1  0
 25 26  1  1
 25 27  2  0
  6 11  1  0
  6 12  1  0
 29 36  1  0
 29 37  1  0
  9  7  1  6
  7 13  1  0
 10  8  1  6
  8 14  1  0
  4  5  1  0
 36 28  1  1
 33 30  1  6
 30 38  1  0
 34 31  1  6
 31 39  1  0
 35 32  1  1
 32 40  1  0
 41 43  1  0
 15 19  2  0
 42 43  2  0
 16 22  2  0
 12 17  1  1
 17 19  1  0
 17 20  1  0
 18 19  1  0
 18 22  1  0
 18 23  1  0
  9 10  1  0
  9 11  1  0
 10 12  1  0
 11  5  1  1
 33 34  1  0
 33 35  1  0
 34 36  1  0
 35 37  1  0
 37 43  1  1
 20 21  2  0
 21 22  1  0
M  CHG  3   2  -1  26  -1  41  -1
M  END
>  <COMPND>  (117) 
    udp_gluA.pdb 

>  <AUTHOR>  (117) 
    GENERATED BY OPEN BABEL 3.1.1

>  <MASTER>  (117) 
        0    0    0    0    0    0    0    0   56    0   56    0

>  <minimizedAffinity>  (117) 
-6.35236

>  <CNNscore>  (117) 
0.3712919652

>  <CNNaffinity>  (117) 
3.8016967773

>  <CNN_VS>  (117) 
1.4115394354

>  <CNNaffinity_variance>  (117) 
0.2752828002

$$$$
118
     RDKit          3D

 43 45  0  0  0  0  0  0  0  0999 V2000
   22.0946   73.2522   -5.5343 P   0  0  2  0  0  0  0  0  0  0  0  0
   22.6708   74.7555   -5.6987 O   0  0  0  0  0  0  0  0  0  0  0  0
   21.2981   73.0121   -4.2854 O   0  0  0  0  0  0  0  0  0  0  0  0
   23.3979   72.3132   -5.7279 O   0  0  0  0  0  0  0  0  0  0  0  0
   24.5397   72.5686   -4.9306 C   0  0  0  0  0  0  0  0  0  0  0  0
   24.8450   70.4232   -3.8905 O   0  0  0  0  0  0  0  0  0  0  0  0
   24.7914   71.8908   -1.2761 O   0  0  0  0  0  0  0  0  0  0  0  0
   27.4570   71.4721   -1.6698 O   0  0  0  0  0  0  0  0  0  0  0  0
   25.3384   72.2987   -2.5303 C   0  0  1  0  0  0  0  0  0  0  0  0
   26.6255   71.5515   -2.8086 C   0  0  2  0  0  0  0  0  0  0  0  0
   24.4245   71.7803   -3.6323 C   0  0  1  0  0  0  0  0  0  0  0  0
   26.1116   70.1928   -3.2532 C   0  0  2  0  0  0  0  0  0  0  0  0
   25.3584   72.2105   -0.5564 H   0  0  0  0  0  0  0  0  0  0  0  0
   27.7583   72.3622   -1.4268 H   0  0  0  0  0  0  0  0  0  0  0  0
   26.5557   67.4062   -3.3723 O   0  0  0  0  0  0  0  0  0  0  0  0
   29.5193   67.8439   -6.8751 O   0  0  0  0  0  0  0  0  0  0  0  0
   26.9941   69.5517   -4.1865 N   0  0  0  0  0  0  0  0  0  0  0  0
   28.0321   67.6270   -5.1161 N   0  0  0  0  0  0  0  0  0  0  0  0
   27.1460   68.1452   -4.1625 C   0  0  0  0  0  0  0  0  0  0  0  0
   27.6961   70.3135   -5.1128 C   0  0  0  0  0  0  0  0  0  0  0  0
   28.5371   69.8052   -6.0156 C   0  0  0  0  0  0  0  0  0  0  0  0
   28.7532   68.3441   -6.0570 C   0  0  0  0  0  0  0  0  0  0  0  0
   28.1558   66.6502   -5.1174 H   0  0  0  0  0  0  0  0  0  0  0  0
   21.2756   73.0251   -6.9092 O   0  0  0  0  0  0  0  0  0  0  0  0
   20.0730   73.8717   -7.5806 P   0  0  2  0  0  0  0  0  0  0  0  0
   20.7421   74.4550   -8.9343 O   0  0  0  0  0  0  0  0  0  0  0  0
   19.4810   74.9190   -6.6824 O   0  0  0  0  0  0  0  0  0  0  0  0
   19.0241   72.7578   -8.0921 O   0  0  0  0  0  0  0  0  0  0  0  0
   18.6709   70.5126   -7.4261 O   0  0  0  0  0  0  0  0  0  0  0  0
   17.8594   70.3267  -11.4727 O   0  0  0  0  0  0  0  0  0  0  0  0
   20.1305   71.8779  -10.4875 O   0  0  0  0  0  0  0  0  0  0  0  0
   15.6837   70.2906   -9.5450 O   0  0  0  0  0  0  0  0  0  0  0  0
   17.9169   70.9332  -10.1816 C   0  0  2  0  0  0  0  0  0  0  0  0
   19.3670   70.9726   -9.6987 C   0  0  2  0  0  0  0  0  0  0  0  0
   17.0608   70.0969   -9.2278 C   0  0  1  0  0  0  0  0  0  0  0  0
   19.4440   71.4018   -8.2329 C   0  0  1  0  0  0  0  0  0  0  0  0
   17.2883   70.5024   -7.7744 C   0  0  1  0  0  0  0  0  0  0  0  0
   18.3964   70.8410  -12.0959 H   0  0  0  0  0  0  0  0  0  0  0  0
   20.0858   71.6117  -11.4189 H   0  0  0  0  0  0  0  0  0  0  0  0
   15.5256   70.0364  -10.4676 H   0  0  0  0  0  0  0  0  0  0  0  0
   15.3869   69.6905   -6.6666 O   0  0  0  0  0  0  0  0  0  0  0  0
   17.3488   68.5837   -6.3127 O   0  0  0  0  0  0  0  0  0  0  0  0
   16.7154   69.4837   -6.8436 C   0  0  0  0  0  0  0  0  0  0  0  0
  1  4  1  0
  1 24  1  0
  1  2  1  1
  1  3  2  0
 25 28  1  0
 25 24  1  0
 25 26  1  6
 25 27  2  0
  6 11  1  0
  6 12  1  0
 29 36  1  0
 29 37  1  0
  9  7  1  1
  7 13  1  0
 10  8  1  1
  8 14  1  0
  4  5  1  0
 36 28  1  6
 33 30  1  6
 30 38  1  0
 34 31  1  6
 31 39  1  0
 35 32  1  6
 32 40  1  0
 41 43  1  0
 15 19  2  0
 42 43  2  0
 16 22  2  0
 12 17  1  6
 17 19  1  0
 17 20  1  0
 18 19  1  0
 18 22  1  0
 18 23  1  0
  9 10  1  0
  9 11  1  0
 10 12  1  0
 11  5  1  6
 33 34  1  0
 33 35  1  0
 34 36  1  0
 35 37  1  0
 37 43  1  1
 20 21  2  0
 21 22  1  0
M  CHG  3   2  -1  26  -1  41  -1
M  END
>  <COMPND>  (118) 
    udp_gluA.pdb 

>  <AUTHOR>  (118) 
    GENERATED BY OPEN BABEL 3.1.1

>  <MASTER>  (118) 
        0    0    0    0    0    0    0    0   56    0   56    0

>  <minimizedAffinity>  (118) 
-7.69480

>  <CNNscore>  (118) 
0.3595837653

>  <CNNaffinity>  (118) 
4.2818770409

>  <CNN_VS>  (118) 
1.5396934748

>  <CNNaffinity_variance>  (118) 
0.0919788852

$$$$
119
     RDKit          3D

 43 45  0  0  0  0  0  0  0  0999 V2000
   23.8960   70.7105   -3.0862 P   0  0  2  0  0  0  0  0  0  0  0  0
   22.8986   69.4361   -3.0894 O   0  0  0  0  0  0  0  0  0  0  0  0
   23.9687   71.4548   -1.7853 O   0  0  0  0  0  0  0  0  0  0  0  0
   23.4216   71.5783   -4.3667 O   0  0  0  0  0  0  0  0  0  0  0  0
   22.0428   71.8626   -4.5176 C   0  0  0  0  0  0  0  0  0  0  0  0
   20.4822   70.4568   -5.6863 O   0  0  0  0  0  0  0  0  0  0  0  0
   21.1571   72.0569   -8.1309 O   0  0  0  0  0  0  0  0  0  0  0  0
   18.7738   73.1310   -7.3549 O   0  0  0  0  0  0  0  0  0  0  0  0
   21.0446   72.4848   -6.7734 C   0  0  1  0  0  0  0  0  0  0  0  0
   19.5888   72.5447   -6.3617 C   0  0  2  0  0  0  0  0  0  0  0  0
   21.5817   71.3719   -5.8839 C   0  0  1  0  0  0  0  0  0  0  0  0
   19.2658   71.0784   -6.1307 C   0  0  2  0  0  0  0  0  0  0  0  0
   20.8199   72.7518   -8.7183 H   0  0  0  0  0  0  0  0  0  0  0  0
   19.0181   74.0639   -7.4645 H   0  0  0  0  0  0  0  0  0  0  0  0
   16.9381   69.5197   -6.4895 O   0  0  0  0  0  0  0  0  0  0  0  0
   15.4496   70.4311   -2.2237 O   0  0  0  0  0  0  0  0  0  0  0  0
   18.2534   70.8912   -5.1303 N   0  0  0  0  0  0  0  0  0  0  0  0
   16.1985   69.9759   -4.3649 N   0  0  0  0  0  0  0  0  0  0  0  0
   17.1226   70.0887   -5.4120 C   0  0  0  0  0  0  0  0  0  0  0  0
   18.3865   71.4972   -3.8869 C   0  0  0  0  0  0  0  0  0  0  0  0
   17.4974   71.3803   -2.8987 C   0  0  0  0  0  0  0  0  0  0  0  0
   16.2870   70.5599   -3.1116 C   0  0  0  0  0  0  0  0  0  0  0  0
   15.4019   69.4239   -4.5381 H   0  0  0  0  0  0  0  0  0  0  0  0
   25.2986   70.0748   -3.5776 O   0  0  0  0  0  0  0  0  0  0  0  0
   26.7318   70.7636   -3.8692 P   0  0  2  0  0  0  0  0  0  0  0  0
   27.4159   70.8289   -2.4035 O   0  0  0  0  0  0  0  0  0  0  0  0
   26.6471   72.0878   -4.5716 O   0  0  0  0  0  0  0  0  0  0  0  0
   27.5732   69.6381   -4.6615 O   0  0  0  0  0  0  0  0  0  0  0  0
   26.9466   67.4409   -5.2853 O   0  0  0  0  0  0  0  0  0  0  0  0
   31.0078   67.0116   -4.6605 O   0  0  0  0  0  0  0  0  0  0  0  0
   29.3873   68.6040   -2.8241 O   0  0  0  0  0  0  0  0  0  0  0  0
   29.9502   67.1105   -7.3666 O   0  0  0  0  0  0  0  0  0  0  0  0
   29.8119   67.6962   -5.0336 C   0  0  2  0  0  0  0  0  0  0  0  0
   28.8614   67.7547   -3.8375 C   0  0  2  0  0  0  0  0  0  0  0  0
   29.1672   66.9267   -6.1886 C   0  0  1  0  0  0  0  0  0  0  0  0
   27.4852   68.2730   -4.2571 C   0  0  1  0  0  0  0  0  0  0  0  0
   27.7494   67.4194   -6.4635 C   0  0  1  0  0  0  0  0  0  0  0  0
   31.4350   67.4825   -3.9277 H   0  0  0  0  0  0  0  0  0  0  0  0
   30.2606   68.2811   -2.5533 H   0  0  0  0  0  0  0  0  0  0  0  0
   30.8551   66.8010   -7.2049 H   0  0  0  0  0  0  0  0  0  0  0  0
   26.7215   65.3223   -6.6816 O   0  0  0  0  0  0  0  0  0  0  0  0
   26.7228   66.6759   -8.5165 O   0  0  0  0  0  0  0  0  0  0  0  0
   27.0185   66.4643   -7.3500 C   0  0  0  0  0  0  0  0  0  0  0  0
  1  4  1  0
  1 24  1  0
  1  2  1  1
  1  3  2  0
 25 28  1  0
 25 24  1  0
 25 26  1  1
 25 27  2  0
  6 11  1  0
  6 12  1  0
 29 36  1  0
 29 37  1  0
  9  7  1  6
  7 13  1  0
 10  8  1  6
  8 14  1  0
  4  5  1  0
 36 28  1  6
 33 30  1  1
 30 38  1  0
 34 31  1  1
 31 39  1  0
 35 32  1  6
 32 40  1  0
 41 43  1  0
 15 19  2  0
 42 43  2  0
 16 22  2  0
 12 17  1  1
 17 19  1  0
 17 20  1  0
 18 19  1  0
 18 22  1  0
 18 23  1  0
  9 10  1  0
  9 11  1  0
 10 12  1  0
 11  5  1  1
 33 34  1  0
 33 35  1  0
 34 36  1  0
 35 37  1  0
 37 43  1  6
 20 21  2  0
 21 22  1  0
M  CHG  3   2  -1  26  -1  41  -1
M  END
>  <COMPND>  (119) 
    udp_gluA.pdb 

>  <AUTHOR>  (119) 
    GENERATED BY OPEN BABEL 3.1.1

>  <MASTER>  (119) 
        0    0    0    0    0    0    0    0   56    0   56    0

>  <minimizedAffinity>  (119) 
-7.18055

>  <CNNscore>  (119) 
0.3330926001

>  <CNNaffinity>  (119) 
4.3724126816

>  <CNN_VS>  (119) 
1.4564182758

>  <CNNaffinity_variance>  (119) 
0.0825949088

$$$$
120
     RDKit          3D

 43 45  0  0  0  0  0  0  0  0999 V2000
   28.2925   72.1535    1.4879 P   0  0  2  0  0  0  0  0  0  0  0  0
   28.1551   72.9202    0.0694 O   0  0  0  0  0  0  0  0  0  0  0  0
   26.9909   71.8008    2.1461 O   0  0  0  0  0  0  0  0  0  0  0  0
   29.2805   73.1028    2.3486 O   0  0  0  0  0  0  0  0  0  0  0  0
   29.6013   72.7201    3.6734 C   0  0  0  0  0  0  0  0  0  0  0  0
   31.7414   72.7689    4.7667 O   0  0  0  0  0  0  0  0  0  0  0  0
   32.2565   70.1151    3.4692 O   0  0  0  0  0  0  0  0  0  0  0  0
   31.5804   69.4121    6.0157 O   0  0  0  0  0  0  0  0  0  0  0  0
   31.0375   70.6444    3.9911 C   0  0  1  0  0  0  0  0  0  0  0  0
   31.0621   70.6225    5.5048 C   0  0  2  0  0  0  0  0  0  0  0  0
   31.0086   72.1375    3.6945 C   0  0  1  0  0  0  0  0  0  0  0  0
   31.9448   71.8172    5.8232 C   0  0  2  0  0  0  0  0  0  0  0  0
   32.2978   69.1620    3.6467 H   0  0  0  0  0  0  0  0  0  0  0  0
   30.9827   68.6824    5.7870 H   0  0  0  0  0  0  0  0  0  0  0  0
   33.8306   72.8381    7.6611 O   0  0  0  0  0  0  0  0  0  0  0  0
   30.5299   74.1494   10.5988 O   0  0  0  0  0  0  0  0  0  0  0  0
   31.6057   72.4307    7.0760 N   0  0  0  0  0  0  0  0  0  0  0  0
   32.1849   73.4893    9.1229 N   0  0  0  0  0  0  0  0  0  0  0  0
   32.6293   72.9107    7.9268 C   0  0  0  0  0  0  0  0  0  0  0  0
   30.2730   72.5534    7.4499 C   0  0  0  0  0  0  0  0  0  0  0  0
   29.8649   73.1074    8.5933 C   0  0  0  0  0  0  0  0  0  0  0  0
   30.8712   73.6333    9.5388 C   0  0  0  0  0  0  0  0  0  0  0  0
   32.8795   73.8289    9.7325 H   0  0  0  0  0  0  0  0  0  0  0  0
   29.2293   70.8868    1.1266 O   0  0  0  0  0  0  0  0  0  0  0  0
   30.4960   70.7532    0.1310 P   0  0  2  0  0  0  0  0  0  0  0  0
   31.2599   69.4355    0.6791 O   0  0  0  0  0  0  0  0  0  0  0  0
   31.3558   71.9818    0.0601 O   0  0  0  0  0  0  0  0  0  0  0  0
   29.8610   70.2980   -1.2805 O   0  0  0  0  0  0  0  0  0  0  0  0
   31.0949   69.4636   -3.1218 O   0  0  0  0  0  0  0  0  0  0  0  0
   27.7320   70.9806   -4.9814 O   0  0  0  0  0  0  0  0  0  0  0  0
   29.0213   72.4593   -2.8167 O   0  0  0  0  0  0  0  0  0  0  0  0
   28.0381   68.1107   -4.6343 O   0  0  0  0  0  0  0  0  0  0  0  0
   28.4739   70.3715   -3.9247 C   0  0  2  0  0  0  0  0  0  0  0  0
   29.5796   71.3208   -3.4624 C   0  0  2  0  0  0  0  0  0  0  0  0
   29.0780   69.0711   -4.4595 C   0  0  1  0  0  0  0  0  0  0  0  0
   30.5348   70.6188   -2.4961 C   0  0  1  0  0  0  0  0  0  0  0  0
   30.1128   68.4995   -3.4947 C   0  0  1  0  0  0  0  0  0  0  0  0
   27.3388   71.8091   -4.6648 H   0  0  0  0  0  0  0  0  0  0  0  0
   28.4140   72.9094   -3.4240 H   0  0  0  0  0  0  0  0  0  0  0  0
   27.3727   68.4623   -5.2462 H   0  0  0  0  0  0  0  0  0  0  0  0
   30.6087   67.3406   -5.4727 O   0  0  0  0  0  0  0  0  0  0  0  0
   31.7592   66.7387   -3.5983 O   0  0  0  0  0  0  0  0  0  0  0  0
   30.9237   67.4336   -4.1570 C   0  0  0  0  0  0  0  0  0  0  0  0
  1  4  1  0
  1 24  1  0
  1  2  1  6
  1  3  2  0
 25 28  1  0
 25 24  1  0
 25 26  1  1
 25 27  2  0
  6 11  1  0
  6 12  1  0
 29 36  1  0
 29 37  1  0
  9  7  1  6
  7 13  1  0
 10  8  1  6
  8 14  1  0
  4  5  1  0
 36 28  1  1
 33 30  1  6
 30 38  1  0
 34 31  1  1
 31 39  1  0
 35 32  1  1
 32 40  1  0
 41 43  1  0
 15 19  2  0
 42 43  2  0
 16 22  2  0
 12 17  1  1
 17 19  1  0
 17 20  1  0
 18 19  1  0
 18 22  1  0
 18 23  1  0
  9 10  1  0
  9 11  1  0
 10 12  1  0
 11  5  1  1
 33 34  1  0
 33 35  1  0
 34 36  1  0
 35 37  1  0
 37 43  1  6
 20 21  2  0
 21 22  1  0
M  CHG  3   2  -1  26  -1  41  -1
M  END
>  <COMPND>  (120) 
    udp_gluA.pdb 

>  <AUTHOR>  (120) 
    GENERATED BY OPEN BABEL 3.1.1

>  <MASTER>  (120) 
        0    0    0    0    0    0    0    0   56    0   56    0

>  <minimizedAffinity>  (120) 
-6.77891

>  <CNNscore>  (120) 
0.3249260485

>  <CNNaffinity>  (120) 
3.8278687000

>  <CNN_VS>  (120) 
1.2437742949

>  <CNNaffinity_variance>  (120) 
0.0798035786

$$$$
121
     RDKit          3D

 43 45  0  0  0  0  0  0  0  0999 V2000
   23.9149   73.6168   -4.7396 P   0  0  2  0  0  0  0  0  0  0  0  0
   25.0274   73.3727   -5.8892 O   0  0  0  0  0  0  0  0  0  0  0  0
   23.9540   74.9726   -4.0977 O   0  0  0  0  0  0  0  0  0  0  0  0
   24.1079   72.3599   -3.7391 O   0  0  0  0  0  0  0  0  0  0  0  0
   24.2700   72.6153   -2.3560 C   0  0  0  0  0  0  0  0  0  0  0  0
   23.1960   71.3702   -0.6028 O   0  0  0  0  0  0  0  0  0  0  0  0
   20.9727   73.3729   -0.7965 O   0  0  0  0  0  0  0  0  0  0  0  0
   22.3522   74.2243    1.3963 O   0  0  0  0  0  0  0  0  0  0  0  0
   22.3794   73.5673   -0.9446 C   0  0  1  0  0  0  0  0  0  0  0  0
   23.0615   73.5099    0.4058 C   0  0  2  0  0  0  0  0  0  0  0  0
   22.9520   72.3415   -1.6431 C   0  0  1  0  0  0  0  0  0  0  0  0
   23.0992   72.0156    0.6769 C   0  0  2  0  0  0  0  0  0  0  0  0
   20.5845   74.1435   -0.3525 H   0  0  0  0  0  0  0  0  0  0  0  0
   22.3572   75.1702    1.1785 H   0  0  0  0  0  0  0  0  0  0  0  0
   22.9135   70.6063    3.1174 O   0  0  0  0  0  0  0  0  0  0  0  0
   27.4892   70.5988    3.6716 O   0  0  0  0  0  0  0  0  0  0  0  0
   24.2261   71.6325    1.4795 N   0  0  0  0  0  0  0  0  0  0  0  0
   25.1926   70.6048    3.3916 N   0  0  0  0  0  0  0  0  0  0  0  0
   24.0239   70.9267    2.6891 C   0  0  0  0  0  0  0  0  0  0  0  0
   25.5133   71.9539    1.0662 C   0  0  0  0  0  0  0  0  0  0  0  0
   26.6176   71.6401    1.7465 C   0  0  0  0  0  0  0  0  0  0  0  0
   26.4939   70.9034    3.0213 C   0  0  0  0  0  0  0  0  0  0  0  0
   25.0770   70.1152    4.2379 H   0  0  0  0  0  0  0  0  0  0  0  0
   22.5292   73.2696   -5.4960 O   0  0  0  0  0  0  0  0  0  0  0  0
   21.0214   73.7951   -5.2432 P   0  0  2  0  0  0  0  0  0  0  0  0
   21.1280   75.3825   -5.5413 O   0  0  0  0  0  0  0  0  0  0  0  0
   20.4701   73.4559   -3.8885 O   0  0  0  0  0  0  0  0  0  0  0  0
   20.1695   73.2049   -6.4795 O   0  0  0  0  0  0  0  0  0  0  0  0
   18.5493   71.4844   -6.6339 O   0  0  0  0  0  0  0  0  0  0  0  0
   20.5743   71.0553  -10.2092 O   0  0  0  0  0  0  0  0  0  0  0  0
   22.0356   71.5661   -7.7317 O   0  0  0  0  0  0  0  0  0  0  0  0
   17.9427   72.2895  -10.1618 O   0  0  0  0  0  0  0  0  0  0  0  0
   20.0371   71.7645   -9.0928 C   0  0  2  0  0  0  0  0  0  0  0  0
   20.6550   71.2290   -7.8009 C   0  0  2  0  0  0  0  0  0  0  0  0
   18.5212   71.5552   -9.0845 C   0  0  1  0  0  0  0  0  0  0  0  0
   19.9408   71.8002   -6.5751 C   0  0  1  0  0  0  0  0  0  0  0  0
   17.8995   72.0365   -7.7767 C   0  0  1  0  0  0  0  0  0  0  0  0
   21.5369   71.1738  -10.2350 H   0  0  0  0  0  0  0  0  0  0  0  0
   22.4949   71.2070   -8.5066 H   0  0  0  0  0  0  0  0  0  0  0  0
   18.3300   71.9928  -11.0001 H   0  0  0  0  0  0  0  0  0  0  0  0
   16.2432   70.5701   -8.5563 O   0  0  0  0  0  0  0  0  0  0  0  0
   15.6880   71.9363   -6.8173 O   0  0  0  0  0  0  0  0  0  0  0  0
   16.4981   71.5366   -7.6400 C   0  0  0  0  0  0  0  0  0  0  0  0
  1  4  1  0
  1 24  1  0
  1  2  1  6
  1  3  2  0
 25 28  1  0
 25 24  1  0
 25 26  1  6
 25 27  2  0
  6 11  1  0
  6 12  1  0
 29 36  1  0
 29 37  1  0
  9  7  1  1
  7 13  1  0
 10  8  1  1
  8 14  1  0
  4  5  1  0
 36 28  1  6
 33 30  1  6
 30 38  1  0
 34 31  1  1
 31 39  1  0
 35 32  1  6
 32 40  1  0
 41 43  1  0
 15 19  2  0
 42 43  2  0
 16 22  2  0
 12 17  1  1
 17 19  1  0
 17 20  1  0
 18 19  1  0
 18 22  1  0
 18 23  1  0
  9 10  1  0
  9 11  1  0
 10 12  1  0
 11  5  1  1
 33 34  1  0
 33 35  1  0
 34 36  1  0
 35 37  1  0
 37 43  1  6
 20 21  2  0
 21 22  1  0
M  CHG  3   2  -1  26  -1  41  -1
M  END
>  <COMPND>  (121) 
    udp_gluA.pdb 

>  <AUTHOR>  (121) 
    GENERATED BY OPEN BABEL 3.1.1

>  <MASTER>  (121) 
        0    0    0    0    0    0    0    0   56    0   56    0

>  <minimizedAffinity>  (121) 
-5.95806

>  <CNNscore>  (121) 
0.6256256700

>  <CNNaffinity>  (121) 
4.0798468590

>  <CNN_VS>  (121) 
2.5524568558

>  <CNNaffinity_variance>  (121) 
0.0423933677

$$$$
122
     RDKit          3D

 43 45  0  0  0  0  0  0  0  0999 V2000
   24.3928   73.2488   -4.8834 P   0  0  2  0  0  0  0  0  0  0  0  0
   25.3714   73.6453   -6.1098 O   0  0  0  0  0  0  0  0  0  0  0  0
   24.2276   74.3105   -3.8359 O   0  0  0  0  0  0  0  0  0  0  0  0
   24.9770   71.8327   -4.3625 O   0  0  0  0  0  0  0  0  0  0  0  0
   26.3387   71.5319   -4.6070 C   0  0  0  0  0  0  0  0  0  0  0  0
   27.3821   69.7770   -3.3385 O   0  0  0  0  0  0  0  0  0  0  0  0
   28.5470   71.9537   -1.6365 O   0  0  0  0  0  0  0  0  0  0  0  0
   30.6352   71.2821   -3.2565 O   0  0  0  0  0  0  0  0  0  0  0  0
   28.3038   71.9390   -3.0434 C   0  0  1  0  0  0  0  0  0  0  0  0
   29.3265   71.0690   -3.7430 C   0  0  2  0  0  0  0  0  0  0  0  0
   27.0117   71.1719   -3.2888 C   0  0  1  0  0  0  0  0  0  0  0  0
   28.8110   69.6720   -3.4419 C   0  0  2  0  0  0  0  0  0  0  0  0
   29.3677   72.4385   -1.4550 H   0  0  0  0  0  0  0  0  0  0  0  0
   30.9177   72.1849   -3.4733 H   0  0  0  0  0  0  0  0  0  0  0  0
   31.1165   68.0407   -3.4486 O   0  0  0  0  0  0  0  0  0  0  0  0
   29.9577   66.1049   -7.4679 O   0  0  0  0  0  0  0  0  0  0  0  0
   29.1364   68.7328   -4.4777 N   0  0  0  0  0  0  0  0  0  0  0  0
   30.5376   67.0788   -5.4509 N   0  0  0  0  0  0  0  0  0  0  0  0
   30.3193   67.9618   -4.3852 C   0  0  0  0  0  0  0  0  0  0  0  0
   28.2885   68.5815   -5.5681 C   0  0  0  0  0  0  0  0  0  0  0  0
   28.5100   67.7356   -6.5762 C   0  0  0  0  0  0  0  0  0  0  0  0
   29.7241   66.8936   -6.5570 C   0  0  0  0  0  0  0  0  0  0  0  0
   31.3558   66.5328   -5.4098 H   0  0  0  0  0  0  0  0  0  0  0  0
   23.0252   72.8240   -5.6332 O   0  0  0  0  0  0  0  0  0  0  0  0
   21.5970   72.3459   -5.0456 P   0  0  2  0  0  0  0  0  0  0  0  0
   21.2528   73.4794   -3.9424 O   0  0  0  0  0  0  0  0  0  0  0  0
   21.5889   70.9422   -4.5132 O   0  0  0  0  0  0  0  0  0  0  0  0
   20.5510   72.6133   -6.2442 O   0  0  0  0  0  0  0  0  0  0  0  0
   18.5754   71.6269   -7.1003 O   0  0  0  0  0  0  0  0  0  0  0  0
   20.7341   72.3192  -10.5541 O   0  0  0  0  0  0  0  0  0  0  0  0
   22.0554   71.2785   -8.1655 O   0  0  0  0  0  0  0  0  0  0  0  0
   18.4955   74.0402   -9.8629 O   0  0  0  0  0  0  0  0  0  0  0  0
   20.2941   72.5717   -9.2197 C   0  0  2  0  0  0  0  0  0  0  0  0
   20.6456   71.3787   -8.3305 C   0  0  2  0  0  0  0  0  0  0  0  0
   18.7786   72.7822   -9.2534 C   0  0  1  0  0  0  0  0  0  0  0  0
   19.9912   71.5103   -6.9546 C   0  0  1  0  0  0  0  0  0  0  0  0
   18.1841   72.7763   -7.8480 C   0  0  1  0  0  0  0  0  0  0  0  0
   21.6946   72.1822  -10.5576 H   0  0  0  0  0  0  0  0  0  0  0  0
   22.4771   71.1950   -9.0347 H   0  0  0  0  0  0  0  0  0  0  0  0
   18.8687   74.0571  -10.7581 H   0  0  0  0  0  0  0  0  0  0  0  0
   16.2730   71.6311   -7.1146 O   0  0  0  0  0  0  0  0  0  0  0  0
   15.9554   73.3657   -8.5601 O   0  0  0  0  0  0  0  0  0  0  0  0
   16.6963   72.6508   -7.9020 C   0  0  0  0  0  0  0  0  0  0  0  0
  1  4  1  0
  1 24  1  0
  1  2  1  6
  1  3  2  0
 25 28  1  0
 25 24  1  0
 25 26  1  1
 25 27  2  0
  6 11  1  0
  6 12  1  0
 29 36  1  0
 29 37  1  0
  9  7  1  1
  7 13  1  0
 10  8  1  1
  8 14  1  0
  4  5  1  0
 36 28  1  6
 33 30  1  6
 30 38  1  0
 34 31  1  1
 31 39  1  0
 35 32  1  1
 32 40  1  0
 41 43  1  0
 15 19  2  0
 42 43  2  0
 16 22  2  0
 12 17  1  6
 17 19  1  0
 17 20  1  0
 18 19  1  0
 18 22  1  0
 18 23  1  0
  9 10  1  0
  9 11  1  0
 10 12  1  0
 11  5  1  6
 33 34  1  0
 33 35  1  0
 34 36  1  0
 35 37  1  0
 37 43  1  6
 20 21  2  0
 21 22  1  0
M  CHG  3   2  -1  26  -1  41  -1
M  END
>  <COMPND>  (122) 
    udp_gluA.pdb 

>  <AUTHOR>  (122) 
    GENERATED BY OPEN BABEL 3.1.1

>  <MASTER>  (122) 
        0    0    0    0    0    0    0    0   56    0   56    0

>  <minimizedAffinity>  (122) 
-7.78116

>  <CNNscore>  (122) 
0.5866544843

>  <CNNaffinity>  (122) 
4.4339494705

>  <CNN_VS>  (122) 
2.6011962891

>  <CNNaffinity_variance>  (122) 
0.0265947692

$$$$
123
     RDKit          3D

 43 45  0  0  0  0  0  0  0  0999 V2000
   24.2038   73.4573   -4.5760 P   0  0  2  0  0  0  0  0  0  0  0  0
   24.9596   73.5358   -6.0048 O   0  0  0  0  0  0  0  0  0  0  0  0
   23.8847   74.7853   -3.9543 O   0  0  0  0  0  0  0  0  0  0  0  0
   25.1404   72.4757   -3.6944 O   0  0  0  0  0  0  0  0  0  0  0  0
   26.5141   72.3772   -4.0227 C   0  0  0  0  0  0  0  0  0  0  0  0
   27.0411   70.2446   -3.0470 O   0  0  0  0  0  0  0  0  0  0  0  0
   29.2537   71.6615   -1.6018 O   0  0  0  0  0  0  0  0  0  0  0  0
   30.5695   70.4374   -3.6527 O   0  0  0  0  0  0  0  0  0  0  0  0
   28.7523   71.8776   -2.9211 C   0  0  1  0  0  0  0  0  0  0  0  0
   29.2099   70.7682   -3.8441 C   0  0  2  0  0  0  0  0  0  0  0  0
   27.2448   71.6657   -2.8912 C   0  0  1  0  0  0  0  0  0  0  0  0
   28.2731   69.6345   -3.4633 C   0  0  2  0  0  0  0  0  0  0  0  0
   30.2153   71.7912   -1.5958 H   0  0  0  0  0  0  0  0  0  0  0  0
   31.1248   71.1909   -3.9094 H   0  0  0  0  0  0  0  0  0  0  0  0
   26.5553   67.3966   -3.3311 O   0  0  0  0  0  0  0  0  0  0  0  0
   27.3309   66.3112   -7.7429 O   0  0  0  0  0  0  0  0  0  0  0  0
   28.0080   68.7501   -4.5625 N   0  0  0  0  0  0  0  0  0  0  0  0
   26.9440   66.8576   -5.5283 N   0  0  0  0  0  0  0  0  0  0  0  0
   27.1290   67.6546   -4.3909 C   0  0  0  0  0  0  0  0  0  0  0  0
   28.6137   68.9723   -5.7932 C   0  0  0  0  0  0  0  0  0  0  0  0
   28.4276   68.2039   -6.8682 C   0  0  0  0  0  0  0  0  0  0  0  0
   27.5247   67.0381   -6.7732 C   0  0  0  0  0  0  0  0  0  0  0  0
   26.3379   66.0876   -5.4327 H   0  0  0  0  0  0  0  0  0  0  0  0
   22.9143   72.5371   -4.8976 O   0  0  0  0  0  0  0  0  0  0  0  0
   21.7810   72.6613   -6.0437 P   0  0  2  0  0  0  0  0  0  0  0  0
   22.2444   71.5664   -7.1423 O   0  0  0  0  0  0  0  0  0  0  0  0
   21.6064   74.0490   -6.5893 O   0  0  0  0  0  0  0  0  0  0  0  0
   20.4537   72.0322   -5.3767 O   0  0  0  0  0  0  0  0  0  0  0  0
   18.6561   72.1740   -6.9122 O   0  0  0  0  0  0  0  0  0  0  0  0
   16.8077   70.5298   -3.6034 O   0  0  0  0  0  0  0  0  0  0  0  0
   18.7349   72.7036   -3.2956 O   0  0  0  0  0  0  0  0  0  0  0  0
   17.4481   68.8617   -5.8965 O   0  0  0  0  0  0  0  0  0  0  0  0
   17.8870   70.7783   -4.5041 C   0  0  2  0  0  0  0  0  0  0  0  0
   18.1900   72.2765   -4.5387 C   0  0  2  0  0  0  0  0  0  0  0  0
   17.4676   70.2879   -5.8917 C   0  0  1  0  0  0  0  0  0  0  0  0
   19.1793   72.6089   -5.6566 C   0  0  1  0  0  0  0  0  0  0  0  0
   18.4375   70.7661   -6.9683 C   0  0  1  0  0  0  0  0  0  0  0  0
   17.0514   70.8335   -2.7148 H   0  0  0  0  0  0  0  0  0  0  0  0
   18.1125   72.4956   -2.5817 H   0  0  0  0  0  0  0  0  0  0  0  0
   16.8345   68.5444   -5.2155 H   0  0  0  0  0  0  0  0  0  0  0  0
   16.5226   70.3368   -8.2530 O   0  0  0  0  0  0  0  0  0  0  0  0
   18.4873   70.6167   -9.3759 O   0  0  0  0  0  0  0  0  0  0  0  0
   17.8561   70.5709   -8.3307 C   0  0  0  0  0  0  0  0  0  0  0  0
  1  4  1  0
  1 24  1  0
  1  2  1  6
  1  3  2  0
 25 28  1  0
 25 24  1  0
 25 26  1  6
 25 27  2  0
  6 11  1  0
  6 12  1  0
 29 36  1  0
 29 37  1  0
  9  7  1  1
  7 13  1  0
 10  8  1  1
  8 14  1  0
  4  5  1  0
 36 28  1  1
 33 30  1  1
 30 38  1  0
 34 31  1  1
 31 39  1  0
 35 32  1  1
 32 40  1  0
 41 43  1  0
 15 19  2  0
 42 43  2  0
 16 22  2  0
 12 17  1  6
 17 19  1  0
 17 20  1  0
 18 19  1  0
 18 22  1  0
 18 23  1  0
  9 10  1  0
  9 11  1  0
 10 12  1  0
 11  5  1  6
 33 34  1  0
 33 35  1  0
 34 36  1  0
 35 37  1  0
 37 43  1  6
 20 21  2  0
 21 22  1  0
M  CHG  3   2  -1  26  -1  41  -1
M  END
>  <COMPND>  (123) 
    udp_gluA.pdb 

>  <AUTHOR>  (123) 
    GENERATED BY OPEN BABEL 3.1.1

>  <MASTER>  (123) 
        0    0    0    0    0    0    0    0   56    0   56    0

>  <minimizedAffinity>  (123) 
-7.65109

>  <CNNscore>  (123) 
0.5802910328

>  <CNNaffinity>  (123) 
4.5012559891

>  <CNN_VS>  (123) 
2.6120383739

>  <CNNaffinity_variance>  (123) 
0.0697561651

$$$$
124
     RDKit          3D

 43 45  0  0  0  0  0  0  0  0999 V2000
   23.9625   73.1284   -5.0646 P   0  0  2  0  0  0  0  0  0  0  0  0
   25.1424   73.7236   -5.9986 O   0  0  0  0  0  0  0  0  0  0  0  0
   23.4119   74.0880   -4.0508 O   0  0  0  0  0  0  0  0  0  0  0  0
   24.5904   71.7612   -4.4693 O   0  0  0  0  0  0  0  0  0  0  0  0
   25.9905   71.5678   -4.5527 C   0  0  0  0  0  0  0  0  0  0  0  0
   26.9139   69.7204   -3.3231 O   0  0  0  0  0  0  0  0  0  0  0  0
   27.8156   71.7519   -1.3103 O   0  0  0  0  0  0  0  0  0  0  0  0
   30.0982   71.2521   -2.7160 O   0  0  0  0  0  0  0  0  0  0  0  0
   27.7436   71.8589   -2.7322 C   0  0  1  0  0  0  0  0  0  0  0  0
   28.8627   71.0669   -3.3747 C   0  0  2  0  0  0  0  0  0  0  0  0
   26.5083   71.1007   -3.1985 C   0  0  1  0  0  0  0  0  0  0  0  0
   28.3469   69.6426   -3.2605 C   0  0  2  0  0  0  0  0  0  0  0  0
   28.5972   72.2288   -0.9889 H   0  0  0  0  0  0  0  0  0  0  0  0
   30.3839   72.1741   -2.8179 H   0  0  0  0  0  0  0  0  0  0  0  0
   30.7586   68.1745   -3.1907 O   0  0  0  0  0  0  0  0  0  0  0  0
   30.0462   66.4539   -7.4069 O   0  0  0  0  0  0  0  0  0  0  0  0
   28.8159   68.8029   -4.3263 N   0  0  0  0  0  0  0  0  0  0  0  0
   30.4020   67.3198   -5.2911 N   0  0  0  0  0  0  0  0  0  0  0  0
   30.0413   68.1086   -4.1907 C   0  0  0  0  0  0  0  0  0  0  0  0
   28.0648   68.6722   -5.4881 C   0  0  0  0  0  0  0  0  0  0  0  0
   28.4216   67.9165   -6.5284 C   0  0  0  0  0  0  0  0  0  0  0  0
   29.6887   67.1587   -6.4679 C   0  0  0  0  0  0  0  0  0  0  0  0
   31.2523   66.8284   -5.2209 H   0  0  0  0  0  0  0  0  0  0  0  0
   22.8822   72.5934   -6.1415 O   0  0  0  0  0  0  0  0  0  0  0  0
   21.4990   71.7803   -5.9432 P   0  0  2  0  0  0  0  0  0  0  0  0
   20.9898   72.2666   -4.4857 O   0  0  0  0  0  0  0  0  0  0  0  0
   21.6337   70.2919   -6.0864 O   0  0  0  0  0  0  0  0  0  0  0  0
   20.4707   72.4625   -6.9823 O   0  0  0  0  0  0  0  0  0  0  0  0
   19.4865   70.9215   -8.4876 O   0  0  0  0  0  0  0  0  0  0  0  0
   18.2232   74.5361  -10.0391 O   0  0  0  0  0  0  0  0  0  0  0  0
   20.9663   74.2103   -9.0884 O   0  0  0  0  0  0  0  0  0  0  0  0
   16.3757   72.8664   -8.5392 O   0  0  0  0  0  0  0  0  0  0  0  0
   18.6134   73.6234   -9.0131 C   0  0  2  0  0  0  0  0  0  0  0  0
   20.0421   73.1439   -9.2710 C   0  0  2  0  0  0  0  0  0  0  0  0
   17.6425   72.4408   -9.0378 C   0  0  1  0  0  0  0  0  0  0  0  0
   20.4126   71.9971   -8.3294 C   0  0  1  0  0  0  0  0  0  0  0  0
   18.1453   71.2889   -8.1724 C   0  0  1  0  0  0  0  0  0  0  0  0
   18.8263   75.2961  -10.0426 H   0  0  0  0  0  0  0  0  0  0  0  0
   20.7370   74.9416   -9.6826 H   0  0  0  0  0  0  0  0  0  0  0  0
   16.0446   73.5995   -9.0812 H   0  0  0  0  0  0  0  0  0  0  0  0
   17.8947   69.3954   -9.5338 O   0  0  0  0  0  0  0  0  0  0  0  0
   16.4208   69.6405   -7.8114 O   0  0  0  0  0  0  0  0  0  0  0  0
   17.3792   70.0381   -8.4567 C   0  0  0  0  0  0  0  0  0  0  0  0
  1  4  1  0
  1 24  1  0
  1  2  1  6
  1  3  2  0
 25 28  1  0
 25 24  1  0
 25 26  1  1
 25 27  2  0
  6 11  1  0
  6 12  1  0
 29 36  1  0
 29 37  1  0
  9  7  1  1
  7 13  1  0
 10  8  1  1
  8 14  1  0
  4  5  1  0
 36 28  1  1
 33 30  1  6
 30 38  1  0
 34 31  1  1
 31 39  1  0
 35 32  1  1
 32 40  1  0
 41 43  1  0
 15 19  2  0
 42 43  2  0
 16 22  2  0
 12 17  1  6
 17 19  1  0
 17 20  1  0
 18 19  1  0
 18 22  1  0
 18 23  1  0
  9 10  1  0
  9 11  1  0
 10 12  1  0
 11  5  1  6
 33 34  1  0
 33 35  1  0
 34 36  1  0
 35 37  1  0
 37 43  1  6
 20 21  2  0
 21 22  1  0
M  CHG  3   2  -1  26  -1  41  -1
M  END
>  <COMPND>  (124) 
    udp_gluA.pdb 

>  <AUTHOR>  (124) 
    GENERATED BY OPEN BABEL 3.1.1

>  <MASTER>  (124) 
        0    0    0    0    0    0    0    0   56    0   56    0

>  <minimizedAffinity>  (124) 
-7.96664

>  <CNNscore>  (124) 
0.5388651490

>  <CNNaffinity>  (124) 
4.4386572838

>  <CNN_VS>  (124) 
2.3918378353

>  <CNNaffinity_variance>  (124) 
0.0497274473

$$$$
125
     RDKit          3D

 43 45  0  0  0  0  0  0  0  0999 V2000
   25.5688   73.7959    0.3998 P   0  0  2  0  0  0  0  0  0  0  0  0
   23.9699   73.8525    0.1564 O   0  0  0  0  0  0  0  0  0  0  0  0
   26.1714   75.0569    0.9463 O   0  0  0  0  0  0  0  0  0  0  0  0
   26.1603   73.2922   -1.0194 O   0  0  0  0  0  0  0  0  0  0  0  0
   25.5641   73.7740   -2.2098 C   0  0  0  0  0  0  0  0  0  0  0  0
   25.1417   71.5633   -3.0536 O   0  0  0  0  0  0  0  0  0  0  0  0
   26.0818   72.5979   -5.7065 O   0  0  0  0  0  0  0  0  0  0  0  0
   23.3689   72.6318   -5.9811 O   0  0  0  0  0  0  0  0  0  0  0  0
   25.3308   73.2642   -4.6913 C   0  0  1  0  0  0  0  0  0  0  0  0
   23.9029   72.7608   -4.6800 C   0  0  2  0  0  0  0  0  0  0  0  0
   25.8461   72.7912   -3.3389 C   0  0  1  0  0  0  0  0  0  0  0  0
   24.0452   71.4247   -3.9712 C   0  0  2  0  0  0  0  0  0  0  0  0
   25.7704   72.8841   -6.5799 H   0  0  0  0  0  0  0  0  0  0  0  0
   23.2979   73.5092   -6.3899 H   0  0  0  0  0  0  0  0  0  0  0  0
   21.8482   70.0298   -5.0684 O   0  0  0  0  0  0  0  0  0  0  0  0
   19.5699   70.0990   -1.0624 O   0  0  0  0  0  0  0  0  0  0  0  0
   22.8649   71.0652   -3.2374 N   0  0  0  0  0  0  0  0  0  0  0  0
   20.7151   70.0665   -3.0724 N   0  0  0  0  0  0  0  0  0  0  0  0
   21.8185   70.3649   -3.8828 C   0  0  0  0  0  0  0  0  0  0  0  0
   22.7531   71.4041   -1.8944 C   0  0  0  0  0  0  0  0  0  0  0  0
   21.6952   71.1128   -1.1350 C   0  0  0  0  0  0  0  0  0  0  0  0
   20.5578   70.3831   -1.7328 C   0  0  0  0  0  0  0  0  0  0  0  0
   19.9730   69.5811   -3.5001 H   0  0  0  0  0  0  0  0  0  0  0  0
   25.7458   72.4990    1.3482 O   0  0  0  0  0  0  0  0  0  0  0  0
   26.9656   72.0434    2.3065 P   0  0  2  0  0  0  0  0  0  0  0  0
   26.5326   70.5554    2.7741 O   0  0  0  0  0  0  0  0  0  0  0  0
   27.2466   72.9898    3.4376 O   0  0  0  0  0  0  0  0  0  0  0  0
   28.2081   71.8100    1.3045 O   0  0  0  0  0  0  0  0  0  0  0  0
   30.4540   71.7373    2.0529 O   0  0  0  0  0  0  0  0  0  0  0  0
   30.9308   72.6355   -1.9514 O   0  0  0  0  0  0  0  0  0  0  0  0
   28.8342   73.9307   -0.3827 O   0  0  0  0  0  0  0  0  0  0  0  0
   31.4715   69.9478   -0.9843 O   0  0  0  0  0  0  0  0  0  0  0  0
   30.3003   72.0465   -0.8141 C   0  0  2  0  0  0  0  0  0  0  0  0
   29.8849   73.1437    0.1662 C   0  0  2  0  0  0  0  0  0  0  0  0
   31.3038   71.0968   -0.1560 C   0  0  1  0  0  0  0  0  0  0  0  0
   29.4169   72.5437    1.4928 C   0  0  1  0  0  0  0  0  0  0  0  0
   30.8211   70.6412    1.2181 C   0  0  1  0  0  0  0  0  0  0  0  0
   30.3118   73.2432   -2.3859 H   0  0  0  0  0  0  0  0  0  0  0  0
   29.1241   74.3144   -1.2247 H   0  0  0  0  0  0  0  0  0  0  0  0
   31.7783   70.2240   -1.8621 H   0  0  0  0  0  0  0  0  0  0  0  0
   31.9565   70.4447    3.2610 O   0  0  0  0  0  0  0  0  0  0  0  0
   32.7086   69.1703    1.5263 O   0  0  0  0  0  0  0  0  0  0  0  0
   31.9301   69.9943    1.9822 C   0  0  0  0  0  0  0  0  0  0  0  0
  1  4  1  0
  1 24  1  0
  1  2  1  6
  1  3  2  0
 25 28  1  0
 25 24  1  0
 25 26  1  1
 25 27  2  0
  6 11  1  0
  6 12  1  0
 29 36  1  0
 29 37  1  0
  9  7  1  6
  7 13  1  0
 10  8  1  6
  8 14  1  0
  4  5  1  0
 36 28  1  6
 33 30  1  6
 30 38  1  0
 34 31  1  6
 31 39  1  0
 35 32  1  6
 32 40  1  0
 41 43  1  0
 15 19  2  0
 42 43  2  0
 16 22  2  0
 12 17  1  1
 17 19  1  0
 17 20  1  0
 18 19  1  0
 18 22  1  0
 18 23  1  0
  9 10  1  0
  9 11  1  0
 10 12  1  0
 11  5  1  1
 33 34  1  0
 33 35  1  0
 34 36  1  0
 35 37  1  0
 37 43  1  1
 20 21  2  0
 21 22  1  0
M  CHG  3   2  -1  26  -1  41  -1
M  END
>  <COMPND>  (125) 
    udp_gluA.pdb 

>  <AUTHOR>  (125) 
    GENERATED BY OPEN BABEL 3.1.1

>  <MASTER>  (125) 
        0    0    0    0    0    0    0    0   56    0   56    0

>  <minimizedAffinity>  (125) 
-6.15922

>  <CNNscore>  (125) 
0.5120422840

>  <CNNaffinity>  (125) 
3.9655041695

>  <CNN_VS>  (125) 
2.0305058956

>  <CNNaffinity_variance>  (125) 
0.1363973767

$$$$
126
     RDKit          3D

 43 45  0  0  0  0  0  0  0  0999 V2000
   26.9371   71.5092   -3.8570 P   0  0  2  0  0  0  0  0  0  0  0  0
   26.3535   70.5219   -2.7152 O   0  0  0  0  0  0  0  0  0  0  0  0
   27.1954   70.8594   -5.1848 O   0  0  0  0  0  0  0  0  0  0  0  0
   28.2182   72.2028   -3.1531 O   0  0  0  0  0  0  0  0  0  0  0  0
   29.5072   71.6944   -3.4442 C   0  0  0  0  0  0  0  0  0  0  0  0
   28.8994   69.4643   -2.7848 O   0  0  0  0  0  0  0  0  0  0  0  0
   31.5840   69.3252   -1.4564 O   0  0  0  0  0  0  0  0  0  0  0  0
   31.9930   67.9448   -3.7723 O   0  0  0  0  0  0  0  0  0  0  0  0
   31.2111   69.9689   -2.6750 C   0  0  1  0  0  0  0  0  0  0  0  0
   30.9920   68.9412   -3.7649 C   0  0  2  0  0  0  0  0  0  0  0  0
   29.8130   70.5440   -2.4937 C   0  0  1  0  0  0  0  0  0  0  0  0
   29.6217   68.3907   -3.4085 C   0  0  2  0  0  0  0  0  0  0  0  0
   32.4742   68.9497   -1.5479 H   0  0  0  0  0  0  0  0  0  0  0  0
   32.8459   68.3452   -4.0048 H   0  0  0  0  0  0  0  0  0  0  0  0
   27.0096   67.3196   -3.3296 O   0  0  0  0  0  0  0  0  0  0  0  0
   26.9220   66.7170   -7.8983 O   0  0  0  0  0  0  0  0  0  0  0  0
   28.8927   67.9460   -4.5625 N   0  0  0  0  0  0  0  0  0  0  0  0
   26.9689   67.0195   -5.6050 N   0  0  0  0  0  0  0  0  0  0  0  0
   27.5861   67.4236   -4.4139 C   0  0  0  0  0  0  0  0  0  0  0  0
   29.4708   68.0310   -5.8233 C   0  0  0  0  0  0  0  0  0  0  0  0
   28.8699   67.6420   -6.9495 C   0  0  0  0  0  0  0  0  0  0  0  0
   27.5035   67.0838   -6.8816 C   0  0  0  0  0  0  0  0  0  0  0  0
   26.0595   66.6505   -5.5266 H   0  0  0  0  0  0  0  0  0  0  0  0
   25.8503   72.7052   -3.8927 O   0  0  0  0  0  0  0  0  0  0  0  0
   24.7458   73.1685   -2.8068 P   0  0  2  0  0  0  0  0  0  0  0  0
   24.2541   74.6046   -3.3691 O   0  0  0  0  0  0  0  0  0  0  0  0
   25.2475   73.1972   -1.3921 O   0  0  0  0  0  0  0  0  0  0  0  0
   23.4919   72.1839   -3.0527 O   0  0  0  0  0  0  0  0  0  0  0  0
   22.2247   71.3214   -1.2473 O   0  0  0  0  0  0  0  0  0  0  0  0
   21.2791   68.6768   -4.2771 O   0  0  0  0  0  0  0  0  0  0  0  0
   24.0289   69.5957   -3.9181 O   0  0  0  0  0  0  0  0  0  0  0  0
   19.3670   70.7106   -3.4659 O   0  0  0  0  0  0  0  0  0  0  0  0
   21.6359   69.9387   -3.7130 C   0  0  2  0  0  0  0  0  0  0  0  0
   22.9756   69.8143   -2.9868 C   0  0  2  0  0  0  0  0  0  0  0  0
   20.5345   70.3465   -2.7319 C   0  0  1  0  0  0  0  0  0  0  0  0
   23.2792   71.0767   -2.1788 C   0  0  1  0  0  0  0  0  0  0  0  0
   20.9629   71.5350   -1.8760 C   0  0  1  0  0  0  0  0  0  0  0  0
   21.9648   68.3972   -4.9040 H   0  0  0  0  0  0  0  0  0  0  0  0
   23.8426   68.7963   -4.4345 H   0  0  0  0  0  0  0  0  0  0  0  0
   19.0839   69.9628   -4.0150 H   0  0  0  0  0  0  0  0  0  0  0  0
   19.3490   70.5729   -0.4720 O   0  0  0  0  0  0  0  0  0  0  0  0
   19.9125   72.7460   -0.0729 O   0  0  0  0  0  0  0  0  0  0  0  0
   20.0370   71.7155   -0.7174 C   0  0  0  0  0  0  0  0  0  0  0  0
  1  4  1  0
  1 24  1  0
  1  2  1  1
  1  3  2  0
 25 28  1  0
 25 24  1  0
 25 26  1  6
 25 27  2  0
  6 11  1  0
  6 12  1  0
 29 36  1  0
 29 37  1  0
  9  7  1  1
  7 13  1  0
 10  8  1  1
  8 14  1  0
  4  5  1  0
 36 28  1  6
 33 30  1  1
 30 38  1  0
 34 31  1  6
 31 39  1  0
 35 32  1  6
 32 40  1  0
 41 43  1  0
 15 19  2  0
 42 43  2  0
 16 22  2  0
 12 17  1  6
 17 19  1  0
 17 20  1  0
 18 19  1  0
 18 22  1  0
 18 23  1  0
  9 10  1  0
  9 11  1  0
 10 12  1  0
 11  5  1  6
 33 34  1  0
 33 35  1  0
 34 36  1  0
 35 37  1  0
 37 43  1  1
 20 21  2  0
 21 22  1  0
M  CHG  3   2  -1  26  -1  41  -1
M  END
>  <COMPND>  (126) 
    udp_gluA.pdb 

>  <AUTHOR>  (126) 
    GENERATED BY OPEN BABEL 3.1.1

>  <MASTER>  (126) 
        0    0    0    0    0    0    0    0   56    0   56    0

>  <minimizedAffinity>  (126) 
-8.10111

>  <CNNscore>  (126) 
0.5024592280

>  <CNNaffinity>  (126) 
4.4628148079

>  <CNN_VS>  (126) 
2.2423825264

>  <CNNaffinity_variance>  (126) 
0.3455587029

$$$$
127
     RDKit          3D

 43 45  0  0  0  0  0  0  0  0999 V2000
   24.4377   73.5604   -4.8339 P   0  0  2  0  0  0  0  0  0  0  0  0
   25.4072   73.9082   -6.0821 O   0  0  0  0  0  0  0  0  0  0  0  0
   23.5472   74.6841   -4.3910 O   0  0  0  0  0  0  0  0  0  0  0  0
   25.4452   72.9775   -3.7100 O   0  0  0  0  0  0  0  0  0  0  0  0
   26.7037   72.4781   -4.1239 C   0  0  0  0  0  0  0  0  0  0  0  0
   27.0824   70.3369   -3.0994 O   0  0  0  0  0  0  0  0  0  0  0  0
   29.3153   71.6589   -1.5967 O   0  0  0  0  0  0  0  0  0  0  0  0
   30.6351   70.3343   -3.5815 O   0  0  0  0  0  0  0  0  0  0  0  0
   28.8724   71.8797   -2.9359 C   0  0  1  0  0  0  0  0  0  0  0  0
   29.3025   70.7329   -3.8260 C   0  0  2  0  0  0  0  0  0  0  0  0
   27.3557   71.7477   -2.9569 C   0  0  1  0  0  0  0  0  0  0  0  0
   28.2941   69.6563   -3.4626 C   0  0  2  0  0  0  0  0  0  0  0  0
   30.2817   71.7381   -1.5582 H   0  0  0  0  0  0  0  0  0  0  0  0
   31.2382   71.0533   -3.8289 H   0  0  0  0  0  0  0  0  0  0  0  0
   26.5553   67.4353   -3.3206 O   0  0  0  0  0  0  0  0  0  0  0  0
   27.3219   66.3220   -7.7270 O   0  0  0  0  0  0  0  0  0  0  0  0
   28.0210   68.7692   -4.5578 N   0  0  0  0  0  0  0  0  0  0  0  0
   26.9395   66.8823   -5.5151 N   0  0  0  0  0  0  0  0  0  0  0  0
   27.1317   67.6829   -4.3814 C   0  0  0  0  0  0  0  0  0  0  0  0
   28.6291   68.9800   -5.7893 C   0  0  0  0  0  0  0  0  0  0  0  0
   28.4360   68.2084   -6.8608 C   0  0  0  0  0  0  0  0  0  0  0  0
   27.5222   67.0516   -6.7607 C   0  0  0  0  0  0  0  0  0  0  0  0
   26.3262   66.1186   -5.4161 H   0  0  0  0  0  0  0  0  0  0  0  0
   23.6545   72.2399   -5.3397 O   0  0  0  0  0  0  0  0  0  0  0  0
   22.0771   71.9586   -5.5547 P   0  0  2  0  0  0  0  0  0  0  0  0
   22.0344   70.3970   -5.9790 O   0  0  0  0  0  0  0  0  0  0  0  0
   21.4144   72.8838   -6.5339 O   0  0  0  0  0  0  0  0  0  0  0  0
   21.4487   71.9943   -4.0693 O   0  0  0  0  0  0  0  0  0  0  0  0
   22.5085   72.2415   -1.9658 O   0  0  0  0  0  0  0  0  0  0  0  0
   19.3209   69.7901   -1.0183 O   0  0  0  0  0  0  0  0  0  0  0  0
   20.8554   69.3452   -3.4641 O   0  0  0  0  0  0  0  0  0  0  0  0
   19.2580   72.6072   -0.3036 O   0  0  0  0  0  0  0  0  0  0  0  0
   20.0069   70.8180   -1.7329 C   0  0  2  0  0  0  0  0  0  0  0  0
   21.2405   70.2293   -2.4178 C   0  0  2  0  0  0  0  0  0  0  0  0
   20.4195   71.8972   -0.7293 C   0  0  1  0  0  0  0  0  0  0  0  0
   22.1231   71.3346   -2.9994 C   0  0  1  0  0  0  0  0  0  0  0  0
   21.3981   72.8901   -1.3498 C   0  0  1  0  0  0  0  0  0  0  0  0
   19.0491   69.0929   -1.6358 H   0  0  0  0  0  0  0  0  0  0  0  0
   20.2948   68.6415   -3.1022 H   0  0  0  0  0  0  0  0  0  0  0  0
   18.6269   71.9866    0.0932 H   0  0  0  0  0  0  0  0  0  0  0  0
   21.2473   74.7768    0.0356 O   0  0  0  0  0  0  0  0  0  0  0  0
   23.1341   73.5081    0.2077 O   0  0  0  0  0  0  0  0  0  0  0  0
   22.0426   73.7293   -0.2950 C   0  0  0  0  0  0  0  0  0  0  0  0
  1  4  1  0
  1 24  1  0
  1  2  1  6
  1  3  2  0
 25 28  1  0
 25 24  1  0
 25 26  1  6
 25 27  2  0
  6 11  1  0
  6 12  1  0
 29 36  1  0
 29 37  1  0
  9  7  1  1
  7 13  1  0
 10  8  1  1
  8 14  1  0
  4  5  1  0
 36 28  1  6
 33 30  1  1
 30 38  1  0
 34 31  1  6
 31 39  1  0
 35 32  1  6
 32 40  1  0
 41 43  1  0
 15 19  2  0
 42 43  2  0
 16 22  2  0
 12 17  1  6
 17 19  1  0
 17 20  1  0
 18 19  1  0
 18 22  1  0
 18 23  1  0
  9 10  1  0
  9 11  1  0
 10 12  1  0
 11  5  1  6
 33 34  1  0
 33 35  1  0
 34 36  1  0
 35 37  1  0
 37 43  1  1
 20 21  2  0
 21 22  1  0
M  CHG  3   2  -1  26  -1  41  -1
M  END
>  <COMPND>  (127) 
    udp_gluA.pdb 

>  <AUTHOR>  (127) 
    GENERATED BY OPEN BABEL 3.1.1

>  <MASTER>  (127) 
        0    0    0    0    0    0    0    0   56    0   56    0

>  <minimizedAffinity>  (127) 
-7.59776

>  <CNNscore>  (127) 
0.4867811501

>  <CNNaffinity>  (127) 
4.2011160851

>  <CNN_VS>  (127) 
2.0450241566

>  <CNNaffinity_variance>  (127) 
0.4846822619

$$$$
128
     RDKit          3D

 43 45  0  0  0  0  0  0  0  0999 V2000
   24.4134   73.2022   -4.9420 P   0  0  2  0  0  0  0  0  0  0  0  0
   25.6477   73.4735   -5.9529 O   0  0  0  0  0  0  0  0  0  0  0  0
   23.9979   74.3852   -4.1177 O   0  0  0  0  0  0  0  0  0  0  0  0
   24.8732   71.8928   -4.1102 O   0  0  0  0  0  0  0  0  0  0  0  0
   26.0997   71.2724   -4.4496 C   0  0  0  0  0  0  0  0  0  0  0  0
   27.2703   69.5332   -3.2736 O   0  0  0  0  0  0  0  0  0  0  0  0
   28.4102   71.7147   -1.5609 O   0  0  0  0  0  0  0  0  0  0  0  0
   30.4558   71.1784   -3.2826 O   0  0  0  0  0  0  0  0  0  0  0  0
   28.1092   71.7256   -2.9566 C   0  0  1  0  0  0  0  0  0  0  0  0
   29.1384   70.9202   -3.7210 C   0  0  2  0  0  0  0  0  0  0  0  0
   26.8423   70.9086   -3.1703 C   0  0  1  0  0  0  0  0  0  0  0  0
   28.6968   69.4944   -3.4380 C   0  0  2  0  0  0  0  0  0  0  0  0
   29.2161   72.2306   -1.3996 H   0  0  0  0  0  0  0  0  0  0  0  0
   30.6896   72.0983   -3.4856 H   0  0  0  0  0  0  0  0  0  0  0  0
   31.1251   68.0681   -3.6506 O   0  0  0  0  0  0  0  0  0  0  0  0
   29.8241   66.0818   -7.6010 O   0  0  0  0  0  0  0  0  0  0  0  0
   29.0188   68.5977   -4.5118 N   0  0  0  0  0  0  0  0  0  0  0  0
   30.4752   67.0809   -5.6184 N   0  0  0  0  0  0  0  0  0  0  0  0
   30.2666   67.9306   -4.5241 C   0  0  0  0  0  0  0  0  0  0  0  0
   28.1040   68.3852   -5.5360 C   0  0  0  0  0  0  0  0  0  0  0  0
   28.3171   67.5722   -6.5725 C   0  0  0  0  0  0  0  0  0  0  0  0
   29.5962   66.8378   -6.6614 C   0  0  0  0  0  0  0  0  0  0  0  0
   31.3376   66.6070   -5.6500 H   0  0  0  0  0  0  0  0  0  0  0  0
   23.2630   72.6258   -5.9204 O   0  0  0  0  0  0  0  0  0  0  0  0
   21.7223   72.2315   -5.6300 P   0  0  2  0  0  0  0  0  0  0  0  0
   21.5822   70.7663   -6.3038 O   0  0  0  0  0  0  0  0  0  0  0  0
   20.7250   73.2382   -6.1261 O   0  0  0  0  0  0  0  0  0  0  0  0
   21.6625   71.9566   -4.0415 O   0  0  0  0  0  0  0  0  0  0  0  0
   19.5858   72.7305   -3.2064 O   0  0  0  0  0  0  0  0  0  0  0  0
   21.4289   71.3864    0.2381 O   0  0  0  0  0  0  0  0  0  0  0  0
   22.9375   72.8974   -1.7557 O   0  0  0  0  0  0  0  0  0  0  0  0
   19.3189   69.8136   -0.9968 O   0  0  0  0  0  0  0  0  0  0  0  0
   21.1247   71.4006   -1.1566 C   0  0  2  0  0  0  0  0  0  0  0  0
   21.5222   72.7508   -1.7534 C   0  0  2  0  0  0  0  0  0  0  0  0
   19.6199   71.1710   -1.3148 C   0  0  1  0  0  0  0  0  0  0  0  0
   21.0049   72.8894   -3.1859 C   0  0  1  0  0  0  0  0  0  0  0  0
   19.1608   71.4508   -2.7428 C   0  0  1  0  0  0  0  0  0  0  0  0
   22.3801   71.5305    0.3632 H   0  0  0  0  0  0  0  0  0  0  0  0
   23.2726   72.8103   -0.8499 H   0  0  0  0  0  0  0  0  0  0  0  0
   19.6063   69.6224   -0.0903 H   0  0  0  0  0  0  0  0  0  0  0  0
   17.2872   72.8070   -3.1326 O   0  0  0  0  0  0  0  0  0  0  0  0
   16.8989   70.6214   -2.6114 O   0  0  0  0  0  0  0  0  0  0  0  0
   17.6714   71.5466   -2.8120 C   0  0  0  0  0  0  0  0  0  0  0  0
  1  4  1  0
  1 24  1  0
  1  2  1  6
  1  3  2  0
 25 28  1  0
 25 24  1  0
 25 26  1  6
 25 27  2  0
  6 11  1  0
  6 12  1  0
 29 36  1  0
 29 37  1  0
  9  7  1  1
  7 13  1  0
 10  8  1  1
  8 14  1  0
  4  5  1  0
 36 28  1  6
 33 30  1  1
 30 38  1  0
 34 31  1  6
 31 39  1  0
 35 32  1  6
 32 40  1  0
 41 43  1  0
 15 19  2  0
 42 43  2  0
 16 22  2  0
 12 17  1  6
 17 19  1  0
 17 20  1  0
 18 19  1  0
 18 22  1  0
 18 23  1  0
  9 10  1  0
  9 11  1  0
 10 12  1  0
 11  5  1  6
 33 34  1  0
 33 35  1  0
 34 36  1  0
 35 37  1  0
 37 43  1  1
 20 21  2  0
 21 22  1  0
M  CHG  3   2  -1  26  -1  41  -1
M  END
>  <COMPND>  (128) 
    udp_gluA.pdb 

>  <AUTHOR>  (128) 
    GENERATED BY OPEN BABEL 3.1.1

>  <MASTER>  (128) 
        0    0    0    0    0    0    0    0   56    0   56    0

>  <minimizedAffinity>  (128) 
-7.24129

>  <CNNscore>  (128) 
0.4653026462

>  <CNNaffinity>  (128) 
4.2601346970

>  <CNN_VS>  (128) 
1.9822520018

>  <CNNaffinity_variance>  (128) 
0.0793979168

$$$$
129
     RDKit          3D

 43 45  0  0  0  0  0  0  0  0999 V2000
   15.7145   70.4004   -4.1567 P   0  0  2  0  0  0  0  0  0  0  0  0
   15.1085   71.6936   -3.3956 O   0  0  0  0  0  0  0  0  0  0  0  0
   15.0896   70.0975   -5.4869 O   0  0  0  0  0  0  0  0  0  0  0  0
   15.6226   69.2213   -3.0525 O   0  0  0  0  0  0  0  0  0  0  0  0
   14.5400   69.2323   -2.1401 C   0  0  0  0  0  0  0  0  0  0  0  0
   13.8027   67.1436   -1.2068 O   0  0  0  0  0  0  0  0  0  0  0  0
   11.5957   67.2298   -3.2349 O   0  0  0  0  0  0  0  0  0  0  0  0
   10.3464   68.0640   -0.9591 O   0  0  0  0  0  0  0  0  0  0  0  0
   12.2016   68.3020   -2.5127 C   0  0  1  0  0  0  0  0  0  0  0  0
   11.7354   68.2932   -1.0723 C   0  0  2  0  0  0  0  0  0  0  0  0
   13.6855   67.9924   -2.3692 C   0  0  1  0  0  0  0  0  0  0  0  0
   12.5643   67.1666   -0.4794 C   0  0  2  0  0  0  0  0  0  0  0  0
   10.6470   67.4051   -3.3392 H   0  0  0  0  0  0  0  0  0  0  0  0
    9.8629   68.8089   -1.3505 H   0  0  0  0  0  0  0  0  0  0  0  0
   10.7733   66.5448    1.6140 O   0  0  0  0  0  0  0  0  0  0  0  0
   13.7471   67.9795    4.8298 O   0  0  0  0  0  0  0  0  0  0  0  0
   12.8449   67.3675    0.9141 N   0  0  0  0  0  0  0  0  0  0  0  0
   12.2557   67.2609    3.2136 N   0  0  0  0  0  0  0  0  0  0  0  0
   11.8765   67.0219    1.8861 C   0  0  0  0  0  0  0  0  0  0  0  0
   14.0675   67.8993    1.3057 C   0  0  0  0  0  0  0  0  0  0  0  0
   14.4146   68.1213    2.5750 C   0  0  0  0  0  0  0  0  0  0  0  0
   13.4594   67.7885    3.6521 C   0  0  0  0  0  0  0  0  0  0  0  0
   11.5971   67.0301    3.9081 H   0  0  0  0  0  0  0  0  0  0  0  0
   17.2976   70.7219   -4.2140 O   0  0  0  0  0  0  0  0  0  0  0  0
   18.0936   72.0633   -4.6391 P   0  0  2  0  0  0  0  0  0  0  0  0
   19.6431   71.6701   -4.3850 O   0  0  0  0  0  0  0  0  0  0  0  0
   17.6434   73.3010   -3.9184 O   0  0  0  0  0  0  0  0  0  0  0  0
   17.9493   72.1335   -6.2443 O   0  0  0  0  0  0  0  0  0  0  0  0
   17.4702   70.4522   -7.8421 O   0  0  0  0  0  0  0  0  0  0  0  0
   20.0507   72.8991   -9.9447 O   0  0  0  0  0  0  0  0  0  0  0  0
   20.5779   72.2477   -7.1461 O   0  0  0  0  0  0  0  0  0  0  0  0
   17.1976   72.9690  -10.4979 O   0  0  0  0  0  0  0  0  0  0  0  0
   19.0369   72.5899   -8.9885 C   0  0  2  0  0  0  0  0  0  0  0  0
   19.5920   71.6126   -7.9520 C   0  0  2  0  0  0  0  0  0  0  0  0
   17.8584   71.9610   -9.7353 C   0  0  1  0  0  0  0  0  0  0  0  0
   18.4778   71.0811   -7.0493 C   0  0  1  0  0  0  0  0  0  0  0  0
   16.8525   71.3426   -8.7687 C   0  0  1  0  0  0  0  0  0  0  0  0
   20.8100   73.3000   -9.4930 H   0  0  0  0  0  0  0  0  0  0  0  0
   21.2879   72.5876   -7.7125 H   0  0  0  0  0  0  0  0  0  0  0  0
   17.8271   73.3708  -11.1170 H   0  0  0  0  0  0  0  0  0  0  0  0
   15.2076   69.6767   -8.6246 O   0  0  0  0  0  0  0  0  0  0  0  0
   15.7394   70.4358  -10.7079 O   0  0  0  0  0  0  0  0  0  0  0  0
   15.8932   70.4576   -9.4959 C   0  0  0  0  0  0  0  0  0  0  0  0
  1  4  1  0
  1 24  1  0
  1  2  1  1
  1  3  2  0
 25 28  1  0
 25 24  1  0
 25 26  1  6
 25 27  2  0
  6 11  1  0
  6 12  1  0
 29 36  1  0
 29 37  1  0
  9  7  1  6
  7 13  1  0
 10  8  1  6
  8 14  1  0
  4  5  1  0
 36 28  1  6
 33 30  1  6
 30 38  1  0
 34 31  1  1
 31 39  1  0
 35 32  1  1
 32 40  1  0
 41 43  1  0
 15 19  2  0
 42 43  2  0
 16 22  2  0
 12 17  1  1
 17 19  1  0
 17 20  1  0
 18 19  1  0
 18 22  1  0
 18 23  1  0
  9 10  1  0
  9 11  1  0
 10 12  1  0
 11  5  1  1
 33 34  1  0
 33 35  1  0
 34 36  1  0
 35 37  1  0
 37 43  1  6
 20 21  2  0
 21 22  1  0
M  CHG  3   2  -1  26  -1  41  -1
M  END
>  <COMPND>  (129) 
    udp_gluA.pdb 

>  <AUTHOR>  (129) 
    GENERATED BY OPEN BABEL 3.1.1

>  <MASTER>  (129) 
        0    0    0    0    0    0    0    0   56    0   56    0

>  <minimizedAffinity>  (129) 
-6.23638

>  <CNNscore>  (129) 
0.4467619658

>  <CNNaffinity>  (129) 
3.9114079475

>  <CNN_VS>  (129) 
1.7474683523

>  <CNNaffinity_variance>  (129) 
0.1505300999

$$$$
130
     RDKit          3D

 43 45  0  0  0  0  0  0  0  0999 V2000
   22.0534   70.9613   -3.4715 P   0  0  2  0  0  0  0  0  0  0  0  0
   21.0480   69.9460   -2.7117 O   0  0  0  0  0  0  0  0  0  0  0  0
   23.3354   70.3445   -3.9489 O   0  0  0  0  0  0  0  0  0  0  0  0
   22.2101   72.1976   -2.4395 O   0  0  0  0  0  0  0  0  0  0  0  0
   22.7186   71.9368   -1.1442 C   0  0  0  0  0  0  0  0  0  0  0  0
   21.9394   71.4967    1.0867 O   0  0  0  0  0  0  0  0  0  0  0  0
   20.2709   73.9708    0.7922 O   0  0  0  0  0  0  0  0  0  0  0  0
   22.3779   74.8473    2.2850 O   0  0  0  0  0  0  0  0  0  0  0  0
   21.5815   73.7002    0.2945 C   0  0  1  0  0  0  0  0  0  0  0  0
   22.5909   73.7499    1.4218 C   0  0  2  0  0  0  0  0  0  0  0  0
   21.6347   72.2350   -0.1164 C   0  0  1  0  0  0  0  0  0  0  0  0
   22.3637   72.4136    2.1078 C   0  0  2  0  0  0  0  0  0  0  0  0
   20.2126   74.9013    1.0611 H   0  0  0  0  0  0  0  0  0  0  0  0
   22.5352   75.6741    1.8017 H   0  0  0  0  0  0  0  0  0  0  0  0
   22.6354   71.9097    4.8734 O   0  0  0  0  0  0  0  0  0  0  0  0
   26.9825   70.4636    4.3685 O   0  0  0  0  0  0  0  0  0  0  0  0
   23.5555   71.9053    2.7259 N   0  0  0  0  0  0  0  0  0  0  0  0
   24.8006   71.1909    4.6195 N   0  0  0  0  0  0  0  0  0  0  0  0
   23.5879   71.6875    4.1236 C   0  0  0  0  0  0  0  0  0  0  0  0
   24.6742   71.6265    1.9503 C   0  0  0  0  0  0  0  0  0  0  0  0
   25.8231   71.1534    2.4372 C   0  0  0  0  0  0  0  0  0  0  0  0
   25.9405   70.8990    3.8881 C   0  0  0  0  0  0  0  0  0  0  0  0
   24.8479   71.0332    5.5901 H   0  0  0  0  0  0  0  0  0  0  0  0
   21.1271   71.5806   -4.6425 O   0  0  0  0  0  0  0  0  0  0  0  0
   19.7369   72.4028   -4.5731 P   0  0  2  0  0  0  0  0  0  0  0  0
   20.2232   73.9417   -4.4476 O   0  0  0  0  0  0  0  0  0  0  0  0
   18.8109   71.9557   -3.4792 O   0  0  0  0  0  0  0  0  0  0  0  0
   19.1203   72.2906   -6.0596 O   0  0  0  0  0  0  0  0  0  0  0  0
   18.2060   70.5116   -7.3279 O   0  0  0  0  0  0  0  0  0  0  0  0
   20.3175   72.5954  -10.2032 O   0  0  0  0  0  0  0  0  0  0  0  0
   21.4635   72.1563   -7.5521 O   0  0  0  0  0  0  0  0  0  0  0  0
   17.4201   72.8011  -10.0851 O   0  0  0  0  0  0  0  0  0  0  0  0
   19.5464   72.4363   -9.0124 C   0  0  2  0  0  0  0  0  0  0  0  0
   20.2890   71.5188   -8.0407 C   0  0  2  0  0  0  0  0  0  0  0  0
   18.1992   71.8224   -9.3998 C   0  0  1  0  0  0  0  0  0  0  0  0
   19.3984   71.1405   -6.8564 C   0  0  1  0  0  0  0  0  0  0  0  0
   17.4251   71.3564   -8.1702 C   0  0  1  0  0  0  0  0  0  0  0  0
   21.1784   72.9841   -9.9817 H   0  0  0  0  0  0  0  0  0  0  0  0
   22.0332   72.3993   -8.2983 H   0  0  0  0  0  0  0  0  0  0  0  0
   17.9017   73.1062  -10.8699 H   0  0  0  0  0  0  0  0  0  0  0  0
   15.5755   70.0939   -7.4726 O   0  0  0  0  0  0  0  0  0  0  0  0
   16.0182   70.1421   -9.7089 O   0  0  0  0  0  0  0  0  0  0  0  0
   16.2843   70.4755   -8.5639 C   0  0  0  0  0  0  0  0  0  0  0  0
  1  4  1  0
  1 24  1  0
  1  2  1  1
  1  3  2  0
 25 28  1  0
 25 24  1  0
 25 26  1  1
 25 27  2  0
  6 11  1  0
  6 12  1  0
 29 36  1  0
 29 37  1  0
  9  7  1  1
  7 13  1  0
 10  8  1  1
  8 14  1  0
  4  5  1  0
 36 28  1  6
 33 30  1  6
 30 38  1  0
 34 31  1  1
 31 39  1  0
 35 32  1  1
 32 40  1  0
 41 43  1  0
 15 19  2  0
 42 43  2  0
 16 22  2  0
 12 17  1  6
 17 19  1  0
 17 20  1  0
 18 19  1  0
 18 22  1  0
 18 23  1  0
  9 10  1  0
  9 11  1  0
 10 12  1  0
 11  5  1  6
 33 34  1  0
 33 35  1  0
 34 36  1  0
 35 37  1  0
 37 43  1  6
 20 21  2  0
 21 22  1  0
M  CHG  3   2  -1  26  -1  41  -1
M  END
>  <COMPND>  (130) 
    udp_gluA.pdb 

>  <AUTHOR>  (130) 
    GENERATED BY OPEN BABEL 3.1.1

>  <MASTER>  (130) 
        0    0    0    0    0    0    0    0   56    0   56    0

>  <minimizedAffinity>  (130) 
-6.31874

>  <CNNscore>  (130) 
0.4349887371

>  <CNNaffinity>  (130) 
3.8213500977

>  <CNN_VS>  (130) 
1.6622442007

>  <CNNaffinity_variance>  (130) 
0.0589851625

$$$$
131
     RDKit          3D

 43 45  0  0  0  0  0  0  0  0999 V2000
   21.6948   74.2649   -5.0944 P   0  0  2  0  0  0  0  0  0  0  0  0
   21.5826   74.6322   -6.6665 O   0  0  0  0  0  0  0  0  0  0  0  0
   20.8929   75.1435   -4.1797 O   0  0  0  0  0  0  0  0  0  0  0  0
   23.2884   74.2300   -4.8164 O   0  0  0  0  0  0  0  0  0  0  0  0
   23.7989   73.2509   -3.9303 C   0  0  0  0  0  0  0  0  0  0  0  0
   25.1705   73.9033   -2.0674 O   0  0  0  0  0  0  0  0  0  0  0  0
   27.5213   73.2001   -3.7911 O   0  0  0  0  0  0  0  0  0  0  0  0
   27.3007   71.0212   -2.1664 O   0  0  0  0  0  0  0  0  0  0  0  0
   26.2411   72.5732   -3.7092 C   0  0  1  0  0  0  0  0  0  0  0  0
   26.1322   71.7687   -2.4313 C   0  0  2  0  0  0  0  0  0  0  0  0
   25.1984   73.6611   -3.4907 C   0  0  1  0  0  0  0  0  0  0  0  0
   25.8843   72.8528   -1.3963 C   0  0  2  0  0  0  0  0  0  0  0  0
   28.2040   72.5248   -3.9306 H   0  0  0  0  0  0  0  0  0  0  0  0
   27.4141   70.3444   -2.8527 H   0  0  0  0  0  0  0  0  0  0  0  0
   26.9506   71.6488    0.9254 O   0  0  0  0  0  0  0  0  0  0  0  0
   22.7679   71.0973    2.7815 O   0  0  0  0  0  0  0  0  0  0  0  0
   25.0967   72.3853   -0.2909 N   0  0  0  0  0  0  0  0  0  0  0  0
   24.8663   71.3744    1.8471 N   0  0  0  0  0  0  0  0  0  0  0  0
   25.7307   71.7951    0.8279 C   0  0  0  0  0  0  0  0  0  0  0  0
   23.7135   72.5149   -0.3209 C   0  0  0  0  0  0  0  0  0  0  0  0
   22.9027   72.1091    0.6582 C   0  0  0  0  0  0  0  0  0  0  0  0
   23.4850   71.4811    1.8624 C   0  0  0  0  0  0  0  0  0  0  0  0
   25.2844   70.9585    2.6355 H   0  0  0  0  0  0  0  0  0  0  0  0
   21.2851   72.7017   -5.0568 O   0  0  0  0  0  0  0  0  0  0  0  0
   21.1255   71.6174   -6.2453 P   0  0  2  0  0  0  0  0  0  0  0  0
   20.7817   70.2483   -5.4531 O   0  0  0  0  0  0  0  0  0  0  0  0
   22.3150   71.5227   -7.1563 O   0  0  0  0  0  0  0  0  0  0  0  0
   19.7477   72.0181   -6.9826 O   0  0  0  0  0  0  0  0  0  0  0  0
   18.2284   70.8665   -8.3878 O   0  0  0  0  0  0  0  0  0  0  0  0
   18.3108   74.6118  -10.1296 O   0  0  0  0  0  0  0  0  0  0  0  0
   20.7779   73.3612   -9.1897 O   0  0  0  0  0  0  0  0  0  0  0  0
   16.0307   73.8017   -8.5184 O   0  0  0  0  0  0  0  0  0  0  0  0
   18.3754   73.6716   -9.0573 C   0  0  2  0  0  0  0  0  0  0  0  0
   19.5258   72.6947   -9.3019 C   0  0  2  0  0  0  0  0  0  0  0  0
   17.0424   72.9218   -9.0049 C   0  0  1  0  0  0  0  0  0  0  0  0
   19.4849   71.5396   -8.3005 C   0  0  1  0  0  0  0  0  0  0  0  0
   17.1207   71.7102   -8.0805 C   0  0  1  0  0  0  0  0  0  0  0  0
   19.1473   75.1004  -10.1823 H   0  0  0  0  0  0  0  0  0  0  0  0
   20.8107   74.0955   -9.8221 H   0  0  0  0  0  0  0  0  0  0  0  0
   15.9707   74.5772   -9.0979 H   0  0  0  0  0  0  0  0  0  0  0  0
   14.8601   71.2820   -7.6248 O   0  0  0  0  0  0  0  0  0  0  0  0
   15.9539   69.7884   -8.9560 O   0  0  0  0  0  0  0  0  0  0  0  0
   15.9462   70.8098   -8.2854 C   0  0  0  0  0  0  0  0  0  0  0  0
  1  4  1  0
  1 24  1  0
  1  2  1  6
  1  3  2  0
 25 28  1  0
 25 24  1  0
 25 26  1  1
 25 27  2  0
  6 11  1  0
  6 12  1  0
 29 36  1  0
 29 37  1  0
  9  7  1  1
  7 13  1  0
 10  8  1  1
  8 14  1  0
  4  5  1  0
 36 28  1  1
 33 30  1  6
 30 38  1  0
 34 31  1  1
 31 39  1  0
 35 32  1  1
 32 40  1  0
 41 43  1  0
 15 19  2  0
 42 43  2  0
 16 22  2  0
 12 17  1  1
 17 19  1  0
 17 20  1  0
 18 19  1  0
 18 22  1  0
 18 23  1  0
  9 10  1  0
  9 11  1  0
 10 12  1  0
 11  5  1  1
 33 34  1  0
 33 35  1  0
 34 36  1  0
 35 37  1  0
 37 43  1  6
 20 21  2  0
 21 22  1  0
M  CHG  3   2  -1  26  -1  41  -1
M  END
>  <COMPND>  (131) 
    udp_gluA.pdb 

>  <AUTHOR>  (131) 
    GENERATED BY OPEN BABEL 3.1.1

>  <MASTER>  (131) 
        0    0    0    0    0    0    0    0   56    0   56    0

>  <minimizedAffinity>  (131) 
-6.33435

>  <CNNscore>  (131) 
0.4199055731

>  <CNNaffinity>  (131) 
4.0805912018

>  <CNN_VS>  (131) 
1.7134629488

>  <CNNaffinity_variance>  (131) 
0.0989011973

$$$$
132
     RDKit          3D

 43 45  0  0  0  0  0  0  0  0999 V2000
   22.3975   72.9950   -5.3234 P   0  0  2  0  0  0  0  0  0  0  0  0
   22.6321   71.9050   -6.4963 O   0  0  0  0  0  0  0  0  0  0  0  0
   22.2014   74.4048   -5.7987 O   0  0  0  0  0  0  0  0  0  0  0  0
   23.6437   72.7591   -4.3188 O   0  0  0  0  0  0  0  0  0  0  0  0
   24.1866   71.4562   -4.2094 C   0  0  0  0  0  0  0  0  0  0  0  0
   25.7886   70.1281   -3.0062 O   0  0  0  0  0  0  0  0  0  0  0  0
   26.6533   72.6868   -1.7036 O   0  0  0  0  0  0  0  0  0  0  0  0
   28.5747   72.3049   -3.6005 O   0  0  0  0  0  0  0  0  0  0  0  0
   26.2131   72.4582   -3.0424 C   0  0  1  0  0  0  0  0  0  0  0  0
   27.2945   71.7575   -3.8373 C   0  0  2  0  0  0  0  0  0  0  0  0
   25.1142   71.4051   -3.0022 C   0  0  1  0  0  0  0  0  0  0  0  0
   27.1705   70.3258   -3.3446 C   0  0  2  0  0  0  0  0  0  0  0  0
   27.3557   73.3564   -1.7037 H   0  0  0  0  0  0  0  0  0  0  0  0
   28.6028   73.2167   -3.9320 H   0  0  0  0  0  0  0  0  0  0  0  0
   26.6784   67.5508   -3.1607 O   0  0  0  0  0  0  0  0  0  0  0  0
   28.6630   66.7433   -7.2415 O   0  0  0  0  0  0  0  0  0  0  0  0
   27.5479   69.3675   -4.3447 N   0  0  0  0  0  0  0  0  0  0  0  0
   27.6682   67.1512   -5.1929 N   0  0  0  0  0  0  0  0  0  0  0  0
   27.2542   67.9965   -4.1551 C   0  0  0  0  0  0  0  0  0  0  0  0
   28.1994   69.7884   -5.4977 C   0  0  0  0  0  0  0  0  0  0  0  0
   28.5878   68.9708   -6.4783 C   0  0  0  0  0  0  0  0  0  0  0  0
   28.3197   67.5227   -6.3579 C   0  0  0  0  0  0  0  0  0  0  0  0
   27.4765   66.1918   -5.0825 H   0  0  0  0  0  0  0  0  0  0  0  0
   21.1476   72.3813   -4.5024 O   0  0  0  0  0  0  0  0  0  0  0  0
   19.9833   71.3542   -4.9530 P   0  0  2  0  0  0  0  0  0  0  0  0
   18.8692   71.5252   -3.7911 O   0  0  0  0  0  0  0  0  0  0  0  0
   20.4523   69.9427   -5.1570 O   0  0  0  0  0  0  0  0  0  0  0  0
   19.3196   72.0341   -6.2567 O   0  0  0  0  0  0  0  0  0  0  0  0
   18.2823   70.5275   -7.7611 O   0  0  0  0  0  0  0  0  0  0  0  0
   18.3153   74.0237   -9.9619 O   0  0  0  0  0  0  0  0  0  0  0  0
   20.6452   73.2480   -8.3794 O   0  0  0  0  0  0  0  0  0  0  0  0
   15.8468   73.0901   -8.7428 O   0  0  0  0  0  0  0  0  0  0  0  0
   18.2519   73.2305   -8.7766 C   0  0  2  0  0  0  0  0  0  0  0  0
   19.5311   72.4036   -8.6452 C   0  0  2  0  0  0  0  0  0  0  0  0
   17.0332   72.3115   -8.8873 C   0  0  1  0  0  0  0  0  0  0  0  0
   19.4052   71.3761   -7.5194 C   0  0  1  0  0  0  0  0  0  0  0  0
   17.0460   71.2365   -7.8043 C   0  0  1  0  0  0  0  0  0  0  0  0
   19.0824   74.6158   -9.9142 H   0  0  0  0  0  0  0  0  0  0  0  0
   20.7309   73.9026   -9.0896 H   0  0  0  0  0  0  0  0  0  0  0  0
   15.8265   73.7782   -9.4261 H   0  0  0  0  0  0  0  0  0  0  0  0
   15.8025   70.1094   -9.4430 O   0  0  0  0  0  0  0  0  0  0  0  0
   15.5373   69.4271   -7.2835 O   0  0  0  0  0  0  0  0  0  0  0  0
   16.0539   70.1624   -8.1114 C   0  0  0  0  0  0  0  0  0  0  0  0
  1  4  1  0
  1 24  1  0
  1  2  1  6
  1  3  2  0
 25 28  1  0
 25 24  1  0
 25 26  1  1
 25 27  2  0
  6 11  1  0
  6 12  1  0
 29 36  1  0
 29 37  1  0
  9  7  1  1
  7 13  1  0
 10  8  1  1
  8 14  1  0
  4  5  1  0
 36 28  1  1
 33 30  1  6
 30 38  1  0
 34 31  1  1
 31 39  1  0
 35 32  1  1
 32 40  1  0
 41 43  1  0
 15 19  2  0
 42 43  2  0
 16 22  2  0
 12 17  1  6
 17 19  1  0
 17 20  1  0
 18 19  1  0
 18 22  1  0
 18 23  1  0
  9 10  1  0
  9 11  1  0
 10 12  1  0
 11  5  1  6
 33 34  1  0
 33 35  1  0
 34 36  1  0
 35 37  1  0
 37 43  1  6
 20 21  2  0
 21 22  1  0
M  CHG  3   2  -1  26  -1  41  -1
M  END
>  <COMPND>  (132) 
    udp_gluA.pdb 

>  <AUTHOR>  (132) 
    GENERATED BY OPEN BABEL 3.1.1

>  <MASTER>  (132) 
        0    0    0    0    0    0    0    0   56    0   56    0

>  <minimizedAffinity>  (132) 
-7.38278

>  <CNNscore>  (132) 
0.4000226259

>  <CNNaffinity>  (132) 
4.3252596855

>  <CNN_VS>  (132) 
1.7302017212

>  <CNNaffinity_variance>  (132) 
0.0291845761

$$$$
133
     RDKit          3D

 43 45  0  0  0  0  0  0  0  0999 V2000
   21.7009   72.4064   -5.4575 P   0  0  2  0  0  0  0  0  0  0  0  0
   23.1245   72.5575   -6.2120 O   0  0  0  0  0  0  0  0  0  0  0  0
   21.2015   73.6548   -4.7911 O   0  0  0  0  0  0  0  0  0  0  0  0
   21.9086   71.1276   -4.4883 O   0  0  0  0  0  0  0  0  0  0  0  0
   23.1376   70.4271   -4.5472 C   0  0  0  0  0  0  0  0  0  0  0  0
   24.8559   69.4824   -3.1570 O   0  0  0  0  0  0  0  0  0  0  0  0
   24.5401   71.9157   -1.4335 O   0  0  0  0  0  0  0  0  0  0  0  0
   26.7818   72.4932   -2.8748 O   0  0  0  0  0  0  0  0  0  0  0  0
   24.4523   71.7966   -2.8536 C   0  0  1  0  0  0  0  0  0  0  0  0
   25.8323   71.6210   -3.4511 C   0  0  2  0  0  0  0  0  0  0  0  0
   23.7944   70.4613   -3.1732 C   0  0  1  0  0  0  0  0  0  0  0  0
   26.1223   70.1602   -3.1511 C   0  0  2  0  0  0  0  0  0  0  0  0
   24.9574   72.7614   -1.2048 H   0  0  0  0  0  0  0  0  0  0  0  0
   26.5534   73.4105   -3.0946 H   0  0  0  0  0  0  0  0  0  0  0  0
   26.6813   67.3959   -3.3010 O   0  0  0  0  0  0  0  0  0  0  0  0
   29.4223   67.9631   -6.9629 O   0  0  0  0  0  0  0  0  0  0  0  0
   26.9786   69.5585   -4.1337 N   0  0  0  0  0  0  0  0  0  0  0  0
   28.0468   67.6812   -5.1241 N   0  0  0  0  0  0  0  0  0  0  0  0
   27.1934   68.1600   -4.1213 C   0  0  0  0  0  0  0  0  0  0  0  0
   27.5935   70.3502   -5.0960 C   0  0  0  0  0  0  0  0  0  0  0  0
   28.4042   69.8794   -6.0456 C   0  0  0  0  0  0  0  0  0  0  0  0
   28.6818   68.4291   -6.1022 C   0  0  0  0  0  0  0  0  0  0  0  0
   28.2131   66.7108   -5.1345 H   0  0  0  0  0  0  0  0  0  0  0  0
   20.7346   71.8298   -6.6179 O   0  0  0  0  0  0  0  0  0  0  0  0
   20.4824   72.3293   -8.1347 P   0  0  2  0  0  0  0  0  0  0  0  0
   21.3174   71.2614   -9.0194 O   0  0  0  0  0  0  0  0  0  0  0  0
   20.8555   73.7625   -8.3811 O   0  0  0  0  0  0  0  0  0  0  0  0
   18.9351   71.9802   -8.4287 O   0  0  0  0  0  0  0  0  0  0  0  0
   17.5978   70.3917   -7.2896 O   0  0  0  0  0  0  0  0  0  0  0  0
   15.8114   70.4787  -11.0138 O   0  0  0  0  0  0  0  0  0  0  0  0
   18.7223   70.4894  -10.7671 O   0  0  0  0  0  0  0  0  0  0  0  0
   14.5512   71.8132   -8.7594 O   0  0  0  0  0  0  0  0  0  0  0  0
   16.5196   71.0131   -9.8954 C   0  0  2  0  0  0  0  0  0  0  0  0
   17.8212   70.2364   -9.6953 C   0  0  2  0  0  0  0  0  0  0  0  0
   15.6248   70.8792   -8.6611 C   0  0  1  0  0  0  0  0  0  0  0  0
   18.4931   70.6250   -8.3775 C   0  0  1  0  0  0  0  0  0  0  0  0
   16.4004   71.1609   -7.3775 C   0  0  1  0  0  0  0  0  0  0  0  0
   16.3607   70.5530  -11.8100 H   0  0  0  0  0  0  0  0  0  0  0  0
   18.3023   70.2454  -11.6064 H   0  0  0  0  0  0  0  0  0  0  0  0
   14.0496   71.6448   -9.5724 H   0  0  0  0  0  0  0  0  0  0  0  0
   15.4161   71.7501   -5.3317 O   0  0  0  0  0  0  0  0  0  0  0  0
   15.2299   69.5741   -5.9871 O   0  0  0  0  0  0  0  0  0  0  0  0
   15.6258   70.7137   -6.1807 C   0  0  0  0  0  0  0  0  0  0  0  0
  1  4  1  0
  1 24  1  0
  1  2  1  6
  1  3  2  0
 25 28  1  0
 25 24  1  0
 25 26  1  6
 25 27  2  0
  6 11  1  0
  6 12  1  0
 29 36  1  0
 29 37  1  0
  9  7  1  1
  7 13  1  0
 10  8  1  1
  8 14  1  0
  4  5  1  0
 36 28  1  6
 33 30  1  6
 30 38  1  0
 34 31  1  6
 31 39  1  0
 35 32  1  6
 32 40  1  0
 41 43  1  0
 15 19  2  0
 42 43  2  0
 16 22  2  0
 12 17  1  6
 17 19  1  0
 17 20  1  0
 18 19  1  0
 18 22  1  0
 18 23  1  0
  9 10  1  0
  9 11  1  0
 10 12  1  0
 11  5  1  6
 33 34  1  0
 33 35  1  0
 34 36  1  0
 35 37  1  0
 37 43  1  1
 20 21  2  0
 21 22  1  0
M  CHG  3   2  -1  26  -1  41  -1
M  END
>  <COMPND>  (133) 
    udp_gluA.pdb 

>  <AUTHOR>  (133) 
    GENERATED BY OPEN BABEL 3.1.1

>  <MASTER>  (133) 
        0    0    0    0    0    0    0    0   56    0   56    0

>  <minimizedAffinity>  (133) 
-7.14786

>  <CNNscore>  (133) 
0.3986547589

>  <CNNaffinity>  (133) 
4.2912650108

>  <CNN_VS>  (133) 
1.7107331753

>  <CNNaffinity_variance>  (133) 
0.0155226979

$$$$
134
     RDKit          3D

 43 45  0  0  0  0  0  0  0  0999 V2000
   21.2588   72.3470   -6.2997 P   0  0  2  0  0  0  0  0  0  0  0  0
   21.8523   73.8526   -6.2942 O   0  0  0  0  0  0  0  0  0  0  0  0
   19.9427   72.1823   -5.5980 O   0  0  0  0  0  0  0  0  0  0  0  0
   22.4766   71.4473   -5.7294 O   0  0  0  0  0  0  0  0  0  0  0  0
   22.8130   71.5558   -4.3584 C   0  0  0  0  0  0  0  0  0  0  0  0
   24.0521   73.0308   -2.9209 O   0  0  0  0  0  0  0  0  0  0  0  0
   26.4127   72.4597   -4.6795 O   0  0  0  0  0  0  0  0  0  0  0  0
   26.8736   70.8547   -2.5237 O   0  0  0  0  0  0  0  0  0  0  0  0
   25.3555   71.5894   -4.2752 C   0  0  1  0  0  0  0  0  0  0  0  0
   25.5344   71.1849   -2.8272 C   0  0  2  0  0  0  0  0  0  0  0  0
   24.0706   72.4045   -4.2219 C   0  0  1  0  0  0  0  0  0  0  0  0
   25.0569   72.4256   -2.0919 C   0  0  2  0  0  0  0  0  0  0  0  0
   27.2444   71.9614   -4.7208 H   0  0  0  0  0  0  0  0  0  0  0  0
   27.1298   70.0585   -3.0160 H   0  0  0  0  0  0  0  0  0  0  0  0
   26.5471   72.0770    0.2818 O   0  0  0  0  0  0  0  0  0  0  0  0
   22.7506   71.2457    2.7595 O   0  0  0  0  0  0  0  0  0  0  0  0
   24.4833   72.1174   -0.8125 N   0  0  0  0  0  0  0  0  0  0  0  0
   24.6549   71.6623    1.5134 N   0  0  0  0  0  0  0  0  0  0  0  0
   25.3205   71.9624    0.3176 C   0  0  0  0  0  0  0  0  0  0  0  0
   23.1069   71.9737   -0.6860 C   0  0  0  0  0  0  0  0  0  0  0  0
   22.4870   71.6875    0.4605 C   0  0  0  0  0  0  0  0  0  0  0  0
   23.2891   71.5089    1.6886 C   0  0  0  0  0  0  0  0  0  0  0  0
   25.2170   71.5477    2.3135 H   0  0  0  0  0  0  0  0  0  0  0  0
   21.2352   71.9720   -7.8719 O   0  0  0  0  0  0  0  0  0  0  0  0
   20.4766   72.6687   -9.1180 P   0  0  2  0  0  0  0  0  0  0  0  0
   21.0695   71.8788  -10.4004 O   0  0  0  0  0  0  0  0  0  0  0  0
   20.6380   74.1600   -9.1814 O   0  0  0  0  0  0  0  0  0  0  0  0
   18.9485   72.1652   -9.0003 O   0  0  0  0  0  0  0  0  0  0  0  0
   18.0045   70.4998   -7.6058 O   0  0  0  0  0  0  0  0  0  0  0  0
   15.6141   70.2374  -10.9652 O   0  0  0  0  0  0  0  0  0  0  0  0
   18.5060   70.5580  -11.2268 O   0  0  0  0  0  0  0  0  0  0  0  0
   14.6166   71.5341   -8.5622 O   0  0  0  0  0  0  0  0  0  0  0  0
   16.4392   70.8908  -10.0007 C   0  0  2  0  0  0  0  0  0  0  0  0
   17.8326   70.2617  -10.0089 C   0  0  2  0  0  0  0  0  0  0  0  0
   15.7864   70.7207   -8.6270 C   0  0  1  0  0  0  0  0  0  0  0  0
   18.6717   70.7753   -8.8380 C   0  0  1  0  0  0  0  0  0  0  0  0
   16.7330   71.1372   -7.5050 C   0  0  1  0  0  0  0  0  0  0  0  0
   16.0092   70.3323  -11.8462 H   0  0  0  0  0  0  0  0  0  0  0  0
   17.9790   70.2351  -11.9740 H   0  0  0  0  0  0  0  0  0  0  0  0
   14.0058   71.2792   -9.2713 H   0  0  0  0  0  0  0  0  0  0  0  0
   15.2680   69.7204   -6.3440 O   0  0  0  0  0  0  0  0  0  0  0  0
   16.6162   71.0708   -5.0960 O   0  0  0  0  0  0  0  0  0  0  0  0
   16.2257   70.6664   -6.1808 C   0  0  0  0  0  0  0  0  0  0  0  0
  1  4  1  0
  1 24  1  0
  1  2  1  6
  1  3  2  0
 25 28  1  0
 25 24  1  0
 25 26  1  6
 25 27  2  0
  6 11  1  0
  6 12  1  0
 29 36  1  0
 29 37  1  0
  9  7  1  1
  7 13  1  0
 10  8  1  6
  8 14  1  0
  4  5  1  0
 36 28  1  6
 33 30  1  6
 30 38  1  0
 34 31  1  6
 31 39  1  0
 35 32  1  6
 32 40  1  0
 41 43  1  0
 15 19  2  0
 42 43  2  0
 16 22  2  0
 12 17  1  1
 17 19  1  0
 17 20  1  0
 18 19  1  0
 18 22  1  0
 18 23  1  0
  9 10  1  0
  9 11  1  0
 10 12  1  0
 11  5  1  1
 33 34  1  0
 33 35  1  0
 34 36  1  0
 35 37  1  0
 37 43  1  1
 20 21  2  0
 21 22  1  0
M  CHG  3   2  -1  26  -1  41  -1
M  END
>  <COMPND>  (134) 
    udp_gluA.pdb 

>  <AUTHOR>  (134) 
    GENERATED BY OPEN BABEL 3.1.1

>  <MASTER>  (134) 
        0    0    0    0    0    0    0    0   56    0   56    0

>  <minimizedAffinity>  (134) 
-7.00444

>  <CNNscore>  (134) 
0.3664190173

>  <CNNaffinity>  (134) 
4.0293564796

>  <CNN_VS>  (134) 
1.4764328003

>  <CNNaffinity_variance>  (134) 
0.1594305784

$$$$
135
     RDKit          3D

 43 45  0  0  0  0  0  0  0  0999 V2000
   24.9310   72.9802    0.5739 P   0  0  2  0  0  0  0  0  0  0  0  0
   25.7749   74.2971    0.9891 O   0  0  0  0  0  0  0  0  0  0  0  0
   23.6106   73.2552   -0.0839 O   0  0  0  0  0  0  0  0  0  0  0  0
   24.8691   72.1123    1.9380 O   0  0  0  0  0  0  0  0  0  0  0  0
   25.9594   71.2647    2.2501 C   0  0  0  0  0  0  0  0  0  0  0  0
   27.4910   70.6427    3.9951 O   0  0  0  0  0  0  0  0  0  0  0  0
   26.4707   73.0348    5.4880 O   0  0  0  0  0  0  0  0  0  0  0  0
   28.8389   73.9301    4.4751 O   0  0  0  0  0  0  0  0  0  0  0  0
   26.6862   72.8686    4.0864 C   0  0  1  0  0  0  0  0  0  0  0  0
   28.1677   72.9027    3.7761 C   0  0  2  0  0  0  0  0  0  0  0  0
   26.3169   71.4375    3.7207 C   0  0  1  0  0  0  0  0  0  0  0  0
   28.6121   71.5154    4.2070 C   0  0  2  0  0  0  0  0  0  0  0  0
   26.6999   73.9419    5.7454 H   0  0  0  0  0  0  0  0  0  0  0  0
   28.5213   74.7931    4.1648 H   0  0  0  0  0  0  0  0  0  0  0  0
   31.2005   71.0945    5.2557 O   0  0  0  0  0  0  0  0  0  0  0  0
   32.8183   69.6716    1.1811 O   0  0  0  0  0  0  0  0  0  0  0  0
   29.7284   71.0355    3.4424 N   0  0  0  0  0  0  0  0  0  0  0  0
   32.0040   70.3872    3.2251 N   0  0  0  0  0  0  0  0  0  0  0  0
   30.9866   70.8587    4.0651 C   0  0  0  0  0  0  0  0  0  0  0  0
   29.5707   70.7439    2.0930 C   0  0  0  0  0  0  0  0  0  0  0  0
   30.5499   70.2950    1.3052 C   0  0  0  0  0  0  0  0  0  0  0  0
   31.8957   70.0839    1.8776 C   0  0  0  0  0  0  0  0  0  0  0  0
   32.8896   70.2582    3.6356 H   0  0  0  0  0  0  0  0  0  0  0  0
   25.9774   72.1509   -0.3373 O   0  0  0  0  0  0  0  0  0  0  0  0
   25.9960   71.8509   -1.9258 P   0  0  2  0  0  0  0  0  0  0  0  0
   26.2813   73.3066   -2.5738 O   0  0  0  0  0  0  0  0  0  0  0  0
   24.7567   71.1773   -2.4398 O   0  0  0  0  0  0  0  0  0  0  0  0
   27.3586   71.0224   -2.1698 O   0  0  0  0  0  0  0  0  0  0  0  0
   29.3694   72.0228   -2.9216 O   0  0  0  0  0  0  0  0  0  0  0  0
   29.9402   68.0754   -3.9989 O   0  0  0  0  0  0  0  0  0  0  0  0
   27.3470   69.3596   -4.3994 O   0  0  0  0  0  0  0  0  0  0  0  0
   31.3204   69.1712   -1.6868 O   0  0  0  0  0  0  0  0  0  0  0  0
   29.4451   69.1495   -3.1994 C   0  0  2  0  0  0  0  0  0  0  0  0
   28.5431   70.0457   -4.0484 C   0  0  2  0  0  0  0  0  0  0  0  0
   30.6452   69.9432   -2.6781 C   0  0  1  0  0  0  0  0  0  0  0  0
   28.1800   71.3266   -3.2957 C   0  0  1  0  0  0  0  0  0  0  0  0
   30.2096   71.2656   -2.0534 C   0  0  1  0  0  0  0  0  0  0  0  0
   29.1952   67.5568   -4.3413 H   0  0  0  0  0  0  0  0  0  0  0  0
   27.5700   68.5457   -4.8771 H   0  0  0  0  0  0  0  0  0  0  0  0
   31.6027   68.3268   -2.0716 H   0  0  0  0  0  0  0  0  0  0  0  0
   31.0937   73.4282   -2.2602 O   0  0  0  0  0  0  0  0  0  0  0  0
   32.4571   71.8271   -1.3788 O   0  0  0  0  0  0  0  0  0  0  0  0
   31.3828   72.1683   -1.8505 C   0  0  0  0  0  0  0  0  0  0  0  0
  1  4  1  0
  1 24  1  0
  1  2  1  1
  1  3  2  0
 25 28  1  0
 25 24  1  0
 25 26  1  6
 25 27  2  0
  6 11  1  0
  6 12  1  0
 29 36  1  0
 29 37  1  0
  9  7  1  1
  7 13  1  0
 10  8  1  1
  8 14  1  0
  4  5  1  0
 36 28  1  1
 33 30  1  6
 30 38  1  0
 34 31  1  1
 31 39  1  0
 35 32  1  1
 32 40  1  0
 41 43  1  0
 15 19  2  0
 42 43  2  0
 16 22  2  0
 12 17  1  6
 17 19  1  0
 17 20  1  0
 18 19  1  0
 18 22  1  0
 18 23  1  0
  9 10  1  0
  9 11  1  0
 10 12  1  0
 11  5  1  6
 33 34  1  0
 33 35  1  0
 34 36  1  0
 35 37  1  0
 37 43  1  6
 20 21  2  0
 21 22  1  0
M  CHG  3   2  -1  26  -1  41  -1
M  END
>  <COMPND>  (135) 
    udp_gluA.pdb 

>  <AUTHOR>  (135) 
    GENERATED BY OPEN BABEL 3.1.1

>  <MASTER>  (135) 
        0    0    0    0    0    0    0    0   56    0   56    0

>  <minimizedAffinity>  (135) 
-6.05538

>  <CNNscore>  (135) 
0.3443054557

>  <CNNaffinity>  (135) 
3.7286477089

>  <CNN_VS>  (135) 
1.2837938070

>  <CNNaffinity_variance>  (135) 
0.5297049284

$$$$
136
     RDKit          3D

 43 45  0  0  0  0  0  0  0  0999 V2000
   22.8033   73.9709   -5.2123 P   0  0  2  0  0  0  0  0  0  0  0  0
   22.0080   74.4901   -3.9020 O   0  0  0  0  0  0  0  0  0  0  0  0
   24.0958   74.6803   -5.4914 O   0  0  0  0  0  0  0  0  0  0  0  0
   21.6964   74.0380   -6.3906 O   0  0  0  0  0  0  0  0  0  0  0  0
   20.7512   72.9886   -6.4908 C   0  0  0  0  0  0  0  0  0  0  0  0
   20.1458   71.1154   -7.8701 O   0  0  0  0  0  0  0  0  0  0  0  0
   20.6438   72.9182  -10.2140 O   0  0  0  0  0  0  0  0  0  0  0  0
   17.9249   72.9484  -10.0061 O   0  0  0  0  0  0  0  0  0  0  0  0
   20.0898   73.2303   -8.9356 C   0  0  1  0  0  0  0  0  0  0  0  0
   18.6744   72.7024   -8.8346 C   0  0  2  0  0  0  0  0  0  0  0  0
   20.8171   72.3938   -7.8917 C   0  0  1  0  0  0  0  0  0  0  0  0
   18.9070   71.2212   -8.5895 C   0  0  2  0  0  0  0  0  0  0  0  0
   20.1948   73.4407  -10.8975 H   0  0  0  0  0  0  0  0  0  0  0  0
   17.8039   73.9049  -10.1175 H   0  0  0  0  0  0  0  0  0  0  0  0
   16.5898   70.0259   -9.6749 O   0  0  0  0  0  0  0  0  0  0  0  0
   14.9599   68.9621   -5.4969 O   0  0  0  0  0  0  0  0  0  0  0  0
   17.8610   70.6243   -7.8082 N   0  0  0  0  0  0  0  0  0  0  0  0
   15.7797   69.4981   -7.5929 N   0  0  0  0  0  0  0  0  0  0  0  0
   16.7388   70.0509   -8.4517 C   0  0  0  0  0  0  0  0  0  0  0  0
   17.9533   70.6091   -6.4218 C   0  0  0  0  0  0  0  0  0  0  0  0
   17.0310   70.0783   -5.6164 C   0  0  0  0  0  0  0  0  0  0  0  0
   15.8270   69.4597   -6.2088 C   0  0  0  0  0  0  0  0  0  0  0  0
   14.9884   69.0948   -8.0178 H   0  0  0  0  0  0  0  0  0  0  0  0
   22.9508   72.3840   -4.9422 O   0  0  0  0  0  0  0  0  0  0  0  0
   23.5337   71.5734   -3.6707 P   0  0  2  0  0  0  0  0  0  0  0  0
   23.0232   70.0596   -3.9315 O   0  0  0  0  0  0  0  0  0  0  0  0
   23.1305   72.1415   -2.3408 O   0  0  0  0  0  0  0  0  0  0  0  0
   25.1267   71.5143   -3.9183 O   0  0  0  0  0  0  0  0  0  0  0  0
   26.1945   69.5942   -3.0339 O   0  0  0  0  0  0  0  0  0  0  0  0
   29.4259   71.9402   -4.0933 O   0  0  0  0  0  0  0  0  0  0  0  0
   27.0937   73.1300   -2.7974 O   0  0  0  0  0  0  0  0  0  0  0  0
   28.6792   69.6587   -5.7329 O   0  0  0  0  0  0  0  0  0  0  0  0
   28.0989   71.4249   -4.2003 C   0  0  2  0  0  0  0  0  0  0  0  0
   27.3259   71.7313   -2.9172 C   0  0  2  0  0  0  0  0  0  0  0  0
   28.1947   69.9128   -4.4156 C   0  0  1  0  0  0  0  0  0  0  0  0
   25.9828   71.0002   -2.8998 C   0  0  1  0  0  0  0  0  0  0  0  0
   26.8339   69.2404   -4.2583 C   0  0  1  0  0  0  0  0  0  0  0  0
   29.3902   72.8999   -3.9559 H   0  0  0  0  0  0  0  0  0  0  0  0
   27.9417   73.6002   -2.8080 H   0  0  0  0  0  0  0  0  0  0  0  0
   29.5448   70.0815   -5.8462 H   0  0  0  0  0  0  0  0  0  0  0  0
   27.4366   67.2304   -5.3064 O   0  0  0  0  0  0  0  0  0  0  0  0
   26.7396   67.1050   -3.1390 O   0  0  0  0  0  0  0  0  0  0  0  0
   26.9848   67.7585   -4.1419 C   0  0  0  0  0  0  0  0  0  0  0  0
  1  4  1  0
  1 24  1  0
  1  2  1  1
  1  3  2  0
 25 28  1  0
 25 24  1  0
 25 26  1  1
 25 27  2  0
  6 11  1  0
  6 12  1  0
 29 36  1  0
 29 37  1  0
  9  7  1  6
  7 13  1  0
 10  8  1  6
  8 14  1  0
  4  5  1  0
 36 28  1  6
 33 30  1  1
 30 38  1  0
 34 31  1  6
 31 39  1  0
 35 32  1  6
 32 40  1  0
 41 43  1  0
 15 19  2  0
 42 43  2  0
 16 22  2  0
 12 17  1  1
 17 19  1  0
 17 20  1  0
 18 19  1  0
 18 22  1  0
 18 23  1  0
  9 10  1  0
  9 11  1  0
 10 12  1  0
 11  5  1  1
 33 34  1  0
 33 35  1  0
 34 36  1  0
 35 37  1  0
 37 43  1  1
 20 21  2  0
 21 22  1  0
M  CHG  3   2  -1  26  -1  41  -1
M  END
>  <COMPND>  (136) 
    udp_gluA.pdb 

>  <AUTHOR>  (136) 
    GENERATED BY OPEN BABEL 3.1.1

>  <MASTER>  (136) 
        0    0    0    0    0    0    0    0   56    0   56    0

>  <minimizedAffinity>  (136) 
-6.97856

>  <CNNscore>  (136) 
0.3357322812

>  <CNNaffinity>  (136) 
4.0511431694

>  <CNN_VS>  (136) 
1.3600995541

>  <CNNaffinity_variance>  (136) 
0.0629239529

$$$$
137
     RDKit          3D

 43 45  0  0  0  0  0  0  0  0999 V2000
   31.1443   70.3576    0.1485 P   0  0  2  0  0  0  0  0  0  0  0  0
   31.9574   69.6665    1.3651 O   0  0  0  0  0  0  0  0  0  0  0  0
   31.6883   71.6800   -0.3067 O   0  0  0  0  0  0  0  0  0  0  0  0
   29.6103   70.3686    0.6632 O   0  0  0  0  0  0  0  0  0  0  0  0
   29.1214   71.5311    1.3068 C   0  0  0  0  0  0  0  0  0  0  0  0
   29.2892   70.5299    3.4856 O   0  0  0  0  0  0  0  0  0  0  0  0
   26.6354   71.7984    4.0684 O   0  0  0  0  0  0  0  0  0  0  0  0
   28.3859   73.4838    5.3058 O   0  0  0  0  0  0  0  0  0  0  0  0
   27.7236   72.2966    3.2898 C   0  0  1  0  0  0  0  0  0  0  0  0
   28.8512   72.7481    4.1937 C   0  0  2  0  0  0  0  0  0  0  0  0
   28.3541   71.1204    2.5570 C   0  0  1  0  0  0  0  0  0  0  0  0
   29.4855   71.4261    4.5909 C   0  0  2  0  0  0  0  0  0  0  0  0
   26.2165   72.5320    4.5460 H   0  0  0  0  0  0  0  0  0  0  0  0
   27.9913   74.3163    5.0006 H   0  0  0  0  0  0  0  0  0  0  0  0
   31.0168   69.5310    6.0192 O   0  0  0  0  0  0  0  0  0  0  0  0
   34.8761   72.0005    5.5181 O   0  0  0  0  0  0  0  0  0  0  0  0
   30.8925   71.5488    4.8483 N   0  0  0  0  0  0  0  0  0  0  0  0
   32.9373   70.7632    5.7692 N   0  0  0  0  0  0  0  0  0  0  0  0
   31.5676   70.5405    5.5760 C   0  0  0  0  0  0  0  0  0  0  0  0
   31.5890   72.6567    4.3808 C   0  0  0  0  0  0  0  0  0  0  0  0
   32.8946   72.8551    4.5727 C   0  0  0  0  0  0  0  0  0  0  0  0
   33.6737   71.8492    5.3242 C   0  0  0  0  0  0  0  0  0  0  0  0
   33.4283   70.0758    6.2749 H   0  0  0  0  0  0  0  0  0  0  0  0
   31.1389   69.2054   -0.9851 O   0  0  0  0  0  0  0  0  0  0  0  0
   30.9129   69.2902   -2.5837 P   0  0  2  0  0  0  0  0  0  0  0  0
   31.2991   67.8024   -3.0913 O   0  0  0  0  0  0  0  0  0  0  0  0
   31.6799   70.3916   -3.2565 O   0  0  0  0  0  0  0  0  0  0  0  0
   29.3127   69.3803   -2.7666 O   0  0  0  0  0  0  0  0  0  0  0  0
   29.0324   69.3765   -5.1184 O   0  0  0  0  0  0  0  0  0  0  0  0
   25.1235   69.1213   -3.8054 O   0  0  0  0  0  0  0  0  0  0  0  0
   27.0129   70.9201   -2.4905 O   0  0  0  0  0  0  0  0  0  0  0  0
   26.4622   66.7699   -4.8683 O   0  0  0  0  0  0  0  0  0  0  0  0
   26.5333   68.9034   -3.7511 C   0  0  2  0  0  0  0  0  0  0  0  0
   27.2584   70.2491   -3.7210 C   0  0  2  0  0  0  0  0  0  0  0  0
   26.9373   68.1088   -4.9950 C   0  0  1  0  0  0  0  0  0  0  0  0
   28.7663   70.0621   -3.8942 C   0  0  1  0  0  0  0  0  0  0  0  0
   28.4533   68.0744   -5.1660 C   0  0  1  0  0  0  0  0  0  0  0  0
   24.8436   69.6247   -3.0247 H   0  0  0  0  0  0  0  0  0  0  0  0
   26.0579   71.0418   -2.3740 H   0  0  0  0  0  0  0  0  0  0  0  0
   25.4985   66.7778   -4.7586 H   0  0  0  0  0  0  0  0  0  0  0  0
   27.7110   67.3421   -7.2671 O   0  0  0  0  0  0  0  0  0  0  0  0
   29.9650   67.4450   -6.9380 O   0  0  0  0  0  0  0  0  0  0  0  0
   28.8223   67.5929   -6.5314 C   0  0  0  0  0  0  0  0  0  0  0  0
  1  4  1  0
  1 24  1  0
  1  2  1  1
  1  3  2  0
 25 28  1  0
 25 24  1  0
 25 26  1  6
 25 27  2  0
  6 11  1  0
  6 12  1  0
 29 36  1  0
 29 37  1  0
  9  7  1  1
  7 13  1  0
 10  8  1  1
  8 14  1  0
  4  5  1  0
 36 28  1  1
 33 30  1  6
 30 38  1  0
 34 31  1  1
 31 39  1  0
 35 32  1  1
 32 40  1  0
 41 43  1  0
 15 19  2  0
 42 43  2  0
 16 22  2  0
 12 17  1  6
 17 19  1  0
 17 20  1  0
 18 19  1  0
 18 22  1  0
 18 23  1  0
  9 10  1  0
  9 11  1  0
 10 12  1  0
 11  5  1  6
 33 34  1  0
 33 35  1  0
 34 36  1  0
 35 37  1  0
 37 43  1  6
 20 21  2  0
 21 22  1  0
M  CHG  3   2  -1  26  -1  41  -1
M  END
>  <COMPND>  (137) 
    udp_gluA.pdb 

>  <AUTHOR>  (137) 
    GENERATED BY OPEN BABEL 3.1.1

>  <MASTER>  (137) 
        0    0    0    0    0    0    0    0   56    0   56    0

>  <minimizedAffinity>  (137) 
-7.60937

>  <CNNscore>  (137) 
0.3198293447

>  <CNNaffinity>  (137) 
3.9711594582

>  <CNN_VS>  (137) 
1.2700933218

>  <CNNaffinity_variance>  (137) 
0.0772291794

$$$$
138
     RDKit          3D

 43 45  0  0  0  0  0  0  0  0999 V2000
   28.4112   72.2924   -1.8765 P   0  0  2  0  0  0  0  0  0  0  0  0
   28.9002   71.8748   -0.3914 O   0  0  0  0  0  0  0  0  0  0  0  0
   29.4511   72.9720   -2.7182 O   0  0  0  0  0  0  0  0  0  0  0  0
   27.0560   73.1371   -1.6161 O   0  0  0  0  0  0  0  0  0  0  0  0
   26.4647   73.0873   -0.3307 C   0  0  0  0  0  0  0  0  0  0  0  0
   25.1859   71.6032    1.0620 O   0  0  0  0  0  0  0  0  0  0  0  0
   23.3489   71.2826   -1.2862 O   0  0  0  0  0  0  0  0  0  0  0  0
   21.9972   73.0495    0.2908 O   0  0  0  0  0  0  0  0  0  0  0  0
   24.0587   72.4405   -0.8456 C   0  0  1  0  0  0  0  0  0  0  0  0
   23.4054   73.0159    0.3930 C   0  0  2  0  0  0  0  0  0  0  0  0
   25.4108   71.9877   -0.3116 C   0  0  1  0  0  0  0  0  0  0  0  0
   23.8907   72.0668    1.4754 C   0  0  2  0  0  0  0  0  0  0  0  0
   22.4815   71.5468   -1.6319 H   0  0  0  0  0  0  0  0  0  0  0  0
   21.7387   73.6677   -0.4112 H   0  0  0  0  0  0  0  0  0  0  0  0
   23.3948   70.7988    3.9498 O   0  0  0  0  0  0  0  0  0  0  0  0
   24.3826   74.6279    6.3176 O   0  0  0  0  0  0  0  0  0  0  0  0
   24.0107   72.7089    2.7538 N   0  0  0  0  0  0  0  0  0  0  0  0
   23.8862   72.7074    5.1267 N   0  0  0  0  0  0  0  0  0  0  0  0
   23.7385   71.9822    3.9370 C   0  0  0  0  0  0  0  0  0  0  0  0
   24.3955   74.0421    2.8268 C   0  0  0  0  0  0  0  0  0  0  0  0
   24.5322   74.7198    3.9683 C   0  0  0  0  0  0  0  0  0  0  0  0
   24.2659   74.0341    5.2498 C   0  0  0  0  0  0  0  0  0  0  0  0
   23.7002   72.2232    5.9635 H   0  0  0  0  0  0  0  0  0  0  0  0
   27.8601   70.8988   -2.4823 O   0  0  0  0  0  0  0  0  0  0  0  0
   26.7814   70.6015   -3.6493 P   0  0  2  0  0  0  0  0  0  0  0  0
   26.7991   71.9629   -4.5248 O   0  0  0  0  0  0  0  0  0  0  0  0
   25.4229   70.2073   -3.1463 O   0  0  0  0  0  0  0  0  0  0  0  0
   27.4913   69.5017   -4.5922 O   0  0  0  0  0  0  0  0  0  0  0  0
   26.9200   67.2977   -5.2443 O   0  0  0  0  0  0  0  0  0  0  0  0
   31.0142   67.0017   -4.7775 O   0  0  0  0  0  0  0  0  0  0  0  0
   29.4076   68.4934   -2.8466 O   0  0  0  0  0  0  0  0  0  0  0  0
   29.8541   67.1223   -7.4403 O   0  0  0  0  0  0  0  0  0  0  0  0
   29.7818   67.6507   -5.0907 C   0  0  2  0  0  0  0  0  0  0  0  0
   28.8749   67.6483   -3.8599 C   0  0  2  0  0  0  0  0  0  0  0  0
   29.1223   66.8842   -6.2394 C   0  0  1  0  0  0  0  0  0  0  0  0
   27.4666   68.1257   -4.2171 C   0  0  1  0  0  0  0  0  0  0  0  0
   27.6787   67.3313   -6.4510 C   0  0  1  0  0  0  0  0  0  0  0  0
   31.4514   67.4715   -4.0498 H   0  0  0  0  0  0  0  0  0  0  0  0
   30.3013   68.1964   -2.6153 H   0  0  0  0  0  0  0  0  0  0  0  0
   30.7747   66.8422   -7.3189 H   0  0  0  0  0  0  0  0  0  0  0  0
   26.4695   65.3278   -6.6103 O   0  0  0  0  0  0  0  0  0  0  0  0
   26.7998   66.4994   -8.5383 O   0  0  0  0  0  0  0  0  0  0  0  0
   26.9496   66.3703   -7.3326 C   0  0  0  0  0  0  0  0  0  0  0  0
  1  4  1  0
  1 24  1  0
  1  2  1  1
  1  3  2  0
 25 28  1  0
 25 24  1  0
 25 26  1  6
 25 27  2  0
  6 11  1  0
  6 12  1  0
 29 36  1  0
 29 37  1  0
  9  7  1  1
  7 13  1  0
 10  8  1  6
  8 14  1  0
  4  5  1  0
 36 28  1  6
 33 30  1  1
 30 38  1  0
 34 31  1  1
 31 39  1  0
 35 32  1  6
 32 40  1  0
 41 43  1  0
 15 19  2  0
 42 43  2  0
 16 22  2  0
 12 17  1  1
 17 19  1  0
 17 20  1  0
 18 19  1  0
 18 22  1  0
 18 23  1  0
  9 10  1  0
  9 11  1  0
 10 12  1  0
 11  5  1  1
 33 34  1  0
 33 35  1  0
 34 36  1  0
 35 37  1  0
 37 43  1  6
 20 21  2  0
 21 22  1  0
M  CHG  3   2  -1  26  -1  41  -1
M  END
>  <COMPND>  (138) 
    udp_gluA.pdb 

>  <AUTHOR>  (138) 
    GENERATED BY OPEN BABEL 3.1.1

>  <MASTER>  (138) 
        0    0    0    0    0    0    0    0   56    0   56    0

>  <minimizedAffinity>  (138) 
-6.93575

>  <CNNscore>  (138) 
0.3192698359

>  <CNNaffinity>  (138) 
3.9681293964

>  <CNN_VS>  (138) 
1.2669039965

>  <CNNaffinity_variance>  (138) 
0.0676203221

$$$$
139
     RDKit          3D

 43 45  0  0  0  0  0  0  0  0999 V2000
   22.7463   73.2173   -3.3246 P   0  0  2  0  0  0  0  0  0  0  0  0
   22.0422   72.0182   -2.4967 O   0  0  0  0  0  0  0  0  0  0  0  0
   23.0452   74.4502   -2.5230 O   0  0  0  0  0  0  0  0  0  0  0  0
   21.7771   73.4282   -4.6029 O   0  0  0  0  0  0  0  0  0  0  0  0
   20.8102   72.4345   -4.8895 C   0  0  0  0  0  0  0  0  0  0  0  0
   18.6152   73.0624   -5.6416 O   0  0  0  0  0  0  0  0  0  0  0  0
   17.7456   72.7269   -2.7916 O   0  0  0  0  0  0  0  0  0  0  0  0
   16.8881   70.4133   -3.9526 O   0  0  0  0  0  0  0  0  0  0  0  0
   18.7037   71.9766   -3.5383 C   0  0  1  0  0  0  0  0  0  0  0  0
   18.0032   71.0652   -4.5236 C   0  0  2  0  0  0  0  0  0  0  0  0
   19.4382   72.9393   -4.4614 C   0  0  1  0  0  0  0  0  0  0  0  0
   17.6125   72.0340   -5.6266 C   0  0  2  0  0  0  0  0  0  0  0  0
   17.2636   72.1330   -2.1944 H   0  0  0  0  0  0  0  0  0  0  0  0
   17.1891   69.8077   -3.2564 H   0  0  0  0  0  0  0  0  0  0  0  0
   15.3922   70.6054   -6.6295 O   0  0  0  0  0  0  0  0  0  0  0  0
   17.5537   69.6674  -10.5908 O   0  0  0  0  0  0  0  0  0  0  0  0
   17.5680   71.4064   -6.9169 N   0  0  0  0  0  0  0  0  0  0  0  0
   16.4712   70.1387   -8.6011 N   0  0  0  0  0  0  0  0  0  0  0  0
   16.4041   70.7128   -7.3248 C   0  0  0  0  0  0  0  0  0  0  0  0
   18.6673   71.4825   -7.7635 C   0  0  0  0  0  0  0  0  0  0  0  0
   18.7164   70.9303   -8.9773 C   0  0  0  0  0  0  0  0  0  0  0  0
   17.5420   70.1870   -9.4790 C   0  0  0  0  0  0  0  0  0  0  0  0
   15.6735   69.6489   -8.9062 H   0  0  0  0  0  0  0  0  0  0  0  0
   24.0448   72.5008   -3.9674 O   0  0  0  0  0  0  0  0  0  0  0  0
   25.3043   73.1134   -4.7750 P   0  0  2  0  0  0  0  0  0  0  0  0
   25.7746   74.3508   -3.8434 O   0  0  0  0  0  0  0  0  0  0  0  0
   25.0003   73.4899   -6.1962 O   0  0  0  0  0  0  0  0  0  0  0  0
   26.4715   72.0123   -4.6092 O   0  0  0  0  0  0  0  0  0  0  0  0
   26.5599   69.7420   -3.9406 O   0  0  0  0  0  0  0  0  0  0  0  0
   29.9096   71.2950   -2.0871 O   0  0  0  0  0  0  0  0  0  0  0  0
   27.4000   72.7904   -2.1054 O   0  0  0  0  0  0  0  0  0  0  0  0
   30.1888   69.6627   -4.4763 O   0  0  0  0  0  0  0  0  0  0  0  0
   28.9182   71.1857   -3.1085 C   0  0  2  0  0  0  0  0  0  0  0  0
   27.5343   71.4319   -2.5069 C   0  0  2  0  0  0  0  0  0  0  0  0
   28.9993   69.7755   -3.6973 C   0  0  1  0  0  0  0  0  0  0  0  0
   26.4328   71.0989   -3.5142 C   0  0  1  0  0  0  0  0  0  0  0  0
   27.8000   69.4754   -4.5918 C   0  0  1  0  0  0  0  0  0  0  0  0
   29.8768   72.1833   -1.6982 H   0  0  0  0  0  0  0  0  0  0  0  0
   28.0960   73.0086   -1.4664 H   0  0  0  0  0  0  0  0  0  0  0  0
   30.9597   69.8514   -3.9187 H   0  0  0  0  0  0  0  0  0  0  0  0
   28.3636   67.2924   -3.9448 O   0  0  0  0  0  0  0  0  0  0  0  0
   27.1384   67.5280   -5.8533 O   0  0  0  0  0  0  0  0  0  0  0  0
   27.7143   68.0142   -4.8915 C   0  0  0  0  0  0  0  0  0  0  0  0
  1  4  1  0
  1 24  1  0
  1  2  1  1
  1  3  2  0
 25 28  1  0
 25 24  1  0
 25 26  1  1
 25 27  2  0
  6 11  1  0
  6 12  1  0
 29 36  1  0
 29 37  1  0
  9  7  1  1
  7 13  1  0
 10  8  1  1
  8 14  1  0
  4  5  1  0
 36 28  1  6
 33 30  1  1
 30 38  1  0
 34 31  1  6
 31 39  1  0
 35 32  1  6
 32 40  1  0
 41 43  1  0
 15 19  2  0
 42 43  2  0
 16 22  2  0
 12 17  1  6
 17 19  1  0
 17 20  1  0
 18 19  1  0
 18 22  1  0
 18 23  1  0
  9 10  1  0
  9 11  1  0
 10 12  1  0
 11  5  1  6
 33 34  1  0
 33 35  1  0
 34 36  1  0
 35 37  1  0
 37 43  1  1
 20 21  2  0
 21 22  1  0
M  CHG  3   2  -1  26  -1  41  -1
M  END
>  <COMPND>  (139) 
    udp_gluA.pdb 

>  <AUTHOR>  (139) 
    GENERATED BY OPEN BABEL 3.1.1

>  <MASTER>  (139) 
        0    0    0    0    0    0    0    0   56    0   56    0

>  <minimizedAffinity>  (139) 
-6.38056

>  <CNNscore>  (139) 
0.3072438240

>  <CNNaffinity>  (139) 
4.1518616676

>  <CNN_VS>  (139) 
1.2756338120

>  <CNNaffinity_variance>  (139) 
0.2162554711

$$$$
140
     RDKit          3D

 43 45  0  0  0  0  0  0  0  0999 V2000
   28.5451   71.7849    0.5969 P   0  0  2  0  0  0  0  0  0  0  0  0
   29.2575   73.1925    0.2362 O   0  0  0  0  0  0  0  0  0  0  0  0
   27.1149   71.6678    0.1580 O   0  0  0  0  0  0  0  0  0  0  0  0
   28.8095   71.6110    2.1837 O   0  0  0  0  0  0  0  0  0  0  0  0
   29.4814   72.6481    2.8748 C   0  0  0  0  0  0  0  0  0  0  0  0
   31.5293   72.9574    4.0947 O   0  0  0  0  0  0  0  0  0  0  0  0
   32.5811   70.6058    2.5601 O   0  0  0  0  0  0  0  0  0  0  0  0
   31.9456   69.5065    4.9734 O   0  0  0  0  0  0  0  0  0  0  0  0
   31.2649   70.8432    3.0598 C   0  0  1  0  0  0  0  0  0  0  0  0
   31.2322   70.6536    4.5615 C   0  0  2  0  0  0  0  0  0  0  0  0
   30.9705   72.3305    2.9199 C   0  0  1  0  0  0  0  0  0  0  0  0
   31.8636   71.9438    5.0561 C   0  0  2  0  0  0  0  0  0  0  0  0
   32.7919   69.6618    2.6390 H   0  0  0  0  0  0  0  0  0  0  0  0
   31.5039   68.7118    4.6337 H   0  0  0  0  0  0  0  0  0  0  0  0
   33.4715   72.9591    7.1443 O   0  0  0  0  0  0  0  0  0  0  0  0
   29.8472   73.4279    9.9530 O   0  0  0  0  0  0  0  0  0  0  0  0
   31.3661   72.3390    6.3434 N   0  0  0  0  0  0  0  0  0  0  0  0
   31.6650   73.1907    8.5415 N   0  0  0  0  0  0  0  0  0  0  0  0
   32.2582   72.8363    7.3227 C   0  0  0  0  0  0  0  0  0  0  0  0
   30.0093   72.2340    6.6248 C   0  0  0  0  0  0  0  0  0  0  0  0
   29.4586   72.5758    7.7913 C   0  0  0  0  0  0  0  0  0  0  0  0
   30.3214   73.1036    8.8684 C   0  0  0  0  0  0  0  0  0  0  0  0
   32.2664   73.5376    9.2396 H   0  0  0  0  0  0  0  0  0  0  0  0
   29.5422   70.6949   -0.0592 O   0  0  0  0  0  0  0  0  0  0  0  0
   30.7621   70.8669   -1.1060 P   0  0  2  0  0  0  0  0  0  0  0  0
   31.7287   69.6165   -0.7563 O   0  0  0  0  0  0  0  0  0  0  0  0
   31.4383   72.2061   -1.0490 O   0  0  0  0  0  0  0  0  0  0  0  0
   30.1244   70.4995   -2.5416 O   0  0  0  0  0  0  0  0  0  0  0  0
   27.8260   70.1601   -3.0010 O   0  0  0  0  0  0  0  0  0  0  0  0
   29.6173   67.8946   -5.9551 O   0  0  0  0  0  0  0  0  0  0  0  0
   30.6560   67.8564   -3.2250 O   0  0  0  0  0  0  0  0  0  0  0  0
   28.4385   70.4712   -6.6052 O   0  0  0  0  0  0  0  0  0  0  0  0
   29.5004   68.9817   -5.0372 C   0  0  2  0  0  0  0  0  0  0  0  0
   29.4166   68.4396   -3.6101 C   0  0  2  0  0  0  0  0  0  0  0  0
   28.2303   69.7607   -5.3861 C   0  0  1  0  0  0  0  0  0  0  0  0
   29.0614   69.5519   -2.6224 C   0  0  1  0  0  0  0  0  0  0  0  0
   27.8735   70.7631   -4.2922 C   0  0  1  0  0  0  0  0  0  0  0  0
   30.4177   67.3849   -5.7528 H   0  0  0  0  0  0  0  0  0  0  0  0
   30.8878   67.1499   -3.8476 H   0  0  0  0  0  0  0  0  0  0  0  0
   28.6666   69.8447   -7.3097 H   0  0  0  0  0  0  0  0  0  0  0  0
   25.6218   70.6280   -3.6494 O   0  0  0  0  0  0  0  0  0  0  0  0
   26.1549   72.1553   -5.2564 O   0  0  0  0  0  0  0  0  0  0  0  0
   26.4816   71.2746   -4.4750 C   0  0  0  0  0  0  0  0  0  0  0  0
  1  4  1  0
  1 24  1  0
  1  2  1  6
  1  3  2  0
 25 28  1  0
 25 24  1  0
 25 26  1  1
 25 27  2  0
  6 11  1  0
  6 12  1  0
 29 36  1  0
 29 37  1  0
  9  7  1  1
  7 13  1  0
 10  8  1  6
  8 14  1  0
  4  5  1  0
 36 28  1  6
 33 30  1  6
 30 38  1  0
 34 31  1  1
 31 39  1  0
 35 32  1  6
 32 40  1  0
 41 43  1  0
 15 19  2  0
 42 43  2  0
 16 22  2  0
 12 17  1  1
 17 19  1  0
 17 20  1  0
 18 19  1  0
 18 22  1  0
 18 23  1  0
  9 10  1  0
  9 11  1  0
 10 12  1  0
 11  5  1  1
 33 34  1  0
 33 35  1  0
 34 36  1  0
 35 37  1  0
 37 43  1  6
 20 21  2  0
 21 22  1  0
M  CHG  3   2  -1  26  -1  41  -1
M  END
>  <COMPND>  (140) 
    udp_gluA.pdb 

>  <AUTHOR>  (140) 
    GENERATED BY OPEN BABEL 3.1.1

>  <MASTER>  (140) 
        0    0    0    0    0    0    0    0   56    0   56    0

>  <minimizedAffinity>  (140) 
-6.74251

>  <CNNscore>  (140) 
0.2958981991

>  <CNNaffinity>  (140) 
3.7586064339

>  <CNN_VS>  (140) 
1.1121648550

>  <CNNaffinity_variance>  (140) 
0.1163634509

$$$$
141
     RDKit          3D

 43 45  0  0  0  0  0  0  0  0999 V2000
   29.1355   73.7875   -2.1705 P   0  0  2  0  0  0  0  0  0  0  0  0
   28.1591   74.9961   -2.6231 O   0  0  0  0  0  0  0  0  0  0  0  0
   30.5881   74.1504   -2.0701 O   0  0  0  0  0  0  0  0  0  0  0  0
   28.7794   72.5931   -3.2023 O   0  0  0  0  0  0  0  0  0  0  0  0
   29.7926   71.6615   -3.5338 C   0  0  0  0  0  0  0  0  0  0  0  0
   28.7946   69.6013   -2.8009 O   0  0  0  0  0  0  0  0  0  0  0  0
   31.2721   69.2012   -1.1597 O   0  0  0  0  0  0  0  0  0  0  0  0
   31.7166   67.5877   -3.3126 O   0  0  0  0  0  0  0  0  0  0  0  0
   31.1306   69.7860   -2.4545 C   0  0  1  0  0  0  0  0  0  0  0  0
   30.8792   68.7109   -3.4905 C   0  0  2  0  0  0  0  0  0  0  0  0
   29.8218   70.5637   -2.4782 C   0  0  1  0  0  0  0  0  0  0  0  0
   29.4123   68.3889   -3.2612 C   0  0  2  0  0  0  0  0  0  0  0  0
   32.1015   68.6990   -1.1203 H   0  0  0  0  0  0  0  0  0  0  0  0
   32.6393   67.8443   -3.4698 H   0  0  0  0  0  0  0  0  0  0  0  0
   26.8118   67.2902   -3.3422 O   0  0  0  0  0  0  0  0  0  0  0  0
   26.9817   66.7578   -7.9173 O   0  0  0  0  0  0  0  0  0  0  0  0
   28.7527   67.9548   -4.4601 N   0  0  0  0  0  0  0  0  0  0  0  0
   26.8993   67.0252   -5.6207 N   0  0  0  0  0  0  0  0  0  0  0  0
   27.4458   67.4169   -4.3915 C   0  0  0  0  0  0  0  0  0  0  0  0
   29.3981   68.0652   -5.6857 C   0  0  0  0  0  0  0  0  0  0  0  0
   28.8643   67.6877   -6.8490 C   0  0  0  0  0  0  0  0  0  0  0  0
   27.5024   67.1147   -6.8648 C   0  0  0  0  0  0  0  0  0  0  0  0
   25.9911   66.6458   -5.5980 H   0  0  0  0  0  0  0  0  0  0  0  0
   28.4704   73.2826   -0.7865 O   0  0  0  0  0  0  0  0  0  0  0  0
   28.4442   73.9520    0.6848 P   0  0  2  0  0  0  0  0  0  0  0  0
   26.9703   73.5738    1.2370 O   0  0  0  0  0  0  0  0  0  0  0  0
   28.7513   75.4215    0.6983 O   0  0  0  0  0  0  0  0  0  0  0  0
   29.4521   73.0493    1.5632 O   0  0  0  0  0  0  0  0  0  0  0  0
   30.4995   70.9922    1.0338 O   0  0  0  0  0  0  0  0  0  0  0  0
   29.9871   70.6478    5.1187 O   0  0  0  0  0  0  0  0  0  0  0  0
   27.8643   71.7608    3.4486 O   0  0  0  0  0  0  0  0  0  0  0  0
   32.6153   71.2312    4.0218 O   0  0  0  0  0  0  0  0  0  0  0  0
   30.2119   71.3331    3.8867 C   0  0  2  0  0  0  0  0  0  0  0  0
   29.0248   71.1054    2.9505 C   0  0  2  0  0  0  0  0  0  0  0  0
   31.4950   70.7781    3.2641 C   0  0  1  0  0  0  0  0  0  0  0  0
   29.3279   71.6284    1.5457 C   0  0  1  0  0  0  0  0  0  0  0  0
   31.6611   71.2452    1.8210 C   0  0  1  0  0  0  0  0  0  0  0  0
   29.1766   70.9839    5.5327 H   0  0  0  0  0  0  0  0  0  0  0  0
   27.6663   71.4340    4.3399 H   0  0  0  0  0  0  0  0  0  0  0  0
   32.5218   70.9406    4.9425 H   0  0  0  0  0  0  0  0  0  0  0  0
   32.6953   69.1592    1.5371 O   0  0  0  0  0  0  0  0  0  0  0  0
   33.4970   70.8952    0.2950 O   0  0  0  0  0  0  0  0  0  0  0  0
   32.7177   70.4508    1.1246 C   0  0  0  0  0  0  0  0  0  0  0  0
  1  4  1  0
  1 24  1  0
  1  2  1  6
  1  3  2  0
 25 28  1  0
 25 24  1  0
 25 26  1  1
 25 27  2  0
  6 11  1  0
  6 12  1  0
 29 36  1  0
 29 37  1  0
  9  7  1  1
  7 13  1  0
 10  8  1  1
  8 14  1  0
  4  5  1  0
 36 28  1  1
 33 30  1  1
 30 38  1  0
 34 31  1  1
 31 39  1  0
 35 32  1  1
 32 40  1  0
 41 43  1  0
 15 19  2  0
 42 43  2  0
 16 22  2  0
 12 17  1  6
 17 19  1  0
 17 20  1  0
 18 19  1  0
 18 22  1  0
 18 23  1  0
  9 10  1  0
  9 11  1  0
 10 12  1  0
 11  5  1  6
 33 34  1  0
 33 35  1  0
 34 36  1  0
 35 37  1  0
 37 43  1  6
 20 21  2  0
 21 22  1  0
M  CHG  3   2  -1  26  -1  41  -1
M  END
>  <COMPND>  (141) 
    udp_gluA.pdb 

>  <AUTHOR>  (141) 
    GENERATED BY OPEN BABEL 3.1.1

>  <MASTER>  (141) 
        0    0    0    0    0    0    0    0   56    0   56    0

>  <minimizedAffinity>  (141) 
-7.62459

>  <CNNscore>  (141) 
0.6527293921

>  <CNNaffinity>  (141) 
4.4905042648

>  <CNN_VS>  (141) 
2.9310841560

>  <CNNaffinity_variance>  (141) 
0.0944222063

$$$$
142
     RDKit          3D

 43 45  0  0  0  0  0  0  0  0999 V2000
   24.3428   74.2068   -4.8359 P   0  0  2  0  0  0  0  0  0  0  0  0
   25.1388   73.9345   -6.2184 O   0  0  0  0  0  0  0  0  0  0  0  0
   24.4155   75.6177   -4.3303 O   0  0  0  0  0  0  0  0  0  0  0  0
   24.9079   73.0706   -3.8320 O   0  0  0  0  0  0  0  0  0  0  0  0
   25.8779   72.1609   -4.3178 C   0  0  0  0  0  0  0  0  0  0  0  0
   26.6501   70.1663   -3.2210 O   0  0  0  0  0  0  0  0  0  0  0  0
   28.6444   71.9244   -1.8341 O   0  0  0  0  0  0  0  0  0  0  0  0
   30.1367   70.7673   -3.8014 O   0  0  0  0  0  0  0  0  0  0  0  0
   28.1421   72.0054   -3.1682 C   0  0  1  0  0  0  0  0  0  0  0  0
   28.7498   70.9144   -4.0242 C   0  0  2  0  0  0  0  0  0  0  0  0
   26.6725   71.6080   -3.1417 C   0  0  1  0  0  0  0  0  0  0  0  0
   27.9553   69.6942   -3.5909 C   0  0  2  0  0  0  0  0  0  0  0  0
   29.5821   72.1739   -1.8257 H   0  0  0  0  0  0  0  0  0  0  0  0
   30.5979   71.5697   -4.0936 H   0  0  0  0  0  0  0  0  0  0  0  0
   26.3962   67.3465   -3.4076 O   0  0  0  0  0  0  0  0  0  0  0  0
   27.5133   66.0516   -7.6877 O   0  0  0  0  0  0  0  0  0  0  0  0
   27.8210   68.7261   -4.6424 N   0  0  0  0  0  0  0  0  0  0  0  0
   26.9549   66.7033   -5.5391 N   0  0  0  0  0  0  0  0  0  0  0  0
   27.0133   67.5807   -4.4484 C   0  0  0  0  0  0  0  0  0  0  0  0
   28.4830   68.9166   -5.8493 C   0  0  0  0  0  0  0  0  0  0  0  0
   28.4175   68.0715   -6.8799 C   0  0  0  0  0  0  0  0  0  0  0  0
   27.5957   66.8494   -6.7588 C   0  0  0  0  0  0  0  0  0  0  0  0
   26.4003   65.8975   -5.4270 H   0  0  0  0  0  0  0  0  0  0  0  0
   22.8489   73.6869   -5.1690 O   0  0  0  0  0  0  0  0  0  0  0  0
   21.8327   72.7615   -4.3178 P   0  0  2  0  0  0  0  0  0  0  0  0
   21.3542   73.7412   -3.1213 O   0  0  0  0  0  0  0  0  0  0  0  0
   22.4249   71.4623   -3.8538 O   0  0  0  0  0  0  0  0  0  0  0  0
   20.5332   72.6059   -5.2610 O   0  0  0  0  0  0  0  0  0  0  0  0
   18.8723   71.0916   -6.0075 O   0  0  0  0  0  0  0  0  0  0  0  0
   20.6937   72.1592   -9.5586 O   0  0  0  0  0  0  0  0  0  0  0  0
   22.2958   71.6235   -7.1752 O   0  0  0  0  0  0  0  0  0  0  0  0
   18.0941   73.2591   -8.8638 O   0  0  0  0  0  0  0  0  0  0  0  0
   20.2317   72.3517   -8.2217 C   0  0  2  0  0  0  0  0  0  0  0  0
   20.9068   71.3392   -7.2961 C   0  0  2  0  0  0  0  0  0  0  0  0
   18.7144   72.1522   -8.2124 C   0  0  1  0  0  0  0  0  0  0  0  0
   20.2711   71.3606   -5.9054 C   0  0  1  0  0  0  0  0  0  0  0  0
   18.1736   72.0584   -6.7886 C   0  0  1  0  0  0  0  0  0  0  0  0
   21.6558   72.2809   -9.5891 H   0  0  0  0  0  0  0  0  0  0  0  0
   22.7055   71.6118   -8.0540 H   0  0  0  0  0  0  0  0  0  0  0  0
   18.4298   73.3300   -9.7710 H   0  0  0  0  0  0  0  0  0  0  0  0
   16.5416   70.7778   -7.8832 O   0  0  0  0  0  0  0  0  0  0  0  0
   15.9415   71.7691   -5.9194 O   0  0  0  0  0  0  0  0  0  0  0  0
   16.7717   71.5417   -6.7866 C   0  0  0  0  0  0  0  0  0  0  0  0
  1  4  1  0
  1 24  1  0
  1  2  1  6
  1  3  2  0
 25 28  1  0
 25 24  1  0
 25 26  1  1
 25 27  2  0
  6 11  1  0
  6 12  1  0
 29 36  1  0
 29 37  1  0
  9  7  1  1
  7 13  1  0
 10  8  1  1
  8 14  1  0
  4  5  1  0
 36 28  1  6
 33 30  1  6
 30 38  1  0
 34 31  1  1
 31 39  1  0
 35 32  1  1
 32 40  1  0
 41 43  1  0
 15 19  2  0
 42 43  2  0
 16 22  2  0
 12 17  1  6
 17 19  1  0
 17 20  1  0
 18 19  1  0
 18 22  1  0
 18 23  1  0
  9 10  1  0
  9 11  1  0
 10 12  1  0
 11  5  1  6
 33 34  1  0
 33 35  1  0
 34 36  1  0
 35 37  1  0
 37 43  1  6
 20 21  2  0
 21 22  1  0
M  CHG  3   2  -1  26  -1  41  -1
M  END
>  <COMPND>  (142) 
    udp_gluA.pdb 

>  <AUTHOR>  (142) 
    GENERATED BY OPEN BABEL 3.1.1

>  <MASTER>  (142) 
        0    0    0    0    0    0    0    0   56    0   56    0

>  <minimizedAffinity>  (142) 
-7.17354

>  <CNNscore>  (142) 
0.6212961078

>  <CNNaffinity>  (142) 
4.4340538979

>  <CNN_VS>  (142) 
2.7548604012

>  <CNNaffinity_variance>  (142) 
0.1475061625

$$$$
143
     RDKit          3D

 43 45  0  0  0  0  0  0  0  0999 V2000
   24.6242   73.8806   -4.6301 P   0  0  2  0  0  0  0  0  0  0  0  0
   25.3960   73.7009   -6.0411 O   0  0  0  0  0  0  0  0  0  0  0  0
   24.2262   75.2894   -4.3006 O   0  0  0  0  0  0  0  0  0  0  0  0
   25.5982   73.1571   -3.5596 O   0  0  0  0  0  0  0  0  0  0  0  0
   26.7563   72.4974   -4.0373 C   0  0  0  0  0  0  0  0  0  0  0  0
   27.1257   70.3385   -3.0471 O   0  0  0  0  0  0  0  0  0  0  0  0
   29.3756   71.6225   -1.5369 O   0  0  0  0  0  0  0  0  0  0  0  0
   30.6757   70.3190   -3.5486 O   0  0  0  0  0  0  0  0  0  0  0  0
   28.9271   71.8664   -2.8703 C   0  0  1  0  0  0  0  0  0  0  0  0
   29.3446   70.7303   -3.7798 C   0  0  2  0  0  0  0  0  0  0  0  0
   27.4094   71.7451   -2.8850 C   0  0  1  0  0  0  0  0  0  0  0  0
   28.3307   69.6552   -3.4272 C   0  0  2  0  0  0  0  0  0  0  0  0
   30.3428   71.6945   -1.5025 H   0  0  0  0  0  0  0  0  0  0  0  0
   31.2824   71.0375   -3.7885 H   0  0  0  0  0  0  0  0  0  0  0  0
   26.5777   67.4440   -3.3090 O   0  0  0  0  0  0  0  0  0  0  0  0
   27.3128   66.3923   -7.7359 O   0  0  0  0  0  0  0  0  0  0  0  0
   28.0457   68.7866   -4.5341 N   0  0  0  0  0  0  0  0  0  0  0  0
   26.9463   66.9217   -5.5137 N   0  0  0  0  0  0  0  0  0  0  0  0
   27.1500   67.7038   -4.3691 C   0  0  0  0  0  0  0  0  0  0  0  0
   28.6486   69.0119   -5.7656 C   0  0  0  0  0  0  0  0  0  0  0  0
   28.4445   68.2578   -6.8475 C   0  0  0  0  0  0  0  0  0  0  0  0
   27.5233   67.1058   -6.7597 C   0  0  0  0  0  0  0  0  0  0  0  0
   26.3283   66.1607   -5.4228 H   0  0  0  0  0  0  0  0  0  0  0  0
   23.3902   72.8444   -4.7569 O   0  0  0  0  0  0  0  0  0  0  0  0
   22.9182   71.6331   -3.7958 P   0  0  2  0  0  0  0  0  0  0  0  0
   22.6975   72.3597   -2.3663 O   0  0  0  0  0  0  0  0  0  0  0  0
   23.8677   70.4707   -3.7587 O   0  0  0  0  0  0  0  0  0  0  0  0
   21.4304   71.2664   -4.3001 O   0  0  0  0  0  0  0  0  0  0  0  0
   20.1230   72.3149   -5.9736 O   0  0  0  0  0  0  0  0  0  0  0  0
   17.2195   70.9490   -3.3712 O   0  0  0  0  0  0  0  0  0  0  0  0
   19.6675   72.1724   -2.3489 O   0  0  0  0  0  0  0  0  0  0  0  0
   17.6945   69.5659   -5.8837 O   0  0  0  0  0  0  0  0  0  0  0  0
   18.4733   70.9256   -4.0535 C   0  0  2  0  0  0  0  0  0  0  0  0
   19.2646   72.1889   -3.7134 C   0  0  2  0  0  0  0  0  0  0  0  0
   18.1927   70.8618   -5.5565 C   0  0  1  0  0  0  0  0  0  0  0  0
   20.5062   72.3113   -4.5979 C   0  0  1  0  0  0  0  0  0  0  0  0
   19.4576   71.1179   -6.3707 C   0  0  1  0  0  0  0  0  0  0  0  0
   17.3727   70.9897   -2.4141 H   0  0  0  0  0  0  0  0  0  0  0  0
   18.8846   72.0945   -1.7819 H   0  0  0  0  0  0  0  0  0  0  0  0
   16.8894   69.3904   -5.3720 H   0  0  0  0  0  0  0  0  0  0  0  0
   19.7455   72.5009   -8.2431 O   0  0  0  0  0  0  0  0  0  0  0  0
   18.3912   70.6834   -8.4909 O   0  0  0  0  0  0  0  0  0  0  0  0
   19.1226   71.3797   -7.8030 C   0  0  0  0  0  0  0  0  0  0  0  0
  1  4  1  0
  1 24  1  0
  1  2  1  6
  1  3  2  0
 25 28  1  0
 25 24  1  0
 25 26  1  1
 25 27  2  0
  6 11  1  0
  6 12  1  0
 29 36  1  0
 29 37  1  0
  9  7  1  1
  7 13  1  0
 10  8  1  1
  8 14  1  0
  4  5  1  0
 36 28  1  6
 33 30  1  1
 30 38  1  0
 34 31  1  1
 31 39  1  0
 35 32  1  1
 32 40  1  0
 41 43  1  0
 15 19  2  0
 42 43  2  0
 16 22  2  0
 12 17  1  6
 17 19  1  0
 17 20  1  0
 18 19  1  0
 18 22  1  0
 18 23  1  0
  9 10  1  0
  9 11  1  0
 10 12  1  0
 11  5  1  6
 33 34  1  0
 33 35  1  0
 34 36  1  0
 35 37  1  0
 37 43  1  6
 20 21  2  0
 21 22  1  0
M  CHG  3   2  -1  26  -1  41  -1
M  END
>  <COMPND>  (143) 
    udp_gluA.pdb 

>  <AUTHOR>  (143) 
    GENERATED BY OPEN BABEL 3.1.1

>  <MASTER>  (143) 
        0    0    0    0    0    0    0    0   56    0   56    0

>  <minimizedAffinity>  (143) 
-6.98769

>  <CNNscore>  (143) 
0.5336248279

>  <CNNaffinity>  (143) 
4.4227433205

>  <CNN_VS>  (143) 
2.3600857258

>  <CNNaffinity_variance>  (143) 
0.0766842812

$$$$
144
     RDKit          3D

 43 45  0  0  0  0  0  0  0  0999 V2000
   26.9208   72.4667   -2.2598 P   0  0  2  0  0  0  0  0  0  0  0  0
   26.7825   73.4717   -0.9989 O   0  0  0  0  0  0  0  0  0  0  0  0
   26.5711   71.0363   -1.9712 O   0  0  0  0  0  0  0  0  0  0  0  0
   28.4230   72.7273   -2.8013 O   0  0  0  0  0  0  0  0  0  0  0  0
   29.0521   71.7139   -3.5640 C   0  0  0  0  0  0  0  0  0  0  0  0
   28.7106   69.4360   -2.8768 O   0  0  0  0  0  0  0  0  0  0  0  0
   31.4528   69.5837   -1.6726 O   0  0  0  0  0  0  0  0  0  0  0  0
   31.8975   68.2417   -4.0043 O   0  0  0  0  0  0  0  0  0  0  0  0
   30.9598   70.1789   -2.8731 C   0  0  1  0  0  0  0  0  0  0  0  0
   30.7996   69.1284   -3.9515 C   0  0  2  0  0  0  0  0  0  0  0  0
   29.5191   70.6064   -2.6282 C   0  0  1  0  0  0  0  0  0  0  0  0
   29.5116   68.4402   -3.5326 C   0  0  2  0  0  0  0  0  0  0  0  0
   32.3721   69.3025   -1.8046 H   0  0  0  0  0  0  0  0  0  0  0  0
   32.6926   68.7274   -4.2758 H   0  0  0  0  0  0  0  0  0  0  0  0
   26.8841   67.4152   -3.3835 O   0  0  0  0  0  0  0  0  0  0  0  0
   26.8072   66.4557   -7.8910 O   0  0  0  0  0  0  0  0  0  0  0  0
   28.7812   67.9162   -4.6518 N   0  0  0  0  0  0  0  0  0  0  0  0
   26.8487   66.9374   -5.6284 N   0  0  0  0  0  0  0  0  0  0  0  0
   27.4667   67.4254   -4.4695 C   0  0  0  0  0  0  0  0  0  0  0  0
   29.3658   67.8935   -5.9123 C   0  0  0  0  0  0  0  0  0  0  0  0
   28.7642   67.4253   -7.0075 C   0  0  0  0  0  0  0  0  0  0  0  0
   27.3896   66.8934   -6.9032 C   0  0  0  0  0  0  0  0  0  0  0  0
   25.9338   66.5885   -5.5260 H   0  0  0  0  0  0  0  0  0  0  0  0
   26.0009   73.1705   -3.3873 O   0  0  0  0  0  0  0  0  0  0  0  0
   25.4762   72.6304   -4.8180 P   0  0  2  0  0  0  0  0  0  0  0  0
   26.3957   71.3242   -5.0801 O   0  0  0  0  0  0  0  0  0  0  0  0
   25.5250   73.6517   -5.9173 O   0  0  0  0  0  0  0  0  0  0  0  0
   24.0054   72.0395   -4.5180 O   0  0  0  0  0  0  0  0  0  0  0  0
   22.5105   72.3848   -2.7138 O   0  0  0  0  0  0  0  0  0  0  0  0
   21.7937   68.4262   -3.6536 O   0  0  0  0  0  0  0  0  0  0  0  0
   24.5236   69.4650   -3.6018 O   0  0  0  0  0  0  0  0  0  0  0  0
   19.8923   70.4799   -4.4397 O   0  0  0  0  0  0  0  0  0  0  0  0
   22.1395   69.7860   -3.9167 C   0  0  2  0  0  0  0  0  0  0  0  0
   23.3840   70.1624   -3.1122 C   0  0  2  0  0  0  0  0  0  0  0  0
   20.9548   70.6633   -3.5059 C   0  0  1  0  0  0  0  0  0  0  0  0
   23.6501   71.6665   -3.1878 C   0  0  1  0  0  0  0  0  0  0  0  0
   21.3363   72.1406   -3.4851 C   0  0  1  0  0  0  0  0  0  0  0  0
   22.5319   67.8498   -3.9068 H   0  0  0  0  0  0  0  0  0  0  0  0
   24.3616   68.5100   -3.5570 H   0  0  0  0  0  0  0  0  0  0  0  0
   19.6401   69.5436   -4.4627 H   0  0  0  0  0  0  0  0  0  0  0  0
   20.5522   74.2730   -2.9023 O   0  0  0  0  0  0  0  0  0  0  0  0
   19.3426   72.4841   -2.1703 O   0  0  0  0  0  0  0  0  0  0  0  0
   20.2965   72.9471   -2.7776 C   0  0  0  0  0  0  0  0  0  0  0  0
  1  4  1  0
  1 24  1  0
  1  2  1  1
  1  3  2  0
 25 28  1  0
 25 24  1  0
 25 26  1  6
 25 27  2  0
  6 11  1  0
  6 12  1  0
 29 36  1  0
 29 37  1  0
  9  7  1  1
  7 13  1  0
 10  8  1  1
  8 14  1  0
  4  5  1  0
 36 28  1  6
 33 30  1  1
 30 38  1  0
 34 31  1  6
 31 39  1  0
 35 32  1  6
 32 40  1  0
 41 43  1  0
 15 19  2  0
 42 43  2  0
 16 22  2  0
 12 17  1  6
 17 19  1  0
 17 20  1  0
 18 19  1  0
 18 22  1  0
 18 23  1  0
  9 10  1  0
  9 11  1  0
 10 12  1  0
 11  5  1  6
 33 34  1  0
 33 35  1  0
 34 36  1  0
 35 37  1  0
 37 43  1  1
 20 21  2  0
 21 22  1  0
M  CHG  3   2  -1  26  -1  41  -1
M  END
>  <COMPND>  (144) 
    udp_gluA.pdb 

>  <AUTHOR>  (144) 
    GENERATED BY OPEN BABEL 3.1.1

>  <MASTER>  (144) 
        0    0    0    0    0    0    0    0   56    0   56    0

>  <minimizedAffinity>  (144) 
-8.22733

>  <CNNscore>  (144) 
0.5292027593

>  <CNNaffinity>  (144) 
4.5345125198

>  <CNN_VS>  (144) 
2.3996765614

>  <CNNaffinity_variance>  (144) 
0.5335215330

$$$$
145
     RDKit          3D

 43 45  0  0  0  0  0  0  0  0999 V2000
   25.1410   73.2785   -4.9644 P   0  0  2  0  0  0  0  0  0  0  0  0
   23.7325   72.5829   -4.5756 O   0  0  0  0  0  0  0  0  0  0  0  0
   25.0940   74.1757   -6.1663 O   0  0  0  0  0  0  0  0  0  0  0  0
   26.1754   72.0375   -5.0540 O   0  0  0  0  0  0  0  0  0  0  0  0
   25.8014   70.8022   -4.4722 C   0  0  0  0  0  0  0  0  0  0  0  0
   27.2055   69.2387   -3.3053 O   0  0  0  0  0  0  0  0  0  0  0  0
   28.2000   71.5903   -1.7330 O   0  0  0  0  0  0  0  0  0  0  0  0
   30.1982   71.1982   -3.5466 O   0  0  0  0  0  0  0  0  0  0  0  0
   27.8276   71.5159   -3.1093 C   0  0  1  0  0  0  0  0  0  0  0  0
   28.8938   70.7901   -3.9023 C   0  0  2  0  0  0  0  0  0  0  0  0
   26.6430   70.5663   -3.2247 C   0  0  1  0  0  0  0  0  0  0  0  0
   28.6179   69.3390   -3.5474 C   0  0  2  0  0  0  0  0  0  0  0  0
   28.9553   72.1916   -1.6341 H   0  0  0  0  0  0  0  0  0  0  0  0
   30.3245   72.1284   -3.7932 H   0  0  0  0  0  0  0  0  0  0  0  0
   31.1256   68.0601   -3.7753 O   0  0  0  0  0  0  0  0  0  0  0  0
   29.8782   65.9037   -7.6532 O   0  0  0  0  0  0  0  0  0  0  0  0
   28.9752   68.4383   -4.6066 N   0  0  0  0  0  0  0  0  0  0  0  0
   30.5023   66.9881   -5.7070 N   0  0  0  0  0  0  0  0  0  0  0  0
   30.2615   67.8492   -4.6284 C   0  0  0  0  0  0  0  0  0  0  0  0
   28.0568   68.1455   -5.6075 C   0  0  0  0  0  0  0  0  0  0  0  0
   28.3008   67.3226   -6.6292 C   0  0  0  0  0  0  0  0  0  0  0  0
   29.6211   66.6664   -6.7267 C   0  0  0  0  0  0  0  0  0  0  0  0
   31.3917   66.5675   -5.7448 H   0  0  0  0  0  0  0  0  0  0  0  0
   25.5737   74.0140   -3.5916 O   0  0  0  0  0  0  0  0  0  0  0  0
   24.7619   75.0281   -2.6293 P   0  0  2  0  0  0  0  0  0  0  0  0
   23.4299   75.3640   -3.4856 O   0  0  0  0  0  0  0  0  0  0  0  0
   25.5463   76.2364   -2.2064 O   0  0  0  0  0  0  0  0  0  0  0  0
   24.2414   74.1078   -1.4109 O   0  0  0  0  0  0  0  0  0  0  0  0
   25.5226   72.3312   -0.5102 O   0  0  0  0  0  0  0  0  0  0  0  0
   21.7007   71.2907    0.6638 O   0  0  0  0  0  0  0  0  0  0  0  0
   22.1941   72.3271   -2.0226 O   0  0  0  0  0  0  0  0  0  0  0  0
   23.5650   72.4121    2.5920 O   0  0  0  0  0  0  0  0  0  0  0  0
   22.7643   72.1830    0.3312 C   0  0  2  0  0  0  0  0  0  0  0  0
   23.2112   71.9321   -1.1093 C   0  0  2  0  0  0  0  0  0  0  0  0
   23.9200   71.9231    1.3000 C   0  0  1  0  0  0  0  0  0  0  0  0
   24.4928   72.7037   -1.4267 C   0  0  1  0  0  0  0  0  0  0  0  0
   25.1961   72.6261    0.8461 C   0  0  1  0  0  0  0  0  0  0  0  0
   20.9548   71.4375    0.0610 H   0  0  0  0  0  0  0  0  0  0  0  0
   21.3779   71.8416   -1.8268 H   0  0  0  0  0  0  0  0  0  0  0  0
   22.7541   71.9727    2.8924 H   0  0  0  0  0  0  0  0  0  0  0  0
   26.3278   72.4926    2.8963 O   0  0  0  0  0  0  0  0  0  0  0  0
   27.2777   71.4357    1.1131 O   0  0  0  0  0  0  0  0  0  0  0  0
   26.3811   72.1107    1.5961 C   0  0  0  0  0  0  0  0  0  0  0  0
  1  4  1  0
  1 24  1  0
  1  2  1  1
  1  3  2  0
 25 28  1  0
 25 24  1  0
 25 26  1  6
 25 27  2  0
  6 11  1  0
  6 12  1  0
 29 36  1  0
 29 37  1  0
  9  7  1  1
  7 13  1  0
 10  8  1  1
  8 14  1  0
  4  5  1  0
 36 28  1  1
 33 30  1  1
 30 38  1  0
 34 31  1  6
 31 39  1  0
 35 32  1  1
 32 40  1  0
 41 43  1  0
 15 19  2  0
 42 43  2  0
 16 22  2  0
 12 17  1  6
 17 19  1  0
 17 20  1  0
 18 19  1  0
 18 22  1  0
 18 23  1  0
  9 10  1  0
  9 11  1  0
 10 12  1  0
 11  5  1  6
 33 34  1  0
 33 35  1  0
 34 36  1  0
 35 37  1  0
 37 43  1  1
 20 21  2  0
 21 22  1  0
M  CHG  3   2  -1  26  -1  41  -1
M  END
>  <COMPND>  (145) 
    udp_gluA.pdb 

>  <AUTHOR>  (145) 
    GENERATED BY OPEN BABEL 3.1.1

>  <MASTER>  (145) 
        0    0    0    0    0    0    0    0   56    0   56    0

>  <minimizedAffinity>  (145) 
-6.53270

>  <CNNscore>  (145) 
0.5278815031

>  <CNNaffinity>  (145) 
4.3256468773

>  <CNN_VS>  (145) 
2.2834289074

>  <CNNaffinity_variance>  (145) 
0.0520306937

$$$$
146
     RDKit          3D

 43 45  0  0  0  0  0  0  0  0999 V2000
   27.4389   73.1275   -2.8814 P   0  0  2  0  0  0  0  0  0  0  0  0
   26.2192   73.5203   -3.8698 O   0  0  0  0  0  0  0  0  0  0  0  0
   28.2907   74.2803   -2.4370 O   0  0  0  0  0  0  0  0  0  0  0  0
   28.2125   71.9451   -3.6697 O   0  0  0  0  0  0  0  0  0  0  0  0
   29.5878   71.7414   -3.4022 C   0  0  0  0  0  0  0  0  0  0  0  0
   28.7705   69.5893   -2.7106 O   0  0  0  0  0  0  0  0  0  0  0  0
   31.3256   69.3229   -1.1641 O   0  0  0  0  0  0  0  0  0  0  0  0
   31.8139   67.8183   -3.3853 O   0  0  0  0  0  0  0  0  0  0  0  0
   31.0969   69.9373   -2.4325 C   0  0  1  0  0  0  0  0  0  0  0  0
   30.8902   68.8808   -3.4970 C   0  0  2  0  0  0  0  0  0  0  0  0
   29.7342   70.6150   -2.3872 C   0  0  1  0  0  0  0  0  0  0  0  0
   29.4599   68.4423   -3.2326 C   0  0  2  0  0  0  0  0  0  0  0  0
   32.1907   68.8833   -1.1687 H   0  0  0  0  0  0  0  0  0  0  0  0
   32.7092   68.1483   -3.5627 H   0  0  0  0  0  0  0  0  0  0  0  0
   26.8783   67.2980   -3.2844 O   0  0  0  0  0  0  0  0  0  0  0  0
   27.0014   66.7789   -7.8626 O   0  0  0  0  0  0  0  0  0  0  0  0
   28.7933   67.9993   -4.4244 N   0  0  0  0  0  0  0  0  0  0  0  0
   26.9425   67.0396   -5.5644 N   0  0  0  0  0  0  0  0  0  0  0  0
   27.4970   67.4382   -4.3410 C   0  0  0  0  0  0  0  0  0  0  0  0
   29.4216   68.1239   -5.6575 C   0  0  0  0  0  0  0  0  0  0  0  0
   28.8803   67.7395   -6.8151 C   0  0  0  0  0  0  0  0  0  0  0  0
   27.5286   67.1425   -6.8156 C   0  0  0  0  0  0  0  0  0  0  0  0
   26.0415   66.6442   -5.5315 H   0  0  0  0  0  0  0  0  0  0  0  0
   26.6949   72.3387   -1.6826 O   0  0  0  0  0  0  0  0  0  0  0  0
   25.2242   72.5291   -1.0388 P   0  0  2  0  0  0  0  0  0  0  0  0
   24.3523   71.3711   -1.7594 O   0  0  0  0  0  0  0  0  0  0  0  0
   24.6602   73.9122   -1.1900 O   0  0  0  0  0  0  0  0  0  0  0  0
   25.3783   72.0321    0.4882 O   0  0  0  0  0  0  0  0  0  0  0  0
   24.8415   73.1184    2.5231 O   0  0  0  0  0  0  0  0  0  0  0  0
   28.1474   70.8901    3.6063 O   0  0  0  0  0  0  0  0  0  0  0  0
   28.0882   72.3058    1.0516 O   0  0  0  0  0  0  0  0  0  0  0  0
   25.4864   70.0373    4.4080 O   0  0  0  0  0  0  0  0  0  0  0  0
   26.9544   71.1826    2.8789 C   0  0  2  0  0  0  0  0  0  0  0  0
   27.1382   72.4829    2.0961 C   0  0  2  0  0  0  0  0  0  0  0  0
   25.8098   71.3242    3.8848 C   0  0  1  0  0  0  0  0  0  0  0  0
   25.8134   72.9489    1.4906 C   0  0  1  0  0  0  0  0  0  0  0  0
   24.5629   71.9123    3.2308 C   0  0  1  0  0  0  0  0  0  0  0  0
   28.8887   70.7958    2.9876 H   0  0  0  0  0  0  0  0  0  0  0  0
   28.9312   72.0099    1.4287 H   0  0  0  0  0  0  0  0  0  0  0  0
   26.2717   69.6518    4.8270 H   0  0  0  0  0  0  0  0  0  0  0  0
   24.2062   72.6467    5.4296 O   0  0  0  0  0  0  0  0  0  0  0  0
   22.3709   72.4347    4.0932 O   0  0  0  0  0  0  0  0  0  0  0  0
   23.5777   72.3502    4.2651 C   0  0  0  0  0  0  0  0  0  0  0  0
  1  4  1  0
  1 24  1  0
  1  2  1  6
  1  3  2  0
 25 28  1  0
 25 24  1  0
 25 26  1  6
 25 27  2  0
  6 11  1  0
  6 12  1  0
 29 36  1  0
 29 37  1  0
  9  7  1  1
  7 13  1  0
 10  8  1  1
  8 14  1  0
  4  5  1  0
 36 28  1  6
 33 30  1  1
 30 38  1  0
 34 31  1  6
 31 39  1  0
 35 32  1  6
 32 40  1  0
 41 43  1  0
 15 19  2  0
 42 43  2  0
 16 22  2  0
 12 17  1  6
 17 19  1  0
 17 20  1  0
 18 19  1  0
 18 22  1  0
 18 23  1  0
  9 10  1  0
  9 11  1  0
 10 12  1  0
 11  5  1  6
 33 34  1  0
 33 35  1  0
 34 36  1  0
 35 37  1  0
 37 43  1  1
 20 21  2  0
 21 22  1  0
M  CHG  3   2  -1  26  -1  41  -1
M  END
>  <COMPND>  (146) 
    udp_gluA.pdb 

>  <AUTHOR>  (146) 
    GENERATED BY OPEN BABEL 3.1.1

>  <MASTER>  (146) 
        0    0    0    0    0    0    0    0   56    0   56    0

>  <minimizedAffinity>  (146) 
-7.27973

>  <CNNscore>  (146) 
0.5055089593

>  <CNNaffinity>  (146) 
4.3549900055

>  <CNN_VS>  (146) 
2.2014863491

>  <CNNaffinity_variance>  (146) 
0.0888712481

$$$$
147
     RDKit          3D

 43 45  0  0  0  0  0  0  0  0999 V2000
   27.3561   73.0540   -2.9302 P   0  0  2  0  0  0  0  0  0  0  0  0
   26.0720   73.4337   -3.8389 O   0  0  0  0  0  0  0  0  0  0  0  0
   28.2540   74.2069   -2.5890 O   0  0  0  0  0  0  0  0  0  0  0  0
   28.0531   71.8342   -3.7328 O   0  0  0  0  0  0  0  0  0  0  0  0
   29.4509   71.6506   -3.6029 C   0  0  0  0  0  0  0  0  0  0  0  0
   28.7817   69.4645   -2.8606 O   0  0  0  0  0  0  0  0  0  0  0  0
   31.4378   69.3255   -1.4758 O   0  0  0  0  0  0  0  0  0  0  0  0
   31.8585   67.8381   -3.7223 O   0  0  0  0  0  0  0  0  0  0  0  0
   31.1017   69.9239   -2.7279 C   0  0  1  0  0  0  0  0  0  0  0  0
   30.8799   68.8549   -3.7769 C   0  0  2  0  0  0  0  0  0  0  0  0
   29.7136   70.5360   -2.5984 C   0  0  1  0  0  0  0  0  0  0  0  0
   29.4914   68.3498   -3.4238 C   0  0  2  0  0  0  0  0  0  0  0  0
   32.3209   68.9276   -1.5340 H   0  0  0  0  0  0  0  0  0  0  0  0
   32.7243   68.2097   -3.9552 H   0  0  0  0  0  0  0  0  0  0  0  0
   26.8504   67.3515   -3.3518 O   0  0  0  0  0  0  0  0  0  0  0  0
   26.8386   66.5412   -7.8891 O   0  0  0  0  0  0  0  0  0  0  0  0
   28.7740   67.8714   -4.5716 N   0  0  0  0  0  0  0  0  0  0  0  0
   26.8474   66.9479   -5.6116 N   0  0  0  0  0  0  0  0  0  0  0  0
   27.4512   67.3904   -4.4272 C   0  0  0  0  0  0  0  0  0  0  0  0
   29.3794   67.8831   -5.8223 C   0  0  0  0  0  0  0  0  0  0  0  0
   28.7911   67.4582   -6.9422 C   0  0  0  0  0  0  0  0  0  0  0  0
   27.4091   66.9393   -6.8781 C   0  0  0  0  0  0  0  0  0  0  0  0
   25.9270   66.6066   -5.5358 H   0  0  0  0  0  0  0  0  0  0  0  0
   26.6923   72.3169   -1.6539 O   0  0  0  0  0  0  0  0  0  0  0  0
   25.2283   72.4667   -0.9845 P   0  0  2  0  0  0  0  0  0  0  0  0
   24.9729   74.0650   -1.0075 O   0  0  0  0  0  0  0  0  0  0  0  0
   25.1055   71.8403    0.3744 O   0  0  0  0  0  0  0  0  0  0  0  0
   24.2111   71.8758   -2.0884 O   0  0  0  0  0  0  0  0  0  0  0  0
   22.7719   72.8477   -3.6988 O   0  0  0  0  0  0  0  0  0  0  0  0
   20.4873   69.6913   -2.3256 O   0  0  0  0  0  0  0  0  0  0  0  0
   22.0250   71.3290   -0.4581 O   0  0  0  0  0  0  0  0  0  0  0  0
   21.7943   69.5278   -4.9171 O   0  0  0  0  0  0  0  0  0  0  0  0
   21.6926   70.3771   -2.6647 C   0  0  2  0  0  0  0  0  0  0  0  0
   21.8096   71.6508   -1.8273 C   0  0  2  0  0  0  0  0  0  0  0  0
   21.6369   70.7228   -4.1544 C   0  0  1  0  0  0  0  0  0  0  0  0
   22.9628   72.5259   -2.3206 C   0  0  1  0  0  0  0  0  0  0  0  0
   22.7447   71.6981   -4.5418 C   0  0  1  0  0  0  0  0  0  0  0  0
   20.5001   69.4614   -1.3831 H   0  0  0  0  0  0  0  0  0  0  0  0
   21.2971   70.7736   -0.1385 H   0  0  0  0  0  0  0  0  0  0  0  0
   21.0953   68.8984   -4.6800 H   0  0  0  0  0  0  0  0  0  0  0  0
   22.4324   73.6331   -5.8301 O   0  0  0  0  0  0  0  0  0  0  0  0
   22.3545   71.6329   -6.9219 O   0  0  0  0  0  0  0  0  0  0  0  0
   22.4903   72.2798   -5.8943 C   0  0  0  0  0  0  0  0  0  0  0  0
  1  4  1  0
  1 24  1  0
  1  2  1  6
  1  3  2  0
 25 28  1  0
 25 24  1  0
 25 26  1  1
 25 27  2  0
  6 11  1  0
  6 12  1  0
 29 36  1  0
 29 37  1  0
  9  7  1  1
  7 13  1  0
 10  8  1  1
  8 14  1  0
  4  5  1  0
 36 28  1  6
 33 30  1  1
 30 38  1  0
 34 31  1  1
 31 39  1  0
 35 32  1  6
 32 40  1  0
 41 43  1  0
 15 19  2  0
 42 43  2  0
 16 22  2  0
 12 17  1  6
 17 19  1  0
 17 20  1  0
 18 19  1  0
 18 22  1  0
 18 23  1  0
  9 10  1  0
  9 11  1  0
 10 12  1  0
 11  5  1  6
 33 34  1  0
 33 35  1  0
 34 36  1  0
 35 37  1  0
 37 43  1  6
 20 21  2  0
 21 22  1  0
M  CHG  3   2  -1  26  -1  41  -1
M  END
>  <COMPND>  (147) 
    udp_gluA.pdb 

>  <AUTHOR>  (147) 
    GENERATED BY OPEN BABEL 3.1.1

>  <MASTER>  (147) 
        0    0    0    0    0    0    0    0   56    0   56    0

>  <minimizedAffinity>  (147) 
-7.82157

>  <CNNscore>  (147) 
0.4916519821

>  <CNNaffinity>  (147) 
4.5158567429

>  <CNN_VS>  (147) 
2.2202298641

>  <CNNaffinity_variance>  (147) 
0.3606728613

$$$$
148
     RDKit          3D

 43 45  0  0  0  0  0  0  0  0999 V2000
   24.5550   71.6170   -3.4028 P   0  0  2  0  0  0  0  0  0  0  0  0
   24.0049   72.8664   -4.2718 O   0  0  0  0  0  0  0  0  0  0  0  0
   24.6448   71.8634   -1.9253 O   0  0  0  0  0  0  0  0  0  0  0  0
   25.9417   71.2161   -4.1338 O   0  0  0  0  0  0  0  0  0  0  0  0
   27.0590   72.0721   -3.9804 C   0  0  0  0  0  0  0  0  0  0  0  0
   28.1055   70.2108   -2.8768 O   0  0  0  0  0  0  0  0  0  0  0  0
   29.6486   72.2478   -1.3081 O   0  0  0  0  0  0  0  0  0  0  0  0
   31.4556   71.4494   -3.1878 O   0  0  0  0  0  0  0  0  0  0  0  0
   29.2310   72.2850   -2.6729 C   0  0  1  0  0  0  0  0  0  0  0  0
   30.0833   71.3526   -3.5074 C   0  0  2  0  0  0  0  0  0  0  0  0
   27.8598   71.6292   -2.7627 C   0  0  1  0  0  0  0  0  0  0  0  0
   29.4967   69.9946   -3.1615 C   0  0  2  0  0  0  0  0  0  0  0  0
   30.5226   72.6613   -1.2257 H   0  0  0  0  0  0  0  0  0  0  0  0
   31.7818   72.3316   -3.4270 H   0  0  0  0  0  0  0  0  0  0  0  0
   31.2623   67.7903   -3.1786 O   0  0  0  0  0  0  0  0  0  0  0  0
   29.8539   66.4616   -7.3612 O   0  0  0  0  0  0  0  0  0  0  0  0
   29.6119   69.0566   -4.2422 N   0  0  0  0  0  0  0  0  0  0  0  0
   30.5599   67.1312   -5.2622 N   0  0  0  0  0  0  0  0  0  0  0  0
   30.5302   67.9840   -4.1509 C   0  0  0  0  0  0  0  0  0  0  0  0
   28.8202   69.2028   -5.3748 C   0  0  0  0  0  0  0  0  0  0  0  0
   28.8597   68.3817   -6.4260 C   0  0  0  0  0  0  0  0  0  0  0  0
   29.7928   67.2361   -6.4112 C   0  0  0  0  0  0  0  0  0  0  0  0
   31.1929   66.3782   -5.2227 H   0  0  0  0  0  0  0  0  0  0  0  0
   23.5605   70.4149   -3.8258 O   0  0  0  0  0  0  0  0  0  0  0  0
   22.0065   70.1478   -3.4691 P   0  0  2  0  0  0  0  0  0  0  0  0
   21.8593   70.7580   -1.9771 O   0  0  0  0  0  0  0  0  0  0  0  0
   21.5837   68.7128   -3.5949 O   0  0  0  0  0  0  0  0  0  0  0  0
   21.1888   71.1716   -4.4102 O   0  0  0  0  0  0  0  0  0  0  0  0
   19.4279   70.6094   -5.8909 O   0  0  0  0  0  0  0  0  0  0  0  0
   20.9462   74.0257   -7.6492 O   0  0  0  0  0  0  0  0  0  0  0  0
   22.7438   71.9942   -6.5646 O   0  0  0  0  0  0  0  0  0  0  0  0
   18.4501   74.1353   -6.1631 O   0  0  0  0  0  0  0  0  0  0  0  0
   20.6128   73.1539   -6.5690 C   0  0  2  0  0  0  0  0  0  0  0  0
   21.3426   71.8217   -6.7425 C   0  0  2  0  0  0  0  0  0  0  0  0
   19.0980   72.9372   -6.5865 C   0  0  1  0  0  0  0  0  0  0  0  0
   20.8367   70.7858   -5.7376 C   0  0  1  0  0  0  0  0  0  0  0  0
   18.6866   71.8036   -5.6515 C   0  0  1  0  0  0  0  0  0  0  0  0
   21.9044   74.1779   -7.6581 H   0  0  0  0  0  0  0  0  0  0  0  0
   23.0714   72.6504   -7.1989 H   0  0  0  0  0  0  0  0  0  0  0  0
   18.7037   74.8647   -6.7500 H   0  0  0  0  0  0  0  0  0  0  0  0
   16.9579   70.2905   -5.1785 O   0  0  0  0  0  0  0  0  0  0  0  0
   16.5117   71.9410   -6.6871 O   0  0  0  0  0  0  0  0  0  0  0  0
   17.2777   71.3826   -5.9161 C   0  0  0  0  0  0  0  0  0  0  0  0
  1  4  1  0
  1 24  1  0
  1  2  1  6
  1  3  2  0
 25 28  1  0
 25 24  1  0
 25 26  1  1
 25 27  2  0
  6 11  1  0
  6 12  1  0
 29 36  1  0
 29 37  1  0
  9  7  1  1
  7 13  1  0
 10  8  1  1
  8 14  1  0
  4  5  1  0
 36 28  1  1
 33 30  1  6
 30 38  1  0
 34 31  1  1
 31 39  1  0
 35 32  1  1
 32 40  1  0
 41 43  1  0
 15 19  2  0
 42 43  2  0
 16 22  2  0
 12 17  1  6
 17 19  1  0
 17 20  1  0
 18 19  1  0
 18 22  1  0
 18 23  1  0
  9 10  1  0
  9 11  1  0
 10 12  1  0
 11  5  1  6
 33 34  1  0
 33 35  1  0
 34 36  1  0
 35 37  1  0
 37 43  1  6
 20 21  2  0
 21 22  1  0
M  CHG  3   2  -1  26  -1  41  -1
M  END
>  <COMPND>  (148) 
    udp_gluA.pdb 

>  <AUTHOR>  (148) 
    GENERATED BY OPEN BABEL 3.1.1

>  <MASTER>  (148) 
        0    0    0    0    0    0    0    0   56    0   56    0

>  <minimizedAffinity>  (148) 
-6.78918

>  <CNNscore>  (148) 
0.4795811772

>  <CNNaffinity>  (148) 
4.4151535034

>  <CNN_VS>  (148) 
2.1174244881

>  <CNNaffinity_variance>  (148) 
0.0237290375

$$$$
149
     RDKit          3D

 43 45  0  0  0  0  0  0  0  0999 V2000
   24.0055   73.0917   -5.0044 P   0  0  2  0  0  0  0  0  0  0  0  0
   25.3476   73.3194   -5.8795 O   0  0  0  0  0  0  0  0  0  0  0  0
   23.5570   74.2836   -4.2106 O   0  0  0  0  0  0  0  0  0  0  0  0
   24.3221   71.7559   -4.1480 O   0  0  0  0  0  0  0  0  0  0  0  0
   25.4680   70.9945   -4.4818 C   0  0  0  0  0  0  0  0  0  0  0  0
   27.0122   69.6262   -3.2485 O   0  0  0  0  0  0  0  0  0  0  0  0
   27.9777   72.1727   -1.9935 O   0  0  0  0  0  0  0  0  0  0  0  0
   29.8858   71.6759   -3.8773 O   0  0  0  0  0  0  0  0  0  0  0  0
   27.5312   71.9360   -3.3289 C   0  0  1  0  0  0  0  0  0  0  0  0
   28.5848   71.1765   -4.1069 C   0  0  2  0  0  0  0  0  0  0  0  0
   26.3903   70.9293   -3.2713 C   0  0  1  0  0  0  0  0  0  0  0  0
   28.4016   69.7609   -3.5869 C   0  0  2  0  0  0  0  0  0  0  0  0
   28.7068   72.8130   -2.0048 H   0  0  0  0  0  0  0  0  0  0  0  0
   29.9516   72.5791   -4.2264 H   0  0  0  0  0  0  0  0  0  0  0  0
   31.0090   68.7583   -4.0029 O   0  0  0  0  0  0  0  0  0  0  0  0
   29.5900   65.9555   -7.3756 O   0  0  0  0  0  0  0  0  0  0  0  0
   28.7418   68.7687   -4.5670 N   0  0  0  0  0  0  0  0  0  0  0  0
   30.3000   67.3641   -5.6830 N   0  0  0  0  0  0  0  0  0  0  0  0
   30.0820   68.3334   -4.6951 C   0  0  0  0  0  0  0  0  0  0  0  0
   27.7541   68.2365   -5.3869 C   0  0  0  0  0  0  0  0  0  0  0  0
   27.9771   67.3130   -6.3240 C   0  0  0  0  0  0  0  0  0  0  0  0
   29.3504   66.8051   -6.5230 C   0  0  0  0  0  0  0  0  0  0  0  0
   31.2256   67.0470   -5.7923 H   0  0  0  0  0  0  0  0  0  0  0  0
   22.9390   72.5745   -6.1034 O   0  0  0  0  0  0  0  0  0  0  0  0
   21.5841   71.7075   -5.9416 P   0  0  2  0  0  0  0  0  0  0  0  0
   21.0747   72.0915   -4.4539 O   0  0  0  0  0  0  0  0  0  0  0  0
   21.7639   70.2351   -6.1730 O   0  0  0  0  0  0  0  0  0  0  0  0
   20.5243   72.4161   -6.9303 O   0  0  0  0  0  0  0  0  0  0  0  0
   19.6326   71.0283   -8.6297 O   0  0  0  0  0  0  0  0  0  0  0  0
   18.3577   74.7664   -9.8418 O   0  0  0  0  0  0  0  0  0  0  0  0
   21.0670   74.3859   -8.8174 O   0  0  0  0  0  0  0  0  0  0  0  0
   16.4869   72.9167   -8.6051 O   0  0  0  0  0  0  0  0  0  0  0  0
   18.7256   73.7561   -8.9026 C   0  0  2  0  0  0  0  0  0  0  0  0
   20.1730   73.3301   -9.1500 C   0  0  2  0  0  0  0  0  0  0  0  0
   17.7810   72.5672   -9.0927 C   0  0  1  0  0  0  0  0  0  0  0  0
   20.5293   72.0958   -8.3203 C   0  0  1  0  0  0  0  0  0  0  0  0
   18.2727   71.3381   -8.3337 C   0  0  1  0  0  0  0  0  0  0  0  0
   18.9446   75.5322   -9.7397 H   0  0  0  0  0  0  0  0  0  0  0  0
   20.8465   75.1725   -9.3400 H   0  0  0  0  0  0  0  0  0  0  0  0
   16.1625   73.6978   -9.0799 H   0  0  0  0  0  0  0  0  0  0  0  0
   16.3783   69.9747   -8.1020 O   0  0  0  0  0  0  0  0  0  0  0  0
   17.9370   69.3370   -9.6391 O   0  0  0  0  0  0  0  0  0  0  0  0
   17.5444   70.1124   -8.7803 C   0  0  0  0  0  0  0  0  0  0  0  0
  1  4  1  0
  1 24  1  0
  1  2  1  6
  1  3  2  0
 25 28  1  0
 25 24  1  0
 25 26  1  1
 25 27  2  0
  6 11  1  0
  6 12  1  0
 29 36  1  0
 29 37  1  0
  9  7  1  1
  7 13  1  0
 10  8  1  1
  8 14  1  0
  4  5  1  0
 36 28  1  1
 33 30  1  6
 30 38  1  0
 34 31  1  1
 31 39  1  0
 35 32  1  1
 32 40  1  0
 41 43  1  0
 15 19  2  0
 42 43  2  0
 16 22  2  0
 12 17  1  6
 17 19  1  0
 17 20  1  0
 18 19  1  0
 18 22  1  0
 18 23  1  0
  9 10  1  0
  9 11  1  0
 10 12  1  0
 11  5  1  6
 33 34  1  0
 33 35  1  0
 34 36  1  0
 35 37  1  0
 37 43  1  6
 20 21  2  0
 21 22  1  0
M  CHG  3   2  -1  26  -1  41  -1
M  END
>  <COMPND>  (149) 
    udp_gluA.pdb 

>  <AUTHOR>  (149) 
    GENERATED BY OPEN BABEL 3.1.1

>  <MASTER>  (149) 
        0    0    0    0    0    0    0    0   56    0   56    0

>  <minimizedAffinity>  (149) 
-7.78866

>  <CNNscore>  (149) 
0.4793896973

>  <CNNaffinity>  (149) 
4.3923506737

>  <CNN_VS>  (149) 
2.1056475639

>  <CNNaffinity_variance>  (149) 
0.0590016134

$$$$
150
     RDKit          3D

 43 45  0  0  0  0  0  0  0  0999 V2000
   28.9737   73.9530   -2.4826 P   0  0  2  0  0  0  0  0  0  0  0  0
   29.3540   75.3748   -3.1554 O   0  0  0  0  0  0  0  0  0  0  0  0
   28.7813   73.9874   -0.9947 O   0  0  0  0  0  0  0  0  0  0  0  0
   30.1236   72.9492   -3.0193 O   0  0  0  0  0  0  0  0  0  0  0  0
   29.7308   71.7144   -3.5897 C   0  0  0  0  0  0  0  0  0  0  0  0
   28.7063   69.6795   -2.8234 O   0  0  0  0  0  0  0  0  0  0  0  0
   31.1489   69.3085   -1.1241 O   0  0  0  0  0  0  0  0  0  0  0  0
   31.6255   67.6372   -3.2254 O   0  0  0  0  0  0  0  0  0  0  0  0
   31.0361   69.8602   -2.4362 C   0  0  1  0  0  0  0  0  0  0  0  0
   30.7984   68.7600   -3.4487 C   0  0  2  0  0  0  0  0  0  0  0  0
   29.7328   70.6442   -2.5057 C   0  0  1  0  0  0  0  0  0  0  0  0
   29.3255   68.4521   -3.2400 C   0  0  2  0  0  0  0  0  0  0  0  0
   31.9743   68.8029   -1.0554 H   0  0  0  0  0  0  0  0  0  0  0  0
   32.5526   67.8844   -3.3711 H   0  0  0  0  0  0  0  0  0  0  0  0
   26.7667   67.2599   -3.3273 O   0  0  0  0  0  0  0  0  0  0  0  0
   26.9739   66.7195   -7.8999 O   0  0  0  0  0  0  0  0  0  0  0  0
   28.6867   67.9907   -4.4399 N   0  0  0  0  0  0  0  0  0  0  0  0
   26.8727   66.9910   -5.6045 N   0  0  0  0  0  0  0  0  0  0  0  0
   27.3998   67.4061   -4.3745 C   0  0  0  0  0  0  0  0  0  0  0  0
   29.3326   68.1205   -5.6634 C   0  0  0  0  0  0  0  0  0  0  0  0
   28.8174   67.7202   -6.8275 C   0  0  0  0  0  0  0  0  0  0  0  0
   27.4771   67.0983   -6.8466 C   0  0  0  0  0  0  0  0  0  0  0  0
   25.9787   66.5791   -5.5841 H   0  0  0  0  0  0  0  0  0  0  0  0
   27.6698   73.4926   -3.3197 O   0  0  0  0  0  0  0  0  0  0  0  0
   26.1211   73.9419   -3.2041 P   0  0  2  0  0  0  0  0  0  0  0  0
   25.3803   72.9991   -4.2915 O   0  0  0  0  0  0  0  0  0  0  0  0
   25.8902   75.4122   -3.4011 O   0  0  0  0  0  0  0  0  0  0  0  0
   25.6357   73.3736   -1.7745 O   0  0  0  0  0  0  0  0  0  0  0  0
   26.5219   71.5601   -0.5356 O   0  0  0  0  0  0  0  0  0  0  0  0
   22.5545   71.5054    0.6154 O   0  0  0  0  0  0  0  0  0  0  0  0
   23.2797   71.9516   -2.1792 O   0  0  0  0  0  0  0  0  0  0  0  0
   24.5822   72.5509    2.4171 O   0  0  0  0  0  0  0  0  0  0  0  0
   23.7799   72.1016    0.1901 C   0  0  2  0  0  0  0  0  0  0  0  0
   24.1851   71.5262   -1.1672 C   0  0  2  0  0  0  0  0  0  0  0  0
   24.8477   71.7889    1.2409 C   0  0  1  0  0  0  0  0  0  0  0  0
   25.5996   71.9658   -1.5476 C   0  0  1  0  0  0  0  0  0  0  0  0
   26.2446   72.1400    0.7372 C   0  0  1  0  0  0  0  0  0  0  0  0
   21.8609   71.6908   -0.0372 H   0  0  0  0  0  0  0  0  0  0  0  0
   22.3801   71.6763   -1.9441 H   0  0  0  0  0  0  0  0  0  0  0  0
   23.6959   72.3369    2.7478 H   0  0  0  0  0  0  0  0  0  0  0  0
   28.3907   71.2065    0.8929 O   0  0  0  0  0  0  0  0  0  0  0  0
   27.1834   71.3658    2.8206 O   0  0  0  0  0  0  0  0  0  0  0  0
   27.2923   71.5376    1.6158 C   0  0  0  0  0  0  0  0  0  0  0  0
  1  4  1  0
  1 24  1  0
  1  2  1  6
  1  3  2  0
 25 28  1  0
 25 24  1  0
 25 26  1  6
 25 27  2  0
  6 11  1  0
  6 12  1  0
 29 36  1  0
 29 37  1  0
  9  7  1  1
  7 13  1  0
 10  8  1  1
  8 14  1  0
  4  5  1  0
 36 28  1  1
 33 30  1  1
 30 38  1  0
 34 31  1  6
 31 39  1  0
 35 32  1  1
 32 40  1  0
 41 43  1  0
 15 19  2  0
 42 43  2  0
 16 22  2  0
 12 17  1  6
 17 19  1  0
 17 20  1  0
 18 19  1  0
 18 22  1  0
 18 23  1  0
  9 10  1  0
  9 11  1  0
 10 12  1  0
 11  5  1  6
 33 34  1  0
 33 35  1  0
 34 36  1  0
 35 37  1  0
 37 43  1  1
 20 21  2  0
 21 22  1  0
M  CHG  3   2  -1  26  -1  41  -1
M  END
>  <COMPND>  (150) 
    udp_gluA.pdb 

>  <AUTHOR>  (150) 
    GENERATED BY OPEN BABEL 3.1.1

>  <MASTER>  (150) 
        0    0    0    0    0    0    0    0   56    0   56    0

>  <minimizedAffinity>  (150) 
-7.24529

>  <CNNscore>  (150) 
0.4695837200

>  <CNNaffinity>  (150) 
4.3349728584

>  <CNN_VS>  (150) 
2.0356326103

>  <CNNaffinity_variance>  (150) 
0.1692650020

$$$$
151
     RDKit          3D

 43 45  0  0  0  0  0  0  0  0999 V2000
   24.7492   73.1184   -3.5668 P   0  0  2  0  0  0  0  0  0  0  0  0
   24.0208   71.7471   -4.0229 O   0  0  0  0  0  0  0  0  0  0  0  0
   24.0477   74.3775   -3.9842 O   0  0  0  0  0  0  0  0  0  0  0  0
   26.2666   72.9490   -4.1022 O   0  0  0  0  0  0  0  0  0  0  0  0
   26.7601   71.6423   -4.3335 C   0  0  0  0  0  0  0  0  0  0  0  0
   27.5592   69.6753   -3.2065 O   0  0  0  0  0  0  0  0  0  0  0  0
   28.8646   71.5468   -1.2610 O   0  0  0  0  0  0  0  0  0  0  0  0
   30.9430   70.8099   -2.8651 O   0  0  0  0  0  0  0  0  0  0  0  0
   28.6846   71.6894   -2.6702 C   0  0  1  0  0  0  0  0  0  0  0  0
   29.6426   70.7842   -3.4152 C   0  0  2  0  0  0  0  0  0  0  0  0
   27.3326   71.0910   -3.0340 C   0  0  1  0  0  0  0  0  0  0  0  0
   28.9729   69.4284   -3.2699 C   0  0  2  0  0  0  0  0  0  0  0  0
   29.7219   71.9221   -1.0046 H   0  0  0  0  0  0  0  0  0  0  0  0
   31.3265   71.6937   -2.9829 H   0  0  0  0  0  0  0  0  0  0  0  0
   31.1881   67.6831   -3.4228 O   0  0  0  0  0  0  0  0  0  0  0  0
   29.9207   66.1444   -7.5786 O   0  0  0  0  0  0  0  0  0  0  0  0
   29.2459   68.5605   -4.3803 N   0  0  0  0  0  0  0  0  0  0  0  0
   30.5553   66.9191   -5.4929 N   0  0  0  0  0  0  0  0  0  0  0  0
   30.3862   67.7229   -4.3579 C   0  0  0  0  0  0  0  0  0  0  0  0
   28.3892   68.5433   -5.4743 C   0  0  0  0  0  0  0  0  0  0  0  0
   28.5635   67.7716   -6.5489 C   0  0  0  0  0  0  0  0  0  0  0  0
   29.7310   66.8677   -6.6054 C   0  0  0  0  0  0  0  0  0  0  0  0
   31.3433   66.3290   -5.5012 H   0  0  0  0  0  0  0  0  0  0  0  0
   24.9049   72.9324   -1.9687 O   0  0  0  0  0  0  0  0  0  0  0  0
   25.6199   73.8628   -0.8565 P   0  0  2  0  0  0  0  0  0  0  0  0
   24.5577   75.0653   -0.6420 O   0  0  0  0  0  0  0  0  0  0  0  0
   27.0013   74.3171   -1.2295 O   0  0  0  0  0  0  0  0  0  0  0  0
   25.5429   73.0035    0.5067 O   0  0  0  0  0  0  0  0  0  0  0  0
   25.0879   73.6675    2.7340 O   0  0  0  0  0  0  0  0  0  0  0  0
   27.7816   70.5882    3.3085 O   0  0  0  0  0  0  0  0  0  0  0  0
   28.2021   72.5462    1.1815 O   0  0  0  0  0  0  0  0  0  0  0  0
   24.9505   70.1638    3.8144 O   0  0  0  0  0  0  0  0  0  0  0  0
   26.7306   71.2942    2.6489 C   0  0  2  0  0  0  0  0  0  0  0  0
   27.2328   72.6717    2.2155 C   0  0  2  0  0  0  0  0  0  0  0  0
   25.5669   71.4371    3.6325 C   0  0  1  0  0  0  0  0  0  0  0  0
   26.0793   73.5416    1.7139 C   0  0  1  0  0  0  0  0  0  0  0  0
   24.5179   72.4175    3.1157 C   0  0  1  0  0  0  0  0  0  0  0  0
   28.5323   70.4855    2.7025 H   0  0  0  0  0  0  0  0  0  0  0  0
   28.9369   71.9952    1.4928 H   0  0  0  0  0  0  0  0  0  0  0  0
   25.6076   69.5304    4.1430 H   0  0  0  0  0  0  0  0  0  0  0  0
   22.5314   71.9277    4.2626 O   0  0  0  0  0  0  0  0  0  0  0  0
   23.7005   73.7629    4.9441 O   0  0  0  0  0  0  0  0  0  0  0  0
   23.5680   72.8001    4.2036 C   0  0  0  0  0  0  0  0  0  0  0  0
  1  4  1  0
  1 24  1  0
  1  2  1  6
  1  3  2  0
 25 28  1  0
 25 24  1  0
 25 26  1  1
 25 27  2  0
  6 11  1  0
  6 12  1  0
 29 36  1  0
 29 37  1  0
  9  7  1  1
  7 13  1  0
 10  8  1  1
  8 14  1  0
  4  5  1  0
 36 28  1  6
 33 30  1  1
 30 38  1  0
 34 31  1  6
 31 39  1  0
 35 32  1  6
 32 40  1  0
 41 43  1  0
 15 19  2  0
 42 43  2  0
 16 22  2  0
 12 17  1  6
 17 19  1  0
 17 20  1  0
 18 19  1  0
 18 22  1  0
 18 23  1  0
  9 10  1  0
  9 11  1  0
 10 12  1  0
 11  5  1  6
 33 34  1  0
 33 35  1  0
 34 36  1  0
 35 37  1  0
 37 43  1  1
 20 21  2  0
 21 22  1  0
M  CHG  3   2  -1  26  -1  41  -1
M  END
>  <COMPND>  (151) 
    udp_gluA.pdb 

>  <AUTHOR>  (151) 
    GENERATED BY OPEN BABEL 3.1.1

>  <MASTER>  (151) 
        0    0    0    0    0    0    0    0   56    0   56    0

>  <minimizedAffinity>  (151) 
-6.25545

>  <CNNscore>  (151) 
0.4067568779

>  <CNNaffinity>  (151) 
4.2510747910

>  <CNN_VS>  (151) 
1.7291538715

>  <CNNaffinity_variance>  (151) 
0.0632347316

$$$$
152
     RDKit          3D

 43 45  0  0  0  0  0  0  0  0999 V2000
   27.9587   72.1367    1.6682 P   0  0  2  0  0  0  0  0  0  0  0  0
   26.6978   72.3508    2.6597 O   0  0  0  0  0  0  0  0  0  0  0  0
   28.3589   70.7067    1.4517 O   0  0  0  0  0  0  0  0  0  0  0  0
   29.1036   73.1015    2.2817 O   0  0  0  0  0  0  0  0  0  0  0  0
   29.6169   72.8082    3.5681 C   0  0  0  0  0  0  0  0  0  0  0  0
   31.8413   72.8932    4.4752 O   0  0  0  0  0  0  0  0  0  0  0  0
   32.3579   70.3610    2.9544 O   0  0  0  0  0  0  0  0  0  0  0  0
   31.9427   69.4570    5.4934 O   0  0  0  0  0  0  0  0  0  0  0  0
   31.1675   70.7917    3.6146 C   0  0  1  0  0  0  0  0  0  0  0  0
   31.3273   70.6706    5.1153 C   0  0  2  0  0  0  0  0  0  0  0  0
   31.0453   72.2978    3.4277 C   0  0  1  0  0  0  0  0  0  0  0  0
   32.1802   71.8850    5.4406 C   0  0  2  0  0  0  0  0  0  0  0  0
   32.4576   69.4015    3.0600 H   0  0  0  0  0  0  0  0  0  0  0  0
   31.3605   68.7146    5.2657 H   0  0  0  0  0  0  0  0  0  0  0  0
   34.1924   72.5799    7.2966 O   0  0  0  0  0  0  0  0  0  0  0  0
   31.0905   73.8351   10.4663 O   0  0  0  0  0  0  0  0  0  0  0  0
   31.9264   72.3958    6.7580 N   0  0  0  0  0  0  0  0  0  0  0  0
   32.6455   73.2034    8.8739 N   0  0  0  0  0  0  0  0  0  0  0  0
   33.0086   72.7139    7.6123 C   0  0  0  0  0  0  0  0  0  0  0  0
   30.6187   72.5786    7.1910 C   0  0  0  0  0  0  0  0  0  0  0  0
   30.2883   73.0462    8.3964 C   0  0  0  0  0  0  0  0  0  0  0  0
   31.3596   73.4018    9.3500 C   0  0  0  0  0  0  0  0  0  0  0  0
   33.3818   73.4299    9.4870 H   0  0  0  0  0  0  0  0  0  0  0  0
   27.5039   72.9188    0.3287 O   0  0  0  0  0  0  0  0  0  0  0  0
   26.7414   72.3970   -0.9980 P   0  0  2  0  0  0  0  0  0  0  0  0
   26.7120   73.7078   -1.9474 O   0  0  0  0  0  0  0  0  0  0  0  0
   25.3921   71.7932   -0.7354 O   0  0  0  0  0  0  0  0  0  0  0  0
   27.7930   71.4021   -1.7098 O   0  0  0  0  0  0  0  0  0  0  0  0
   30.1242   71.7983   -1.5772 O   0  0  0  0  0  0  0  0  0  0  0  0
   29.8891   69.2394   -4.8121 O   0  0  0  0  0  0  0  0  0  0  0  0
   27.9472   71.3976   -4.4869 O   0  0  0  0  0  0  0  0  0  0  0  0
   30.8246   68.2583   -2.2405 O   0  0  0  0  0  0  0  0  0  0  0  0
   29.5006   69.7856   -3.5517 C   0  0  2  0  0  0  0  0  0  0  0  0
   29.1398   71.2614   -3.7228 C   0  0  2  0  0  0  0  0  0  0  0  0
   30.6791   69.6342   -2.5872 C   0  0  1  0  0  0  0  0  0  0  0  0
   28.9414   71.9371   -2.3653 C   0  0  1  0  0  0  0  0  0  0  0  0
   30.4599   70.4387   -1.3092 C   0  0  1  0  0  0  0  0  0  0  0  0
   29.1556   69.3245   -5.4415 H   0  0  0  0  0  0  0  0  0  0  0  0
   28.0659   70.9708   -5.3496 H   0  0  0  0  0  0  0  0  0  0  0  0
   30.9646   67.7351   -3.0452 H   0  0  0  0  0  0  0  0  0  0  0  0
   31.8436   69.5320    0.3536 O   0  0  0  0  0  0  0  0  0  0  0  0
   32.5583   71.4415   -0.6671 O   0  0  0  0  0  0  0  0  0  0  0  0
   31.7299   70.5538   -0.5306 C   0  0  0  0  0  0  0  0  0  0  0  0
  1  4  1  0
  1 24  1  0
  1  2  1  1
  1  3  2  0
 25 28  1  0
 25 24  1  0
 25 26  1  6
 25 27  2  0
  6 11  1  0
  6 12  1  0
 29 36  1  0
 29 37  1  0
  9  7  1  6
  7 13  1  0
 10  8  1  6
  8 14  1  0
  4  5  1  0
 36 28  1  1
 33 30  1  6
 30 38  1  0
 34 31  1  6
 31 39  1  0
 35 32  1  1
 32 40  1  0
 41 43  1  0
 15 19  2  0
 42 43  2  0
 16 22  2  0
 12 17  1  1
 17 19  1  0
 17 20  1  0
 18 19  1  0
 18 22  1  0
 18 23  1  0
  9 10  1  0
  9 11  1  0
 10 12  1  0
 11  5  1  1
 33 34  1  0
 33 35  1  0
 34 36  1  0
 35 37  1  0
 37 43  1  1
 20 21  2  0
 21 22  1  0
M  CHG  3   2  -1  26  -1  41  -1
M  END
>  <COMPND>  (152) 
    udp_gluA.pdb 

>  <AUTHOR>  (152) 
    GENERATED BY OPEN BABEL 3.1.1

>  <MASTER>  (152) 
        0    0    0    0    0    0    0    0   56    0   56    0

>  <minimizedAffinity>  (152) 
-6.51964

>  <CNNscore>  (152) 
0.3814277351

>  <CNNaffinity>  (152) 
3.6992805004

>  <CNN_VS>  (152) 
1.4110082388

>  <CNNaffinity_variance>  (152) 
0.4065081477

$$$$
153
     RDKit          3D

 43 45  0  0  0  0  0  0  0  0999 V2000
   24.4517   71.6132   -3.6114 P   0  0  2  0  0  0  0  0  0  0  0  0
   23.8822   72.7064   -4.6599 O   0  0  0  0  0  0  0  0  0  0  0  0
   24.4379   72.0461   -2.1747 O   0  0  0  0  0  0  0  0  0  0  0  0
   25.9010   71.2170   -4.2119 O   0  0  0  0  0  0  0  0  0  0  0  0
   26.9785   72.1166   -4.0268 C   0  0  0  0  0  0  0  0  0  0  0  0
   28.0318   70.2717   -2.9023 O   0  0  0  0  0  0  0  0  0  0  0  0
   29.5544   72.3321   -1.3442 O   0  0  0  0  0  0  0  0  0  0  0  0
   31.3752   71.5293   -3.2086 O   0  0  0  0  0  0  0  0  0  0  0  0
   29.1429   72.3548   -2.7112 C   0  0  1  0  0  0  0  0  0  0  0  0
   30.0052   71.4208   -3.5337 C   0  0  2  0  0  0  0  0  0  0  0  0
   27.7764   71.6894   -2.8016 C   0  0  1  0  0  0  0  0  0  0  0  0
   29.4257   70.0621   -3.1788 C   0  0  2  0  0  0  0  0  0  0  0  0
   30.4253   72.7520   -1.2613 H   0  0  0  0  0  0  0  0  0  0  0  0
   31.6969   72.4115   -3.4539 H   0  0  0  0  0  0  0  0  0  0  0  0
   31.1622   67.8351   -3.1435 O   0  0  0  0  0  0  0  0  0  0  0  0
   29.8275   66.4972   -7.3474 O   0  0  0  0  0  0  0  0  0  0  0  0
   29.5520   69.1156   -4.2507 N   0  0  0  0  0  0  0  0  0  0  0  0
   30.4965   67.1714   -5.2377 N   0  0  0  0  0  0  0  0  0  0  0  0
   30.4540   68.0318   -4.1328 C   0  0  0  0  0  0  0  0  0  0  0  0
   28.7870   69.2645   -5.4012 C   0  0  0  0  0  0  0  0  0  0  0  0
   28.8385   68.4361   -6.4461 C   0  0  0  0  0  0  0  0  0  0  0  0
   29.7560   67.2786   -6.4038 C   0  0  0  0  0  0  0  0  0  0  0  0
   31.1187   66.4106   -5.1797 H   0  0  0  0  0  0  0  0  0  0  0  0
   23.5568   70.3051   -3.9291 O   0  0  0  0  0  0  0  0  0  0  0  0
   21.9688   70.0430   -3.7768 P   0  0  2  0  0  0  0  0  0  0  0  0
   21.5562   70.9866   -2.5280 O   0  0  0  0  0  0  0  0  0  0  0  0
   21.5964   68.5982   -3.6097 O   0  0  0  0  0  0  0  0  0  0  0  0
   21.3105   70.7595   -5.0635 O   0  0  0  0  0  0  0  0  0  0  0  0
   20.4103   72.9487   -5.1441 O   0  0  0  0  0  0  0  0  0  0  0  0
   18.2813   71.0537   -8.1348 O   0  0  0  0  0  0  0  0  0  0  0  0
   18.7946   69.7005   -5.5972 O   0  0  0  0  0  0  0  0  0  0  0  0
   20.4325   72.8879   -8.8126 O   0  0  0  0  0  0  0  0  0  0  0  0
   19.4127   71.3111   -7.3031 C   0  0  2  0  0  0  0  0  0  0  0  0
   19.0345   71.0819   -5.8395 C   0  0  2  0  0  0  0  0  0  0  0  0
   19.8393   72.7644   -7.5213 C   0  0  1  0  0  0  0  0  0  0  0  0
   20.1445   71.5660   -4.9054 C   0  0  1  0  0  0  0  0  0  0  0  0
   20.8549   73.2103   -6.4733 C   0  0  1  0  0  0  0  0  0  0  0  0
   17.9923   70.1356   -8.0130 H   0  0  0  0  0  0  0  0  0  0  0  0
   18.0915   69.3866   -6.1867 H   0  0  0  0  0  0  0  0  0  0  0  0
   19.7964   72.6070   -9.4888 H   0  0  0  0  0  0  0  0  0  0  0  0
   21.8492   75.0969   -5.4970 O   0  0  0  0  0  0  0  0  0  0  0  0
   20.4732   75.4519   -7.2801 O   0  0  0  0  0  0  0  0  0  0  0  0
   21.0145   74.6957   -6.4875 C   0  0  0  0  0  0  0  0  0  0  0  0
  1  4  1  0
  1 24  1  0
  1  2  1  6
  1  3  2  0
 25 28  1  0
 25 24  1  0
 25 26  1  1
 25 27  2  0
  6 11  1  0
  6 12  1  0
 29 36  1  0
 29 37  1  0
  9  7  1  1
  7 13  1  0
 10  8  1  1
  8 14  1  0
  4  5  1  0
 36 28  1  6
 33 30  1  6
 30 38  1  0
 34 31  1  6
 31 39  1  0
 35 32  1  6
 32 40  1  0
 41 43  1  0
 15 19  2  0
 42 43  2  0
 16 22  2  0
 12 17  1  6
 17 19  1  0
 17 20  1  0
 18 19  1  0
 18 22  1  0
 18 23  1  0
  9 10  1  0
  9 11  1  0
 10 12  1  0
 11  5  1  6
 33 34  1  0
 33 35  1  0
 34 36  1  0
 35 37  1  0
 37 43  1  1
 20 21  2  0
 21 22  1  0
M  CHG  3   2  -1  26  -1  41  -1
M  END
>  <COMPND>  (153) 
    udp_gluA.pdb 

>  <AUTHOR>  (153) 
    GENERATED BY OPEN BABEL 3.1.1

>  <MASTER>  (153) 
        0    0    0    0    0    0    0    0   56    0   56    0

>  <minimizedAffinity>  (153) 
-6.57045

>  <CNNscore>  (153) 
0.3677159548

>  <CNNaffinity>  (153) 
4.3790750504

>  <CNN_VS>  (153) 
1.6102557182

>  <CNNaffinity_variance>  (153) 
0.0252782591

$$$$
154
     RDKit          3D

 43 45  0  0  0  0  0  0  0  0999 V2000
   29.0479   71.3709    2.5346 P   0  0  2  0  0  0  0  0  0  0  0  0
   30.1165   70.7458    3.5767 O   0  0  0  0  0  0  0  0  0  0  0  0
   29.0865   72.8657    2.4078 O   0  0  0  0  0  0  0  0  0  0  0  0
   27.6332   70.7420    3.0046 O   0  0  0  0  0  0  0  0  0  0  0  0
   26.4551   71.1521    2.3350 C   0  0  0  0  0  0  0  0  0  0  0  0
   25.4702   70.6755    4.4752 O   0  0  0  0  0  0  0  0  0  0  0  0
   22.8635   70.4317    3.0132 O   0  0  0  0  0  0  0  0  0  0  0  0
   22.7040   72.9259    4.1039 O   0  0  0  0  0  0  0  0  0  0  0  0
   23.9546   71.3207    2.7730 C   0  0  1  0  0  0  0  0  0  0  0  0
   23.9879   72.4066    3.8275 C   0  0  2  0  0  0  0  0  0  0  0  0
   25.2466   70.5652    3.0528 C   0  0  1  0  0  0  0  0  0  0  0  0
   24.5909   71.6751    5.0146 C   0  0  2  0  0  0  0  0  0  0  0  0
   22.0269   70.8922    2.8410 H   0  0  0  0  0  0  0  0  0  0  0  0
   22.3636   73.3821    3.3178 H   0  0  0  0  0  0  0  0  0  0  0  0
   23.4597   73.3060    7.0238 O   0  0  0  0  0  0  0  0  0  0  0  0
   27.5782   74.9812    8.2384 O   0  0  0  0  0  0  0  0  0  0  0  0
   25.3445   72.5471    5.8705 N   0  0  0  0  0  0  0  0  0  0  0  0
   25.5119   74.1396    7.6261 N   0  0  0  0  0  0  0  0  0  0  0  0
   24.6794   73.3244    6.8480 C   0  0  0  0  0  0  0  0  0  0  0  0
   26.7256   72.6250    5.7384 C   0  0  0  0  0  0  0  0  0  0  0  0
   27.5058   73.4065    6.4876 C   0  0  0  0  0  0  0  0  0  0  0  0
   26.8897   74.2514    7.5316 C   0  0  0  0  0  0  0  0  0  0  0  0
   25.0714   74.6916    8.3121 H   0  0  0  0  0  0  0  0  0  0  0  0
   29.3646   70.5708    1.1663 O   0  0  0  0  0  0  0  0  0  0  0  0
   30.6464   70.6168    0.1821 P   0  0  2  0  0  0  0  0  0  0  0  0
   31.6086   69.4572    0.7735 O   0  0  0  0  0  0  0  0  0  0  0  0
   31.2958   71.9666    0.0795 O   0  0  0  0  0  0  0  0  0  0  0  0
   30.1085   70.0245   -1.2186 O   0  0  0  0  0  0  0  0  0  0  0  0
   31.1581   69.3043   -3.2158 O   0  0  0  0  0  0  0  0  0  0  0  0
   27.8102   71.2357   -4.6749 O   0  0  0  0  0  0  0  0  0  0  0  0
   29.3405   72.3873   -2.4689 O   0  0  0  0  0  0  0  0  0  0  0  0
   27.9191   68.3310   -4.6384 O   0  0  0  0  0  0  0  0  0  0  0  0
   28.5684   70.4697   -3.7388 C   0  0  2  0  0  0  0  0  0  0  0  0
   29.7695   71.2869   -3.2624 C   0  0  2  0  0  0  0  0  0  0  0  0
   29.0376   69.1939   -4.4417 C   0  0  1  0  0  0  0  0  0  0  0  0
   30.7273   70.4235   -2.4403 C   0  0  1  0  0  0  0  0  0  0  0  0
   30.0845   68.4545   -3.6136 C   0  0  1  0  0  0  0  0  0  0  0  0
   27.5013   72.0517   -4.2504 H   0  0  0  0  0  0  0  0  0  0  0  0
   28.7321   72.9393   -2.9842 H   0  0  0  0  0  0  0  0  0  0  0  0
   27.2453   68.7897   -5.1641 H   0  0  0  0  0  0  0  0  0  0  0  0
   31.7751   66.8329   -3.7313 O   0  0  0  0  0  0  0  0  0  0  0  0
   30.4695   67.1104   -5.5799 O   0  0  0  0  0  0  0  0  0  0  0  0
   30.7694   67.4104   -4.4341 C   0  0  0  0  0  0  0  0  0  0  0  0
  1  4  1  0
  1 24  1  0
  1  2  1  1
  1  3  2  0
 25 28  1  0
 25 24  1  0
 25 26  1  1
 25 27  2  0
  6 11  1  0
  6 12  1  0
 29 36  1  0
 29 37  1  0
  9  7  1  1
  7 13  1  0
 10  8  1  1
  8 14  1  0
  4  5  1  0
 36 28  1  1
 33 30  1  6
 30 38  1  0
 34 31  1  1
 31 39  1  0
 35 32  1  1
 32 40  1  0
 41 43  1  0
 15 19  2  0
 42 43  2  0
 16 22  2  0
 12 17  1  1
 17 19  1  0
 17 20  1  0
 18 19  1  0
 18 22  1  0
 18 23  1  0
  9 10  1  0
  9 11  1  0
 10 12  1  0
 11  5  1  6
 33 34  1  0
 33 35  1  0
 34 36  1  0
 35 37  1  0
 37 43  1  6
 20 21  2  0
 21 22  1  0
M  CHG  3   2  -1  26  -1  41  -1
M  END
>  <COMPND>  (154) 
    udp_gluA.pdb 

>  <AUTHOR>  (154) 
    GENERATED BY OPEN BABEL 3.1.1

>  <MASTER>  (154) 
        0    0    0    0    0    0    0    0   56    0   56    0

>  <minimizedAffinity>  (154) 
-6.92358

>  <CNNscore>  (154) 
0.3439538777

>  <CNNaffinity>  (154) 
3.8978793621

>  <CNN_VS>  (154) 
1.3406907320

>  <CNNaffinity_variance>  (154) 
0.1243833154

$$$$
155
     RDKit          3D

 43 45  0  0  0  0  0  0  0  0999 V2000
   21.9852   75.0626   -5.3779 P   0  0  2  0  0  0  0  0  0  0  0  0
   20.6671   74.9577   -4.4449 O   0  0  0  0  0  0  0  0  0  0  0  0
   22.2049   76.4030   -6.0157 O   0  0  0  0  0  0  0  0  0  0  0  0
   21.8397   73.8148   -6.3976 O   0  0  0  0  0  0  0  0  0  0  0  0
   20.5408   73.4079   -6.7872 C   0  0  0  0  0  0  0  0  0  0  0  0
   20.0426   71.2272   -7.6670 O   0  0  0  0  0  0  0  0  0  0  0  0
   20.4758   72.4273  -10.3806 O   0  0  0  0  0  0  0  0  0  0  0  0
   17.7568   72.3707  -10.1812 O   0  0  0  0  0  0  0  0  0  0  0  0
   19.8939   73.0132   -9.2158 C   0  0  1  0  0  0  0  0  0  0  0  0
   18.5052   72.4554   -8.9866 C   0  0  2  0  0  0  0  0  0  0  0  0
   20.6504   72.4939   -8.0008 C   0  0  1  0  0  0  0  0  0  0  0  0
   18.8077   71.0922   -8.3881 C   0  0  2  0  0  0  0  0  0  0  0  0
   20.0089   72.7443  -11.1700 H   0  0  0  0  0  0  0  0  0  0  0  0
   17.5900   73.2639  -10.5223 H   0  0  0  0  0  0  0  0  0  0  0  0
   16.4420   69.7673   -9.1784 O   0  0  0  0  0  0  0  0  0  0  0  0
   14.9505   69.4483   -4.8289 O   0  0  0  0  0  0  0  0  0  0  0  0
   17.7842   70.6518   -7.4829 N   0  0  0  0  0  0  0  0  0  0  0  0
   15.7009   69.6106   -7.0114 N   0  0  0  0  0  0  0  0  0  0  0  0
   16.6344   69.9957   -7.9827 C   0  0  0  0  0  0  0  0  0  0  0  0
   17.9253   70.8691   -6.1177 C   0  0  0  0  0  0  0  0  0  0  0  0
   17.0270   70.4960   -5.2041 C   0  0  0  0  0  0  0  0  0  0  0  0
   15.7967   69.8052   -5.6430 C   0  0  0  0  0  0  0  0  0  0  0  0
   14.8912   69.1538   -7.3355 H   0  0  0  0  0  0  0  0  0  0  0  0
   23.1700   74.5860   -4.3871 O   0  0  0  0  0  0  0  0  0  0  0  0
   24.4196   73.5891   -4.6292 P   0  0  2  0  0  0  0  0  0  0  0  0
   25.3936   73.9058   -3.3757 O   0  0  0  0  0  0  0  0  0  0  0  0
   25.0731   73.7360   -5.9728 O   0  0  0  0  0  0  0  0  0  0  0  0
   23.8331   72.1169   -4.3274 O   0  0  0  0  0  0  0  0  0  0  0  0
   22.8945   72.1473   -2.1532 O   0  0  0  0  0  0  0  0  0  0  0  0
   22.1934   68.2458   -3.3170 O   0  0  0  0  0  0  0  0  0  0  0  0
   24.7534   69.5274   -3.8988 O   0  0  0  0  0  0  0  0  0  0  0  0
   20.0203   70.1766   -3.3010 O   0  0  0  0  0  0  0  0  0  0  0  0
   22.3628   69.6509   -3.5037 C   0  0  2  0  0  0  0  0  0  0  0  0
   23.7581   70.0648   -3.0354 C   0  0  2  0  0  0  0  0  0  0  0  0
   21.2906   70.3698   -2.6818 C   0  0  1  0  0  0  0  0  0  0  0  0
   23.8954   71.5877   -3.0042 C   0  0  1  0  0  0  0  0  0  0  0  0
   21.5674   71.8679   -2.5937 C   0  0  1  0  0  0  0  0  0  0  0  0
   22.8641   67.7681   -3.8300 H   0  0  0  0  0  0  0  0  0  0  0  0
   24.6719   68.5614   -3.9236 H   0  0  0  0  0  0  0  0  0  0  0  0
   19.8320   69.2271   -3.3634 H   0  0  0  0  0  0  0  0  0  0  0  0
   20.2207   71.5628   -0.6976 O   0  0  0  0  0  0  0  0  0  0  0  0
   20.5103   73.7011   -1.4347 O   0  0  0  0  0  0  0  0  0  0  0  0
   20.7227   72.5022   -1.5371 C   0  0  0  0  0  0  0  0  0  0  0  0
  1  4  1  0
  1 24  1  0
  1  2  1  1
  1  3  2  0
 25 28  1  0
 25 24  1  0
 25 26  1  1
 25 27  2  0
  6 11  1  0
  6 12  1  0
 29 36  1  0
 29 37  1  0
  9  7  1  6
  7 13  1  0
 10  8  1  6
  8 14  1  0
  4  5  1  0
 36 28  1  6
 33 30  1  1
 30 38  1  0
 34 31  1  6
 31 39  1  0
 35 32  1  6
 32 40  1  0
 41 43  1  0
 15 19  2  0
 42 43  2  0
 16 22  2  0
 12 17  1  1
 17 19  1  0
 17 20  1  0
 18 19  1  0
 18 22  1  0
 18 23  1  0
  9 10  1  0
  9 11  1  0
 10 12  1  0
 11  5  1  1
 33 34  1  0
 33 35  1  0
 34 36  1  0
 35 37  1  0
 37 43  1  1
 20 21  2  0
 21 22  1  0
M  CHG  3   2  -1  26  -1  41  -1
M  END
>  <COMPND>  (155) 
    udp_gluA.pdb 

>  <AUTHOR>  (155) 
    GENERATED BY OPEN BABEL 3.1.1

>  <MASTER>  (155) 
        0    0    0    0    0    0    0    0   56    0   56    0

>  <minimizedAffinity>  (155) 
-6.47472

>  <CNNscore>  (155) 
0.3283218145

>  <CNNaffinity>  (155) 
3.9547152519

>  <CNN_VS>  (155) 
1.2984192371

>  <CNNaffinity_variance>  (155) 
0.3102677464

$$$$
156
     RDKit          3D

 43 45  0  0  0  0  0  0  0  0999 V2000
   26.1230   71.7814   -1.8655 P   0  0  2  0  0  0  0  0  0  0  0  0
   24.9734   72.1810   -0.7989 O   0  0  0  0  0  0  0  0  0  0  0  0
   25.9208   70.4616   -2.5504 O   0  0  0  0  0  0  0  0  0  0  0  0
   27.4995   71.9352   -1.0290 O   0  0  0  0  0  0  0  0  0  0  0  0
   28.6685   72.3376   -1.7188 C   0  0  0  0  0  0  0  0  0  0  0  0
   29.6738   70.1545   -1.7485 O   0  0  0  0  0  0  0  0  0  0  0  0
   32.2029   71.5113   -0.8801 O   0  0  0  0  0  0  0  0  0  0  0  0
   32.6127   71.1396   -3.5503 O   0  0  0  0  0  0  0  0  0  0  0  0
   31.1865   71.9772   -1.7680 C   0  0  1  0  0  0  0  0  0  0  0  0
   31.2805   71.2569   -3.0963 C   0  0  2  0  0  0  0  0  0  0  0  0
   29.8429   71.4948   -1.2384 C   0  0  1  0  0  0  0  0  0  0  0  0
   30.6531   69.9121   -2.7710 C   0  0  2  0  0  0  0  0  0  0  0  0
   33.0708   71.8072   -1.1978 H   0  0  0  0  0  0  0  0  0  0  0  0
   32.9671   72.0221   -3.7440 H   0  0  0  0  0  0  0  0  0  0  0  0
   31.8504   68.0051   -4.4758 O   0  0  0  0  0  0  0  0  0  0  0  0
   28.0730   67.7104   -7.1003 O   0  0  0  0  0  0  0  0  0  0  0  0
   30.0051   69.3205   -3.9072 N   0  0  0  0  0  0  0  0  0  0  0  0
   29.9682   67.8609   -5.7819 N   0  0  0  0  0  0  0  0  0  0  0  0
   30.6952   68.3722   -4.6989 C   0  0  0  0  0  0  0  0  0  0  0  0
   28.7011   69.6789   -4.2265 C   0  0  0  0  0  0  0  0  0  0  0  0
   28.0211   69.1828   -5.2620 C   0  0  0  0  0  0  0  0  0  0  0  0
   28.6701   68.1870   -6.1398 C   0  0  0  0  0  0  0  0  0  0  0  0
   30.4285   67.2005   -6.3489 H   0  0  0  0  0  0  0  0  0  0  0  0
   26.1565   73.0569   -2.8579 O   0  0  0  0  0  0  0  0  0  0  0  0
   25.3571   73.3545   -4.2312 P   0  0  2  0  0  0  0  0  0  0  0  0
   25.8011   72.1286   -5.1907 O   0  0  0  0  0  0  0  0  0  0  0  0
   25.6123   74.7162   -4.8096 O   0  0  0  0  0  0  0  0  0  0  0  0
   23.8116   73.0560   -3.8781 O   0  0  0  0  0  0  0  0  0  0  0  0
   22.6624   71.2098   -2.9399 O   0  0  0  0  0  0  0  0  0  0  0  0
   20.0062   72.4656   -5.8443 O   0  0  0  0  0  0  0  0  0  0  0  0
   22.8719   72.3637   -6.4028 O   0  0  0  0  0  0  0  0  0  0  0  0
   19.4918   73.0532   -3.0441 O   0  0  0  0  0  0  0  0  0  0  0  0
   21.0224   72.6194   -4.8535 C   0  0  2  0  0  0  0  0  0  0  0  0
   22.2525   71.8030   -5.2510 C   0  0  2  0  0  0  0  0  0  0  0  0
   20.4615   72.1215   -3.5196 C   0  0  1  0  0  0  0  0  0  0  0  0
   23.2704   71.7568   -4.1107 C   0  0  1  0  0  0  0  0  0  0  0  0
   21.5605   71.9831   -2.4700 C   0  0  1  0  0  0  0  0  0  0  0  0
   20.3400   72.7756   -6.7009 H   0  0  0  0  0  0  0  0  0  0  0  0
   22.2316   72.3963   -7.1303 H   0  0  0  0  0  0  0  0  0  0  0  0
   18.7867   73.1506   -3.7031 H   0  0  0  0  0  0  0  0  0  0  0  0
   20.1003   70.3323   -1.6673 O   0  0  0  0  0  0  0  0  0  0  0  0
   21.4972   71.3106   -0.1537 O   0  0  0  0  0  0  0  0  0  0  0  0
   21.0761   71.1974   -1.2952 C   0  0  0  0  0  0  0  0  0  0  0  0
  1  4  1  0
  1 24  1  0
  1  2  1  1
  1  3  2  0
 25 28  1  0
 25 24  1  0
 25 26  1  6
 25 27  2  0
  6 11  1  0
  6 12  1  0
 29 36  1  0
 29 37  1  0
  9  7  1  1
  7 13  1  0
 10  8  1  1
  8 14  1  0
  4  5  1  0
 36 28  1  1
 33 30  1  6
 30 38  1  0
 34 31  1  6
 31 39  1  0
 35 32  1  1
 32 40  1  0
 41 43  1  0
 15 19  2  0
 42 43  2  0
 16 22  2  0
 12 17  1  6
 17 19  1  0
 17 20  1  0
 18 19  1  0
 18 22  1  0
 18 23  1  0
  9 10  1  0
  9 11  1  0
 10 12  1  0
 11  5  1  6
 33 34  1  0
 33 35  1  0
 34 36  1  0
 35 37  1  0
 37 43  1  1
 20 21  2  0
 21 22  1  0
M  CHG  3   2  -1  26  -1  41  -1
M  END
>  <COMPND>  (156) 
    udp_gluA.pdb 

>  <AUTHOR>  (156) 
    GENERATED BY OPEN BABEL 3.1.1

>  <MASTER>  (156) 
        0    0    0    0    0    0    0    0   56    0   56    0

>  <minimizedAffinity>  (156) 
-6.48851

>  <CNNscore>  (156) 
0.3165280521

>  <CNNaffinity>  (156) 
4.1604175568

>  <CNN_VS>  (156) 
1.3168888092

>  <CNNaffinity_variance>  (156) 
0.1396310031

$$$$
157
     RDKit          3D

 43 45  0  0  0  0  0  0  0  0999 V2000
   22.1593   71.5330   -4.4556 P   0  0  2  0  0  0  0  0  0  0  0  0
   21.7371   69.9883   -4.2220 O   0  0  0  0  0  0  0  0  0  0  0  0
   21.4915   72.5176   -3.5410 O   0  0  0  0  0  0  0  0  0  0  0  0
   21.9163   71.7672   -6.0380 O   0  0  0  0  0  0  0  0  0  0  0  0
   20.9954   72.7645   -6.4403 C   0  0  0  0  0  0  0  0  0  0  0  0
   20.2647   71.6902   -8.4625 O   0  0  0  0  0  0  0  0  0  0  0  0
   20.7253   74.3288   -9.8105 O   0  0  0  0  0  0  0  0  0  0  0  0
   18.0207   74.3014   -9.4628 O   0  0  0  0  0  0  0  0  0  0  0  0
   20.2384   74.0585   -8.4958 C   0  0  1  0  0  0  0  0  0  0  0  0
   18.8107   73.5584   -8.5581 C   0  0  2  0  0  0  0  0  0  0  0  0
   20.9796   72.8405   -7.9616 C   0  0  1  0  0  0  0  0  0  0  0  0
   19.0006   72.1160   -8.9955 C   0  0  2  0  0  0  0  0  0  0  0  0
   20.2663   75.1032  -10.1727 H   0  0  0  0  0  0  0  0  0  0  0  0
   17.9293   75.2120   -9.1398 H   0  0  0  0  0  0  0  0  0  0  0  0
   17.0731   70.8345  -10.6139 O   0  0  0  0  0  0  0  0  0  0  0  0
   15.0877   68.8224   -6.9733 O   0  0  0  0  0  0  0  0  0  0  0  0
   17.9685   71.2518   -8.4966 N   0  0  0  0  0  0  0  0  0  0  0  0
   16.0855   69.8344   -8.7990 N   0  0  0  0  0  0  0  0  0  0  0  0
   17.0501   70.6579   -9.3944 C   0  0  0  0  0  0  0  0  0  0  0  0
   17.8744   70.9988   -7.1335 C   0  0  0  0  0  0  0  0  0  0  0  0
   16.9495   70.2115   -6.5809 C   0  0  0  0  0  0  0  0  0  0  0  0
   15.9514   69.5531   -7.4490 C   0  0  0  0  0  0  0  0  0  0  0  0
   15.4338   69.4114   -9.4037 H   0  0  0  0  0  0  0  0  0  0  0  0
   23.7709   71.4906   -4.3378 O   0  0  0  0  0  0  0  0  0  0  0  0
   24.8889   72.6117   -4.6645 P   0  0  2  0  0  0  0  0  0  0  0  0
   24.7835   73.6182   -3.4011 O   0  0  0  0  0  0  0  0  0  0  0  0
   24.7225   73.2764   -6.0003 O   0  0  0  0  0  0  0  0  0  0  0  0
   26.2990   71.8539   -4.4647 O   0  0  0  0  0  0  0  0  0  0  0  0
   26.5746   69.8061   -3.3072 O   0  0  0  0  0  0  0  0  0  0  0  0
   30.3474   71.4610   -2.9980 O   0  0  0  0  0  0  0  0  0  0  0  0
   27.9691   73.1182   -2.6349 O   0  0  0  0  0  0  0  0  0  0  0  0
   29.8537   69.2937   -4.8716 O   0  0  0  0  0  0  0  0  0  0  0  0
   29.0857   71.1988   -3.6124 C   0  0  2  0  0  0  0  0  0  0  0  0
   27.9610   71.6970   -2.7044 C   0  0  2  0  0  0  0  0  0  0  0  0
   28.9682   69.6880   -3.8252 C   0  0  1  0  0  0  0  0  0  0  0  0
   26.5974   71.2311   -3.2166 C   0  0  1  0  0  0  0  0  0  0  0  0
   27.5472   69.2888   -4.2126 C   0  0  1  0  0  0  0  0  0  0  0  0
   30.4445   72.4153   -2.8529 H   0  0  0  0  0  0  0  0  0  0  0  0
   28.8316   73.4208   -2.3109 H   0  0  0  0  0  0  0  0  0  0  0  0
   30.7617   69.5422   -4.6376 H   0  0  0  0  0  0  0  0  0  0  0  0
   28.0224   67.1657   -5.0890 O   0  0  0  0  0  0  0  0  0  0  0  0
   26.7068   67.2523   -3.2287 O   0  0  0  0  0  0  0  0  0  0  0  0
   27.3610   67.8109   -4.0965 C   0  0  0  0  0  0  0  0  0  0  0  0
  1  4  1  0
  1 24  1  0
  1  2  1  1
  1  3  2  0
 25 28  1  0
 25 24  1  0
 25 26  1  1
 25 27  2  0
  6 11  1  0
  6 12  1  0
 29 36  1  0
 29 37  1  0
  9  7  1  6
  7 13  1  0
 10  8  1  6
  8 14  1  0
  4  5  1  0
 36 28  1  6
 33 30  1  1
 30 38  1  0
 34 31  1  6
 31 39  1  0
 35 32  1  6
 32 40  1  0
 41 43  1  0
 15 19  2  0
 42 43  2  0
 16 22  2  0
 12 17  1  1
 17 19  1  0
 17 20  1  0
 18 19  1  0
 18 22  1  0
 18 23  1  0
  9 10  1  0
  9 11  1  0
 10 12  1  0
 11  5  1  1
 33 34  1  0
 33 35  1  0
 34 36  1  0
 35 37  1  0
 37 43  1  1
 20 21  2  0
 21 22  1  0
M  CHG  3   2  -1  26  -1  41  -1
M  END
>  <COMPND>  (157) 
    udp_gluA.pdb 

>  <AUTHOR>  (157) 
    GENERATED BY OPEN BABEL 3.1.1

>  <MASTER>  (157) 
        0    0    0    0    0    0    0    0   56    0   56    0

>  <minimizedAffinity>  (157) 
-7.22654

>  <CNNscore>  (157) 
0.3103275001

>  <CNNaffinity>  (157) 
4.1115026474

>  <CNN_VS>  (157) 
1.2759122849

>  <CNNaffinity_variance>  (157) 
0.0912164971

$$$$
158
     RDKit          3D

 43 45  0  0  0  0  0  0  0  0999 V2000
   25.1580   72.9698   -4.9017 P   0  0  2  0  0  0  0  0  0  0  0  0
   25.5888   73.5710   -3.4624 O   0  0  0  0  0  0  0  0  0  0  0  0
   25.1785   73.9563   -6.0323 O   0  0  0  0  0  0  0  0  0  0  0  0
   23.7330   72.2590   -4.6152 O   0  0  0  0  0  0  0  0  0  0  0  0
   23.0789   72.5260   -3.3883 C   0  0  0  0  0  0  0  0  0  0  0  0
   22.9324   71.3114   -1.3192 O   0  0  0  0  0  0  0  0  0  0  0  0
   21.0488   69.4683   -2.7499 O   0  0  0  0  0  0  0  0  0  0  0  0
   19.3566   71.0504   -1.3114 O   0  0  0  0  0  0  0  0  0  0  0  0
   21.2050   70.8813   -2.8820 C   0  0  1  0  0  0  0  0  0  0  0  0
   20.6078   71.5890   -1.6841 C   0  0  2  0  0  0  0  0  0  0  0  0
   22.6857   71.2057   -2.7382 C   0  0  1  0  0  0  0  0  0  0  0  0
   21.6760   71.3733   -0.6256 C   0  0  2  0  0  0  0  0  0  0  0  0
   20.1106   69.2367   -2.8383 H   0  0  0  0  0  0  0  0  0  0  0  0
   18.7111   71.2136   -2.0176 H   0  0  0  0  0  0  0  0  0  0  0  0
   22.7859   71.1504    1.9618 O   0  0  0  0  0  0  0  0  0  0  0  0
   21.8020   75.5411    2.9607 O   0  0  0  0  0  0  0  0  0  0  0  0
   21.7231   72.4426    0.3311 N   0  0  0  0  0  0  0  0  0  0  0  0
   22.2939   73.3371    2.4572 N   0  0  0  0  0  0  0  0  0  0  0  0
   22.3025   72.2260    1.6037 C   0  0  0  0  0  0  0  0  0  0  0  0
   21.2012   73.6885    0.0051 C   0  0  0  0  0  0  0  0  0  0  0  0
   21.2003   74.7381    0.8292 C   0  0  0  0  0  0  0  0  0  0  0  0
   21.7861   74.5956    2.1783 C   0  0  0  0  0  0  0  0  0  0  0  0
   22.6900   73.2101    3.3496 H   0  0  0  0  0  0  0  0  0  0  0  0
   26.1598   71.7145   -5.0852 O   0  0  0  0  0  0  0  0  0  0  0  0
   27.0492   70.9001   -4.0085 P   0  0  2  0  0  0  0  0  0  0  0  0
   25.9382   70.2517   -3.0259 O   0  0  0  0  0  0  0  0  0  0  0  0
   28.0835   71.7331   -3.3082 O   0  0  0  0  0  0  0  0  0  0  0  0
   27.6443   69.6476   -4.8329 O   0  0  0  0  0  0  0  0  0  0  0  0
   26.9210   67.4263   -5.2220 O   0  0  0  0  0  0  0  0  0  0  0  0
   30.9894   66.9102   -4.7216 O   0  0  0  0  0  0  0  0  0  0  0  0
   29.5013   68.7232   -2.9800 O   0  0  0  0  0  0  0  0  0  0  0  0
   29.8202   66.7964   -7.3808 O   0  0  0  0  0  0  0  0  0  0  0  0
   29.8012   67.6001   -5.1095 C   0  0  2  0  0  0  0  0  0  0  0  0
   28.9054   67.8033   -3.8873 C   0  0  2  0  0  0  0  0  0  0  0  0
   29.0830   66.7507   -6.1606 C   0  0  1  0  0  0  0  0  0  0  0  0
   27.5298   68.3299   -4.2988 C   0  0  1  0  0  0  0  0  0  0  0  0
   27.6713   67.2667   -6.4240 C   0  0  1  0  0  0  0  0  0  0  0  0
   31.4626   67.4313   -4.0539 H   0  0  0  0  0  0  0  0  0  0  0  0
   30.3746   68.3955   -2.7149 H   0  0  0  0  0  0  0  0  0  0  0  0
   30.7208   66.4707   -7.2268 H   0  0  0  0  0  0  0  0  0  0  0  0
   26.8068   66.5972   -8.4990 O   0  0  0  0  0  0  0  0  0  0  0  0
   26.3496   65.2677   -6.7039 O   0  0  0  0  0  0  0  0  0  0  0  0
   26.8726   66.2607   -7.1870 C   0  0  0  0  0  0  0  0  0  0  0  0
  1  4  1  0
  1 24  1  0
  1  2  1  1
  1  3  2  0
 25 28  1  0
 25 24  1  0
 25 26  1  1
 25 27  2  0
  6 11  1  0
  6 12  1  0
 29 36  1  0
 29 37  1  0
  9  7  1  1
  7 13  1  0
 10  8  1  1
  8 14  1  0
  4  5  1  0
 36 28  1  6
 33 30  1  1
 30 38  1  0
 34 31  1  1
 31 39  1  0
 35 32  1  6
 32 40  1  0
 41 43  1  0
 15 19  2  0
 42 43  2  0
 16 22  2  0
 12 17  1  1
 17 19  1  0
 17 20  1  0
 18 19  1  0
 18 22  1  0
 18 23  1  0
  9 10  1  0
  9 11  1  0
 10 12  1  0
 11  5  1  6
 33 34  1  0
 33 35  1  0
 34 36  1  0
 35 37  1  0
 37 43  1  6
 20 21  2  0
 21 22  1  0
M  CHG  3   2  -1  26  -1  41  -1
M  END
>  <COMPND>  (158) 
    udp_gluA.pdb 

>  <AUTHOR>  (158) 
    GENERATED BY OPEN BABEL 3.1.1

>  <MASTER>  (158) 
        0    0    0    0    0    0    0    0   56    0   56    0

>  <minimizedAffinity>  (158) 
-7.80641

>  <CNNscore>  (158) 
0.3078392148

>  <CNNaffinity>  (158) 
3.9244334698

>  <CNN_VS>  (158) 
1.2080944777

>  <CNNaffinity_variance>  (158) 
0.1937887520

$$$$
159
     RDKit          3D

 43 45  0  0  0  0  0  0  0  0999 V2000
   30.1429   71.6560    3.2564 P   0  0  2  0  0  0  0  0  0  0  0  0
   31.1639   71.3645    4.4778 O   0  0  0  0  0  0  0  0  0  0  0  0
   30.1433   73.0700    2.7540 O   0  0  0  0  0  0  0  0  0  0  0  0
   28.7219   71.1029    3.7975 O   0  0  0  0  0  0  0  0  0  0  0  0
   27.6196   71.0878    2.9091 C   0  0  0  0  0  0  0  0  0  0  0  0
   25.8363   72.6395    2.4736 O   0  0  0  0  0  0  0  0  0  0  0  0
   24.6914   71.7758    5.1070 O   0  0  0  0  0  0  0  0  0  0  0  0
   23.1835   70.3792    3.3148 O   0  0  0  0  0  0  0  0  0  0  0  0
   25.3880   71.0046    4.1279 C   0  0  1  0  0  0  0  0  0  0  0  0
   24.4942   70.7422    2.9344 C   0  0  2  0  0  0  0  0  0  0  0  0
   26.4755   71.8831    3.5246 C   0  0  1  0  0  0  0  0  0  0  0  0
   24.5438   72.0736    2.2045 C   0  0  2  0  0  0  0  0  0  0  0  0
   23.9914   71.2354    5.5066 H   0  0  0  0  0  0  0  0  0  0  0  0
   23.2053   69.5251    3.7753 H   0  0  0  0  0  0  0  0  0  0  0  0
   22.0705   71.6331    0.9141 O   0  0  0  0  0  0  0  0  0  0  0  0
   24.0523   71.5253   -3.2458 O   0  0  0  0  0  0  0  0  0  0  0  0
   24.3847   71.9267    0.7853 N   0  0  0  0  0  0  0  0  0  0  0  0
   23.0600   71.5788   -1.1564 N   0  0  0  0  0  0  0  0  0  0  0  0
   23.0982   71.7084    0.2381 C   0  0  0  0  0  0  0  0  0  0  0  0
   25.4940   72.0009   -0.0483 C   0  0  0  0  0  0  0  0  0  0  0  0
   25.4418   71.8755   -1.3758 C   0  0  0  0  0  0  0  0  0  0  0  0
   24.1357   71.6446   -2.0272 C   0  0  0  0  0  0  0  0  0  0  0  0
   22.1756   71.4242   -1.5603 H   0  0  0  0  0  0  0  0  0  0  0  0
   30.5680   70.5505    2.1564 O   0  0  0  0  0  0  0  0  0  0  0  0
   31.7325   70.5620    1.0351 P   0  0  2  0  0  0  0  0  0  0  0  0
   32.6392   69.2806    1.4302 O   0  0  0  0  0  0  0  0  0  0  0  0
   32.4921   71.8542    0.9494 O   0  0  0  0  0  0  0  0  0  0  0  0
   30.9901   70.1301   -0.3304 O   0  0  0  0  0  0  0  0  0  0  0  0
   31.6963   69.3979   -2.4692 O   0  0  0  0  0  0  0  0  0  0  0  0
   28.6022   71.9588   -3.4367 O   0  0  0  0  0  0  0  0  0  0  0  0
   30.5195   72.6740   -1.3517 O   0  0  0  0  0  0  0  0  0  0  0  0
   28.2130   69.0814   -3.5776 O   0  0  0  0  0  0  0  0  0  0  0  0
   29.3066   71.0104   -2.6353 C   0  0  2  0  0  0  0  0  0  0  0  0
   30.6718   71.5803   -2.2491 C   0  0  2  0  0  0  0  0  0  0  0  0
   29.4772   69.7308   -3.4572 C   0  0  1  0  0  0  0  0  0  0  0  0
   31.5437   70.5117   -1.5885 C   0  0  1  0  0  0  0  0  0  0  0  0
   30.4584   68.7690   -2.7933 C   0  0  1  0  0  0  0  0  0  0  0  0
   28.4820   72.7805   -2.9349 H   0  0  0  0  0  0  0  0  0  0  0  0
   29.9670   73.3558   -1.7644 H   0  0  0  0  0  0  0  0  0  0  0  0
   27.5792   69.6830   -3.9986 H   0  0  0  0  0  0  0  0  0  0  0  0
   30.2498   67.8456   -4.9393 O   0  0  0  0  0  0  0  0  0  0  0  0
   31.6540   66.7908   -3.4851 O   0  0  0  0  0  0  0  0  0  0  0  0
   30.8684   67.6905   -3.7426 C   0  0  0  0  0  0  0  0  0  0  0  0
  1  4  1  0
  1 24  1  0
  1  2  1  1
  1  3  2  0
 25 28  1  0
 25 24  1  0
 25 26  1  1
 25 27  2  0
  6 11  1  0
  6 12  1  0
 29 36  1  0
 29 37  1  0
  9  7  1  1
  7 13  1  0
 10  8  1  1
  8 14  1  0
  4  5  1  0
 36 28  1  1
 33 30  1  6
 30 38  1  0
 34 31  1  1
 31 39  1  0
 35 32  1  1
 32 40  1  0
 41 43  1  0
 15 19  2  0
 42 43  2  0
 16 22  2  0
 12 17  1  6
 17 19  1  0
 17 20  1  0
 18 19  1  0
 18 22  1  0
 18 23  1  0
  9 10  1  0
  9 11  1  0
 10 12  1  0
 11  5  1  6
 33 34  1  0
 33 35  1  0
 34 36  1  0
 35 37  1  0
 37 43  1  6
 20 21  2  0
 21 22  1  0
M  CHG  3   2  -1  26  -1  41  -1
M  END
>  <COMPND>  (159) 
    udp_gluA.pdb 

>  <AUTHOR>  (159) 
    GENERATED BY OPEN BABEL 3.1.1

>  <MASTER>  (159) 
        0    0    0    0    0    0    0    0   56    0   56    0

>  <minimizedAffinity>  (159) 
-7.16051

>  <CNNscore>  (159) 
0.2891111970

>  <CNNaffinity>  (159) 
3.6975460052

>  <CNN_VS>  (159) 
1.0690019131

>  <CNNaffinity_variance>  (159) 
0.5561739206

$$$$
160
     RDKit          3D

 43 45  0  0  0  0  0  0  0  0999 V2000
   32.5126   71.0620    1.2297 P   0  0  2  0  0  0  0  0  0  0  0  0
   33.6973   72.0988    1.6042 O   0  0  0  0  0  0  0  0  0  0  0  0
   32.9163   69.6168    1.2158 O   0  0  0  0  0  0  0  0  0  0  0  0
   31.9167   71.6384   -0.1598 O   0  0  0  0  0  0  0  0  0  0  0  0
   31.9912   70.8252   -1.3164 C   0  0  0  0  0  0  0  0  0  0  0  0
   29.5895   70.9234   -1.3195 O   0  0  0  0  0  0  0  0  0  0  0  0
   29.6663   68.2242   -2.6232 O   0  0  0  0  0  0  0  0  0  0  0  0
   29.1947   69.8902   -4.7299 O   0  0  0  0  0  0  0  0  0  0  0  0
   30.5498   69.3334   -2.7893 C   0  0  1  0  0  0  0  0  0  0  0  0
   29.8845   70.4144   -3.6145 C   0  0  2  0  0  0  0  0  0  0  0  0
   30.7064   70.0157   -1.4372 C   0  0  1  0  0  0  0  0  0  0  0  0
   28.9537   71.0574   -2.6006 C   0  0  2  0  0  0  0  0  0  0  0  0
   29.5507   67.7723   -3.4741 H   0  0  0  0  0  0  0  0  0  0  0  0
   29.8307   69.4925   -5.3457 H   0  0  0  0  0  0  0  0  0  0  0  0
   26.5228   72.1273   -3.5609 O   0  0  0  0  0  0  0  0  0  0  0  0
   28.2105   76.4162   -3.5896 O   0  0  0  0  0  0  0  0  0  0  0  0
   28.7304   72.4501   -2.8676 N   0  0  0  0  0  0  0  0  0  0  0  0
   27.3660   74.2623   -3.5752 N   0  0  0  0  0  0  0  0  0  0  0  0
   27.4722   72.8838   -3.3483 C   0  0  0  0  0  0  0  0  0  0  0  0
   29.7496   73.3698   -2.6521 C   0  0  0  0  0  0  0  0  0  0  0  0
   29.6333   74.6807   -2.8729 C   0  0  0  0  0  0  0  0  0  0  0  0
   28.3513   75.2158   -3.3765 C   0  0  0  0  0  0  0  0  0  0  0  0
   26.5000   74.5877   -3.9120 H   0  0  0  0  0  0  0  0  0  0  0  0
   31.3580   71.4283    2.3000 O   0  0  0  0  0  0  0  0  0  0  0  0
   31.2860   71.2097    3.9002 P   0  0  2  0  0  0  0  0  0  0  0  0
   31.9221   72.5768    4.4891 O   0  0  0  0  0  0  0  0  0  0  0  0
   31.9589   69.9570    4.3815 O   0  0  0  0  0  0  0  0  0  0  0  0
   29.7154   71.3051    4.2561 O   0  0  0  0  0  0  0  0  0  0  0  0
   28.0663   72.2969    2.8756 O   0  0  0  0  0  0  0  0  0  0  0  0
   26.3394   72.6223    6.6146 O   0  0  0  0  0  0  0  0  0  0  0  0
   29.1836   73.1766    6.2437 O   0  0  0  0  0  0  0  0  0  0  0  0
   25.3993   70.6058    4.7436 O   0  0  0  0  0  0  0  0  0  0  0  0
   27.1471   72.0261    5.5996 C   0  0  2  0  0  0  0  0  0  0  0  0
   28.2497   73.0007    5.1848 C   0  0  2  0  0  0  0  0  0  0  0  0
   26.2451   71.7036    4.4062 C   0  0  1  0  0  0  0  0  0  0  0  0
   28.9903   72.4939    3.9465 C   0  0  1  0  0  0  0  0  0  0  0  0
   27.0639   71.3279    3.1745 C   0  0  1  0  0  0  0  0  0  0  0  0
   26.8914   72.8360    7.3833 H   0  0  0  0  0  0  0  0  0  0  0  0
   28.7204   73.4978    7.0328 H   0  0  0  0  0  0  0  0  0  0  0  0
   24.8727   70.8319    5.5262 H   0  0  0  0  0  0  0  0  0  0  0  0
   26.9757   71.4647    0.8346 O   0  0  0  0  0  0  0  0  0  0  0  0
   24.9932   71.2425    1.9390 O   0  0  0  0  0  0  0  0  0  0  0  0
   26.2113   71.3377    1.9476 C   0  0  0  0  0  0  0  0  0  0  0  0
  1  4  1  0
  1 24  1  0
  1  2  1  1
  1  3  2  0
 25 28  1  0
 25 24  1  0
 25 26  1  1
 25 27  2  0
  6 11  1  0
  6 12  1  0
 29 36  1  0
 29 37  1  0
  9  7  1  1
  7 13  1  0
 10  8  1  6
  8 14  1  0
  4  5  1  0
 36 28  1  1
 33 30  1  1
 30 38  1  0
 34 31  1  1
 31 39  1  0
 35 32  1  1
 32 40  1  0
 41 43  1  0
 15 19  2  0
 42 43  2  0
 16 22  2  0
 12 17  1  6
 17 19  1  0
 17 20  1  0
 18 19  1  0
 18 22  1  0
 18 23  1  0
  9 10  1  0
  9 11  1  0
 10 12  1  0
 11  5  1  6
 33 34  1  0
 33 35  1  0
 34 36  1  0
 35 37  1  0
 37 43  1  6
 20 21  2  0
 21 22  1  0
M  CHG  3   2  -1  26  -1  41  -1
M  END
>  <COMPND>  (160) 
    udp_gluA.pdb 

>  <AUTHOR>  (160) 
    GENERATED BY OPEN BABEL 3.1.1

>  <MASTER>  (160) 
        0    0    0    0    0    0    0    0   56    0   56    0

>  <minimizedAffinity>  (160) 
-6.38063

>  <CNNscore>  (160) 
0.2733823657

>  <CNNaffinity>  (160) 
3.8506217003

>  <CNN_VS>  (160) 
1.0526920557

>  <CNNaffinity_variance>  (160) 
0.1041559801

$$$$
161
     RDKit          3D

 43 45  0  0  0  0  0  0  0  0999 V2000
   29.4057   73.7957   -2.3377 P   0  0  2  0  0  0  0  0  0  0  0  0
   27.9210   73.5420   -2.9295 O   0  0  0  0  0  0  0  0  0  0  0  0
   29.8535   75.2280   -2.3426 O   0  0  0  0  0  0  0  0  0  0  0  0
   30.3365   72.7657   -3.1687 O   0  0  0  0  0  0  0  0  0  0  0  0
   29.7499   71.5793   -3.6715 C   0  0  0  0  0  0  0  0  0  0  0  0
   28.7331   69.5512   -2.8773 O   0  0  0  0  0  0  0  0  0  0  0  0
   31.1957   69.1911   -1.2048 O   0  0  0  0  0  0  0  0  0  0  0  0
   31.6455   67.5033   -3.2987 O   0  0  0  0  0  0  0  0  0  0  0  0
   31.0676   69.7328   -2.5196 C   0  0  1  0  0  0  0  0  0  0  0  0
   30.8168   68.6251   -3.5207 C   0  0  2  0  0  0  0  0  0  0  0  0
   29.7641   70.5175   -2.5794 C   0  0  1  0  0  0  0  0  0  0  0  0
   29.3462   68.3202   -3.2919 C   0  0  2  0  0  0  0  0  0  0  0  0
   32.0214   68.6853   -1.1421 H   0  0  0  0  0  0  0  0  0  0  0  0
   32.5710   67.7486   -3.4575 H   0  0  0  0  0  0  0  0  0  0  0  0
   26.6875   67.3716   -3.3810 O   0  0  0  0  0  0  0  0  0  0  0  0
   26.9422   66.5415   -7.9076 O   0  0  0  0  0  0  0  0  0  0  0  0
   28.6927   67.8501   -4.4805 N   0  0  0  0  0  0  0  0  0  0  0  0
   26.8172   66.9582   -5.6352 N   0  0  0  0  0  0  0  0  0  0  0  0
   27.3546   67.3945   -4.4171 C   0  0  0  0  0  0  0  0  0  0  0  0
   29.3747   67.8450   -5.6912 C   0  0  0  0  0  0  0  0  0  0  0  0
   28.8491   67.4262   -6.8441 C   0  0  0  0  0  0  0  0  0  0  0  0
   27.4562   66.9335   -6.8643 C   0  0  0  0  0  0  0  0  0  0  0  0
   25.8876   66.6344   -5.6157 H   0  0  0  0  0  0  0  0  0  0  0  0
   29.3328   73.1181   -0.8719 O   0  0  0  0  0  0  0  0  0  0  0  0
   28.1087   72.9834    0.1755 P   0  0  2  0  0  0  0  0  0  0  0  0
   27.3201   71.6687   -0.3443 O   0  0  0  0  0  0  0  0  0  0  0  0
   27.2548   74.2132    0.2861 O   0  0  0  0  0  0  0  0  0  0  0  0
   28.8015   72.5228    1.5576 O   0  0  0  0  0  0  0  0  0  0  0  0
   30.2728   70.6701    1.4475 O   0  0  0  0  0  0  0  0  0  0  0  0
   29.7145   71.0593    5.5224 O   0  0  0  0  0  0  0  0  0  0  0  0
   27.4598   71.3365    3.6857 O   0  0  0  0  0  0  0  0  0  0  0  0
   32.1957   71.9510    4.2978 O   0  0  0  0  0  0  0  0  0  0  0  0
   29.8298   71.5128    4.1737 C   0  0  2  0  0  0  0  0  0  0  0  0
   28.7471   70.8544    3.3182 C   0  0  2  0  0  0  0  0  0  0  0  0
   31.2197   71.1275    3.6623 C   0  0  1  0  0  0  0  0  0  0  0  0
   28.9782   71.1343    1.8325 C   0  0  1  0  0  0  0  0  0  0  0  0
   31.3301   71.3171    2.1522 C   0  0  1  0  0  0  0  0  0  0  0  0
   28.8389   71.2930    5.8686 H   0  0  0  0  0  0  0  0  0  0  0  0
   27.3065   71.1625    4.6273 H   0  0  0  0  0  0  0  0  0  0  0  0
   32.1359   71.8397    5.2595 H   0  0  0  0  0  0  0  0  0  0  0  0
   33.5874   71.5116    1.5456 O   0  0  0  0  0  0  0  0  0  0  0  0
   32.6165   69.4635    1.2974 O   0  0  0  0  0  0  0  0  0  0  0  0
   32.5512   70.6401    1.6204 C   0  0  0  0  0  0  0  0  0  0  0  0
  1  4  1  0
  1 24  1  0
  1  2  1  6
  1  3  2  0
 25 28  1  0
 25 24  1  0
 25 26  1  6
 25 27  2  0
  6 11  1  0
  6 12  1  0
 29 36  1  0
 29 37  1  0
  9  7  1  1
  7 13  1  0
 10  8  1  1
  8 14  1  0
  4  5  1  0
 36 28  1  1
 33 30  1  1
 30 38  1  0
 34 31  1  1
 31 39  1  0
 35 32  1  1
 32 40  1  0
 41 43  1  0
 15 19  2  0
 42 43  2  0
 16 22  2  0
 12 17  1  6
 17 19  1  0
 17 20  1  0
 18 19  1  0
 18 22  1  0
 18 23  1  0
  9 10  1  0
  9 11  1  0
 10 12  1  0
 11  5  1  6
 33 34  1  0
 33 35  1  0
 34 36  1  0
 35 37  1  0
 37 43  1  6
 20 21  2  0
 21 22  1  0
M  CHG  3   2  -1  26  -1  41  -1
M  END
>  <COMPND>  (161) 
    udp_gluA.pdb 

>  <AUTHOR>  (161) 
    GENERATED BY OPEN BABEL 3.1.1

>  <MASTER>  (161) 
        0    0    0    0    0    0    0    0   56    0   56    0

>  <minimizedAffinity>  (161) 
-7.59046

>  <CNNscore>  (161) 
0.7264161706

>  <CNNaffinity>  (161) 
4.6066703796

>  <CNN_VS>  (161) 
3.3463599682

>  <CNNaffinity_variance>  (161) 
0.0582847483

$$$$
162
     RDKit          3D

 43 45  0  0  0  0  0  0  0  0999 V2000
   29.1694   73.4262   -1.7261 P   0  0  2  0  0  0  0  0  0  0  0  0
   29.3859   75.0295   -1.7641 O   0  0  0  0  0  0  0  0  0  0  0  0
   29.4406   72.7815   -0.3985 O   0  0  0  0  0  0  0  0  0  0  0  0
   30.0584   72.8847   -2.9648 O   0  0  0  0  0  0  0  0  0  0  0  0
   29.7039   71.6514   -3.5632 C   0  0  0  0  0  0  0  0  0  0  0  0
   28.7752   69.5586   -2.8316 O   0  0  0  0  0  0  0  0  0  0  0  0
   31.2735   69.2310   -1.2060 O   0  0  0  0  0  0  0  0  0  0  0  0
   31.7556   67.6392   -3.3669 O   0  0  0  0  0  0  0  0  0  0  0  0
   31.1062   69.8152   -2.4980 C   0  0  1  0  0  0  0  0  0  0  0  0
   30.8824   68.7362   -3.5362 C   0  0  2  0  0  0  0  0  0  0  0  0
   29.7736   70.5516   -2.5115 C   0  0  1  0  0  0  0  0  0  0  0  0
   29.4277   68.3677   -3.2995 C   0  0  2  0  0  0  0  0  0  0  0  0
   32.1184   68.7548   -1.1731 H   0  0  0  0  0  0  0  0  0  0  0  0
   32.6689   67.9250   -3.5286 H   0  0  0  0  0  0  0  0  0  0  0  0
   26.7870   67.3710   -3.3970 O   0  0  0  0  0  0  0  0  0  0  0  0
   27.0260   66.6670   -7.9457 O   0  0  0  0  0  0  0  0  0  0  0  0
   28.7750   67.9170   -4.4961 N   0  0  0  0  0  0  0  0  0  0  0  0
   26.9089   67.0204   -5.6622 N   0  0  0  0  0  0  0  0  0  0  0  0
   27.4463   67.4343   -4.4363 C   0  0  0  0  0  0  0  0  0  0  0  0
   29.4486   67.9573   -5.7108 C   0  0  0  0  0  0  0  0  0  0  0  0
   28.9231   67.5594   -6.8711 C   0  0  0  0  0  0  0  0  0  0  0  0
   27.5397   67.0408   -6.8956 C   0  0  0  0  0  0  0  0  0  0  0  0
   25.9858   66.6785   -5.6455 H   0  0  0  0  0  0  0  0  0  0  0  0
   27.6545   73.2518   -2.2624 O   0  0  0  0  0  0  0  0  0  0  0  0
   26.3314   72.6727   -1.5359 P   0  0  2  0  0  0  0  0  0  0  0  0
   26.2550   71.1461   -2.0689 O   0  0  0  0  0  0  0  0  0  0  0  0
   25.0893   73.4780   -1.7859 O   0  0  0  0  0  0  0  0  0  0  0  0
   26.7424   72.5411    0.0185 O   0  0  0  0  0  0  0  0  0  0  0  0
   24.7783   72.9288    1.2838 O   0  0  0  0  0  0  0  0  0  0  0  0
   27.5494   72.1554    4.2488 O   0  0  0  0  0  0  0  0  0  0  0  0
   28.2553   73.8320    1.9629 O   0  0  0  0  0  0  0  0  0  0  0  0
   25.5928   70.1338    3.5170 O   0  0  0  0  0  0  0  0  0  0  0  0
   26.9583   72.0375    2.9547 C   0  0  2  0  0  0  0  0  0  0  0  0
   26.9339   73.4075    2.2765 C   0  0  2  0  0  0  0  0  0  0  0  0
   25.5342   71.5059    3.1319 C   0  0  1  0  0  0  0  0  0  0  0  0
   26.1056   73.3672    0.9915 C   0  0  1  0  0  0  0  0  0  0  0  0
   24.7335   71.6156    1.8375 C   0  0  1  0  0  0  0  0  0  0  0  0
   28.4552   72.4917    4.1613 H   0  0  0  0  0  0  0  0  0  0  0  0
   28.7866   73.8596    2.7737 H   0  0  0  0  0  0  0  0  0  0  0  0
   26.0999   70.0501    4.3395 H   0  0  0  0  0  0  0  0  0  0  0  0
   22.5309   71.9972    1.1275 O   0  0  0  0  0  0  0  0  0  0  0  0
   22.8121   70.7967    3.0455 O   0  0  0  0  0  0  0  0  0  0  0  0
   23.2764   71.4100    2.0961 C   0  0  0  0  0  0  0  0  0  0  0  0
  1  4  1  0
  1 24  1  0
  1  2  1  1
  1  3  2  0
 25 28  1  0
 25 24  1  0
 25 26  1  6
 25 27  2  0
  6 11  1  0
  6 12  1  0
 29 36  1  0
 29 37  1  0
  9  7  1  1
  7 13  1  0
 10  8  1  1
  8 14  1  0
  4  5  1  0
 36 28  1  6
 33 30  1  1
 30 38  1  0
 34 31  1  6
 31 39  1  0
 35 32  1  6
 32 40  1  0
 41 43  1  0
 15 19  2  0
 42 43  2  0
 16 22  2  0
 12 17  1  6
 17 19  1  0
 17 20  1  0
 18 19  1  0
 18 22  1  0
 18 23  1  0
  9 10  1  0
  9 11  1  0
 10 12  1  0
 11  5  1  6
 33 34  1  0
 33 35  1  0
 34 36  1  0
 35 37  1  0
 37 43  1  1
 20 21  2  0
 21 22  1  0
M  CHG  3   2  -1  26  -1  41  -1
M  END
>  <COMPND>  (162) 
    udp_gluA.pdb 

>  <AUTHOR>  (162) 
    GENERATED BY OPEN BABEL 3.1.1

>  <MASTER>  (162) 
        0    0    0    0    0    0    0    0   56    0   56    0

>  <minimizedAffinity>  (162) 
-7.56589

>  <CNNscore>  (162) 
0.6672732830

>  <CNNaffinity>  (162) 
4.4904079437

>  <CNN_VS>  (162) 
2.9963293076

>  <CNNaffinity_variance>  (162) 
0.0828099623

$$$$
163
     RDKit          3D

 43 45  0  0  0  0  0  0  0  0999 V2000
   26.3645   71.7182   -4.2646 P   0  0  2  0  0  0  0  0  0  0  0  0
   25.5102   70.3842   -3.9335 O   0  0  0  0  0  0  0  0  0  0  0  0
   25.9113   72.4758   -5.4781 O   0  0  0  0  0  0  0  0  0  0  0  0
   27.8975   71.2013   -4.2908 O   0  0  0  0  0  0  0  0  0  0  0  0
   28.8145   71.7578   -3.3669 C   0  0  0  0  0  0  0  0  0  0  0  0
   28.6461   69.4321   -2.7836 O   0  0  0  0  0  0  0  0  0  0  0  0
   31.3949   69.7163   -1.6198 O   0  0  0  0  0  0  0  0  0  0  0  0
   31.8851   68.5188   -4.0201 O   0  0  0  0  0  0  0  0  0  0  0  0
   30.8377   70.3306   -2.7820 C   0  0  1  0  0  0  0  0  0  0  0  0
   30.7294   69.3227   -3.9066 C   0  0  2  0  0  0  0  0  0  0  0  0
   29.3760   70.6437   -2.4929 C   0  0  1  0  0  0  0  0  0  0  0  0
   29.5011   68.5268   -3.4996 C   0  0  2  0  0  0  0  0  0  0  0  0
   32.3287   69.5070   -1.7805 H   0  0  0  0  0  0  0  0  0  0  0  0
   32.6389   69.0715   -4.2813 H   0  0  0  0  0  0  0  0  0  0  0  0
   26.9252   67.3763   -3.3661 O   0  0  0  0  0  0  0  0  0  0  0  0
   26.8560   66.5584   -7.9015 O   0  0  0  0  0  0  0  0  0  0  0  0
   28.7866   68.0052   -4.6302 N   0  0  0  0  0  0  0  0  0  0  0  0
   26.8937   66.9691   -5.6249 N   0  0  0  0  0  0  0  0  0  0  0  0
   27.4978   67.4482   -4.4551 C   0  0  0  0  0  0  0  0  0  0  0  0
   29.3613   68.0499   -5.8946 C   0  0  0  0  0  0  0  0  0  0  0  0
   28.7731   67.5894   -7.0004 C   0  0  0  0  0  0  0  0  0  0  0  0
   27.4255   66.9910   -6.9041 C   0  0  0  0  0  0  0  0  0  0  0  0
   25.9967   66.5749   -5.5277 H   0  0  0  0  0  0  0  0  0  0  0  0
   26.2857   72.5520   -2.8820 O   0  0  0  0  0  0  0  0  0  0  0  0
   25.4662   72.2695   -1.5174 P   0  0  2  0  0  0  0  0  0  0  0  0
   25.0324   73.7519   -1.0329 O   0  0  0  0  0  0  0  0  0  0  0  0
   26.2300   71.4826   -0.4920 O   0  0  0  0  0  0  0  0  0  0  0  0
   24.0902   71.5805   -2.0014 O   0  0  0  0  0  0  0  0  0  0  0  0
   22.6199   72.6139   -3.5439 O   0  0  0  0  0  0  0  0  0  0  0  0
   20.1103   69.9251   -1.6623 O   0  0  0  0  0  0  0  0  0  0  0  0
   22.0467   71.4740   -0.1177 O   0  0  0  0  0  0  0  0  0  0  0  0
   21.0882   69.3774   -4.3446 O   0  0  0  0  0  0  0  0  0  0  0  0
   21.3494   70.4071   -2.1821 C   0  0  2  0  0  0  0  0  0  0  0  0
   21.7241   71.7140   -1.4826 C   0  0  2  0  0  0  0  0  0  0  0  0
   21.1738   70.6389   -3.6845 C   0  0  1  0  0  0  0  0  0  0  0  0
   22.9193   72.3780   -2.1676 C   0  0  1  0  0  0  0  0  0  0  0  0
   22.3493   71.4166   -4.2694 C   0  0  1  0  0  0  0  0  0  0  0  0
   20.1978   69.7705   -0.7085 H   0  0  0  0  0  0  0  0  0  0  0  0
   21.2927   71.0525    0.3230 H   0  0  0  0  0  0  0  0  0  0  0  0
   20.3440   68.8723   -3.9814 H   0  0  0  0  0  0  0  0  0  0  0  0
   20.6831   71.9248   -5.8400 O   0  0  0  0  0  0  0  0  0  0  0  0
   22.8464   72.2814   -6.4663 O   0  0  0  0  0  0  0  0  0  0  0  0
   22.0240   71.9198   -5.6380 C   0  0  0  0  0  0  0  0  0  0  0  0
  1  4  1  0
  1 24  1  0
  1  2  1  1
  1  3  2  0
 25 28  1  0
 25 24  1  0
 25 26  1  1
 25 27  2  0
  6 11  1  0
  6 12  1  0
 29 36  1  0
 29 37  1  0
  9  7  1  1
  7 13  1  0
 10  8  1  1
  8 14  1  0
  4  5  1  0
 36 28  1  6
 33 30  1  1
 30 38  1  0
 34 31  1  1
 31 39  1  0
 35 32  1  6
 32 40  1  0
 41 43  1  0
 15 19  2  0
 42 43  2  0
 16 22  2  0
 12 17  1  6
 17 19  1  0
 17 20  1  0
 18 19  1  0
 18 22  1  0
 18 23  1  0
  9 10  1  0
  9 11  1  0
 10 12  1  0
 11  5  1  6
 33 34  1  0
 33 35  1  0
 34 36  1  0
 35 37  1  0
 37 43  1  6
 20 21  2  0
 21 22  1  0
M  CHG  3   2  -1  26  -1  41  -1
M  END
>  <COMPND>  (163) 
    udp_gluA.pdb 

>  <AUTHOR>  (163) 
    GENERATED BY OPEN BABEL 3.1.1

>  <MASTER>  (163) 
        0    0    0    0    0    0    0    0   56    0   56    0

>  <minimizedAffinity>  (163) 
-7.84117

>  <CNNscore>  (163) 
0.6603543758

>  <CNNaffinity>  (163) 
4.8006401062

>  <CNN_VS>  (163) 
3.1701238155

>  <CNNaffinity_variance>  (163) 
0.1365806460

$$$$
164
     RDKit          3D

 43 45  0  0  0  0  0  0  0  0999 V2000
   25.1376   74.2606   -2.6685 P   0  0  2  0  0  0  0  0  0  0  0  0
   23.6634   74.7773   -3.0910 O   0  0  0  0  0  0  0  0  0  0  0  0
   26.2569   75.2073   -2.9892 O   0  0  0  0  0  0  0  0  0  0  0  0
   25.2432   72.7937   -3.3430 O   0  0  0  0  0  0  0  0  0  0  0  0
   26.4923   72.3771   -3.8634 C   0  0  0  0  0  0  0  0  0  0  0  0
   27.0927   70.2385   -2.9449 O   0  0  0  0  0  0  0  0  0  0  0  0
   29.3190   71.6749   -1.5407 O   0  0  0  0  0  0  0  0  0  0  0  0
   30.5962   70.5170   -3.6535 O   0  0  0  0  0  0  0  0  0  0  0  0
   28.7730   71.9047   -2.8397 C   0  0  1  0  0  0  0  0  0  0  0  0
   29.2249   70.8225   -3.7972 C   0  0  2  0  0  0  0  0  0  0  0  0
   27.2718   71.6605   -2.7683 C   0  0  1  0  0  0  0  0  0  0  0  0
   28.3236   69.6624   -3.4100 C   0  0  2  0  0  0  0  0  0  0  0  0
   30.2775   71.8248   -1.5613 H   0  0  0  0  0  0  0  0  0  0  0  0
   31.1278   71.2867   -3.9123 H   0  0  0  0  0  0  0  0  0  0  0  0
   26.5953   67.4320   -3.2886 O   0  0  0  0  0  0  0  0  0  0  0  0
   27.3225   66.3972   -7.7208 O   0  0  0  0  0  0  0  0  0  0  0  0
   28.0432   68.7930   -4.5174 N   0  0  0  0  0  0  0  0  0  0  0  0
   26.9599   66.9181   -5.4960 N   0  0  0  0  0  0  0  0  0  0  0  0
   27.1601   67.7001   -4.3507 C   0  0  0  0  0  0  0  0  0  0  0  0
   28.6382   69.0273   -5.7511 C   0  0  0  0  0  0  0  0  0  0  0  0
   28.4376   68.2732   -6.8336 C   0  0  0  0  0  0  0  0  0  0  0  0
   27.5295   67.1110   -6.7442 C   0  0  0  0  0  0  0  0  0  0  0  0
   26.3507   66.1503   -5.4040 H   0  0  0  0  0  0  0  0  0  0  0  0
   24.9682   73.9262   -1.0962 O   0  0  0  0  0  0  0  0  0  0  0  0
   23.6462   73.6645   -0.2032 P   0  0  2  0  0  0  0  0  0  0  0  0
   22.9378   72.4144   -0.9487 O   0  0  0  0  0  0  0  0  0  0  0  0
   22.7641   74.8685   -0.0412 O   0  0  0  0  0  0  0  0  0  0  0  0
   24.2023   73.0509    1.1813 O   0  0  0  0  0  0  0  0  0  0  0  0
   26.0301   71.5463    1.1145 O   0  0  0  0  0  0  0  0  0  0  0  0
   24.5461   70.8981    4.9152 O   0  0  0  0  0  0  0  0  0  0  0  0
   22.7291   71.2032    2.6481 O   0  0  0  0  0  0  0  0  0  0  0  0
   26.9765   72.4491    4.5425 O   0  0  0  0  0  0  0  0  0  0  0  0
   24.8445   71.6594    3.7450 C   0  0  2  0  0  0  0  0  0  0  0  0
   24.1384   71.0408    2.5382 C   0  0  2  0  0  0  0  0  0  0  0  0
   26.3611   71.6398    3.5420 C   0  0  1  0  0  0  0  0  0  0  0  0
   24.6141   71.6863    1.2360 C   0  0  1  0  0  0  0  0  0  0  0  0
   26.7466   72.1840    2.1695 C   0  0  1  0  0  0  0  0  0  0  0  0
   23.5875   70.8963    5.0643 H   0  0  0  0  0  0  0  0  0  0  0  0
   22.4204   70.7962    3.4724 H   0  0  0  0  0  0  0  0  0  0  0  0
   26.7390   72.1134    5.4211 H   0  0  0  0  0  0  0  0  0  0  0  0
   29.0015   72.7962    2.3740 O   0  0  0  0  0  0  0  0  0  0  0  0
   28.5429   70.8891    1.2115 O   0  0  0  0  0  0  0  0  0  0  0  0
   28.1702   71.8610    1.8514 C   0  0  0  0  0  0  0  0  0  0  0  0
  1  4  1  0
  1 24  1  0
  1  2  1  6
  1  3  2  0
 25 28  1  0
 25 24  1  0
 25 26  1  6
 25 27  2  0
  6 11  1  0
  6 12  1  0
 29 36  1  0
 29 37  1  0
  9  7  1  1
  7 13  1  0
 10  8  1  1
  8 14  1  0
  4  5  1  0
 36 28  1  1
 33 30  1  1
 30 38  1  0
 34 31  1  1
 31 39  1  0
 35 32  1  1
 32 40  1  0
 41 43  1  0
 15 19  2  0
 42 43  2  0
 16 22  2  0
 12 17  1  6
 17 19  1  0
 17 20  1  0
 18 19  1  0
 18 22  1  0
 18 23  1  0
  9 10  1  0
  9 11  1  0
 10 12  1  0
 11  5  1  6
 33 34  1  0
 33 35  1  0
 34 36  1  0
 35 37  1  0
 37 43  1  6
 20 21  2  0
 21 22  1  0
M  CHG  3   2  -1  26  -1  41  -1
M  END
>  <COMPND>  (164) 
    udp_gluA.pdb 

>  <AUTHOR>  (164) 
    GENERATED BY OPEN BABEL 3.1.1

>  <MASTER>  (164) 
        0    0    0    0    0    0    0    0   56    0   56    0

>  <minimizedAffinity>  (164) 
-6.77557

>  <CNNscore>  (164) 
0.6336437464

>  <CNNaffinity>  (164) 
4.3824715614

>  <CNN_VS>  (164) 
2.7769258022

>  <CNNaffinity_variance>  (164) 
0.1172828078

$$$$
165
     RDKit          3D

 43 45  0  0  0  0  0  0  0  0999 V2000
   24.1698   73.5233   -5.0695 P   0  0  2  0  0  0  0  0  0  0  0  0
   23.4007   72.3886   -5.9296 O   0  0  0  0  0  0  0  0  0  0  0  0
   24.9254   74.5321   -5.8839 O   0  0  0  0  0  0  0  0  0  0  0  0
   25.0493   72.6765   -4.0078 O   0  0  0  0  0  0  0  0  0  0  0  0
   26.4195   72.4561   -4.2883 C   0  0  0  0  0  0  0  0  0  0  0  0
   26.8711   70.3653   -3.1917 O   0  0  0  0  0  0  0  0  0  0  0  0
   28.9934   71.8364   -1.6674 O   0  0  0  0  0  0  0  0  0  0  0  0
   30.4323   70.5233   -3.5756 O   0  0  0  0  0  0  0  0  0  0  0  0
   28.5792   71.9978   -3.0242 C   0  0  1  0  0  0  0  0  0  0  0  0
   29.0896   70.8492   -3.8682 C   0  0  2  0  0  0  0  0  0  0  0  0
   27.0719   71.7912   -3.0830 C   0  0  1  0  0  0  0  0  0  0  0  0
   28.1241   69.7351   -3.5015 C   0  0  2  0  0  0  0  0  0  0  0  0
   29.9533   71.9638   -1.6046 H   0  0  0  0  0  0  0  0  0  0  0  0
   31.0069   71.2638   -3.8272 H   0  0  0  0  0  0  0  0  0  0  0  0
   26.4569   67.4600   -3.3567 O   0  0  0  0  0  0  0  0  0  0  0  0
   27.4390   66.2387   -7.6912 O   0  0  0  0  0  0  0  0  0  0  0  0
   27.9259   68.8056   -4.5774 N   0  0  0  0  0  0  0  0  0  0  0  0
   26.9484   66.8533   -5.5153 N   0  0  0  0  0  0  0  0  0  0  0  0
   27.0672   67.6948   -4.4013 C   0  0  0  0  0  0  0  0  0  0  0  0
   28.5761   68.9994   -5.7901 C   0  0  0  0  0  0  0  0  0  0  0  0
   28.4528   68.1887   -6.8429 C   0  0  0  0  0  0  0  0  0  0  0  0
   27.5752   67.0043   -6.7417 C   0  0  0  0  0  0  0  0  0  0  0  0
   26.3576   66.0720   -5.4160 H   0  0  0  0  0  0  0  0  0  0  0  0
   22.9922   74.1440   -4.1526 O   0  0  0  0  0  0  0  0  0  0  0  0
   23.0542   75.0417   -2.8095 P   0  0  2  0  0  0  0  0  0  0  0  0
   21.5392   74.9666   -2.2441 O   0  0  0  0  0  0  0  0  0  0  0  0
   23.5655   76.4368   -3.0243 O   0  0  0  0  0  0  0  0  0  0  0  0
   23.9207   74.1637   -1.7700 O   0  0  0  0  0  0  0  0  0  0  0  0
   23.7283   73.6290    0.5292 O   0  0  0  0  0  0  0  0  0  0  0  0
   27.7950   74.2487    0.1478 O   0  0  0  0  0  0  0  0  0  0  0  0
   25.8951   76.0303   -1.1753 O   0  0  0  0  0  0  0  0  0  0  0  0
   26.7443   71.5464    0.3593 O   0  0  0  0  0  0  0  0  0  0  0  0
   26.4910   73.8556   -0.2799 C   0  0  2  0  0  0  0  0  0  0  0  0
   25.5441   75.0535   -0.2019 C   0  0  2  0  0  0  0  0  0  0  0  0
   26.0083   72.7347    0.6435 C   0  0  1  0  0  0  0  0  0  0  0  0
   24.0950   74.6212   -0.4302 C   0  0  1  0  0  0  0  0  0  0  0  0
   24.5230   72.4483    0.4427 C   0  0  1  0  0  0  0  0  0  0  0  0
   28.1224   74.9604   -0.4246 H   0  0  0  0  0  0  0  0  0  0  0  0
   26.8135   76.3089   -1.0365 H   0  0  0  0  0  0  0  0  0  0  0  0
   27.6914   71.7153    0.4831 H   0  0  0  0  0  0  0  0  0  0  0  0
   22.6515   71.4324    1.4261 O   0  0  0  0  0  0  0  0  0  0  0  0
   24.6626   71.1264    2.4563 O   0  0  0  0  0  0  0  0  0  0  0  0
   23.9907   71.6035    1.5540 C   0  0  0  0  0  0  0  0  0  0  0  0
  1  4  1  0
  1 24  1  0
  1  2  1  6
  1  3  2  0
 25 28  1  0
 25 24  1  0
 25 26  1  1
 25 27  2  0
  6 11  1  0
  6 12  1  0
 29 36  1  0
 29 37  1  0
  9  7  1  1
  7 13  1  0
 10  8  1  1
  8 14  1  0
  4  5  1  0
 36 28  1  6
 33 30  1  1
 30 38  1  0
 34 31  1  6
 31 39  1  0
 35 32  1  6
 32 40  1  0
 41 43  1  0
 15 19  2  0
 42 43  2  0
 16 22  2  0
 12 17  1  6
 17 19  1  0
 17 20  1  0
 18 19  1  0
 18 22  1  0
 18 23  1  0
  9 10  1  0
  9 11  1  0
 10 12  1  0
 11  5  1  6
 33 34  1  0
 33 35  1  0
 34 36  1  0
 35 37  1  0
 37 43  1  1
 20 21  2  0
 21 22  1  0
M  CHG  3   2  -1  26  -1  41  -1
M  END
>  <COMPND>  (165) 
    udp_gluA.pdb 

>  <AUTHOR>  (165) 
    GENERATED BY OPEN BABEL 3.1.1

>  <MASTER>  (165) 
        0    0    0    0    0    0    0    0   56    0   56    0

>  <minimizedAffinity>  (165) 
-6.64188

>  <CNNscore>  (165) 
0.5734075904

>  <CNNaffinity>  (165) 
4.3922796249

>  <CNN_VS>  (165) 
2.5185663700

>  <CNNaffinity_variance>  (165) 
0.1164844185

$$$$
166
     RDKit          3D

 43 45  0  0  0  0  0  0  0  0999 V2000
   28.6617   72.1415   -0.2926 P   0  0  2  0  0  0  0  0  0  0  0  0
   29.6462   73.0185    0.6458 O   0  0  0  0  0  0  0  0  0  0  0  0
   28.0843   72.8766   -1.4665 O   0  0  0  0  0  0  0  0  0  0  0  0
   27.5869   71.5206    0.7454 O   0  0  0  0  0  0  0  0  0  0  0  0
   28.0642   70.9314    1.9410 C   0  0  0  0  0  0  0  0  0  0  0  0
   27.6239   70.7211    4.2947 O   0  0  0  0  0  0  0  0  0  0  0  0
   25.3885   72.6721    3.8616 O   0  0  0  0  0  0  0  0  0  0  0  0
   27.3510   74.2404    4.9223 O   0  0  0  0  0  0  0  0  0  0  0  0
   26.6738   72.6185    3.2421 C   0  0  1  0  0  0  0  0  0  0  0  0
   27.7413   73.0859    4.2086 C   0  0  2  0  0  0  0  0  0  0  0  0
   27.0402   71.1536    3.0467 C   0  0  1  0  0  0  0  0  0  0  0  0
   27.9074   71.8717    5.1065 C   0  0  2  0  0  0  0  0  0  0  0  0
   25.1328   73.5984    3.9968 H   0  0  0  0  0  0  0  0  0  0  0  0
   27.2590   74.9852    4.3068 H   0  0  0  0  0  0  0  0  0  0  0  0
   28.7999   73.1184    7.4783 O   0  0  0  0  0  0  0  0  0  0  0  0
   33.0360   71.3593    7.0254 O   0  0  0  0  0  0  0  0  0  0  0  0
   29.2385   71.7563    5.6315 N   0  0  0  0  0  0  0  0  0  0  0  0
   30.9091   72.2419    7.2500 N   0  0  0  0  0  0  0  0  0  0  0  0
   29.5846   72.4231    6.8305 C   0  0  0  0  0  0  0  0  0  0  0  0
   30.1839   70.9888    4.9621 C   0  0  0  0  0  0  0  0  0  0  0  0
   31.4426   70.8255    5.3743 C   0  0  0  0  0  0  0  0  0  0  0  0
   31.8856   71.4891    6.6180 C   0  0  0  0  0  0  0  0  0  0  0  0
   31.1741   72.6981    8.0812 H   0  0  0  0  0  0  0  0  0  0  0  0
   29.5727   70.8638   -0.6801 O   0  0  0  0  0  0  0  0  0  0  0  0
   30.9728   70.7625   -1.4820 P   0  0  2  0  0  0  0  0  0  0  0  0
   31.7592   69.5798   -0.7054 O   0  0  0  0  0  0  0  0  0  0  0  0
   31.7293   72.0566   -1.5661 O   0  0  0  0  0  0  0  0  0  0  0  0
   30.5812   70.1219   -2.9099 O   0  0  0  0  0  0  0  0  0  0  0  0
   28.2638   69.7258   -3.1957 O   0  0  0  0  0  0  0  0  0  0  0  0
   29.8559   67.8187   -6.4966 O   0  0  0  0  0  0  0  0  0  0  0  0
   31.1409   67.5775   -3.8841 O   0  0  0  0  0  0  0  0  0  0  0  0
   28.5326   70.3899   -6.7941 O   0  0  0  0  0  0  0  0  0  0  0  0
   29.7853   68.8116   -5.4733 C   0  0  2  0  0  0  0  0  0  0  0  0
   29.8516   68.1388   -4.1020 C   0  0  2  0  0  0  0  0  0  0  0  0
   28.4619   69.5631   -5.6340 C   0  0  1  0  0  0  0  0  0  0  0  0
   29.5493   69.1401   -2.9862 C   0  0  1  0  0  0  0  0  0  0  0  0
   28.1716   70.4453   -4.4232 C   0  0  1  0  0  0  0  0  0  0  0  0
   30.6889   67.3281   -6.4144 H   0  0  0  0  0  0  0  0  0  0  0  0
   31.3394   66.9414   -4.5886 H   0  0  0  0  0  0  0  0  0  0  0  0
   28.7171   69.8406   -7.5720 H   0  0  0  0  0  0  0  0  0  0  0  0
   26.0042   70.1849   -3.5655 O   0  0  0  0  0  0  0  0  0  0  0  0
   26.3164   71.8191   -5.1246 O   0  0  0  0  0  0  0  0  0  0  0  0
   26.7517   70.9101   -4.4338 C   0  0  0  0  0  0  0  0  0  0  0  0
  1  4  1  0
  1 24  1  0
  1  2  1  1
  1  3  2  0
 25 28  1  0
 25 24  1  0
 25 26  1  1
 25 27  2  0
  6 11  1  0
  6 12  1  0
 29 36  1  0
 29 37  1  0
  9  7  1  1
  7 13  1  0
 10  8  1  1
  8 14  1  0
  4  5  1  0
 36 28  1  6
 33 30  1  6
 30 38  1  0
 34 31  1  1
 31 39  1  0
 35 32  1  6
 32 40  1  0
 41 43  1  0
 15 19  2  0
 42 43  2  0
 16 22  2  0
 12 17  1  6
 17 19  1  0
 17 20  1  0
 18 19  1  0
 18 22  1  0
 18 23  1  0
  9 10  1  0
  9 11  1  0
 10 12  1  0
 11  5  1  6
 33 34  1  0
 33 35  1  0
 34 36  1  0
 35 37  1  0
 37 43  1  6
 20 21  2  0
 21 22  1  0
M  CHG  3   2  -1  26  -1  41  -1
M  END
>  <COMPND>  (166) 
    udp_gluA.pdb 

>  <AUTHOR>  (166) 
    GENERATED BY OPEN BABEL 3.1.1

>  <MASTER>  (166) 
        0    0    0    0    0    0    0    0   56    0   56    0

>  <minimizedAffinity>  (166) 
-6.69942

>  <CNNscore>  (166) 
0.5214380026

>  <CNNaffinity>  (166) 
4.0193090439

>  <CNN_VS>  (166) 
2.0958204269

>  <CNNaffinity_variance>  (166) 
0.0415523574

$$$$
167
     RDKit          3D

 43 45  0  0  0  0  0  0  0  0999 V2000
   24.1621   73.0297   -5.0391 P   0  0  2  0  0  0  0  0  0  0  0  0
   25.0831   73.7294   -6.1709 O   0  0  0  0  0  0  0  0  0  0  0  0
   23.7526   73.9295   -3.9102 O   0  0  0  0  0  0  0  0  0  0  0  0
   24.9991   71.7106   -4.6180 O   0  0  0  0  0  0  0  0  0  0  0  0
   26.4112   71.7955   -4.5610 C   0  0  0  0  0  0  0  0  0  0  0  0
   27.1690   69.8592   -3.3551 O   0  0  0  0  0  0  0  0  0  0  0  0
   28.2446   71.7789   -1.3181 O   0  0  0  0  0  0  0  0  0  0  0  0
   30.4750   71.0986   -2.7318 O   0  0  0  0  0  0  0  0  0  0  0  0
   28.1827   71.9094   -2.7385 C   0  0  1  0  0  0  0  0  0  0  0  0
   29.2282   71.0305   -3.3917 C   0  0  2  0  0  0  0  0  0  0  0  0
   26.8858   71.2681   -3.2130 C   0  0  1  0  0  0  0  0  0  0  0  0
   28.5897   69.6555   -3.2947 C   0  0  2  0  0  0  0  0  0  0  0  0
   29.0650   72.1815   -0.9915 H   0  0  0  0  0  0  0  0  0  0  0  0
   30.8404   71.9932   -2.8226 H   0  0  0  0  0  0  0  0  0  0  0  0
   30.8089   67.9107   -3.2086 O   0  0  0  0  0  0  0  0  0  0  0  0
   30.0070   66.3855   -7.4834 O   0  0  0  0  0  0  0  0  0  0  0  0
   28.9836   68.7912   -4.3711 N   0  0  0  0  0  0  0  0  0  0  0  0
   30.4080   67.1534   -5.3382 N   0  0  0  0  0  0  0  0  0  0  0  0
   30.1147   67.9535   -4.2260 C   0  0  0  0  0  0  0  0  0  0  0  0
   28.2524   68.7776   -5.5527 C   0  0  0  0  0  0  0  0  0  0  0  0
   28.5442   68.0094   -6.6041 C   0  0  0  0  0  0  0  0  0  0  0  0
   29.7111   67.1056   -6.5347 C   0  0  0  0  0  0  0  0  0  0  0  0
   31.1923   66.5633   -5.2616 H   0  0  0  0  0  0  0  0  0  0  0  0
   22.9332   72.4223   -5.8957 O   0  0  0  0  0  0  0  0  0  0  0  0
   21.6678   71.5226   -5.4452 P   0  0  2  0  0  0  0  0  0  0  0  0
   21.1672   72.2431   -4.0849 O   0  0  0  0  0  0  0  0  0  0  0  0
   21.9743   70.0607   -5.2940 O   0  0  0  0  0  0  0  0  0  0  0  0
   20.5209   71.8575   -6.5292 O   0  0  0  0  0  0  0  0  0  0  0  0
   20.3180   71.3197   -8.8267 O   0  0  0  0  0  0  0  0  0  0  0  0
   18.5842   75.0669   -8.6841 O   0  0  0  0  0  0  0  0  0  0  0  0
   21.0325   74.5102   -7.1906 O   0  0  0  0  0  0  0  0  0  0  0  0
   16.9178   72.6957   -8.9105 O   0  0  0  0  0  0  0  0  0  0  0  0
   18.9451   73.7782   -8.1871 C   0  0  2  0  0  0  0  0  0  0  0  0
   20.4680   73.6448   -8.1689 C   0  0  2  0  0  0  0  0  0  0  0  0
   18.3295   72.7255   -9.1116 C   0  0  1  0  0  0  0  0  0  0  0  0
   20.8875   72.2063   -7.8629 C   0  0  1  0  0  0  0  0  0  0  0  0
   18.8923   71.3361   -8.8263 C   0  0  1  0  0  0  0  0  0  0  0  0
   18.9644   75.7523   -8.1123 H   0  0  0  0  0  0  0  0  0  0  0  0
   20.7701   75.4247   -7.3785 H   0  0  0  0  0  0  0  0  0  0  0  0
   16.5472   73.5742   -9.0887 H   0  0  0  0  0  0  0  0  0  0  0  0
   17.3519   69.7903   -9.6860 O   0  0  0  0  0  0  0  0  0  0  0  0
   19.2353   70.1738  -10.9126 O   0  0  0  0  0  0  0  0  0  0  0  0
   18.5455   70.3870   -9.9269 C   0  0  0  0  0  0  0  0  0  0  0  0
  1  4  1  0
  1 24  1  0
  1  2  1  6
  1  3  2  0
 25 28  1  0
 25 24  1  0
 25 26  1  1
 25 27  2  0
  6 11  1  0
  6 12  1  0
 29 36  1  0
 29 37  1  0
  9  7  1  1
  7 13  1  0
 10  8  1  1
  8 14  1  0
  4  5  1  0
 36 28  1  1
 33 30  1  6
 30 38  1  0
 34 31  1  1
 31 39  1  0
 35 32  1  1
 32 40  1  0
 41 43  1  0
 15 19  2  0
 42 43  2  0
 16 22  2  0
 12 17  1  6
 17 19  1  0
 17 20  1  0
 18 19  1  0
 18 22  1  0
 18 23  1  0
  9 10  1  0
  9 11  1  0
 10 12  1  0
 11  5  1  6
 33 34  1  0
 33 35  1  0
 34 36  1  0
 35 37  1  0
 37 43  1  6
 20 21  2  0
 21 22  1  0
M  CHG  3   2  -1  26  -1  41  -1
M  END
>  <COMPND>  (167) 
    udp_gluA.pdb 

>  <AUTHOR>  (167) 
    GENERATED BY OPEN BABEL 3.1.1

>  <MASTER>  (167) 
        0    0    0    0    0    0    0    0   56    0   56    0

>  <minimizedAffinity>  (167) 
-7.58432

>  <CNNscore>  (167) 
0.5067148805

>  <CNNaffinity>  (167) 
4.4200463295

>  <CNN_VS>  (167) 
2.2397031784

>  <CNNaffinity_variance>  (167) 
0.0364871137

$$$$
168
     RDKit          3D

 43 45  0  0  0  0  0  0  0  0999 V2000
   22.6684   73.0829   -4.1845 P   0  0  2  0  0  0  0  0  0  0  0  0
   23.2470   73.7724   -5.5293 O   0  0  0  0  0  0  0  0  0  0  0  0
   22.4720   74.0178   -3.0272 O   0  0  0  0  0  0  0  0  0  0  0  0
   23.6717   71.8410   -3.9220 O   0  0  0  0  0  0  0  0  0  0  0  0
   25.0132   71.9511   -4.3610 C   0  0  0  0  0  0  0  0  0  0  0  0
   26.2251   70.2228   -3.2113 O   0  0  0  0  0  0  0  0  0  0  0  0
   27.8438   72.4301   -1.9869 O   0  0  0  0  0  0  0  0  0  0  0  0
   29.4848   71.5129   -3.9623 O   0  0  0  0  0  0  0  0  0  0  0  0
   27.2940   72.3347   -3.3011 C   0  0  1  0  0  0  0  0  0  0  0  0
   28.0920   71.3533   -4.1332 C   0  0  2  0  0  0  0  0  0  0  0  0
   25.9437   71.6391   -3.1960 C   0  0  1  0  0  0  0  0  0  0  0  0
   27.5884   70.0173   -3.6143 C   0  0  2  0  0  0  0  0  0  0  0  0
   28.7071   72.8712   -2.0285 H   0  0  0  0  0  0  0  0  0  0  0  0
   29.7560   72.3782   -4.3082 H   0  0  0  0  0  0  0  0  0  0  0  0
   26.3008   67.5141   -3.3847 O   0  0  0  0  0  0  0  0  0  0  0  0
   27.8138   66.1514   -7.5197 O   0  0  0  0  0  0  0  0  0  0  0  0
   27.6294   68.9897   -4.6160 N   0  0  0  0  0  0  0  0  0  0  0  0
   27.0564   66.8374   -5.4439 N   0  0  0  0  0  0  0  0  0  0  0  0
   26.9483   67.7681   -4.4022 C   0  0  0  0  0  0  0  0  0  0  0  0
   28.3363   69.1974   -5.7941 C   0  0  0  0  0  0  0  0  0  0  0  0
   28.4301   68.3009   -6.7781 C   0  0  0  0  0  0  0  0  0  0  0  0
   27.7482   66.9981   -6.6336 C   0  0  0  0  0  0  0  0  0  0  0  0
   26.5923   65.9785   -5.3171 H   0  0  0  0  0  0  0  0  0  0  0  0
   21.3192   72.3573   -4.7003 O   0  0  0  0  0  0  0  0  0  0  0  0
   19.7740   72.8302   -4.6503 P   0  0  2  0  0  0  0  0  0  0  0  0
   19.8836   74.4426   -4.5576 O   0  0  0  0  0  0  0  0  0  0  0  0
   18.9726   72.2004   -3.5480 O   0  0  0  0  0  0  0  0  0  0  0  0
   19.2105   72.5451   -6.1348 O   0  0  0  0  0  0  0  0  0  0  0  0
   18.3091   70.6045   -7.1501 O   0  0  0  0  0  0  0  0  0  0  0  0
   20.3817   72.3108  -10.2903 O   0  0  0  0  0  0  0  0  0  0  0  0
   21.5469   72.2384   -7.6124 O   0  0  0  0  0  0  0  0  0  0  0  0
   17.4829   72.5006  -10.1807 O   0  0  0  0  0  0  0  0  0  0  0  0
   19.6189   72.3029   -9.0836 C   0  0  2  0  0  0  0  0  0  0  0  0
   20.3769   71.5298   -8.0042 C   0  0  2  0  0  0  0  0  0  0  0  0
   18.2765   71.6293   -9.3772 C   0  0  1  0  0  0  0  0  0  0  0  0
   19.4969   71.3026   -6.7742 C   0  0  1  0  0  0  0  0  0  0  0  0
   17.5142   71.3223   -8.0914 C   0  0  1  0  0  0  0  0  0  0  0  0
   21.2394   72.7342  -10.1280 H   0  0  0  0  0  0  0  0  0  0  0  0
   22.1098   72.3863   -8.3880 H   0  0  0  0  0  0  0  0  0  0  0  0
   17.9568   72.7040  -11.0022 H   0  0  0  0  0  0  0  0  0  0  0  0
   16.3530   70.0272   -9.6649 O   0  0  0  0  0  0  0  0  0  0  0  0
   15.5866   69.9895   -7.5177 O   0  0  0  0  0  0  0  0  0  0  0  0
   16.3812   70.3853   -8.3573 C   0  0  0  0  0  0  0  0  0  0  0  0
  1  4  1  0
  1 24  1  0
  1  2  1  6
  1  3  2  0
 25 28  1  0
 25 24  1  0
 25 26  1  1
 25 27  2  0
  6 11  1  0
  6 12  1  0
 29 36  1  0
 29 37  1  0
  9  7  1  1
  7 13  1  0
 10  8  1  1
  8 14  1  0
  4  5  1  0
 36 28  1  6
 33 30  1  6
 30 38  1  0
 34 31  1  1
 31 39  1  0
 35 32  1  6
 32 40  1  0
 41 43  1  0
 15 19  2  0
 42 43  2  0
 16 22  2  0
 12 17  1  6
 17 19  1  0
 17 20  1  0
 18 19  1  0
 18 22  1  0
 18 23  1  0
  9 10  1  0
  9 11  1  0
 10 12  1  0
 11  5  1  6
 33 34  1  0
 33 35  1  0
 34 36  1  0
 35 37  1  0
 37 43  1  6
 20 21  2  0
 21 22  1  0
M  CHG  3   2  -1  26  -1  41  -1
M  END
>  <COMPND>  (168) 
    udp_gluA.pdb 

>  <AUTHOR>  (168) 
    GENERATED BY OPEN BABEL 3.1.1

>  <MASTER>  (168) 
        0    0    0    0    0    0    0    0   56    0   56    0

>  <minimizedAffinity>  (168) 
-7.61447

>  <CNNscore>  (168) 
0.4899694622

>  <CNNaffinity>  (168) 
4.2835512161

>  <CNN_VS>  (168) 
2.0988092422

>  <CNNaffinity_variance>  (168) 
0.1073230505

$$$$
169
     RDKit          3D

 43 45  0  0  0  0  0  0  0  0999 V2000
   23.2822   72.5452   -5.1286 P   0  0  2  0  0  0  0  0  0  0  0  0
   22.3540   71.7074   -4.1012 O   0  0  0  0  0  0  0  0  0  0  0  0
   23.4273   74.0035   -4.8063 O   0  0  0  0  0  0  0  0  0  0  0  0
   22.6575   72.2055   -6.5820 O   0  0  0  0  0  0  0  0  0  0  0  0
   21.2520   72.2592   -6.7431 C   0  0  0  0  0  0  0  0  0  0  0  0
   19.7420   70.9233   -8.0518 O   0  0  0  0  0  0  0  0  0  0  0  0
   20.7077   72.4865  -10.4214 O   0  0  0  0  0  0  0  0  0  0  0  0
   18.3148   73.6688   -9.8627 O   0  0  0  0  0  0  0  0  0  0  0  0
   20.4919   72.9217   -9.0788 C   0  0  1  0  0  0  0  0  0  0  0  0
   19.0090   73.0482   -8.8009 C   0  0  2  0  0  0  0  0  0  0  0  0
   20.8951   71.7873   -8.1468 C   0  0  1  0  0  0  0  0  0  0  0  0
   18.6003   71.5984   -8.6034 C   0  0  2  0  0  0  0  0  0  0  0  0
   20.4571   73.1949  -11.0355 H   0  0  0  0  0  0  0  0  0  0  0  0
   18.6100   74.5895   -9.9476 H   0  0  0  0  0  0  0  0  0  0  0  0
   16.5562   69.6679   -8.8704 O   0  0  0  0  0  0  0  0  0  0  0  0
   14.4038   71.1564   -5.0762 O   0  0  0  0  0  0  0  0  0  0  0  0
   17.4938   71.4592   -7.6995 N   0  0  0  0  0  0  0  0  0  0  0  0
   15.4856   70.4118   -6.9810 N   0  0  0  0  0  0  0  0  0  0  0  0
   16.5209   70.4566   -7.9239 C   0  0  0  0  0  0  0  0  0  0  0  0
   17.3811   72.3081   -6.6052 C   0  0  0  0  0  0  0  0  0  0  0  0
   16.3886   72.2531   -5.7149 C   0  0  0  0  0  0  0  0  0  0  0  0
   15.3304   71.2346   -5.8772 C   0  0  0  0  0  0  0  0  0  0  0  0
   14.7952   69.7232   -7.1173 H   0  0  0  0  0  0  0  0  0  0  0  0
   24.6685   71.7138   -5.1256 O   0  0  0  0  0  0  0  0  0  0  0  0
   25.9515   71.7930   -4.1451 P   0  0  2  0  0  0  0  0  0  0  0  0
   25.3970   71.1671   -2.7591 O   0  0  0  0  0  0  0  0  0  0  0  0
   26.5403   73.1675   -4.0111 O   0  0  0  0  0  0  0  0  0  0  0  0
   26.9713   70.6805   -4.7150 O   0  0  0  0  0  0  0  0  0  0  0  0
   27.0965   68.3218   -4.8895 O   0  0  0  0  0  0  0  0  0  0  0  0
   30.8573   69.2598   -3.4595 O   0  0  0  0  0  0  0  0  0  0  0  0
   28.4899   70.5933   -2.3864 O   0  0  0  0  0  0  0  0  0  0  0  0
   30.4955   68.5428   -6.2534 O   0  0  0  0  0  0  0  0  0  0  0  0
   29.6530   69.4717   -4.1962 C   0  0  2  0  0  0  0  0  0  0  0  0
   28.4593   69.4560   -3.2410 C   0  0  2  0  0  0  0  0  0  0  0  0
   29.5249   68.3476   -5.2266 C   0  0  1  0  0  0  0  0  0  0  0  0
   27.1399   69.4495   -4.0143 C   0  0  1  0  0  0  0  0  0  0  0  0
   28.1382   68.3307   -5.8631 C   0  0  1  0  0  0  0  0  0  0  0  0
   30.9599   69.9623   -2.7983 H   0  0  0  0  0  0  0  0  0  0  0  0
   29.3245   70.6040   -1.8928 H   0  0  0  0  0  0  0  0  0  0  0  0
   31.3827   68.5557   -5.8615 H   0  0  0  0  0  0  0  0  0  0  0  0
   29.0406   66.3040   -6.6244 O   0  0  0  0  0  0  0  0  0  0  0  0
   26.8579   66.7261   -7.1312 O   0  0  0  0  0  0  0  0  0  0  0  0
   27.9119   67.0555   -6.6081 C   0  0  0  0  0  0  0  0  0  0  0  0
  1  4  1  0
  1 24  1  0
  1  2  1  1
  1  3  2  0
 25 28  1  0
 25 24  1  0
 25 26  1  1
 25 27  2  0
  6 11  1  0
  6 12  1  0
 29 36  1  0
 29 37  1  0
  9  7  1  6
  7 13  1  0
 10  8  1  6
  8 14  1  0
  4  5  1  0
 36 28  1  6
 33 30  1  1
 30 38  1  0
 34 31  1  1
 31 39  1  0
 35 32  1  6
 32 40  1  0
 41 43  1  0
 15 19  2  0
 42 43  2  0
 16 22  2  0
 12 17  1  1
 17 19  1  0
 17 20  1  0
 18 19  1  0
 18 22  1  0
 18 23  1  0
  9 10  1  0
  9 11  1  0
 10 12  1  0
 11  5  1  1
 33 34  1  0
 33 35  1  0
 34 36  1  0
 35 37  1  0
 37 43  1  1
 20 21  2  0
 21 22  1  0
M  CHG  3   2  -1  26  -1  41  -1
M  END
>  <COMPND>  (169) 
    udp_gluA.pdb 

>  <AUTHOR>  (169) 
    GENERATED BY OPEN BABEL 3.1.1

>  <MASTER>  (169) 
        0    0    0    0    0    0    0    0   56    0   56    0

>  <minimizedAffinity>  (169) 
-6.99028

>  <CNNscore>  (169) 
0.4750394821

>  <CNNaffinity>  (169) 
4.3758096695

>  <CNN_VS>  (169) 
2.0786824226

>  <CNNaffinity_variance>  (169) 
0.2080349475

$$$$
170
     RDKit          3D

 43 45  0  0  0  0  0  0  0  0999 V2000
   26.4945   71.7238    2.2502 P   0  0  2  0  0  0  0  0  0  0  0  0
   25.7443   73.1570    2.2963 O   0  0  0  0  0  0  0  0  0  0  0  0
   25.8416   70.6407    3.0579 O   0  0  0  0  0  0  0  0  0  0  0  0
   28.0235   72.0726    2.6485 O   0  0  0  0  0  0  0  0  0  0  0  0
   28.9754   71.0246    2.6588 C   0  0  0  0  0  0  0  0  0  0  0  0
   30.3044   72.6340    3.8510 O   0  0  0  0  0  0  0  0  0  0  0  0
   32.6918   71.0836    2.9087 O   0  0  0  0  0  0  0  0  0  0  0  0
   32.4023   70.2265    5.4812 O   0  0  0  0  0  0  0  0  0  0  0  0
   31.4026   70.6094    3.2980 C   0  0  1  0  0  0  0  0  0  0  0  0
   31.2501   70.6811    4.8026 C   0  0  2  0  0  0  0  0  0  0  0  0
   30.3675   71.6205    2.8243 C   0  0  1  0  0  0  0  0  0  0  0  0
   30.9876   72.1611    5.0228 C   0  0  2  0  0  0  0  0  0  0  0  0
   33.3700   70.4539    3.2006 H   0  0  0  0  0  0  0  0  0  0  0  0
   32.5259   69.2793    5.3096 H   0  0  0  0  0  0  0  0  0  0  0  0
   31.9508   72.2803    7.6751 O   0  0  0  0  0  0  0  0  0  0  0  0
   27.7415   73.1087    9.3602 O   0  0  0  0  0  0  0  0  0  0  0  0
   30.1652   72.4065    6.1736 N   0  0  0  0  0  0  0  0  0  0  0  0
   29.8532   72.6917    8.5119 N   0  0  0  0  0  0  0  0  0  0  0  0
   30.7482   72.4462    7.4623 C   0  0  0  0  0  0  0  0  0  0  0  0
   28.7987   72.6061    6.0198 C   0  0  0  0  0  0  0  0  0  0  0  0
   27.9583   72.8393    7.0298 C   0  0  0  0  0  0  0  0  0  0  0  0
   28.4868   72.8958    8.4086 C   0  0  0  0  0  0  0  0  0  0  0  0
   30.2356   72.7220    9.4187 H   0  0  0  0  0  0  0  0  0  0  0  0
   26.5927   71.4164    0.6663 O   0  0  0  0  0  0  0  0  0  0  0  0
   26.9090   72.3886   -0.5860 P   0  0  2  0  0  0  0  0  0  0  0  0
   27.9984   73.4239    0.0154 O   0  0  0  0  0  0  0  0  0  0  0  0
   25.6952   73.0435   -1.1790 O   0  0  0  0  0  0  0  0  0  0  0  0
   27.7449   71.4706   -1.6160 O   0  0  0  0  0  0  0  0  0  0  0  0
   30.0696   71.9180   -1.5464 O   0  0  0  0  0  0  0  0  0  0  0  0
   29.8103   69.3124   -4.7419 O   0  0  0  0  0  0  0  0  0  0  0  0
   27.8308   71.4328   -4.3958 O   0  0  0  0  0  0  0  0  0  0  0  0
   30.8297   68.3853   -2.1822 O   0  0  0  0  0  0  0  0  0  0  0  0
   29.4412   69.8667   -3.4792 C   0  0  2  0  0  0  0  0  0  0  0  0
   29.0445   71.3321   -3.6599 C   0  0  2  0  0  0  0  0  0  0  0  0
   30.6460   69.7531   -2.5425 C   0  0  1  0  0  0  0  0  0  0  0  0
   28.8650   72.0212   -2.3065 C   0  0  1  0  0  0  0  0  0  0  0  0
   30.4410   70.5694   -1.2697 C   0  0  1  0  0  0  0  0  0  0  0  0
   29.0599   69.3736   -5.3539 H   0  0  0  0  0  0  0  0  0  0  0  0
   27.9375   70.9973   -5.2556 H   0  0  0  0  0  0  0  0  0  0  0  0
   30.9611   67.8547   -2.9835 H   0  0  0  0  0  0  0  0  0  0  0  0
   31.9699   69.6281    0.2396 O   0  0  0  0  0  0  0  0  0  0  0  0
   32.4650   71.6934   -0.5903 O   0  0  0  0  0  0  0  0  0  0  0  0
   31.7270   70.7218   -0.5244 C   0  0  0  0  0  0  0  0  0  0  0  0
  1  4  1  0
  1 24  1  0
  1  2  1  6
  1  3  2  0
 25 28  1  0
 25 24  1  0
 25 26  1  1
 25 27  2  0
  6 11  1  0
  6 12  1  0
 29 36  1  0
 29 37  1  0
  9  7  1  1
  7 13  1  0
 10  8  1  1
  8 14  1  0
  4  5  1  0
 36 28  1  1
 33 30  1  6
 30 38  1  0
 34 31  1  1
 31 39  1  0
 35 32  1  1
 32 40  1  0
 41 43  1  0
 15 19  2  0
 42 43  2  0
 16 22  2  0
 12 17  1  1
 17 19  1  0
 17 20  1  0
 18 19  1  0
 18 22  1  0
 18 23  1  0
  9 10  1  0
  9 11  1  0
 10 12  1  0
 11  5  1  1
 33 34  1  0
 33 35  1  0
 34 36  1  0
 35 37  1  0
 37 43  1  6
 20 21  2  0
 21 22  1  0
M  CHG  3   2  -1  26  -1  41  -1
M  END
>  <COMPND>  (170) 
    udp_gluA.pdb 

>  <AUTHOR>  (170) 
    GENERATED BY OPEN BABEL 3.1.1

>  <MASTER>  (170) 
        0    0    0    0    0    0    0    0   56    0   56    0

>  <minimizedAffinity>  (170) 
-6.43374

>  <CNNscore>  (170) 
0.4739626646

>  <CNNaffinity>  (170) 
4.0048632622

>  <CNN_VS>  (170) 
1.8981556892

>  <CNNaffinity_variance>  (170) 
0.2466385812

$$$$
171
     RDKit          3D

 43 45  0  0  0  0  0  0  0  0999 V2000
   25.8352   70.8192   -3.2198 P   0  0  2  0  0  0  0  0  0  0  0  0
   25.2945   71.6935   -1.9699 O   0  0  0  0  0  0  0  0  0  0  0  0
   25.0324   69.5892   -3.5271 O   0  0  0  0  0  0  0  0  0  0  0  0
   27.3962   70.5711   -2.8739 O   0  0  0  0  0  0  0  0  0  0  0  0
   28.1830   71.6763   -2.4691 C   0  0  0  0  0  0  0  0  0  0  0  0
   29.5944   69.7726   -2.0671 O   0  0  0  0  0  0  0  0  0  0  0  0
   31.6403   71.7313   -1.0826 O   0  0  0  0  0  0  0  0  0  0  0  0
   32.5195   71.1669   -3.6014 O   0  0  0  0  0  0  0  0  0  0  0  0
   30.6997   71.8660   -2.1482 C   0  0  1  0  0  0  0  0  0  0  0  0
   31.1371   71.0421   -3.3407 C   0  0  2  0  0  0  0  0  0  0  0  0
   29.4138   71.1654   -1.7312 C   0  0  1  0  0  0  0  0  0  0  0  0
   30.7470   69.6373   -2.9136 C   0  0  2  0  0  0  0  0  0  0  0  0
   32.4703   72.1713   -1.3258 H   0  0  0  0  0  0  0  0  0  0  0  0
   32.7169   72.0785   -3.8696 H   0  0  0  0  0  0  0  0  0  0  0  0
   31.7747   67.0385   -3.3216 O   0  0  0  0  0  0  0  0  0  0  0  0
   29.3888   66.5110   -7.2297 O   0  0  0  0  0  0  0  0  0  0  0  0
   30.4111   68.7987   -4.0293 N   0  0  0  0  0  0  0  0  0  0  0  0
   30.5862   66.7787   -5.2682 N   0  0  0  0  0  0  0  0  0  0  0  0
   30.9831   67.5094   -4.1406 C   0  0  0  0  0  0  0  0  0  0  0  0
   29.5238   69.2541   -4.9969 C   0  0  0  0  0  0  0  0  0  0  0  0
   29.1549   68.5461   -6.0662 C   0  0  0  0  0  0  0  0  0  0  0  0
   29.7075   67.1891   -6.2577 C   0  0  0  0  0  0  0  0  0  0  0  0
   30.9728   65.8788   -5.3684 H   0  0  0  0  0  0  0  0  0  0  0  0
   25.8963   71.9006   -4.4197 O   0  0  0  0  0  0  0  0  0  0  0  0
   25.2402   73.3718   -4.5571 P   0  0  2  0  0  0  0  0  0  0  0  0
   25.2481   73.6325   -6.1547 O   0  0  0  0  0  0  0  0  0  0  0  0
   25.9346   74.4332   -3.7538 O   0  0  0  0  0  0  0  0  0  0  0  0
   23.6842   73.1622   -4.1864 O   0  0  0  0  0  0  0  0  0  0  0  0
   22.3985   71.1820   -4.3727 O   0  0  0  0  0  0  0  0  0  0  0  0
   19.5225   74.1031   -4.8863 O   0  0  0  0  0  0  0  0  0  0  0  0
   22.1371   74.3583   -6.1643 O   0  0  0  0  0  0  0  0  0  0  0  0
   19.7098   72.6670   -2.3657 O   0  0  0  0  0  0  0  0  0  0  0  0
   20.7266   73.5364   -4.3696 C   0  0  2  0  0  0  0  0  0  0  0  0
   21.6613   73.1792   -5.5255 C   0  0  2  0  0  0  0  0  0  0  0  0
   20.3561   72.2807   -3.5772 C   0  0  1  0  0  0  0  0  0  0  0  0
   22.8567   72.3639   -5.0306 C   0  0  1  0  0  0  0  0  0  0  0  0
   21.5924   71.4567   -3.2291 C   0  0  1  0  0  0  0  0  0  0  0  0
   19.7331   74.9027   -5.3939 H   0  0  0  0  0  0  0  0  0  0  0  0
   21.3838   74.8806   -6.4806 H   0  0  0  0  0  0  0  0  0  0  0  0
   18.9213   73.1923   -2.5733 H   0  0  0  0  0  0  0  0  0  0  0  0
   20.3301   70.1754   -1.7237 O   0  0  0  0  0  0  0  0  0  0  0  0
   21.6142   69.0440   -3.2304 O   0  0  0  0  0  0  0  0  0  0  0  0
   21.2053   70.0933   -2.7562 C   0  0  0  0  0  0  0  0  0  0  0  0
  1  4  1  0
  1 24  1  0
  1  2  1  1
  1  3  2  0
 25 28  1  0
 25 24  1  0
 25 26  1  6
 25 27  2  0
  6 11  1  0
  6 12  1  0
 29 36  1  0
 29 37  1  0
  9  7  1  1
  7 13  1  0
 10  8  1  1
  8 14  1  0
  4  5  1  0
 36 28  1  1
 33 30  1  6
 30 38  1  0
 34 31  1  1
 31 39  1  0
 35 32  1  1
 32 40  1  0
 41 43  1  0
 15 19  2  0
 42 43  2  0
 16 22  2  0
 12 17  1  6
 17 19  1  0
 17 20  1  0
 18 19  1  0
 18 22  1  0
 18 23  1  0
  9 10  1  0
  9 11  1  0
 10 12  1  0
 11  5  1  6
 33 34  1  0
 33 35  1  0
 34 36  1  0
 35 37  1  0
 37 43  1  6
 20 21  2  0
 21 22  1  0
M  CHG  3   2  -1  26  -1  41  -1
M  END
>  <COMPND>  (171) 
    udp_gluA.pdb 

>  <AUTHOR>  (171) 
    GENERATED BY OPEN BABEL 3.1.1

>  <MASTER>  (171) 
        0    0    0    0    0    0    0    0   56    0   56    0

>  <minimizedAffinity>  (171) 
-7.00249

>  <CNNscore>  (171) 
0.4442135394

>  <CNNaffinity>  (171) 
4.3890228271

>  <CNN_VS>  (171) 
1.9496634007

>  <CNNaffinity_variance>  (171) 
0.0856532305

$$$$
172
     RDKit          3D

 43 45  0  0  0  0  0  0  0  0999 V2000
   30.7533   70.6734   -0.1988 P   0  0  2  0  0  0  0  0  0  0  0  0
   31.9301   71.7550   -0.4524 O   0  0  0  0  0  0  0  0  0  0  0  0
   29.3627   71.1807   -0.4449 O   0  0  0  0  0  0  0  0  0  0  0  0
   31.0465   70.1232    1.2943 O   0  0  0  0  0  0  0  0  0  0  0  0
   31.0150   71.0414    2.3715 C   0  0  0  0  0  0  0  0  0  0  0  0
   29.7532   70.7879    4.4016 O   0  0  0  0  0  0  0  0  0  0  0  0
   27.5013   72.1354    2.9507 O   0  0  0  0  0  0  0  0  0  0  0  0
   28.5189   74.1532    4.4767 O   0  0  0  0  0  0  0  0  0  0  0  0
   28.9058   72.3766    2.8624 C   0  0  1  0  0  0  0  0  0  0  0  0
   29.3903   73.1092    4.0956 C   0  0  2  0  0  0  0  0  0  0  0  0
   29.6209   71.0380    2.9855 C   0  0  1  0  0  0  0  0  0  0  0  0
   29.4491   71.9920    5.1234 C   0  0  2  0  0  0  0  0  0  0  0  0
   27.0231   72.9763    2.8746 H   0  0  0  0  0  0  0  0  0  0  0  0
   28.5167   74.8393    3.7903 H   0  0  0  0  0  0  0  0  0  0  0  0
   29.0843   73.5217    7.4694 O   0  0  0  0  0  0  0  0  0  0  0  0
   33.4154   72.7674    8.8536 O   0  0  0  0  0  0  0  0  0  0  0  0
   30.4646   72.2117    6.1140 N   0  0  0  0  0  0  0  0  0  0  0  0
   31.2421   73.1454    8.1561 N   0  0  0  0  0  0  0  0  0  0  0  0
   30.1785   72.9962    7.2563 C   0  0  0  0  0  0  0  0  0  0  0  0
   31.7259   71.6521    5.9501 C   0  0  0  0  0  0  0  0  0  0  0  0
   32.7296   71.8031    6.8165 C   0  0  0  0  0  0  0  0  0  0  0  0
   32.5139   72.6090    8.0361 C   0  0  0  0  0  0  0  0  0  0  0  0
   31.0675   73.6892    8.9580 H   0  0  0  0  0  0  0  0  0  0  0  0
   31.1930   69.4322   -1.1363 O   0  0  0  0  0  0  0  0  0  0  0  0
   30.9687   69.1625   -2.7145 P   0  0  2  0  0  0  0  0  0  0  0  0
   31.3647   67.6020   -2.8829 O   0  0  0  0  0  0  0  0  0  0  0  0
   31.7299   70.0940   -3.6127 O   0  0  0  0  0  0  0  0  0  0  0  0
   29.3682   69.2001   -2.9127 O   0  0  0  0  0  0  0  0  0  0  0  0
   28.9845   69.1914   -5.2498 O   0  0  0  0  0  0  0  0  0  0  0  0
   25.1295   69.1513   -3.7648 O   0  0  0  0  0  0  0  0  0  0  0  0
   27.1656   70.8599   -2.5527 O   0  0  0  0  0  0  0  0  0  0  0  0
   26.2965   66.7245   -4.8602 O   0  0  0  0  0  0  0  0  0  0  0  0
   26.5271   68.8606   -3.7698 C   0  0  2  0  0  0  0  0  0  0  0  0
   27.3214   70.1669   -3.7856 C   0  0  2  0  0  0  0  0  0  0  0  0
   26.8342   68.0358   -5.0217 C   0  0  1  0  0  0  0  0  0  0  0  0
   28.8086   69.9001   -4.0225 C   0  0  1  0  0  0  0  0  0  0  0  0
   28.3373   67.9209   -5.2583 C   0  0  1  0  0  0  0  0  0  0  0  0
   24.9108   69.6751   -2.9780 H   0  0  0  0  0  0  0  0  0  0  0  0
   26.2243   71.0323   -2.3959 H   0  0  0  0  0  0  0  0  0  0  0  0
   25.3403   66.7836   -4.7086 H   0  0  0  0  0  0  0  0  0  0  0  0
   29.9464   67.4809   -6.9071 O   0  0  0  0  0  0  0  0  0  0  0  0
   27.7791   66.9818   -7.4096 O   0  0  0  0  0  0  0  0  0  0  0  0
   28.6202   67.4095   -6.6334 C   0  0  0  0  0  0  0  0  0  0  0  0
  1  4  1  0
  1 24  1  0
  1  2  1  6
  1  3  2  0
 25 28  1  0
 25 24  1  0
 25 26  1  6
 25 27  2  0
  6 11  1  0
  6 12  1  0
 29 36  1  0
 29 37  1  0
  9  7  1  1
  7 13  1  0
 10  8  1  1
  8 14  1  0
  4  5  1  0
 36 28  1  1
 33 30  1  6
 30 38  1  0
 34 31  1  1
 31 39  1  0
 35 32  1  1
 32 40  1  0
 41 43  1  0
 15 19  2  0
 42 43  2  0
 16 22  2  0
 12 17  1  1
 17 19  1  0
 17 20  1  0
 18 19  1  0
 18 22  1  0
 18 23  1  0
  9 10  1  0
  9 11  1  0
 10 12  1  0
 11  5  1  1
 33 34  1  0
 33 35  1  0
 34 36  1  0
 35 37  1  0
 37 43  1  6
 20 21  2  0
 21 22  1  0
M  CHG  3   2  -1  26  -1  41  -1
M  END
>  <COMPND>  (172) 
    udp_gluA.pdb 

>  <AUTHOR>  (172) 
    GENERATED BY OPEN BABEL 3.1.1

>  <MASTER>  (172) 
        0    0    0    0    0    0    0    0   56    0   56    0

>  <minimizedAffinity>  (172) 
-6.76021

>  <CNNscore>  (172) 
0.4438156188

>  <CNNaffinity>  (172) 
3.9157536030

>  <CNN_VS>  (172) 
1.7378726006

>  <CNNaffinity_variance>  (172) 
0.0499976650

$$$$
173
     RDKit          3D

 43 45  0  0  0  0  0  0  0  0999 V2000
   22.3650   71.9602   -4.7037 P   0  0  2  0  0  0  0  0  0  0  0  0
   21.8149   70.4406   -4.7884 O   0  0  0  0  0  0  0  0  0  0  0  0
   21.7332   72.8041   -3.6358 O   0  0  0  0  0  0  0  0  0  0  0  0
   22.2142   72.5128   -6.2169 O   0  0  0  0  0  0  0  0  0  0  0  0
   20.9127   72.7039   -6.7404 C   0  0  0  0  0  0  0  0  0  0  0  0
   20.1235   70.9099   -8.1320 O   0  0  0  0  0  0  0  0  0  0  0  0
   20.5810   72.7555  -10.4506 O   0  0  0  0  0  0  0  0  0  0  0  0
   17.8851   72.9253  -10.0767 O   0  0  0  0  0  0  0  0  0  0  0  0
   20.1220   73.0569   -9.1326 C   0  0  1  0  0  0  0  0  0  0  0  0
   18.6879   72.6029   -8.9604 C   0  0  2  0  0  0  0  0  0  0  0  0
   20.8623   72.1504   -8.1587 C   0  0  1  0  0  0  0  0  0  0  0  0
   18.8520   71.1045   -8.7713 C   0  0  2  0  0  0  0  0  0  0  0  0
   20.1220   73.3224  -11.0907 H   0  0  0  0  0  0  0  0  0  0  0  0
   17.8110   73.8899  -10.1539 H   0  0  0  0  0  0  0  0  0  0  0  0
   16.4035   70.0877   -9.7446 O   0  0  0  0  0  0  0  0  0  0  0  0
   14.9762   68.9646   -5.5084 O   0  0  0  0  0  0  0  0  0  0  0  0
   17.8226   70.5406   -7.9447 N   0  0  0  0  0  0  0  0  0  0  0  0
   15.6945   69.5302   -7.6337 N   0  0  0  0  0  0  0  0  0  0  0  0
   16.6298   70.0581   -8.5335 C   0  0  0  0  0  0  0  0  0  0  0  0
   18.0002   70.4680   -6.5684 C   0  0  0  0  0  0  0  0  0  0  0  0
   17.0996   69.9620   -5.7236 C   0  0  0  0  0  0  0  0  0  0  0  0
   15.8257   69.4372   -6.2575 C   0  0  0  0  0  0  0  0  0  0  0  0
   14.8553   69.1900   -8.0199 H   0  0  0  0  0  0  0  0  0  0  0  0
   23.9613   71.7601   -4.5473 O   0  0  0  0  0  0  0  0  0  0  0  0
   25.1854   72.7979   -4.7428 P   0  0  2  0  0  0  0  0  0  0  0  0
   25.1403   73.6825   -3.3879 O   0  0  0  0  0  0  0  0  0  0  0  0
   25.1149   73.6018   -6.0089 O   0  0  0  0  0  0  0  0  0  0  0  0
   26.5145   71.8956   -4.5959 O   0  0  0  0  0  0  0  0  0  0  0  0
   26.6318   69.8507   -3.4069 O   0  0  0  0  0  0  0  0  0  0  0  0
   30.5686   71.1006   -3.3200 O   0  0  0  0  0  0  0  0  0  0  0  0
   28.3994   73.0072   -2.8791 O   0  0  0  0  0  0  0  0  0  0  0  0
   29.7548   68.9656   -5.1173 O   0  0  0  0  0  0  0  0  0  0  0  0
   29.2566   70.9633   -3.8659 C   0  0  2  0  0  0  0  0  0  0  0  0
   28.2384   71.5939   -2.9157 C   0  0  2  0  0  0  0  0  0  0  0  0
   28.9701   69.4699   -4.0383 C   0  0  1  0  0  0  0  0  0  0  0  0
   26.8090   71.2666   -3.3499 C   0  0  1  0  0  0  0  0  0  0  0  0
   27.4971   69.2172   -4.3466 C   0  0  1  0  0  0  0  0  0  0  0  0
   30.7728   72.0416   -3.2016 H   0  0  0  0  0  0  0  0  0  0  0  0
   29.3043   73.2220   -2.6045 H   0  0  0  0  0  0  0  0  0  0  0  0
   30.6946   69.1203   -4.9336 H   0  0  0  0  0  0  0  0  0  0  0  0
   27.4811   67.0790   -5.3106 O   0  0  0  0  0  0  0  0  0  0  0  0
   26.6721   67.2687   -3.1872 O   0  0  0  0  0  0  0  0  0  0  0  0
   27.1627   67.7697   -4.1879 C   0  0  0  0  0  0  0  0  0  0  0  0
  1  4  1  0
  1 24  1  0
  1  2  1  6
  1  3  2  0
 25 28  1  0
 25 24  1  0
 25 26  1  1
 25 27  2  0
  6 11  1  0
  6 12  1  0
 29 36  1  0
 29 37  1  0
  9  7  1  6
  7 13  1  0
 10  8  1  6
  8 14  1  0
  4  5  1  0
 36 28  1  6
 33 30  1  1
 30 38  1  0
 34 31  1  6
 31 39  1  0
 35 32  1  6
 32 40  1  0
 41 43  1  0
 15 19  2  0
 42 43  2  0
 16 22  2  0
 12 17  1  1
 17 19  1  0
 17 20  1  0
 18 19  1  0
 18 22  1  0
 18 23  1  0
  9 10  1  0
  9 11  1  0
 10 12  1  0
 11  5  1  1
 33 34  1  0
 33 35  1  0
 34 36  1  0
 35 37  1  0
 37 43  1  1
 20 21  2  0
 21 22  1  0
M  CHG  3   2  -1  26  -1  41  -1
M  END
>  <COMPND>  (173) 
    udp_gluA.pdb 

>  <AUTHOR>  (173) 
    GENERATED BY OPEN BABEL 3.1.1

>  <MASTER>  (173) 
        0    0    0    0    0    0    0    0   56    0   56    0

>  <minimizedAffinity>  (173) 
-7.78219

>  <CNNscore>  (173) 
0.4081529975

>  <CNNaffinity>  (173) 
4.1978912354

>  <CNN_VS>  (173) 
1.7133818865

>  <CNNaffinity_variance>  (173) 
0.0642861277

$$$$
174
     RDKit          3D

 43 45  0  0  0  0  0  0  0  0999 V2000
   21.6617   72.9026   -5.6085 P   0  0  2  0  0  0  0  0  0  0  0  0
   21.1765   73.0868   -4.0756 O   0  0  0  0  0  0  0  0  0  0  0  0
   21.6482   74.1568   -6.4323 O   0  0  0  0  0  0  0  0  0  0  0  0
   20.7470   71.6883   -6.1622 O   0  0  0  0  0  0  0  0  0  0  0  0
   19.3391   71.8350   -6.1340 C   0  0  0  0  0  0  0  0  0  0  0  0
   18.1404   69.7768   -6.4572 O   0  0  0  0  0  0  0  0  0  0  0  0
   17.4541   70.8210   -9.1830 O   0  0  0  0  0  0  0  0  0  0  0  0
   15.1704   71.2962   -7.7704 O   0  0  0  0  0  0  0  0  0  0  0  0
   17.5840   71.5295   -7.9503 C   0  0  1  0  0  0  0  0  0  0  0  0
   16.3904   71.2558   -7.0600 C   0  0  2  0  0  0  0  0  0  0  0  0
   18.7217   70.8953   -7.1617 C   0  0  1  0  0  0  0  0  0  0  0  0
   16.7086   69.8708   -6.5228 C   0  0  2  0  0  0  0  0  0  0  0  0
   16.7330   71.2082   -9.7044 H   0  0  0  0  0  0  0  0  0  0  0  0
   15.0131   72.1985   -8.0915 H   0  0  0  0  0  0  0  0  0  0  0  0
   15.1861   67.6105   -5.7814 O   0  0  0  0  0  0  0  0  0  0  0  0
   14.6768   69.1425   -1.4643 O   0  0  0  0  0  0  0  0  0  0  0  0
   16.1658   69.6536   -5.2117 N   0  0  0  0  0  0  0  0  0  0  0  0
   14.9331   68.3762   -3.6322 N   0  0  0  0  0  0  0  0  0  0  0  0
   15.4150   68.4847   -4.9433 C   0  0  0  0  0  0  0  0  0  0  0  0
   16.3801   70.5908   -4.2083 C   0  0  0  0  0  0  0  0  0  0  0  0
   15.9144   70.4734   -2.9633 C   0  0  0  0  0  0  0  0  0  0  0  0
   15.1195   69.2819   -2.6004 C   0  0  0  0  0  0  0  0  0  0  0  0
   14.4058   67.5718   -3.4220 H   0  0  0  0  0  0  0  0  0  0  0  0
   23.1171   72.2176   -5.4486 O   0  0  0  0  0  0  0  0  0  0  0  0
   24.5459   72.8466   -5.0284 P   0  0  2  0  0  0  0  0  0  0  0  0
   24.2906   73.3673   -3.5171 O   0  0  0  0  0  0  0  0  0  0  0  0
   25.0548   73.9011   -5.9681 O   0  0  0  0  0  0  0  0  0  0  0  0
   25.5207   71.5722   -4.8607 O   0  0  0  0  0  0  0  0  0  0  0  0
   26.2368   69.8454   -3.4066 O   0  0  0  0  0  0  0  0  0  0  0  0
   29.7226   71.9991   -3.9349 O   0  0  0  0  0  0  0  0  0  0  0  0
   27.1763   73.3761   -3.5413 O   0  0  0  0  0  0  0  0  0  0  0  0
   29.3547   69.4600   -5.3019 O   0  0  0  0  0  0  0  0  0  0  0  0
   28.4538   71.4613   -4.3078 C   0  0  2  0  0  0  0  0  0  0  0  0
   27.3777   71.9800   -3.3537 C   0  0  2  0  0  0  0  0  0  0  0  0
   28.5450   69.9357   -4.2283 C   0  0  1  0  0  0  0  0  0  0  0  0
   26.0517   71.2513   -3.5763 C   0  0  1  0  0  0  0  0  0  0  0  0
   27.1669   69.2891   -4.3332 C   0  0  1  0  0  0  0  0  0  0  0  0
   29.6886   72.9677   -3.9779 H   0  0  0  0  0  0  0  0  0  0  0  0
   28.0138   73.8447   -3.4018 H   0  0  0  0  0  0  0  0  0  0  0  0
   30.2348   69.8642   -5.2469 H   0  0  0  0  0  0  0  0  0  0  0  0
   26.1033   67.5008   -3.2503 O   0  0  0  0  0  0  0  0  0  0  0  0
   28.1462   67.0896   -4.1758 O   0  0  0  0  0  0  0  0  0  0  0  0
   27.2233   67.8516   -3.9296 C   0  0  0  0  0  0  0  0  0  0  0  0
  1  4  1  0
  1 24  1  0
  1  2  1  1
  1  3  2  0
 25 28  1  0
 25 24  1  0
 25 26  1  1
 25 27  2  0
  6 11  1  0
  6 12  1  0
 29 36  1  0
 29 37  1  0
  9  7  1  6
  7 13  1  0
 10  8  1  6
  8 14  1  0
  4  5  1  0
 36 28  1  6
 33 30  1  1
 30 38  1  0
 34 31  1  6
 31 39  1  0
 35 32  1  6
 32 40  1  0
 41 43  1  0
 15 19  2  0
 42 43  2  0
 16 22  2  0
 12 17  1  1
 17 19  1  0
 17 20  1  0
 18 19  1  0
 18 22  1  0
 18 23  1  0
  9 10  1  0
  9 11  1  0
 10 12  1  0
 11  5  1  1
 33 34  1  0
 33 35  1  0
 34 36  1  0
 35 37  1  0
 37 43  1  1
 20 21  2  0
 21 22  1  0
M  CHG  3   2  -1  26  -1  41  -1
M  END
>  <COMPND>  (174) 
    udp_gluA.pdb 

>  <AUTHOR>  (174) 
    GENERATED BY OPEN BABEL 3.1.1

>  <MASTER>  (174) 
        0    0    0    0    0    0    0    0   56    0   56    0

>  <minimizedAffinity>  (174) 
-6.64657

>  <CNNscore>  (174) 
0.4010257721

>  <CNNaffinity>  (174) 
4.2304177284

>  <CNN_VS>  (174) 
1.6965065002

>  <CNNaffinity_variance>  (174) 
0.1222121119

$$$$
175
     RDKit          3D

 43 45  0  0  0  0  0  0  0  0999 V2000
   30.8339   70.4126   -0.3299 P   0  0  2  0  0  0  0  0  0  0  0  0
   32.4511   70.4180   -0.3903 O   0  0  0  0  0  0  0  0  0  0  0  0
   30.2332   69.2874    0.4607 O   0  0  0  0  0  0  0  0  0  0  0  0
   30.3869   70.4973   -1.8826 O   0  0  0  0  0  0  0  0  0  0  0  0
   31.2728   70.0014   -2.8693 C   0  0  0  0  0  0  0  0  0  0  0  0
   29.5344   68.3415   -2.8455 O   0  0  0  0  0  0  0  0  0  0  0  0
   31.2797   66.7555   -4.6975 O   0  0  0  0  0  0  0  0  0  0  0  0
   29.4544   67.8580   -6.3971 O   0  0  0  0  0  0  0  0  0  0  0  0
   31.0892   68.1686   -4.6242 C   0  0  1  0  0  0  0  0  0  0  0  0
   29.7395   68.5458   -5.1971 C   0  0  2  0  0  0  0  0  0  0  0  0
   30.9295   68.5456   -3.1577 C   0  0  1  0  0  0  0  0  0  0  0  0
   28.7991   68.1639   -4.0666 C   0  0  2  0  0  0  0  0  0  0  0  0
   31.3842   66.4906   -5.6252 H   0  0  0  0  0  0  0  0  0  0  0  0
   30.0798   68.1358   -7.0854 H   0  0  0  0  0  0  0  0  0  0  0  0
   26.2374   67.2562   -3.2984 O   0  0  0  0  0  0  0  0  0  0  0  0
   24.3651   71.4159   -3.9584 O   0  0  0  0  0  0  0  0  0  0  0  0
   27.6246   68.9885   -4.0286 N   0  0  0  0  0  0  0  0  0  0  0  0
   25.3072   69.3286   -3.6288 N   0  0  0  0  0  0  0  0  0  0  0  0
   26.3858   68.4344   -3.6281 C   0  0  0  0  0  0  0  0  0  0  0  0
   27.7069   70.3295   -4.3835 C   0  0  0  0  0  0  0  0  0  0  0  0
   26.6700   71.1695   -4.3791 C   0  0  0  0  0  0  0  0  0  0  0  0
   25.3396   70.6700   -3.9741 C   0  0  0  0  0  0  0  0  0  0  0  0
   24.4338   68.9653   -3.3556 H   0  0  0  0  0  0  0  0  0  0  0  0
   30.4867   71.8889    0.2293 O   0  0  0  0  0  0  0  0  0  0  0  0
   29.0678   72.6099    0.5129 P   0  0  2  0  0  0  0  0  0  0  0  0
   27.9908   71.5430   -0.0546 O   0  0  0  0  0  0  0  0  0  0  0  0
   28.9467   73.9847   -0.0780 O   0  0  0  0  0  0  0  0  0  0  0  0
   28.8924   72.5521    2.1155 O   0  0  0  0  0  0  0  0  0  0  0  0
   29.7778   70.7915    3.4291 O   0  0  0  0  0  0  0  0  0  0  0  0
   26.8410   72.2988    5.9133 O   0  0  0  0  0  0  0  0  0  0  0  0
   26.3387   71.9740    3.0538 O   0  0  0  0  0  0  0  0  0  0  0  0
   29.6393   72.8861    6.4384 O   0  0  0  0  0  0  0  0  0  0  0  0
   27.8543   72.3559    4.9093 C   0  0  2  0  0  0  0  0  0  0  0  0
   27.4687   71.4487    3.7407 C   0  0  2  0  0  0  0  0  0  0  0  0
   29.1687   71.8860    5.5368 C   0  0  1  0  0  0  0  0  0  0  0  0
   28.6284   71.3043    2.7543 C   0  0  1  0  0  0  0  0  0  0  0  0
   30.2378   71.6444    4.4750 C   0  0  1  0  0  0  0  0  0  0  0  0
   25.9963   72.5930    5.5375 H   0  0  0  0  0  0  0  0  0  0  0  0
   25.5991   72.0684    3.6738 H   0  0  0  0  0  0  0  0  0  0  0  0
   28.9679   73.0494    7.1192 H   0  0  0  0  0  0  0  0  0  0  0  0
   32.1084   70.2917    4.0599 O   0  0  0  0  0  0  0  0  0  0  0  0
   31.6569   70.8032    6.2356 O   0  0  0  0  0  0  0  0  0  0  0  0
   31.3900   70.8838    5.0460 C   0  0  0  0  0  0  0  0  0  0  0  0
  1  4  1  0
  1 24  1  0
  1  2  1  6
  1  3  2  0
 25 28  1  0
 25 24  1  0
 25 26  1  6
 25 27  2  0
  6 11  1  0
  6 12  1  0
 29 36  1  0
 29 37  1  0
  9  7  1  1
  7 13  1  0
 10  8  1  6
  8 14  1  0
  4  5  1  0
 36 28  1  1
 33 30  1  1
 30 38  1  0
 34 31  1  6
 31 39  1  0
 35 32  1  1
 32 40  1  0
 41 43  1  0
 15 19  2  0
 42 43  2  0
 16 22  2  0
 12 17  1  1
 17 19  1  0
 17 20  1  0
 18 19  1  0
 18 22  1  0
 18 23  1  0
  9 10  1  0
  9 11  1  0
 10 12  1  0
 11  5  1  6
 33 34  1  0
 33 35  1  0
 34 36  1  0
 35 37  1  0
 37 43  1  1
 20 21  2  0
 21 22  1  0
M  CHG  3   2  -1  26  -1  41  -1
M  END
>  <COMPND>  (175) 
    udp_gluA.pdb 

>  <AUTHOR>  (175) 
    GENERATED BY OPEN BABEL 3.1.1

>  <MASTER>  (175) 
        0    0    0    0    0    0    0    0   56    0   56    0

>  <minimizedAffinity>  (175) 
-6.70844

>  <CNNscore>  (175) 
0.3655939400

>  <CNNaffinity>  (175) 
4.1007866859

>  <CNN_VS>  (175) 
1.4992227554

>  <CNNaffinity_variance>  (175) 
0.1692318171

$$$$
176
     RDKit          3D

 43 45  0  0  0  0  0  0  0  0999 V2000
   27.5623   73.0423   -2.6909 P   0  0  2  0  0  0  0  0  0  0  0  0
   26.8224   72.0618   -3.7444 O   0  0  0  0  0  0  0  0  0  0  0  0
   27.1137   74.4736   -2.7348 O   0  0  0  0  0  0  0  0  0  0  0  0
   29.1368   72.7908   -2.9658 O   0  0  0  0  0  0  0  0  0  0  0  0
   29.5257   71.6033   -3.6316 C   0  0  0  0  0  0  0  0  0  0  0  0
   28.7325   69.4567   -2.8963 O   0  0  0  0  0  0  0  0  0  0  0  0
   31.3163   69.2246   -1.3925 O   0  0  0  0  0  0  0  0  0  0  0  0
   31.7729   67.6924   -3.6015 O   0  0  0  0  0  0  0  0  0  0  0  0
   31.0616   69.8205   -2.6648 C   0  0  1  0  0  0  0  0  0  0  0  0
   30.8415   68.7484   -3.7110 C   0  0  2  0  0  0  0  0  0  0  0  0
   29.6963   70.4917   -2.6043 C   0  0  1  0  0  0  0  0  0  0  0  0
   29.4186   68.3063   -3.4150 C   0  0  2  0  0  0  0  0  0  0  0  0
   32.1835   68.7894   -1.4067 H   0  0  0  0  0  0  0  0  0  0  0  0
   32.6631   68.0246   -3.7995 H   0  0  0  0  0  0  0  0  0  0  0  0
   26.7839   67.2891   -3.4261 O   0  0  0  0  0  0  0  0  0  0  0  0
   26.8897   66.5599   -7.9760 O   0  0  0  0  0  0  0  0  0  0  0  0
   28.7332   67.8436   -4.5885 N   0  0  0  0  0  0  0  0  0  0  0  0
   26.8395   66.9259   -5.6920 N   0  0  0  0  0  0  0  0  0  0  0  0
   27.4107   67.3512   -4.4854 C   0  0  0  0  0  0  0  0  0  0  0  0
   29.3692   67.8817   -5.8234 C   0  0  0  0  0  0  0  0  0  0  0  0
   28.8117   67.4730   -6.9649 C   0  0  0  0  0  0  0  0  0  0  0  0
   27.4323   66.9437   -6.9442 C   0  0  0  0  0  0  0  0  0  0  0  0
   25.9200   66.5772   -5.6452 H   0  0  0  0  0  0  0  0  0  0  0  0
   27.3182   72.3033   -1.2742 O   0  0  0  0  0  0  0  0  0  0  0  0
   27.8601   72.6472    0.2096 P   0  0  2  0  0  0  0  0  0  0  0  0
   27.2490   71.4510    1.1130 O   0  0  0  0  0  0  0  0  0  0  0  0
   27.5090   74.0258    0.6893 O   0  0  0  0  0  0  0  0  0  0  0  0
   29.4432   72.3428    0.1480 O   0  0  0  0  0  0  0  0  0  0  0  0
   30.9063   72.7106    1.9736 O   0  0  0  0  0  0  0  0  0  0  0  0
   33.5208   72.7713   -1.2246 O   0  0  0  0  0  0  0  0  0  0  0  0
   30.9295   74.1080   -1.4047 O   0  0  0  0  0  0  0  0  0  0  0  0
   33.3952   70.4444    0.5134 O   0  0  0  0  0  0  0  0  0  0  0  0
   32.3591   72.3698   -0.4986 C   0  0  2  0  0  0  0  0  0  0  0  0
   31.4919   73.5939   -0.2031 C   0  0  2  0  0  0  0  0  0  0  0  0
   32.8193   71.7161    0.8063 C   0  0  1  0  0  0  0  0  0  0  0  0
   30.3617   73.2427    0.7654 C   0  0  1  0  0  0  0  0  0  0  0  0
   31.6532   71.5133    1.7693 C   0  0  1  0  0  0  0  0  0  0  0  0
   33.2530   73.1896   -2.0580 H   0  0  0  0  0  0  0  0  0  0  0  0
   31.6410   74.3327   -2.0240 H   0  0  0  0  0  0  0  0  0  0  0  0
   34.1387   70.5594   -0.0989 H   0  0  0  0  0  0  0  0  0  0  0  0
   32.8851   72.2125    3.6388 O   0  0  0  0  0  0  0  0  0  0  0  0
   31.9232   70.1476    3.7400 O   0  0  0  0  0  0  0  0  0  0  0  0
   32.1484   71.1886    3.1411 C   0  0  0  0  0  0  0  0  0  0  0  0
  1  4  1  0
  1 24  1  0
  1  2  1  6
  1  3  2  0
 25 28  1  0
 25 24  1  0
 25 26  1  1
 25 27  2  0
  6 11  1  0
  6 12  1  0
 29 36  1  0
 29 37  1  0
  9  7  1  1
  7 13  1  0
 10  8  1  1
  8 14  1  0
  4  5  1  0
 36 28  1  6
 33 30  1  1
 30 38  1  0
 34 31  1  6
 31 39  1  0
 35 32  1  6
 32 40  1  0
 41 43  1  0
 15 19  2  0
 42 43  2  0
 16 22  2  0
 12 17  1  6
 17 19  1  0
 17 20  1  0
 18 19  1  0
 18 22  1  0
 18 23  1  0
  9 10  1  0
  9 11  1  0
 10 12  1  0
 11  5  1  6
 33 34  1  0
 33 35  1  0
 34 36  1  0
 35 37  1  0
 37 43  1  1
 20 21  2  0
 21 22  1  0
M  CHG  3   2  -1  26  -1  41  -1
M  END
>  <COMPND>  (176) 
    udp_gluA.pdb 

>  <AUTHOR>  (176) 
    GENERATED BY OPEN BABEL 3.1.1

>  <MASTER>  (176) 
        0    0    0    0    0    0    0    0   56    0   56    0

>  <minimizedAffinity>  (176) 
-7.32823

>  <CNNscore>  (176) 
0.3642230332

>  <CNNaffinity>  (176) 
4.1826663017

>  <CNN_VS>  (176) 
1.5234234333

>  <CNNaffinity_variance>  (176) 
0.1226550117

$$$$
177
     RDKit          3D

 43 45  0  0  0  0  0  0  0  0999 V2000
   31.0167   70.7221    0.0193 P   0  0  2  0  0  0  0  0  0  0  0  0
   32.4829   71.3881   -0.1400 O   0  0  0  0  0  0  0  0  0  0  0  0
   29.8671   71.6540   -0.2296 O   0  0  0  0  0  0  0  0  0  0  0  0
   31.0593   70.0342    1.4831 O   0  0  0  0  0  0  0  0  0  0  0  0
   30.5790   70.7727    2.5915 C   0  0  0  0  0  0  0  0  0  0  0  0
   31.9416   72.4440    3.6534 O   0  0  0  0  0  0  0  0  0  0  0  0
   32.6820   70.3164    5.6324 O   0  0  0  0  0  0  0  0  0  0  0  0
   30.8084   71.7631    6.9861 O   0  0  0  0  0  0  0  0  0  0  0  0
   31.4347   70.5458    4.9766 C   0  0  1  0  0  0  0  0  0  0  0  0
   30.7417   71.7514    5.5754 C   0  0  2  0  0  0  0  0  0  0  0  0
   31.7290   71.0188    3.5596 C   0  0  1  0  0  0  0  0  0  0  0  0
   31.5077   72.9014    4.9442 C   0  0  2  0  0  0  0  0  0  0  0  0
   32.5196   70.0133    6.5398 H   0  0  0  0  0  0  0  0  0  0  0  0
   30.3055   71.0122    7.3398 H   0  0  0  0  0  0  0  0  0  0  0  0
   32.4620   75.5493    5.1781 O   0  0  0  0  0  0  0  0  0  0  0  0
   28.3036   77.3214    4.2772 O   0  0  0  0  0  0  0  0  0  0  0  0
   30.6960   74.0734    4.7756 N   0  0  0  0  0  0  0  0  0  0  0  0
   30.3897   76.4294    4.7302 N   0  0  0  0  0  0  0  0  0  0  0  0
   31.2733   75.3578    4.9145 C   0  0  0  0  0  0  0  0  0  0  0  0
   29.3455   73.9445    4.4749 C   0  0  0  0  0  0  0  0  0  0  0  0
   28.5159   74.9753    4.3019 C   0  0  0  0  0  0  0  0  0  0  0  0
   29.0393   76.3511    4.4306 C   0  0  0  0  0  0  0  0  0  0  0  0
   30.7682   77.3334    4.8239 H   0  0  0  0  0  0  0  0  0  0  0  0
   31.0837   69.4536   -0.9804 O   0  0  0  0  0  0  0  0  0  0  0  0
   30.8839   69.3522   -2.5815 P   0  0  2  0  0  0  0  0  0  0  0  0
   31.3108   67.8261   -2.9116 O   0  0  0  0  0  0  0  0  0  0  0  0
   31.6386   70.3883   -3.3631 O   0  0  0  0  0  0  0  0  0  0  0  0
   29.2855   69.3836   -2.7972 O   0  0  0  0  0  0  0  0  0  0  0  0
   29.0096   69.3510   -5.1492 O   0  0  0  0  0  0  0  0  0  0  0  0
   25.0998   69.0894   -3.8405 O   0  0  0  0  0  0  0  0  0  0  0  0
   26.9767   70.9137   -2.5430 O   0  0  0  0  0  0  0  0  0  0  0  0
   26.4534   66.7333   -4.8737 O   0  0  0  0  0  0  0  0  0  0  0  0
   26.5107   68.8799   -3.7811 C   0  0  2  0  0  0  0  0  0  0  0  0
   27.2282   70.2299   -3.7653 C   0  0  2  0  0  0  0  0  0  0  0  0
   26.9214   68.0733   -5.0150 C   0  0  1  0  0  0  0  0  0  0  0  0
   28.7375   70.0493   -3.9336 C   0  0  1  0  0  0  0  0  0  0  0  0
   28.4378   68.0453   -5.1829 C   0  0  1  0  0  0  0  0  0  0  0  0
   24.8157   69.6002   -3.0661 H   0  0  0  0  0  0  0  0  0  0  0  0
   26.0209   71.0315   -2.4297 H   0  0  0  0  0  0  0  0  0  0  0  0
   25.4895   66.7371   -4.7659 H   0  0  0  0  0  0  0  0  0  0  0  0
   27.7061   67.3595   -7.3032 O   0  0  0  0  0  0  0  0  0  0  0  0
   29.9544   67.3449   -6.9238 O   0  0  0  0  0  0  0  0  0  0  0  0
   28.8120   67.5501   -6.5419 C   0  0  0  0  0  0  0  0  0  0  0  0
  1  4  1  0
  1 24  1  0
  1  2  1  6
  1  3  2  0
 25 28  1  0
 25 24  1  0
 25 26  1  6
 25 27  2  0
  6 11  1  0
  6 12  1  0
 29 36  1  0
 29 37  1  0
  9  7  1  1
  7 13  1  0
 10  8  1  1
  8 14  1  0
  4  5  1  0
 36 28  1  1
 33 30  1  6
 30 38  1  0
 34 31  1  1
 31 39  1  0
 35 32  1  1
 32 40  1  0
 41 43  1  0
 15 19  2  0
 42 43  2  0
 16 22  2  0
 12 17  1  6
 17 19  1  0
 17 20  1  0
 18 19  1  0
 18 22  1  0
 18 23  1  0
  9 10  1  0
  9 11  1  0
 10 12  1  0
 11  5  1  6
 33 34  1  0
 33 35  1  0
 34 36  1  0
 35 37  1  0
 37 43  1  6
 20 21  2  0
 21 22  1  0
M  CHG  3   2  -1  26  -1  41  -1
M  END
>  <COMPND>  (177) 
    udp_gluA.pdb 

>  <AUTHOR>  (177) 
    GENERATED BY OPEN BABEL 3.1.1

>  <MASTER>  (177) 
        0    0    0    0    0    0    0    0   56    0   56    0

>  <minimizedAffinity>  (177) 
-6.63402

>  <CNNscore>  (177) 
0.3598738611

>  <CNNaffinity>  (177) 
4.1153211594

>  <CNN_VS>  (177) 
1.4809964895

>  <CNNaffinity_variance>  (177) 
0.1282106042

$$$$
178
     RDKit          3D

 43 45  0  0  0  0  0  0  0  0999 V2000
   30.0868   71.2948    0.1457 P   0  0  2  0  0  0  0  0  0  0  0  0
   30.9942   72.5855   -0.2139 O   0  0  0  0  0  0  0  0  0  0  0  0
   28.6117   71.4805   -0.0582 O   0  0  0  0  0  0  0  0  0  0  0  0
   30.5447   70.9042    1.6476 O   0  0  0  0  0  0  0  0  0  0  0  0
   29.5975   71.0162    2.6940 C   0  0  0  0  0  0  0  0  0  0  0  0
   28.5358   73.0610    3.3791 O   0  0  0  0  0  0  0  0  0  0  0  0
   30.8357   73.4030    5.2725 O   0  0  0  0  0  0  0  0  0  0  0  0
   28.8579   72.4677    6.9002 O   0  0  0  0  0  0  0  0  0  0  0  0
   30.1679   72.2074    4.8684 C   0  0  1  0  0  0  0  0  0  0  0  0
   28.8110   72.1145    5.5336 C   0  0  2  0  0  0  0  0  0  0  0  0
   29.7936   72.3519    3.3997 C   0  0  1  0  0  0  0  0  0  0  0  0
   27.9871   73.0865    4.7063 C   0  0  2  0  0  0  0  0  0  0  0  0
   31.0848   73.3343    6.2078 H   0  0  0  0  0  0  0  0  0  0  0  0
   29.3935   71.8186    7.3837 H   0  0  0  0  0  0  0  0  0  0  0  0
   27.0525   70.4277    4.5223 O   0  0  0  0  0  0  0  0  0  0  0  0
   22.6481   71.7857    4.4806 O   0  0  0  0  0  0  0  0  0  0  0  0
   26.6013   72.7167    4.6459 N   0  0  0  0  0  0  0  0  0  0  0  0
   24.8598   71.1067    4.5007 N   0  0  0  0  0  0  0  0  0  0  0  0
   26.2381   71.3522    4.5545 C   0  0  0  0  0  0  0  0  0  0  0  0
   25.6192   73.6993    4.6789 C   0  0  0  0  0  0  0  0  0  0  0  0
   24.3093   73.4497    4.6269 C   0  0  0  0  0  0  0  0  0  0  0  0
   23.8456   72.0501    4.5298 C   0  0  0  0  0  0  0  0  0  0  0  0
   24.5826   70.1642    4.4348 H   0  0  0  0  0  0  0  0  0  0  0  0
   30.7485   70.1245   -0.7518 O   0  0  0  0  0  0  0  0  0  0  0  0
   30.6973   69.8509   -2.3443 P   0  0  2  0  0  0  0  0  0  0  0  0
   31.3363   68.3704   -2.4859 O   0  0  0  0  0  0  0  0  0  0  0  0
   31.3804   70.9010   -3.1718 O   0  0  0  0  0  0  0  0  0  0  0  0
   29.1311   69.6518   -2.6753 O   0  0  0  0  0  0  0  0  0  0  0  0
   28.8900   69.5857   -5.0305 O   0  0  0  0  0  0  0  0  0  0  0  0
   24.9812   69.1319   -3.7723 O   0  0  0  0  0  0  0  0  0  0  0  0
   26.7427   71.0619   -2.4660 O   0  0  0  0  0  0  0  0  0  0  0  0
   26.4695   66.8410   -4.7661 O   0  0  0  0  0  0  0  0  0  0  0  0
   26.4001   68.9966   -3.6920 C   0  0  2  0  0  0  0  0  0  0  0  0
   27.0463   70.3821   -3.6786 C   0  0  2  0  0  0  0  0  0  0  0  0
   26.8692   68.2022   -4.9131 C   0  0  1  0  0  0  0  0  0  0  0  0
   28.5651   70.2788   -3.8248 C   0  0  1  0  0  0  0  0  0  0  0  0
   28.3873   68.2517   -5.0602 C   0  0  1  0  0  0  0  0  0  0  0  0
   24.6602   69.6336   -3.0065 H   0  0  0  0  0  0  0  0  0  0  0  0
   25.7806   71.1307   -2.3666 H   0  0  0  0  0  0  0  0  0  0  0  0
   25.5053   66.7955   -4.6713 H   0  0  0  0  0  0  0  0  0  0  0  0
   27.7218   67.4632   -7.1666 O   0  0  0  0  0  0  0  0  0  0  0  0
   29.9621   67.6549   -6.7879 O   0  0  0  0  0  0  0  0  0  0  0  0
   28.8055   67.7655   -6.4096 C   0  0  0  0  0  0  0  0  0  0  0  0
  1  4  1  0
  1 24  1  0
  1  2  1  6
  1  3  2  0
 25 28  1  0
 25 24  1  0
 25 26  1  1
 25 27  2  0
  6 11  1  0
  6 12  1  0
 29 36  1  0
 29 37  1  0
  9  7  1  1
  7 13  1  0
 10  8  1  1
  8 14  1  0
  4  5  1  0
 36 28  1  1
 33 30  1  6
 30 38  1  0
 34 31  1  1
 31 39  1  0
 35 32  1  1
 32 40  1  0
 41 43  1  0
 15 19  2  0
 42 43  2  0
 16 22  2  0
 12 17  1  6
 17 19  1  0
 17 20  1  0
 18 19  1  0
 18 22  1  0
 18 23  1  0
  9 10  1  0
  9 11  1  0
 10 12  1  0
 11  5  1  1
 33 34  1  0
 33 35  1  0
 34 36  1  0
 35 37  1  0
 37 43  1  6
 20 21  2  0
 21 22  1  0
M  CHG  3   2  -1  26  -1  41  -1
M  END
>  <COMPND>  (178) 
    udp_gluA.pdb 

>  <AUTHOR>  (178) 
    GENERATED BY OPEN BABEL 3.1.1

>  <MASTER>  (178) 
        0    0    0    0    0    0    0    0   56    0   56    0

>  <minimizedAffinity>  (178) 
-7.06811

>  <CNNscore>  (178) 
0.3176662028

>  <CNNaffinity>  (178) 
3.9136860371

>  <CNN_VS>  (178) 
1.2432458401

>  <CNNaffinity_variance>  (178) 
0.1358258426

$$$$
179
     RDKit          3D

 43 45  0  0  0  0  0  0  0  0999 V2000
   31.5358   71.1083    0.5017 P   0  0  2  0  0  0  0  0  0  0  0  0
   32.7943   70.0992    0.6310 O   0  0  0  0  0  0  0  0  0  0  0  0
   31.8816   72.4985    0.0549 O   0  0  0  0  0  0  0  0  0  0  0  0
   30.7978   70.9948    1.9371 O   0  0  0  0  0  0  0  0  0  0  0  0
   30.6677   72.1640    2.7248 C   0  0  0  0  0  0  0  0  0  0  0  0
   31.0025   72.8221    5.0123 O   0  0  0  0  0  0  0  0  0  0  0  0
   32.9265   70.5295    5.1955 O   0  0  0  0  0  0  0  0  0  0  0  0
   30.6866   69.5239    6.3821 O   0  0  0  0  0  0  0  0  0  0  0  0
   31.7022   70.6257    4.4672 C   0  0  1  0  0  0  0  0  0  0  0  0
   30.5221   70.5366    5.4116 C   0  0  2  0  0  0  0  0  0  0  0  0
   31.5806   72.0484    3.9387 C   0  0  1  0  0  0  0  0  0  0  0  0
   30.4977   71.9293    6.0180 C   0  0  2  0  0  0  0  0  0  0  0  0
   33.0264   69.6290    5.5431 H   0  0  0  0  0  0  0  0  0  0  0  0
   30.6956   68.6568    5.9462 H   0  0  0  0  0  0  0  0  0  0  0  0
   29.7563   72.7785    8.6075 O   0  0  0  0  0  0  0  0  0  0  0  0
   25.3885   73.4934    7.3210 O   0  0  0  0  0  0  0  0  0  0  0  0
   29.1735   72.3429    6.3874 N   0  0  0  0  0  0  0  0  0  0  0  0
   27.5814   73.1328    7.9646 N   0  0  0  0  0  0  0  0  0  0  0  0
   28.9063   72.7511    7.7156 C   0  0  0  0  0  0  0  0  0  0  0  0
   28.1573   72.3432    5.4396 C   0  0  0  0  0  0  0  0  0  0  0  0
   26.8992   72.7098    5.6920 C   0  0  0  0  0  0  0  0  0  0  0  0
   26.5362   73.1492    7.0553 C   0  0  0  0  0  0  0  0  0  0  0  0
   27.3707   73.4190    8.8827 H   0  0  0  0  0  0  0  0  0  0  0  0
   30.5333   70.3134   -0.4862 O   0  0  0  0  0  0  0  0  0  0  0  0
   30.5676   70.1035   -2.0889 P   0  0  2  0  0  0  0  0  0  0  0  0
   31.2698   68.6548   -2.2573 O   0  0  0  0  0  0  0  0  0  0  0  0
   31.2472   71.2113   -2.8406 O   0  0  0  0  0  0  0  0  0  0  0  0
   29.0275   69.8601   -2.5028 O   0  0  0  0  0  0  0  0  0  0  0  0
   28.9250   69.7942   -4.8680 O   0  0  0  0  0  0  0  0  0  0  0  0
   24.9692   69.1953   -3.8381 O   0  0  0  0  0  0  0  0  0  0  0  0
   26.5817   71.1825   -2.4291 O   0  0  0  0  0  0  0  0  0  0  0  0
   26.5941   66.9632   -4.7483 O   0  0  0  0  0  0  0  0  0  0  0  0
   26.3851   69.1108   -3.6764 C   0  0  2  0  0  0  0  0  0  0  0  0
   26.9790   70.5187   -3.6234 C   0  0  2  0  0  0  0  0  0  0  0  0
   26.9521   68.3385   -4.8697 C   0  0  1  0  0  0  0  0  0  0  0  0
   28.5064   70.4706   -3.6820 C   0  0  1  0  0  0  0  0  0  0  0  0
   28.4733   68.4431   -4.9290 C   0  0  1  0  0  0  0  0  0  0  0  0
   24.5867   69.6823   -3.0912 H   0  0  0  0  0  0  0  0  0  0  0  0
   25.6136   71.2163   -2.3852 H   0  0  0  0  0  0  0  0  0  0  0  0
   25.6282   66.8827   -4.7094 H   0  0  0  0  0  0  0  0  0  0  0  0
   27.9587   67.7162   -7.0988 O   0  0  0  0  0  0  0  0  0  0  0  0
   30.1660   67.8492   -6.5425 O   0  0  0  0  0  0  0  0  0  0  0  0
   28.9859   67.9774   -6.2528 C   0  0  0  0  0  0  0  0  0  0  0  0
  1  4  1  0
  1 24  1  0
  1  2  1  1
  1  3  2  0
 25 28  1  0
 25 24  1  0
 25 26  1  1
 25 27  2  0
  6 11  1  0
  6 12  1  0
 29 36  1  0
 29 37  1  0
  9  7  1  1
  7 13  1  0
 10  8  1  1
  8 14  1  0
  4  5  1  0
 36 28  1  1
 33 30  1  6
 30 38  1  0
 34 31  1  1
 31 39  1  0
 35 32  1  1
 32 40  1  0
 41 43  1  0
 15 19  2  0
 42 43  2  0
 16 22  2  0
 12 17  1  6
 17 19  1  0
 17 20  1  0
 18 19  1  0
 18 22  1  0
 18 23  1  0
  9 10  1  0
  9 11  1  0
 10 12  1  0
 11  5  1  6
 33 34  1  0
 33 35  1  0
 34 36  1  0
 35 37  1  0
 37 43  1  6
 20 21  2  0
 21 22  1  0
M  CHG  3   2  -1  26  -1  41  -1
M  END
>  <COMPND>  (179) 
    udp_gluA.pdb 

>  <AUTHOR>  (179) 
    GENERATED BY OPEN BABEL 3.1.1

>  <MASTER>  (179) 
        0    0    0    0    0    0    0    0   56    0   56    0

>  <minimizedAffinity>  (179) 
-7.34793

>  <CNNscore>  (179) 
0.3002885878

>  <CNNaffinity>  (179) 
3.7342967987

>  <CNN_VS>  (179) 
1.1213667393

>  <CNNaffinity_variance>  (179) 
0.2550584078

$$$$
180
     RDKit          3D

 43 45  0  0  0  0  0  0  0  0999 V2000
   27.2986   72.2716   -1.5396 P   0  0  2  0  0  0  0  0  0  0  0  0
   26.8086   73.6899   -2.1457 O   0  0  0  0  0  0  0  0  0  0  0  0
   26.3613   71.6492   -0.5467 O   0  0  0  0  0  0  0  0  0  0  0  0
   28.7934   72.5754   -0.9999 O   0  0  0  0  0  0  0  0  0  0  0  0
   29.3316   71.7387    0.0074 C   0  0  0  0  0  0  0  0  0  0  0  0
   31.2981   72.4184    1.2111 O   0  0  0  0  0  0  0  0  0  0  0  0
   32.8337   70.6713   -0.6813 O   0  0  0  0  0  0  0  0  0  0  0  0
   32.6628   69.1209    1.5555 O   0  0  0  0  0  0  0  0  0  0  0  0
   31.5354   70.4741   -0.1209 C   0  0  1  0  0  0  0  0  0  0  0  0
   31.6480   70.0784    1.3362 C   0  0  2  0  0  0  0  0  0  0  0  0
   30.8516   71.8315   -0.0305 C   0  0  1  0  0  0  0  0  0  0  0  0
   31.9471   71.4105    2.0025 C   0  0  2  0  0  0  0  0  0  0  0  0
   33.2901   69.8177   -0.7489 H   0  0  0  0  0  0  0  0  0  0  0  0
   32.4256   68.2910    1.1117 H   0  0  0  0  0  0  0  0  0  0  0  0
   33.5634   71.7382    4.2953 O   0  0  0  0  0  0  0  0  0  0  0  0
   29.9117   71.6494    7.1062 O   0  0  0  0  0  0  0  0  0  0  0  0
   31.4448   71.4763    3.3458 N   0  0  0  0  0  0  0  0  0  0  0  0
   31.7432   71.6926    5.6932 N   0  0  0  0  0  0  0  0  0  0  0  0
   32.3418   71.6424    4.4274 C   0  0  0  0  0  0  0  0  0  0  0  0
   30.0788   71.3784    3.5810 C   0  0  0  0  0  0  0  0  0  0  0  0
   29.5230   71.4281    4.7932 C   0  0  0  0  0  0  0  0  0  0  0  0
   30.3904   71.5992    5.9772 C   0  0  0  0  0  0  0  0  0  0  0  0
   32.3477   71.8058    6.4620 H   0  0  0  0  0  0  0  0  0  0  0  0
   27.5639   71.3833   -2.8638 O   0  0  0  0  0  0  0  0  0  0  0  0
   26.5352   70.6850   -3.8971 P   0  0  2  0  0  0  0  0  0  0  0  0
   26.2867   71.8369   -5.0068 O   0  0  0  0  0  0  0  0  0  0  0  0
   25.2817   70.1609   -3.2584 O   0  0  0  0  0  0  0  0  0  0  0  0
   27.4155   69.5685   -4.6592 O   0  0  0  0  0  0  0  0  0  0  0  0
   26.8535   67.3183   -5.1390 O   0  0  0  0  0  0  0  0  0  0  0  0
   30.9605   67.0947   -4.7512 O   0  0  0  0  0  0  0  0  0  0  0  0
   29.3831   68.7051   -2.8931 O   0  0  0  0  0  0  0  0  0  0  0  0
   29.7372   67.0142   -7.3871 O   0  0  0  0  0  0  0  0  0  0  0  0
   29.7141   67.7081   -5.0800 C   0  0  2  0  0  0  0  0  0  0  0  0
   28.8362   67.7850   -3.8306 C   0  0  2  0  0  0  0  0  0  0  0  0
   29.0364   66.8555   -6.1550 C   0  0  1  0  0  0  0  0  0  0  0  0
   27.4148   68.2225   -4.1868 C   0  0  1  0  0  0  0  0  0  0  0  0
   27.5834   67.2728   -6.3631 C   0  0  1  0  0  0  0  0  0  0  0  0
   31.4094   67.6192   -4.0695 H   0  0  0  0  0  0  0  0  0  0  0  0
   30.2851   68.4338   -2.6628 H   0  0  0  0  0  0  0  0  0  0  0  0
   30.6635   66.7521   -7.2683 H   0  0  0  0  0  0  0  0  0  0  0  0
   26.8059   66.5884   -8.4675 O   0  0  0  0  0  0  0  0  0  0  0  0
   26.3434   65.2300   -6.6955 O   0  0  0  0  0  0  0  0  0  0  0  0
   26.8446   66.2446   -7.1563 C   0  0  0  0  0  0  0  0  0  0  0  0
  1  4  1  0
  1 24  1  0
  1  2  1  6
  1  3  2  0
 25 28  1  0
 25 24  1  0
 25 26  1  6
 25 27  2  0
  6 11  1  0
  6 12  1  0
 29 36  1  0
 29 37  1  0
  9  7  1  1
  7 13  1  0
 10  8  1  6
  8 14  1  0
  4  5  1  0
 36 28  1  6
 33 30  1  1
 30 38  1  0
 34 31  1  1
 31 39  1  0
 35 32  1  6
 32 40  1  0
 41 43  1  0
 15 19  2  0
 42 43  2  0
 16 22  2  0
 12 17  1  1
 17 19  1  0
 17 20  1  0
 18 19  1  0
 18 22  1  0
 18 23  1  0
  9 10  1  0
  9 11  1  0
 10 12  1  0
 11  5  1  1
 33 34  1  0
 33 35  1  0
 34 36  1  0
 35 37  1  0
 37 43  1  6
 20 21  2  0
 21 22  1  0
M  CHG  3   2  -1  26  -1  41  -1
M  END
>  <COMPND>  (180) 
    udp_gluA.pdb 

>  <AUTHOR>  (180) 
    GENERATED BY OPEN BABEL 3.1.1

>  <MASTER>  (180) 
        0    0    0    0    0    0    0    0   56    0   56    0

>  <minimizedAffinity>  (180) 
-7.88420

>  <CNNscore>  (180) 
0.2897823453

>  <CNNaffinity>  (180) 
3.9268660545

>  <CNN_VS>  (180) 
1.1379364729

>  <CNNaffinity_variance>  (180) 
0.1166293025

$$$$
181
     RDKit          3D

 43 45  0  0  0  0  0  0  0  0999 V2000
   27.1332   71.8288   -2.3063 P   0  0  2  0  0  0  0  0  0  0  0  0
   27.3330   71.8505   -0.7006 O   0  0  0  0  0  0  0  0  0  0  0  0
   26.9563   70.4640   -2.9044 O   0  0  0  0  0  0  0  0  0  0  0  0
   28.3879   72.6838   -2.8655 O   0  0  0  0  0  0  0  0  0  0  0  0
   29.3199   73.2040   -1.9353 C   0  0  0  0  0  0  0  0  0  0  0  0
   31.4905   72.6775   -1.0473 O   0  0  0  0  0  0  0  0  0  0  0  0
   31.8619   70.9583   -3.4758 O   0  0  0  0  0  0  0  0  0  0  0  0
   31.2312   69.1367   -1.5471 O   0  0  0  0  0  0  0  0  0  0  0  0
   30.6804   71.1991   -2.7113 C   0  0  1  0  0  0  0  0  0  0  0  0
   30.7473   70.4548   -1.3946 C   0  0  2  0  0  0  0  0  0  0  0  0
   30.7027   72.6523   -2.2573 C   0  0  1  0  0  0  0  0  0  0  0  0
   31.6859   71.3321   -0.5837 C   0  0  2  0  0  0  0  0  0  0  0  0
   31.8701   70.0359   -3.7770 H   0  0  0  0  0  0  0  0  0  0  0  0
   30.5985   68.6186   -2.0698 H   0  0  0  0  0  0  0  0  0  0  0  0
   32.9058   69.5287    1.2152 O   0  0  0  0  0  0  0  0  0  0  0  0
   30.5411   71.2146    4.7943 O   0  0  0  0  0  0  0  0  0  0  0  0
   31.4075   71.2781    0.8236 N   0  0  0  0  0  0  0  0  0  0  0  0
   31.7261   70.3694    2.9959 N   0  0  0  0  0  0  0  0  0  0  0  0
   32.0750   70.3342    1.6394 C   0  0  0  0  0  0  0  0  0  0  0  0
   30.4844   72.1538    1.3821 C   0  0  0  0  0  0  0  0  0  0  0  0
   30.1624   72.1755    2.6770 C   0  0  0  0  0  0  0  0  0  0  0  0
   30.8139   71.2210    3.5978 C   0  0  0  0  0  0  0  0  0  0  0  0
   32.1763   69.7202    3.5835 H   0  0  0  0  0  0  0  0  0  0  0  0
   25.8833   72.8291   -2.5300 O   0  0  0  0  0  0  0  0  0  0  0  0
   24.9493   73.0880   -3.8240 P   0  0  2  0  0  0  0  0  0  0  0  0
   25.6599   72.2007   -4.9765 O   0  0  0  0  0  0  0  0  0  0  0  0
   24.7753   74.5366   -4.1779 O   0  0  0  0  0  0  0  0  0  0  0  0
   23.5749   72.3084   -3.4993 O   0  0  0  0  0  0  0  0  0  0  0  0
   22.5370   71.6693   -1.4686 O   0  0  0  0  0  0  0  0  0  0  0  0
   21.6174   68.4766   -3.9240 O   0  0  0  0  0  0  0  0  0  0  0  0
   24.2870   69.6619   -3.9736 O   0  0  0  0  0  0  0  0  0  0  0  0
   19.5887   70.4587   -3.2864 O   0  0  0  0  0  0  0  0  0  0  0  0
   21.8950   69.8411   -3.6097 C   0  0  2  0  0  0  0  0  0  0  0  0
   23.2921   69.9515   -2.9984 C   0  0  2  0  0  0  0  0  0  0  0  0
   20.8382   70.3212   -2.6124 C   0  0  1  0  0  0  0  0  0  0  0  0
   23.5356   71.3541   -2.4398 C   0  0  1  0  0  0  0  0  0  0  0  0
   21.2163   71.6695   -2.0060 C   0  0  1  0  0  0  0  0  0  0  0  0
   22.2765   68.1497   -4.5566 H   0  0  0  0  0  0  0  0  0  0  0  0
   24.1384   68.7734   -4.3325 H   0  0  0  0  0  0  0  0  0  0  0  0
   19.3367   69.6074   -3.6771 H   0  0  0  0  0  0  0  0  0  0  0  0
   19.7671   70.8446   -0.3564 O   0  0  0  0  0  0  0  0  0  0  0  0
   20.2330   73.0762   -0.3102 O   0  0  0  0  0  0  0  0  0  0  0  0
   20.3688   71.9709   -0.8130 C   0  0  0  0  0  0  0  0  0  0  0  0
  1  4  1  0
  1 24  1  0
  1  2  1  1
  1  3  2  0
 25 28  1  0
 25 24  1  0
 25 26  1  6
 25 27  2  0
  6 11  1  0
  6 12  1  0
 29 36  1  0
 29 37  1  0
  9  7  1  6
  7 13  1  0
 10  8  1  6
  8 14  1  0
  4  5  1  0
 36 28  1  6
 33 30  1  1
 30 38  1  0
 34 31  1  6
 31 39  1  0
 35 32  1  6
 32 40  1  0
 41 43  1  0
 15 19  2  0
 42 43  2  0
 16 22  2  0
 12 17  1  1
 17 19  1  0
 17 20  1  0
 18 19  1  0
 18 22  1  0
 18 23  1  0
  9 10  1  0
  9 11  1  0
 10 12  1  0
 11  5  1  1
 33 34  1  0
 33 35  1  0
 34 36  1  0
 35 37  1  0
 37 43  1  1
 20 21  2  0
 21 22  1  0
M  CHG  3   2  -1  26  -1  41  -1
M  END
>  <COMPND>  (181) 
    udp_gluA.pdb 

>  <AUTHOR>  (181) 
    GENERATED BY OPEN BABEL 3.1.1

>  <MASTER>  (181) 
        0    0    0    0    0    0    0    0   56    0   56    0

>  <minimizedAffinity>  (181) 
-6.84186

>  <CNNscore>  (181) 
0.5621203780

>  <CNNaffinity>  (181) 
4.0690550804

>  <CNN_VS>  (181) 
2.2872986794

>  <CNNaffinity_variance>  (181) 
0.0861738771

$$$$
182
     RDKit          3D

 43 45  0  0  0  0  0  0  0  0999 V2000
   24.7367   73.0328   -4.7255 P   0  0  2  0  0  0  0  0  0  0  0  0
   25.4664   73.6341   -6.0388 O   0  0  0  0  0  0  0  0  0  0  0  0
   24.1881   74.0601   -3.7792 O   0  0  0  0  0  0  0  0  0  0  0  0
   25.8323   72.0179   -4.1027 O   0  0  0  0  0  0  0  0  0  0  0  0
   27.1470   72.4946   -3.8822 C   0  0  0  0  0  0  0  0  0  0  0  0
   27.4218   70.2904   -2.9638 O   0  0  0  0  0  0  0  0  0  0  0  0
   29.7935   71.3977   -1.5007 O   0  0  0  0  0  0  0  0  0  0  0  0
   30.9454   70.0793   -3.5914 O   0  0  0  0  0  0  0  0  0  0  0  0
   29.3152   71.7054   -2.8103 C   0  0  1  0  0  0  0  0  0  0  0  0
   29.6338   70.5736   -3.7641 C   0  0  2  0  0  0  0  0  0  0  0  0
   27.7934   71.6729   -2.7743 C   0  0  1  0  0  0  0  0  0  0  0  0
   28.5708   69.5495   -3.4046 C   0  0  2  0  0  0  0  0  0  0  0  0
   30.7638   71.4124   -1.4987 H   0  0  0  0  0  0  0  0  0  0  0  0
   31.5850   70.7680   -3.8334 H   0  0  0  0  0  0  0  0  0  0  0  0
   26.7311   67.4107   -3.2728 O   0  0  0  0  0  0  0  0  0  0  0  0
   27.2149   66.4780   -7.7605 O   0  0  0  0  0  0  0  0  0  0  0  0
   28.1977   68.7311   -4.5234 N   0  0  0  0  0  0  0  0  0  0  0  0
   26.9746   66.9475   -5.5078 N   0  0  0  0  0  0  0  0  0  0  0  0
   27.2646   67.6817   -4.3502 C   0  0  0  0  0  0  0  0  0  0  0  0
   28.7522   68.9721   -5.7746 C   0  0  0  0  0  0  0  0  0  0  0  0
   28.4659   68.2639   -6.8687 C   0  0  0  0  0  0  0  0  0  0  0  0
   27.5009   67.1490   -6.7735 C   0  0  0  0  0  0  0  0  0  0  0  0
   26.3291   66.2104   -5.4117 H   0  0  0  0  0  0  0  0  0  0  0  0
   23.6301   72.0340   -5.3505 O   0  0  0  0  0  0  0  0  0  0  0  0
   22.0213   72.1600   -5.4486 P   0  0  2  0  0  0  0  0  0  0  0  0
   21.5758   70.7332   -6.0698 O   0  0  0  0  0  0  0  0  0  0  0  0
   21.5434   73.3504   -6.2286 O   0  0  0  0  0  0  0  0  0  0  0  0
   21.5131   72.1143   -3.9182 O   0  0  0  0  0  0  0  0  0  0  0  0
   22.7693   71.0080   -2.2427 O   0  0  0  0  0  0  0  0  0  0  0  0
   19.0357   71.2262   -0.4876 O   0  0  0  0  0  0  0  0  0  0  0  0
   19.3057   70.5341   -3.3130 O   0  0  0  0  0  0  0  0  0  0  0  0
   21.1598   73.0143    0.3738 O   0  0  0  0  0  0  0  0  0  0  0  0
   20.1116   71.6590   -1.3202 C   0  0  2  0  0  0  0  0  0  0  0  0
   20.3871   70.6028   -2.3907 C   0  0  2  0  0  0  0  0  0  0  0  0
   21.3450   71.8545   -0.4355 C   0  0  1  0  0  0  0  0  0  0  0  0
   21.6735   70.9204   -3.1543 C   0  0  1  0  0  0  0  0  0  0  0  0
   22.6072   72.0404   -1.2727 C   0  0  1  0  0  0  0  0  0  0  0  0
   18.2408   71.0953   -1.0282 H   0  0  0  0  0  0  0  0  0  0  0  0
   18.4861   70.3332   -2.8352 H   0  0  0  0  0  0  0  0  0  0  0  0
   20.3594   72.9089    0.9116 H   0  0  0  0  0  0  0  0  0  0  0  0
   23.4989   71.5395    0.8381 O   0  0  0  0  0  0  0  0  0  0  0  0
   24.9753   72.0822   -0.8126 O   0  0  0  0  0  0  0  0  0  0  0  0
   23.8304   71.9006   -0.4263 C   0  0  0  0  0  0  0  0  0  0  0  0
  1  4  1  0
  1 24  1  0
  1  2  1  6
  1  3  2  0
 25 28  1  0
 25 24  1  0
 25 26  1  6
 25 27  2  0
  6 11  1  0
  6 12  1  0
 29 36  1  0
 29 37  1  0
  9  7  1  1
  7 13  1  0
 10  8  1  1
  8 14  1  0
  4  5  1  0
 36 28  1  1
 33 30  1  1
 30 38  1  0
 34 31  1  6
 31 39  1  0
 35 32  1  6
 32 40  1  0
 41 43  1  0
 15 19  2  0
 42 43  2  0
 16 22  2  0
 12 17  1  6
 17 19  1  0
 17 20  1  0
 18 19  1  0
 18 22  1  0
 18 23  1  0
  9 10  1  0
  9 11  1  0
 10 12  1  0
 11  5  1  6
 33 34  1  0
 33 35  1  0
 34 36  1  0
 35 37  1  0
 37 43  1  1
 20 21  2  0
 21 22  1  0
M  CHG  3   2  -1  26  -1  41  -1
M  END
>  <COMPND>  (182) 
    udp_gluA.pdb 

>  <AUTHOR>  (182) 
    GENERATED BY OPEN BABEL 3.1.1

>  <MASTER>  (182) 
        0    0    0    0    0    0    0    0   56    0   56    0

>  <minimizedAffinity>  (182) 
-7.44941

>  <CNNscore>  (182) 
0.5503413081

>  <CNNaffinity>  (182) 
4.5091419220

>  <CNN_VS>  (182) 
2.4815671444

>  <CNNaffinity_variance>  (182) 
0.2980574965

$$$$
183
     RDKit          3D

 43 45  0  0  0  0  0  0  0  0999 V2000
   26.4626   73.1140   -3.5376 P   0  0  2  0  0  0  0  0  0  0  0  0
   26.0465   71.6034   -3.9422 O   0  0  0  0  0  0  0  0  0  0  0  0
   26.3015   74.1298   -4.6303 O   0  0  0  0  0  0  0  0  0  0  0  0
   27.9574   72.9579   -2.9383 O   0  0  0  0  0  0  0  0  0  0  0  0
   28.8483   72.0566   -3.5695 C   0  0  0  0  0  0  0  0  0  0  0  0
   28.4707   69.7975   -2.8404 O   0  0  0  0  0  0  0  0  0  0  0  0
   31.1225   69.9986   -1.4551 O   0  0  0  0  0  0  0  0  0  0  0  0
   31.7334   68.5921   -3.7101 O   0  0  0  0  0  0  0  0  0  0  0  0
   30.7108   70.5553   -2.7038 C   0  0  1  0  0  0  0  0  0  0  0  0
   30.6303   69.4727   -3.7592 C   0  0  2  0  0  0  0  0  0  0  0  0
   29.2547   70.9800   -2.5714 C   0  0  1  0  0  0  0  0  0  0  0  0
   29.3198   68.7884   -3.4098 C   0  0  2  0  0  0  0  0  0  0  0  0
   32.0501   69.7198   -1.5152 H   0  0  0  0  0  0  0  0  0  0  0  0
   32.5431   69.0751   -3.9404 H   0  0  0  0  0  0  0  0  0  0  0  0
   26.9223   67.2983   -3.3203 O   0  0  0  0  0  0  0  0  0  0  0  0
   26.9202   66.6829   -7.8882 O   0  0  0  0  0  0  0  0  0  0  0  0
   28.6708   68.2271   -4.5607 N   0  0  0  0  0  0  0  0  0  0  0  0
   26.9241   66.9923   -5.5954 N   0  0  0  0  0  0  0  0  0  0  0  0
   27.4698   67.4950   -4.4068 C   0  0  0  0  0  0  0  0  0  0  0  0
   29.2223   68.4052   -5.8236 C   0  0  0  0  0  0  0  0  0  0  0  0
   28.6906   67.9201   -6.9473 C   0  0  0  0  0  0  0  0  0  0  0  0
   27.4361   67.1427   -6.8740 C   0  0  0  0  0  0  0  0  0  0  0  0
   26.0889   66.4775   -5.5133 H   0  0  0  0  0  0  0  0  0  0  0  0
   25.5702   73.3955   -2.2196 O   0  0  0  0  0  0  0  0  0  0  0  0
   25.0285   72.3951   -1.0710 P   0  0  2  0  0  0  0  0  0  0  0  0
   24.2751   73.3895   -0.0395 O   0  0  0  0  0  0  0  0  0  0  0  0
   26.0940   71.5442   -0.4428 O   0  0  0  0  0  0  0  0  0  0  0  0
   23.8395   71.5653   -1.7784 O   0  0  0  0  0  0  0  0  0  0  0  0
   22.5282   72.3193   -3.6007 O   0  0  0  0  0  0  0  0  0  0  0  0
   19.9846   69.6072   -1.7999 O   0  0  0  0  0  0  0  0  0  0  0  0
   21.5651   71.4555   -0.1812 O   0  0  0  0  0  0  0  0  0  0  0  0
   21.3674   68.9012   -4.2577 O   0  0  0  0  0  0  0  0  0  0  0  0
   21.2455   70.1454   -2.1981 C   0  0  2  0  0  0  0  0  0  0  0  0
   21.4206   71.5391   -1.5943 C   0  0  2  0  0  0  0  0  0  0  0  0
   21.2661   70.2210   -3.7264 C   0  0  1  0  0  0  0  0  0  0  0  0
   22.6479   72.2388   -2.1799 C   0  0  1  0  0  0  0  0  0  0  0  0
   22.4514   71.0410   -4.2277 C   0  0  1  0  0  0  0  0  0  0  0  0
   19.9484   69.5498   -0.8321 H   0  0  0  0  0  0  0  0  0  0  0  0
   20.7899   71.0124    0.1970 H   0  0  0  0  0  0  0  0  0  0  0  0
   20.6188   68.3689   -3.9460 H   0  0  0  0  0  0  0  0  0  0  0  0
   23.1683   72.3466   -6.0396 O   0  0  0  0  0  0  0  0  0  0  0  0
   21.4708   70.8740   -6.4258 O   0  0  0  0  0  0  0  0  0  0  0  0
   22.2854   71.3851   -5.6721 C   0  0  0  0  0  0  0  0  0  0  0  0
  1  4  1  0
  1 24  1  0
  1  2  1  6
  1  3  2  0
 25 28  1  0
 25 24  1  0
 25 26  1  1
 25 27  2  0
  6 11  1  0
  6 12  1  0
 29 36  1  0
 29 37  1  0
  9  7  1  1
  7 13  1  0
 10  8  1  1
  8 14  1  0
  4  5  1  0
 36 28  1  6
 33 30  1  6
 30 38  1  0
 34 31  1  1
 31 39  1  0
 35 32  1  6
 32 40  1  0
 41 43  1  0
 15 19  2  0
 42 43  2  0
 16 22  2  0
 12 17  1  6
 17 19  1  0
 17 20  1  0
 18 19  1  0
 18 22  1  0
 18 23  1  0
  9 10  1  0
  9 11  1  0
 10 12  1  0
 11  5  1  6
 33 34  1  0
 33 35  1  0
 34 36  1  0
 35 37  1  0
 37 43  1  6
 20 21  2  0
 21 22  1  0
M  CHG  3   2  -1  26  -1  41  -1
M  END
>  <COMPND>  (183) 
    udp_gluA.pdb 

>  <AUTHOR>  (183) 
    GENERATED BY OPEN BABEL 3.1.1

>  <MASTER>  (183) 
        0    0    0    0    0    0    0    0   56    0   56    0

>  <minimizedAffinity>  (183) 
-7.61072

>  <CNNscore>  (183) 
0.5270251036

>  <CNNaffinity>  (183) 
4.6632447243

>  <CNN_VS>  (183) 
2.4576470852

>  <CNNaffinity_variance>  (183) 
0.2680602074

$$$$
184
     RDKit          3D

 43 45  0  0  0  0  0  0  0  0999 V2000
   24.4167   73.3961   -4.8485 P   0  0  2  0  0  0  0  0  0  0  0  0
   25.3244   73.8446   -6.1110 O   0  0  0  0  0  0  0  0  0  0  0  0
   24.4716   74.3212   -3.6683 O   0  0  0  0  0  0  0  0  0  0  0  0
   24.8714   71.8692   -4.5661 O   0  0  0  0  0  0  0  0  0  0  0  0
   26.2437   71.5403   -4.6800 C   0  0  0  0  0  0  0  0  0  0  0  0
   27.1005   69.6736   -3.4314 O   0  0  0  0  0  0  0  0  0  0  0  0
   28.1100   71.6945   -1.4595 O   0  0  0  0  0  0  0  0  0  0  0  0
   30.3538   71.0761   -2.8805 O   0  0  0  0  0  0  0  0  0  0  0  0
   28.0273   71.7831   -2.8822 C   0  0  1  0  0  0  0  0  0  0  0  0
   29.1045   70.9342   -3.5237 C   0  0  2  0  0  0  0  0  0  0  0  0
   26.7557   71.0717   -3.3240 C   0  0  1  0  0  0  0  0  0  0  0  0
   28.5295   69.5352   -3.3823 C   0  0  2  0  0  0  0  0  0  0  0  0
   28.9148   72.1421   -1.1536 H   0  0  0  0  0  0  0  0  0  0  0  0
   30.6776   71.9833   -2.9996 H   0  0  0  0  0  0  0  0  0  0  0  0
   30.8185   67.8847   -3.2701 O   0  0  0  0  0  0  0  0  0  0  0  0
   30.0487   66.2188   -7.4982 O   0  0  0  0  0  0  0  0  0  0  0  0
   28.9505   68.6602   -4.4396 N   0  0  0  0  0  0  0  0  0  0  0  0
   30.4335   67.0573   -5.3765 N   0  0  0  0  0  0  0  0  0  0  0  0
   30.1158   67.8732   -4.2826 C   0  0  0  0  0  0  0  0  0  0  0  0
   28.2120   68.5866   -5.6144 C   0  0  0  0  0  0  0  0  0  0  0  0
   28.5273   67.8041   -6.6484 C   0  0  0  0  0  0  0  0  0  0  0  0
   29.7306   66.9505   -6.5656 C   0  0  0  0  0  0  0  0  0  0  0  0
   31.2417   66.5016   -5.2914 H   0  0  0  0  0  0  0  0  0  0  0  0
   22.9479   73.2232   -5.5008 O   0  0  0  0  0  0  0  0  0  0  0  0
   21.6182   74.1346   -5.3785 P   0  0  2  0  0  0  0  0  0  0  0  0
   22.1578   75.6230   -5.7161 O   0  0  0  0  0  0  0  0  0  0  0  0
   20.9106   74.0177   -4.0596 O   0  0  0  0  0  0  0  0  0  0  0  0
   20.7232   73.7263   -6.6571 O   0  0  0  0  0  0  0  0  0  0  0  0
   18.6664   72.5522   -6.6631 O   0  0  0  0  0  0  0  0  0  0  0  0
   20.2344   71.5201  -10.3433 O   0  0  0  0  0  0  0  0  0  0  0  0
   21.9441   71.6036   -7.9760 O   0  0  0  0  0  0  0  0  0  0  0  0
   18.0842   73.4687  -10.1678 O   0  0  0  0  0  0  0  0  0  0  0  0
   20.0027   72.3648   -9.2160 C   0  0  2  0  0  0  0  0  0  0  0  0
   20.5236   71.6834   -7.9504 C   0  0  2  0  0  0  0  0  0  0  0  0
   18.4955   72.6068   -9.1083 C   0  0  1  0  0  0  0  0  0  0  0  0
   20.0903   72.4487   -6.6992 C   0  0  1  0  0  0  0  0  0  0  0  0
   18.1298   73.2599   -7.7785 C   0  0  1  0  0  0  0  0  0  0  0  0
   21.1858   71.3523  -10.4318 H   0  0  0  0  0  0  0  0  0  0  0  0
   22.2261   71.1195   -8.7675 H   0  0  0  0  0  0  0  0  0  0  0  0
   18.3114   73.0647  -11.0199 H   0  0  0  0  0  0  0  0  0  0  0  0
   16.3815   73.2481   -6.2148 O   0  0  0  0  0  0  0  0  0  0  0  0
   15.8084   73.1005   -8.4169 O   0  0  0  0  0  0  0  0  0  0  0  0
   16.6562   73.1918   -7.5416 C   0  0  0  0  0  0  0  0  0  0  0  0
  1  4  1  0
  1 24  1  0
  1  2  1  6
  1  3  2  0
 25 28  1  0
 25 24  1  0
 25 26  1  6
 25 27  2  0
  6 11  1  0
  6 12  1  0
 29 36  1  0
 29 37  1  0
  9  7  1  1
  7 13  1  0
 10  8  1  1
  8 14  1  0
  4  5  1  0
 36 28  1  6
 33 30  1  6
 30 38  1  0
 34 31  1  6
 31 39  1  0
 35 32  1  6
 32 40  1  0
 41 43  1  0
 15 19  2  0
 42 43  2  0
 16 22  2  0
 12 17  1  6
 17 19  1  0
 17 20  1  0
 18 19  1  0
 18 22  1  0
 18 23  1  0
  9 10  1  0
  9 11  1  0
 10 12  1  0
 11  5  1  6
 33 34  1  0
 33 35  1  0
 34 36  1  0
 35 37  1  0
 37 43  1  1
 20 21  2  0
 21 22  1  0
M  CHG  3   2  -1  26  -1  41  -1
M  END
>  <COMPND>  (184) 
    udp_gluA.pdb 

>  <AUTHOR>  (184) 
    GENERATED BY OPEN BABEL 3.1.1

>  <MASTER>  (184) 
        0    0    0    0    0    0    0    0   56    0   56    0

>  <minimizedAffinity>  (184) 
-7.35870

>  <CNNscore>  (184) 
0.5249629021

>  <CNNaffinity>  (184) 
4.3845753670

>  <CNN_VS>  (184) 
2.3017394543

>  <CNNaffinity_variance>  (184) 
0.0315282866

$$$$
185
     RDKit          3D

 43 45  0  0  0  0  0  0  0  0999 V2000
   23.4513   72.4891   -4.6613 P   0  0  2  0  0  0  0  0  0  0  0  0
   22.8813   72.0670   -6.1158 O   0  0  0  0  0  0  0  0  0  0  0  0
   23.4539   73.9642   -4.3855 O   0  0  0  0  0  0  0  0  0  0  0  0
   24.8918   71.7567   -4.5810 O   0  0  0  0  0  0  0  0  0  0  0  0
   26.0298   72.5364   -4.2623 C   0  0  0  0  0  0  0  0  0  0  0  0
   26.6294   70.4960   -3.1419 O   0  0  0  0  0  0  0  0  0  0  0  0
   28.6157   72.1392   -1.6101 O   0  0  0  0  0  0  0  0  0  0  0  0
   30.1717   70.9249   -3.4917 O   0  0  0  0  0  0  0  0  0  0  0  0
   28.2048   72.2568   -2.9725 C   0  0  1  0  0  0  0  0  0  0  0  0
   28.8112   71.1438   -3.8007 C   0  0  2  0  0  0  0  0  0  0  0  0
   26.7186   71.9340   -3.0444 C   0  0  1  0  0  0  0  0  0  0  0  0
   27.9305   69.9616   -3.4333 C   0  0  2  0  0  0  0  0  0  0  0  0
   29.5622   72.3408   -1.5390 H   0  0  0  0  0  0  0  0  0  0  0  0
   30.6903   71.7054   -3.7444 H   0  0  0  0  0  0  0  0  0  0  0  0
   26.3830   67.6023   -3.3100 O   0  0  0  0  0  0  0  0  0  0  0  0
   27.5645   66.3857   -7.5958 O   0  0  0  0  0  0  0  0  0  0  0  0
   27.8159   69.0106   -4.5025 N   0  0  0  0  0  0  0  0  0  0  0  0
   26.9738   66.9981   -5.4443 N   0  0  0  0  0  0  0  0  0  0  0  0
   27.0125   67.8574   -4.3384 C   0  0  0  0  0  0  0  0  0  0  0  0
   28.4927   69.2250   -5.6971 C   0  0  0  0  0  0  0  0  0  0  0  0
   28.4459   68.3969   -6.7424 C   0  0  0  0  0  0  0  0  0  0  0  0
   27.6298   67.1683   -6.6527 C   0  0  0  0  0  0  0  0  0  0  0  0
   26.4226   66.1874   -5.3530 H   0  0  0  0  0  0  0  0  0  0  0  0
   22.5429   71.6164   -3.6483 O   0  0  0  0  0  0  0  0  0  0  0  0
   21.8605   72.0019   -2.2343 P   0  0  2  0  0  0  0  0  0  0  0  0
   20.9491   70.7070   -1.8983 O   0  0  0  0  0  0  0  0  0  0  0  0
   21.1081   73.3010   -2.2476 O   0  0  0  0  0  0  0  0  0  0  0  0
   23.0678   71.9383   -1.1663 O   0  0  0  0  0  0  0  0  0  0  0  0
   23.2857   72.2353    1.1733 O   0  0  0  0  0  0  0  0  0  0  0  0
   26.6277   74.2108   -0.2397 O   0  0  0  0  0  0  0  0  0  0  0  0
   24.0530   74.5049   -1.5884 O   0  0  0  0  0  0  0  0  0  0  0  0
   26.8917   71.5856    0.9808 O   0  0  0  0  0  0  0  0  0  0  0  0
   25.6046   73.2151   -0.2412 C   0  0  2  0  0  0  0  0  0  0  0  0
   24.2345   73.8892   -0.3185 C   0  0  2  0  0  0  0  0  0  0  0  0
   25.7285   72.4079    1.0530 C   0  0  1  0  0  0  0  0  0  0  0  0
   23.1124   72.8752   -0.0916 C   0  0  1  0  0  0  0  0  0  0  0  0
   24.5114   71.5134    1.2702 C   0  0  1  0  0  0  0  0  0  0  0  0
   26.5687   74.7365   -1.0531 H   0  0  0  0  0  0  0  0  0  0  0  0
   24.7617   75.1493   -1.7391 H   0  0  0  0  0  0  0  0  0  0  0  0
   27.6735   72.1428    0.8425 H   0  0  0  0  0  0  0  0  0  0  0  0
   23.2334   70.5738    2.9980 O   0  0  0  0  0  0  0  0  0  0  0  0
   25.4454   70.9340    3.4181 O   0  0  0  0  0  0  0  0  0  0  0  0
   24.4819   70.9883    2.6687 C   0  0  0  0  0  0  0  0  0  0  0  0
  1  4  1  0
  1 24  1  0
  1  2  1  6
  1  3  2  0
 25 28  1  0
 25 24  1  0
 25 26  1  1
 25 27  2  0
  6 11  1  0
  6 12  1  0
 29 36  1  0
 29 37  1  0
  9  7  1  1
  7 13  1  0
 10  8  1  1
  8 14  1  0
  4  5  1  0
 36 28  1  6
 33 30  1  1
 30 38  1  0
 34 31  1  6
 31 39  1  0
 35 32  1  6
 32 40  1  0
 41 43  1  0
 15 19  2  0
 42 43  2  0
 16 22  2  0
 12 17  1  6
 17 19  1  0
 17 20  1  0
 18 19  1  0
 18 22  1  0
 18 23  1  0
  9 10  1  0
  9 11  1  0
 10 12  1  0
 11  5  1  6
 33 34  1  0
 33 35  1  0
 34 36  1  0
 35 37  1  0
 37 43  1  1
 20 21  2  0
 21 22  1  0
M  CHG  3   2  -1  26  -1  41  -1
M  END
>  <COMPND>  (185) 
    udp_gluA.pdb 

>  <AUTHOR>  (185) 
    GENERATED BY OPEN BABEL 3.1.1

>  <MASTER>  (185) 
        0    0    0    0    0    0    0    0   56    0   56    0

>  <minimizedAffinity>  (185) 
-6.85186

>  <CNNscore>  (185) 
0.4919570088

>  <CNNaffinity>  (185) 
4.1888818741

>  <CNN_VS>  (185) 
2.0607497692

>  <CNNaffinity_variance>  (185) 
0.1937055886

$$$$
186
     RDKit          3D

 43 45  0  0  0  0  0  0  0  0999 V2000
   22.6684   73.0829   -4.1845 P   0  0  2  0  0  0  0  0  0  0  0  0
   23.2470   73.7724   -5.5293 O   0  0  0  0  0  0  0  0  0  0  0  0
   22.4720   74.0178   -3.0272 O   0  0  0  0  0  0  0  0  0  0  0  0
   23.6717   71.8410   -3.9220 O   0  0  0  0  0  0  0  0  0  0  0  0
   25.0132   71.9511   -4.3610 C   0  0  0  0  0  0  0  0  0  0  0  0
   26.2251   70.2228   -3.2113 O   0  0  0  0  0  0  0  0  0  0  0  0
   27.8438   72.4301   -1.9869 O   0  0  0  0  0  0  0  0  0  0  0  0
   29.4848   71.5129   -3.9623 O   0  0  0  0  0  0  0  0  0  0  0  0
   27.2940   72.3347   -3.3011 C   0  0  1  0  0  0  0  0  0  0  0  0
   28.0920   71.3533   -4.1332 C   0  0  2  0  0  0  0  0  0  0  0  0
   25.9437   71.6391   -3.1960 C   0  0  1  0  0  0  0  0  0  0  0  0
   27.5884   70.0173   -3.6143 C   0  0  2  0  0  0  0  0  0  0  0  0
   28.7071   72.8712   -2.0285 H   0  0  0  0  0  0  0  0  0  0  0  0
   29.7560   72.3782   -4.3082 H   0  0  0  0  0  0  0  0  0  0  0  0
   26.3008   67.5141   -3.3847 O   0  0  0  0  0  0  0  0  0  0  0  0
   27.8138   66.1514   -7.5197 O   0  0  0  0  0  0  0  0  0  0  0  0
   27.6294   68.9897   -4.6160 N   0  0  0  0  0  0  0  0  0  0  0  0
   27.0564   66.8374   -5.4439 N   0  0  0  0  0  0  0  0  0  0  0  0
   26.9483   67.7681   -4.4022 C   0  0  0  0  0  0  0  0  0  0  0  0
   28.3363   69.1974   -5.7941 C   0  0  0  0  0  0  0  0  0  0  0  0
   28.4301   68.3009   -6.7781 C   0  0  0  0  0  0  0  0  0  0  0  0
   27.7482   66.9981   -6.6336 C   0  0  0  0  0  0  0  0  0  0  0  0
   26.5923   65.9785   -5.3171 H   0  0  0  0  0  0  0  0  0  0  0  0
   21.3192   72.3573   -4.7003 O   0  0  0  0  0  0  0  0  0  0  0  0
   19.7740   72.8302   -4.6503 P   0  0  2  0  0  0  0  0  0  0  0  0
   19.8836   74.4426   -4.5576 O   0  0  0  0  0  0  0  0  0  0  0  0
   18.9726   72.2004   -3.5480 O   0  0  0  0  0  0  0  0  0  0  0  0
   19.2105   72.5451   -6.1348 O   0  0  0  0  0  0  0  0  0  0  0  0
   18.3091   70.6045   -7.1501 O   0  0  0  0  0  0  0  0  0  0  0  0
   20.3817   72.3108  -10.2903 O   0  0  0  0  0  0  0  0  0  0  0  0
   21.5469   72.2384   -7.6124 O   0  0  0  0  0  0  0  0  0  0  0  0
   17.4829   72.5006  -10.1807 O   0  0  0  0  0  0  0  0  0  0  0  0
   19.6189   72.3029   -9.0836 C   0  0  2  0  0  0  0  0  0  0  0  0
   20.3769   71.5298   -8.0042 C   0  0  2  0  0  0  0  0  0  0  0  0
   18.2765   71.6293   -9.3772 C   0  0  1  0  0  0  0  0  0  0  0  0
   19.4969   71.3026   -6.7742 C   0  0  1  0  0  0  0  0  0  0  0  0
   17.5142   71.3223   -8.0914 C   0  0  1  0  0  0  0  0  0  0  0  0
   21.2394   72.7342  -10.1280 H   0  0  0  0  0  0  0  0  0  0  0  0
   22.1098   72.3863   -8.3880 H   0  0  0  0  0  0  0  0  0  0  0  0
   17.9568   72.7040  -11.0022 H   0  0  0  0  0  0  0  0  0  0  0  0
   16.3530   70.0272   -9.6649 O   0  0  0  0  0  0  0  0  0  0  0  0
   15.5866   69.9895   -7.5177 O   0  0  0  0  0  0  0  0  0  0  0  0
   16.3812   70.3853   -8.3573 C   0  0  0  0  0  0  0  0  0  0  0  0
  1  4  1  0
  1 24  1  0
  1  2  1  6
  1  3  2  0
 25 28  1  0
 25 24  1  0
 25 26  1  1
 25 27  2  0
  6 11  1  0
  6 12  1  0
 29 36  1  0
 29 37  1  0
  9  7  1  1
  7 13  1  0
 10  8  1  1
  8 14  1  0
  4  5  1  0
 36 28  1  6
 33 30  1  6
 30 38  1  0
 34 31  1  1
 31 39  1  0
 35 32  1  6
 32 40  1  0
 41 43  1  0
 15 19  2  0
 42 43  2  0
 16 22  2  0
 12 17  1  6
 17 19  1  0
 17 20  1  0
 18 19  1  0
 18 22  1  0
 18 23  1  0
  9 10  1  0
  9 11  1  0
 10 12  1  0
 11  5  1  6
 33 34  1  0
 33 35  1  0
 34 36  1  0
 35 37  1  0
 37 43  1  6
 20 21  2  0
 21 22  1  0
M  CHG  3   2  -1  26  -1  41  -1
M  END
>  <COMPND>  (186) 
    udp_gluA.pdb 

>  <AUTHOR>  (186) 
    GENERATED BY OPEN BABEL 3.1.1

>  <MASTER>  (186) 
        0    0    0    0    0    0    0    0   56    0   56    0

>  <minimizedAffinity>  (186) 
-7.61447

>  <CNNscore>  (186) 
0.4899694622

>  <CNNaffinity>  (186) 
4.2835512161

>  <CNN_VS>  (186) 
2.0988092422

>  <CNNaffinity_variance>  (186) 
0.1073230505

$$$$
187
     RDKit          3D

 43 45  0  0  0  0  0  0  0  0999 V2000
   24.3539   73.3511   -4.9367 P   0  0  2  0  0  0  0  0  0  0  0  0
   25.5887   73.6050   -5.9515 O   0  0  0  0  0  0  0  0  0  0  0  0
   23.7455   74.5937   -4.3558 O   0  0  0  0  0  0  0  0  0  0  0  0
   24.9428   72.2905   -3.8660 O   0  0  0  0  0  0  0  0  0  0  0  0
   26.0742   71.5207   -4.2291 C   0  0  0  0  0  0  0  0  0  0  0  0
   27.4931   69.9819   -3.0473 O   0  0  0  0  0  0  0  0  0  0  0  0
   28.5723   72.3769   -1.6014 O   0  0  0  0  0  0  0  0  0  0  0  0
   30.5043   71.8832   -3.4614 O   0  0  0  0  0  0  0  0  0  0  0  0
   28.1540   72.2549   -2.9611 C   0  0  1  0  0  0  0  0  0  0  0  0
   29.1832   71.4822   -3.7587 C   0  0  2  0  0  0  0  0  0  0  0  0
   26.9527   71.3202   -3.0009 C   0  0  1  0  0  0  0  0  0  0  0  0
   28.8980   70.0505   -3.3383 C   0  0  2  0  0  0  0  0  0  0  0  0
   29.3390   72.9695   -1.5505 H   0  0  0  0  0  0  0  0  0  0  0  0
   30.6359   72.8011   -3.7483 H   0  0  0  0  0  0  0  0  0  0  0  0
   30.7791   67.9602   -3.0759 O   0  0  0  0  0  0  0  0  0  0  0  0
   30.0045   66.4781   -7.3709 O   0  0  0  0  0  0  0  0  0  0  0  0
   29.2075   69.1039   -4.3723 N   0  0  0  0  0  0  0  0  0  0  0  0
   30.3923   67.2247   -5.2156 N   0  0  0  0  0  0  0  0  0  0  0  0
   30.1686   68.0921   -4.1383 C   0  0  0  0  0  0  0  0  0  0  0  0
   28.5615   69.1819   -5.6001 C   0  0  0  0  0  0  0  0  0  0  0  0
   28.7852   68.3478   -6.6174 C   0  0  0  0  0  0  0  0  0  0  0  0
   29.7752   67.2628   -6.4555 C   0  0  0  0  0  0  0  0  0  0  0  0
   31.0586   66.5133   -5.0772 H   0  0  0  0  0  0  0  0  0  0  0  0
   23.3391   72.4528   -5.8175 O   0  0  0  0  0  0  0  0  0  0  0  0
   21.7594   72.1565   -5.6432 P   0  0  2  0  0  0  0  0  0  0  0  0
   21.5710   70.7189   -6.3629 O   0  0  0  0  0  0  0  0  0  0  0  0
   20.8671   73.2383   -6.1795 O   0  0  0  0  0  0  0  0  0  0  0  0
   21.5712   71.8521   -4.0701 O   0  0  0  0  0  0  0  0  0  0  0  0
   19.4669   72.5718   -3.2559 O   0  0  0  0  0  0  0  0  0  0  0  0
   21.3689   71.4254    0.2278 O   0  0  0  0  0  0  0  0  0  0  0  0
   22.8122   72.9236   -1.8233 O   0  0  0  0  0  0  0  0  0  0  0  0
   19.3210   69.7269   -0.9435 O   0  0  0  0  0  0  0  0  0  0  0  0
   21.0617   71.3779   -1.1655 C   0  0  2  0  0  0  0  0  0  0  0  0
   21.4038   72.7209   -1.8111 C   0  0  2  0  0  0  0  0  0  0  0  0
   19.5670   71.0831   -1.3104 C   0  0  1  0  0  0  0  0  0  0  0  0
   20.8786   72.7878   -3.2459 C   0  0  1  0  0  0  0  0  0  0  0  0
   19.0942   71.2935   -2.7459 C   0  0  1  0  0  0  0  0  0  0  0  0
   22.3139   71.6116    0.3445 H   0  0  0  0  0  0  0  0  0  0  0  0
   23.1522   72.8821   -0.9161 H   0  0  0  0  0  0  0  0  0  0  0  0
   19.6176   69.5797   -0.0318 H   0  0  0  0  0  0  0  0  0  0  0  0
   17.1852   72.2234   -3.7421 O   0  0  0  0  0  0  0  0  0  0  0  0
   16.8533   70.6438   -2.1315 O   0  0  0  0  0  0  0  0  0  0  0  0
   17.6021   71.3274   -2.8134 C   0  0  0  0  0  0  0  0  0  0  0  0
  1  4  1  0
  1 24  1  0
  1  2  1  6
  1  3  2  0
 25 28  1  0
 25 24  1  0
 25 26  1  6
 25 27  2  0
  6 11  1  0
  6 12  1  0
 29 36  1  0
 29 37  1  0
  9  7  1  1
  7 13  1  0
 10  8  1  1
  8 14  1  0
  4  5  1  0
 36 28  1  6
 33 30  1  1
 30 38  1  0
 34 31  1  6
 31 39  1  0
 35 32  1  6
 32 40  1  0
 41 43  1  0
 15 19  2  0
 42 43  2  0
 16 22  2  0
 12 17  1  6
 17 19  1  0
 17 20  1  0
 18 19  1  0
 18 22  1  0
 18 23  1  0
  9 10  1  0
  9 11  1  0
 10 12  1  0
 11  5  1  6
 33 34  1  0
 33 35  1  0
 34 36  1  0
 35 37  1  0
 37 43  1  1
 20 21  2  0
 21 22  1  0
M  CHG  3   2  -1  26  -1  41  -1
M  END
>  <COMPND>  (187) 
    udp_gluA.pdb 

>  <AUTHOR>  (187) 
    GENERATED BY OPEN BABEL 3.1.1

>  <MASTER>  (187) 
        0    0    0    0    0    0    0    0   56    0   56    0

>  <minimizedAffinity>  (187) 
-7.37123

>  <CNNscore>  (187) 
0.4790951908

>  <CNNaffinity>  (187) 
4.3087282181

>  <CNN_VS>  (187) 
2.0642910004

>  <CNNaffinity_variance>  (187) 
0.0565336160

$$$$
188
     RDKit          3D

 43 45  0  0  0  0  0  0  0  0999 V2000
   25.6831   73.6397    0.5158 P   0  0  2  0  0  0  0  0  0  0  0  0
   24.0805   73.8168    0.6546 O   0  0  0  0  0  0  0  0  0  0  0  0
   26.4744   74.9079    0.6470 O   0  0  0  0  0  0  0  0  0  0  0  0
   25.8662   72.8382   -0.8777 O   0  0  0  0  0  0  0  0  0  0  0  0
   25.6544   73.5354   -2.0916 C   0  0  0  0  0  0  0  0  0  0  0  0
   25.1148   71.3916   -3.0351 O   0  0  0  0  0  0  0  0  0  0  0  0
   26.1580   72.4780   -5.6280 O   0  0  0  0  0  0  0  0  0  0  0  0
   23.4569   72.6867   -5.9382 O   0  0  0  0  0  0  0  0  0  0  0  0
   25.4316   73.1452   -4.5957 C   0  0  1  0  0  0  0  0  0  0  0  0
   23.9763   72.7286   -4.6256 C   0  0  2  0  0  0  0  0  0  0  0  0
   25.8957   72.5857   -3.2578 C   0  0  1  0  0  0  0  0  0  0  0  0
   24.0272   71.3578   -3.9728 C   0  0  2  0  0  0  0  0  0  0  0  0
   25.8786   72.8188   -6.4926 H   0  0  0  0  0  0  0  0  0  0  0  0
   23.4449   73.5832   -6.3100 H   0  0  0  0  0  0  0  0  0  0  0  0
   21.8482   69.9625   -5.1050 O   0  0  0  0  0  0  0  0  0  0  0  0
   19.4299   70.1927   -1.1880 O   0  0  0  0  0  0  0  0  0  0  0  0
   22.8157   71.0396   -3.2713 N   0  0  0  0  0  0  0  0  0  0  0  0
   20.6454   70.0794   -3.1533 N   0  0  0  0  0  0  0  0  0  0  0  0
   21.7817   70.3352   -3.9321 C   0  0  0  0  0  0  0  0  0  0  0  0
   22.6616   71.4225   -1.9445 C   0  0  0  0  0  0  0  0  0  0  0  0
   21.5726   71.1714   -1.2151 C   0  0  0  0  0  0  0  0  0  0  0  0
   20.4456   70.4405   -1.8308 C   0  0  0  0  0  0  0  0  0  0  0  0
   19.9112   69.5920   -3.5924 H   0  0  0  0  0  0  0  0  0  0  0  0
   26.0217   72.5167    1.6281 O   0  0  0  0  0  0  0  0  0  0  0  0
   27.4305   72.0453    2.2658 P   0  0  2  0  0  0  0  0  0  0  0  0
   27.1212   70.5397    2.7736 O   0  0  0  0  0  0  0  0  0  0  0  0
   27.9613   72.9604    3.3310 O   0  0  0  0  0  0  0  0  0  0  0  0
   28.4100   71.8543    0.9983 O   0  0  0  0  0  0  0  0  0  0  0  0
   30.7284   71.9471    1.4730 O   0  0  0  0  0  0  0  0  0  0  0  0
   30.7085   72.1077   -2.6552 O   0  0  0  0  0  0  0  0  0  0  0  0
   28.7643   73.6404   -1.1042 O   0  0  0  0  0  0  0  0  0  0  0  0
   31.4485   69.6479   -1.2942 O   0  0  0  0  0  0  0  0  0  0  0  0
   30.2341   71.7276   -1.3635 C   0  0  2  0  0  0  0  0  0  0  0  0
   29.8976   72.9796   -0.5531 C   0  0  2  0  0  0  0  0  0  0  0  0
   31.3386   70.9262   -0.6710 C   0  0  1  0  0  0  0  0  0  0  0  0
   29.6067   72.6250    0.9059 C   0  0  1  0  0  0  0  0  0  0  0  0
   31.0337   70.7221    0.8102 C   0  0  1  0  0  0  0  0  0  0  0  0
   30.0231   72.6185   -3.1142 H   0  0  0  0  0  0  0  0  0  0  0  0
   28.9419   73.8680   -2.0299 H   0  0  0  0  0  0  0  0  0  0  0  0
   31.6423   69.7636   -2.2375 H   0  0  0  0  0  0  0  0  0  0  0  0
   32.8653   71.2664    2.1706 O   0  0  0  0  0  0  0  0  0  0  0  0
   32.6292   69.0794    1.5702 O   0  0  0  0  0  0  0  0  0  0  0  0
   32.2449   70.2389    1.5394 C   0  0  0  0  0  0  0  0  0  0  0  0
  1  4  1  0
  1 24  1  0
  1  2  1  1
  1  3  2  0
 25 28  1  0
 25 24  1  0
 25 26  1  1
 25 27  2  0
  6 11  1  0
  6 12  1  0
 29 36  1  0
 29 37  1  0
  9  7  1  6
  7 13  1  0
 10  8  1  6
  8 14  1  0
  4  5  1  0
 36 28  1  6
 33 30  1  6
 30 38  1  0
 34 31  1  6
 31 39  1  0
 35 32  1  6
 32 40  1  0
 41 43  1  0
 15 19  2  0
 42 43  2  0
 16 22  2  0
 12 17  1  1
 17 19  1  0
 17 20  1  0
 18 19  1  0
 18 22  1  0
 18 23  1  0
  9 10  1  0
  9 11  1  0
 10 12  1  0
 11  5  1  1
 33 34  1  0
 33 35  1  0
 34 36  1  0
 35 37  1  0
 37 43  1  1
 20 21  2  0
 21 22  1  0
M  CHG  3   2  -1  26  -1  41  -1
M  END
>  <COMPND>  (188) 
    udp_gluA.pdb 

>  <AUTHOR>  (188) 
    GENERATED BY OPEN BABEL 3.1.1

>  <MASTER>  (188) 
        0    0    0    0    0    0    0    0   56    0   56    0

>  <minimizedAffinity>  (188) 
-6.15193

>  <CNNscore>  (188) 
0.4760196507

>  <CNNaffinity>  (188) 
3.9243755341

>  <CNN_VS>  (188) 
1.8680799007

>  <CNNaffinity_variance>  (188) 
0.2083667815

$$$$
189
     RDKit          3D

 43 45  0  0  0  0  0  0  0  0999 V2000
   23.9231   73.2404   -5.0485 P   0  0  2  0  0  0  0  0  0  0  0  0
   25.0371   73.7576   -6.1023 O   0  0  0  0  0  0  0  0  0  0  0  0
   23.5670   74.2215   -3.9705 O   0  0  0  0  0  0  0  0  0  0  0  0
   24.5005   71.8169   -4.5402 O   0  0  0  0  0  0  0  0  0  0  0  0
   25.8990   71.6004   -4.5828 C   0  0  0  0  0  0  0  0  0  0  0  0
   26.7716   69.7244   -3.3592 O   0  0  0  0  0  0  0  0  0  0  0  0
   27.6051   71.7104   -1.2729 O   0  0  0  0  0  0  0  0  0  0  0  0
   29.9360   71.2315   -2.6047 O   0  0  0  0  0  0  0  0  0  0  0  0
   27.5854   71.8472   -2.6940 C   0  0  1  0  0  0  0  0  0  0  0  0
   28.7248   71.0646   -3.3117 C   0  0  2  0  0  0  0  0  0  0  0  0
   26.3657   71.1034   -3.2206 C   0  0  1  0  0  0  0  0  0  0  0  0
   28.2011   69.6401   -3.2462 C   0  0  2  0  0  0  0  0  0  0  0  0
   28.3759   72.1776   -0.9134 H   0  0  0  0  0  0  0  0  0  0  0  0
   30.2279   72.1543   -2.6769 H   0  0  0  0  0  0  0  0  0  0  0  0
   30.6168   68.1816   -3.1285 O   0  0  0  0  0  0  0  0  0  0  0  0
   30.0406   66.5311   -7.3932 O   0  0  0  0  0  0  0  0  0  0  0  0
   28.7062   68.8210   -4.3115 N   0  0  0  0  0  0  0  0  0  0  0  0
   30.3280   67.3618   -5.2531 N   0  0  0  0  0  0  0  0  0  0  0  0
   29.9303   68.1298   -4.1508 C   0  0  0  0  0  0  0  0  0  0  0  0
   27.9912   68.7072   -5.4976 C   0  0  0  0  0  0  0  0  0  0  0  0
   28.3830   67.9711   -6.5395 C   0  0  0  0  0  0  0  0  0  0  0  0
   29.6514   67.2180   -6.4536 C   0  0  0  0  0  0  0  0  0  0  0  0
   31.1782   66.8730   -5.1656 H   0  0  0  0  0  0  0  0  0  0  0  0
   22.6911   72.8127   -6.0036 O   0  0  0  0  0  0  0  0  0  0  0  0
   21.4167   71.8568   -5.7280 P   0  0  2  0  0  0  0  0  0  0  0  0
   20.8677   72.3760   -4.2964 O   0  0  0  0  0  0  0  0  0  0  0  0
   21.7264   70.3886   -5.7760 O   0  0  0  0  0  0  0  0  0  0  0  0
   20.3042   72.3415   -6.7909 O   0  0  0  0  0  0  0  0  0  0  0  0
   19.7572   71.2046   -8.7952 O   0  0  0  0  0  0  0  0  0  0  0  0
   18.6220   75.0753   -9.6878 O   0  0  0  0  0  0  0  0  0  0  0  0
   21.1194   74.5555   -8.2639 O   0  0  0  0  0  0  0  0  0  0  0  0
   16.6101   73.0711   -9.0662 O   0  0  0  0  0  0  0  0  0  0  0  0
   18.8450   73.9438   -8.8463 C   0  0  2  0  0  0  0  0  0  0  0  0
   20.3233   73.5565   -8.8908 C   0  0  2  0  0  0  0  0  0  0  0  0
   17.9775   72.7931   -9.3614 C   0  0  1  0  0  0  0  0  0  0  0  0
   20.5596   72.2184   -8.1889 C   0  0  1  0  0  0  0  0  0  0  0  0
   18.3593   71.4701   -8.7038 C   0  0  1  0  0  0  0  0  0  0  0  0
   19.1631   75.8193   -9.3796 H   0  0  0  0  0  0  0  0  0  0  0  0
   20.9742   75.4073   -8.7041 H   0  0  0  0  0  0  0  0  0  0  0  0
   16.3544   73.9109   -9.4789 H   0  0  0  0  0  0  0  0  0  0  0  0
   17.4216   70.6765  -10.7019 O   0  0  0  0  0  0  0  0  0  0  0  0
   17.5723   69.2046   -8.9670 O   0  0  0  0  0  0  0  0  0  0  0  0
   17.7505   70.3187   -9.4359 C   0  0  0  0  0  0  0  0  0  0  0  0
  1  4  1  0
  1 24  1  0
  1  2  1  6
  1  3  2  0
 25 28  1  0
 25 24  1  0
 25 26  1  1
 25 27  2  0
  6 11  1  0
  6 12  1  0
 29 36  1  0
 29 37  1  0
  9  7  1  1
  7 13  1  0
 10  8  1  1
  8 14  1  0
  4  5  1  0
 36 28  1  1
 33 30  1  6
 30 38  1  0
 34 31  1  1
 31 39  1  0
 35 32  1  1
 32 40  1  0
 41 43  1  0
 15 19  2  0
 42 43  2  0
 16 22  2  0
 12 17  1  6
 17 19  1  0
 17 20  1  0
 18 19  1  0
 18 22  1  0
 18 23  1  0
  9 10  1  0
  9 11  1  0
 10 12  1  0
 11  5  1  6
 33 34  1  0
 33 35  1  0
 34 36  1  0
 35 37  1  0
 37 43  1  6
 20 21  2  0
 21 22  1  0
M  CHG  3   2  -1  26  -1  41  -1
M  END
>  <COMPND>  (189) 
    udp_gluA.pdb 

>  <AUTHOR>  (189) 
    GENERATED BY OPEN BABEL 3.1.1

>  <MASTER>  (189) 
        0    0    0    0    0    0    0    0   56    0   56    0

>  <minimizedAffinity>  (189) 
-7.68929

>  <CNNscore>  (189) 
0.4657882154

>  <CNNaffinity>  (189) 
4.3500890732

>  <CNN_VS>  (189) 
2.0262203217

>  <CNNaffinity_variance>  (189) 
0.0467659943

$$$$
190
     RDKit          3D

 43 45  0  0  0  0  0  0  0  0999 V2000
   26.8767   73.3391   -3.5412 P   0  0  2  0  0  0  0  0  0  0  0  0
   26.3497   71.9311   -4.1401 O   0  0  0  0  0  0  0  0  0  0  0  0
   26.8700   74.4829   -4.5125 O   0  0  0  0  0  0  0  0  0  0  0  0
   28.3148   72.9731   -2.8964 O   0  0  0  0  0  0  0  0  0  0  0  0
   29.1146   71.9967   -3.5379 C   0  0  0  0  0  0  0  0  0  0  0  0
   28.6045   69.7606   -2.8187 O   0  0  0  0  0  0  0  0  0  0  0  0
   31.2507   69.8096   -1.4091 O   0  0  0  0  0  0  0  0  0  0  0  0
   31.8023   68.3764   -3.6625 O   0  0  0  0  0  0  0  0  0  0  0  0
   30.8822   70.3914   -2.6598 C   0  0  1  0  0  0  0  0  0  0  0  0
   30.7508   69.3175   -3.7190 C   0  0  2  0  0  0  0  0  0  0  0  0
   29.4510   70.8968   -2.5393 C   0  0  1  0  0  0  0  0  0  0  0  0
   29.4009   68.7069   -3.3833 C   0  0  2  0  0  0  0  0  0  0  0  0
   32.1617   69.4794   -1.4616 H   0  0  0  0  0  0  0  0  0  0  0  0
   32.6399   68.8138   -3.8841 H   0  0  0  0  0  0  0  0  0  0  0  0
   26.9459   67.3123   -3.3144 O   0  0  0  0  0  0  0  0  0  0  0  0
   26.9269   66.7517   -7.8893 O   0  0  0  0  0  0  0  0  0  0  0  0
   28.7320   68.1855   -4.5416 N   0  0  0  0  0  0  0  0  0  0  0  0
   26.9393   67.0335   -5.5929 N   0  0  0  0  0  0  0  0  0  0  0  0
   27.5026   67.5000   -4.3979 C   0  0  0  0  0  0  0  0  0  0  0  0
   29.2923   68.3565   -5.8017 C   0  0  0  0  0  0  0  0  0  0  0  0
   28.7435   67.9063   -6.9317 C   0  0  0  0  0  0  0  0  0  0  0  0
   27.4590   67.1786   -6.8690 C   0  0  0  0  0  0  0  0  0  0  0  0
   26.0842   66.5513   -5.5180 H   0  0  0  0  0  0  0  0  0  0  0  0
   25.9399   73.5539   -2.2415 O   0  0  0  0  0  0  0  0  0  0  0  0
   25.1508   72.4902   -1.3143 P   0  0  2  0  0  0  0  0  0  0  0  0
   24.6690   73.3843   -0.0538 O   0  0  0  0  0  0  0  0  0  0  0  0
   25.9579   71.2803   -0.9418 O   0  0  0  0  0  0  0  0  0  0  0  0
   23.7948   72.1665   -2.1259 O   0  0  0  0  0  0  0  0  0  0  0  0
   21.7562   71.1713   -1.4456 O   0  0  0  0  0  0  0  0  0  0  0  0
   22.1085   69.7975   -5.3259 O   0  0  0  0  0  0  0  0  0  0  0  0
   24.4383   69.8751   -3.5651 O   0  0  0  0  0  0  0  0  0  0  0  0
   20.2324   71.9272   -4.6966 O   0  0  0  0  0  0  0  0  0  0  0  0
   22.2713   70.7232   -4.2513 C   0  0  2  0  0  0  0  0  0  0  0  0
   23.0958   70.0756   -3.1385 C   0  0  2  0  0  0  0  0  0  0  0  0
   20.8803   71.0972   -3.7344 C   0  0  1  0  0  0  0  0  0  0  0  0
   23.0975   70.9464   -1.8813 C   0  0  1  0  0  0  0  0  0  0  0  0
   20.9625   71.8553   -2.4127 C   0  0  1  0  0  0  0  0  0  0  0  0
   22.9797   69.5454   -5.6705 H   0  0  0  0  0  0  0  0  0  0  0  0
   24.4448   69.3235   -4.3627 H   0  0  0  0  0  0  0  0  0  0  0  0
   20.1739   71.4564   -5.5426 H   0  0  0  0  0  0  0  0  0  0  0  0
   19.7395   72.3310   -0.4686 O   0  0  0  0  0  0  0  0  0  0  0  0
   18.5603   71.6586   -2.3007 O   0  0  0  0  0  0  0  0  0  0  0  0
   19.6217   71.9255   -1.7572 C   0  0  0  0  0  0  0  0  0  0  0  0
  1  4  1  0
  1 24  1  0
  1  2  1  6
  1  3  2  0
 25 28  1  0
 25 24  1  0
 25 26  1  1
 25 27  2  0
  6 11  1  0
  6 12  1  0
 29 36  1  0
 29 37  1  0
  9  7  1  1
  7 13  1  0
 10  8  1  1
  8 14  1  0
  4  5  1  0
 36 28  1  6
 33 30  1  6
 30 38  1  0
 34 31  1  6
 31 39  1  0
 35 32  1  6
 32 40  1  0
 41 43  1  0
 15 19  2  0
 42 43  2  0
 16 22  2  0
 12 17  1  6
 17 19  1  0
 17 20  1  0
 18 19  1  0
 18 22  1  0
 18 23  1  0
  9 10  1  0
  9 11  1  0
 10 12  1  0
 11  5  1  6
 33 34  1  0
 33 35  1  0
 34 36  1  0
 35 37  1  0
 37 43  1  1
 20 21  2  0
 21 22  1  0
M  CHG  3   2  -1  26  -1  41  -1
M  END
>  <COMPND>  (190) 
    udp_gluA.pdb 

>  <AUTHOR>  (190) 
    GENERATED BY OPEN BABEL 3.1.1

>  <MASTER>  (190) 
        0    0    0    0    0    0    0    0   56    0   56    0

>  <minimizedAffinity>  (190) 
-6.62277

>  <CNNscore>  (190) 
0.4539932311

>  <CNNaffinity>  (190) 
4.4219279289

>  <CNN_VS>  (190) 
2.0075254440

>  <CNNaffinity_variance>  (190) 
0.3424353302

$$$$
191
     RDKit          3D

 43 45  0  0  0  0  0  0  0  0999 V2000
   30.1348   71.0159   -0.2082 P   0  0  2  0  0  0  0  0  0  0  0  0
   31.6608   71.5488   -0.1303 O   0  0  0  0  0  0  0  0  0  0  0  0
   29.7604   70.0107    0.8412 O   0  0  0  0  0  0  0  0  0  0  0  0
   29.9725   70.5247   -1.7413 O   0  0  0  0  0  0  0  0  0  0  0  0
   31.1025   69.9843   -2.4013 C   0  0  0  0  0  0  0  0  0  0  0  0
   29.3584   68.3605   -2.7160 O   0  0  0  0  0  0  0  0  0  0  0  0
   31.2839   66.9127   -4.5014 O   0  0  0  0  0  0  0  0  0  0  0  0
   29.6661   68.1936   -6.2841 O   0  0  0  0  0  0  0  0  0  0  0  0
   31.0981   68.3171   -4.3230 C   0  0  1  0  0  0  0  0  0  0  0  0
   29.8229   68.7677   -5.0034 C   0  0  2  0  0  0  0  0  0  0  0  0
   30.7810   68.5661   -2.8547 C   0  0  1  0  0  0  0  0  0  0  0  0
   28.7606   68.3046   -4.0210 C   0  0  2  0  0  0  0  0  0  0  0  0
   31.4877   66.7289   -5.4322 H   0  0  0  0  0  0  0  0  0  0  0  0
   30.3657   68.5198   -6.8725 H   0  0  0  0  0  0  0  0  0  0  0  0
   26.1726   67.4555   -3.2741 O   0  0  0  0  0  0  0  0  0  0  0  0
   24.3661   71.6099   -4.1231 O   0  0  0  0  0  0  0  0  0  0  0  0
   27.5960   69.1437   -4.0374 N   0  0  0  0  0  0  0  0  0  0  0  0
   25.2752   69.5252   -3.6987 N   0  0  0  0  0  0  0  0  0  0  0  0
   26.3424   68.6191   -3.6431 C   0  0  0  0  0  0  0  0  0  0  0  0
   27.7021   70.4698   -4.4387 C   0  0  0  0  0  0  0  0  0  0  0  0
   26.6758   71.3215   -4.4863 C   0  0  0  0  0  0  0  0  0  0  0  0
   25.3314   70.8526   -4.0915 C   0  0  0  0  0  0  0  0  0  0  0  0
   24.3920   69.1823   -3.4308 H   0  0  0  0  0  0  0  0  0  0  0  0
   29.2711   72.3817   -0.1709 O   0  0  0  0  0  0  0  0  0  0  0  0
   27.6740   72.6264   -0.1159 P   0  0  2  0  0  0  0  0  0  0  0  0
   27.0842   71.4253   -1.0269 O   0  0  0  0  0  0  0  0  0  0  0  0
   27.2460   73.9987   -0.5492 O   0  0  0  0  0  0  0  0  0  0  0  0
   27.2521   72.2386    1.3921 O   0  0  0  0  0  0  0  0  0  0  0  0
   25.1060   72.7781    2.2360 O   0  0  0  0  0  0  0  0  0  0  0  0
   27.2432   72.1472    5.7149 O   0  0  0  0  0  0  0  0  0  0  0  0
   28.4325   73.6261    3.4939 O   0  0  0  0  0  0  0  0  0  0  0  0
   25.3708   70.1354    4.7675 O   0  0  0  0  0  0  0  0  0  0  0  0
   26.8978   71.9503    4.3438 C   0  0  2  0  0  0  0  0  0  0  0  0
   27.0588   73.2657    3.5815 C   0  0  2  0  0  0  0  0  0  0  0  0
   25.4440   71.4759    4.2858 C   0  0  1  0  0  0  0  0  0  0  0  0
   26.4822   73.1538    2.1694 C   0  0  1  0  0  0  0  0  0  0  0  0
   24.9027   71.5120    2.8595 C   0  0  1  0  0  0  0  0  0  0  0  0
   28.1632   72.4490    5.7766 H   0  0  0  0  0  0  0  0  0  0  0  0
   28.8048   73.6986    4.3863 H   0  0  0  0  0  0  0  0  0  0  0  0
   25.7126   70.0986    5.6745 H   0  0  0  0  0  0  0  0  0  0  0  0
   22.9183   71.4813    4.1095 O   0  0  0  0  0  0  0  0  0  0  0  0
   22.7333   71.1812    1.8568 O   0  0  0  0  0  0  0  0  0  0  0  0
   23.4154   71.3697    2.8528 C   0  0  0  0  0  0  0  0  0  0  0  0
  1  4  1  0
  1 24  1  0
  1  2  1  1
  1  3  2  0
 25 28  1  0
 25 24  1  0
 25 26  1  6
 25 27  2  0
  6 11  1  0
  6 12  1  0
 29 36  1  0
 29 37  1  0
  9  7  1  1
  7 13  1  0
 10  8  1  6
  8 14  1  0
  4  5  1  0
 36 28  1  6
 33 30  1  1
 30 38  1  0
 34 31  1  6
 31 39  1  0
 35 32  1  6
 32 40  1  0
 41 43  1  0
 15 19  2  0
 42 43  2  0
 16 22  2  0
 12 17  1  1
 17 19  1  0
 17 20  1  0
 18 19  1  0
 18 22  1  0
 18 23  1  0
  9 10  1  0
  9 11  1  0
 10 12  1  0
 11  5  1  6
 33 34  1  0
 33 35  1  0
 34 36  1  0
 35 37  1  0
 37 43  1  1
 20 21  2  0
 21 22  1  0
M  CHG  3   2  -1  26  -1  41  -1
M  END
>  <COMPND>  (191) 
    udp_gluA.pdb 

>  <AUTHOR>  (191) 
    GENERATED BY OPEN BABEL 3.1.1

>  <MASTER>  (191) 
        0    0    0    0    0    0    0    0   56    0   56    0

>  <minimizedAffinity>  (191) 
-6.93344

>  <CNNscore>  (191) 
0.4416455626

>  <CNNaffinity>  (191) 
4.0918817520

>  <CNN_VS>  (191) 
1.8071614504

>  <CNNaffinity_variance>  (191) 
0.2569606006

$$$$
192
     RDKit          3D

 43 45  0  0  0  0  0  0  0  0999 V2000
   25.3672   72.7456    1.3204 P   0  0  2  0  0  0  0  0  0  0  0  0
   24.5087   71.9351    0.2137 O   0  0  0  0  0  0  0  0  0  0  0  0
   24.5642   73.6543    2.2043 O   0  0  0  0  0  0  0  0  0  0  0  0
   26.5377   73.4572    0.4593 O   0  0  0  0  0  0  0  0  0  0  0  0
   26.1993   74.0506   -0.7808 C   0  0  0  0  0  0  0  0  0  0  0  0
   26.9212   72.2092   -2.1467 O   0  0  0  0  0  0  0  0  0  0  0  0
   28.3152   74.2538   -3.8402 O   0  0  0  0  0  0  0  0  0  0  0  0
   26.0584   73.7280   -5.2777 O   0  0  0  0  0  0  0  0  0  0  0  0
   27.0667   74.3482   -3.1539 C   0  0  1  0  0  0  0  0  0  0  0  0
   26.0082   73.5439   -3.8783 C   0  0  2  0  0  0  0  0  0  0  0  0
   27.1958   73.5930   -1.8381 C   0  0  1  0  0  0  0  0  0  0  0  0
   26.3518   72.1237   -3.4626 C   0  0  2  0  0  0  0  0  0  0  0  0
   28.2572   74.7291   -4.6843 H   0  0  0  0  0  0  0  0  0  0  0  0
   25.8318   74.6472   -5.4912 H   0  0  0  0  0  0  0  0  0  0  0  0
   26.4442   69.3043   -3.6016 O   0  0  0  0  0  0  0  0  0  0  0  0
   21.8596   68.9559   -3.2796 O   0  0  0  0  0  0  0  0  0  0  0  0
   25.1974   71.2715   -3.4174 N   0  0  0  0  0  0  0  0  0  0  0  0
   24.1607   69.1335   -3.4421 N   0  0  0  0  0  0  0  0  0  0  0  0
   25.3531   69.8673   -3.4949 C   0  0  0  0  0  0  0  0  0  0  0  0
   23.9295   71.8271   -3.2958 C   0  0  0  0  0  0  0  0  0  0  0  0
   22.8022   71.1148   -3.2467 C   0  0  0  0  0  0  0  0  0  0  0  0
   22.8770   69.6410   -3.3224 C   0  0  0  0  0  0  0  0  0  0  0  0
   24.2436   68.1540   -3.4964 H   0  0  0  0  0  0  0  0  0  0  0  0
   26.1545   71.5696    2.1015 O   0  0  0  0  0  0  0  0  0  0  0  0
   27.4780   71.6127    3.0290 P   0  0  2  0  0  0  0  0  0  0  0  0
   27.1959   70.4599    4.1298 O   0  0  0  0  0  0  0  0  0  0  0  0
   27.7781   72.9636    3.6113 O   0  0  0  0  0  0  0  0  0  0  0  0
   28.6496   71.0093    2.0986 O   0  0  0  0  0  0  0  0  0  0  0  0
   30.6932   72.1877    2.3095 O   0  0  0  0  0  0  0  0  0  0  0  0
   31.5208   69.6231   -0.8219 O   0  0  0  0  0  0  0  0  0  0  0  0
   28.9423   70.9876   -0.6673 O   0  0  0  0  0  0  0  0  0  0  0  0
   32.5989   69.0900    1.8247 O   0  0  0  0  0  0  0  0  0  0  0  0
   30.9026   70.0338    0.3975 C   0  0  2  0  0  0  0  0  0  0  0  0
   30.0672   71.2902    0.1499 C   0  0  2  0  0  0  0  0  0  0  0  0
   32.0089   70.3223    1.4148 C   0  0  1  0  0  0  0  0  0  0  0  0
   29.5778   71.8904    1.4686 C   0  0  1  0  0  0  0  0  0  0  0  0
   31.4601   71.0342    2.6479 C   0  0  1  0  0  0  0  0  0  0  0  0
   30.8369   69.4343   -1.4838 H   0  0  0  0  0  0  0  0  0  0  0  0
   29.2455   70.6060   -1.5056 H   0  0  0  0  0  0  0  0  0  0  0  0
   32.9520   68.6268    1.0490 H   0  0  0  0  0  0  0  0  0  0  0  0
   32.7591   70.8601    4.5930 O   0  0  0  0  0  0  0  0  0  0  0  0
   33.2252   72.5898    3.1824 O   0  0  0  0  0  0  0  0  0  0  0  0
   32.5705   71.5996    3.4721 C   0  0  0  0  0  0  0  0  0  0  0  0
  1  4  1  0
  1 24  1  0
  1  2  1  6
  1  3  2  0
 25 28  1  0
 25 24  1  0
 25 26  1  1
 25 27  2  0
  6 11  1  0
  6 12  1  0
 29 36  1  0
 29 37  1  0
  9  7  1  6
  7 13  1  0
 10  8  1  6
  8 14  1  0
  4  5  1  0
 36 28  1  1
 33 30  1  6
 30 38  1  0
 34 31  1  6
 31 39  1  0
 35 32  1  1
 32 40  1  0
 41 43  1  0
 15 19  2  0
 42 43  2  0
 16 22  2  0
 12 17  1  1
 17 19  1  0
 17 20  1  0
 18 19  1  0
 18 22  1  0
 18 23  1  0
  9 10  1  0
  9 11  1  0
 10 12  1  0
 11  5  1  1
 33 34  1  0
 33 35  1  0
 34 36  1  0
 35 37  1  0
 37 43  1  1
 20 21  2  0
 21 22  1  0
M  CHG  3   2  -1  26  -1  41  -1
M  END
>  <COMPND>  (192) 
    udp_gluA.pdb 

>  <AUTHOR>  (192) 
    GENERATED BY OPEN BABEL 3.1.1

>  <MASTER>  (192) 
        0    0    0    0    0    0    0    0   56    0   56    0

>  <minimizedAffinity>  (192) 
-6.57264

>  <CNNscore>  (192) 
0.4067331254

>  <CNNaffinity>  (192) 
4.0085606575

>  <CNN_VS>  (192) 
1.6304143667

>  <CNNaffinity_variance>  (192) 
0.1594439447

$$$$
193
     RDKit          3D

 43 45  0  0  0  0  0  0  0  0999 V2000
   25.4775   74.1320   -4.5575 P   0  0  2  0  0  0  0  0  0  0  0  0
   25.0365   73.8598   -6.0906 O   0  0  0  0  0  0  0  0  0  0  0  0
   26.7414   74.9239   -4.3929 O   0  0  0  0  0  0  0  0  0  0  0  0
   25.4783   72.6598   -3.8863 O   0  0  0  0  0  0  0  0  0  0  0  0
   26.5148   71.7595   -4.2323 C   0  0  0  0  0  0  0  0  0  0  0  0
   27.6981   70.0298   -3.0552 O   0  0  0  0  0  0  0  0  0  0  0  0
   28.9906   72.2368   -1.4899 O   0  0  0  0  0  0  0  0  0  0  0  0
   30.9235   71.5765   -3.2965 O   0  0  0  0  0  0  0  0  0  0  0  0
   28.6145   72.2059   -2.8669 C   0  0  1  0  0  0  0  0  0  0  0  0
   29.5774   71.3424   -3.6540 C   0  0  2  0  0  0  0  0  0  0  0  0
   27.3153   71.4203   -2.9815 C   0  0  1  0  0  0  0  0  0  0  0  0
   29.1118   69.9419   -3.2938 C   0  0  2  0  0  0  0  0  0  0  0  0
   29.8184   72.7336   -1.3915 H   0  0  0  0  0  0  0  0  0  0  0  0
   31.1719   72.4808   -3.5466 H   0  0  0  0  0  0  0  0  0  0  0  0
   30.9943   67.8409   -3.1584 O   0  0  0  0  0  0  0  0  0  0  0  0
   29.9392   66.3778   -7.3999 O   0  0  0  0  0  0  0  0  0  0  0  0
   29.3495   68.9973   -4.3483 N   0  0  0  0  0  0  0  0  0  0  0  0
   30.4677   67.1148   -5.2714 N   0  0  0  0  0  0  0  0  0  0  0  0
   30.3180   67.9796   -4.1793 C   0  0  0  0  0  0  0  0  0  0  0  0
   28.6269   69.0830   -5.5322 C   0  0  0  0  0  0  0  0  0  0  0  0
   28.7807   68.2512   -6.5643 C   0  0  0  0  0  0  0  0  0  0  0  0
   29.7730   67.1605   -6.4693 C   0  0  0  0  0  0  0  0  0  0  0  0
   31.1377   66.3994   -5.1780 H   0  0  0  0  0  0  0  0  0  0  0  0
   24.1626   74.8218   -3.9188 O   0  0  0  0  0  0  0  0  0  0  0  0
   23.5609   74.7734   -2.4190 P   0  0  2  0  0  0  0  0  0  0  0  0
   22.3852   75.8854   -2.4561 O   0  0  0  0  0  0  0  0  0  0  0  0
   24.5813   74.9881   -1.3389 O   0  0  0  0  0  0  0  0  0  0  0  0
   22.7840   73.3620   -2.3351 O   0  0  0  0  0  0  0  0  0  0  0  0
   21.4149   73.1520   -4.2562 O   0  0  0  0  0  0  0  0  0  0  0  0
   20.5779   69.6446   -2.2398 O   0  0  0  0  0  0  0  0  0  0  0  0
   20.8039   72.1696   -0.7880 O   0  0  0  0  0  0  0  0  0  0  0  0
   22.3056   69.6072   -4.5774 O   0  0  0  0  0  0  0  0  0  0  0  0
   21.3846   70.7438   -2.6631 C   0  0  2  0  0  0  0  0  0  0  0  0
   20.7445   72.0545   -2.2050 C   0  0  2  0  0  0  0  0  0  0  0  0
   21.4773   70.7019   -4.1900 C   0  0  1  0  0  0  0  0  0  0  0  0
   21.4512   73.2570   -2.8324 C   0  0  1  0  0  0  0  0  0  0  0  0
   22.0782   71.9892   -4.7471 C   0  0  1  0  0  0  0  0  0  0  0  0
   20.5047   69.6507   -1.2724 H   0  0  0  0  0  0  0  0  0  0  0  0
   20.3576   71.4097   -0.3833 H   0  0  0  0  0  0  0  0  0  0  0  0
   21.9343   68.7816   -4.2290 H   0  0  0  0  0  0  0  0  0  0  0  0
   21.7685   73.3737   -6.6150 O   0  0  0  0  0  0  0  0  0  0  0  0
   21.7875   71.1231   -6.9803 O   0  0  0  0  0  0  0  0  0  0  0  0
   21.8643   72.0790   -6.2231 C   0  0  0  0  0  0  0  0  0  0  0  0
  1  4  1  0
  1 24  1  0
  1  2  1  6
  1  3  2  0
 25 28  1  0
 25 24  1  0
 25 26  1  6
 25 27  2  0
  6 11  1  0
  6 12  1  0
 29 36  1  0
 29 37  1  0
  9  7  1  1
  7 13  1  0
 10  8  1  1
  8 14  1  0
  4  5  1  0
 36 28  1  1
 33 30  1  6
 30 38  1  0
 34 31  1  1
 31 39  1  0
 35 32  1  1
 32 40  1  0
 41 43  1  0
 15 19  2  0
 42 43  2  0
 16 22  2  0
 12 17  1  6
 17 19  1  0
 17 20  1  0
 18 19  1  0
 18 22  1  0
 18 23  1  0
  9 10  1  0
  9 11  1  0
 10 12  1  0
 11  5  1  6
 33 34  1  0
 33 35  1  0
 34 36  1  0
 35 37  1  0
 37 43  1  6
 20 21  2  0
 21 22  1  0
M  CHG  3   2  -1  26  -1  41  -1
M  END
>  <COMPND>  (193) 
    udp_gluA.pdb 

>  <AUTHOR>  (193) 
    GENERATED BY OPEN BABEL 3.1.1

>  <MASTER>  (193) 
        0    0    0    0    0    0    0    0   56    0   56    0

>  <minimizedAffinity>  (193) 
-7.18709

>  <CNNscore>  (193) 
0.3856250346

>  <CNNaffinity>  (193) 
4.2794556618

>  <CNN_VS>  (193) 
1.6502652168

>  <CNNaffinity_variance>  (193) 
0.0744364411

$$$$
194
     RDKit          3D

 43 45  0  0  0  0  0  0  0  0999 V2000
   23.3652   71.7204   -3.5742 P   0  0  2  0  0  0  0  0  0  0  0  0
   23.3759   72.1969   -2.0277 O   0  0  0  0  0  0  0  0  0  0  0  0
   22.9241   70.3036   -3.7975 O   0  0  0  0  0  0  0  0  0  0  0  0
   24.8499   72.0857   -4.1036 O   0  0  0  0  0  0  0  0  0  0  0  0
   25.7471   71.0271   -4.3843 C   0  0  0  0  0  0  0  0  0  0  0  0
   27.1114   69.4165   -3.2344 O   0  0  0  0  0  0  0  0  0  0  0  0
   28.2450   71.7390   -1.7138 O   0  0  0  0  0  0  0  0  0  0  0  0
   30.1787   71.2420   -3.5712 O   0  0  0  0  0  0  0  0  0  0  0  0
   27.8355   71.6665   -3.0797 C   0  0  1  0  0  0  0  0  0  0  0  0
   28.8494   70.8871   -3.8901 C   0  0  2  0  0  0  0  0  0  0  0  0
   26.6087   70.7679   -3.1552 C   0  0  1  0  0  0  0  0  0  0  0  0
   28.5202   69.4530   -3.5120 C   0  0  2  0  0  0  0  0  0  0  0  0
   29.0277   72.3080   -1.6403 H   0  0  0  0  0  0  0  0  0  0  0  0
   30.3387   72.1632   -3.8314 H   0  0  0  0  0  0  0  0  0  0  0  0
   31.0570   68.2969   -3.9647 O   0  0  0  0  0  0  0  0  0  0  0  0
   29.5240   65.9121   -7.5988 O   0  0  0  0  0  0  0  0  0  0  0  0
   28.8120   68.5268   -4.5693 N   0  0  0  0  0  0  0  0  0  0  0  0
   30.2913   67.1110   -5.7749 N   0  0  0  0  0  0  0  0  0  0  0  0
   30.1195   68.0047   -4.7095 C   0  0  0  0  0  0  0  0  0  0  0  0
   27.8094   68.1436   -5.4520 C   0  0  0  0  0  0  0  0  0  0  0  0
   27.9883   67.2907   -6.4626 C   0  0  0  0  0  0  0  0  0  0  0  0
   29.3253   66.7001   -6.6791 C   0  0  0  0  0  0  0  0  0  0  0  0
   31.1937   66.7358   -5.8939 H   0  0  0  0  0  0  0  0  0  0  0  0
   22.4394   72.8348   -4.2910 O   0  0  0  0  0  0  0  0  0  0  0  0
   21.7449   72.8586   -5.7507 P   0  0  2  0  0  0  0  0  0  0  0  0
   22.7063   71.9009   -6.6333 O   0  0  0  0  0  0  0  0  0  0  0  0
   21.5530   74.2348   -6.3190 O   0  0  0  0  0  0  0  0  0  0  0  0
   20.3830   72.0130   -5.5699 O   0  0  0  0  0  0  0  0  0  0  0  0
   18.7263   72.5908   -7.1607 O   0  0  0  0  0  0  0  0  0  0  0  0
   16.6369   70.0583   -4.6529 O   0  0  0  0  0  0  0  0  0  0  0  0
   18.4673   72.0523   -3.5538 O   0  0  0  0  0  0  0  0  0  0  0  0
   17.5258   69.1251   -7.2587 O   0  0  0  0  0  0  0  0  0  0  0  0
   17.7849   70.5577   -5.3389 C   0  0  2  0  0  0  0  0  0  0  0  0
   18.0477   72.0022   -4.9125 C   0  0  2  0  0  0  0  0  0  0  0  0
   17.5048   70.4890   -6.8418 C   0  0  1  0  0  0  0  0  0  0  0  0
   19.1231   72.6446   -5.7899 C   0  0  1  0  0  0  0  0  0  0  0  0
   18.5532   71.2590   -7.6397 C   0  0  1  0  0  0  0  0  0  0  0  0
   16.7917   70.0923   -3.6958 H   0  0  0  0  0  0  0  0  0  0  0  0
   17.7897   71.6461   -2.9914 H   0  0  0  0  0  0  0  0  0  0  0  0
   16.8631   68.6238   -6.7583 H   0  0  0  0  0  0  0  0  0  0  0  0
   18.5032   70.4369   -9.8358 O   0  0  0  0  0  0  0  0  0  0  0  0
   17.4562   72.4244   -9.4452 O   0  0  0  0  0  0  0  0  0  0  0  0
   18.1013   71.4654   -9.0488 C   0  0  0  0  0  0  0  0  0  0  0  0
  1  4  1  0
  1 24  1  0
  1  2  1  1
  1  3  2  0
 25 28  1  0
 25 24  1  0
 25 26  1  6
 25 27  2  0
  6 11  1  0
  6 12  1  0
 29 36  1  0
 29 37  1  0
  9  7  1  1
  7 13  1  0
 10  8  1  1
  8 14  1  0
  4  5  1  0
 36 28  1  6
 33 30  1  1
 30 38  1  0
 34 31  1  1
 31 39  1  0
 35 32  1  6
 32 40  1  0
 41 43  1  0
 15 19  2  0
 42 43  2  0
 16 22  2  0
 12 17  1  6
 17 19  1  0
 17 20  1  0
 18 19  1  0
 18 22  1  0
 18 23  1  0
  9 10  1  0
  9 11  1  0
 10 12  1  0
 11  5  1  6
 33 34  1  0
 33 35  1  0
 34 36  1  0
 35 37  1  0
 37 43  1  6
 20 21  2  0
 21 22  1  0
M  CHG  3   2  -1  26  -1  41  -1
M  END
>  <COMPND>  (194) 
    udp_gluA.pdb 

>  <AUTHOR>  (194) 
    GENERATED BY OPEN BABEL 3.1.1

>  <MASTER>  (194) 
        0    0    0    0    0    0    0    0   56    0   56    0

>  <minimizedAffinity>  (194) 
-6.67554

>  <CNNscore>  (194) 
0.3734028637

>  <CNNaffinity>  (194) 
4.3578457832

>  <CNN_VS>  (194) 
1.6272320747

>  <CNNaffinity_variance>  (194) 
0.1111015454

$$$$
195
     RDKit          3D

 43 45  0  0  0  0  0  0  0  0999 V2000
   28.8564   72.6428    0.1688 P   0  0  2  0  0  0  0  0  0  0  0  0
   29.0915   74.0432   -0.6073 O   0  0  0  0  0  0  0  0  0  0  0  0
   27.7719   71.7766   -0.4016 O   0  0  0  0  0  0  0  0  0  0  0  0
   28.6647   73.0824    1.7141 O   0  0  0  0  0  0  0  0  0  0  0  0
   28.3723   72.0805    2.6708 C   0  0  0  0  0  0  0  0  0  0  0  0
   26.3361   73.2825    3.1025 O   0  0  0  0  0  0  0  0  0  0  0  0
   26.5598   72.2793    5.9194 O   0  0  0  0  0  0  0  0  0  0  0  0
   24.7012   70.6037    4.8359 O   0  0  0  0  0  0  0  0  0  0  0  0
   26.9032   71.6256    4.6974 C   0  0  1  0  0  0  0  0  0  0  0  0
   25.6511   71.1862    3.9683 C   0  0  2  0  0  0  0  0  0  0  0  0
   27.4735   72.6715    3.7492 C   0  0  1  0  0  0  0  0  0  0  0  0
   25.1655   72.4912    3.3608 C   0  0  2  0  0  0  0  0  0  0  0  0
   26.1931   71.6310    6.5413 H   0  0  0  0  0  0  0  0  0  0  0  0
   25.0573   69.7759    5.1964 H   0  0  0  0  0  0  0  0  0  0  0  0
   22.6338   71.2552    3.1615 O   0  0  0  0  0  0  0  0  0  0  0  0
   22.5360   71.7787   -1.4168 O   0  0  0  0  0  0  0  0  0  0  0  0
   24.4556   72.2916    2.1291 N   0  0  0  0  0  0  0  0  0  0  0  0
   22.5880   71.5162    0.8813 N   0  0  0  0  0  0  0  0  0  0  0  0
   23.1896   71.6597    2.1385 C   0  0  0  0  0  0  0  0  0  0  0  0
   25.0122   72.7208    0.9304 C   0  0  0  0  0  0  0  0  0  0  0  0
   24.4266   72.5771   -0.2601 C   0  0  0  0  0  0  0  0  0  0  0  0
   23.1024   71.9262   -0.3381 C   0  0  0  0  0  0  0  0  0  0  0  0
   21.7069   71.0773    0.8623 H   0  0  0  0  0  0  0  0  0  0  0  0
   30.3273   71.9725    0.1614 O   0  0  0  0  0  0  0  0  0  0  0  0
   30.8029   70.4601   -0.1551 P   0  0  2  0  0  0  0  0  0  0  0  0
   30.0343   69.5873    0.9709 O   0  0  0  0  0  0  0  0  0  0  0  0
   32.2925   70.2738   -0.1717 O   0  0  0  0  0  0  0  0  0  0  0  0
   30.0652   70.0801   -1.5385 O   0  0  0  0  0  0  0  0  0  0  0  0
   31.1679   69.2066   -3.4439 O   0  0  0  0  0  0  0  0  0  0  0  0
   27.7982   70.9037   -5.1270 O   0  0  0  0  0  0  0  0  0  0  0  0
   29.2596   72.2955   -3.0148 O   0  0  0  0  0  0  0  0  0  0  0  0
   27.9802   68.0188   -4.8188 O   0  0  0  0  0  0  0  0  0  0  0  0
   28.5590   70.2484   -4.1123 C   0  0  2  0  0  0  0  0  0  0  0  0
   29.7304   71.1383   -3.6959 C   0  0  2  0  0  0  0  0  0  0  0  0
   29.0728   68.9261   -4.6862 C   0  0  1  0  0  0  0  0  0  0  0  0
   30.6952   70.3808   -2.7825 C   0  0  1  0  0  0  0  0  0  0  0  0
   30.1233   68.2950   -3.7771 C   0  0  1  0  0  0  0  0  0  0  0  0
   27.4613   71.7469   -4.7851 H   0  0  0  0  0  0  0  0  0  0  0  0
   28.6467   72.7808   -3.5885 H   0  0  0  0  0  0  0  0  0  0  0  0
   27.3043   68.4086   -5.3950 H   0  0  0  0  0  0  0  0  0  0  0  0
   31.7926   66.6500   -3.6815 O   0  0  0  0  0  0  0  0  0  0  0  0
   30.6271   66.8371   -5.6324 O   0  0  0  0  0  0  0  0  0  0  0  0
   30.8488   67.1982   -4.4863 C   0  0  0  0  0  0  0  0  0  0  0  0
  1  4  1  0
  1 24  1  0
  1  2  1  6
  1  3  2  0
 25 28  1  0
 25 24  1  0
 25 26  1  1
 25 27  2  0
  6 11  1  0
  6 12  1  0
 29 36  1  0
 29 37  1  0
  9  7  1  1
  7 13  1  0
 10  8  1  1
  8 14  1  0
  4  5  1  0
 36 28  1  1
 33 30  1  6
 30 38  1  0
 34 31  1  1
 31 39  1  0
 35 32  1  1
 32 40  1  0
 41 43  1  0
 15 19  2  0
 42 43  2  0
 16 22  2  0
 12 17  1  6
 17 19  1  0
 17 20  1  0
 18 19  1  0
 18 22  1  0
 18 23  1  0
  9 10  1  0
  9 11  1  0
 10 12  1  0
 11  5  1  6
 33 34  1  0
 33 35  1  0
 34 36  1  0
 35 37  1  0
 37 43  1  6
 20 21  2  0
 21 22  1  0
M  CHG  3   2  -1  26  -1  41  -1
M  END
>  <COMPND>  (195) 
    udp_gluA.pdb 

>  <AUTHOR>  (195) 
    GENERATED BY OPEN BABEL 3.1.1

>  <MASTER>  (195) 
        0    0    0    0    0    0    0    0   56    0   56    0

>  <minimizedAffinity>  (195) 
-6.63401

>  <CNNscore>  (195) 
0.3728176057

>  <CNNaffinity>  (195) 
3.8997912407

>  <CNN_VS>  (195) 
1.4539108276

>  <CNNaffinity_variance>  (195) 
0.2298696786

$$$$
196
     RDKit          3D

 43 45  0  0  0  0  0  0  0  0999 V2000
   22.2638   72.8986   -4.4466 P   0  0  2  0  0  0  0  0  0  0  0  0
   21.8606   72.1055   -3.0948 O   0  0  0  0  0  0  0  0  0  0  0  0
   22.1743   74.3937   -4.3545 O   0  0  0  0  0  0  0  0  0  0  0  0
   21.3490   72.2090   -5.5892 O   0  0  0  0  0  0  0  0  0  0  0  0
   20.6368   73.0461   -6.4816 C   0  0  0  0  0  0  0  0  0  0  0  0
   20.1298   71.1751   -7.9028 O   0  0  0  0  0  0  0  0  0  0  0  0
   20.5956   73.0369  -10.2067 O   0  0  0  0  0  0  0  0  0  0  0  0
   17.8746   72.9563  -10.0465 O   0  0  0  0  0  0  0  0  0  0  0  0
   20.0081   73.3044   -8.9333 C   0  0  1  0  0  0  0  0  0  0  0  0
   18.6132   72.7195   -8.8663 C   0  0  2  0  0  0  0  0  0  0  0  0
   20.7501   72.4791   -7.8909 C   0  0  1  0  0  0  0  0  0  0  0  0
   18.9002   71.2446   -8.6420 C   0  0  2  0  0  0  0  0  0  0  0  0
   20.1380   73.5531  -10.8892 H   0  0  0  0  0  0  0  0  0  0  0  0
   17.7177   73.9091  -10.1440 H   0  0  0  0  0  0  0  0  0  0  0  0
   16.5331   70.1911   -9.7661 O   0  0  0  0  0  0  0  0  0  0  0  0
   14.9998   68.7670   -5.6594 O   0  0  0  0  0  0  0  0  0  0  0  0
   17.8655   70.5933   -7.8896 N   0  0  0  0  0  0  0  0  0  0  0  0
   15.7712   69.4837   -7.7195 N   0  0  0  0  0  0  0  0  0  0  0  0
   16.7161   70.0996   -8.5508 C   0  0  0  0  0  0  0  0  0  0  0  0
   17.9955   70.4474   -6.5138 C   0  0  0  0  0  0  0  0  0  0  0  0
   17.0864   69.8579   -5.7348 C   0  0  0  0  0  0  0  0  0  0  0  0
   15.8557   69.3156   -6.3469 C   0  0  0  0  0  0  0  0  0  0  0  0
   14.9614   69.1339   -8.1569 H   0  0  0  0  0  0  0  0  0  0  0  0
   23.7418   72.3314   -4.7730 O   0  0  0  0  0  0  0  0  0  0  0  0
   25.1648   73.0880   -4.9005 P   0  0  2  0  0  0  0  0  0  0  0  0
   25.2834   73.8914   -3.5002 O   0  0  0  0  0  0  0  0  0  0  0  0
   25.2960   73.9513   -6.1218 O   0  0  0  0  0  0  0  0  0  0  0  0
   26.2645   71.9129   -4.7901 O   0  0  0  0  0  0  0  0  0  0  0  0
   26.4009   69.9394   -3.4879 O   0  0  0  0  0  0  0  0  0  0  0  0
   30.3393   71.1862   -3.5396 O   0  0  0  0  0  0  0  0  0  0  0  0
   28.1790   73.1182   -3.1720 O   0  0  0  0  0  0  0  0  0  0  0  0
   29.4939   68.9529   -5.1975 O   0  0  0  0  0  0  0  0  0  0  0  0
   29.0182   71.0198   -4.0544 C   0  0  2  0  0  0  0  0  0  0  0  0
   28.0166   71.7054   -3.1248 C   0  0  2  0  0  0  0  0  0  0  0  0
   28.7279   69.5195   -4.1360 C   0  0  1  0  0  0  0  0  0  0  0  0
   26.5798   71.3559   -3.5153 C   0  0  1  0  0  0  0  0  0  0  0  0
   27.2498   69.2518   -4.4043 C   0  0  1  0  0  0  0  0  0  0  0  0
   30.5460   72.1322   -3.4788 H   0  0  0  0  0  0  0  0  0  0  0  0
   29.0886   73.3471   -2.9256 H   0  0  0  0  0  0  0  0  0  0  0  0
   30.4367   69.1165   -5.0390 H   0  0  0  0  0  0  0  0  0  0  0  0
   27.2447   67.0573   -5.2322 O   0  0  0  0  0  0  0  0  0  0  0  0
   26.4210   67.3779   -3.1304 O   0  0  0  0  0  0  0  0  0  0  0  0
   26.9173   67.8163   -4.1572 C   0  0  0  0  0  0  0  0  0  0  0  0
  1  4  1  0
  1 24  1  0
  1  2  1  1
  1  3  2  0
 25 28  1  0
 25 24  1  0
 25 26  1  1
 25 27  2  0
  6 11  1  0
  6 12  1  0
 29 36  1  0
 29 37  1  0
  9  7  1  6
  7 13  1  0
 10  8  1  6
  8 14  1  0
  4  5  1  0
 36 28  1  6
 33 30  1  1
 30 38  1  0
 34 31  1  6
 31 39  1  0
 35 32  1  6
 32 40  1  0
 41 43  1  0
 15 19  2  0
 42 43  2  0
 16 22  2  0
 12 17  1  1
 17 19  1  0
 17 20  1  0
 18 19  1  0
 18 22  1  0
 18 23  1  0
  9 10  1  0
  9 11  1  0
 10 12  1  0
 11  5  1  1
 33 34  1  0
 33 35  1  0
 34 36  1  0
 35 37  1  0
 37 43  1  1
 20 21  2  0
 21 22  1  0
M  CHG  3   2  -1  26  -1  41  -1
M  END
>  <COMPND>  (196) 
    udp_gluA.pdb 

>  <AUTHOR>  (196) 
    GENERATED BY OPEN BABEL 3.1.1

>  <MASTER>  (196) 
        0    0    0    0    0    0    0    0   56    0   56    0

>  <minimizedAffinity>  (196) 
-7.57958

>  <CNNscore>  (196) 
0.3631913364

>  <CNNaffinity>  (196) 
4.1160569191

>  <CNN_VS>  (196) 
1.4949162006

>  <CNNaffinity_variance>  (196) 
0.0335159004

$$$$
197
     RDKit          3D

 43 45  0  0  0  0  0  0  0  0999 V2000
   31.8149   70.4740    0.8345 P   0  0  2  0  0  0  0  0  0  0  0  0
   32.5936   69.2389    1.5323 O   0  0  0  0  0  0  0  0  0  0  0  0
   32.4384   71.8212    1.0540 O   0  0  0  0  0  0  0  0  0  0  0  0
   30.2898   70.3132    1.3506 O   0  0  0  0  0  0  0  0  0  0  0  0
   29.4721   71.4673    1.4137 C   0  0  0  0  0  0  0  0  0  0  0  0
   28.8611   70.6129    3.5757 O   0  0  0  0  0  0  0  0  0  0  0  0
   26.2919   72.1221    3.2400 O   0  0  0  0  0  0  0  0  0  0  0  0
   27.7275   73.7495    4.8913 O   0  0  0  0  0  0  0  0  0  0  0  0
   27.6100   72.4778    2.8222 C   0  0  1  0  0  0  0  0  0  0  0  0
   28.4409   72.9030    4.0143 C   0  0  2  0  0  0  0  0  0  0  0  0
   28.3202   71.2071    2.3758 C   0  0  1  0  0  0  0  0  0  0  0  0
   28.7912   71.5670    4.6472 C   0  0  2  0  0  0  0  0  0  0  0  0
   25.8184   72.9181    3.5298 H   0  0  0  0  0  0  0  0  0  0  0  0
   27.5285   74.5865    4.4421 H   0  0  0  0  0  0  0  0  0  0  0  0
   29.1541   72.4807    7.2948 O   0  0  0  0  0  0  0  0  0  0  0  0
   33.6838   71.6398    7.1582 O   0  0  0  0  0  0  0  0  0  0  0  0
   30.0547   71.5978    5.3281 N   0  0  0  0  0  0  0  0  0  0  0  0
   31.4100   72.0620    7.2239 N   0  0  0  0  0  0  0  0  0  0  0  0
   30.1284   72.0758    6.6578 C   0  0  0  0  0  0  0  0  0  0  0  0
   31.2024   71.1566    4.6808 C   0  0  0  0  0  0  0  0  0  0  0  0
   32.4170   71.1493    5.2334 C   0  0  0  0  0  0  0  0  0  0  0  0
   32.5809   71.6335    6.6198 C   0  0  0  0  0  0  0  0  0  0  0  0
   31.4867   72.3921    8.1483 H   0  0  0  0  0  0  0  0  0  0  0  0
   31.7246   70.0180   -0.7136 O   0  0  0  0  0  0  0  0  0  0  0  0
   31.4310   70.8700   -2.0558 P   0  0  2  0  0  0  0  0  0  0  0  0
   32.8586   71.5640   -2.3731 O   0  0  0  0  0  0  0  0  0  0  0  0
   30.2875   71.8353   -1.9345 O   0  0  0  0  0  0  0  0  0  0  0  0
   31.2510   69.7611   -3.2134 O   0  0  0  0  0  0  0  0  0  0  0  0
   28.9425   69.2403   -3.1198 O   0  0  0  0  0  0  0  0  0  0  0  0
   30.1421   67.1433   -6.4712 O   0  0  0  0  0  0  0  0  0  0  0  0
   31.8048   67.1732   -4.0693 O   0  0  0  0  0  0  0  0  0  0  0  0
   28.6476   69.6203   -6.7572 O   0  0  0  0  0  0  0  0  0  0  0  0
   30.1655   68.2122   -5.5251 C   0  0  2  0  0  0  0  0  0  0  0  0
   30.4681   67.6570   -4.1331 C   0  0  2  0  0  0  0  0  0  0  0  0
   28.7928   68.8884   -5.5416 C   0  0  1  0  0  0  0  0  0  0  0  0
   30.2756   68.7313   -3.0619 C   0  0  1  0  0  0  0  0  0  0  0  0
   28.6326   69.8525   -4.3697 C   0  0  1  0  0  0  0  0  0  0  0  0
   31.0043   66.6986   -6.4783 H   0  0  0  0  0  0  0  0  0  0  0  0
   31.9341   66.4913   -4.7465 H   0  0  0  0  0  0  0  0  0  0  0  0
   28.7475   69.0182   -7.5111 H   0  0  0  0  0  0  0  0  0  0  0  0
   26.5398   69.3478   -3.4387 O   0  0  0  0  0  0  0  0  0  0  0  0
   26.6929   71.2529   -4.6822 O   0  0  0  0  0  0  0  0  0  0  0  0
   27.2025   70.2513   -4.2025 C   0  0  0  0  0  0  0  0  0  0  0  0
  1  4  1  0
  1 24  1  0
  1  2  1  1
  1  3  2  0
 25 28  1  0
 25 24  1  0
 25 26  1  6
 25 27  2  0
  6 11  1  0
  6 12  1  0
 29 36  1  0
 29 37  1  0
  9  7  1  1
  7 13  1  0
 10  8  1  1
  8 14  1  0
  4  5  1  0
 36 28  1  6
 33 30  1  6
 30 38  1  0
 34 31  1  6
 31 39  1  0
 35 32  1  6
 32 40  1  0
 41 43  1  0
 15 19  2  0
 42 43  2  0
 16 22  2  0
 12 17  1  6
 17 19  1  0
 17 20  1  0
 18 19  1  0
 18 22  1  0
 18 23  1  0
  9 10  1  0
  9 11  1  0
 10 12  1  0
 11  5  1  6
 33 34  1  0
 33 35  1  0
 34 36  1  0
 35 37  1  0
 37 43  1  1
 20 21  2  0
 21 22  1  0
M  CHG  3   2  -1  26  -1  41  -1
M  END
>  <COMPND>  (197) 
    udp_gluA.pdb 

>  <AUTHOR>  (197) 
    GENERATED BY OPEN BABEL 3.1.1

>  <MASTER>  (197) 
        0    0    0    0    0    0    0    0   56    0   56    0

>  <minimizedAffinity>  (197) 
-7.26724

>  <CNNscore>  (197) 
0.3521273136

>  <CNNaffinity>  (197) 
3.8510737419

>  <CNN_VS>  (197) 
1.3560682535

>  <CNNaffinity_variance>  (197) 
0.1262837201

$$$$
198
     RDKit          3D

 43 45  0  0  0  0  0  0  0  0999 V2000
   24.1168   71.4582    2.4228 P   0  0  2  0  0  0  0  0  0  0  0  0
   24.1834   72.9429    3.0634 O   0  0  0  0  0  0  0  0  0  0  0  0
   23.0273   70.5816    2.9672 O   0  0  0  0  0  0  0  0  0  0  0  0
   25.6236   70.8938    2.5928 O   0  0  0  0  0  0  0  0  0  0  0  0
   26.7018   71.8070    2.5033 C   0  0  0  0  0  0  0  0  0  0  0  0
   28.6556   70.4078    2.4535 O   0  0  0  0  0  0  0  0  0  0  0  0
   29.5313   71.8608    4.9260 O   0  0  0  0  0  0  0  0  0  0  0  0
   31.0087   73.0622    2.9741 O   0  0  0  0  0  0  0  0  0  0  0  0
   28.8281   72.3578    3.7871 C   0  0  1  0  0  0  0  0  0  0  0  0
   29.7687   72.4935    2.6085 C   0  0  2  0  0  0  0  0  0  0  0  0
   27.8759   71.2692    3.3111 C   0  0  1  0  0  0  0  0  0  0  0  0
   29.9004   71.0536    2.1426 C   0  0  2  0  0  0  0  0  0  0  0  0
   30.1460   72.5390    5.2482 H   0  0  0  0  0  0  0  0  0  0  0  0
   30.8715   73.9786    3.2629 H   0  0  0  0  0  0  0  0  0  0  0  0
   31.8949   69.4329    0.9713 O   0  0  0  0  0  0  0  0  0  0  0  0
   30.7221   70.7503   -3.2870 O   0  0  0  0  0  0  0  0  0  0  0  0
   30.1381   70.9541    0.7304 N   0  0  0  0  0  0  0  0  0  0  0  0
   31.3096   70.0914   -1.1484 N   0  0  0  0  0  0  0  0  0  0  0  0
   31.1655   70.1109    0.2452 C   0  0  0  0  0  0  0  0  0  0  0  0
   29.3578   71.6848   -0.1575 C   0  0  0  0  0  0  0  0  0  0  0  0
   29.5069   71.6558   -1.4832 C   0  0  0  0  0  0  0  0  0  0  0  0
   30.5585   70.8006   -2.0717 C   0  0  0  0  0  0  0  0  0  0  0  0
   32.0198   69.5131   -1.5097 H   0  0  0  0  0  0  0  0  0  0  0  0
   24.0155   71.7516    0.8365 O   0  0  0  0  0  0  0  0  0  0  0  0
   22.7629   72.1997   -0.0822 P   0  0  2  0  0  0  0  0  0  0  0  0
   22.5102   73.7360    0.3607 O   0  0  0  0  0  0  0  0  0  0  0  0
   21.5579   71.3133    0.0448 O   0  0  0  0  0  0  0  0  0  0  0  0
   23.3657   72.3002   -1.5752 O   0  0  0  0  0  0  0  0  0  0  0  0
   23.1017   70.8515   -3.4301 O   0  0  0  0  0  0  0  0  0  0  0  0
   26.9325   72.2817   -4.0190 O   0  0  0  0  0  0  0  0  0  0  0  0
   26.0279   71.5283   -1.3454 O   0  0  0  0  0  0  0  0  0  0  0  0
   24.7360   73.2831   -5.6387 O   0  0  0  0  0  0  0  0  0  0  0  0
   25.5730   72.3369   -3.5871 C   0  0  2  0  0  0  0  0  0  0  0  0
   25.3216   71.2443   -2.5475 C   0  0  2  0  0  0  0  0  0  0  0  0
   24.6790   72.1232   -4.8107 C   0  0  1  0  0  0  0  0  0  0  0  0
   23.8301   71.1222   -2.2320 C   0  0  1  0  0  0  0  0  0  0  0  0
   23.2275   71.8841   -4.4052 C   0  0  1  0  0  0  0  0  0  0  0  0
   27.5194   72.4149   -3.2580 H   0  0  0  0  0  0  0  0  0  0  0  0
   26.9749   71.6073   -1.5383 H   0  0  0  0  0  0  0  0  0  0  0  0
   25.6547   73.4465   -5.9036 H   0  0  0  0  0  0  0  0  0  0  0  0
   22.4768   72.2196   -6.6019 O   0  0  0  0  0  0  0  0  0  0  0  0
   21.8316   70.2941   -5.5648 O   0  0  0  0  0  0  0  0  0  0  0  0
   22.4350   71.3566   -5.5567 C   0  0  0  0  0  0  0  0  0  0  0  0
  1  4  1  0
  1 24  1  0
  1  2  1  1
  1  3  2  0
 25 28  1  0
 25 24  1  0
 25 26  1  1
 25 27  2  0
  6 11  1  0
  6 12  1  0
 29 36  1  0
 29 37  1  0
  9  7  1  1
  7 13  1  0
 10  8  1  1
  8 14  1  0
  4  5  1  0
 36 28  1  6
 33 30  1  6
 30 38  1  0
 34 31  1  1
 31 39  1  0
 35 32  1  6
 32 40  1  0
 41 43  1  0
 15 19  2  0
 42 43  2  0
 16 22  2  0
 12 17  1  6
 17 19  1  0
 17 20  1  0
 18 19  1  0
 18 22  1  0
 18 23  1  0
  9 10  1  0
  9 11  1  0
 10 12  1  0
 11  5  1  6
 33 34  1  0
 33 35  1  0
 34 36  1  0
 35 37  1  0
 37 43  1  6
 20 21  2  0
 21 22  1  0
M  CHG  3   2  -1  26  -1  41  -1
M  END
>  <COMPND>  (198) 
    udp_gluA.pdb 

>  <AUTHOR>  (198) 
    GENERATED BY OPEN BABEL 3.1.1

>  <MASTER>  (198) 
        0    0    0    0    0    0    0    0   56    0   56    0

>  <minimizedAffinity>  (198) 
-6.26192

>  <CNNscore>  (198) 
0.3410941064

>  <CNNaffinity>  (198) 
3.7740390301

>  <CNN_VS>  (198) 
1.2873024940

>  <CNNaffinity_variance>  (198) 
0.2917613387

$$$$
199
     RDKit          3D

 43 45  0  0  0  0  0  0  0  0999 V2000
   32.5172   71.5893   -0.8801 P   0  0  2  0  0  0  0  0  0  0  0  0
   31.3312   72.6764   -1.0553 O   0  0  0  0  0  0  0  0  0  0  0  0
   33.8034   71.9383   -1.5697 O   0  0  0  0  0  0  0  0  0  0  0  0
   31.8345   70.1934   -1.3310 O   0  0  0  0  0  0  0  0  0  0  0  0
   31.1598   70.1415   -2.5746 C   0  0  0  0  0  0  0  0  0  0  0  0
   29.4511   68.4550   -2.6917 O   0  0  0  0  0  0  0  0  0  0  0  0
   31.3297   66.9392   -4.4707 O   0  0  0  0  0  0  0  0  0  0  0  0
   29.5904   68.0526   -6.2515 O   0  0  0  0  0  0  0  0  0  0  0  0
   31.1114   68.3472   -4.3776 C   0  0  1  0  0  0  0  0  0  0  0  0
   29.7920   68.7168   -5.0216 C   0  0  2  0  0  0  0  0  0  0  0  0
   30.8586   68.6876   -2.9152 C   0  0  1  0  0  0  0  0  0  0  0  0
   28.7927   68.2944   -3.9582 C   0  0  2  0  0  0  0  0  0  0  0  0
   31.4935   66.6976   -5.3961 H   0  0  0  0  0  0  0  0  0  0  0  0
   30.2508   68.3559   -6.8948 H   0  0  0  0  0  0  0  0  0  0  0  0
   26.2158   67.3462   -3.2972 O   0  0  0  0  0  0  0  0  0  0  0  0
   24.3058   71.4735   -4.0465 O   0  0  0  0  0  0  0  0  0  0  0  0
   27.6044   69.0997   -3.9722 N   0  0  0  0  0  0  0  0  0  0  0  0
   25.2668   69.4025   -3.6720 N   0  0  0  0  0  0  0  0  0  0  0  0
   26.3589   68.5261   -3.6233 C   0  0  0  0  0  0  0  0  0  0  0  0
   27.6798   70.4412   -4.3266 C   0  0  0  0  0  0  0  0  0  0  0  0
   26.6301   71.2641   -4.3683 C   0  0  0  0  0  0  0  0  0  0  0  0
   25.2920   70.7436   -4.0190 C   0  0  0  0  0  0  0  0  0  0  0  0
   24.3886   69.0255   -3.4353 H   0  0  0  0  0  0  0  0  0  0  0  0
   32.6339   71.4351    0.7247 O   0  0  0  0  0  0  0  0  0  0  0  0
   31.8729   70.4479    1.7542 P   0  0  2  0  0  0  0  0  0  0  0  0
   32.6972   69.0618    1.6154 O   0  0  0  0  0  0  0  0  0  0  0  0
   30.3979   70.3177    1.5061 O   0  0  0  0  0  0  0  0  0  0  0  0
   32.2588   71.0063    3.2177 O   0  0  0  0  0  0  0  0  0  0  0  0
   31.1598   72.6978    4.4587 O   0  0  0  0  0  0  0  0  0  0  0  0
   35.0404   73.0315    5.8362 O   0  0  0  0  0  0  0  0  0  0  0  0
   34.5081   72.6268    2.9924 O   0  0  0  0  0  0  0  0  0  0  0  0
   33.0104   71.7633    7.4860 O   0  0  0  0  0  0  0  0  0  0  0  0
   33.8934   72.3538    5.3234 C   0  0  2  0  0  0  0  0  0  0  0  0
   33.5169   72.9421    3.9634 C   0  0  2  0  0  0  0  0  0  0  0  0
   32.7477   72.5423    6.3204 C   0  0  1  0  0  0  0  0  0  0  0  0
   32.1663   72.4036    3.4893 C   0  0  1  0  0  0  0  0  0  0  0  0
   31.4140   72.0977    5.7269 C   0  0  1  0  0  0  0  0  0  0  0  0
   35.7815   72.9256    5.2191 H   0  0  0  0  0  0  0  0  0  0  0  0
   35.3678   72.9653    3.2869 H   0  0  0  0  0  0  0  0  0  0  0  0
   33.8568   72.0362    7.8733 H   0  0  0  0  0  0  0  0  0  0  0  0
   30.2599   71.9544    7.7638 O   0  0  0  0  0  0  0  0  0  0  0  0
   29.4630   73.4294    6.2184 O   0  0  0  0  0  0  0  0  0  0  0  0
   30.2739   72.5825    6.5621 C   0  0  0  0  0  0  0  0  0  0  0  0
  1  4  1  0
  1 24  1  0
  1  2  1  1
  1  3  2  0
 25 28  1  0
 25 24  1  0
 25 26  1  1
 25 27  2  0
  6 11  1  0
  6 12  1  0
 29 36  1  0
 29 37  1  0
  9  7  1  1
  7 13  1  0
 10  8  1  6
  8 14  1  0
  4  5  1  0
 36 28  1  1
 33 30  1  1
 30 38  1  0
 34 31  1  6
 31 39  1  0
 35 32  1  1
 32 40  1  0
 41 43  1  0
 15 19  2  0
 42 43  2  0
 16 22  2  0
 12 17  1  1
 17 19  1  0
 17 20  1  0
 18 19  1  0
 18 22  1  0
 18 23  1  0
  9 10  1  0
  9 11  1  0
 10 12  1  0
 11  5  1  6
 33 34  1  0
 33 35  1  0
 34 36  1  0
 35 37  1  0
 37 43  1  1
 20 21  2  0
 21 22  1  0
M  CHG  3   2  -1  26  -1  41  -1
M  END
>  <COMPND>  (199) 
    udp_gluA.pdb 

>  <AUTHOR>  (199) 
    GENERATED BY OPEN BABEL 3.1.1

>  <MASTER>  (199) 
        0    0    0    0    0    0    0    0   56    0   56    0

>  <minimizedAffinity>  (199) 
-6.64455

>  <CNNscore>  (199) 
0.3196796775

>  <CNNaffinity>  (199) 
3.8591675758

>  <CNN_VS>  (199) 
1.2336974144

>  <CNNaffinity_variance>  (199) 
0.1177549213

$$$$
200
     RDKit          3D

 43 45  0  0  0  0  0  0  0  0999 V2000
   27.8732   73.9977   -2.8291 P   0  0  2  0  0  0  0  0  0  0  0  0
   28.1900   75.2400   -3.8166 O   0  0  0  0  0  0  0  0  0  0  0  0
   27.4316   74.3830   -1.4477 O   0  0  0  0  0  0  0  0  0  0  0  0
   29.2073   73.0858   -2.9115 O   0  0  0  0  0  0  0  0  0  0  0  0
   29.1332   71.8377   -3.5758 C   0  0  0  0  0  0  0  0  0  0  0  0
   28.6806   69.5878   -2.8612 O   0  0  0  0  0  0  0  0  0  0  0  0
   31.3748   69.6613   -1.5469 O   0  0  0  0  0  0  0  0  0  0  0  0
   31.8651   68.2577   -3.8329 O   0  0  0  0  0  0  0  0  0  0  0  0
   30.9534   70.2496   -2.7777 C   0  0  1  0  0  0  0  0  0  0  0  0
   30.7991   69.1841   -3.8422 C   0  0  2  0  0  0  0  0  0  0  0  0
   29.5206   70.7332   -2.6009 C   0  0  1  0  0  0  0  0  0  0  0  0
   29.4708   68.5510   -3.4645 C   0  0  2  0  0  0  0  0  0  0  0  0
   32.2878   69.3447   -1.6354 H   0  0  0  0  0  0  0  0  0  0  0  0
   32.6879   68.7091   -4.0800 H   0  0  0  0  0  0  0  0  0  0  0  0
   26.8949   67.3977   -3.3589 O   0  0  0  0  0  0  0  0  0  0  0  0
   26.8714   66.5894   -7.8965 O   0  0  0  0  0  0  0  0  0  0  0  0
   28.7681   68.0312   -4.6033 N   0  0  0  0  0  0  0  0  0  0  0  0
   26.8861   66.9953   -5.6188 N   0  0  0  0  0  0  0  0  0  0  0  0
   27.4781   67.4725   -4.4420 C   0  0  0  0  0  0  0  0  0  0  0  0
   29.3552   68.0791   -5.8619 C   0  0  0  0  0  0  0  0  0  0  0  0
   28.7784   67.6204   -6.9743 C   0  0  0  0  0  0  0  0  0  0  0  0
   27.4305   67.0204   -6.8926 C   0  0  0  0  0  0  0  0  0  0  0  0
   25.9886   66.6000   -5.5314 H   0  0  0  0  0  0  0  0  0  0  0  0
   26.7916   73.1357   -3.6658 O   0  0  0  0  0  0  0  0  0  0  0  0
   25.3776   73.5594   -4.3251 P   0  0  2  0  0  0  0  0  0  0  0  0
   25.6818   73.5128   -5.9143 O   0  0  0  0  0  0  0  0  0  0  0  0
   24.8395   74.8732   -3.8367 O   0  0  0  0  0  0  0  0  0  0  0  0
   24.4076   72.2982   -4.0590 O   0  0  0  0  0  0  0  0  0  0  0  0
   22.8404   71.9296   -2.3221 O   0  0  0  0  0  0  0  0  0  0  0  0
   24.1299   68.0866   -3.1203 O   0  0  0  0  0  0  0  0  0  0  0  0
   26.0367   70.2976   -3.0198 O   0  0  0  0  0  0  0  0  0  0  0  0
   21.5243   68.9751   -4.0546 O   0  0  0  0  0  0  0  0  0  0  0  0
   23.8034   69.4420   -3.4278 C   0  0  2  0  0  0  0  0  0  0  0  0
   24.6802   70.3804   -2.5983 C   0  0  2  0  0  0  0  0  0  0  0  0
   22.3260   69.6600   -3.0939 C   0  0  1  0  0  0  0  0  0  0  0  0
   24.2061   71.8286   -2.7272 C   0  0  1  0  0  0  0  0  0  0  0  0
   21.9613   71.1415   -3.1216 C   0  0  1  0  0  0  0  0  0  0  0  0
   25.0644   67.9246   -3.3244 H   0  0  0  0  0  0  0  0  0  0  0  0
   26.3440   69.3812   -2.9409 H   0  0  0  0  0  0  0  0  0  0  0  0
   21.7467   68.0310   -4.0472 H   0  0  0  0  0  0  0  0  0  0  0  0
   20.1805   70.2383   -1.8910 O   0  0  0  0  0  0  0  0  0  0  0  0
   20.0244   72.4333   -2.4885 O   0  0  0  0  0  0  0  0  0  0  0  0
   20.6301   71.3721   -2.4837 C   0  0  0  0  0  0  0  0  0  0  0  0
  1  4  1  0
  1 24  1  0
  1  2  1  6
  1  3  2  0
 25 28  1  0
 25 24  1  0
 25 26  1  6
 25 27  2  0
  6 11  1  0
  6 12  1  0
 29 36  1  0
 29 37  1  0
  9  7  1  1
  7 13  1  0
 10  8  1  1
  8 14  1  0
  4  5  1  0
 36 28  1  6
 33 30  1  1
 30 38  1  0
 34 31  1  6
 31 39  1  0
 35 32  1  6
 32 40  1  0
 41 43  1  0
 15 19  2  0
 42 43  2  0
 16 22  2  0
 12 17  1  6
 17 19  1  0
 17 20  1  0
 18 19  1  0
 18 22  1  0
 18 23  1  0
  9 10  1  0
  9 11  1  0
 10 12  1  0
 11  5  1  6
 33 34  1  0
 33 35  1  0
 34 36  1  0
 35 37  1  0
 37 43  1  1
 20 21  2  0
 21 22  1  0
M  CHG  3   2  -1  26  -1  41  -1
M  END
