1
     RDKit          3D

 43 45  0  0  0  0  0  0  0  0999 V2000
   24.0261   73.1104   -5.0914 P   0  0  2  0  0  0  0  0  0  0  0  0
   25.0984   73.6950   -6.1524 O   0  0  0  0  0  0  0  0  0  0  0  0
   23.5568   74.0922   -4.0582 O   0  0  0  0  0  0  0  0  0  0  0  0
   24.7352   71.7734   -4.5192 O   0  0  0  0  0  0  0  0  0  0  0  0
   26.1499   71.6966   -4.5400 C   0  0  0  0  0  0  0  0  0  0  0  0
   26.9931   69.8041   -3.3229 O   0  0  0  0  0  0  0  0  0  0  0  0
   27.9575   71.7810   -1.2851 O   0  0  0  0  0  0  0  0  0  0  0  0
   30.2298   71.2088   -2.6799 O   0  0  0  0  0  0  0  0  0  0  0  0
   27.9003   71.9044   -2.7052 C   0  0  1  0  0  0  0  0  0  0  0  0
   28.9925   71.0763   -3.3494 C   0  0  2  0  0  0  0  0  0  0  0  0
   26.6393   71.1980   -3.1872 C   0  0  1  0  0  0  0  0  0  0  0  0
   28.4221   69.6716   -3.2513 C   0  0  2  0  0  0  0  0  0  0  0  0
   28.7545   72.2250   -0.9540 H   0  0  0  0  0  0  0  0  0  0  0  0
   30.5511   72.1194   -2.7712 H   0  0  0  0  0  0  0  0  0  0  0  0
   30.7282   68.0440   -3.1470 O   0  0  0  0  0  0  0  0  0  0  0  0
   30.0291   66.4632   -7.4194 O   0  0  0  0  0  0  0  0  0  0  0  0
   28.8660   68.8243   -4.3220 N   0  0  0  0  0  0  0  0  0  0  0  0
   30.3781   67.2581   -5.2744 N   0  0  0  0  0  0  0  0  0  0  0  0
   30.0381   68.0476   -4.1685 C   0  0  0  0  0  0  0  0  0  0  0  0
   28.1418   68.7691   -5.5079 C   0  0  0  0  0  0  0  0  0  0  0  0
   28.4802   68.0120   -6.5536 C   0  0  0  0  0  0  0  0  0  0  0  0
   29.6914   67.1702   -6.4750 C   0  0  0  0  0  0  0  0  0  0  0  0
   31.1911   66.7088   -5.1904 H   0  0  0  0  0  0  0  0  0  0  0  0
   22.8574   72.5236   -6.0416 O   0  0  0  0  0  0  0  0  0  0  0  0
   21.6104   71.5493   -5.7121 P   0  0  2  0  0  0  0  0  0  0  0  0
   21.1105   72.0640   -4.2620 O   0  0  0  0  0  0  0  0  0  0  0  0
   21.9409   70.0859   -5.7696 O   0  0  0  0  0  0  0  0  0  0  0  0
   20.4488   72.0133   -6.7320 O   0  0  0  0  0  0  0  0  0  0  0  0
   20.0225   71.0615   -8.8602 O   0  0  0  0  0  0  0  0  0  0  0  0
   18.7161   74.9110   -9.5854 O   0  0  0  0  0  0  0  0  0  0  0  0
   16.7992   72.7879   -9.3279 O   0  0  0  0  0  0  0  0  0  0  0  0
   21.0621   74.4666   -7.9488 O   0  0  0  0  0  0  0  0  0  0  0  0
   18.9320   73.7342   -8.8018 C   0  0  1  0  0  0  0  0  0  0  0  0
   18.1999   72.5703   -9.4728 C   0  0  1  0  0  0  0  0  0  0  0  0
   20.4316   73.4536   -8.7252 C   0  0  2  0  0  0  0  0  0  0  0  0
   18.6000   71.2284   -8.8447 C   0  0  1  0  0  0  0  0  0  0  0  0
   20.7184   72.0738   -8.1302 C   0  0  1  0  0  0  0  0  0  0  0  0
   17.7659   75.0950   -9.6375 H   0  0  0  0  0  0  0  0  0  0  0  0
   16.5599   73.6387   -9.7281 H   0  0  0  0  0  0  0  0  0  0  0  0
   20.8733   75.3351   -8.3359 H   0  0  0  0  0  0  0  0  0  0  0  0
   16.7460   69.7325   -9.0288 O   0  0  0  0  0  0  0  0  0  0  0  0
   18.0035   70.0429   -9.6003 C   0  0  0  0  0  0  0  0  0  0  0  0
   16.3544   68.9799   -9.4999 H   0  0  0  0  0  0  0  0  0  0  0  0
 25 28  1  0
 25 24  1  0
 25 26  1  1
 25 27  2  0
  1  4  1  0
  1 24  1  0
  1  2  1  6
  1  3  2  0
  6 11  1  0
  6 12  1  0
 29 36  1  0
 29 37  1  0
  9  7  1  1
  7 13  1  0
 10  8  1  1
  8 14  1  0
 37 28  1  1
  4  5  1  0
 33 30  1  6
 30 38  1  0
 34 31  1  1
 31 39  1  0
 35 32  1  1
 32 40  1  0
 41 42  1  0
 41 43  1  0
 15 19  2  0
 16 22  2  0
 12 17  1  6
 17 19  1  0
 17 20  1  0
 18 19  1  0
 18 22  1  0
 18 23  1  0
  9 10  1  0
  9 11  1  0
 10 12  1  0
 11  5  1  6
 33 34  1  0
 33 35  1  0
 34 36  1  0
 35 37  1  0
 36 42  1  6
 20 21  2  0
 21 22  1  0
M  CHG  2   2  -1  26  -1
M  END
>  <COMPND>  (1) 
    8629 

>  <AUTHOR>  (1) 
    GENERATED BY OPEN BABEL 3.1.1

>  <MASTER>  (1) 
        0    0    0    0    0    0    0    0   58    0   58    0

>  <minimizedAffinity>  (1) 
-7.70644

>  <CNNscore>  (1) 
0.6069127917

>  <CNNaffinity>  (1) 
4.4680213928

>  <CNN_VS>  (1) 
2.7116992474

>  <CNNaffinity_variance>  (1) 
0.0391677618

$$$$
2
     RDKit          3D

 43 45  0  0  0  0  0  0  0  0999 V2000
   32.7555   70.8115    1.0462 P   0  0  2  0  0  0  0  0  0  0  0  0
   32.6812   69.2778    1.5559 O   0  0  0  0  0  0  0  0  0  0  0  0
   34.1099   71.2599    0.5814 O   0  0  0  0  0  0  0  0  0  0  0  0
   32.1159   71.6582    2.2676 O   0  0  0  0  0  0  0  0  0  0  0  0
   32.3511   71.2157    3.5930 C   0  0  0  0  0  0  0  0  0  0  0  0
   31.2168   70.6416    5.6321 O   0  0  0  0  0  0  0  0  0  0  0  0
   28.6666   71.0471    4.1079 O   0  0  0  0  0  0  0  0  0  0  0  0
   28.8887   73.3677    5.5229 O   0  0  0  0  0  0  0  0  0  0  0  0
   29.9000   71.7571    4.0080 C   0  0  1  0  0  0  0  0  0  0  0  0
   30.0769   72.6741    5.2003 C   0  0  2  0  0  0  0  0  0  0  0  0
   31.0337   70.7583    4.2040 C   0  0  1  0  0  0  0  0  0  0  0  0
   30.4987   71.6999    6.2872 C   0  0  2  0  0  0  0  0  0  0  0  0
   27.9276   71.6643    3.9857 H   0  0  0  0  0  0  0  0  0  0  0  0
   28.6623   73.9745    4.8010 H   0  0  0  0  0  0  0  0  0  0  0  0
   29.5810   73.1762    8.5135 O   0  0  0  0  0  0  0  0  0  0  0  0
   33.8754   73.9901    9.9752 O   0  0  0  0  0  0  0  0  0  0  0  0
   31.3551   72.3084    7.2658 N   0  0  0  0  0  0  0  0  0  0  0  0
   31.7200   73.5801    9.2396 N   0  0  0  0  0  0  0  0  0  0  0  0
   30.7933   73.0292    8.3453 C   0  0  0  0  0  0  0  0  0  0  0  0
   32.7355   72.1871    7.1498 C   0  0  0  0  0  0  0  0  0  0  0  0
   33.6057   72.7196    8.0104 C   0  0  0  0  0  0  0  0  0  0  0  0
   33.1009   73.4883    9.1664 C   0  0  0  0  0  0  0  0  0  0  0  0
   31.3517   74.0870    9.9994 H   0  0  0  0  0  0  0  0  0  0  0  0
   31.6013   70.8753   -0.0838 O   0  0  0  0  0  0  0  0  0  0  0  0
   29.9899   70.8725    0.0435 P   0  0  2  0  0  0  0  0  0  0  0  0
   29.6179   72.4466    0.0805 O   0  0  0  0  0  0  0  0  0  0  0  0
   29.4661   70.0849    1.2093 O   0  0  0  0  0  0  0  0  0  0  0  0
   29.4673   70.3639   -1.3963 O   0  0  0  0  0  0  0  0  0  0  0  0
   30.6659   69.9608   -3.4007 O   0  0  0  0  0  0  0  0  0  0  0  0
   27.1794   71.4787   -5.0106 O   0  0  0  0  0  0  0  0  0  0  0  0
   27.7478   68.6737   -5.2492 O   0  0  0  0  0  0  0  0  0  0  0  0
   28.2530   72.6052   -2.5697 O   0  0  0  0  0  0  0  0  0  0  0  0
   27.9691   70.7438   -4.0716 C   0  0  1  0  0  0  0  0  0  0  0  0
   28.7083   69.6382   -4.8280 C   0  0  1  0  0  0  0  0  0  0  0  0
   28.9610   71.6932   -3.4024 C   0  0  2  0  0  0  0  0  0  0  0  0
   29.7748   68.9792   -3.9430 C   0  0  1  0  0  0  0  0  0  0  0  0
   30.0078   70.9329   -2.5860 C   0  0  1  0  0  0  0  0  0  0  0  0
   26.5471   70.8817   -5.4387 H   0  0  0  0  0  0  0  0  0  0  0  0
   27.0798   69.1028   -5.8067 H   0  0  0  0  0  0  0  0  0  0  0  0
   27.5937   73.0804   -3.0983 H   0  0  0  0  0  0  0  0  0  0  0  0
   30.5406   68.2970   -6.1011 O   0  0  0  0  0  0  0  0  0  0  0  0
   30.6299   67.9833   -4.7235 C   0  0  0  0  0  0  0  0  0  0  0  0
   31.0802   67.6715   -6.6102 H   0  0  0  0  0  0  0  0  0  0  0  0
 25 28  1  0
 25 24  1  0
 25 26  1  1
 25 27  2  0
  1  4  1  0
  1 24  1  0
  1  2  1  1
  1  3  2  0
  6 11  1  0
  6 12  1  0
 29 36  1  0
 29 37  1  0
  9  7  1  1
  7 13  1  0
 10  8  1  1
  8 14  1  0
 37 28  1  1
  4  5  1  0
 33 30  1  6
 30 38  1  0
 34 31  1  1
 31 39  1  0
 35 32  1  1
 32 40  1  0
 41 42  1  0
 41 43  1  0
 15 19  2  0
 16 22  2  0
 12 17  1  1
 17 19  1  0
 17 20  1  0
 18 19  1  0
 18 22  1  0
 18 23  1  0
  9 10  1  0
  9 11  1  0
 10 12  1  0
 11  5  1  6
 33 34  1  0
 33 35  1  0
 34 36  1  0
 35 37  1  0
 36 42  1  6
 20 21  2  0
 21 22  1  0
M  CHG  2   2  -1  26  -1
M  END
>  <COMPND>  (2) 
    8629 

>  <AUTHOR>  (2) 
    GENERATED BY OPEN BABEL 3.1.1

>  <MASTER>  (2) 
        0    0    0    0    0    0    0    0   58    0   58    0

>  <minimizedAffinity>  (2) 
-6.58050

>  <CNNscore>  (2) 
0.5958469510

>  <CNNaffinity>  (2) 
3.8693661690

>  <CNN_VS>  (2) 
2.3055500984

>  <CNNaffinity_variance>  (2) 
0.1299718022

$$$$
3
     RDKit          3D

 43 45  0  0  0  0  0  0  0  0999 V2000
   24.9370   73.0025   -4.3600 P   0  0  2  0  0  0  0  0  0  0  0  0
   25.7249   74.3071   -3.8172 O   0  0  0  0  0  0  0  0  0  0  0  0
   24.1842   73.2046   -5.6421 O   0  0  0  0  0  0  0  0  0  0  0  0
   24.0506   72.5286   -3.0920 O   0  0  0  0  0  0  0  0  0  0  0  0
   23.6550   73.5025   -2.1418 C   0  0  0  0  0  0  0  0  0  0  0  0
   22.8608   71.8497   -0.5890 O   0  0  0  0  0  0  0  0  0  0  0  0
   20.5143   73.6634   -0.1472 O   0  0  0  0  0  0  0  0  0  0  0  0
   22.0761   74.1711    2.0299 O   0  0  0  0  0  0  0  0  0  0  0  0
   21.8803   73.9977   -0.3873 C   0  0  1  0  0  0  0  0  0  0  0  0
   22.7128   73.7280    0.8487 C   0  0  2  0  0  0  0  0  0  0  0  0
   22.4439   72.9859   -1.3773 C   0  0  1  0  0  0  0  0  0  0  0  0
   22.8688   72.2175    0.8001 C   0  0  2  0  0  0  0  0  0  0  0  0
   20.1326   74.2961    0.4821 H   0  0  0  0  0  0  0  0  0  0  0  0
   22.0004   75.1379    2.0133 H   0  0  0  0  0  0  0  0  0  0  0  0
   23.0360   70.5667    3.0859 O   0  0  0  0  0  0  0  0  0  0  0  0
   27.6437   70.5829    2.9859 O   0  0  0  0  0  0  0  0  0  0  0  0
   24.0994   71.7747    1.3926 N   0  0  0  0  0  0  0  0  0  0  0  0
   25.3301   70.5760    3.0341 N   0  0  0  0  0  0  0  0  0  0  0  0
   24.0734   70.9485    2.5403 C   0  0  0  0  0  0  0  0  0  0  0  0
   25.3143   72.1593    0.8360 C   0  0  0  0  0  0  0  0  0  0  0  0
   26.5041   71.7966    1.3198 C   0  0  0  0  0  0  0  0  0  0  0  0
   26.5652   70.9335    2.5170 C   0  0  0  0  0  0  0  0  0  0  0  0
   25.3368   70.0007    3.8334 H   0  0  0  0  0  0  0  0  0  0  0  0
   26.0981   71.8802   -4.4314 O   0  0  0  0  0  0  0  0  0  0  0  0
   26.3709   70.5753   -3.5171 P   0  0  2  0  0  0  0  0  0  0  0  0
   24.9237   69.8546   -3.4580 O   0  0  0  0  0  0  0  0  0  0  0  0
   26.9667   70.8793   -2.1731 O   0  0  0  0  0  0  0  0  0  0  0  0
   27.2706   69.6078   -4.4442 O   0  0  0  0  0  0  0  0  0  0  0  0
   27.0814   67.2938   -4.9196 O   0  0  0  0  0  0  0  0  0  0  0  0
   31.1951   67.5928   -4.7227 O   0  0  0  0  0  0  0  0  0  0  0  0
   29.9201   67.2309   -7.2705 O   0  0  0  0  0  0  0  0  0  0  0  0
   29.5478   69.1040   -2.8837 O   0  0  0  0  0  0  0  0  0  0  0  0
   29.8691   68.0386   -5.0197 C   0  0  1  0  0  0  0  0  0  0  0  0
   29.2496   67.0649   -6.0243 C   0  0  1  0  0  0  0  0  0  0  0  0
   29.0526   68.0714   -3.7291 C   0  0  2  0  0  0  0  0  0  0  0  0
   27.7454   67.3210   -6.1885 C   0  0  1  0  0  0  0  0  0  0  0  0
   27.5635   68.2829   -4.0081 C   0  0  1  0  0  0  0  0  0  0  0  0
   31.7190   67.5701   -5.5379 H   0  0  0  0  0  0  0  0  0  0  0  0
   30.8691   67.0669   -7.1528 H   0  0  0  0  0  0  0  0  0  0  0  0
   30.4912   68.9586   -2.7143 H   0  0  0  0  0  0  0  0  0  0  0  0
   26.7776   66.8435   -8.3203 O   0  0  0  0  0  0  0  0  0  0  0  0
   27.0775   66.2631   -7.0643 C   0  0  0  0  0  0  0  0  0  0  0  0
   26.3523   66.1816   -8.8884 H   0  0  0  0  0  0  0  0  0  0  0  0
 25 28  1  0
 25 24  1  0
 25 26  1  1
 25 27  2  0
  1  4  1  0
  1 24  1  0
  1  2  1  1
  1  3  2  0
  6 11  1  0
  6 12  1  0
 29 36  1  0
 29 37  1  0
  9  7  1  1
  7 13  1  0
 10  8  1  1
  8 14  1  0
 37 28  1  6
  4  5  1  0
 33 30  1  1
 30 38  1  0
 34 31  1  6
 31 39  1  0
 35 32  1  1
 32 40  1  0
 41 42  1  0
 41 43  1  0
 15 19  2  0
 16 22  2  0
 12 17  1  6
 17 19  1  0
 17 20  1  0
 18 19  1  0
 18 22  1  0
 18 23  1  0
  9 10  1  0
  9 11  1  0
 10 12  1  0
 11  5  1  1
 33 34  1  0
 33 35  1  0
 34 36  1  0
 35 37  1  0
 36 42  1  6
 20 21  2  0
 21 22  1  0
M  CHG  2   2  -1  26  -1
M  END
>  <COMPND>  (3) 
    8629 

>  <AUTHOR>  (3) 
    GENERATED BY OPEN BABEL 3.1.1

>  <MASTER>  (3) 
        0    0    0    0    0    0    0    0   58    0   58    0

>  <minimizedAffinity>  (3) 
-7.83530

>  <CNNscore>  (3) 
0.5528891683

>  <CNNaffinity>  (3) 
4.1815772057

>  <CNN_VS>  (3) 
2.3119487762

>  <CNNaffinity_variance>  (3) 
0.1950927377

$$$$
4
     RDKit          3D

 43 45  0  0  0  0  0  0  0  0999 V2000
   25.7860   73.3888   -2.4721 P   0  0  2  0  0  0  0  0  0  0  0  0
   25.6866   74.3299   -1.1599 O   0  0  0  0  0  0  0  0  0  0  0  0
   25.2570   71.9959   -2.2946 O   0  0  0  0  0  0  0  0  0  0  0  0
   27.3388   73.4997   -2.9130 O   0  0  0  0  0  0  0  0  0  0  0  0
   27.9253   72.4098   -3.6029 C   0  0  0  0  0  0  0  0  0  0  0  0
   27.9886   70.1365   -2.8270 O   0  0  0  0  0  0  0  0  0  0  0  0
   30.5639   70.8665   -1.4758 O   0  0  0  0  0  0  0  0  0  0  0  0
   31.4158   69.5553   -3.7101 O   0  0  0  0  0  0  0  0  0  0  0  0
   30.0460   71.3085   -2.7295 C   0  0  1  0  0  0  0  0  0  0  0  0
   30.1642   70.2090   -3.7643 C   0  0  2  0  0  0  0  0  0  0  0  0
   28.5357   71.4520   -2.5889 C   0  0  1  0  0  0  0  0  0  0  0  0
   29.0106   69.2954   -3.3865 C   0  0  2  0  0  0  0  0  0  0  0  0
   31.5273   70.7679   -1.5409 H   0  0  0  0  0  0  0  0  0  0  0  0
   32.1168   70.1778   -3.9587 H   0  0  0  0  0  0  0  0  0  0  0  0
   26.9736   67.3445   -3.2366 O   0  0  0  0  0  0  0  0  0  0  0  0
   27.0212   66.6805   -7.7971 O   0  0  0  0  0  0  0  0  0  0  0  0
   28.4714   68.5970   -4.5191 N   0  0  0  0  0  0  0  0  0  0  0  0
   26.9988   67.0156   -5.5076 N   0  0  0  0  0  0  0  0  0  0  0  0
   27.4509   67.6351   -4.3354 C   0  0  0  0  0  0  0  0  0  0  0  0
   28.9540   68.8686   -5.7948 C   0  0  0  0  0  0  0  0  0  0  0  0
   28.5132   68.2682   -6.9022 C   0  0  0  0  0  0  0  0  0  0  0  0
   27.4477   67.2504   -6.7976 C   0  0  0  0  0  0  0  0  0  0  0  0
   26.2883   66.3416   -5.4040 H   0  0  0  0  0  0  0  0  0  0  0  0
   25.0244   74.2587   -3.6018 O   0  0  0  0  0  0  0  0  0  0  0  0
   24.4460   73.8412   -5.0524 P   0  0  2  0  0  0  0  0  0  0  0  0
   25.4011   72.6119   -5.4929 O   0  0  0  0  0  0  0  0  0  0  0  0
   24.3927   74.9693   -6.0416 O   0  0  0  0  0  0  0  0  0  0  0  0
   23.0179   73.1566   -4.7411 O   0  0  0  0  0  0  0  0  0  0  0  0
   22.5151   71.1633   -3.5619 O   0  0  0  0  0  0  0  0  0  0  0  0
   19.5857   70.9690   -6.4656 O   0  0  0  0  0  0  0  0  0  0  0  0
   18.8605   71.6037   -3.7602 O   0  0  0  0  0  0  0  0  0  0  0  0
   22.2278   71.9387   -7.1426 O   0  0  0  0  0  0  0  0  0  0  0  0
   20.4601   71.6178   -5.5384 C   0  0  1  0  0  0  0  0  0  0  0  0
   20.1399   71.1003   -4.1347 C   0  0  1  0  0  0  0  0  0  0  0  0
   21.9071   71.3006   -5.9112 C   0  0  2  0  0  0  0  0  0  0  0  0
   21.2057   71.5447   -3.1239 C   0  0  1  0  0  0  0  0  0  0  0  0
   22.8816   71.7399   -4.8169 C   0  0  1  0  0  0  0  0  0  0  0  0
   18.6653   71.1668   -6.2348 H   0  0  0  0  0  0  0  0  0  0  0  0
   18.1968   71.3163   -4.4068 H   0  0  0  0  0  0  0  0  0  0  0  0
   21.6040   71.6521   -7.8272 H   0  0  0  0  0  0  0  0  0  0  0  0
   20.2395   69.7227   -1.9174 O   0  0  0  0  0  0  0  0  0  0  0  0
   20.9921   70.9102   -1.7513 C   0  0  0  0  0  0  0  0  0  0  0  0
   20.0960   69.3078   -1.0520 H   0  0  0  0  0  0  0  0  0  0  0  0
 25 28  1  0
 25 24  1  0
 25 26  1  6
 25 27  2  0
  1  4  1  0
  1 24  1  0
  1  2  1  1
  1  3  2  0
  6 11  1  0
  6 12  1  0
 29 36  1  0
 29 37  1  0
  9  7  1  1
  7 13  1  0
 10  8  1  1
  8 14  1  0
 37 28  1  1
  4  5  1  0
 33 30  1  6
 30 38  1  0
 34 31  1  1
 31 39  1  0
 35 32  1  6
 32 40  1  0
 41 42  1  0
 41 43  1  0
 15 19  2  0
 16 22  2  0
 12 17  1  6
 17 19  1  0
 17 20  1  0
 18 19  1  0
 18 22  1  0
 18 23  1  0
  9 10  1  0
  9 11  1  0
 10 12  1  0
 11  5  1  6
 33 34  1  0
 33 35  1  0
 34 36  1  0
 35 37  1  0
 36 42  1  1
 20 21  2  0
 21 22  1  0
M  CHG  2   2  -1  26  -1
M  END
>  <COMPND>  (4) 
    8629 

>  <AUTHOR>  (4) 
    GENERATED BY OPEN BABEL 3.1.1

>  <MASTER>  (4) 
        0    0    0    0    0    0    0    0   58    0   58    0

>  <minimizedAffinity>  (4) 
-7.00899

>  <CNNscore>  (4) 
0.5451915860

>  <CNNaffinity>  (4) 
4.4446210861

>  <CNN_VS>  (4) 
2.4231700897

>  <CNNaffinity_variance>  (4) 
0.3541318476

$$$$
5
     RDKit          3D

 43 45  0  0  0  0  0  0  0  0999 V2000
   20.9460   74.4559   -5.6528 P   0  0  2  0  0  0  0  0  0  0  0  0
   19.7547   73.6041   -4.9652 O   0  0  0  0  0  0  0  0  0  0  0  0
   20.5272   75.7720   -6.2391 O   0  0  0  0  0  0  0  0  0  0  0  0
   21.6248   73.4110   -6.6850 O   0  0  0  0  0  0  0  0  0  0  0  0
   21.0475   72.1242   -6.8218 C   0  0  0  0  0  0  0  0  0  0  0  0
   20.0868   70.6185   -8.4291 O   0  0  0  0  0  0  0  0  0  0  0  0
   20.6093   72.7564  -10.4656 O   0  0  0  0  0  0  0  0  0  0  0  0
   17.9458   73.0538   -9.9616 O   0  0  0  0  0  0  0  0  0  0  0  0
   20.2137   72.8874   -9.1011 C   0  0  1  0  0  0  0  0  0  0  0  0
   18.7556   72.5120   -8.9381 C   0  0  2  0  0  0  0  0  0  0  0  0
   20.9145   71.7955   -8.3025 C   0  0  1  0  0  0  0  0  0  0  0  0
   18.8142   70.9945   -8.9806 C   0  0  2  0  0  0  0  0  0  0  0  0
   20.1746   73.4436  -10.9955 H   0  0  0  0  0  0  0  0  0  0  0  0
   17.9406   74.0212   -9.8921 H   0  0  0  0  0  0  0  0  0  0  0  0
   16.2477   70.3617   -9.9759 O   0  0  0  0  0  0  0  0  0  0  0  0
   14.8926   68.6560   -5.9144 O   0  0  0  0  0  0  0  0  0  0  0  0
   17.7713   70.3842   -8.2052 N   0  0  0  0  0  0  0  0  0  0  0  0
   15.5751   69.5128   -7.9528 N   0  0  0  0  0  0  0  0  0  0  0  0
   16.5180   70.1088   -8.8000 C   0  0  0  0  0  0  0  0  0  0  0  0
   17.9965   70.0648   -6.8706 C   0  0  0  0  0  0  0  0  0  0  0  0
   17.0864   69.4978   -6.0759 C   0  0  0  0  0  0  0  0  0  0  0  0
   15.7509   69.1774   -6.6196 C   0  0  0  0  0  0  0  0  0  0  0  0
   14.6945   69.3121   -8.3453 H   0  0  0  0  0  0  0  0  0  0  0  0
   22.0438   74.5646   -4.4713 O   0  0  0  0  0  0  0  0  0  0  0  0
   23.6389   74.3028   -4.4771 P   0  0  2  0  0  0  0  0  0  0  0  0
   24.1243   74.9383   -3.0706 O   0  0  0  0  0  0  0  0  0  0  0  0
   24.3481   74.8505   -5.6816 O   0  0  0  0  0  0  0  0  0  0  0  0
   23.7919   72.7084   -4.2783 O   0  0  0  0  0  0  0  0  0  0  0  0
   22.3935   72.0391   -2.4859 O   0  0  0  0  0  0  0  0  0  0  0  0
   24.2501   68.4322   -3.2566 O   0  0  0  0  0  0  0  0  0  0  0  0
   21.4975   68.7955   -3.9910 O   0  0  0  0  0  0  0  0  0  0  0  0
   25.7582   70.8973   -3.4244 O   0  0  0  0  0  0  0  0  0  0  0  0
   23.6753   69.6989   -3.5888 C   0  0  1  0  0  0  0  0  0  0  0  0
   22.2112   69.6925   -3.1447 C   0  0  1  0  0  0  0  0  0  0  0  0
   24.4501   70.8023   -2.8707 C   0  0  2  0  0  0  0  0  0  0  0  0
   21.6026   71.0991   -3.2226 C   0  0  1  0  0  0  0  0  0  0  0  0
   23.7340   72.1505   -2.9681 C   0  0  1  0  0  0  0  0  0  0  0  0
   23.7630   67.7272   -3.7097 H   0  0  0  0  0  0  0  0  0  0  0  0
   21.8922   67.9112   -3.9329 H   0  0  0  0  0  0  0  0  0  0  0  0
   26.2011   70.0377   -3.3565 H   0  0  0  0  0  0  0  0  0  0  0  0
   19.2671   70.8662   -3.6700 O   0  0  0  0  0  0  0  0  0  0  0  0
   20.1932   71.1457   -2.6364 C   0  0  0  0  0  0  0  0  0  0  0  0
   18.3657   70.8921   -3.3114 H   0  0  0  0  0  0  0  0  0  0  0  0
 25 28  1  0
 25 24  1  0
 25 26  1  1
 25 27  2  0
  1  4  1  0
  1 24  1  0
  1  2  1  1
  1  3  2  0
  6 11  1  0
  6 12  1  0
 29 36  1  0
 29 37  1  0
  9  7  1  6
  7 13  1  0
 10  8  1  6
  8 14  1  0
 37 28  1  6
  4  5  1  0
 33 30  1  1
 30 38  1  0
 34 31  1  6
 31 39  1  0
 35 32  1  6
 32 40  1  0
 41 42  1  0
 41 43  1  0
 15 19  2  0
 16 22  2  0
 12 17  1  1
 17 19  1  0
 17 20  1  0
 18 19  1  0
 18 22  1  0
 18 23  1  0
  9 10  1  0
  9 11  1  0
 10 12  1  0
 11  5  1  1
 33 34  1  0
 33 35  1  0
 34 36  1  0
 35 37  1  0
 36 42  1  1
 20 21  2  0
 21 22  1  0
M  CHG  2   2  -1  26  -1
M  END
>  <COMPND>  (5) 
    8629 

>  <AUTHOR>  (5) 
    GENERATED BY OPEN BABEL 3.1.1

>  <MASTER>  (5) 
        0    0    0    0    0    0    0    0   58    0   58    0

>  <minimizedAffinity>  (5) 
-5.80201

>  <CNNscore>  (5) 
0.5171762705

>  <CNNaffinity>  (5) 
4.1149926186

>  <CNN_VS>  (5) 
2.1281764507

>  <CNNaffinity_variance>  (5) 
0.0803174376

$$$$
6
     RDKit          3D

 43 45  0  0  0  0  0  0  0  0999 V2000
   23.1913   71.5870   -3.7419 P   0  0  2  0  0  0  0  0  0  0  0  0
   22.1420   72.7511   -3.3405 O   0  0  0  0  0  0  0  0  0  0  0  0
   23.1882   70.3909   -2.8359 O   0  0  0  0  0  0  0  0  0  0  0  0
   24.6037   72.3655   -3.8729 O   0  0  0  0  0  0  0  0  0  0  0  0
   25.7617   71.6156   -4.1961 C   0  0  0  0  0  0  0  0  0  0  0  0
   27.2021   70.1215   -2.9851 O   0  0  0  0  0  0  0  0  0  0  0  0
   28.1215   72.5383   -1.4670 O   0  0  0  0  0  0  0  0  0  0  0  0
   30.1403   72.1596   -3.2608 O   0  0  0  0  0  0  0  0  0  0  0  0
   27.7596   72.4203   -2.8419 C   0  0  1  0  0  0  0  0  0  0  0  0
   28.8494   71.7054   -3.6131 C   0  0  2  0  0  0  0  0  0  0  0  0
   26.6019   71.4345   -2.9394 C   0  0  1  0  0  0  0  0  0  0  0  0
   28.6128   70.2563   -3.2228 C   0  0  2  0  0  0  0  0  0  0  0  0
   28.8590   73.1632   -1.3795 H   0  0  0  0  0  0  0  0  0  0  0  0
   30.2418   73.0860   -3.5297 H   0  0  0  0  0  0  0  0  0  0  0  0
   30.5448   68.2199   -2.9091 O   0  0  0  0  0  0  0  0  0  0  0  0
   30.0226   66.8008   -7.2627 O   0  0  0  0  0  0  0  0  0  0  0  0
   29.0010   69.3400   -4.2577 N   0  0  0  0  0  0  0  0  0  0  0  0
   30.2831   67.5148   -5.0771 N   0  0  0  0  0  0  0  0  0  0  0  0
   29.9816   68.3546   -3.9973 C   0  0  0  0  0  0  0  0  0  0  0  0
   28.4110   69.4235   -5.5143 C   0  0  0  0  0  0  0  0  0  0  0  0
   28.7105   68.6159   -6.5337 C   0  0  0  0  0  0  0  0  0  0  0  0
   29.7252   67.5591   -6.3449 C   0  0  0  0  0  0  0  0  0  0  0  0
   30.9638   66.8209   -4.9191 H   0  0  0  0  0  0  0  0  0  0  0  0
   22.8088   71.2672   -5.2796 O   0  0  0  0  0  0  0  0  0  0  0  0
   21.7454   71.9662   -6.2763 P   0  0  2  0  0  0  0  0  0  0  0  0
   22.0436   71.2520   -7.6971 O   0  0  0  0  0  0  0  0  0  0  0  0
   21.8248   73.4651   -6.3080 O   0  0  0  0  0  0  0  0  0  0  0  0
   20.3120   71.3818   -5.8193 O   0  0  0  0  0  0  0  0  0  0  0  0
   18.2934   71.5429   -7.0505 O   0  0  0  0  0  0  0  0  0  0  0  0
   16.7327   71.4969   -3.2278 O   0  0  0  0  0  0  0  0  0  0  0  0
   16.4384   69.1860   -4.9075 O   0  0  0  0  0  0  0  0  0  0  0  0
   19.1879   72.9321   -3.7679 O   0  0  0  0  0  0  0  0  0  0  0  0
   17.6531   71.1432   -4.2637 C   0  0  1  0  0  0  0  0  0  0  0  0
   16.8718   70.4564   -5.3856 C   0  0  1  0  0  0  0  0  0  0  0  0
   18.3342   72.4094   -4.7800 C   0  0  2  0  0  0  0  0  0  0  0  0
   17.7381   70.2877   -6.6411 C   0  0  1  0  0  0  0  0  0  0  0  0
   19.1300   72.1414   -6.0586 C   0  0  1  0  0  0  0  0  0  0  0  0
   16.2972   70.6973   -2.8953 H   0  0  0  0  0  0  0  0  0  0  0  0
   15.8929   69.3066   -4.1143 H   0  0  0  0  0  0  0  0  0  0  0  0
   18.6722   73.0978   -2.9639 H   0  0  0  0  0  0  0  0  0  0  0  0
   15.5564   69.9083   -7.5384 O   0  0  0  0  0  0  0  0  0  0  0  0
   16.9341   69.7490   -7.8224 C   0  0  0  0  0  0  0  0  0  0  0  0
   15.0324   69.5700   -8.2818 H   0  0  0  0  0  0  0  0  0  0  0  0
 25 28  1  0
 25 24  1  0
 25 26  1  6
 25 27  2  0
  1  4  1  0
  1 24  1  0
  1  2  1  1
  1  3  2  0
  6 11  1  0
  6 12  1  0
 29 36  1  0
 29 37  1  0
  9  7  1  1
  7 13  1  0
 10  8  1  1
  8 14  1  0
 37 28  1  1
  4  5  1  0
 33 30  1  1
 30 38  1  0
 34 31  1  1
 31 39  1  0
 35 32  1  1
 32 40  1  0
 41 42  1  0
 41 43  1  0
 15 19  2  0
 16 22  2  0
 12 17  1  6
 17 19  1  0
 17 20  1  0
 18 19  1  0
 18 22  1  0
 18 23  1  0
  9 10  1  0
  9 11  1  0
 10 12  1  0
 11  5  1  6
 33 34  1  0
 33 35  1  0
 34 36  1  0
 35 37  1  0
 36 42  1  6
 20 21  2  0
 21 22  1  0
M  CHG  2   2  -1  26  -1
M  END
>  <COMPND>  (6) 
    8629 

>  <AUTHOR>  (6) 
    GENERATED BY OPEN BABEL 3.1.1

>  <MASTER>  (6) 
        0    0    0    0    0    0    0    0   58    0   58    0

>  <minimizedAffinity>  (6) 
-6.74092

>  <CNNscore>  (6) 
0.5059757233

>  <CNNaffinity>  (6) 
4.3856801987

>  <CNN_VS>  (6) 
2.2190477848

>  <CNNaffinity_variance>  (6) 
0.0379119590

$$$$
7
     RDKit          3D

 43 45  0  0  0  0  0  0  0  0999 V2000
   24.4028   73.1581   -4.9567 P   0  0  2  0  0  0  0  0  0  0  0  0
   25.5495   73.6409   -5.9909 O   0  0  0  0  0  0  0  0  0  0  0  0
   23.9418   74.2063   -3.9871 O   0  0  0  0  0  0  0  0  0  0  0  0
   25.0149   71.8127   -4.2986 O   0  0  0  0  0  0  0  0  0  0  0  0
   26.3744   71.4979   -4.5444 C   0  0  0  0  0  0  0  0  0  0  0  0
   27.3543   69.6566   -3.3513 O   0  0  0  0  0  0  0  0  0  0  0  0
   28.5704   71.7177   -1.5448 O   0  0  0  0  0  0  0  0  0  0  0  0
   30.6509   71.0587   -3.1800 O   0  0  0  0  0  0  0  0  0  0  0  0
   28.3387   71.7748   -2.9513 C   0  0  1  0  0  0  0  0  0  0  0  0
   29.3399   70.9069   -3.6848 C   0  0  2  0  0  0  0  0  0  0  0  0
   27.0253   71.0586   -3.2399 C   0  0  1  0  0  0  0  0  0  0  0  0
   28.7808   69.5139   -3.4501 C   0  0  2  0  0  0  0  0  0  0  0  0
   29.4039   72.1691   -1.3360 H   0  0  0  0  0  0  0  0  0  0  0  0
   30.9619   71.9609   -3.3536 H   0  0  0  0  0  0  0  0  0  0  0  0
   31.0407   67.8210   -3.5213 O   0  0  0  0  0  0  0  0  0  0  0  0
   29.8505   66.1005   -7.6279 O   0  0  0  0  0  0  0  0  0  0  0  0
   29.0859   68.6129   -4.5256 N   0  0  0  0  0  0  0  0  0  0  0  0
   30.4461   66.9656   -5.5659 N   0  0  0  0  0  0  0  0  0  0  0  0
   30.2464   67.8069   -4.4640 C   0  0  0  0  0  0  0  0  0  0  0  0
   28.2387   68.5349   -5.6257 C   0  0  0  0  0  0  0  0  0  0  0  0
   28.4440   67.7283   -6.6690 C   0  0  0  0  0  0  0  0  0  0  0  0
   29.6338   66.8531   -6.6832 C   0  0  0  0  0  0  0  0  0  0  0  0
   31.2485   66.3950   -5.5452 H   0  0  0  0  0  0  0  0  0  0  0  0
   23.2471   72.5911   -5.9343 O   0  0  0  0  0  0  0  0  0  0  0  0
   21.6830   72.2859   -5.6634 P   0  0  2  0  0  0  0  0  0  0  0  0
   21.4436   70.8759   -6.4197 O   0  0  0  0  0  0  0  0  0  0  0  0
   20.7574   73.3858   -6.0964 O   0  0  0  0  0  0  0  0  0  0  0  0
   21.6034   71.9245   -4.0924 O   0  0  0  0  0  0  0  0  0  0  0  0
   19.4735   72.5600   -3.2701 O   0  0  0  0  0  0  0  0  0  0  0  0
   21.2337   71.4034    0.2816 O   0  0  0  0  0  0  0  0  0  0  0  0
   19.2076   69.7475   -0.9020 O   0  0  0  0  0  0  0  0  0  0  0  0
   22.7914   72.8127   -1.7102 O   0  0  0  0  0  0  0  0  0  0  0  0
   20.9740   71.3449   -1.1236 C   0  0  1  0  0  0  0  0  0  0  0  0
   19.4805   71.0806   -1.3246 C   0  0  1  0  0  0  0  0  0  0  0  0
   21.3755   72.6736   -1.7612 C   0  0  2  0  0  0  0  0  0  0  0  0
   19.0775   71.2686   -2.7934 C   0  0  1  0  0  0  0  0  0  0  0  0
   20.8842   72.7780   -3.2061 C   0  0  1  0  0  0  0  0  0  0  0  0
   20.9813   70.5626    0.6924 H   0  0  0  0  0  0  0  0  0  0  0  0
   19.4670   69.6420    0.0269 H   0  0  0  0  0  0  0  0  0  0  0  0
   23.0898   72.7450   -0.7903 H   0  0  0  0  0  0  0  0  0  0  0  0
   17.3170   70.5797   -4.2546 O   0  0  0  0  0  0  0  0  0  0  0  0
   17.5666   71.1647   -2.9897 C   0  0  0  0  0  0  0  0  0  0  0  0
   16.3593   70.5070   -4.3931 H   0  0  0  0  0  0  0  0  0  0  0  0
 25 28  1  0
 25 24  1  0
 25 26  1  6
 25 27  2  0
  1  4  1  0
  1 24  1  0
  1  2  1  6
  1  3  2  0
  6 11  1  0
  6 12  1  0
 29 36  1  0
 29 37  1  0
  9  7  1  1
  7 13  1  0
 10  8  1  1
  8 14  1  0
 37 28  1  6
  4  5  1  0
 33 30  1  1
 30 38  1  0
 34 31  1  6
 31 39  1  0
 35 32  1  6
 32 40  1  0
 41 42  1  0
 41 43  1  0
 15 19  2  0
 16 22  2  0
 12 17  1  6
 17 19  1  0
 17 20  1  0
 18 19  1  0
 18 22  1  0
 18 23  1  0
  9 10  1  0
  9 11  1  0
 10 12  1  0
 11  5  1  6
 33 34  1  0
 33 35  1  0
 34 36  1  0
 35 37  1  0
 36 42  1  1
 20 21  2  0
 21 22  1  0
M  CHG  2   2  -1  26  -1
M  END
>  <COMPND>  (7) 
    8629 

>  <AUTHOR>  (7) 
    GENERATED BY OPEN BABEL 3.1.1

>  <MASTER>  (7) 
        0    0    0    0    0    0    0    0   58    0   58    0

>  <minimizedAffinity>  (7) 
-7.45523

>  <CNNscore>  (7) 
0.5031672120

>  <CNNaffinity>  (7) 
4.3328275681

>  <CNN_VS>  (7) 
2.1801366806

>  <CNNaffinity_variance>  (7) 
0.0594079867

$$$$
8
     RDKit          3D

 43 45  0  0  0  0  0  0  0  0999 V2000
   24.7749   73.7082   -5.0108 P   0  0  2  0  0  0  0  0  0  0  0  0
   25.0919   74.6730   -6.2701 O   0  0  0  0  0  0  0  0  0  0  0  0
   24.1154   74.3842   -3.8448 O   0  0  0  0  0  0  0  0  0  0  0  0
   26.1943   72.9967   -4.6996 O   0  0  0  0  0  0  0  0  0  0  0  0
   26.2130   71.5994   -4.4647 C   0  0  0  0  0  0  0  0  0  0  0  0
   27.4399   69.9515   -3.2186 O   0  0  0  0  0  0  0  0  0  0  0  0
   28.5694   72.2469   -1.6546 O   0  0  0  0  0  0  0  0  0  0  0  0
   30.5919   71.6544   -3.3852 O   0  0  0  0  0  0  0  0  0  0  0  0
   28.2419   72.1743   -3.0412 C   0  0  1  0  0  0  0  0  0  0  0  0
   29.2712   71.3464   -3.7820 C   0  0  2  0  0  0  0  0  0  0  0  0
   26.9867   71.3225   -3.1829 C   0  0  1  0  0  0  0  0  0  0  0  0
   28.8639   69.9308   -3.4099 C   0  0  2  0  0  0  0  0  0  0  0  0
   29.3679   72.7863   -1.5389 H   0  0  0  0  0  0  0  0  0  0  0  0
   30.8035   72.5648   -3.6441 H   0  0  0  0  0  0  0  0  0  0  0  0
   30.8225   67.9105   -3.1648 O   0  0  0  0  0  0  0  0  0  0  0  0
   30.0022   66.3440   -7.4209 O   0  0  0  0  0  0  0  0  0  0  0  0
   29.1826   68.9810   -4.4383 N   0  0  0  0  0  0  0  0  0  0  0  0
   30.4123   67.1320   -5.2842 N   0  0  0  0  0  0  0  0  0  0  0  0
   30.1836   68.0072   -4.2146 C   0  0  0  0  0  0  0  0  0  0  0  0
   28.5054   69.0207   -5.6523 C   0  0  0  0  0  0  0  0  0  0  0  0
   28.7363   68.1798   -6.6626 C   0  0  0  0  0  0  0  0  0  0  0  0
   29.7665   67.1322   -6.5104 C   0  0  0  0  0  0  0  0  0  0  0  0
   31.1056   66.4454   -5.1513 H   0  0  0  0  0  0  0  0  0  0  0  0
   23.9088   72.5160   -5.6752 O   0  0  0  0  0  0  0  0  0  0  0  0
   22.3117   72.2767   -5.7466 P   0  0  2  0  0  0  0  0  0  0  0  0
   22.1870   70.7875   -6.3665 O   0  0  0  0  0  0  0  0  0  0  0  0
   21.5651   73.3306   -6.5120 O   0  0  0  0  0  0  0  0  0  0  0  0
   21.8534   72.1172   -4.2073 O   0  0  0  0  0  0  0  0  0  0  0  0
   23.2007   71.5140   -2.3532 O   0  0  0  0  0  0  0  0  0  0  0  0
   19.6313   69.8192   -1.1541 O   0  0  0  0  0  0  0  0  0  0  0  0
   20.5871   72.1888    0.1573 O   0  0  0  0  0  0  0  0  0  0  0  0
   20.4103   69.7253   -3.9405 O   0  0  0  0  0  0  0  0  0  0  0  0
   20.4622   70.7978   -1.7845 C   0  0  1  0  0  0  0  0  0  0  0  0
   21.3839   71.4003   -0.7223 C   0  0  1  0  0  0  0  0  0  0  0  0
   21.2790   70.1244   -2.8857 C   0  0  2  0  0  0  0  0  0  0  0  0
   22.4814   72.2598   -1.3642 C   0  0  1  0  0  0  0  0  0  0  0  0
   22.3742   71.0481   -3.4217 C   0  0  1  0  0  0  0  0  0  0  0  0
   19.1097   70.2404   -0.4541 H   0  0  0  0  0  0  0  0  0  0  0  0
   19.8978   71.6343    0.5556 H   0  0  0  0  0  0  0  0  0  0  0  0
   19.7217   69.1407   -3.5884 H   0  0  0  0  0  0  0  0  0  0  0  0
   23.4087   71.9204    0.8115 O   0  0  0  0  0  0  0  0  0  0  0  0
   23.5041   72.7417   -0.3376 C   0  0  0  0  0  0  0  0  0  0  0  0
   24.0541   72.2152    1.4735 H   0  0  0  0  0  0  0  0  0  0  0  0
 25 28  1  0
 25 24  1  0
 25 26  1  6
 25 27  2  0
  1  4  1  0
  1 24  1  0
  1  2  1  6
  1  3  2  0
  6 11  1  0
  6 12  1  0
 29 36  1  0
 29 37  1  0
  9  7  1  1
  7 13  1  0
 10  8  1  1
  8 14  1  0
 37 28  1  1
  4  5  1  0
 33 30  1  1
 30 38  1  0
 34 31  1  1
 31 39  1  0
 35 32  1  6
 32 40  1  0
 41 42  1  0
 41 43  1  0
 15 19  2  0
 16 22  2  0
 12 17  1  6
 17 19  1  0
 17 20  1  0
 18 19  1  0
 18 22  1  0
 18 23  1  0
  9 10  1  0
  9 11  1  0
 10 12  1  0
 11  5  1  6
 33 34  1  0
 33 35  1  0
 34 36  1  0
 35 37  1  0
 36 42  1  1
 20 21  2  0
 21 22  1  0
M  CHG  2   2  -1  26  -1
M  END
>  <COMPND>  (8) 
    8629 

>  <AUTHOR>  (8) 
    GENERATED BY OPEN BABEL 3.1.1

>  <MASTER>  (8) 
        0    0    0    0    0    0    0    0   58    0   58    0

>  <minimizedAffinity>  (8) 
-7.41505

>  <CNNscore>  (8) 
0.4755254686

>  <CNNaffinity>  (8) 
4.2734370232

>  <CNN_VS>  (8) 
2.0321280956

>  <CNNaffinity_variance>  (8) 
0.0917031318

$$$$
9
     RDKit          3D

 43 45  0  0  0  0  0  0  0  0999 V2000
   25.0844   73.6817   -4.4381 P   0  0  2  0  0  0  0  0  0  0  0  0
   25.2246   73.4333   -6.0306 O   0  0  0  0  0  0  0  0  0  0  0  0
   24.6506   75.0642   -4.0481 O   0  0  0  0  0  0  0  0  0  0  0  0
   26.5089   73.1980   -3.8426 O   0  0  0  0  0  0  0  0  0  0  0  0
   26.8809   71.8397   -3.9986 C   0  0  0  0  0  0  0  0  0  0  0  0
   28.0048   70.0034   -2.9316 O   0  0  0  0  0  0  0  0  0  0  0  0
   29.4734   72.0738   -1.3354 O   0  0  0  0  0  0  0  0  0  0  0  0
   31.3024   71.3805   -3.2355 O   0  0  0  0  0  0  0  0  0  0  0  0
   29.0491   72.1177   -2.6968 C   0  0  1  0  0  0  0  0  0  0  0  0
   29.9330   71.2339   -3.5518 C   0  0  2  0  0  0  0  0  0  0  0  0
   27.7036   71.4092   -2.7920 C   0  0  1  0  0  0  0  0  0  0  0  0
   29.4028   69.8481   -3.2256 C   0  0  2  0  0  0  0  0  0  0  0  0
   30.3307   72.5206   -1.2495 H   0  0  0  0  0  0  0  0  0  0  0  0
   31.5922   72.2782   -3.4612 H   0  0  0  0  0  0  0  0  0  0  0  0
   31.2243   67.6898   -3.2703 O   0  0  0  0  0  0  0  0  0  0  0  0
   29.8808   66.4046   -7.4874 O   0  0  0  0  0  0  0  0  0  0  0  0
   29.5497   68.9333   -4.3224 N   0  0  0  0  0  0  0  0  0  0  0  0
   30.5537   67.0515   -5.3700 N   0  0  0  0  0  0  0  0  0  0  0  0
   30.4946   67.8837   -4.2448 C   0  0  0  0  0  0  0  0  0  0  0  0
   28.7619   69.0815   -5.4587 C   0  0  0  0  0  0  0  0  0  0  0  0
   28.8314   68.2802   -6.5238 C   0  0  0  0  0  0  0  0  0  0  0  0
   29.7929   67.1588   -6.5234 C   0  0  0  0  0  0  0  0  0  0  0  0
   31.2050   66.3136   -5.3387 H   0  0  0  0  0  0  0  0  0  0  0  0
   24.0781   72.5049   -3.9739 O   0  0  0  0  0  0  0  0  0  0  0  0
   23.2633   72.2874   -2.5949 P   0  0  2  0  0  0  0  0  0  0  0  0
   22.8453   70.7255   -2.6532 O   0  0  0  0  0  0  0  0  0  0  0  0
   22.1104   73.2303   -2.4061 O   0  0  0  0  0  0  0  0  0  0  0  0
   24.3875   72.3657   -1.4394 O   0  0  0  0  0  0  0  0  0  0  0  0
   23.4784   73.0679    0.6335 O   0  0  0  0  0  0  0  0  0  0  0  0
   27.4948   73.2801    1.5686 O   0  0  0  0  0  0  0  0  0  0  0  0
   25.8890   71.1755    2.6820 O   0  0  0  0  0  0  0  0  0  0  0  0
   26.5804   74.0753   -1.0603 O   0  0  0  0  0  0  0  0  0  0  0  0
   26.3319   72.7442    0.9317 C   0  0  1  0  0  0  0  0  0  0  0  0
   25.3453   72.3133    2.0188 C   0  0  1  0  0  0  0  0  0  0  0  0
   25.7126   73.8175    0.0384 C   0  0  2  0  0  0  0  0  0  0  0  0
   23.9729   71.9775    1.4198 C   0  0  1  0  0  0  0  0  0  0  0  0
   24.3285   73.4039   -0.4649 C   0  0  1  0  0  0  0  0  0  0  0  0
   27.8931   72.6035    2.1369 H   0  0  0  0  0  0  0  0  0  0  0  0
   26.7557   71.4008    3.0553 H   0  0  0  0  0  0  0  0  0  0  0  0
   27.4531   74.3364   -0.7285 H   0  0  0  0  0  0  0  0  0  0  0  0
   23.1875   70.4199    3.0526 O   0  0  0  0  0  0  0  0  0  0  0  0
   22.9303   71.6977    2.5000 C   0  0  0  0  0  0  0  0  0  0  0  0
   22.5318   70.2285    3.7419 H   0  0  0  0  0  0  0  0  0  0  0  0
 25 28  1  0
 25 24  1  0
 25 26  1  6
 25 27  2  0
  1  4  1  0
  1 24  1  0
  1  2  1  6
  1  3  2  0
  6 11  1  0
  6 12  1  0
 29 36  1  0
 29 37  1  0
  9  7  1  1
  7 13  1  0
 10  8  1  1
  8 14  1  0
 37 28  1  6
  4  5  1  0
 33 30  1  1
 30 38  1  0
 34 31  1  6
 31 39  1  0
 35 32  1  6
 32 40  1  0
 41 42  1  0
 41 43  1  0
 15 19  2  0
 16 22  2  0
 12 17  1  6
 17 19  1  0
 17 20  1  0
 18 19  1  0
 18 22  1  0
 18 23  1  0
  9 10  1  0
  9 11  1  0
 10 12  1  0
 11  5  1  6
 33 34  1  0
 33 35  1  0
 34 36  1  0
 35 37  1  0
 36 42  1  1
 20 21  2  0
 21 22  1  0
M  CHG  2   2  -1  26  -1
M  END
>  <COMPND>  (9) 
    8629 

>  <AUTHOR>  (9) 
    GENERATED BY OPEN BABEL 3.1.1

>  <MASTER>  (9) 
        0    0    0    0    0    0    0    0   58    0   58    0

>  <minimizedAffinity>  (9) 
-6.80221

>  <CNNscore>  (9) 
0.4716743231

>  <CNNaffinity>  (9) 
4.1885361671

>  <CNN_VS>  (9) 
1.9756249189

>  <CNNaffinity_variance>  (9) 
0.0679221302

$$$$
10
     RDKit          3D

 43 45  0  0  0  0  0  0  0  0999 V2000
   27.3940   72.3169   -1.6843 P   0  0  2  0  0  0  0  0  0  0  0  0
   28.9228   72.8198   -1.8496 O   0  0  0  0  0  0  0  0  0  0  0  0
   26.3502   73.3306   -2.0509 O   0  0  0  0  0  0  0  0  0  0  0  0
   27.3302   71.7602   -0.1665 O   0  0  0  0  0  0  0  0  0  0  0  0
   26.5142   72.4420    0.7701 C   0  0  0  0  0  0  0  0  0  0  0  0
   24.8984   71.4620    2.2542 O   0  0  0  0  0  0  0  0  0  0  0  0
   22.9463   71.7117   -0.0081 O   0  0  0  0  0  0  0  0  0  0  0  0
   22.3012   73.8393    1.5711 O   0  0  0  0  0  0  0  0  0  0  0  0
   24.0059   72.5889    0.3702 C   0  0  1  0  0  0  0  0  0  0  0  0
   23.6298   73.3601    1.6182 C   0  0  2  0  0  0  0  0  0  0  0  0
   25.1685   71.7357    0.8619 C   0  0  1  0  0  0  0  0  0  0  0  0
   23.8381   72.3202    2.7059 C   0  0  2  0  0  0  0  0  0  0  0  0
   22.1925   72.2338   -0.3260 H   0  0  0  0  0  0  0  0  0  0  0  0
   22.2197   74.4978    0.8637 H   0  0  0  0  0  0  0  0  0  0  0  0
   22.3356   72.1021    5.0877 O   0  0  0  0  0  0  0  0  0  0  0  0
   25.3849   74.6170    7.4579 O   0  0  0  0  0  0  0  0  0  0  0  0
   24.2162   72.9078    3.9602 N   0  0  0  0  0  0  0  0  0  0  0  0
   23.8552   73.3543    6.2660 N   0  0  0  0  0  0  0  0  0  0  0  0
   23.3906   72.7396    5.0963 C   0  0  0  0  0  0  0  0  0  0  0  0
   25.3940   73.6410    4.0549 C   0  0  0  0  0  0  0  0  0  0  0  0
   25.8223   74.2220    5.1775 C   0  0  0  0  0  0  0  0  0  0  0  0
   25.0181   74.0943    6.4100 C   0  0  0  0  0  0  0  0  0  0  0  0
   23.2963   73.2509    7.0702 H   0  0  0  0  0  0  0  0  0  0  0  0
   27.3585   70.9646   -2.5691 O   0  0  0  0  0  0  0  0  0  0  0  0
   26.4111   70.5286   -3.8041 P   0  0  2  0  0  0  0  0  0  0  0  0
   26.3345   71.8705   -4.7048 O   0  0  0  0  0  0  0  0  0  0  0  0
   25.0748   69.9826   -3.3917 O   0  0  0  0  0  0  0  0  0  0  0  0
   27.3125   69.5075   -4.6699 O   0  0  0  0  0  0  0  0  0  0  0  0
   27.0443   67.2079   -5.1766 O   0  0  0  0  0  0  0  0  0  0  0  0
   31.1337   67.2859   -4.6095 O   0  0  0  0  0  0  0  0  0  0  0  0
   30.0755   66.9985   -7.2639 O   0  0  0  0  0  0  0  0  0  0  0  0
   29.4103   68.8791   -2.9150 O   0  0  0  0  0  0  0  0  0  0  0  0
   29.8653   67.8027   -5.0212 C   0  0  1  0  0  0  0  0  0  0  0  0
   29.2878   66.8659   -6.0840 C   0  0  1  0  0  0  0  0  0  0  0  0
   28.9390   67.8763   -3.8087 C   0  0  2  0  0  0  0  0  0  0  0  0
   27.8202   67.2024   -6.3806 C   0  0  1  0  0  0  0  0  0  0  0  0
   27.4943   68.1679   -4.2185 C   0  0  1  0  0  0  0  0  0  0  0  0
   31.7268   67.2371   -5.3747 H   0  0  0  0  0  0  0  0  0  0  0  0
   31.0000   66.7836   -7.0628 H   0  0  0  0  0  0  0  0  0  0  0  0
   30.3256   68.6830   -2.6629 H   0  0  0  0  0  0  0  0  0  0  0  0
   26.6060   66.8784   -8.4128 O   0  0  0  0  0  0  0  0  0  0  0  0
   27.1785   66.1837   -7.3201 C   0  0  0  0  0  0  0  0  0  0  0  0
   26.1941   66.2427   -9.0193 H   0  0  0  0  0  0  0  0  0  0  0  0
 25 28  1  0
 25 24  1  0
 25 26  1  6
 25 27  2  0
  1  4  1  0
  1 24  1  0
  1  2  1  1
  1  3  2  0
  6 11  1  0
  6 12  1  0
 29 36  1  0
 29 37  1  0
  9  7  1  1
  7 13  1  0
 10  8  1  6
  8 14  1  0
 37 28  1  6
  4  5  1  0
 33 30  1  1
 30 38  1  0
 34 31  1  6
 31 39  1  0
 35 32  1  1
 32 40  1  0
 41 42  1  0
 41 43  1  0
 15 19  2  0
 16 22  2  0
 12 17  1  1
 17 19  1  0
 17 20  1  0
 18 19  1  0
 18 22  1  0
 18 23  1  0
  9 10  1  0
  9 11  1  0
 10 12  1  0
 11  5  1  1
 33 34  1  0
 33 35  1  0
 34 36  1  0
 35 37  1  0
 36 42  1  6
 20 21  2  0
 21 22  1  0
M  CHG  2   2  -1  26  -1
M  END
>  <COMPND>  (10) 
    8629 

>  <AUTHOR>  (10) 
    GENERATED BY OPEN BABEL 3.1.1

>  <MASTER>  (10) 
        0    0    0    0    0    0    0    0   58    0   58    0

>  <minimizedAffinity>  (10) 
-7.05183

>  <CNNscore>  (10) 
0.4097869396

>  <CNNaffinity>  (10) 
3.9757182598

>  <CNN_VS>  (10) 
1.6291973591

>  <CNNaffinity_variance>  (10) 
0.0163399428

$$$$
11
     RDKit          3D

 43 45  0  0  0  0  0  0  0  0999 V2000
   26.0544   72.3566   -0.7940 P   0  0  2  0  0  0  0  0  0  0  0  0
   26.5343   73.8897   -0.6021 O   0  0  0  0  0  0  0  0  0  0  0  0
   25.5086   71.7040    0.4420 O   0  0  0  0  0  0  0  0  0  0  0  0
   27.3348   71.6300   -1.4652 O   0  0  0  0  0  0  0  0  0  0  0  0
   28.5182   72.3857   -1.6558 C   0  0  0  0  0  0  0  0  0  0  0  0
   29.5372   70.2098   -1.6274 O   0  0  0  0  0  0  0  0  0  0  0  0
   32.0782   71.6155   -0.8804 O   0  0  0  0  0  0  0  0  0  0  0  0
   32.4212   71.1433   -3.5442 O   0  0  0  0  0  0  0  0  0  0  0  0
   31.0367   72.0401   -1.7581 C   0  0  1  0  0  0  0  0  0  0  0  0
   31.0996   71.2694   -3.0602 C   0  0  2  0  0  0  0  0  0  0  0  0
   29.7103   71.5703   -1.1740 C   0  0  1  0  0  0  0  0  0  0  0  0
   30.4915   69.9342   -2.6657 C   0  0  2  0  0  0  0  0  0  0  0  0
   32.9353   71.9044   -1.2324 H   0  0  0  0  0  0  0  0  0  0  0  0
   32.7636   72.0191   -3.7817 H   0  0  0  0  0  0  0  0  0  0  0  0
   31.0933   67.3426   -3.6142 O   0  0  0  0  0  0  0  0  0  0  0  0
   27.8427   67.5817   -6.8727 O   0  0  0  0  0  0  0  0  0  0  0  0
   29.8179   69.2943   -3.7603 N   0  0  0  0  0  0  0  0  0  0  0  0
   29.4742   67.4637   -5.2358 N   0  0  0  0  0  0  0  0  0  0  0  0
   30.1973   67.9912   -4.1584 C   0  0  0  0  0  0  0  0  0  0  0  0
   28.7932   69.9577   -4.4265 C   0  0  0  0  0  0  0  0  0  0  0  0
   28.1143   69.4412   -5.4529 C   0  0  0  0  0  0  0  0  0  0  0  0
   28.4485   68.0842   -5.9312 C   0  0  0  0  0  0  0  0  0  0  0  0
   29.7213   66.5573   -5.5309 H   0  0  0  0  0  0  0  0  0  0  0  0
   25.0073   72.4544   -2.0215 O   0  0  0  0  0  0  0  0  0  0  0  0
   25.0381   71.7972   -3.4980 P   0  0  2  0  0  0  0  0  0  0  0  0
   25.1613   70.2125   -3.1962 O   0  0  0  0  0  0  0  0  0  0  0  0
   26.1137   72.3427   -4.3921 O   0  0  0  0  0  0  0  0  0  0  0  0
   23.5382   71.9893   -4.0621 O   0  0  0  0  0  0  0  0  0  0  0  0
   22.0526   70.2590   -3.4175 O   0  0  0  0  0  0  0  0  0  0  0  0
   19.7334   72.0759   -6.3107 O   0  0  0  0  0  0  0  0  0  0  0  0
   19.0400   72.3798   -3.5403 O   0  0  0  0  0  0  0  0  0  0  0  0
   22.5910   71.8244   -6.6985 O   0  0  0  0  0  0  0  0  0  0  0  0
   20.6831   72.0280   -5.2425 C   0  0  1  0  0  0  0  0  0  0  0  0
   19.9932   71.4324   -4.0137 C   0  0  1  0  0  0  0  0  0  0  0  0
   21.8680   71.1621   -5.6664 C   0  0  2  0  0  0  0  0  0  0  0  0
   21.0103   71.1021   -2.9130 C   0  0  1  0  0  0  0  0  0  0  0  0
   22.7916   70.8521   -4.4870 C   0  0  1  0  0  0  0  0  0  0  0  0
   18.9787   72.6246   -6.0481 H   0  0  0  0  0  0  0  0  0  0  0  0
   18.4040   72.5801   -4.2450 H   0  0  0  0  0  0  0  0  0  0  0  0
   21.9954   72.0148   -7.4394 H   0  0  0  0  0  0  0  0  0  0  0  0
   19.7431   71.3140   -0.8985 O   0  0  0  0  0  0  0  0  0  0  0  0
   20.3662   70.3630   -1.7421 C   0  0  0  0  0  0  0  0  0  0  0  0
   19.3286   70.8579   -0.1489 H   0  0  0  0  0  0  0  0  0  0  0  0
 25 28  1  0
 25 24  1  0
 25 26  1  1
 25 27  2  0
  1  4  1  0
  1 24  1  0
  1  2  1  1
  1  3  2  0
  6 11  1  0
  6 12  1  0
 29 36  1  0
 29 37  1  0
  9  7  1  1
  7 13  1  0
 10  8  1  1
  8 14  1  0
 37 28  1  1
  4  5  1  0
 33 30  1  6
 30 38  1  0
 34 31  1  1
 31 39  1  0
 35 32  1  6
 32 40  1  0
 41 42  1  0
 41 43  1  0
 15 19  2  0
 16 22  2  0
 12 17  1  6
 17 19  1  0
 17 20  1  0
 18 19  1  0
 18 22  1  0
 18 23  1  0
  9 10  1  0
  9 11  1  0
 10 12  1  0
 11  5  1  6
 33 34  1  0
 33 35  1  0
 34 36  1  0
 35 37  1  0
 36 42  1  1
 20 21  2  0
 21 22  1  0
M  CHG  2   2  -1  26  -1
M  END
>  <COMPND>  (11) 
    8629 

>  <AUTHOR>  (11) 
    GENERATED BY OPEN BABEL 3.1.1

>  <MASTER>  (11) 
        0    0    0    0    0    0    0    0   58    0   58    0

>  <minimizedAffinity>  (11) 
-6.31398

>  <CNNscore>  (11) 
0.4048228860

>  <CNNaffinity>  (11) 
4.2355742455

>  <CNN_VS>  (11) 
1.7146574259

>  <CNNaffinity_variance>  (11) 
0.0864599943

$$$$
12
     RDKit          3D

 43 45  0  0  0  0  0  0  0  0999 V2000
   21.6039   73.6571   -5.8441 P   0  0  2  0  0  0  0  0  0  0  0  0
   22.4516   75.0246   -6.0137 O   0  0  0  0  0  0  0  0  0  0  0  0
   20.5411   73.6974   -4.7857 O   0  0  0  0  0  0  0  0  0  0  0  0
   22.7377   72.5178   -5.6585 O   0  0  0  0  0  0  0  0  0  0  0  0
   23.1580   72.1899   -4.3456 C   0  0  0  0  0  0  0  0  0  0  0  0
   24.5455   73.3082   -2.7337 O   0  0  0  0  0  0  0  0  0  0  0  0
   26.8624   72.5482   -4.4788 O   0  0  0  0  0  0  0  0  0  0  0  0
   26.9839   70.6898   -2.4867 O   0  0  0  0  0  0  0  0  0  0  0  0
   25.6703   71.8182   -4.1933 C   0  0  1  0  0  0  0  0  0  0  0  0
   25.7235   71.2525   -2.7895 C   0  0  2  0  0  0  0  0  0  0  0  0
   24.5227   72.8152   -4.0912 C   0  0  1  0  0  0  0  0  0  0  0  0
   25.4114   72.4761   -1.9447 C   0  0  2  0  0  0  0  0  0  0  0  0
   27.6093   71.9325   -4.5490 H   0  0  0  0  0  0  0  0  0  0  0  0
   27.1359   69.9149   -3.0500 H   0  0  0  0  0  0  0  0  0  0  0  0
   26.7340   71.7855    0.4536 O   0  0  0  0  0  0  0  0  0  0  0  0
   22.7506   71.2019    2.6970 O   0  0  0  0  0  0  0  0  0  0  0  0
   24.7446   72.1395   -0.7186 N   0  0  0  0  0  0  0  0  0  0  0  0
   24.7495   71.4957    1.5687 N   0  0  0  0  0  0  0  0  0  0  0  0
   25.5017   71.8065    0.4287 C   0  0  0  0  0  0  0  0  0  0  0  0
   23.3551   72.1420   -0.6621 C   0  0  0  0  0  0  0  0  0  0  0  0
   22.6529   71.8419    0.4324 C   0  0  0  0  0  0  0  0  0  0  0  0
   23.3677   71.4829    1.6742 C   0  0  0  0  0  0  0  0  0  0  0  0
   25.2557   71.2602    2.3800 H   0  0  0  0  0  0  0  0  0  0  0  0
   21.0542   73.3825   -7.3393 O   0  0  0  0  0  0  0  0  0  0  0  0
   20.0490   74.2359   -8.2742 P   0  0  2  0  0  0  0  0  0  0  0  0
   21.0370   74.9065   -9.3659 O   0  0  0  0  0  0  0  0  0  0  0  0
   19.1964   75.2184   -7.5246 O   0  0  0  0  0  0  0  0  0  0  0  0
   19.2199   73.1260   -9.1022 O   0  0  0  0  0  0  0  0  0  0  0  0
   18.1343   71.6519   -7.5972 O   0  0  0  0  0  0  0  0  0  0  0  0
   17.2807   69.7192  -11.1450 O   0  0  0  0  0  0  0  0  0  0  0  0
   15.1939   71.1206   -9.7560 O   0  0  0  0  0  0  0  0  0  0  0  0
   19.8686   70.9583  -10.7621 O   0  0  0  0  0  0  0  0  0  0  0  0
   17.5075   70.8497  -10.2990 C   0  0  1  0  0  0  0  0  0  0  0  0
   16.4641   70.8285   -9.1802 C   0  0  1  0  0  0  0  0  0  0  0  0
   18.9184   70.7648   -9.7199 C   0  0  2  0  0  0  0  0  0  0  0  0
   16.8031   71.8508   -8.0870 C   0  0  1  0  0  0  0  0  0  0  0  0
   19.1352   71.7921   -8.6074 C   0  0  1  0  0  0  0  0  0  0  0  0
   16.3866   69.7673  -11.5163 H   0  0  0  0  0  0  0  0  0  0  0  0
   14.9921   70.4681  -10.4450 H   0  0  0  0  0  0  0  0  0  0  0  0
   19.7211   70.3018  -11.4600 H   0  0  0  0  0  0  0  0  0  0  0  0
   15.3347   70.4254   -6.8537 O   0  0  0  0  0  0  0  0  0  0  0  0
   15.8648   71.7377   -6.8874 C   0  0  0  0  0  0  0  0  0  0  0  0
   14.7359   70.3387   -6.0950 H   0  0  0  0  0  0  0  0  0  0  0  0
 25 28  1  0
 25 24  1  0
 25 26  1  6
 25 27  2  0
  1  4  1  0
  1 24  1  0
  1  2  1  6
  1  3  2  0
  6 11  1  0
  6 12  1  0
 29 36  1  0
 29 37  1  0
  9  7  1  1
  7 13  1  0
 10  8  1  1
  8 14  1  0
 37 28  1  6
  4  5  1  0
 33 30  1  6
 30 38  1  0
 34 31  1  6
 31 39  1  0
 35 32  1  6
 32 40  1  0
 41 42  1  0
 41 43  1  0
 15 19  2  0
 16 22  2  0
 12 17  1  1
 17 19  1  0
 17 20  1  0
 18 19  1  0
 18 22  1  0
 18 23  1  0
  9 10  1  0
  9 11  1  0
 10 12  1  0
 11  5  1  1
 33 34  1  0
 33 35  1  0
 34 36  1  0
 35 37  1  0
 36 42  1  1
 20 21  2  0
 21 22  1  0
M  CHG  2   2  -1  26  -1
M  END
>  <COMPND>  (12) 
    8629 

>  <AUTHOR>  (12) 
    GENERATED BY OPEN BABEL 3.1.1

>  <MASTER>  (12) 
        0    0    0    0    0    0    0    0   58    0   58    0

>  <minimizedAffinity>  (12) 
-6.44972

>  <CNNscore>  (12) 
0.4014472961

>  <CNNaffinity>  (12) 
3.9131939411

>  <CNN_VS>  (12) 
1.5709410906

>  <CNNaffinity_variance>  (12) 
0.2465505600

$$$$
13
     RDKit          3D

 43 45  0  0  0  0  0  0  0  0999 V2000
   16.4201   71.1164   -2.9019 P   0  0  2  0  0  0  0  0  0  0  0  0
   17.7969   71.3820   -2.0948 O   0  0  0  0  0  0  0  0  0  0  0  0
   15.4755   72.2815   -2.9444 O   0  0  0  0  0  0  0  0  0  0  0  0
   15.8356   69.7618   -2.2377 O   0  0  0  0  0  0  0  0  0  0  0  0
   14.4323   69.6317   -2.0910 C   0  0  0  0  0  0  0  0  0  0  0  0
   14.4046   67.4439   -1.0979 O   0  0  0  0  0  0  0  0  0  0  0  0
   12.3545   66.7348   -3.1679 O   0  0  0  0  0  0  0  0  0  0  0  0
   10.8320   67.1674   -0.9472 O   0  0  0  0  0  0  0  0  0  0  0  0
   12.5473   67.9663   -2.4738 C   0  0  1  0  0  0  0  0  0  0  0  0
   12.0693   67.8434   -1.0421 C   0  0  2  0  0  0  0  0  0  0  0  0
   14.0459   68.1728   -2.2922 C   0  0  1  0  0  0  0  0  0  0  0  0
   13.2075   67.0730   -0.3948 C   0  0  2  0  0  0  0  0  0  0  0  0
   11.4047   66.5814   -3.2959 H   0  0  0  0  0  0  0  0  0  0  0  0
   10.1403   67.6974   -1.3731 H   0  0  0  0  0  0  0  0  0  0  0  0
   11.6450   65.9709    1.6841 O   0  0  0  0  0  0  0  0  0  0  0  0
   13.8997   68.3785    4.9029 O   0  0  0  0  0  0  0  0  0  0  0  0
   13.3650   67.3938    0.9957 N   0  0  0  0  0  0  0  0  0  0  0  0
   12.7690   67.1705    3.2851 N   0  0  0  0  0  0  0  0  0  0  0  0
   12.5282   66.7854    1.9601 C   0  0  0  0  0  0  0  0  0  0  0  0
   14.3409   68.3023    1.3911 C   0  0  0  0  0  0  0  0  0  0  0  0
   14.5569   68.6598    2.6586 C   0  0  0  0  0  0  0  0  0  0  0  0
   13.7257   68.0702    3.7279 C   0  0  0  0  0  0  0  0  0  0  0  0
   12.1979   66.7598    3.9742 H   0  0  0  0  0  0  0  0  0  0  0  0
   16.9379   70.6171   -4.3495 O   0  0  0  0  0  0  0  0  0  0  0  0
   16.1624   69.8686   -5.5541 P   0  0  2  0  0  0  0  0  0  0  0  0
   14.8287   70.7634   -5.7494 O   0  0  0  0  0  0  0  0  0  0  0  0
   15.8996   68.4116   -5.3053 O   0  0  0  0  0  0  0  0  0  0  0  0
   17.0532   70.1732   -6.8651 O   0  0  0  0  0  0  0  0  0  0  0  0
   18.2660   72.1165   -7.4729 O   0  0  0  0  0  0  0  0  0  0  0  0
   16.9209   70.9829  -11.2087 O   0  0  0  0  0  0  0  0  0  0  0  0
   19.6920   70.6422  -10.5358 O   0  0  0  0  0  0  0  0  0  0  0  0
   15.1950   70.6920   -8.9030 O   0  0  0  0  0  0  0  0  0  0  0  0
   17.3967   70.7736   -9.8764 C   0  0  1  0  0  0  0  0  0  0  0  0
   18.7817   71.4123   -9.7558 C   0  0  1  0  0  0  0  0  0  0  0  0
   16.4211   71.4151   -8.8914 C   0  0  2  0  0  0  0  0  0  0  0  0
   19.2425   71.4639   -8.2929 C   0  0  1  0  0  0  0  0  0  0  0  0
   16.9967   71.4602   -7.4748 C   0  0  1  0  0  0  0  0  0  0  0  0
   17.5356   70.5775  -11.8391 H   0  0  0  0  0  0  0  0  0  0  0  0
   19.3893   70.6171  -11.4572 H   0  0  0  0  0  0  0  0  0  0  0  0
   14.8407   70.6709   -9.8052 H   0  0  0  0  0  0  0  0  0  0  0  0
   21.6269   71.3622   -8.4083 O   0  0  0  0  0  0  0  0  0  0  0  0
   20.5492   72.2377   -8.1318 C   0  0  0  0  0  0  0  0  0  0  0  0
   22.4651   71.8412   -8.3100 H   0  0  0  0  0  0  0  0  0  0  0  0
 25 28  1  0
 25 24  1  0
 25 26  1  6
 25 27  2  0
  1  4  1  0
  1 24  1  0
  1  2  1  1
  1  3  2  0
  6 11  1  0
  6 12  1  0
 29 36  1  0
 29 37  1  0
  9  7  1  6
  7 13  1  0
 10  8  1  6
  8 14  1  0
 37 28  1  6
  4  5  1  0
 33 30  1  6
 30 38  1  0
 34 31  1  6
 31 39  1  0
 35 32  1  1
 32 40  1  0
 41 42  1  0
 41 43  1  0
 15 19  2  0
 16 22  2  0
 12 17  1  1
 17 19  1  0
 17 20  1  0
 18 19  1  0
 18 22  1  0
 18 23  1  0
  9 10  1  0
  9 11  1  0
 10 12  1  0
 11  5  1  1
 33 34  1  0
 33 35  1  0
 34 36  1  0
 35 37  1  0
 36 42  1  6
 20 21  2  0
 21 22  1  0
M  CHG  2   2  -1  26  -1
M  END
>  <COMPND>  (13) 
    8629 

>  <AUTHOR>  (13) 
    GENERATED BY OPEN BABEL 3.1.1

>  <MASTER>  (13) 
        0    0    0    0    0    0    0    0   58    0   58    0

>  <minimizedAffinity>  (13) 
-6.00602

>  <CNNscore>  (13) 
0.3927418292

>  <CNNaffinity>  (13) 
3.8411929607

>  <CNN_VS>  (13) 
1.5085971355

>  <CNNaffinity_variance>  (13) 
0.1092102900

$$$$
14
     RDKit          3D

 43 45  0  0  0  0  0  0  0  0999 V2000
   21.3856   70.6197   -3.4489 P   0  0  2  0  0  0  0  0  0  0  0  0
   20.6898   71.4900   -2.2759 O   0  0  0  0  0  0  0  0  0  0  0  0
   21.6207   69.1764   -3.1127 O   0  0  0  0  0  0  0  0  0  0  0  0
   22.7035   71.4744   -3.8370 O   0  0  0  0  0  0  0  0  0  0  0  0
   23.8973   70.7749   -4.1425 C   0  0  0  0  0  0  0  0  0  0  0  0
   25.7884   69.8391   -2.9927 O   0  0  0  0  0  0  0  0  0  0  0  0
   26.2468   72.5918   -1.8959 O   0  0  0  0  0  0  0  0  0  0  0  0
   28.0824   72.4399   -3.9070 O   0  0  0  0  0  0  0  0  0  0  0  0
   25.7734   72.2011   -3.1838 C   0  0  1  0  0  0  0  0  0  0  0  0
   26.9125   71.6554   -4.0194 C   0  0  2  0  0  0  0  0  0  0  0  0
   24.8916   70.9714   -3.0063 C   0  0  1  0  0  0  0  0  0  0  0  0
   27.0863   70.2606   -3.4427 C   0  0  2  0  0  0  0  0  0  0  0  0
   26.8122   73.3758   -1.9837 H   0  0  0  0  0  0  0  0  0  0  0  0
   27.9213   73.3174   -4.2876 H   0  0  0  0  0  0  0  0  0  0  0  0
   26.8126   67.4575   -3.2295 O   0  0  0  0  0  0  0  0  0  0  0  0
   28.9825   66.7573   -7.2348 O   0  0  0  0  0  0  0  0  0  0  0  0
   27.5701   69.3221   -4.4155 N   0  0  0  0  0  0  0  0  0  0  0  0
   27.8931   67.1111   -5.2241 N   0  0  0  0  0  0  0  0  0  0  0  0
   27.3823   67.9349   -4.2130 C   0  0  0  0  0  0  0  0  0  0  0  0
   28.2222   69.7796   -5.5554 C   0  0  0  0  0  0  0  0  0  0  0  0
   28.7046   68.9809   -6.5096 C   0  0  0  0  0  0  0  0  0  0  0  0
   28.5498   67.5181   -6.3747 C   0  0  0  0  0  0  0  0  0  0  0  0
   27.7742   66.1409   -5.1043 H   0  0  0  0  0  0  0  0  0  0  0  0
   20.4080   70.8655   -4.7125 O   0  0  0  0  0  0  0  0  0  0  0  0
   18.9429   71.5422   -4.8054 P   0  0  2  0  0  0  0  0  0  0  0  0
   19.2711   73.1207   -4.9400 O   0  0  0  0  0  0  0  0  0  0  0  0
   18.0311   71.1944   -3.6645 O   0  0  0  0  0  0  0  0  0  0  0  0
   18.3874   71.1158   -6.2595 O   0  0  0  0  0  0  0  0  0  0  0  0
   18.3055   71.7049   -8.5536 O   0  0  0  0  0  0  0  0  0  0  0  0
   14.3082   72.1450   -7.6163 O   0  0  0  0  0  0  0  0  0  0  0  0
   15.1520   69.9149   -9.2172 O   0  0  0  0  0  0  0  0  0  0  0  0
   16.3348   72.9496   -5.7124 O   0  0  0  0  0  0  0  0  0  0  0  0
   15.6079   71.5537   -7.5357 C   0  0  1  0  0  0  0  0  0  0  0  0
   15.9849   71.0333   -8.9242 C   0  0  1  0  0  0  0  0  0  0  0  0
   16.6081   72.6090   -7.0673 C   0  0  2  0  0  0  0  0  0  0  0  0
   17.4638   70.6275   -8.9810 C   0  0  1  0  0  0  0  0  0  0  0  0
   18.0513   72.1224   -7.2109 C   0  0  1  0  0  0  0  0  0  0  0  0
   13.6682   71.4801   -7.9127 H   0  0  0  0  0  0  0  0  0  0  0  0
   14.2209   70.1845   -9.1775 H   0  0  0  0  0  0  0  0  0  0  0  0
   15.4185   73.2563   -5.6348 H   0  0  0  0  0  0  0  0  0  0  0  0
   17.0149   70.8661  -11.3156 O   0  0  0  0  0  0  0  0  0  0  0  0
   17.9006   70.2544  -10.3959 C   0  0  0  0  0  0  0  0  0  0  0  0
   17.2809   70.6376  -12.2205 H   0  0  0  0  0  0  0  0  0  0  0  0
 25 28  1  0
 25 24  1  0
 25 26  1  6
 25 27  2  0
  1  4  1  0
  1 24  1  0
  1  2  1  1
  1  3  2  0
  6 11  1  0
  6 12  1  0
 29 36  1  0
 29 37  1  0
  9  7  1  1
  7 13  1  0
 10  8  1  1
  8 14  1  0
 37 28  1  1
  4  5  1  0
 33 30  1  6
 30 38  1  0
 34 31  1  1
 31 39  1  0
 35 32  1  1
 32 40  1  0
 41 42  1  0
 41 43  1  0
 15 19  2  0
 16 22  2  0
 12 17  1  6
 17 19  1  0
 17 20  1  0
 18 19  1  0
 18 22  1  0
 18 23  1  0
  9 10  1  0
  9 11  1  0
 10 12  1  0
 11  5  1  6
 33 34  1  0
 33 35  1  0
 34 36  1  0
 35 37  1  0
 36 42  1  6
 20 21  2  0
 21 22  1  0
M  CHG  2   2  -1  26  -1
M  END
>  <COMPND>  (14) 
    8629 

>  <AUTHOR>  (14) 
    GENERATED BY OPEN BABEL 3.1.1

>  <MASTER>  (14) 
        0    0    0    0    0    0    0    0   58    0   58    0

>  <minimizedAffinity>  (14) 
-6.96567

>  <CNNscore>  (14) 
0.3902223706

>  <CNNaffinity>  (14) 
4.2679853439

>  <CNN_VS>  (14) 
1.6654633284

>  <CNNaffinity_variance>  (14) 
0.0052562454

$$$$
15
     RDKit          3D

 43 45  0  0  0  0  0  0  0  0999 V2000
   19.3605   73.1610   -3.6690 P   0  0  2  0  0  0  0  0  0  0  0  0
   19.9763   74.5792   -3.1924 O   0  0  0  0  0  0  0  0  0  0  0  0
   17.8870   73.1730   -3.9522 O   0  0  0  0  0  0  0  0  0  0  0  0
   19.8483   72.1227   -2.5280 O   0  0  0  0  0  0  0  0  0  0  0  0
   20.1804   72.6317   -1.2480 C   0  0  0  0  0  0  0  0  0  0  0  0
   22.0417   71.1416   -1.5465 O   0  0  0  0  0  0  0  0  0  0  0  0
   22.4036   71.2989    1.4259 O   0  0  0  0  0  0  0  0  0  0  0  0
   24.3203   73.0049    0.5027 O   0  0  0  0  0  0  0  0  0  0  0  0
   21.9893   72.3135    0.5125 C   0  0  1  0  0  0  0  0  0  0  0  0
   23.1710   72.8079   -0.2955 C   0  0  2  0  0  0  0  0  0  0  0  0
   21.1248   71.6577   -0.5569 C   0  0  1  0  0  0  0  0  0  0  0  0
   23.3483   71.6910   -1.3101 C   0  0  2  0  0  0  0  0  0  0  0  0
   22.9569   71.6939    2.1185 H   0  0  0  0  0  0  0  0  0  0  0  0
   24.1577   73.7251    1.1317 H   0  0  0  0  0  0  0  0  0  0  0  0
   25.6351   70.6111   -2.5678 O   0  0  0  0  0  0  0  0  0  0  0  0
   25.3296   73.5788   -6.0808 O   0  0  0  0  0  0  0  0  0  0  0  0
   23.8882   72.1620   -2.5543 N   0  0  0  0  0  0  0  0  0  0  0  0
   25.4810   72.0895   -4.3161 N   0  0  0  0  0  0  0  0  0  0  0  0
   25.0413   71.5512   -3.1000 C   0  0  0  0  0  0  0  0  0  0  0  0
   23.2754   73.2179   -3.2202 C   0  0  0  0  0  0  0  0  0  0  0  0
   23.7080   73.7204   -4.3784 C   0  0  0  0  0  0  0  0  0  0  0  0
   24.9070   73.1390   -5.0160 C   0  0  0  0  0  0  0  0  0  0  0  0
   26.2830   71.6802   -4.7150 H   0  0  0  0  0  0  0  0  0  0  0  0
   20.2858   72.7702   -4.9355 O   0  0  0  0  0  0  0  0  0  0  0  0
   20.3233   73.3530   -6.4428 P   0  0  2  0  0  0  0  0  0  0  0  0
   21.5944   72.5986   -7.1007 O   0  0  0  0  0  0  0  0  0  0  0  0
   20.3831   74.8510   -6.5221 O   0  0  0  0  0  0  0  0  0  0  0  0
   19.0394   72.6955   -7.1670 O   0  0  0  0  0  0  0  0  0  0  0  0
   18.4488   70.4005   -7.1932 O   0  0  0  0  0  0  0  0  0  0  0  0
   16.9286   71.5150  -10.8671 O   0  0  0  0  0  0  0  0  0  0  0  0
   15.1301   70.9554   -8.6991 O   0  0  0  0  0  0  0  0  0  0  0  0
   19.4364   72.6281   -9.9442 O   0  0  0  0  0  0  0  0  0  0  0  0
   17.2647   71.6915   -9.4882 C   0  0  1  0  0  0  0  0  0  0  0  0
   16.5180   70.6335   -8.6734 C   0  0  1  0  0  0  0  0  0  0  0  0
   18.7746   71.5341   -9.3184 C   0  0  2  0  0  0  0  0  0  0  0  0
   17.0288   70.5857   -7.2271 C   0  0  1  0  0  0  0  0  0  0  0  0
   19.1711   71.4480   -7.8434 C   0  0  1  0  0  0  0  0  0  0  0  0
   15.9713   71.6142  -10.9819 H   0  0  0  0  0  0  0  0  0  0  0  0
   14.8203   70.9829   -9.6180 H   0  0  0  0  0  0  0  0  0  0  0  0
   19.1773   72.6716  -10.8774 H   0  0  0  0  0  0  0  0  0  0  0  0
   15.1385   69.8417   -5.9694 O   0  0  0  0  0  0  0  0  0  0  0  0
   16.4097   69.4329   -6.4397 C   0  0  0  0  0  0  0  0  0  0  0  0
   14.7323   69.1178   -5.4666 H   0  0  0  0  0  0  0  0  0  0  0  0
 25 28  1  0
 25 24  1  0
 25 26  1  6
 25 27  2  0
  1  4  1  0
  1 24  1  0
  1  2  1  1
  1  3  2  0
  6 11  1  0
  6 12  1  0
 29 36  1  0
 29 37  1  0
  9  7  1  1
  7 13  1  0
 10  8  1  1
  8 14  1  0
 37 28  1  1
  4  5  1  0
 33 30  1  6
 30 38  1  0
 34 31  1  1
 31 39  1  0
 35 32  1  1
 32 40  1  0
 41 42  1  0
 41 43  1  0
 15 19  2  0
 16 22  2  0
 12 17  1  6
 17 19  1  0
 17 20  1  0
 18 19  1  0
 18 22  1  0
 18 23  1  0
  9 10  1  0
  9 11  1  0
 10 12  1  0
 11  5  1  6
 33 34  1  0
 33 35  1  0
 34 36  1  0
 35 37  1  0
 36 42  1  1
 20 21  2  0
 21 22  1  0
M  CHG  2   2  -1  26  -1
M  END
>  <COMPND>  (15) 
    8629 

>  <AUTHOR>  (15) 
    GENERATED BY OPEN BABEL 3.1.1

>  <MASTER>  (15) 
        0    0    0    0    0    0    0    0   58    0   58    0

>  <minimizedAffinity>  (15) 
-5.97042

>  <CNNscore>  (15) 
0.3791622818

>  <CNNaffinity>  (15) 
4.0800142288

>  <CNN_VS>  (15) 
1.5469875336

>  <CNNaffinity_variance>  (15) 
0.1874065995

$$$$
16
     RDKit          3D

 43 45  0  0  0  0  0  0  0  0999 V2000
   30.4065   70.4523   -0.5017 P   0  0  2  0  0  0  0  0  0  0  0  0
   29.9156   69.4535    0.6726 O   0  0  0  0  0  0  0  0  0  0  0  0
   29.3132   71.2393   -1.1625 O   0  0  0  0  0  0  0  0  0  0  0  0
   31.2786   69.5031   -1.4796 O   0  0  0  0  0  0  0  0  0  0  0  0
   31.0766   69.6060   -2.8783 C   0  0  0  0  0  0  0  0  0  0  0  0
   29.2000   68.1282   -3.1393 O   0  0  0  0  0  0  0  0  0  0  0  0
   30.8269   66.7362   -5.2385 O   0  0  0  0  0  0  0  0  0  0  0  0
   29.1307   68.2717   -6.7223 O   0  0  0  0  0  0  0  0  0  0  0  0
   30.7598   68.1260   -4.9234 C   0  0  1  0  0  0  0  0  0  0  0  0
   29.4566   68.7156   -5.4209 C   0  0  2  0  0  0  0  0  0  0  0  0
   30.6123   68.2580   -3.4127 C   0  0  1  0  0  0  0  0  0  0  0  0
   28.4701   68.2289   -4.3730 C   0  0  2  0  0  0  0  0  0  0  0  0
   30.9216   66.6266   -6.1981 H   0  0  0  0  0  0  0  0  0  0  0  0
   29.7873   68.6072   -7.3524 H   0  0  0  0  0  0  0  0  0  0  0  0
   25.9403   67.4881   -3.3584 O   0  0  0  0  0  0  0  0  0  0  0  0
   24.3301   71.7910   -3.7240 O   0  0  0  0  0  0  0  0  0  0  0  0
   27.3715   69.1355   -4.1922 N   0  0  0  0  0  0  0  0  0  0  0  0
   25.1407   69.6313   -3.5411 N   0  0  0  0  0  0  0  0  0  0  0  0
   26.1426   68.6619   -3.6764 C   0  0  0  0  0  0  0  0  0  0  0  0
   27.5188   70.4777   -4.5245 C   0  0  0  0  0  0  0  0  0  0  0  0
   26.5530   71.3892   -4.3908 C   0  0  0  0  0  0  0  0  0  0  0  0
   25.2382   70.9768   -3.8587 C   0  0  0  0  0  0  0  0  0  0  0  0
   24.2758   69.3243   -3.1840 H   0  0  0  0  0  0  0  0  0  0  0  0
   31.5326   71.3503    0.2321 O   0  0  0  0  0  0  0  0  0  0  0  0
   32.6495   70.9604    1.3336 P   0  0  2  0  0  0  0  0  0  0  0  0
   33.9143   71.8814    0.9217 O   0  0  0  0  0  0  0  0  0  0  0  0
   32.9518   69.4918    1.4103 O   0  0  0  0  0  0  0  0  0  0  0  0
   32.1075   71.6045    2.7107 O   0  0  0  0  0  0  0  0  0  0  0  0
   32.6835   70.7771    4.8556 O   0  0  0  0  0  0  0  0  0  0  0  0
   29.0370   72.4876    5.7655 O   0  0  0  0  0  0  0  0  0  0  0  0
   31.4570   73.7436    6.6678 O   0  0  0  0  0  0  0  0  0  0  0  0
   29.3972   71.1107    3.2448 O   0  0  0  0  0  0  0  0  0  0  0  0
   30.2916   72.3773    5.0879 C   0  0  1  0  0  0  0  0  0  0  0  0
   31.4072   72.4235    6.1339 C   0  0  1  0  0  0  0  0  0  0  0  0
   30.3295   71.0578    4.3193 C   0  0  2  0  0  0  0  0  0  0  0  0
   32.7606   72.0451    5.5173 C   0  0  1  0  0  0  0  0  0  0  0  0
   31.7319   70.7526    3.7899 C   0  0  1  0  0  0  0  0  0  0  0  0
   29.0062   73.3236    6.2551 H   0  0  0  0  0  0  0  0  0  0  0  0
   30.5962   73.9703    7.0536 H   0  0  0  0  0  0  0  0  0  0  0  0
   28.5133   71.3043    3.5930 H   0  0  0  0  0  0  0  0  0  0  0  0
   33.2519   71.9197    7.8523 O   0  0  0  0  0  0  0  0  0  0  0  0
   33.8582   71.9312    6.5730 C   0  0  0  0  0  0  0  0  0  0  0  0
   33.9385   71.8473    8.5342 H   0  0  0  0  0  0  0  0  0  0  0  0
 25 28  1  0
 25 24  1  0
 25 26  1  6
 25 27  2  0
  1  4  1  0
  1 24  1  0
  1  2  1  1
  1  3  2  0
  6 11  1  0
  6 12  1  0
 29 36  1  0
 29 37  1  0
  9  7  1  1
  7 13  1  0
 10  8  1  6
  8 14  1  0
 37 28  1  6
  4  5  1  0
 33 30  1  1
 30 38  1  0
 34 31  1  6
 31 39  1  0
 35 32  1  6
 32 40  1  0
 41 42  1  0
 41 43  1  0
 15 19  2  0
 16 22  2  0
 12 17  1  1
 17 19  1  0
 17 20  1  0
 18 19  1  0
 18 22  1  0
 18 23  1  0
  9 10  1  0
  9 11  1  0
 10 12  1  0
 11  5  1  6
 33 34  1  0
 33 35  1  0
 34 36  1  0
 35 37  1  0
 36 42  1  1
 20 21  2  0
 21 22  1  0
M  CHG  2   2  -1  26  -1
M  END
>  <COMPND>  (16) 
    8629 

>  <AUTHOR>  (16) 
    GENERATED BY OPEN BABEL 3.1.1

>  <MASTER>  (16) 
        0    0    0    0    0    0    0    0   58    0   58    0

>  <minimizedAffinity>  (16) 
-7.12970

>  <CNNscore>  (16) 
0.3704642355

>  <CNNaffinity>  (16) 
3.8439917564

>  <CNN_VS>  (16) 
1.4240614176

>  <CNNaffinity_variance>  (16) 
0.3875443935

$$$$
17
     RDKit          3D

 43 45  0  0  0  0  0  0  0  0999 V2000
   22.1949   71.9175   -5.8208 P   0  0  2  0  0  0  0  0  0  0  0  0
   22.4994   70.7169   -4.7801 O   0  0  0  0  0  0  0  0  0  0  0  0
   22.1458   71.5085   -7.2636 O   0  0  0  0  0  0  0  0  0  0  0  0
   23.2945   73.0439   -5.4468 O   0  0  0  0  0  0  0  0  0  0  0  0
   23.5070   73.3542   -4.0806 C   0  0  0  0  0  0  0  0  0  0  0  0
   25.1983   73.5818   -2.3890 O   0  0  0  0  0  0  0  0  0  0  0  0
   27.0893   72.3826   -4.3832 O   0  0  0  0  0  0  0  0  0  0  0  0
   26.5186   70.2678   -2.7589 O   0  0  0  0  0  0  0  0  0  0  0  0
   25.7123   72.0876   -4.1551 C   0  0  1  0  0  0  0  0  0  0  0  0
   25.5500   71.2897   -2.8782 C   0  0  2  0  0  0  0  0  0  0  0  0
   25.0044   73.3913   -3.8077 C   0  0  1  0  0  0  0  0  0  0  0  0
   25.6994   72.3639   -1.8143 C   0  0  2  0  0  0  0  0  0  0  0  0
   27.5621   71.5652   -4.6072 H   0  0  0  0  0  0  0  0  0  0  0  0
   26.3816   69.6091   -3.4576 H   0  0  0  0  0  0  0  0  0  0  0  0
   26.8491   71.9089    0.7253 O   0  0  0  0  0  0  0  0  0  0  0  0
   22.7275   71.2283    2.6721 O   0  0  0  0  0  0  0  0  0  0  0  0
   24.9502   72.0661   -0.6262 N   0  0  0  0  0  0  0  0  0  0  0  0
   24.7959   71.5706    1.6926 N   0  0  0  0  0  0  0  0  0  0  0  0
   25.6241   71.8534    0.5989 C   0  0  0  0  0  0  0  0  0  0  0  0
   23.5630   71.9878   -0.6833 C   0  0  0  0  0  0  0  0  0  0  0  0
   22.7877   71.7158    0.3685 C   0  0  0  0  0  0  0  0  0  0  0  0
   23.4130   71.4806    1.6860 C   0  0  0  0  0  0  0  0  0  0  0  0
   25.2433   71.4184    2.5566 H   0  0  0  0  0  0  0  0  0  0  0  0
   20.8196   72.5500   -5.2537 O   0  0  0  0  0  0  0  0  0  0  0  0
   19.4682   71.8436   -4.7172 P   0  0  2  0  0  0  0  0  0  0  0  0
   18.5101   73.0978   -4.3615 O   0  0  0  0  0  0  0  0  0  0  0  0
   19.6835   70.8868   -3.5805 O   0  0  0  0  0  0  0  0  0  0  0  0
   18.8035   71.1827   -6.0311 O   0  0  0  0  0  0  0  0  0  0  0  0
   18.5686   72.8767   -7.6718 O   0  0  0  0  0  0  0  0  0  0  0  0
   16.7126   69.7701   -9.6606 O   0  0  0  0  0  0  0  0  0  0  0  0
   19.3080   70.6524  -10.5169 O   0  0  0  0  0  0  0  0  0  0  0  0
   16.3401   70.0853   -6.8072 O   0  0  0  0  0  0  0  0  0  0  0  0
   17.6770   70.3689   -8.7906 C   0  0  1  0  0  0  0  0  0  0  0  0
   18.4926   71.3782   -9.6010 C   0  0  1  0  0  0  0  0  0  0  0  0
   16.9490   71.0646   -7.6419 C   0  0  2  0  0  0  0  0  0  0  0  0
   19.3629   72.2498   -8.6856 C   0  0  1  0  0  0  0  0  0  0  0  0
   17.8959   71.9441   -6.8234 C   0  0  1  0  0  0  0  0  0  0  0  0
   17.1683   69.3263  -10.3919 H   0  0  0  0  0  0  0  0  0  0  0  0
   18.7464   70.1058  -11.0887 H   0  0  0  0  0  0  0  0  0  0  0  0
   15.7429   69.5352   -7.3370 H   0  0  0  0  0  0  0  0  0  0  0  0
   20.8373   74.1246   -8.5446 O   0  0  0  0  0  0  0  0  0  0  0  0
   20.0644   73.3659   -9.4564 C   0  0  0  0  0  0  0  0  0  0  0  0
   21.2898   74.8386   -9.0212 H   0  0  0  0  0  0  0  0  0  0  0  0
 25 28  1  0
 25 24  1  0
 25 26  1  1
 25 27  2  0
  1  4  1  0
  1 24  1  0
  1  2  1  1
  1  3  2  0
  6 11  1  0
  6 12  1  0
 29 36  1  0
 29 37  1  0
  9  7  1  1
  7 13  1  0
 10  8  1  1
  8 14  1  0
 37 28  1  6
  4  5  1  0
 33 30  1  6
 30 38  1  0
 34 31  1  6
 31 39  1  0
 35 32  1  1
 32 40  1  0
 41 42  1  0
 41 43  1  0
 15 19  2  0
 16 22  2  0
 12 17  1  1
 17 19  1  0
 17 20  1  0
 18 19  1  0
 18 22  1  0
 18 23  1  0
  9 10  1  0
  9 11  1  0
 10 12  1  0
 11  5  1  1
 33 34  1  0
 33 35  1  0
 34 36  1  0
 35 37  1  0
 36 42  1  6
 20 21  2  0
 21 22  1  0
M  CHG  2   2  -1  26  -1
M  END
>  <COMPND>  (17) 
    8629 

>  <AUTHOR>  (17) 
    GENERATED BY OPEN BABEL 3.1.1

>  <MASTER>  (17) 
        0    0    0    0    0    0    0    0   58    0   58    0

>  <minimizedAffinity>  (17) 
-6.25462

>  <CNNscore>  (17) 
0.3635111749

>  <CNNaffinity>  (17) 
3.9765400887

>  <CNN_VS>  (17) 
1.4455167055

>  <CNNaffinity_variance>  (17) 
0.2444510907

$$$$
18
     RDKit          3D

 43 45  0  0  0  0  0  0  0  0999 V2000
   30.0540   71.8622    3.2697 P   0  0  2  0  0  0  0  0  0  0  0  0
   30.7400   72.3266    4.6593 O   0  0  0  0  0  0  0  0  0  0  0  0
   29.8234   72.9639    2.2775 O   0  0  0  0  0  0  0  0  0  0  0  0
   28.7344   71.0523    3.7396 O   0  0  0  0  0  0  0  0  0  0  0  0
   27.6112   71.0307    2.8760 C   0  0  0  0  0  0  0  0  0  0  0  0
   25.8660   72.6201    2.4272 O   0  0  0  0  0  0  0  0  0  0  0  0
   24.7359   71.8511    5.0959 O   0  0  0  0  0  0  0  0  0  0  0  0
   23.1642   70.4538    3.3599 O   0  0  0  0  0  0  0  0  0  0  0  0
   25.3960   71.0378    4.1274 C   0  0  1  0  0  0  0  0  0  0  0  0
   24.4792   70.7712    2.9518 C   0  0  2  0  0  0  0  0  0  0  0  0
   26.4992   71.8716    3.4879 C   0  0  1  0  0  0  0  0  0  0  0  0
   24.5542   72.0835    2.1899 C   0  0  2  0  0  0  0  0  0  0  0  0
   24.0271   71.3399    5.5182 H   0  0  0  0  0  0  0  0  0  0  0  0
   23.1690   69.6110    3.8400 H   0  0  0  0  0  0  0  0  0  0  0  0
   22.0578   71.6306    0.9488 O   0  0  0  0  0  0  0  0  0  0  0  0
   23.9712   71.4218   -3.2388 O   0  0  0  0  0  0  0  0  0  0  0  0
   24.3709   71.9076    0.7768 N   0  0  0  0  0  0  0  0  0  0  0  0
   23.0125   71.5272   -1.1353 N   0  0  0  0  0  0  0  0  0  0  0  0
   23.0753   71.6848    0.2551 C   0  0  0  0  0  0  0  0  0  0  0  0
   25.4684   71.9572   -0.0758 C   0  0  0  0  0  0  0  0  0  0  0  0
   25.3918   71.8037   -1.3993 C   0  0  0  0  0  0  0  0  0  0  0  0
   24.0746   71.5669   -2.0247 C   0  0  0  0  0  0  0  0  0  0  0  0
   22.1202   71.3704   -1.5212 H   0  0  0  0  0  0  0  0  0  0  0  0
   31.0370   70.6872    2.7539 O   0  0  0  0  0  0  0  0  0  0  0  0
   32.0192   70.6111    1.4723 P   0  0  2  0  0  0  0  0  0  0  0  0
   32.6289   69.1151    1.5604 O   0  0  0  0  0  0  0  0  0  0  0  0
   33.0525   71.6990    1.4235 O   0  0  0  0  0  0  0  0  0  0  0  0
   31.0276   70.5728    0.1994 O   0  0  0  0  0  0  0  0  0  0  0  0
   31.6895   70.0982   -2.0262 O   0  0  0  0  0  0  0  0  0  0  0  0
   28.4446   72.5296   -2.8071 O   0  0  0  0  0  0  0  0  0  0  0  0
   28.2496   69.7056   -3.2918 O   0  0  0  0  0  0  0  0  0  0  0  0
   30.2032   73.1366   -0.5894 O   0  0  0  0  0  0  0  0  0  0  0  0
   29.1917   71.5449   -2.0876 C   0  0  1  0  0  0  0  0  0  0  0  0
   29.4796   70.3765   -3.0324 C   0  0  1  0  0  0  0  0  0  0  0  0
   30.4948   72.1701   -1.5930 C   0  0  2  0  0  0  0  0  0  0  0  0
   30.4984   69.4064   -2.4192 C   0  0  1  0  0  0  0  0  0  0  0  0
   31.4569   71.1132   -1.0476 C   0  0  1  0  0  0  0  0  0  0  0  0
   27.6158   72.1392   -3.1236 H   0  0  0  0  0  0  0  0  0  0  0  0
   27.6150   70.3293   -3.6783 H   0  0  0  0  0  0  0  0  0  0  0  0
   29.5936   73.8002   -0.9471 H   0  0  0  0  0  0  0  0  0  0  0  0
   30.8002   68.8346   -4.7194 O   0  0  0  0  0  0  0  0  0  0  0  0
   30.9190   68.3195   -3.4061 C   0  0  0  0  0  0  0  0  0  0  0  0
   31.0649   68.1538   -5.3583 H   0  0  0  0  0  0  0  0  0  0  0  0
 25 28  1  0
 25 24  1  0
 25 26  1  1
 25 27  2  0
  1  4  1  0
  1 24  1  0
  1  2  1  1
  1  3  2  0
  6 11  1  0
  6 12  1  0
 29 36  1  0
 29 37  1  0
  9  7  1  1
  7 13  1  0
 10  8  1  1
  8 14  1  0
 37 28  1  1
  4  5  1  0
 33 30  1  6
 30 38  1  0
 34 31  1  1
 31 39  1  0
 35 32  1  1
 32 40  1  0
 41 42  1  0
 41 43  1  0
 15 19  2  0
 16 22  2  0
 12 17  1  6
 17 19  1  0
 17 20  1  0
 18 19  1  0
 18 22  1  0
 18 23  1  0
  9 10  1  0
  9 11  1  0
 10 12  1  0
 11  5  1  6
 33 34  1  0
 33 35  1  0
 34 36  1  0
 35 37  1  0
 36 42  1  6
 20 21  2  0
 21 22  1  0
M  CHG  2   2  -1  26  -1
M  END
>  <COMPND>  (18) 
    8629 

>  <AUTHOR>  (18) 
    GENERATED BY OPEN BABEL 3.1.1

>  <MASTER>  (18) 
        0    0    0    0    0    0    0    0   58    0   58    0

>  <minimizedAffinity>  (18) 
-6.61230

>  <CNNscore>  (18) 
0.3329212666

>  <CNNaffinity>  (18) 
3.6288623810

>  <CNN_VS>  (18) 
1.2081254721

>  <CNNaffinity_variance>  (18) 
0.6821043491

$$$$
19
     RDKit          3D

 43 45  0  0  0  0  0  0  0  0999 V2000
   23.7310   72.2795   -4.5996 P   0  0  2  0  0  0  0  0  0  0  0  0
   24.3631   73.0426   -5.8785 O   0  0  0  0  0  0  0  0  0  0  0  0
   23.3368   73.1724   -3.4600 O   0  0  0  0  0  0  0  0  0  0  0  0
   24.8215   71.1360   -4.2515 O   0  0  0  0  0  0  0  0  0  0  0  0
   26.1941   71.4290   -4.4466 C   0  0  0  0  0  0  0  0  0  0  0  0
   27.3053   69.6637   -3.2537 O   0  0  0  0  0  0  0  0  0  0  0  0
   28.6376   71.8297   -1.6649 O   0  0  0  0  0  0  0  0  0  0  0  0
   30.5797   71.1151   -3.4409 O   0  0  0  0  0  0  0  0  0  0  0  0
   28.2840   71.8120   -3.0469 C   0  0  1  0  0  0  0  0  0  0  0  0
   29.2326   70.9208   -3.8210 C   0  0  2  0  0  0  0  0  0  0  0  0
   26.9630   71.0652   -3.1837 C   0  0  1  0  0  0  0  0  0  0  0  0
   28.7201   69.5345   -3.4696 C   0  0  2  0  0  0  0  0  0  0  0  0
   29.4781   72.3018   -1.5524 H   0  0  0  0  0  0  0  0  0  0  0  0
   30.8589   72.0111   -3.6856 H   0  0  0  0  0  0  0  0  0  0  0  0
   31.0864   68.0222   -3.7719 O   0  0  0  0  0  0  0  0  0  0  0  0
   29.4777   65.9187   -7.5440 O   0  0  0  0  0  0  0  0  0  0  0  0
   28.9464   68.5839   -4.5215 N   0  0  0  0  0  0  0  0  0  0  0  0
   30.2834   66.9759   -5.6498 N   0  0  0  0  0  0  0  0  0  0  0  0
   30.1701   67.8774   -4.5837 C   0  0  0  0  0  0  0  0  0  0  0  0
   27.9610   68.3599   -5.4769 C   0  0  0  0  0  0  0  0  0  0  0  0
   28.0852   67.4977   -6.4880 C   0  0  0  0  0  0  0  0  0  0  0  0
   29.3330   66.7191   -6.6252 C   0  0  0  0  0  0  0  0  0  0  0  0
   31.1275   66.4727   -5.7136 H   0  0  0  0  0  0  0  0  0  0  0  0
   22.5130   71.4355   -5.2454 O   0  0  0  0  0  0  0  0  0  0  0  0
   21.2797   70.6527   -4.5532 P   0  0  2  0  0  0  0  0  0  0  0  0
   20.5961   71.7861   -3.6229 O   0  0  0  0  0  0  0  0  0  0  0  0
   21.6774   69.4054   -3.8183 O   0  0  0  0  0  0  0  0  0  0  0  0
   20.2231   70.4157   -5.7500 O   0  0  0  0  0  0  0  0  0  0  0  0
   19.4922   72.3119   -6.9694 O   0  0  0  0  0  0  0  0  0  0  0  0
   16.4924   69.6681   -8.0002 O   0  0  0  0  0  0  0  0  0  0  0  0
   18.4774   70.3891   -9.9464 O   0  0  0  0  0  0  0  0  0  0  0  0
   17.5546   69.6682   -5.3074 O   0  0  0  0  0  0  0  0  0  0  0  0
   17.8275   70.0588   -7.6684 C   0  0  1  0  0  0  0  0  0  0  0  0
   18.3028   71.0743   -8.7093 C   0  0  1  0  0  0  0  0  0  0  0  0
   17.8341   70.6774   -6.2717 C   0  0  2  0  0  0  0  0  0  0  0  0
   19.6168   71.7382   -8.2760 C   0  0  1  0  0  0  0  0  0  0  0  0
   19.1704   71.3534   -5.9596 C   0  0  1  0  0  0  0  0  0  0  0  0
   16.4813   69.2741   -8.8857 H   0  0  0  0  0  0  0  0  0  0  0  0
   17.6406   69.9741  -10.2085 H   0  0  0  0  0  0  0  0  0  0  0  0
   16.7061   69.2481   -5.5158 H   0  0  0  0  0  0  0  0  0  0  0  0
   20.6069   72.2933  -10.3785 O   0  0  0  0  0  0  0  0  0  0  0  0
   20.0267   72.8657   -9.2210 C   0  0  0  0  0  0  0  0  0  0  0  0
   20.8724   72.9992  -10.9892 H   0  0  0  0  0  0  0  0  0  0  0  0
 25 28  1  0
 25 24  1  0
 25 26  1  1
 25 27  2  0
  1  4  1  0
  1 24  1  0
  1  2  1  6
  1  3  2  0
  6 11  1  0
  6 12  1  0
 29 36  1  0
 29 37  1  0
  9  7  1  1
  7 13  1  0
 10  8  1  1
  8 14  1  0
 37 28  1  6
  4  5  1  0
 33 30  1  6
 30 38  1  0
 34 31  1  6
 31 39  1  0
 35 32  1  1
 32 40  1  0
 41 42  1  0
 41 43  1  0
 15 19  2  0
 16 22  2  0
 12 17  1  6
 17 19  1  0
 17 20  1  0
 18 19  1  0
 18 22  1  0
 18 23  1  0
  9 10  1  0
  9 11  1  0
 10 12  1  0
 11  5  1  6
 33 34  1  0
 33 35  1  0
 34 36  1  0
 35 37  1  0
 36 42  1  6
 20 21  2  0
 21 22  1  0
M  CHG  2   2  -1  26  -1
M  END
>  <COMPND>  (19) 
    8629 

>  <AUTHOR>  (19) 
    GENERATED BY OPEN BABEL 3.1.1

>  <MASTER>  (19) 
        0    0    0    0    0    0    0    0   58    0   58    0

>  <minimizedAffinity>  (19) 
-7.49319

>  <CNNscore>  (19) 
0.3148964942

>  <CNNaffinity>  (19) 
4.3746700287

>  <CNN_VS>  (19) 
1.3775682449

>  <CNNaffinity_variance>  (19) 
0.0523365326

$$$$
20
     RDKit          3D

 43 45  0  0  0  0  0  0  0  0999 V2000
   22.4084   73.5201   -4.6423 P   0  0  2  0  0  0  0  0  0  0  0  0
   21.3200   74.1466   -3.6224 O   0  0  0  0  0  0  0  0  0  0  0  0
   23.8205   73.9767   -4.4211 O   0  0  0  0  0  0  0  0  0  0  0  0
   21.7915   73.8281   -6.1060 O   0  0  0  0  0  0  0  0  0  0  0  0
   20.5598   73.2243   -6.4613 C   0  0  0  0  0  0  0  0  0  0  0  0
   20.0964   71.2606   -7.7662 O   0  0  0  0  0  0  0  0  0  0  0  0
   20.5875   72.9747  -10.1769 O   0  0  0  0  0  0  0  0  0  0  0  0
   17.8647   72.8778  -10.0612 O   0  0  0  0  0  0  0  0  0  0  0  0
   19.9742   73.3182   -8.9354 C   0  0  1  0  0  0  0  0  0  0  0  0
   18.5833   72.7246   -8.8541 C   0  0  2  0  0  0  0  0  0  0  0  0
   20.7049   72.5691   -7.8280 C   0  0  1  0  0  0  0  0  0  0  0  0
   18.8798   71.2701   -8.5308 C   0  0  2  0  0  0  0  0  0  0  0  0
   20.1380   73.4414  -10.8994 H   0  0  0  0  0  0  0  0  0  0  0  0
   17.7007   73.8200  -10.2227 H   0  0  0  0  0  0  0  0  0  0  0  0
   16.6546   69.9233   -9.6319 O   0  0  0  0  0  0  0  0  0  0  0  0
   14.9425   68.9607   -5.4626 O   0  0  0  0  0  0  0  0  0  0  0  0
   17.8375   70.6577   -7.7562 N   0  0  0  0  0  0  0  0  0  0  0  0
   15.8040   69.4449   -7.5550 N   0  0  0  0  0  0  0  0  0  0  0  0
   16.7634   70.0071   -8.4069 C   0  0  0  0  0  0  0  0  0  0  0  0
   17.8870   70.7057   -6.3672 C   0  0  0  0  0  0  0  0  0  0  0  0
   16.9634   70.1657   -5.5693 C   0  0  0  0  0  0  0  0  0  0  0  0
   15.8083   69.4674   -6.1693 C   0  0  0  0  0  0  0  0  0  0  0  0
   15.0463   68.9868   -7.9860 H   0  0  0  0  0  0  0  0  0  0  0  0
   22.1833   71.9276   -4.4808 O   0  0  0  0  0  0  0  0  0  0  0  0
   22.8272   70.8638   -3.4480 P   0  0  2  0  0  0  0  0  0  0  0  0
   22.1695   69.4581   -3.9052 O   0  0  0  0  0  0  0  0  0  0  0  0
   22.6155   71.2050   -2.0014 O   0  0  0  0  0  0  0  0  0  0  0  0
   24.3757   70.7519   -3.8893 O   0  0  0  0  0  0  0  0  0  0  0  0
   26.0286   69.2005   -3.1983 O   0  0  0  0  0  0  0  0  0  0  0  0
   28.4011   72.5558   -3.6034 O   0  0  0  0  0  0  0  0  0  0  0  0
   28.6023   70.4359   -5.5305 O   0  0  0  0  0  0  0  0  0  0  0  0
   25.7251   72.8009   -2.5270 O   0  0  0  0  0  0  0  0  0  0  0  0
   27.3242   71.6741   -3.9323 C   0  0  1  0  0  0  0  0  0  0  0  0
   27.9144   70.3084   -4.2892 C   0  0  1  0  0  0  0  0  0  0  0  0
   26.3891   71.5581   -2.7300 C   0  0  2  0  0  0  0  0  0  0  0  0
   26.8169   69.2408   -4.3936 C   0  0  1  0  0  0  0  0  0  0  0  0
   25.3671   70.4351   -2.9156 C   0  0  1  0  0  0  0  0  0  0  0  0
   28.9983   72.6342   -4.3628 H   0  0  0  0  0  0  0  0  0  0  0  0
   29.2921   71.1134   -5.4511 H   0  0  0  0  0  0  0  0  0  0  0  0
   26.3829   73.5035   -2.4106 H   0  0  0  0  0  0  0  0  0  0  0  0
   27.6602   67.6572   -5.9716 O   0  0  0  0  0  0  0  0  0  0  0  0
   27.3968   67.8422   -4.5929 C   0  0  0  0  0  0  0  0  0  0  0  0
   28.0300   66.7713   -6.1135 H   0  0  0  0  0  0  0  0  0  0  0  0
 25 28  1  0
 25 24  1  0
 25 26  1  6
 25 27  2  0
  1  4  1  0
  1 24  1  0
  1  2  1  1
  1  3  2  0
  6 11  1  0
  6 12  1  0
 29 36  1  0
 29 37  1  0
  9  7  1  6
  7 13  1  0
 10  8  1  6
  8 14  1  0
 37 28  1  6
  4  5  1  0
 33 30  1  1
 30 38  1  0
 34 31  1  6
 31 39  1  0
 35 32  1  6
 32 40  1  0
 41 42  1  0
 41 43  1  0
 15 19  2  0
 16 22  2  0
 12 17  1  1
 17 19  1  0
 17 20  1  0
 18 19  1  0
 18 22  1  0
 18 23  1  0
  9 10  1  0
  9 11  1  0
 10 12  1  0
 11  5  1  1
 33 34  1  0
 33 35  1  0
 34 36  1  0
 35 37  1  0
 36 42  1  1
 20 21  2  0
 21 22  1  0
M  CHG  2   2  -1  26  -1
M  END
>  <COMPND>  (20) 
    8629 

>  <AUTHOR>  (20) 
    GENERATED BY OPEN BABEL 3.1.1

>  <MASTER>  (20) 
        0    0    0    0    0    0    0    0   58    0   58    0

>  <minimizedAffinity>  (20) 
-6.57049

>  <CNNscore>  (20) 
0.2928119898

>  <CNNaffinity>  (20) 
4.0076880455

>  <CNN_VS>  (20) 
1.1734991074

>  <CNNaffinity_variance>  (20) 
0.0583921969

$$$$
21
     RDKit          3D

 43 45  0  0  0  0  0  0  0  0999 V2000
   26.7184   72.4610   -2.6235 P   0  0  2  0  0  0  0  0  0  0  0  0
   25.9865   73.4762   -1.5983 O   0  0  0  0  0  0  0  0  0  0  0  0
   26.6595   71.0136   -2.2324 O   0  0  0  0  0  0  0  0  0  0  0  0
   28.2024   73.0832   -2.7932 O   0  0  0  0  0  0  0  0  0  0  0  0
   29.0564   73.1127   -1.6628 C   0  0  0  0  0  0  0  0  0  0  0  0
   31.2932   72.6626   -0.9092 O   0  0  0  0  0  0  0  0  0  0  0  0
   31.5731   70.9520   -3.3559 O   0  0  0  0  0  0  0  0  0  0  0  0
   31.1233   69.1129   -1.3931 O   0  0  0  0  0  0  0  0  0  0  0  0
   30.4336   71.1533   -2.5213 C   0  0  1  0  0  0  0  0  0  0  0  0
   30.6051   70.4148   -1.2102 C   0  0  2  0  0  0  0  0  0  0  0  0
   30.4343   72.6082   -2.0692 C   0  0  1  0  0  0  0  0  0  0  0  0
   31.5619   71.3247   -0.4588 C   0  0  2  0  0  0  0  0  0  0  0  0
   31.5940   70.0297   -3.6573 H   0  0  0  0  0  0  0  0  0  0  0  0
   30.4782   68.5728   -1.8756 H   0  0  0  0  0  0  0  0  0  0  0  0
   32.8671   69.4921    1.2488 O   0  0  0  0  0  0  0  0  0  0  0  0
   30.7560   71.1841    4.9799 O   0  0  0  0  0  0  0  0  0  0  0  0
   31.3723   71.2644    0.9631 N   0  0  0  0  0  0  0  0  0  0  0  0
   31.8150   70.3362    3.1052 N   0  0  0  0  0  0  0  0  0  0  0  0
   32.0754   70.3057    1.7293 C   0  0  0  0  0  0  0  0  0  0  0  0
   30.4975   72.1495    1.5837 C   0  0  0  0  0  0  0  0  0  0  0  0
   30.2593   72.1647    2.8968 C   0  0  0  0  0  0  0  0  0  0  0  0
   30.9537   71.1955    3.7689 C   0  0  0  0  0  0  0  0  0  0  0  0
   32.2933   69.6772    3.6590 H   0  0  0  0  0  0  0  0  0  0  0  0
   26.0165   72.8046   -4.0385 O   0  0  0  0  0  0  0  0  0  0  0  0
   24.5654   73.4299   -4.3795 P   0  0  2  0  0  0  0  0  0  0  0  0
   24.2990   72.9423   -5.8990 O   0  0  0  0  0  0  0  0  0  0  0  0
   24.4731   74.9151   -4.1806 O   0  0  0  0  0  0  0  0  0  0  0  0
   23.5304   72.5701   -3.4881 O   0  0  0  0  0  0  0  0  0  0  0  0
   21.1903   72.8042   -3.7807 O   0  0  0  0  0  0  0  0  0  0  0  0
   21.2285   71.3230    0.0736 O   0  0  0  0  0  0  0  0  0  0  0  0
   20.3513   69.6415   -2.0830 O   0  0  0  0  0  0  0  0  0  0  0  0
   23.2573   73.2081   -0.7690 O   0  0  0  0  0  0  0  0  0  0  0  0
   21.6838   71.4563   -1.2756 C   0  0  1  0  0  0  0  0  0  0  0  0
   20.5427   71.0478   -2.2093 C   0  0  1  0  0  0  0  0  0  0  0  0
   22.0888   72.9080   -1.5246 C   0  0  2  0  0  0  0  0  0  0  0  0
   20.8597   71.4153   -3.6652 C   0  0  1  0  0  0  0  0  0  0  0  0
   22.3338   73.1791   -3.0101 C   0  0  1  0  0  0  0  0  0  0  0  0
   20.9702   70.4035    0.2385 H   0  0  0  0  0  0  0  0  0  0  0  0
   20.1524   69.4227   -1.1590 H   0  0  0  0  0  0  0  0  0  0  0  0
   23.0892   73.0326    0.1695 H   0  0  0  0  0  0  0  0  0  0  0  0
   19.7466   69.8280   -5.0618 O   0  0  0  0  0  0  0  0  0  0  0  0
   19.6720   71.1610   -4.5908 C   0  0  0  0  0  0  0  0  0  0  0  0
   18.9967   69.6517   -5.6520 H   0  0  0  0  0  0  0  0  0  0  0  0
 25 28  1  0
 25 24  1  0
 25 26  1  6
 25 27  2  0
  1  4  1  0
  1 24  1  0
  1  2  1  1
  1  3  2  0
  6 11  1  0
  6 12  1  0
 29 36  1  0
 29 37  1  0
  9  7  1  6
  7 13  1  0
 10  8  1  6
  8 14  1  0
 37 28  1  6
  4  5  1  0
 33 30  1  1
 30 38  1  0
 34 31  1  6
 31 39  1  0
 35 32  1  1
 32 40  1  0
 41 42  1  0
 41 43  1  0
 15 19  2  0
 16 22  2  0
 12 17  1  1
 17 19  1  0
 17 20  1  0
 18 19  1  0
 18 22  1  0
 18 23  1  0
  9 10  1  0
  9 11  1  0
 10 12  1  0
 11  5  1  1
 33 34  1  0
 33 35  1  0
 34 36  1  0
 35 37  1  0
 36 42  1  6
 20 21  2  0
 21 22  1  0
M  CHG  2   2  -1  26  -1
M  END
>  <COMPND>  (21) 
    8629 

>  <AUTHOR>  (21) 
    GENERATED BY OPEN BABEL 3.1.1

>  <MASTER>  (21) 
        0    0    0    0    0    0    0    0   58    0   58    0

>  <minimizedAffinity>  (21) 
-6.24544

>  <CNNscore>  (21) 
0.6961330175

>  <CNNaffinity>  (21) 
4.1768288612

>  <CNN_VS>  (21) 
2.9076285362

>  <CNNaffinity_variance>  (21) 
0.0510626324

$$$$
22
     RDKit          3D

 43 45  0  0  0  0  0  0  0  0999 V2000
   24.7813   73.5934   -4.4149 P   0  0  2  0  0  0  0  0  0  0  0  0
   25.1178   73.8618   -5.9744 O   0  0  0  0  0  0  0  0  0  0  0  0
   23.8031   74.5529   -3.8034 O   0  0  0  0  0  0  0  0  0  0  0  0
   26.2359   73.5281   -3.7094 O   0  0  0  0  0  0  0  0  0  0  0  0
   27.1717   72.5721   -4.1767 C   0  0  0  0  0  0  0  0  0  0  0  0
   27.3271   70.4205   -3.1184 O   0  0  0  0  0  0  0  0  0  0  0  0
   29.6452   71.5491   -1.5875 O   0  0  0  0  0  0  0  0  0  0  0  0
   30.8737   70.0788   -3.5279 O   0  0  0  0  0  0  0  0  0  0  0  0
   29.2518   71.7911   -2.9373 C   0  0  1  0  0  0  0  0  0  0  0  0
   29.5885   70.5965   -3.8052 C   0  0  2  0  0  0  0  0  0  0  0  0
   27.7291   71.8017   -2.9876 C   0  0  1  0  0  0  0  0  0  0  0  0
   28.4770   69.6243   -3.4482 C   0  0  2  0  0  0  0  0  0  0  0  0
   30.6139   71.5382   -1.5302 H   0  0  0  0  0  0  0  0  0  0  0  0
   31.5460   70.7339   -3.7721 H   0  0  0  0  0  0  0  0  0  0  0  0
   26.6760   67.4566   -3.2602 O   0  0  0  0  0  0  0  0  0  0  0  0
   27.2712   66.3401   -7.6919 O   0  0  0  0  0  0  0  0  0  0  0  0
   28.1425   68.7508   -4.5375 N   0  0  0  0  0  0  0  0  0  0  0  0
   26.9737   66.9026   -5.4670 N   0  0  0  0  0  0  0  0  0  0  0  0
   27.2272   67.6912   -4.3376 C   0  0  0  0  0  0  0  0  0  0  0  0
   28.7195   68.9492   -5.7871 C   0  0  0  0  0  0  0  0  0  0  0  0
   28.4681   68.1874   -6.8537 C   0  0  0  0  0  0  0  0  0  0  0  0
   27.5231   67.0589   -6.7298 C   0  0  0  0  0  0  0  0  0  0  0  0
   26.3395   66.1581   -5.3515 H   0  0  0  0  0  0  0  0  0  0  0  0
   24.3038   72.0491   -4.4066 O   0  0  0  0  0  0  0  0  0  0  0  0
   23.7526   71.1149   -3.2081 P   0  0  2  0  0  0  0  0  0  0  0  0
   24.3687   71.8093   -1.8830 O   0  0  0  0  0  0  0  0  0  0  0  0
   24.0891   69.6595   -3.3580 O   0  0  0  0  0  0  0  0  0  0  0  0
   22.1717   71.4320   -3.1370 O   0  0  0  0  0  0  0  0  0  0  0  0
   20.4143   70.1751   -2.1631 O   0  0  0  0  0  0  0  0  0  0  0  0
   18.4088   71.6817   -5.4432 O   0  0  0  0  0  0  0  0  0  0  0  0
   17.8209   72.7094   -2.8267 O   0  0  0  0  0  0  0  0  0  0  0  0
   21.1714   70.8544   -5.6945 O   0  0  0  0  0  0  0  0  0  0  0  0
   19.3510   71.7067   -4.3675 C   0  0  1  0  0  0  0  0  0  0  0  0
   18.5852   71.5287   -3.0550 C   0  0  1  0  0  0  0  0  0  0  0  0
   20.3584   70.5747   -4.5600 C   0  0  2  0  0  0  0  0  0  0  0  0
   19.5443   71.2782   -1.8836 C   0  0  1  0  0  0  0  0  0  0  0  0
   21.2303   70.3774   -3.3186 C   0  0  1  0  0  0  0  0  0  0  0  0
   17.7666   72.3984   -5.3273 H   0  0  0  0  0  0  0  0  0  0  0  0
   17.2197   72.8564   -3.5738 H   0  0  0  0  0  0  0  0  0  0  0  0
   20.6078   70.9769   -6.4738 H   0  0  0  0  0  0  0  0  0  0  0  0
   18.5684   69.5451   -0.5596 O   0  0  0  0  0  0  0  0  0  0  0  0
   18.7974   70.9418   -0.5948 C   0  0  0  0  0  0  0  0  0  0  0  0
   18.0940   69.3163    0.2555 H   0  0  0  0  0  0  0  0  0  0  0  0
 25 28  1  0
 25 24  1  0
 25 26  1  1
 25 27  2  0
  1  4  1  0
  1 24  1  0
  1  2  1  6
  1  3  2  0
  6 11  1  0
  6 12  1  0
 29 36  1  0
 29 37  1  0
  9  7  1  1
  7 13  1  0
 10  8  1  1
  8 14  1  0
 37 28  1  1
  4  5  1  0
 33 30  1  6
 30 38  1  0
 34 31  1  1
 31 39  1  0
 35 32  1  6
 32 40  1  0
 41 42  1  0
 41 43  1  0
 15 19  2  0
 16 22  2  0
 12 17  1  6
 17 19  1  0
 17 20  1  0
 18 19  1  0
 18 22  1  0
 18 23  1  0
  9 10  1  0
  9 11  1  0
 10 12  1  0
 11  5  1  6
 33 34  1  0
 33 35  1  0
 34 36  1  0
 35 37  1  0
 36 42  1  1
 20 21  2  0
 21 22  1  0
M  CHG  2   2  -1  26  -1
M  END
>  <COMPND>  (22) 
    8629 

>  <AUTHOR>  (22) 
    GENERATED BY OPEN BABEL 3.1.1

>  <MASTER>  (22) 
        0    0    0    0    0    0    0    0   58    0   58    0

>  <minimizedAffinity>  (22) 
-7.08826

>  <CNNscore>  (22) 
0.6369646192

>  <CNNaffinity>  (22) 
4.4717416763

>  <CNN_VS>  (22) 
2.8483412266

>  <CNNaffinity_variance>  (22) 
0.1408399642

$$$$
23
     RDKit          3D

 43 45  0  0  0  0  0  0  0  0999 V2000
   26.0983   71.2096   -3.3117 P   0  0  2  0  0  0  0  0  0  0  0  0
   26.2947   71.5064   -1.7335 O   0  0  0  0  0  0  0  0  0  0  0  0
   25.0657   70.1709   -3.6375 O   0  0  0  0  0  0  0  0  0  0  0  0
   27.5966   70.9002   -3.8382 O   0  0  0  0  0  0  0  0  0  0  0  0
   28.6889   71.4873   -3.1525 C   0  0  0  0  0  0  0  0  0  0  0  0
   28.8692   69.1221   -2.7688 O   0  0  0  0  0  0  0  0  0  0  0  0
   31.6961   69.6633   -1.9284 O   0  0  0  0  0  0  0  0  0  0  0  0
   32.0011   68.7240   -4.4703 O   0  0  0  0  0  0  0  0  0  0  0  0
   30.9239   70.2882   -2.9523 C   0  0  1  0  0  0  0  0  0  0  0  0
   30.7842   69.3638   -4.1438 C   0  0  2  0  0  0  0  0  0  0  0  0
   29.4860   70.3909   -2.4591 C   0  0  1  0  0  0  0  0  0  0  0  0
   29.7219   68.3896   -3.6638 C   0  0  2  0  0  0  0  0  0  0  0  0
   32.6185   69.5870   -2.2203 H   0  0  0  0  0  0  0  0  0  0  0  0
   32.6441   69.3855   -4.7699 H   0  0  0  0  0  0  0  0  0  0  0  0
   27.0735   67.4478   -3.3866 O   0  0  0  0  0  0  0  0  0  0  0  0
   26.7777   66.4134   -7.8681 O   0  0  0  0  0  0  0  0  0  0  0  0
   28.9291   67.8690   -4.7417 N   0  0  0  0  0  0  0  0  0  0  0  0
   26.9283   66.9337   -5.6183 N   0  0  0  0  0  0  0  0  0  0  0  0
   27.6102   67.4211   -4.4960 C   0  0  0  0  0  0  0  0  0  0  0  0
   29.4602   67.8069   -6.0254 C   0  0  0  0  0  0  0  0  0  0  0  0
   28.7972   67.3382   -7.0847 C   0  0  0  0  0  0  0  0  0  0  0  0
   27.4135   66.8504   -6.9138 C   0  0  0  0  0  0  0  0  0  0  0  0
   26.0080   66.6157   -5.4711 H   0  0  0  0  0  0  0  0  0  0  0  0
   25.7941   72.6752   -3.9221 O   0  0  0  0  0  0  0  0  0  0  0  0
   24.4029   73.3811   -4.3452 P   0  0  2  0  0  0  0  0  0  0  0  0
   24.2001   72.9110   -5.8800 O   0  0  0  0  0  0  0  0  0  0  0  0
   24.3819   74.8689   -4.1453 O   0  0  0  0  0  0  0  0  0  0  0  0
   23.2706   72.5794   -3.5204 O   0  0  0  0  0  0  0  0  0  0  0  0
   20.9933   73.1715   -3.2378 O   0  0  0  0  0  0  0  0  0  0  0  0
   21.6481   71.3163    0.3926 O   0  0  0  0  0  0  0  0  0  0  0  0
   20.0537   70.0038   -1.6032 O   0  0  0  0  0  0  0  0  0  0  0  0
   23.7157   72.9703   -0.7774 O   0  0  0  0  0  0  0  0  0  0  0  0
   21.8073   71.5199   -1.0140 C   0  0  1  0  0  0  0  0  0  0  0  0
   20.4366   71.3743   -1.6778 C   0  0  1  0  0  0  0  0  0  0  0  0
   22.3757   72.9172   -1.2549 C   0  0  2  0  0  0  0  0  0  0  0  0
   20.4770   71.8390   -3.1398 C   0  0  1  0  0  0  0  0  0  0  0  0
   22.3247   73.3002   -2.7350 C   0  0  1  0  0  0  0  0  0  0  0  0
   21.2880   70.4307    0.5525 H   0  0  0  0  0  0  0  0  0  0  0  0
   20.0326   69.7228   -0.6749 H   0  0  0  0  0  0  0  0  0  0  0  0
   23.7345   72.7261    0.1606 H   0  0  0  0  0  0  0  0  0  0  0  0
   18.8321   70.5698   -4.3199 O   0  0  0  0  0  0  0  0  0  0  0  0
   19.0881   71.8510   -3.7747 C   0  0  0  0  0  0  0  0  0  0  0  0
   17.9513   70.5624   -4.7271 H   0  0  0  0  0  0  0  0  0  0  0  0
 25 28  1  0
 25 24  1  0
 25 26  1  6
 25 27  2  0
  1  4  1  0
  1 24  1  0
  1  2  1  1
  1  3  2  0
  6 11  1  0
  6 12  1  0
 29 36  1  0
 29 37  1  0
  9  7  1  1
  7 13  1  0
 10  8  1  1
  8 14  1  0
 37 28  1  6
  4  5  1  0
 33 30  1  1
 30 38  1  0
 34 31  1  6
 31 39  1  0
 35 32  1  6
 32 40  1  0
 41 42  1  0
 41 43  1  0
 15 19  2  0
 16 22  2  0
 12 17  1  6
 17 19  1  0
 17 20  1  0
 18 19  1  0
 18 22  1  0
 18 23  1  0
  9 10  1  0
  9 11  1  0
 10 12  1  0
 11  5  1  6
 33 34  1  0
 33 35  1  0
 34 36  1  0
 35 37  1  0
 36 42  1  1
 20 21  2  0
 21 22  1  0
M  CHG  2   2  -1  26  -1
M  END
>  <COMPND>  (23) 
    8629 

>  <AUTHOR>  (23) 
    GENERATED BY OPEN BABEL 3.1.1

>  <MASTER>  (23) 
        0    0    0    0    0    0    0    0   58    0   58    0

>  <minimizedAffinity>  (23) 
-7.52505

>  <CNNscore>  (23) 
0.5900490880

>  <CNNaffinity>  (23) 
4.5920443535

>  <CNN_VS>  (23) 
2.7095315456

>  <CNNaffinity_variance>  (23) 
0.0858293027

$$$$
24
     RDKit          3D

 43 45  0  0  0  0  0  0  0  0999 V2000
   24.0083   73.1140   -5.0968 P   0  0  2  0  0  0  0  0  0  0  0  0
   25.1335   73.6244   -6.1412 O   0  0  0  0  0  0  0  0  0  0  0  0
   23.5272   74.1522   -4.1261 O   0  0  0  0  0  0  0  0  0  0  0  0
   24.6610   71.7870   -4.4403 O   0  0  0  0  0  0  0  0  0  0  0  0
   26.0651   71.6139   -4.5200 C   0  0  0  0  0  0  0  0  0  0  0  0
   26.9638   69.7401   -3.3138 O   0  0  0  0  0  0  0  0  0  0  0  0
   27.9099   71.7373   -1.2873 O   0  0  0  0  0  0  0  0  0  0  0  0
   30.1769   71.2145   -2.7100 O   0  0  0  0  0  0  0  0  0  0  0  0
   27.8327   71.8595   -2.7067 C   0  0  1  0  0  0  0  0  0  0  0  0
   28.9347   71.0553   -3.3643 C   0  0  2  0  0  0  0  0  0  0  0  0
   26.5816   71.1259   -3.1734 C   0  0  1  0  0  0  0  0  0  0  0  0
   28.3962   69.6385   -3.2597 C   0  0  2  0  0  0  0  0  0  0  0  0
   28.7010   72.1985   -0.9658 H   0  0  0  0  0  0  0  0  0  0  0  0
   30.4773   72.1319   -2.8049 H   0  0  0  0  0  0  0  0  0  0  0  0
   30.7260   68.0440   -3.1756 O   0  0  0  0  0  0  0  0  0  0  0  0
   30.0220   66.4668   -7.4486 O   0  0  0  0  0  0  0  0  0  0  0  0
   28.8452   68.8011   -4.3360 N   0  0  0  0  0  0  0  0  0  0  0  0
   30.3735   67.2598   -5.3032 N   0  0  0  0  0  0  0  0  0  0  0  0
   30.0293   68.0409   -4.1926 C   0  0  0  0  0  0  0  0  0  0  0  0
   28.1142   68.7393   -5.5174 C   0  0  0  0  0  0  0  0  0  0  0  0
   28.4566   67.9904   -6.5677 C   0  0  0  0  0  0  0  0  0  0  0  0
   29.6803   67.1658   -6.4996 C   0  0  0  0  0  0  0  0  0  0  0  0
   31.1948   66.7220   -5.2263 H   0  0  0  0  0  0  0  0  0  0  0  0
   22.8603   72.5140   -6.0639 O   0  0  0  0  0  0  0  0  0  0  0  0
   21.6020   71.5502   -5.7465 P   0  0  2  0  0  0  0  0  0  0  0  0
   21.0985   72.0625   -4.2969 O   0  0  0  0  0  0  0  0  0  0  0  0
   21.9187   70.0840   -5.8095 O   0  0  0  0  0  0  0  0  0  0  0  0
   20.4510   72.0304   -6.7710 O   0  0  0  0  0  0  0  0  0  0  0  0
   20.0469   71.1046   -8.9149 O   0  0  0  0  0  0  0  0  0  0  0  0
   18.7399   74.9604   -9.6042 O   0  0  0  0  0  0  0  0  0  0  0  0
   16.8249   72.8308   -9.3917 O   0  0  0  0  0  0  0  0  0  0  0  0
   21.0711   74.4999   -7.9510 O   0  0  0  0  0  0  0  0  0  0  0  0
   18.9507   73.7743   -8.8334 C   0  0  1  0  0  0  0  0  0  0  0  0
   18.2273   72.6176   -9.5259 C   0  0  1  0  0  0  0  0  0  0  0  0
   20.4500   73.4956   -8.7461 C   0  0  2  0  0  0  0  0  0  0  0  0
   18.6240   71.2687   -8.9109 C   0  0  1  0  0  0  0  0  0  0  0  0
   20.7338   72.1090   -8.1657 C   0  0  1  0  0  0  0  0  0  0  0  0
   17.7899   75.1434   -9.6632 H   0  0  0  0  0  0  0  0  0  0  0  0
   16.5877   73.6861   -9.7835 H   0  0  0  0  0  0  0  0  0  0  0  0
   20.8843   75.3728   -8.3290 H   0  0  0  0  0  0  0  0  0  0  0  0
   17.8824   70.4779  -11.0402 O   0  0  0  0  0  0  0  0  0  0  0  0
   18.0371   70.0916   -9.6870 C   0  0  0  0  0  0  0  0  0  0  0  0
   17.5100   69.7384  -11.5463 H   0  0  0  0  0  0  0  0  0  0  0  0
 25 28  1  0
 25 24  1  0
 25 26  1  1
 25 27  2  0
  1  4  1  0
  1 24  1  0
  1  2  1  6
  1  3  2  0
  6 11  1  0
  6 12  1  0
 29 36  1  0
 29 37  1  0
  9  7  1  1
  7 13  1  0
 10  8  1  1
  8 14  1  0
 37 28  1  1
  4  5  1  0
 33 30  1  6
 30 38  1  0
 34 31  1  1
 31 39  1  0
 35 32  1  1
 32 40  1  0
 41 42  1  0
 41 43  1  0
 15 19  2  0
 16 22  2  0
 12 17  1  6
 17 19  1  0
 17 20  1  0
 18 19  1  0
 18 22  1  0
 18 23  1  0
  9 10  1  0
  9 11  1  0
 10 12  1  0
 11  5  1  6
 33 34  1  0
 33 35  1  0
 34 36  1  0
 35 37  1  0
 36 42  1  6
 20 21  2  0
 21 22  1  0
M  CHG  2   2  -1  26  -1
M  END
>  <COMPND>  (24) 
    8629 

>  <AUTHOR>  (24) 
    GENERATED BY OPEN BABEL 3.1.1

>  <MASTER>  (24) 
        0    0    0    0    0    0    0    0   58    0   58    0

>  <minimizedAffinity>  (24) 
-7.71599

>  <CNNscore>  (24) 
0.5700844526

>  <CNNaffinity>  (24) 
4.3915052414

>  <CNN_VS>  (24) 
2.5035288334

>  <CNNaffinity_variance>  (24) 
0.0525277555

$$$$
25
     RDKit          3D

 43 45  0  0  0  0  0  0  0  0999 V2000
   24.7010   73.4229   -4.7438 P   0  0  2  0  0  0  0  0  0  0  0  0
   24.9761   73.9351   -6.2536 O   0  0  0  0  0  0  0  0  0  0  0  0
   24.0101   74.4143   -3.8543 O   0  0  0  0  0  0  0  0  0  0  0  0
   26.1506   72.9142   -4.2360 O   0  0  0  0  0  0  0  0  0  0  0  0
   26.4689   71.5397   -4.3676 C   0  0  0  0  0  0  0  0  0  0  0  0
   27.4451   69.6576   -3.2369 O   0  0  0  0  0  0  0  0  0  0  0  0
   28.7179   71.6583   -1.4017 O   0  0  0  0  0  0  0  0  0  0  0  0
   30.7619   71.0140   -3.0880 O   0  0  0  0  0  0  0  0  0  0  0  0
   28.4632   71.7529   -2.8022 C   0  0  1  0  0  0  0  0  0  0  0  0
   29.4406   70.8909   -3.5738 C   0  0  2  0  0  0  0  0  0  0  0  0
   27.1360   71.0604   -3.0856 C   0  0  1  0  0  0  0  0  0  0  0  0
   28.8677   69.4996   -3.3636 C   0  0  2  0  0  0  0  0  0  0  0  0
   29.5605   72.0940   -1.1963 H   0  0  0  0  0  0  0  0  0  0  0  0
   31.0814   71.9163   -3.2449 H   0  0  0  0  0  0  0  0  0  0  0  0
   31.0864   67.7570   -3.5002 O   0  0  0  0  0  0  0  0  0  0  0  0
   29.8238   66.1784   -7.6421 O   0  0  0  0  0  0  0  0  0  0  0  0
   29.1430   68.6217   -4.4659 N   0  0  0  0  0  0  0  0  0  0  0  0
   30.4558   66.9723   -5.5624 N   0  0  0  0  0  0  0  0  0  0  0  0
   30.2847   67.7874   -4.4362 C   0  0  0  0  0  0  0  0  0  0  0  0
   28.2857   68.5938   -5.5604 C   0  0  0  0  0  0  0  0  0  0  0  0
   28.4636   67.8117   -6.6271 C   0  0  0  0  0  0  0  0  0  0  0  0
   29.6324   66.9096   -6.6753 C   0  0  0  0  0  0  0  0  0  0  0  0
   31.2447   66.3828   -5.5640 H   0  0  0  0  0  0  0  0  0  0  0  0
   23.8904   72.0428   -4.9702 O   0  0  0  0  0  0  0  0  0  0  0  0
   22.3142   71.7618   -5.1931 P   0  0  2  0  0  0  0  0  0  0  0  0
   21.6450   72.2910   -3.8184 O   0  0  0  0  0  0  0  0  0  0  0  0
   21.9853   70.3371   -5.5336 O   0  0  0  0  0  0  0  0  0  0  0  0
   21.8611   72.8377   -6.3076 O   0  0  0  0  0  0  0  0  0  0  0  0
   20.9283   74.9096   -5.6339 O   0  0  0  0  0  0  0  0  0  0  0  0
   19.4692   74.7529   -9.4936 O   0  0  0  0  0  0  0  0  0  0  0  0
   21.5748   76.5960   -8.8475 O   0  0  0  0  0  0  0  0  0  0  0  0
   19.6071   72.3383   -7.9030 O   0  0  0  0  0  0  0  0  0  0  0  0
   20.4252   74.5361   -8.4523 C   0  0  1  0  0  0  0  0  0  0  0  0
   20.8139   75.8954   -7.8675 C   0  0  1  0  0  0  0  0  0  0  0  0
   19.8006   73.6474   -7.3783 C   0  0  2  0  0  0  0  0  0  0  0  0
   21.6273   75.7309   -6.5766 C   0  0  1  0  0  0  0  0  0  0  0  0
   20.6661   73.5910   -6.1182 C   0  0  1  0  0  0  0  0  0  0  0  0
   19.8597   75.3161  -10.1791 H   0  0  0  0  0  0  0  0  0  0  0  0
   21.0500   76.6927   -9.6577 H   0  0  0  0  0  0  0  0  0  0  0  0
   19.0574   72.3875   -8.7001 H   0  0  0  0  0  0  0  0  0  0  0  0
   23.0479   76.9433   -5.0863 O   0  0  0  0  0  0  0  0  0  0  0  0
   21.8908   77.0703   -5.8920 C   0  0  0  0  0  0  0  0  0  0  0  0
   23.2280   77.7884   -4.6446 H   0  0  0  0  0  0  0  0  0  0  0  0
 25 28  1  0
 25 24  1  0
 25 26  1  1
 25 27  2  0
  1  4  1  0
  1 24  1  0
  1  2  1  6
  1  3  2  0
  6 11  1  0
  6 12  1  0
 29 36  1  0
 29 37  1  0
  9  7  1  1
  7 13  1  0
 10  8  1  1
  8 14  1  0
 37 28  1  6
  4  5  1  0
 33 30  1  6
 30 38  1  0
 34 31  1  6
 31 39  1  0
 35 32  1  6
 32 40  1  0
 41 42  1  0
 41 43  1  0
 15 19  2  0
 16 22  2  0
 12 17  1  6
 17 19  1  0
 17 20  1  0
 18 19  1  0
 18 22  1  0
 18 23  1  0
  9 10  1  0
  9 11  1  0
 10 12  1  0
 11  5  1  6
 33 34  1  0
 33 35  1  0
 34 36  1  0
 35 37  1  0
 36 42  1  1
 20 21  2  0
 21 22  1  0
M  CHG  2   2  -1  26  -1
M  END
>  <COMPND>  (25) 
    8629 

>  <AUTHOR>  (25) 
    GENERATED BY OPEN BABEL 3.1.1

>  <MASTER>  (25) 
        0    0    0    0    0    0    0    0   58    0   58    0

>  <minimizedAffinity>  (25) 
-6.51402

>  <CNNscore>  (25) 
0.5552719235

>  <CNNaffinity>  (25) 
4.5460996628

>  <CNN_VS>  (25) 
2.5243215561

>  <CNNaffinity_variance>  (25) 
0.1943254769

$$$$
26
     RDKit          3D

 43 45  0  0  0  0  0  0  0  0999 V2000
   27.4282   72.8858   -2.8641 P   0  0  2  0  0  0  0  0  0  0  0  0
   26.8152   71.8362   -3.9318 O   0  0  0  0  0  0  0  0  0  0  0  0
   26.9319   74.2949   -3.0041 O   0  0  0  0  0  0  0  0  0  0  0  0
   29.0283   72.6878   -2.9996 O   0  0  0  0  0  0  0  0  0  0  0  0
   29.5129   71.5318   -3.6604 C   0  0  0  0  0  0  0  0  0  0  0  0
   28.7357   69.3821   -2.9197 O   0  0  0  0  0  0  0  0  0  0  0  0
   31.3419   69.1530   -1.4548 O   0  0  0  0  0  0  0  0  0  0  0  0
   31.7715   67.6277   -3.6742 O   0  0  0  0  0  0  0  0  0  0  0  0
   31.0681   69.7508   -2.7209 C   0  0  1  0  0  0  0  0  0  0  0  0
   30.8350   68.6817   -3.7678 C   0  0  2  0  0  0  0  0  0  0  0  0
   29.7013   70.4189   -2.6386 C   0  0  1  0  0  0  0  0  0  0  0  0
   29.4179   68.2346   -3.4514 C   0  0  2  0  0  0  0  0  0  0  0  0
   32.2102   68.7202   -1.4828 H   0  0  0  0  0  0  0  0  0  0  0  0
   32.6572   67.9623   -3.8843 H   0  0  0  0  0  0  0  0  0  0  0  0
   26.7504   67.3059   -3.4437 O   0  0  0  0  0  0  0  0  0  0  0  0
   26.8292   66.4875   -7.9786 O   0  0  0  0  0  0  0  0  0  0  0  0
   28.7163   67.7731   -4.6160 N   0  0  0  0  0  0  0  0  0  0  0  0
   26.7917   66.8993   -5.7018 N   0  0  0  0  0  0  0  0  0  0  0  0
   27.3789   67.3266   -4.5040 C   0  0  0  0  0  0  0  0  0  0  0  0
   29.3538   67.7668   -5.8519 C   0  0  0  0  0  0  0  0  0  0  0  0
   28.7803   67.3550   -6.9845 C   0  0  0  0  0  0  0  0  0  0  0  0
   27.3843   66.8728   -6.9543 C   0  0  0  0  0  0  0  0  0  0  0  0
   25.8605   66.5835   -5.6480 H   0  0  0  0  0  0  0  0  0  0  0  0
   27.0956   72.1935   -1.4418 O   0  0  0  0  0  0  0  0  0  0  0  0
   27.5537   72.5794    0.0596 P   0  0  2  0  0  0  0  0  0  0  0  0
   26.7840   71.4892    0.9742 O   0  0  0  0  0  0  0  0  0  0  0  0
   27.2830   74.0068    0.4379 O   0  0  0  0  0  0  0  0  0  0  0  0
   29.1079   72.1506    0.1353 O   0  0  0  0  0  0  0  0  0  0  0  0
   30.4616   72.3487    2.0705 O   0  0  0  0  0  0  0  0  0  0  0  0
   33.3912   72.6794   -0.8206 O   0  0  0  0  0  0  0  0  0  0  0  0
   33.2038   70.2756    0.7397 O   0  0  0  0  0  0  0  0  0  0  0  0
   30.8061   73.9138   -1.2366 O   0  0  0  0  0  0  0  0  0  0  0  0
   32.1732   72.1940   -0.2494 C   0  0  1  0  0  0  0  0  0  0  0  0
   32.5096   71.4779    1.0601 C   0  0  1  0  0  0  0  0  0  0  0  0
   31.2376   73.3737    0.0078 C   0  0  2  0  0  0  0  0  0  0  0  0
   31.2393   71.1640    1.8620 C   0  0  1  0  0  0  0  0  0  0  0  0
   30.0313   72.9637    0.8546 C   0  0  1  0  0  0  0  0  0  0  0  0
   33.9896   71.9352   -0.9869 H   0  0  0  0  0  0  0  0  0  0  0  0
   34.0035   70.4877    0.2331 H   0  0  0  0  0  0  0  0  0  0  0  0
   31.5788   74.1697   -1.7632 H   0  0  0  0  0  0  0  0  0  0  0  0
   30.6029   71.0797    4.1635 O   0  0  0  0  0  0  0  0  0  0  0  0
   31.5603   70.5926    3.2413 C   0  0  0  0  0  0  0  0  0  0  0  0
   30.7944   70.7240    5.0458 H   0  0  0  0  0  0  0  0  0  0  0  0
 25 28  1  0
 25 24  1  0
 25 26  1  1
 25 27  2  0
  1  4  1  0
  1 24  1  0
  1  2  1  6
  1  3  2  0
  6 11  1  0
  6 12  1  0
 29 36  1  0
 29 37  1  0
  9  7  1  1
  7 13  1  0
 10  8  1  1
  8 14  1  0
 37 28  1  6
  4  5  1  0
 33 30  1  1
 30 38  1  0
 34 31  1  6
 31 39  1  0
 35 32  1  6
 32 40  1  0
 41 42  1  0
 41 43  1  0
 15 19  2  0
 16 22  2  0
 12 17  1  6
 17 19  1  0
 17 20  1  0
 18 19  1  0
 18 22  1  0
 18 23  1  0
  9 10  1  0
  9 11  1  0
 10 12  1  0
 11  5  1  6
 33 34  1  0
 33 35  1  0
 34 36  1  0
 35 37  1  0
 36 42  1  1
 20 21  2  0
 21 22  1  0
M  CHG  2   2  -1  26  -1
M  END
>  <COMPND>  (26) 
    8629 

>  <AUTHOR>  (26) 
    GENERATED BY OPEN BABEL 3.1.1

>  <MASTER>  (26) 
        0    0    0    0    0    0    0    0   58    0   58    0

>  <minimizedAffinity>  (26) 
-7.16647

>  <CNNscore>  (26) 
0.5415689349

>  <CNNaffinity>  (26) 
4.3954262733

>  <CNN_VS>  (26) 
2.3804264069

>  <CNNaffinity_variance>  (26) 
0.0862384290

$$$$
27
     RDKit          3D

 43 45  0  0  0  0  0  0  0  0999 V2000
   26.2213   72.2580   -2.5406 P   0  0  2  0  0  0  0  0  0  0  0  0
   27.1885   73.3956   -1.9177 O   0  0  0  0  0  0  0  0  0  0  0  0
   24.9825   71.9734   -1.7433 O   0  0  0  0  0  0  0  0  0  0  0  0
   27.2077   70.9980   -2.7799 O   0  0  0  0  0  0  0  0  0  0  0  0
   28.5596   71.2527   -3.1199 C   0  0  0  0  0  0  0  0  0  0  0  0
   28.8711   68.8934   -2.7877 O   0  0  0  0  0  0  0  0  0  0  0  0
   31.7051   69.5587   -2.0688 O   0  0  0  0  0  0  0  0  0  0  0  0
   31.9354   68.6758   -4.6387 O   0  0  0  0  0  0  0  0  0  0  0  0
   30.8566   70.1613   -3.0447 C   0  0  1  0  0  0  0  0  0  0  0  0
   30.7058   69.2501   -4.2449 C   0  0  2  0  0  0  0  0  0  0  0  0
   29.4401   70.1858   -2.4839 C   0  0  1  0  0  0  0  0  0  0  0  0
   29.7152   68.2176   -3.7342 C   0  0  2  0  0  0  0  0  0  0  0  0
   32.6154   69.5322   -2.4043 H   0  0  0  0  0  0  0  0  0  0  0  0
   32.5311   69.3725   -4.9556 H   0  0  0  0  0  0  0  0  0  0  0  0
   26.9477   67.7041   -3.4990 O   0  0  0  0  0  0  0  0  0  0  0  0
   26.6846   66.1376   -7.8255 O   0  0  0  0  0  0  0  0  0  0  0  0
   28.8986   67.6761   -4.7836 N   0  0  0  0  0  0  0  0  0  0  0  0
   26.8189   66.9247   -5.6535 N   0  0  0  0  0  0  0  0  0  0  0  0
   27.5192   67.4552   -4.5626 C   0  0  0  0  0  0  0  0  0  0  0  0
   29.4664   67.3702   -6.0157 C   0  0  0  0  0  0  0  0  0  0  0  0
   28.7851   66.8636   -7.0454 C   0  0  0  0  0  0  0  0  0  0  0  0
   27.3387   66.6029   -6.8973 C   0  0  0  0  0  0  0  0  0  0  0  0
   25.8565   66.7621   -5.5226 H   0  0  0  0  0  0  0  0  0  0  0  0
   25.9475   72.7952   -4.0404 O   0  0  0  0  0  0  0  0  0  0  0  0
   24.9119   73.9038   -4.5984 P   0  0  2  0  0  0  0  0  0  0  0  0
   25.2207   73.9341   -6.1862 O   0  0  0  0  0  0  0  0  0  0  0  0
   25.0168   75.2397   -3.9215 O   0  0  0  0  0  0  0  0  0  0  0  0
   23.4619   73.2052   -4.4784 O   0  0  0  0  0  0  0  0  0  0  0  0
   23.2604   70.8718   -4.8402 O   0  0  0  0  0  0  0  0  0  0  0  0
   19.3352   71.9805   -5.4837 O   0  0  0  0  0  0  0  0  0  0  0  0
   20.0340   70.5667   -3.0835 O   0  0  0  0  0  0  0  0  0  0  0  0
   21.4865   73.6789   -6.4146 O   0  0  0  0  0  0  0  0  0  0  0  0
   20.6237   72.0477   -4.8667 C   0  0  1  0  0  0  0  0  0  0  0  0
   20.9076   70.6996   -4.2013 C   0  0  1  0  0  0  0  0  0  0  0  0
   21.6730   72.3519   -5.9343 C   0  0  2  0  0  0  0  0  0  0  0  0
   22.3712   70.6018   -3.7502 C   0  0  1  0  0  0  0  0  0  0  0  0
   23.0940   72.1779   -5.3953 C   0  0  1  0  0  0  0  0  0  0  0  0
   18.6642   71.7881   -4.8111 H   0  0  0  0  0  0  0  0  0  0  0  0
   19.1131   70.6307   -3.3819 H   0  0  0  0  0  0  0  0  0  0  0  0
   20.5834   73.7761   -6.7533 H   0  0  0  0  0  0  0  0  0  0  0  0
   24.1182   69.0306   -3.3163 O   0  0  0  0  0  0  0  0  0  0  0  0
   22.7166   69.2093   -3.2271 C   0  0  0  0  0  0  0  0  0  0  0  0
   24.3528   68.1487   -2.9864 H   0  0  0  0  0  0  0  0  0  0  0  0
 25 28  1  0
 25 24  1  0
 25 26  1  6
 25 27  2  0
  1  4  1  0
  1 24  1  0
  1  2  1  1
  1  3  2  0
  6 11  1  0
  6 12  1  0
 29 36  1  0
 29 37  1  0
  9  7  1  1
  7 13  1  0
 10  8  1  1
  8 14  1  0
 37 28  1  1
  4  5  1  0
 33 30  1  6
 30 38  1  0
 34 31  1  1
 31 39  1  0
 35 32  1  1
 32 40  1  0
 41 42  1  0
 41 43  1  0
 15 19  2  0
 16 22  2  0
 12 17  1  6
 17 19  1  0
 17 20  1  0
 18 19  1  0
 18 22  1  0
 18 23  1  0
  9 10  1  0
  9 11  1  0
 10 12  1  0
 11  5  1  6
 33 34  1  0
 33 35  1  0
 34 36  1  0
 35 37  1  0
 36 42  1  6
 20 21  2  0
 21 22  1  0
M  CHG  2   2  -1  26  -1
M  END
>  <COMPND>  (27) 
    8629 

>  <AUTHOR>  (27) 
    GENERATED BY OPEN BABEL 3.1.1

>  <MASTER>  (27) 
        0    0    0    0    0    0    0    0   58    0   58    0

>  <minimizedAffinity>  (27) 
-7.52654

>  <CNNscore>  (27) 
0.5228513479

>  <CNNaffinity>  (27) 
4.5009942055

>  <CNN_VS>  (27) 
2.3533508778

>  <CNNaffinity_variance>  (27) 
0.3298640847

$$$$
28
     RDKit          3D

 43 45  0  0  0  0  0  0  0  0999 V2000
   24.5518   73.0069   -4.8671 P   0  0  2  0  0  0  0  0  0  0  0  0
   23.0557   72.6091   -5.3371 O   0  0  0  0  0  0  0  0  0  0  0  0
   25.3458   73.7871   -5.8733 O   0  0  0  0  0  0  0  0  0  0  0  0
   25.1992   71.5997   -4.3997 O   0  0  0  0  0  0  0  0  0  0  0  0
   26.5884   71.3975   -4.5920 C   0  0  0  0  0  0  0  0  0  0  0  0
   27.4940   69.5159   -3.4031 O   0  0  0  0  0  0  0  0  0  0  0  0
   28.7472   71.5217   -1.5600 O   0  0  0  0  0  0  0  0  0  0  0  0
   30.8295   70.8137   -3.1722 O   0  0  0  0  0  0  0  0  0  0  0  0
   28.5374   71.5988   -2.9690 C   0  0  1  0  0  0  0  0  0  0  0  0
   29.5217   70.7071   -3.6967 C   0  0  2  0  0  0  0  0  0  0  0  0
   27.2067   70.9263   -3.2828 C   0  0  1  0  0  0  0  0  0  0  0  0
   28.9166   69.3300   -3.4834 C   0  0  2  0  0  0  0  0  0  0  0  0
   29.5911   71.9451   -1.3352 H   0  0  0  0  0  0  0  0  0  0  0  0
   31.1706   71.7073   -3.3328 H   0  0  0  0  0  0  0  0  0  0  0  0
   31.2257   67.7098   -3.6294 O   0  0  0  0  0  0  0  0  0  0  0  0
   29.9347   65.9164   -7.6739 O   0  0  0  0  0  0  0  0  0  0  0  0
   29.2091   68.4300   -4.5631 N   0  0  0  0  0  0  0  0  0  0  0  0
   30.5809   66.8180   -5.6430 N   0  0  0  0  0  0  0  0  0  0  0  0
   30.3967   67.6621   -4.5405 C   0  0  0  0  0  0  0  0  0  0  0  0
   28.3232   68.3152   -5.6289 C   0  0  0  0  0  0  0  0  0  0  0  0
   28.5142   67.5066   -6.6734 C   0  0  0  0  0  0  0  0  0  0  0  0
   29.7303   66.6698   -6.7271 C   0  0  0  0  0  0  0  0  0  0  0  0
   31.4015   66.2737   -5.6491 H   0  0  0  0  0  0  0  0  0  0  0  0
   24.3009   73.7744   -3.4668 O   0  0  0  0  0  0  0  0  0  0  0  0
   25.3298   74.5102   -2.4604 P   0  0  2  0  0  0  0  0  0  0  0  0
   24.6649   75.9704   -2.2523 O   0  0  0  0  0  0  0  0  0  0  0  0
   26.7501   74.5400   -2.9458 O   0  0  0  0  0  0  0  0  0  0  0  0
   25.1221   73.7624   -1.0452 O   0  0  0  0  0  0  0  0  0  0  0  0
   26.1206   71.7753   -0.2260 O   0  0  0  0  0  0  0  0  0  0  0  0
   22.3657   71.3630    1.4419 O   0  0  0  0  0  0  0  0  0  0  0  0
   24.5987   72.0254    3.1221 O   0  0  0  0  0  0  0  0  0  0  0  0
   22.6491   72.4484   -1.2267 O   0  0  0  0  0  0  0  0  0  0  0  0
   23.5188   72.0774    0.9886 C   0  0  1  0  0  0  0  0  0  0  0  0
   24.7322   71.5785    1.7757 C   0  0  1  0  0  0  0  0  0  0  0  0
   23.7067   71.8249   -0.5062 C   0  0  2  0  0  0  0  0  0  0  0  0
   26.0405   72.1005    1.1667 C   0  0  1  0  0  0  0  0  0  0  0  0
   25.0601   72.3392   -1.0001 C   0  0  1  0  0  0  0  0  0  0  0  0
   22.2405   71.5195    2.3902 H   0  0  0  0  0  0  0  0  0  0  0  0
   23.7684   71.6893    3.4948 H   0  0  0  0  0  0  0  0  0  0  0  0
   21.7979   72.1142   -0.9050 H   0  0  0  0  0  0  0  0  0  0  0  0
   27.4414   72.1042    3.1022 O   0  0  0  0  0  0  0  0  0  0  0  0
   27.2680   71.4894    1.8388 C   0  0  0  0  0  0  0  0  0  0  0  0
   28.2190   71.7250    3.5417 H   0  0  0  0  0  0  0  0  0  0  0  0
 25 28  1  0
 25 24  1  0
 25 26  1  1
 25 27  2  0
  1  4  1  0
  1 24  1  0
  1  2  1  6
  1  3  2  0
  6 11  1  0
  6 12  1  0
 29 36  1  0
 29 37  1  0
  9  7  1  1
  7 13  1  0
 10  8  1  1
  8 14  1  0
 37 28  1  1
  4  5  1  0
 33 30  1  1
 30 38  1  0
 34 31  1  1
 31 39  1  0
 35 32  1  6
 32 40  1  0
 41 42  1  0
 41 43  1  0
 15 19  2  0
 16 22  2  0
 12 17  1  6
 17 19  1  0
 17 20  1  0
 18 19  1  0
 18 22  1  0
 18 23  1  0
  9 10  1  0
  9 11  1  0
 10 12  1  0
 11  5  1  6
 33 34  1  0
 33 35  1  0
 34 36  1  0
 35 37  1  0
 36 42  1  1
 20 21  2  0
 21 22  1  0
M  CHG  2   2  -1  26  -1
M  END
>  <COMPND>  (28) 
    8629 

>  <AUTHOR>  (28) 
    GENERATED BY OPEN BABEL 3.1.1

>  <MASTER>  (28) 
        0    0    0    0    0    0    0    0   58    0   58    0

>  <minimizedAffinity>  (28) 
-6.75636

>  <CNNscore>  (28) 
0.5216493011

>  <CNNaffinity>  (28) 
4.2891325951

>  <CNN_VS>  (28) 
2.2374229431

>  <CNNaffinity_variance>  (28) 
0.0451711342

$$$$
29
     RDKit          3D

 43 45  0  0  0  0  0  0  0  0999 V2000
   24.8565   73.4968   -4.9225 P   0  0  2  0  0  0  0  0  0  0  0  0
   25.1035   74.3011   -6.3043 O   0  0  0  0  0  0  0  0  0  0  0  0
   24.2572   74.3109   -3.8136 O   0  0  0  0  0  0  0  0  0  0  0  0
   26.2927   72.8236   -4.6028 O   0  0  0  0  0  0  0  0  0  0  0  0
   26.3871   71.4100   -4.5818 C   0  0  0  0  0  0  0  0  0  0  0  0
   27.3537   69.5739   -3.3700 O   0  0  0  0  0  0  0  0  0  0  0  0
   28.5290   71.6418   -1.5442 O   0  0  0  0  0  0  0  0  0  0  0  0
   30.6408   70.9903   -3.1419 O   0  0  0  0  0  0  0  0  0  0  0  0
   28.3218   71.6967   -2.9547 C   0  0  1  0  0  0  0  0  0  0  0  0
   29.3395   70.8324   -3.6696 C   0  0  2  0  0  0  0  0  0  0  0  0
   27.0167   70.9746   -3.2657 C   0  0  1  0  0  0  0  0  0  0  0  0
   28.7823   69.4372   -3.4435 C   0  0  2  0  0  0  0  0  0  0  0  0
   29.3567   72.0969   -1.3212 H   0  0  0  0  0  0  0  0  0  0  0  0
   30.9509   71.8937   -3.3109 H   0  0  0  0  0  0  0  0  0  0  0  0
   31.0685   67.7792   -3.4890 O   0  0  0  0  0  0  0  0  0  0  0  0
   29.9389   66.0236   -7.5979 O   0  0  0  0  0  0  0  0  0  0  0  0
   29.1101   68.5367   -4.5126 N   0  0  0  0  0  0  0  0  0  0  0  0
   30.5041   66.9062   -5.5348 N   0  0  0  0  0  0  0  0  0  0  0  0
   30.2824   67.7489   -4.4381 C   0  0  0  0  0  0  0  0  0  0  0  0
   28.2733   68.4410   -5.6193 C   0  0  0  0  0  0  0  0  0  0  0  0
   28.4996   67.6334   -6.6574 C   0  0  0  0  0  0  0  0  0  0  0  0
   29.7029   66.7766   -6.6582 C   0  0  0  0  0  0  0  0  0  0  0  0
   31.3150   66.3482   -5.5050 H   0  0  0  0  0  0  0  0  0  0  0  0
   23.9604   72.2357   -5.3911 O   0  0  0  0  0  0  0  0  0  0  0  0
   22.3581   72.0569   -5.5077 P   0  0  2  0  0  0  0  0  0  0  0  0
   22.1921   70.5397   -6.0445 O   0  0  0  0  0  0  0  0  0  0  0  0
   21.6837   73.0926   -6.3600 O   0  0  0  0  0  0  0  0  0  0  0  0
   21.8403   72.0076   -3.9798 O   0  0  0  0  0  0  0  0  0  0  0  0
   23.2673   71.0677   -2.3375 O   0  0  0  0  0  0  0  0  0  0  0  0
   19.6768   70.8165   -0.3137 O   0  0  0  0  0  0  0  0  0  0  0  0
   21.6286   72.7609    0.4974 O   0  0  0  0  0  0  0  0  0  0  0  0
   19.7687   70.3010   -3.1606 O   0  0  0  0  0  0  0  0  0  0  0  0
   20.6344   71.4011   -1.2006 C   0  0  1  0  0  0  0  0  0  0  0  0
   21.9081   71.6945   -0.4053 C   0  0  1  0  0  0  0  0  0  0  0  0
   20.9238   70.4229   -2.3376 C   0  0  2  0  0  0  0  0  0  0  0  0
   23.0678   72.0727   -1.3365 C   0  0  1  0  0  0  0  0  0  0  0  0
   22.1256   70.8677   -3.1732 C   0  0  1  0  0  0  0  0  0  0  0  0
   19.4882   71.4327    0.4104 H   0  0  0  0  0  0  0  0  0  0  0  0
   20.8942   72.5094    1.0794 H   0  0  0  0  0  0  0  0  0  0  0  0
   19.0151   70.0186   -2.6201 H   0  0  0  0  0  0  0  0  0  0  0  0
   24.2372   71.6233    0.6980 O   0  0  0  0  0  0  0  0  0  0  0  0
   24.3861   72.2158   -0.5791 C   0  0  0  0  0  0  0  0  0  0  0  0
   25.0687   71.7066    1.1913 H   0  0  0  0  0  0  0  0  0  0  0  0
 25 28  1  0
 25 24  1  0
 25 26  1  6
 25 27  2  0
  1  4  1  0
  1 24  1  0
  1  2  1  6
  1  3  2  0
  6 11  1  0
  6 12  1  0
 29 36  1  0
 29 37  1  0
  9  7  1  1
  7 13  1  0
 10  8  1  1
  8 14  1  0
 37 28  1  1
  4  5  1  0
 33 30  1  1
 30 38  1  0
 34 31  1  1
 31 39  1  0
 35 32  1  6
 32 40  1  0
 41 42  1  0
 41 43  1  0
 15 19  2  0
 16 22  2  0
 12 17  1  6
 17 19  1  0
 17 20  1  0
 18 19  1  0
 18 22  1  0
 18 23  1  0
  9 10  1  0
  9 11  1  0
 10 12  1  0
 11  5  1  6
 33 34  1  0
 33 35  1  0
 34 36  1  0
 35 37  1  0
 36 42  1  1
 20 21  2  0
 21 22  1  0
M  CHG  2   2  -1  26  -1
M  END
>  <COMPND>  (29) 
    8629 

>  <AUTHOR>  (29) 
    GENERATED BY OPEN BABEL 3.1.1

>  <MASTER>  (29) 
        0    0    0    0    0    0    0    0   58    0   58    0

>  <minimizedAffinity>  (29) 
-7.30681

>  <CNNscore>  (29) 
0.5010651350

>  <CNNaffinity>  (29) 
4.3515043259

>  <CNN_VS>  (29) 
2.1803870201

>  <CNNaffinity_variance>  (29) 
0.0377216823

$$$$
30
     RDKit          3D

 43 45  0  0  0  0  0  0  0  0999 V2000
   22.3479   72.2020   -4.9342 P   0  0  2  0  0  0  0  0  0  0  0  0
   21.5695   70.8244   -4.5967 O   0  0  0  0  0  0  0  0  0  0  0  0
   21.8570   73.4068   -4.1867 O   0  0  0  0  0  0  0  0  0  0  0  0
   22.2809   72.3007   -6.5477 O   0  0  0  0  0  0  0  0  0  0  0  0
   21.5057   71.3462   -7.2519 C   0  0  0  0  0  0  0  0  0  0  0  0
   19.9201   71.1613   -9.0478 O   0  0  0  0  0  0  0  0  0  0  0  0
   20.5043   74.0478   -9.6113 O   0  0  0  0  0  0  0  0  0  0  0  0
   18.1388   74.1729   -8.2602 O   0  0  0  0  0  0  0  0  0  0  0  0
   20.4316   73.3700   -8.3581 C   0  0  1  0  0  0  0  0  0  0  0  0
   18.9894   73.0742   -8.0031 C   0  0  2  0  0  0  0  0  0  0  0  0
   21.0060   71.9715   -8.5470 C   0  0  1  0  0  0  0  0  0  0  0  0
   18.6852   71.8791   -8.8905 C   0  0  2  0  0  0  0  0  0  0  0  0
   20.1433   74.9436   -9.5156 H   0  0  0  0  0  0  0  0  0  0  0  0
   18.3719   74.9072   -7.6711 H   0  0  0  0  0  0  0  0  0  0  0  0
   16.4716   70.8159  -10.2860 O   0  0  0  0  0  0  0  0  0  0  0  0
   14.9948   68.5267   -6.5684 O   0  0  0  0  0  0  0  0  0  0  0  0
   17.7066   71.0022   -8.3119 N   0  0  0  0  0  0  0  0  0  0  0  0
   15.7382   69.6768   -8.4338 N   0  0  0  0  0  0  0  0  0  0  0  0
   16.6326   70.5251   -9.0989 C   0  0  0  0  0  0  0  0  0  0  0  0
   17.8175   70.6238   -6.9783 C   0  0  0  0  0  0  0  0  0  0  0  0
   16.9554   69.8151   -6.3587 C   0  0  0  0  0  0  0  0  0  0  0  0
   15.8050   69.2727   -7.1099 C   0  0  0  0  0  0  0  0  0  0  0  0
   14.9818   69.3324   -8.9621 H   0  0  0  0  0  0  0  0  0  0  0  0
   23.8947   71.8226   -4.6573 O   0  0  0  0  0  0  0  0  0  0  0  0
   25.2413   72.7102   -4.7665 P   0  0  2  0  0  0  0  0  0  0  0  0
   25.3028   73.4682   -3.3385 O   0  0  0  0  0  0  0  0  0  0  0  0
   25.2802   73.6256   -5.9558 O   0  0  0  0  0  0  0  0  0  0  0  0
   26.4444   71.6358   -4.7098 O   0  0  0  0  0  0  0  0  0  0  0  0
   26.8076   69.7217   -3.3603 O   0  0  0  0  0  0  0  0  0  0  0  0
   30.6598   71.2059   -3.4509 O   0  0  0  0  0  0  0  0  0  0  0  0
   30.0177   68.8366   -4.9416 O   0  0  0  0  0  0  0  0  0  0  0  0
   28.4153   73.0253   -3.2746 O   0  0  0  0  0  0  0  0  0  0  0  0
   29.3597   70.9234   -3.9755 C   0  0  1  0  0  0  0  0  0  0  0  0
   29.1557   69.4071   -3.9609 C   0  0  1  0  0  0  0  0  0  0  0  0
   28.3101   71.6155   -3.1079 C   0  0  2  0  0  0  0  0  0  0  0  0
   27.6947   69.0419   -4.2561 C   0  0  1  0  0  0  0  0  0  0  0  0
   26.8952   71.1451   -3.4499 C   0  0  1  0  0  0  0  0  0  0  0  0
   31.3310   70.7697   -3.9976 H   0  0  0  0  0  0  0  0  0  0  0  0
   30.9370   69.0752   -4.7439 H   0  0  0  0  0  0  0  0  0  0  0  0
   29.3153   73.3105   -3.0547 H   0  0  0  0  0  0  0  0  0  0  0  0
   26.8066   67.0672   -5.2666 O   0  0  0  0  0  0  0  0  0  0  0  0
   27.4347   67.5460   -4.0916 C   0  0  0  0  0  0  0  0  0  0  0  0
   26.6353   66.1163   -5.1764 H   0  0  0  0  0  0  0  0  0  0  0  0
 25 28  1  0
 25 24  1  0
 25 26  1  1
 25 27  2  0
  1  4  1  0
  1 24  1  0
  1  2  1  1
  1  3  2  0
  6 11  1  0
  6 12  1  0
 29 36  1  0
 29 37  1  0
  9  7  1  6
  7 13  1  0
 10  8  1  6
  8 14  1  0
 37 28  1  6
  4  5  1  0
 33 30  1  1
 30 38  1  0
 34 31  1  6
 31 39  1  0
 35 32  1  6
 32 40  1  0
 41 42  1  0
 41 43  1  0
 15 19  2  0
 16 22  2  0
 12 17  1  1
 17 19  1  0
 17 20  1  0
 18 19  1  0
 18 22  1  0
 18 23  1  0
  9 10  1  0
  9 11  1  0
 10 12  1  0
 11  5  1  1
 33 34  1  0
 33 35  1  0
 34 36  1  0
 35 37  1  0
 36 42  1  1
 20 21  2  0
 21 22  1  0
M  CHG  2   2  -1  26  -1
M  END
>  <COMPND>  (30) 
    8629 

>  <AUTHOR>  (30) 
    GENERATED BY OPEN BABEL 3.1.1

>  <MASTER>  (30) 
        0    0    0    0    0    0    0    0   58    0   58    0

>  <minimizedAffinity>  (30) 
-7.50721

>  <CNNscore>  (30) 
0.4167188406

>  <CNNaffinity>  (30) 
4.1469526291

>  <CNN_VS>  (30) 
1.7281132936

>  <CNNaffinity_variance>  (30) 
0.1071083546

$$$$
31
     RDKit          3D

 43 45  0  0  0  0  0  0  0  0999 V2000
   24.3400   73.2234   -4.9798 P   0  0  2  0  0  0  0  0  0  0  0  0
   25.5717   73.4778   -5.9973 O   0  0  0  0  0  0  0  0  0  0  0  0
   23.9014   74.4291   -4.2016 O   0  0  0  0  0  0  0  0  0  0  0  0
   24.8202   71.9546   -4.0981 O   0  0  0  0  0  0  0  0  0  0  0  0
   26.0341   71.3110   -4.4447 C   0  0  0  0  0  0  0  0  0  0  0  0
   27.3150   69.6832   -3.2267 O   0  0  0  0  0  0  0  0  0  0  0  0
   28.4201   71.9942   -1.6683 O   0  0  0  0  0  0  0  0  0  0  0  0
   30.4272   71.4535   -3.4334 O   0  0  0  0  0  0  0  0  0  0  0  0
   28.0724   71.9217   -3.0500 C   0  0  1  0  0  0  0  0  0  0  0  0
   29.1072   71.1195   -3.8112 C   0  0  2  0  0  0  0  0  0  0  0  0
   26.8334   71.0441   -3.1767 C   0  0  1  0  0  0  0  0  0  0  0  0
   28.7359   69.6938   -3.4403 C   0  0  2  0  0  0  0  0  0  0  0  0
   29.2087   72.5499   -1.5622 H   0  0  0  0  0  0  0  0  0  0  0  0
   30.6154   72.3696   -3.6907 H   0  0  0  0  0  0  0  0  0  0  0  0
   31.2407   68.4181   -3.7169 O   0  0  0  0  0  0  0  0  0  0  0  0
   29.8602   66.1159   -7.4633 O   0  0  0  0  0  0  0  0  0  0  0  0
   29.0584   68.7561   -4.4786 N   0  0  0  0  0  0  0  0  0  0  0  0
   30.5512   67.2727   -5.5820 N   0  0  0  0  0  0  0  0  0  0  0  0
   30.3459   68.1729   -4.5286 C   0  0  0  0  0  0  0  0  0  0  0  0
   28.1032   68.4233   -5.4330 C   0  0  0  0  0  0  0  0  0  0  0  0
   28.3152   67.5641   -6.4319 C   0  0  0  0  0  0  0  0  0  0  0  0
   29.6341   66.9105   -6.5558 C   0  0  0  0  0  0  0  0  0  0  0  0
   31.4410   66.8543   -5.6371 H   0  0  0  0  0  0  0  0  0  0  0  0
   23.2020   72.5904   -5.9376 O   0  0  0  0  0  0  0  0  0  0  0  0
   21.6124   72.4001   -5.7147 P   0  0  2  0  0  0  0  0  0  0  0  0
   21.2735   71.0723   -6.5748 O   0  0  0  0  0  0  0  0  0  0  0  0
   20.7912   73.6021   -6.0819 O   0  0  0  0  0  0  0  0  0  0  0  0
   21.4683   71.9364   -4.1755 O   0  0  0  0  0  0  0  0  0  0  0  0
   19.4505   72.7069   -3.2001 O   0  0  0  0  0  0  0  0  0  0  0  0
   21.3414   71.3244    0.2005 O   0  0  0  0  0  0  0  0  0  0  0  0
   19.1226   69.8582   -0.8836 O   0  0  0  0  0  0  0  0  0  0  0  0
   22.8713   72.6673   -1.8576 O   0  0  0  0  0  0  0  0  0  0  0  0
   20.9883   71.3242   -1.1854 C   0  0  1  0  0  0  0  0  0  0  0  0
   19.4691   71.1782   -1.2932 C   0  0  1  0  0  0  0  0  0  0  0  0
   21.4486   72.6362   -1.8180 C   0  0  2  0  0  0  0  0  0  0  0  0
   18.9882   71.4362   -2.7275 C   0  0  1  0  0  0  0  0  0  0  0  0
   20.8750   72.8168   -3.2245 C   0  0  1  0  0  0  0  0  0  0  0  0
   21.0523   70.4939    0.6081 H   0  0  0  0  0  0  0  0  0  0  0  0
   19.4323   69.7080    0.0235 H   0  0  0  0  0  0  0  0  0  0  0  0
   23.2222   72.5522   -0.9612 H   0  0  0  0  0  0  0  0  0  0  0  0
   17.0185   70.1349   -3.0955 O   0  0  0  0  0  0  0  0  0  0  0  0
   17.4644   71.4512   -2.8258 C   0  0  0  0  0  0  0  0  0  0  0  0
   16.0502   70.1291   -3.1604 H   0  0  0  0  0  0  0  0  0  0  0  0
 25 28  1  0
 25 24  1  0
 25 26  1  6
 25 27  2  0
  1  4  1  0
  1 24  1  0
  1  2  1  6
  1  3  2  0
  6 11  1  0
  6 12  1  0
 29 36  1  0
 29 37  1  0
  9  7  1  1
  7 13  1  0
 10  8  1  1
  8 14  1  0
 37 28  1  6
  4  5  1  0
 33 30  1  1
 30 38  1  0
 34 31  1  6
 31 39  1  0
 35 32  1  6
 32 40  1  0
 41 42  1  0
 41 43  1  0
 15 19  2  0
 16 22  2  0
 12 17  1  6
 17 19  1  0
 17 20  1  0
 18 19  1  0
 18 22  1  0
 18 23  1  0
  9 10  1  0
  9 11  1  0
 10 12  1  0
 11  5  1  6
 33 34  1  0
 33 35  1  0
 34 36  1  0
 35 37  1  0
 36 42  1  1
 20 21  2  0
 21 22  1  0
M  CHG  2   2  -1  26  -1
M  END
>  <COMPND>  (31) 
    8629 

>  <AUTHOR>  (31) 
    GENERATED BY OPEN BABEL 3.1.1

>  <MASTER>  (31) 
        0    0    0    0    0    0    0    0   58    0   58    0

>  <minimizedAffinity>  (31) 
-7.26497

>  <CNNscore>  (31) 
0.4075567722

>  <CNNaffinity>  (31) 
4.2027182579

>  <CNN_VS>  (31) 
1.7128462791

>  <CNNaffinity_variance>  (31) 
0.0617399588

$$$$
32
     RDKit          3D

 43 45  0  0  0  0  0  0  0  0999 V2000
   28.8131   71.9908    1.8068 P   0  0  2  0  0  0  0  0  0  0  0  0
   29.1969   72.6706    3.2238 O   0  0  0  0  0  0  0  0  0  0  0  0
   28.6537   72.9517    0.6654 O   0  0  0  0  0  0  0  0  0  0  0  0
   27.5168   71.0850    2.1490 O   0  0  0  0  0  0  0  0  0  0  0  0
   26.2391   71.6973    2.1264 C   0  0  0  0  0  0  0  0  0  0  0  0
   25.5991   70.9721    4.3260 O   0  0  0  0  0  0  0  0  0  0  0  0
   22.9778   70.1861    3.1004 O   0  0  0  0  0  0  0  0  0  0  0  0
   22.3839   72.5610    4.3022 O   0  0  0  0  0  0  0  0  0  0  0  0
   23.8176   71.2990    2.7978 C   0  0  1  0  0  0  0  0  0  0  0  0
   23.7176   72.3451    3.8883 C   0  0  2  0  0  0  0  0  0  0  0  0
   25.2656   70.8428    2.9265 C   0  0  1  0  0  0  0  0  0  0  0  0
   24.5793   71.7412    4.9842 C   0  0  2  0  0  0  0  0  0  0  0  0
   22.0478   70.4531    3.0246 H   0  0  0  0  0  0  0  0  0  0  0  0
   21.8765   72.9459    3.5706 H   0  0  0  0  0  0  0  0  0  0  0  0
   23.3042   73.0844    7.1168 O   0  0  0  0  0  0  0  0  0  0  0  0
   27.0766   75.5604    8.0545 O   0  0  0  0  0  0  0  0  0  0  0  0
   25.2049   72.7413    5.8027 N   0  0  0  0  0  0  0  0  0  0  0  0
   25.1837   74.3161    7.5821 N   0  0  0  0  0  0  0  0  0  0  0  0
   24.4762   73.3558    6.8477 C   0  0  0  0  0  0  0  0  0  0  0  0
   26.5266   73.1032    5.5659 C   0  0  0  0  0  0  0  0  0  0  0  0
   27.1864   74.0218    6.2746 C   0  0  0  0  0  0  0  0  0  0  0  0
   26.4973   74.7112    7.3845 C   0  0  0  0  0  0  0  0  0  0  0  0
   24.6961   74.7577    8.3149 H   0  0  0  0  0  0  0  0  0  0  0  0
   29.9807   70.8917    1.6028 O   0  0  0  0  0  0  0  0  0  0  0  0
   31.1052   70.7387    0.4517 P   0  0  2  0  0  0  0  0  0  0  0  0
   31.8944   69.3930    0.8805 O   0  0  0  0  0  0  0  0  0  0  0  0
   31.9832   71.9450    0.2850 O   0  0  0  0  0  0  0  0  0  0  0  0
   30.2807   70.3234   -0.8722 O   0  0  0  0  0  0  0  0  0  0  0  0
   31.2817   69.5757   -2.8861 O   0  0  0  0  0  0  0  0  0  0  0  0
   27.8210   71.2099   -4.4365 O   0  0  0  0  0  0  0  0  0  0  0  0
   28.1307   68.3558   -4.3599 O   0  0  0  0  0  0  0  0  0  0  0  0
   29.1720   72.5131   -2.2328 O   0  0  0  0  0  0  0  0  0  0  0  0
   28.6165   70.5212   -3.4678 C   0  0  1  0  0  0  0  0  0  0  0  0
   29.1989   69.2698   -4.1278 C   0  0  1  0  0  0  0  0  0  0  0  0
   29.7339   71.4469   -2.9904 C   0  0  2  0  0  0  0  0  0  0  0  0
   30.2717   68.6240   -3.2406 C   0  0  1  0  0  0  0  0  0  0  0  0
   30.7731   70.6946   -2.1571 C   0  0  1  0  0  0  0  0  0  0  0  0
   27.1093   70.6279   -4.7433 H   0  0  0  0  0  0  0  0  0  0  0  0
   27.4600   68.7761   -4.9208 H   0  0  0  0  0  0  0  0  0  0  0  0
   28.5160   72.9816   -2.7714 H   0  0  0  0  0  0  0  0  0  0  0  0
   30.6139   67.4872   -5.3141 O   0  0  0  0  0  0  0  0  0  0  0  0
   30.9766   67.4673   -3.9458 C   0  0  0  0  0  0  0  0  0  0  0  0
   31.0554   66.7566   -5.7757 H   0  0  0  0  0  0  0  0  0  0  0  0
 25 28  1  0
 25 24  1  0
 25 26  1  1
 25 27  2  0
  1  4  1  0
  1 24  1  0
  1  2  1  1
  1  3  2  0
  6 11  1  0
  6 12  1  0
 29 36  1  0
 29 37  1  0
  9  7  1  1
  7 13  1  0
 10  8  1  1
  8 14  1  0
 37 28  1  1
  4  5  1  0
 33 30  1  6
 30 38  1  0
 34 31  1  1
 31 39  1  0
 35 32  1  1
 32 40  1  0
 41 42  1  0
 41 43  1  0
 15 19  2  0
 16 22  2  0
 12 17  1  6
 17 19  1  0
 17 20  1  0
 18 19  1  0
 18 22  1  0
 18 23  1  0
  9 10  1  0
  9 11  1  0
 10 12  1  0
 11  5  1  6
 33 34  1  0
 33 35  1  0
 34 36  1  0
 35 37  1  0
 36 42  1  6
 20 21  2  0
 21 22  1  0
M  CHG  2   2  -1  26  -1
M  END
>  <COMPND>  (32) 
    8629 

>  <AUTHOR>  (32) 
    GENERATED BY OPEN BABEL 3.1.1

>  <MASTER>  (32) 
        0    0    0    0    0    0    0    0   58    0   58    0

>  <minimizedAffinity>  (32) 
-6.17250

>  <CNNscore>  (32) 
0.3993327916

>  <CNNaffinity>  (32) 
3.8237564564

>  <CNN_VS>  (32) 
1.5269513130

>  <CNNaffinity_variance>  (32) 
0.2032008618

$$$$
33
     RDKit          3D

 43 45  0  0  0  0  0  0  0  0999 V2000
   24.3280   73.2175   -4.7614 P   0  0  2  0  0  0  0  0  0  0  0  0
   25.3645   73.4339   -5.9846 O   0  0  0  0  0  0  0  0  0  0  0  0
   23.7655   74.4796   -4.1765 O   0  0  0  0  0  0  0  0  0  0  0  0
   25.1352   72.2650   -3.7322 O   0  0  0  0  0  0  0  0  0  0  0  0
   26.3852   71.7362   -4.1392 C   0  0  0  0  0  0  0  0  0  0  0  0
   27.6648   70.0663   -2.9781 O   0  0  0  0  0  0  0  0  0  0  0  0
   28.8930   72.3366   -1.4523 O   0  0  0  0  0  0  0  0  0  0  0  0
   30.8158   71.7496   -3.2948 O   0  0  0  0  0  0  0  0  0  0  0  0
   28.4914   72.2816   -2.8201 C   0  0  1  0  0  0  0  0  0  0  0  0
   29.4735   71.4549   -3.6237 C   0  0  2  0  0  0  0  0  0  0  0  0
   27.2241   71.4398   -2.9036 C   0  0  1  0  0  0  0  0  0  0  0  0
   29.0764   70.0381   -3.2454 C   0  0  2  0  0  0  0  0  0  0  0  0
   29.7004   72.8693   -1.3737 H   0  0  0  0  0  0  0  0  0  0  0  0
   31.0199   72.6614   -3.5549 H   0  0  0  0  0  0  0  0  0  0  0  0
   30.9197   67.9055   -3.0677 O   0  0  0  0  0  0  0  0  0  0  0  0
   29.9783   66.4932   -7.3526 O   0  0  0  0  0  0  0  0  0  0  0  0
   29.3327   69.0976   -4.2994 N   0  0  0  0  0  0  0  0  0  0  0  0
   30.4494   67.2039   -5.2013 N   0  0  0  0  0  0  0  0  0  0  0  0
   30.2790   68.0638   -4.1088 C   0  0  0  0  0  0  0  0  0  0  0  0
   28.6491   69.2053   -5.5057 C   0  0  0  0  0  0  0  0  0  0  0  0
   28.8241   68.3779   -6.5382 C   0  0  0  0  0  0  0  0  0  0  0  0
   29.7948   67.2707   -6.4211 C   0  0  0  0  0  0  0  0  0  0  0  0
   31.1038   66.4763   -5.0916 H   0  0  0  0  0  0  0  0  0  0  0  0
   23.2250   72.2183   -5.3921 O   0  0  0  0  0  0  0  0  0  0  0  0
   22.1751   71.2134   -4.6845 P   0  0  2  0  0  0  0  0  0  0  0  0
   21.4719   72.1418   -3.5616 O   0  0  0  0  0  0  0  0  0  0  0  0
   22.7935   69.9547   -4.1487 O   0  0  0  0  0  0  0  0  0  0  0  0
   21.0269   70.9749   -5.7936 O   0  0  0  0  0  0  0  0  0  0  0  0
   19.8698   72.4676   -7.2252 O   0  0  0  0  0  0  0  0  0  0  0  0
   16.7443   69.9647   -6.2163 O   0  0  0  0  0  0  0  0  0  0  0  0
   17.8674   69.8372   -8.8564 O   0  0  0  0  0  0  0  0  0  0  0  0
   18.7181   70.6848   -4.2250 O   0  0  0  0  0  0  0  0  0  0  0  0
   18.1017   70.2965   -6.5208 C   0  0  1  0  0  0  0  0  0  0  0  0
   18.1464   70.8852   -7.9322 C   0  0  1  0  0  0  0  0  0  0  0  0
   18.6089   71.3118   -5.4984 C   0  0  2  0  0  0  0  0  0  0  0  0
   19.5169   71.5088   -8.2292 C   0  0  1  0  0  0  0  0  0  0  0  0
   19.9555   71.9070   -5.9136 C   0  0  1  0  0  0  0  0  0  0  0  0
   16.4164   69.3200   -6.8615 H   0  0  0  0  0  0  0  0  0  0  0  0
   16.9996   69.4517   -8.6576 H   0  0  0  0  0  0  0  0  0  0  0  0
   17.8592   70.3123   -3.9734 H   0  0  0  0  0  0  0  0  0  0  0  0
   18.2619   72.8246   -9.7793 O   0  0  0  0  0  0  0  0  0  0  0  0
   19.5341   72.2399   -9.5698 C   0  0  0  0  0  0  0  0  0  0  0  0
   18.2582   73.2937  -10.6288 H   0  0  0  0  0  0  0  0  0  0  0  0
 25 28  1  0
 25 24  1  0
 25 26  1  1
 25 27  2  0
  1  4  1  0
  1 24  1  0
  1  2  1  6
  1  3  2  0
  6 11  1  0
  6 12  1  0
 29 36  1  0
 29 37  1  0
  9  7  1  1
  7 13  1  0
 10  8  1  1
  8 14  1  0
 37 28  1  6
  4  5  1  0
 33 30  1  1
 30 38  1  0
 34 31  1  6
 31 39  1  0
 35 32  1  1
 32 40  1  0
 41 42  1  0
 41 43  1  0
 15 19  2  0
 16 22  2  0
 12 17  1  6
 17 19  1  0
 17 20  1  0
 18 19  1  0
 18 22  1  0
 18 23  1  0
  9 10  1  0
  9 11  1  0
 10 12  1  0
 11  5  1  6
 33 34  1  0
 33 35  1  0
 34 36  1  0
 35 37  1  0
 36 42  1  6
 20 21  2  0
 21 22  1  0
M  CHG  2   2  -1  26  -1
M  END
>  <COMPND>  (33) 
    8629 

>  <AUTHOR>  (33) 
    GENERATED BY OPEN BABEL 3.1.1

>  <MASTER>  (33) 
        0    0    0    0    0    0    0    0   58    0   58    0

>  <minimizedAffinity>  (33) 
-7.44802

>  <CNNscore>  (33) 
0.3778225482

>  <CNNaffinity>  (33) 
4.2644433975

>  <CNN_VS>  (33) 
1.6112028360

>  <CNNaffinity_variance>  (33) 
0.0363052748

$$$$
34
     RDKit          3D

 43 45  0  0  0  0  0  0  0  0999 V2000
   27.7543   72.3096   -1.8368 P   0  0  2  0  0  0  0  0  0  0  0  0
   29.3387   72.4901   -1.5640 O   0  0  0  0  0  0  0  0  0  0  0  0
   27.0689   73.5142   -2.4118 O   0  0  0  0  0  0  0  0  0  0  0  0
   27.1746   71.7796   -0.4223 O   0  0  0  0  0  0  0  0  0  0  0  0
   26.7802   72.7348    0.5473 C   0  0  0  0  0  0  0  0  0  0  0  0
   27.3512   70.8918    1.9794 O   0  0  0  0  0  0  0  0  0  0  0  0
   25.8647   72.3505    4.1365 O   0  0  0  0  0  0  0  0  0  0  0  0
   28.4679   72.9093    4.7263 O   0  0  0  0  0  0  0  0  0  0  0  0
   26.6741   72.8752    3.0854 C   0  0  1  0  0  0  0  0  0  0  0  0
   28.1399   72.6335    3.3798 C   0  0  2  0  0  0  0  0  0  0  0  0
   26.4521   72.0146    1.8479 C   0  0  1  0  0  0  0  0  0  0  0  0
   28.2932   71.1630    3.0302 C   0  0  2  0  0  0  0  0  0  0  0  0
   25.9893   72.8842    4.9375 H   0  0  0  0  0  0  0  0  0  0  0  0
   28.3545   73.8570    4.8993 H   0  0  0  0  0  0  0  0  0  0  0  0
   30.5709   70.9928    4.6917 O   0  0  0  0  0  0  0  0  0  0  0  0
   33.3102   69.9382    1.1385 O   0  0  0  0  0  0  0  0  0  0  0  0
   29.6140   70.8453    2.5657 N   0  0  0  0  0  0  0  0  0  0  0  0
   31.9330   70.4676    2.9211 N   0  0  0  0  0  0  0  0  0  0  0  0
   30.6897   70.7862    3.4822 C   0  0  0  0  0  0  0  0  0  0  0  0
   29.8325   70.5960    1.2152 C   0  0  0  0  0  0  0  0  0  0  0  0
   31.0245   70.2949    0.6959 C   0  0  0  0  0  0  0  0  0  0  0  0
   32.2009   70.2128    1.5855 C   0  0  0  0  0  0  0  0  0  0  0  0
   32.6971   70.4211    3.5406 H   0  0  0  0  0  0  0  0  0  0  0  0
   27.6942   70.9916   -2.7708 O   0  0  0  0  0  0  0  0  0  0  0  0
   26.5693   70.4791   -3.8125 P   0  0  2  0  0  0  0  0  0  0  0  0
   26.3286   71.7669   -4.7618 O   0  0  0  0  0  0  0  0  0  0  0  0
   25.3248   69.9479   -3.1622 O   0  0  0  0  0  0  0  0  0  0  0  0
   27.3379   69.4168   -4.7537 O   0  0  0  0  0  0  0  0  0  0  0  0
   27.0236   67.1371   -5.3199 O   0  0  0  0  0  0  0  0  0  0  0  0
   31.0966   67.0932   -4.6423 O   0  0  0  0  0  0  0  0  0  0  0  0
   30.1041   66.8931   -7.3298 O   0  0  0  0  0  0  0  0  0  0  0  0
   29.3699   68.6939   -2.9583 O   0  0  0  0  0  0  0  0  0  0  0  0
   29.8538   67.6527   -5.0756 C   0  0  1  0  0  0  0  0  0  0  0  0
   29.2813   66.7554   -6.1747 C   0  0  1  0  0  0  0  0  0  0  0  0
   28.8971   67.7241   -3.8870 C   0  0  2  0  0  0  0  0  0  0  0  0
   27.8316   67.1376   -6.5026 C   0  0  1  0  0  0  0  0  0  0  0  0
   27.4722   68.0632   -4.3284 C   0  0  1  0  0  0  0  0  0  0  0  0
   31.7089   67.0456   -5.3922 H   0  0  0  0  0  0  0  0  0  0  0  0
   31.0168   66.6493   -7.1091 H   0  0  0  0  0  0  0  0  0  0  0  0
   30.2725   68.4678   -2.6863 H   0  0  0  0  0  0  0  0  0  0  0  0
   26.5812   66.8976   -8.5245 O   0  0  0  0  0  0  0  0  0  0  0  0
   27.1894   66.1576   -7.4820 C   0  0  0  0  0  0  0  0  0  0  0  0
   26.1686   66.2868   -9.1556 H   0  0  0  0  0  0  0  0  0  0  0  0
 25 28  1  0
 25 24  1  0
 25 26  1  6
 25 27  2  0
  1  4  1  0
  1 24  1  0
  1  2  1  1
  1  3  2  0
  6 11  1  0
  6 12  1  0
 29 36  1  0
 29 37  1  0
  9  7  1  1
  7 13  1  0
 10  8  1  1
  8 14  1  0
 37 28  1  6
  4  5  1  0
 33 30  1  1
 30 38  1  0
 34 31  1  6
 31 39  1  0
 35 32  1  1
 32 40  1  0
 41 42  1  0
 41 43  1  0
 15 19  2  0
 16 22  2  0
 12 17  1  6
 17 19  1  0
 17 20  1  0
 18 19  1  0
 18 22  1  0
 18 23  1  0
  9 10  1  0
  9 11  1  0
 10 12  1  0
 11  5  1  6
 33 34  1  0
 33 35  1  0
 34 36  1  0
 35 37  1  0
 36 42  1  6
 20 21  2  0
 21 22  1  0
M  CHG  2   2  -1  26  -1
M  END
>  <COMPND>  (34) 
    8629 

>  <AUTHOR>  (34) 
    GENERATED BY OPEN BABEL 3.1.1

>  <MASTER>  (34) 
        0    0    0    0    0    0    0    0   58    0   58    0

>  <minimizedAffinity>  (34) 
-7.86822

>  <CNNscore>  (34) 
0.3594597280

>  <CNNaffinity>  (34) 
4.0212597847

>  <CNN_VS>  (34) 
1.4454809427

>  <CNNaffinity_variance>  (34) 
0.1825770140

$$$$
35
     RDKit          3D

 43 45  0  0  0  0  0  0  0  0999 V2000
   15.0552   70.1176   -4.2726 P   0  0  2  0  0  0  0  0  0  0  0  0
   15.8306   70.4124   -2.8836 O   0  0  0  0  0  0  0  0  0  0  0  0
   14.0660   71.1691   -4.6817 O   0  0  0  0  0  0  0  0  0  0  0  0
   14.4555   68.6280   -4.0741 O   0  0  0  0  0  0  0  0  0  0  0  0
   13.3216   68.4612   -3.2408 C   0  0  0  0  0  0  0  0  0  0  0  0
   13.9587   66.6409   -1.8075 O   0  0  0  0  0  0  0  0  0  0  0  0
   11.5178   65.2294   -2.8276 O   0  0  0  0  0  0  0  0  0  0  0  0
   10.7005   66.1458   -0.3927 O   0  0  0  0  0  0  0  0  0  0  0  0
   11.7097   66.6163   -2.5540 C   0  0  1  0  0  0  0  0  0  0  0  0
   11.7207   66.8609   -1.0595 C   0  0  2  0  0  0  0  0  0  0  0  0
   13.1367   66.9789   -2.9461 C   0  0  1  0  0  0  0  0  0  0  0  0
   13.1127   66.3902   -0.6734 C   0  0  2  0  0  0  0  0  0  0  0  0
   10.6132   64.9744   -2.5855 H   0  0  0  0  0  0  0  0  0  0  0  0
    9.8345   66.4819   -0.6717 H   0  0  0  0  0  0  0  0  0  0  0  0
   12.5606   65.7193    2.0142 O   0  0  0  0  0  0  0  0  0  0  0  0
   15.1675   69.1718    3.6033 O   0  0  0  0  0  0  0  0  0  0  0  0
   13.6342   67.0966    0.4626 N   0  0  0  0  0  0  0  0  0  0  0  0
   13.8592   67.4388    2.8032 N   0  0  0  0  0  0  0  0  0  0  0  0
   13.2949   66.6791    1.7706 C   0  0  0  0  0  0  0  0  0  0  0  0
   14.4725   68.1900    0.2737 C   0  0  0  0  0  0  0  0  0  0  0  0
   15.0014   68.9047    1.2690 C   0  0  0  0  0  0  0  0  0  0  0  0
   14.6968   68.5345    2.6662 C   0  0  0  0  0  0  0  0  0  0  0  0
   13.6365   67.1666    3.7231 H   0  0  0  0  0  0  0  0  0  0  0  0
   16.2633   69.8861   -5.3213 O   0  0  0  0  0  0  0  0  0  0  0  0
   17.4845   70.8485   -5.7631 P   0  0  2  0  0  0  0  0  0  0  0  0
   18.6607   69.8047   -6.1433 O   0  0  0  0  0  0  0  0  0  0  0  0
   17.8705   71.8667   -4.7296 O   0  0  0  0  0  0  0  0  0  0  0  0
   17.0212   71.4734   -7.1773 O   0  0  0  0  0  0  0  0  0  0  0  0
   14.8604   71.7318   -8.1157 O   0  0  0  0  0  0  0  0  0  0  0  0
   16.9612   70.7950  -11.5449 O   0  0  0  0  0  0  0  0  0  0  0  0
   16.0449   73.4856  -11.1339 O   0  0  0  0  0  0  0  0  0  0  0  0
   17.5990   69.4675   -9.0529 O   0  0  0  0  0  0  0  0  0  0  0  0
   16.7672   71.3817  -10.2551 C   0  0  1  0  0  0  0  0  0  0  0  0
   15.6099   72.3778  -10.3505 C   0  0  1  0  0  0  0  0  0  0  0  0
   16.4457   70.2787   -9.2484 C   0  0  2  0  0  0  0  0  0  0  0  0
   15.1680   72.8486   -8.9583 C   0  0  1  0  0  0  0  0  0  0  0  0
   15.9696   70.8540   -7.9132 C   0  0  1  0  0  0  0  0  0  0  0  0
   17.1662   71.4900  -12.1888 H   0  0  0  0  0  0  0  0  0  0  0  0
   16.3216   73.1747  -12.0103 H   0  0  0  0  0  0  0  0  0  0  0  0
   17.8904   69.1091   -9.9052 H   0  0  0  0  0  0  0  0  0  0  0  0
   14.2851   75.0078   -9.4751 O   0  0  0  0  0  0  0  0  0  0  0  0
   13.9150   73.7193   -9.0200 C   0  0  0  0  0  0  0  0  0  0  0  0
   13.4975   75.5729   -9.5197 H   0  0  0  0  0  0  0  0  0  0  0  0
 25 28  1  0
 25 24  1  0
 25 26  1  6
 25 27  2  0
  1  4  1  0
  1 24  1  0
  1  2  1  1
  1  3  2  0
  6 11  1  0
  6 12  1  0
 29 36  1  0
 29 37  1  0
  9  7  1  1
  7 13  1  0
 10  8  1  1
  8 14  1  0
 37 28  1  6
  4  5  1  0
 33 30  1  6
 30 38  1  0
 34 31  1  6
 31 39  1  0
 35 32  1  1
 32 40  1  0
 41 42  1  0
 41 43  1  0
 15 19  2  0
 16 22  2  0
 12 17  1  1
 17 19  1  0
 17 20  1  0
 18 19  1  0
 18 22  1  0
 18 23  1  0
  9 10  1  0
  9 11  1  0
 10 12  1  0
 11  5  1  1
 33 34  1  0
 33 35  1  0
 34 36  1  0
 35 37  1  0
 36 42  1  6
 20 21  2  0
 21 22  1  0
M  CHG  2   2  -1  26  -1
M  END
>  <COMPND>  (35) 
    8629 

>  <AUTHOR>  (35) 
    GENERATED BY OPEN BABEL 3.1.1

>  <MASTER>  (35) 
        0    0    0    0    0    0    0    0   58    0   58    0

>  <minimizedAffinity>  (35) 
-6.38897

>  <CNNscore>  (35) 
0.3573060632

>  <CNNaffinity>  (35) 
3.6511549950

>  <CNN_VS>  (35) 
1.3045798540

>  <CNNaffinity_variance>  (35) 
0.1112861782

$$$$
36
     RDKit          3D

 43 45  0  0  0  0  0  0  0  0999 V2000
   23.7921   71.3872   -3.2495 P   0  0  2  0  0  0  0  0  0  0  0  0
   23.9368   71.6740   -1.6638 O   0  0  0  0  0  0  0  0  0  0  0  0
   23.5136   69.9581   -3.6123 O   0  0  0  0  0  0  0  0  0  0  0  0
   25.1375   72.0238   -3.8837 O   0  0  0  0  0  0  0  0  0  0  0  0
   26.1773   71.1476   -4.2824 C   0  0  0  0  0  0  0  0  0  0  0  0
   27.4221   69.4031   -3.1957 O   0  0  0  0  0  0  0  0  0  0  0  0
   28.7040   71.5804   -1.5811 O   0  0  0  0  0  0  0  0  0  0  0  0
   30.6090   71.0281   -3.4526 O   0  0  0  0  0  0  0  0  0  0  0  0
   28.2980   71.5911   -2.9487 C   0  0  1  0  0  0  0  0  0  0  0  0
   29.2597   70.7771   -3.7890 C   0  0  2  0  0  0  0  0  0  0  0  0
   27.0122   70.7818   -3.0629 C   0  0  1  0  0  0  0  0  0  0  0  0
   28.8321   69.3549   -3.4686 C   0  0  2  0  0  0  0  0  0  0  0  0
   29.5232   72.0915   -1.4832 H   0  0  0  0  0  0  0  0  0  0  0  0
   30.8327   71.9453   -3.6753 H   0  0  0  0  0  0  0  0  0  0  0  0
   31.2531   67.9666   -3.9039 O   0  0  0  0  0  0  0  0  0  0  0  0
   29.6126   65.9239   -7.6957 O   0  0  0  0  0  0  0  0  0  0  0  0
   29.0650   68.4535   -4.5615 N   0  0  0  0  0  0  0  0  0  0  0  0
   30.4342   66.9505   -5.7914 N   0  0  0  0  0  0  0  0  0  0  0  0
   30.3168   67.8077   -4.6899 C   0  0  0  0  0  0  0  0  0  0  0  0
   28.0585   68.2173   -5.4916 C   0  0  0  0  0  0  0  0  0  0  0  0
   28.1869   67.3979   -6.5372 C   0  0  0  0  0  0  0  0  0  0  0  0
   29.4634   66.6839   -6.7439 C   0  0  0  0  0  0  0  0  0  0  0  0
   31.2977   66.4899   -5.9014 H   0  0  0  0  0  0  0  0  0  0  0  0
   22.6460   72.4324   -3.7047 O   0  0  0  0  0  0  0  0  0  0  0  0
   22.3948   73.1854   -5.1128 P   0  0  2  0  0  0  0  0  0  0  0  0
   20.7973   73.4412   -5.1170 O   0  0  0  0  0  0  0  0  0  0  0  0
   22.9054   72.4376   -6.3103 O   0  0  0  0  0  0  0  0  0  0  0  0
   23.0417   74.6507   -4.9135 O   0  0  0  0  0  0  0  0  0  0  0  0
   24.3541   75.6825   -6.5957 O   0  0  0  0  0  0  0  0  0  0  0  0
   25.8378   77.6660   -3.2919 O   0  0  0  0  0  0  0  0  0  0  0  0
   24.1286   79.0584   -5.1325 O   0  0  0  0  0  0  0  0  0  0  0  0
   25.1855   74.8513   -3.1138 O   0  0  0  0  0  0  0  0  0  0  0  0
   24.8349   77.0268   -4.0862 C   0  0  1  0  0  0  0  0  0  0  0  0
   24.7124   77.7881   -5.4077 C   0  0  1  0  0  0  0  0  0  0  0  0
   25.2456   75.5771   -4.3370 C   0  0  2  0  0  0  0  0  0  0  0  0
   23.8541   77.0128   -6.4162 C   0  0  1  0  0  0  0  0  0  0  0  0
   24.3585   74.9130   -5.3916 C   0  0  1  0  0  0  0  0  0  0  0  0
   25.5828   78.5868   -3.1286 H   0  0  0  0  0  0  0  0  0  0  0  0
   24.6800   79.5376   -4.4940 H   0  0  0  0  0  0  0  0  0  0  0  0
   25.7514   75.2815   -2.4546 H   0  0  0  0  0  0  0  0  0  0  0  0
   24.9801   78.5213   -7.8878 O   0  0  0  0  0  0  0  0  0  0  0  0
   23.8482   77.6764   -7.7916 C   0  0  0  0  0  0  0  0  0  0  0  0
   24.9897   78.9502   -8.7582 H   0  0  0  0  0  0  0  0  0  0  0  0
 25 28  1  0
 25 24  1  0
 25 26  1  6
 25 27  2  0
  1  4  1  0
  1 24  1  0
  1  2  1  1
  1  3  2  0
  6 11  1  0
  6 12  1  0
 29 36  1  0
 29 37  1  0
  9  7  1  1
  7 13  1  0
 10  8  1  1
  8 14  1  0
 37 28  1  1
  4  5  1  0
 33 30  1  1
 30 38  1  0
 34 31  1  1
 31 39  1  0
 35 32  1  1
 32 40  1  0
 41 42  1  0
 41 43  1  0
 15 19  2  0
 16 22  2  0
 12 17  1  6
 17 19  1  0
 17 20  1  0
 18 19  1  0
 18 22  1  0
 18 23  1  0
  9 10  1  0
  9 11  1  0
 10 12  1  0
 11  5  1  6
 33 34  1  0
 33 35  1  0
 34 36  1  0
 35 37  1  0
 36 42  1  6
 20 21  2  0
 21 22  1  0
M  CHG  2   2  -1  26  -1
M  END
>  <COMPND>  (36) 
    8629 

>  <AUTHOR>  (36) 
    GENERATED BY OPEN BABEL 3.1.1

>  <MASTER>  (36) 
        0    0    0    0    0    0    0    0   58    0   58    0

>  <minimizedAffinity>  (36) 
-5.81647

>  <CNNscore>  (36) 
0.3287841976

>  <CNNaffinity>  (36) 
4.0953941345

>  <CNN_VS>  (36) 
1.3465008736

>  <CNNaffinity_variance>  (36) 
0.1018049866

$$$$
37
     RDKit          3D

 43 45  0  0  0  0  0  0  0  0999 V2000
   22.4667   72.4762   -4.6383 P   0  0  2  0  0  0  0  0  0  0  0  0
   22.6038   73.9460   -5.3005 O   0  0  0  0  0  0  0  0  0  0  0  0
   21.5897   71.5205   -5.3926 O   0  0  0  0  0  0  0  0  0  0  0  0
   22.0263   72.7779   -3.1109 O   0  0  0  0  0  0  0  0  0  0  0  0
   22.4686   71.8969   -2.0931 C   0  0  0  0  0  0  0  0  0  0  0  0
   22.1035   71.2544    0.1933 O   0  0  0  0  0  0  0  0  0  0  0  0
   20.1550   73.5296    0.3255 O   0  0  0  0  0  0  0  0  0  0  0  0
   22.3650   74.5683    1.5394 O   0  0  0  0  0  0  0  0  0  0  0  0
   21.3910   73.4402   -0.3814 C   0  0  1  0  0  0  0  0  0  0  0  0
   22.5558   73.5483    0.5803 C   0  0  2  0  0  0  0  0  0  0  0  0
   21.5349   72.0134   -0.8962 C   0  0  1  0  0  0  0  0  0  0  0  0
   22.5831   72.1612    1.1995 C   0  0  2  0  0  0  0  0  0  0  0  0
   20.0407   74.4322    0.6636 H   0  0  0  0  0  0  0  0  0  0  0  0
   22.3550   75.4311    1.0965 H   0  0  0  0  0  0  0  0  0  0  0  0
   23.1560   70.4933    3.4058 O   0  0  0  0  0  0  0  0  0  0  0  0
   27.6924   70.7023    2.6192 O   0  0  0  0  0  0  0  0  0  0  0  0
   23.9051   71.7634    1.5939 N   0  0  0  0  0  0  0  0  0  0  0  0
   25.4143   70.5986    3.0122 N   0  0  0  0  0  0  0  0  0  0  0  0
   24.0841   70.9240    2.7181 C   0  0  0  0  0  0  0  0  0  0  0  0
   25.0067   72.2044    0.8688 C   0  0  0  0  0  0  0  0  0  0  0  0
   26.2690   71.8861    1.1632 C   0  0  0  0  0  0  0  0  0  0  0  0
   26.5429   71.0130    2.3228 C   0  0  0  0  0  0  0  0  0  0  0  0
   25.5634   70.0152    3.7915 H   0  0  0  0  0  0  0  0  0  0  0  0
   24.0043   72.0013   -4.4861 O   0  0  0  0  0  0  0  0  0  0  0  0
   25.3901   72.7856   -4.7646 P   0  0  2  0  0  0  0  0  0  0  0  0
   25.5972   73.6618   -3.4204 O   0  0  0  0  0  0  0  0  0  0  0  0
   25.3990   73.5873   -6.0339 O   0  0  0  0  0  0  0  0  0  0  0  0
   26.5283   71.6440   -4.6865 O   0  0  0  0  0  0  0  0  0  0  0  0
   26.8859   69.7494   -3.3084 O   0  0  0  0  0  0  0  0  0  0  0  0
   30.7343   71.2443   -3.3863 O   0  0  0  0  0  0  0  0  0  0  0  0
   30.1120   68.8532   -4.8504 O   0  0  0  0  0  0  0  0  0  0  0  0
   28.4827   73.0589   -3.2535 O   0  0  0  0  0  0  0  0  0  0  0  0
   29.4395   70.9507   -3.9181 C   0  0  1  0  0  0  0  0  0  0  0  0
   29.2400   69.4342   -3.8848 C   0  0  1  0  0  0  0  0  0  0  0  0
   28.3805   71.6511   -3.0688 C   0  0  2  0  0  0  0  0  0  0  0  0
   27.7827   69.0603   -4.1874 C   0  0  1  0  0  0  0  0  0  0  0  0
   26.9700   71.1718   -3.4164 C   0  0  1  0  0  0  0  0  0  0  0  0
   31.4113   70.8030   -3.9214 H   0  0  0  0  0  0  0  0  0  0  0  0
   31.0289   69.0973   -4.6482 H   0  0  0  0  0  0  0  0  0  0  0  0
   29.3801   73.3499   -3.0299 H   0  0  0  0  0  0  0  0  0  0  0  0
   26.3616   67.4032   -3.2162 O   0  0  0  0  0  0  0  0  0  0  0  0
   27.5259   67.5661   -4.0050 C   0  0  0  0  0  0  0  0  0  0  0  0
   26.1856   66.4570   -3.0920 H   0  0  0  0  0  0  0  0  0  0  0  0
 25 28  1  0
 25 24  1  0
 25 26  1  1
 25 27  2  0
  1  4  1  0
  1 24  1  0
  1  2  1  6
  1  3  2  0
  6 11  1  0
  6 12  1  0
 29 36  1  0
 29 37  1  0
  9  7  1  1
  7 13  1  0
 10  8  1  1
  8 14  1  0
 37 28  1  6
  4  5  1  0
 33 30  1  1
 30 38  1  0
 34 31  1  6
 31 39  1  0
 35 32  1  6
 32 40  1  0
 41 42  1  0
 41 43  1  0
 15 19  2  0
 16 22  2  0
 12 17  1  6
 17 19  1  0
 17 20  1  0
 18 19  1  0
 18 22  1  0
 18 23  1  0
  9 10  1  0
  9 11  1  0
 10 12  1  0
 11  5  1  6
 33 34  1  0
 33 35  1  0
 34 36  1  0
 35 37  1  0
 36 42  1  1
 20 21  2  0
 21 22  1  0
M  CHG  2   2  -1  26  -1
M  END
>  <COMPND>  (37) 
    8629 

>  <AUTHOR>  (37) 
    GENERATED BY OPEN BABEL 3.1.1

>  <MASTER>  (37) 
        0    0    0    0    0    0    0    0   58    0   58    0

>  <minimizedAffinity>  (37) 
-7.08880

>  <CNNscore>  (37) 
0.3238534927

>  <CNNaffinity>  (37) 
3.7333920002

>  <CNN_VS>  (37) 
1.2090719938

>  <CNNaffinity_variance>  (37) 
0.4678841531

$$$$
38
     RDKit          3D

 43 45  0  0  0  0  0  0  0  0999 V2000
   26.3523   71.4609    2.7451 P   0  0  2  0  0  0  0  0  0  0  0  0
   26.4220   72.9832    3.2884 O   0  0  0  0  0  0  0  0  0  0  0  0
   26.3260   70.4074    3.8132 O   0  0  0  0  0  0  0  0  0  0  0  0
   27.5798   71.3666    1.6953 O   0  0  0  0  0  0  0  0  0  0  0  0
   28.9029   71.3463    2.2021 C   0  0  0  0  0  0  0  0  0  0  0  0
   29.3609   70.5758   -0.0273 O   0  0  0  0  0  0  0  0  0  0  0  0
   31.9408   69.5132    1.0709 O   0  0  0  0  0  0  0  0  0  0  0  0
   32.7213   71.8230   -0.1507 O   0  0  0  0  0  0  0  0  0  0  0  0
   31.2360   70.7047    1.4160 C   0  0  1  0  0  0  0  0  0  0  0  0
   31.3931   71.7432    0.3250 C   0  0  2  0  0  0  0  0  0  0  0  0
   29.7441   70.4018    1.3545 C   0  0  1  0  0  0  0  0  0  0  0  0
   30.4232   71.2403   -0.7307 C   0  0  2  0  0  0  0  0  0  0  0  0
   32.8960   69.6819    1.1036 H   0  0  0  0  0  0  0  0  0  0  0  0
   33.2995   72.1477    0.5572 H   0  0  0  0  0  0  0  0  0  0  0  0
   29.1660   70.8889   -3.2355 O   0  0  0  0  0  0  0  0  0  0  0  0
   28.3288   75.4017   -3.6539 O   0  0  0  0  0  0  0  0  0  0  0  0
   29.8673   72.3061   -1.5159 N   0  0  0  0  0  0  0  0  0  0  0  0
   28.7500   73.1362   -3.4417 N   0  0  0  0  0  0  0  0  0  0  0  0
   29.2586   72.0228   -2.7607 C   0  0  0  0  0  0  0  0  0  0  0  0
   29.9286   73.6149   -1.0499 C   0  0  0  0  0  0  0  0  0  0  0  0
   29.4400   74.6656   -1.7120 C   0  0  0  0  0  0  0  0  0  0  0  0
   28.7878   74.4561   -3.0207 C   0  0  0  0  0  0  0  0  0  0  0  0
   28.3217   72.9631   -4.3114 H   0  0  0  0  0  0  0  0  0  0  0  0
   25.0527   71.4771    1.7840 O   0  0  0  0  0  0  0  0  0  0  0  0
   23.4755   71.5421    2.1324 P   0  0  2  0  0  0  0  0  0  0  0  0
   23.1823   73.1302    2.2301 O   0  0  0  0  0  0  0  0  0  0  0  0
   23.0827   70.7635    3.3544 O   0  0  0  0  0  0  0  0  0  0  0  0
   22.7378   71.0741    0.7752 O   0  0  0  0  0  0  0  0  0  0  0  0
   23.5908   72.3304   -1.0443 O   0  0  0  0  0  0  0  0  0  0  0  0
   20.5888   70.2831   -3.0058 O   0  0  0  0  0  0  0  0  0  0  0  0
   23.3311   69.5687   -3.4721 O   0  0  0  0  0  0  0  0  0  0  0  0
   20.1562   71.2480   -0.3110 O   0  0  0  0  0  0  0  0  0  0  0  0
   21.6320   70.4594   -2.0435 C   0  0  1  0  0  0  0  0  0  0  0  0
   22.9316   70.7566   -2.7942 C   0  0  1  0  0  0  0  0  0  0  0  0
   21.2677   71.6196   -1.1191 C   0  0  2  0  0  0  0  0  0  0  0  0
   24.0339   71.2191   -1.8318 C   0  0  1  0  0  0  0  0  0  0  0  0
   22.4486   72.0328   -0.2389 C   0  0  1  0  0  0  0  0  0  0  0  0
   20.8137   69.5475   -3.5955 H   0  0  0  0  0  0  0  0  0  0  0  0
   22.6261   69.2871   -4.0761 H   0  0  0  0  0  0  0  0  0  0  0  0
   19.4152   70.9889   -0.8800 H   0  0  0  0  0  0  0  0  0  0  0  0
   26.1327   70.5488   -2.7563 O   0  0  0  0  0  0  0  0  0  0  0  0
   25.2892   71.6712   -2.5748 C   0  0  0  0  0  0  0  0  0  0  0  0
   26.9356   70.8215   -3.2283 H   0  0  0  0  0  0  0  0  0  0  0  0
 25 28  1  0
 25 24  1  0
 25 26  1  1
 25 27  2  0
  1  4  1  0
  1 24  1  0
  1  2  1  1
  1  3  2  0
  6 11  1  0
  6 12  1  0
 29 36  1  0
 29 37  1  0
  9  7  1  6
  7 13  1  0
 10  8  1  6
  8 14  1  0
 37 28  1  1
  4  5  1  0
 33 30  1  6
 30 38  1  0
 34 31  1  1
 31 39  1  0
 35 32  1  1
 32 40  1  0
 41 42  1  0
 41 43  1  0
 15 19  2  0
 16 22  2  0
 12 17  1  1
 17 19  1  0
 17 20  1  0
 18 19  1  0
 18 22  1  0
 18 23  1  0
  9 10  1  0
  9 11  1  0
 10 12  1  0
 11  5  1  1
 33 34  1  0
 33 35  1  0
 34 36  1  0
 35 37  1  0
 36 42  1  6
 20 21  2  0
 21 22  1  0
M  CHG  2   2  -1  26  -1
M  END
>  <COMPND>  (38) 
    8629 

>  <AUTHOR>  (38) 
    GENERATED BY OPEN BABEL 3.1.1

>  <MASTER>  (38) 
        0    0    0    0    0    0    0    0   58    0   58    0

>  <minimizedAffinity>  (38) 
-6.04584

>  <CNNscore>  (38) 
0.3166052401

>  <CNNaffinity>  (38) 
3.8919100761

>  <CNN_VS>  (38) 
1.2321990728

>  <CNNaffinity_variance>  (38) 
0.1472686529

$$$$
39
     RDKit          3D

 43 45  0  0  0  0  0  0  0  0999 V2000
   33.1569   71.8081   -0.4679 P   0  0  2  0  0  0  0  0  0  0  0  0
   34.6213   72.0233   -1.1210 O   0  0  0  0  0  0  0  0  0  0  0  0
   32.3851   73.0694   -0.2130 O   0  0  0  0  0  0  0  0  0  0  0  0
   33.4422   70.8846    0.8297 O   0  0  0  0  0  0  0  0  0  0  0  0
   32.9861   71.3348    2.0934 C   0  0  0  0  0  0  0  0  0  0  0  0
   31.7682   70.2379    3.8505 O   0  0  0  0  0  0  0  0  0  0  0  0
   29.3431   70.5625    2.1172 O   0  0  0  0  0  0  0  0  0  0  0  0
   29.0580   72.5858    3.9233 O   0  0  0  0  0  0  0  0  0  0  0  0
   30.4519   71.4431    2.2915 C   0  0  1  0  0  0  0  0  0  0  0  0
   30.3665   72.1367    3.6351 C   0  0  2  0  0  0  0  0  0  0  0  0
   31.7059   70.5927    2.4517 C   0  0  1  0  0  0  0  0  0  0  0  0
   30.8320   71.0449    4.5834 C   0  0  2  0  0  0  0  0  0  0  0  0
   28.5306   71.0828    2.0124 H   0  0  0  0  0  0  0  0  0  0  0  0
   28.8079   73.2794    3.2931 H   0  0  0  0  0  0  0  0  0  0  0  0
   29.4802   72.1148    6.8208 O   0  0  0  0  0  0  0  0  0  0  0  0
   33.4354   73.0433    8.9968 O   0  0  0  0  0  0  0  0  0  0  0  0
   31.4837   71.5729    5.7487 N   0  0  0  0  0  0  0  0  0  0  0  0
   31.4507   72.5761    7.9025 N   0  0  0  0  0  0  0  0  0  0  0  0
   30.7126   72.0875    6.8169 C   0  0  0  0  0  0  0  0  0  0  0  0
   32.8723   71.5766    5.8243 C   0  0  0  0  0  0  0  0  0  0  0  0
   33.5610   72.0473    6.8661 C   0  0  0  0  0  0  0  0  0  0  0  0
   32.8310   72.6028    8.0240 C   0  0  0  0  0  0  0  0  0  0  0  0
   30.9347   72.9400    8.6583 H   0  0  0  0  0  0  0  0  0  0  0  0
   32.4478   70.7816   -1.4957 O   0  0  0  0  0  0  0  0  0  0  0  0
   30.9650   70.1381   -1.4995 P   0  0  2  0  0  0  0  0  0  0  0  0
   29.9979   71.4347   -1.5306 O   0  0  0  0  0  0  0  0  0  0  0  0
   30.7004   69.1954   -0.3614 O   0  0  0  0  0  0  0  0  0  0  0  0
   30.8096   69.4785   -2.9643 O   0  0  0  0  0  0  0  0  0  0  0  0
   28.4782   69.1535   -3.2387 O   0  0  0  0  0  0  0  0  0  0  0  0
   29.7790   67.7091   -6.8818 O   0  0  0  0  0  0  0  0  0  0  0  0
   28.4295   70.2413   -6.7605 O   0  0  0  0  0  0  0  0  0  0  0  0
   31.3128   67.1748   -4.4857 O   0  0  0  0  0  0  0  0  0  0  0  0
   29.7990   68.5678   -5.7383 C   0  0  1  0  0  0  0  0  0  0  0  0
   28.4660   69.3163   -5.6773 C   0  0  1  0  0  0  0  0  0  0  0  0
   29.9986   67.7218   -4.4822 C   0  0  2  0  0  0  0  0  0  0  0  0
   28.3047   70.0523   -4.3404 C   0  0  1  0  0  0  0  0  0  0  0  0
   29.7673   68.5378   -3.2091 C   0  0  1  0  0  0  0  0  0  0  0  0
   29.6530   68.2401   -7.6829 H   0  0  0  0  0  0  0  0  0  0  0  0
   28.5329   69.7639   -7.5987 H   0  0  0  0  0  0  0  0  0  0  0  0
   31.4466   66.6603   -5.2965 H   0  0  0  0  0  0  0  0  0  0  0  0
   26.5952   70.7344   -2.8168 O   0  0  0  0  0  0  0  0  0  0  0  0
   26.9179   70.6749   -4.1940 C   0  0  0  0  0  0  0  0  0  0  0  0
   25.7152   71.1289   -2.7084 H   0  0  0  0  0  0  0  0  0  0  0  0
 25 28  1  0
 25 24  1  0
 25 26  1  6
 25 27  2  0
  1  4  1  0
  1 24  1  0
  1  2  1  6
  1  3  2  0
  6 11  1  0
  6 12  1  0
 29 36  1  0
 29 37  1  0
  9  7  1  1
  7 13  1  0
 10  8  1  1
  8 14  1  0
 37 28  1  6
  4  5  1  0
 33 30  1  6
 30 38  1  0
 34 31  1  6
 31 39  1  0
 35 32  1  1
 32 40  1  0
 41 42  1  0
 41 43  1  0
 15 19  2  0
 16 22  2  0
 12 17  1  1
 17 19  1  0
 17 20  1  0
 18 19  1  0
 18 22  1  0
 18 23  1  0
  9 10  1  0
  9 11  1  0
 10 12  1  0
 11  5  1  1
 33 34  1  0
 33 35  1  0
 34 36  1  0
 35 37  1  0
 36 42  1  6
 20 21  2  0
 21 22  1  0
M  CHG  2   2  -1  26  -1
M  END
>  <COMPND>  (39) 
    8629 

>  <AUTHOR>  (39) 
    GENERATED BY OPEN BABEL 3.1.1

>  <MASTER>  (39) 
        0    0    0    0    0    0    0    0   58    0   58    0

>  <minimizedAffinity>  (39) 
-7.00864

>  <CNNscore>  (39) 
0.3157773614

>  <CNNaffinity>  (39) 
3.6667220592

>  <CNN_VS>  (39) 
1.1578677893

>  <CNNaffinity_variance>  (39) 
0.1565087438

$$$$
40
     RDKit          3D

 43 45  0  0  0  0  0  0  0  0999 V2000
   25.3176   73.1000   -4.7662 P   0  0  2  0  0  0  0  0  0  0  0  0
   26.1269   73.6996   -3.5001 O   0  0  0  0  0  0  0  0  0  0  0  0
   25.3762   73.9372   -6.0100 O   0  0  0  0  0  0  0  0  0  0  0  0
   23.8366   72.8144   -4.1805 O   0  0  0  0  0  0  0  0  0  0  0  0
   23.3518   71.4829   -4.1879 C   0  0  0  0  0  0  0  0  0  0  0  0
   21.2810   70.5080   -4.9194 O   0  0  0  0  0  0  0  0  0  0  0  0
   21.3967   72.4401   -7.2095 O   0  0  0  0  0  0  0  0  0  0  0  0
   19.6136   73.6258   -5.5209 O   0  0  0  0  0  0  0  0  0  0  0  0
   21.8029   72.6222   -5.8541 C   0  0  1  0  0  0  0  0  0  0  0  0
   20.5915   72.7751   -4.9581 C   0  0  2  0  0  0  0  0  0  0  0  0
   22.3985   71.3089   -5.3623 C   0  0  1  0  0  0  0  0  0  0  0  0
   20.1124   71.3392   -4.8282 C   0  0  2  0  0  0  0  0  0  0  0  0
   21.0133   73.2659   -7.5457 H   0  0  0  0  0  0  0  0  0  0  0  0
   19.9660   74.5274   -5.5826 H   0  0  0  0  0  0  0  0  0  0  0  0
   17.3307   71.5779   -4.4008 O   0  0  0  0  0  0  0  0  0  0  0  0
   17.7217   70.3627    0.0277 O   0  0  0  0  0  0  0  0  0  0  0  0
   19.4603   71.0908   -3.5735 N   0  0  0  0  0  0  0  0  0  0  0  0
   17.5276   70.9725   -2.1961 N   0  0  0  0  0  0  0  0  0  0  0  0
   18.0581   71.2403   -3.4645 C   0  0  0  0  0  0  0  0  0  0  0  0
   20.2095   70.7033   -2.4679 C   0  0  0  0  0  0  0  0  0  0  0  0
   19.6886   70.4530   -1.2649 C   0  0  0  0  0  0  0  0  0  0  0  0
   18.2309   70.5858   -1.0663 C   0  0  0  0  0  0  0  0  0  0  0  0
   16.5528   71.0704   -2.0964 H   0  0  0  0  0  0  0  0  0  0  0  0
   25.9382   71.6158   -4.9244 O   0  0  0  0  0  0  0  0  0  0  0  0
   27.1481   70.8822   -4.1428 P   0  0  2  0  0  0  0  0  0  0  0  0
   26.4147   70.2194   -2.8621 O   0  0  0  0  0  0  0  0  0  0  0  0
   28.2966   71.7862   -3.7996 O   0  0  0  0  0  0  0  0  0  0  0  0
   27.5406   69.6292   -5.0814 O   0  0  0  0  0  0  0  0  0  0  0  0
   27.0606   67.3402   -5.4639 O   0  0  0  0  0  0  0  0  0  0  0  0
   31.0882   67.0354   -4.6056 O   0  0  0  0  0  0  0  0  0  0  0  0
   30.1830   66.6763   -7.3074 O   0  0  0  0  0  0  0  0  0  0  0  0
   29.4379   68.9105   -3.1427 O   0  0  0  0  0  0  0  0  0  0  0  0
   29.9127   67.6505   -5.1398 C   0  0  1  0  0  0  0  0  0  0  0  0
   29.3093   66.7071   -6.1823 C   0  0  1  0  0  0  0  0  0  0  0  0
   28.9216   67.9024   -4.0051 C   0  0  2  0  0  0  0  0  0  0  0  0
   27.9093   67.1718   -6.6055 C   0  0  1  0  0  0  0  0  0  0  0  0
   27.5469   68.3124   -4.5364 C   0  0  1  0  0  0  0  0  0  0  0  0
   31.7218   66.8731   -5.3209 H   0  0  0  0  0  0  0  0  0  0  0  0
   31.0637   66.3817   -7.0265 H   0  0  0  0  0  0  0  0  0  0  0  0
   30.3081   68.6390   -2.8128 H   0  0  0  0  0  0  0  0  0  0  0  0
   26.0807   65.6557   -6.8634 O   0  0  0  0  0  0  0  0  0  0  0  0
   27.2253   66.1624   -7.5249 C   0  0  0  0  0  0  0  0  0  0  0  0
   25.6350   65.0121   -7.4369 H   0  0  0  0  0  0  0  0  0  0  0  0
 25 28  1  0
 25 24  1  0
 25 26  1  1
 25 27  2  0
  1  4  1  0
  1 24  1  0
  1  2  1  1
  1  3  2  0
  6 11  1  0
  6 12  1  0
 29 36  1  0
 29 37  1  0
  9  7  1  6
  7 13  1  0
 10  8  1  6
  8 14  1  0
 37 28  1  6
  4  5  1  0
 33 30  1  1
 30 38  1  0
 34 31  1  6
 31 39  1  0
 35 32  1  1
 32 40  1  0
 41 42  1  0
 41 43  1  0
 15 19  2  0
 16 22  2  0
 12 17  1  1
 17 19  1  0
 17 20  1  0
 18 19  1  0
 18 22  1  0
 18 23  1  0
  9 10  1  0
  9 11  1  0
 10 12  1  0
 11  5  1  1
 33 34  1  0
 33 35  1  0
 34 36  1  0
 35 37  1  0
 36 42  1  6
 20 21  2  0
 21 22  1  0
M  CHG  2   2  -1  26  -1
M  END
>  <COMPND>  (40) 
    8629 

>  <AUTHOR>  (40) 
    GENERATED BY OPEN BABEL 3.1.1

>  <MASTER>  (40) 
        0    0    0    0    0    0    0    0   58    0   58    0

>  <minimizedAffinity>  (40) 
-7.66883

>  <CNNscore>  (40) 
0.2912451625

>  <CNNaffinity>  (40) 
4.1523566246

>  <CNN_VS>  (40) 
1.2093538046

>  <CNNaffinity_variance>  (40) 
0.0381191596

$$$$
41
     RDKit          3D

 43 45  0  0  0  0  0  0  0  0999 V2000
   24.3207   72.7348   -4.7425 P   0  0  2  0  0  0  0  0  0  0  0  0
   23.0048   71.8547   -5.0760 O   0  0  0  0  0  0  0  0  0  0  0  0
   24.9211   73.4478   -5.9184 O   0  0  0  0  0  0  0  0  0  0  0  0
   25.2977   71.6976   -3.9759 O   0  0  0  0  0  0  0  0  0  0  0  0
   26.6786   71.7088   -4.2936 C   0  0  0  0  0  0  0  0  0  0  0  0
   27.8344   69.9612   -3.1174 O   0  0  0  0  0  0  0  0  0  0  0  0
   29.1736   72.1486   -1.5641 O   0  0  0  0  0  0  0  0  0  0  0  0
   31.0872   71.4496   -3.3769 O   0  0  0  0  0  0  0  0  0  0  0  0
   28.7920   72.1214   -2.9385 C   0  0  1  0  0  0  0  0  0  0  0  0
   29.7350   71.2382   -3.7287 C   0  0  2  0  0  0  0  0  0  0  0  0
   27.4773   71.3589   -3.0455 C   0  0  1  0  0  0  0  0  0  0  0  0
   29.2459   69.8475   -3.3617 C   0  0  2  0  0  0  0  0  0  0  0  0
   30.0107   72.6308   -1.4706 H   0  0  0  0  0  0  0  0  0  0  0  0
   31.3508   72.3478   -3.6306 H   0  0  0  0  0  0  0  0  0  0  0  0
   31.0332   67.6664   -3.1994 O   0  0  0  0  0  0  0  0  0  0  0  0
   29.9932   66.2607   -7.4637 O   0  0  0  0  0  0  0  0  0  0  0  0
   29.4617   68.8955   -4.4146 N   0  0  0  0  0  0  0  0  0  0  0  0
   30.5138   66.9681   -5.3228 N   0  0  0  0  0  0  0  0  0  0  0  0
   30.3822   67.8373   -4.2322 C   0  0  0  0  0  0  0  0  0  0  0  0
   28.7643   69.0163   -5.6117 C   0  0  0  0  0  0  0  0  0  0  0  0
   28.9021   68.1797   -6.6424 C   0  0  0  0  0  0  0  0  0  0  0  0
   29.8440   67.0471   -6.5335 C   0  0  0  0  0  0  0  0  0  0  0  0
   31.1498   66.2235   -5.2187 H   0  0  0  0  0  0  0  0  0  0  0  0
   23.8165   73.7060   -3.5527 O   0  0  0  0  0  0  0  0  0  0  0  0
   24.6322   74.4493   -2.3715 P   0  0  2  0  0  0  0  0  0  0  0  0
   23.7188   75.7450   -2.0484 O   0  0  0  0  0  0  0  0  0  0  0  0
   26.0587   74.7672   -2.7145 O   0  0  0  0  0  0  0  0  0  0  0  0
   24.4510   73.4918   -1.0849 O   0  0  0  0  0  0  0  0  0  0  0  0
   23.7769   74.4117    0.9926 O   0  0  0  0  0  0  0  0  0  0  0  0
   25.5277   70.9273    2.3509 O   0  0  0  0  0  0  0  0  0  0  0  0
   22.6687   71.1933    2.4077 O   0  0  0  0  0  0  0  0  0  0  0  0
   26.7138   72.3732    0.1413 O   0  0  0  0  0  0  0  0  0  0  0  0
   24.7859   71.7439    1.4408 C   0  0  1  0  0  0  0  0  0  0  0  0
   23.5560   72.2833    2.1736 C   0  0  1  0  0  0  0  0  0  0  0  0
   25.6734   72.8917    0.9629 C   0  0  2  0  0  0  0  0  0  0  0  0
   22.8564   73.3750    1.3526 C   0  0  1  0  0  0  0  0  0  0  0  0
   24.8704   73.9463    0.1992 C   0  0  1  0  0  0  0  0  0  0  0  0
   24.9700   70.1963    2.6577 H   0  0  0  0  0  0  0  0  0  0  0  0
   23.1227   70.5108    2.9265 H   0  0  0  0  0  0  0  0  0  0  0  0
   27.2149   71.7070    0.6362 H   0  0  0  0  0  0  0  0  0  0  0  0
   21.8969   73.7564    3.5073 O   0  0  0  0  0  0  0  0  0  0  0  0
   21.7213   74.0368    2.1308 C   0  0  0  0  0  0  0  0  0  0  0  0
   21.1817   74.1717    4.0150 H   0  0  0  0  0  0  0  0  0  0  0  0
 25 28  1  0
 25 24  1  0
 25 26  1  1
 25 27  2  0
  1  4  1  0
  1 24  1  0
  1  2  1  6
  1  3  2  0
  6 11  1  0
  6 12  1  0
 29 36  1  0
 29 37  1  0
  9  7  1  1
  7 13  1  0
 10  8  1  1
  8 14  1  0
 37 28  1  6
  4  5  1  0
 33 30  1  1
 30 38  1  0
 34 31  1  6
 31 39  1  0
 35 32  1  6
 32 40  1  0
 41 42  1  0
 41 43  1  0
 15 19  2  0
 16 22  2  0
 12 17  1  6
 17 19  1  0
 17 20  1  0
 18 19  1  0
 18 22  1  0
 18 23  1  0
  9 10  1  0
  9 11  1  0
 10 12  1  0
 11  5  1  6
 33 34  1  0
 33 35  1  0
 34 36  1  0
 35 37  1  0
 36 42  1  1
 20 21  2  0
 21 22  1  0
M  CHG  2   2  -1  26  -1
M  END
>  <COMPND>  (41) 
    8629 

>  <AUTHOR>  (41) 
    GENERATED BY OPEN BABEL 3.1.1

>  <MASTER>  (41) 
        0    0    0    0    0    0    0    0   58    0   58    0

>  <minimizedAffinity>  (41) 
-6.62423

>  <CNNscore>  (41) 
0.6286133528

>  <CNNaffinity>  (41) 
4.4225239754

>  <CNN_VS>  (41) 
2.7800576687

>  <CNNaffinity_variance>  (41) 
0.0216328800

$$$$
42
     RDKit          3D

 43 45  0  0  0  0  0  0  0  0999 V2000
   24.0935   73.2810   -4.8760 P   0  0  2  0  0  0  0  0  0  0  0  0
   25.3314   73.4637   -5.9015 O   0  0  0  0  0  0  0  0  0  0  0  0
   23.9207   74.3953   -3.8862 O   0  0  0  0  0  0  0  0  0  0  0  0
   24.3265   71.8098   -4.2442 O   0  0  0  0  0  0  0  0  0  0  0  0
   25.5269   71.1234   -4.5536 C   0  0  0  0  0  0  0  0  0  0  0  0
   27.0375   69.7559   -3.2801 O   0  0  0  0  0  0  0  0  0  0  0  0
   27.8913   72.2899   -1.9235 O   0  0  0  0  0  0  0  0  0  0  0  0
   29.8962   71.8754   -3.7249 O   0  0  0  0  0  0  0  0  0  0  0  0
   27.5140   72.0772   -3.2828 C   0  0  1  0  0  0  0  0  0  0  0  0
   28.6176   71.3560   -4.0282 C   0  0  2  0  0  0  0  0  0  0  0  0
   26.3912   71.0475   -3.3025 C   0  0  1  0  0  0  0  0  0  0  0  0
   28.4389   69.9255   -3.5488 C   0  0  2  0  0  0  0  0  0  0  0  0
   28.6071   72.9443   -1.8854 H   0  0  0  0  0  0  0  0  0  0  0  0
   29.9605   72.7870   -4.0499 H   0  0  0  0  0  0  0  0  0  0  0  0
   31.0684   68.9302   -3.8189 O   0  0  0  0  0  0  0  0  0  0  0  0
   29.8804   66.2367   -7.3651 O   0  0  0  0  0  0  0  0  0  0  0  0
   28.8447   68.9630   -4.5338 N   0  0  0  0  0  0  0  0  0  0  0  0
   30.4747   67.5897   -5.5843 N   0  0  0  0  0  0  0  0  0  0  0  0
   30.1900   68.5295   -4.5854 C   0  0  0  0  0  0  0  0  0  0  0  0
   27.9132   68.4590   -5.4351 C   0  0  0  0  0  0  0  0  0  0  0  0
   28.2011   67.5642   -6.3826 C   0  0  0  0  0  0  0  0  0  0  0  0
   29.5840   67.0595   -6.5043 C   0  0  0  0  0  0  0  0  0  0  0  0
   31.4057   67.2735   -5.6394 H   0  0  0  0  0  0  0  0  0  0  0  0
   22.8335   73.0569   -5.8635 O   0  0  0  0  0  0  0  0  0  0  0  0
   21.6655   71.9395   -5.8573 P   0  0  2  0  0  0  0  0  0  0  0  0
   21.0263   72.0790   -4.3777 O   0  0  0  0  0  0  0  0  0  0  0  0
   22.1360   70.5557   -6.2007 O   0  0  0  0  0  0  0  0  0  0  0  0
   20.5338   72.5260   -6.8473 O   0  0  0  0  0  0  0  0  0  0  0  0
   19.6167   70.9202   -8.3296 O   0  0  0  0  0  0  0  0  0  0  0  0
   18.1650   74.3569  -10.0995 O   0  0  0  0  0  0  0  0  0  0  0  0
   16.3699   72.6331   -8.6663 O   0  0  0  0  0  0  0  0  0  0  0  0
   20.8338   74.3265   -8.9788 O   0  0  0  0  0  0  0  0  0  0  0  0
   18.5640   73.5212   -9.0096 C   0  0  1  0  0  0  0  0  0  0  0  0
   17.6967   72.2611   -9.0290 C   0  0  1  0  0  0  0  0  0  0  0  0
   20.0396   73.1609   -9.1712 C   0  0  2  0  0  0  0  0  0  0  0  0
   18.2381   71.2009   -8.0605 C   0  0  1  0  0  0  0  0  0  0  0  0
   20.4633   72.0633   -8.1935 C   0  0  1  0  0  0  0  0  0  0  0  0
   17.2291   74.5898  -10.0027 H   0  0  0  0  0  0  0  0  0  0  0  0
   16.0400   73.3032   -9.2854 H   0  0  0  0  0  0  0  0  0  0  0  0
   20.5561   75.0136   -9.6037 H   0  0  0  0  0  0  0  0  0  0  0  0
   16.5927   69.9667   -9.2763 O   0  0  0  0  0  0  0  0  0  0  0  0
   17.4824   69.8792   -8.1786 C   0  0  0  0  0  0  0  0  0  0  0  0
   16.1050   69.1323   -9.3639 H   0  0  0  0  0  0  0  0  0  0  0  0
 25 28  1  0
 25 24  1  0
 25 26  1  1
 25 27  2  0
  1  4  1  0
  1 24  1  0
  1  2  1  6
  1  3  2  0
  6 11  1  0
  6 12  1  0
 29 36  1  0
 29 37  1  0
  9  7  1  1
  7 13  1  0
 10  8  1  1
  8 14  1  0
 37 28  1  1
  4  5  1  0
 33 30  1  6
 30 38  1  0
 34 31  1  1
 31 39  1  0
 35 32  1  1
 32 40  1  0
 41 42  1  0
 41 43  1  0
 15 19  2  0
 16 22  2  0
 12 17  1  6
 17 19  1  0
 17 20  1  0
 18 19  1  0
 18 22  1  0
 18 23  1  0
  9 10  1  0
  9 11  1  0
 10 12  1  0
 11  5  1  6
 33 34  1  0
 33 35  1  0
 34 36  1  0
 35 37  1  0
 36 42  1  6
 20 21  2  0
 21 22  1  0
M  CHG  2   2  -1  26  -1
M  END
>  <COMPND>  (42) 
    8629 

>  <AUTHOR>  (42) 
    GENERATED BY OPEN BABEL 3.1.1

>  <MASTER>  (42) 
        0    0    0    0    0    0    0    0   58    0   58    0

>  <minimizedAffinity>  (42) 
-7.47643

>  <CNNscore>  (42) 
0.5891577005

>  <CNNaffinity>  (42) 
4.4609155655

>  <CNN_VS>  (42) 
2.6281826496

>  <CNNaffinity_variance>  (42) 
0.0335206576

$$$$
43
     RDKit          3D

 43 45  0  0  0  0  0  0  0  0999 V2000
   27.6442   74.2137   -2.8031 P   0  0  2  0  0  0  0  0  0  0  0  0
   27.0321   74.1162   -4.2975 O   0  0  0  0  0  0  0  0  0  0  0  0
   27.8862   75.6090   -2.3071 O   0  0  0  0  0  0  0  0  0  0  0  0
   28.9431   73.2501   -2.8518 O   0  0  0  0  0  0  0  0  0  0  0  0
   28.8284   71.9928   -3.4951 C   0  0  0  0  0  0  0  0  0  0  0  0
   28.5012   69.7113   -2.8157 O   0  0  0  0  0  0  0  0  0  0  0  0
   31.1734   69.9244   -1.4723 O   0  0  0  0  0  0  0  0  0  0  0  0
   31.7690   68.5840   -3.7712 O   0  0  0  0  0  0  0  0  0  0  0  0
   30.7315   70.5036   -2.6989 C   0  0  1  0  0  0  0  0  0  0  0  0
   30.6497   69.4464   -3.7802 C   0  0  2  0  0  0  0  0  0  0  0  0
   29.2701   70.9004   -2.5308 C   0  0  1  0  0  0  0  0  0  0  0  0
   29.3576   68.7310   -3.4243 C   0  0  2  0  0  0  0  0  0  0  0  0
   32.1045   69.6633   -1.5552 H   0  0  0  0  0  0  0  0  0  0  0  0
   32.5659   69.0858   -4.0037 H   0  0  0  0  0  0  0  0  0  0  0  0
   26.9545   67.2493   -3.3360 O   0  0  0  0  0  0  0  0  0  0  0  0
   26.9167   66.6903   -7.9106 O   0  0  0  0  0  0  0  0  0  0  0  0
   28.6975   68.1866   -4.5772 N   0  0  0  0  0  0  0  0  0  0  0  0
   26.9376   66.9723   -5.6139 N   0  0  0  0  0  0  0  0  0  0  0  0
   27.4955   67.4570   -4.4240 C   0  0  0  0  0  0  0  0  0  0  0  0
   29.2418   68.3785   -5.8424 C   0  0  0  0  0  0  0  0  0  0  0  0
   28.6980   67.9086   -6.9671 C   0  0  0  0  0  0  0  0  0  0  0  0
   27.4413   67.1356   -6.8946 C   0  0  0  0  0  0  0  0  0  0  0  0
   26.1001   66.4607   -5.5316 H   0  0  0  0  0  0  0  0  0  0  0  0
   26.5912   73.3599   -1.9227 O   0  0  0  0  0  0  0  0  0  0  0  0
   24.9806   73.4461   -1.8164 P   0  0  2  0  0  0  0  0  0  0  0  0
   24.4779   72.4016   -2.9451 O   0  0  0  0  0  0  0  0  0  0  0  0
   24.4274   74.8337   -1.9665 O   0  0  0  0  0  0  0  0  0  0  0  0
   24.6249   72.7324   -0.4132 O   0  0  0  0  0  0  0  0  0  0  0  0
   24.1604   73.7678    1.6673 O   0  0  0  0  0  0  0  0  0  0  0  0
   26.0018   70.3344    3.0356 O   0  0  0  0  0  0  0  0  0  0  0  0
   23.1637   70.6426    3.3492 O   0  0  0  0  0  0  0  0  0  0  0  0
   26.9844   71.6474    0.6502 O   0  0  0  0  0  0  0  0  0  0  0  0
   25.1838   71.1131    2.1581 C   0  0  1  0  0  0  0  0  0  0  0  0
   24.0343   71.7067    2.9748 C   0  0  1  0  0  0  0  0  0  0  0  0
   26.0318   72.2222    1.5383 C   0  0  2  0  0  0  0  0  0  0  0  0
   23.2693   72.7640    2.1673 C   0  0  1  0  0  0  0  0  0  0  0  0
   25.1690   73.2468    0.7995 C   0  0  1  0  0  0  0  0  0  0  0  0
   25.4695   69.6281    3.4321 H   0  0  0  0  0  0  0  0  0  0  0  0
   23.6592   69.9817    3.8580 H   0  0  0  0  0  0  0  0  0  0  0  0
   27.5245   71.0008    1.1299 H   0  0  0  0  0  0  0  0  0  0  0  0
   22.4423   73.1584    4.3739 O   0  0  0  0  0  0  0  0  0  0  0  0
   22.2195   73.4808    3.0135 C   0  0  0  0  0  0  0  0  0  0  0  0
   21.7816   73.6080    4.9245 H   0  0  0  0  0  0  0  0  0  0  0  0
 25 28  1  0
 25 24  1  0
 25 26  1  6
 25 27  2  0
  1  4  1  0
  1 24  1  0
  1  2  1  6
  1  3  2  0
  6 11  1  0
  6 12  1  0
 29 36  1  0
 29 37  1  0
  9  7  1  1
  7 13  1  0
 10  8  1  1
  8 14  1  0
 37 28  1  6
  4  5  1  0
 33 30  1  1
 30 38  1  0
 34 31  1  6
 31 39  1  0
 35 32  1  6
 32 40  1  0
 41 42  1  0
 41 43  1  0
 15 19  2  0
 16 22  2  0
 12 17  1  6
 17 19  1  0
 17 20  1  0
 18 19  1  0
 18 22  1  0
 18 23  1  0
  9 10  1  0
  9 11  1  0
 10 12  1  0
 11  5  1  6
 33 34  1  0
 33 35  1  0
 34 36  1  0
 35 37  1  0
 36 42  1  1
 20 21  2  0
 21 22  1  0
M  CHG  2   2  -1  26  -1
M  END
>  <COMPND>  (43) 
    8629 

>  <AUTHOR>  (43) 
    GENERATED BY OPEN BABEL 3.1.1

>  <MASTER>  (43) 
        0    0    0    0    0    0    0    0   58    0   58    0

>  <minimizedAffinity>  (43) 
-6.64661

>  <CNNscore>  (43) 
0.5661198497

>  <CNNaffinity>  (43) 
4.4923510551

>  <CNN_VS>  (43) 
2.5432090759

>  <CNNaffinity_variance>  (43) 
0.0278907157

$$$$
44
     RDKit          3D

 43 45  0  0  0  0  0  0  0  0999 V2000
   24.0894   73.0938   -5.2130 P   0  0  2  0  0  0  0  0  0  0  0  0
   23.2685   72.0054   -6.0842 O   0  0  0  0  0  0  0  0  0  0  0  0
   25.0653   73.9245   -5.9934 O   0  0  0  0  0  0  0  0  0  0  0  0
   24.7173   72.2265   -3.9999 O   0  0  0  0  0  0  0  0  0  0  0  0
   25.7834   71.3379   -4.2853 C   0  0  0  0  0  0  0  0  0  0  0  0
   27.3485   69.9723   -3.0771 O   0  0  0  0  0  0  0  0  0  0  0  0
   28.2743   72.5110   -1.7777 O   0  0  0  0  0  0  0  0  0  0  0  0
   30.1897   72.0791   -3.6700 O   0  0  0  0  0  0  0  0  0  0  0  0
   27.8319   72.2919   -3.1162 C   0  0  1  0  0  0  0  0  0  0  0  0
   28.8963   71.5625   -3.9090 C   0  0  2  0  0  0  0  0  0  0  0  0
   26.7061   71.2660   -3.0763 C   0  0  1  0  0  0  0  0  0  0  0  0
   28.7360   70.1354   -3.4132 C   0  0  2  0  0  0  0  0  0  0  0  0
   28.9931   73.1631   -1.7776 H   0  0  0  0  0  0  0  0  0  0  0  0
   30.2414   72.9885   -4.0031 H   0  0  0  0  0  0  0  0  0  0  0  0
   30.6754   68.1135   -3.0542 O   0  0  0  0  0  0  0  0  0  0  0  0
   30.0175   66.4721   -7.3102 O   0  0  0  0  0  0  0  0  0  0  0  0
   29.0912   69.1658   -4.4107 N   0  0  0  0  0  0  0  0  0  0  0  0
   30.3461   67.2977   -5.1736 N   0  0  0  0  0  0  0  0  0  0  0  0
   30.0788   68.1930   -4.1300 C   0  0  0  0  0  0  0  0  0  0  0  0
   28.4627   69.1855   -5.6511 C   0  0  0  0  0  0  0  0  0  0  0  0
   28.7300   68.3255   -6.6360 C   0  0  0  0  0  0  0  0  0  0  0  0
   29.7492   67.2775   -6.4242 C   0  0  0  0  0  0  0  0  0  0  0  0
   31.0309   66.6114   -5.0009 H   0  0  0  0  0  0  0  0  0  0  0  0
   22.9169   73.9375   -4.4875 O   0  0  0  0  0  0  0  0  0  0  0  0
   21.5462   73.4568   -3.7784 P   0  0  2  0  0  0  0  0  0  0  0  0
   20.7631   74.8458   -3.5046 O   0  0  0  0  0  0  0  0  0  0  0  0
   21.7501   72.6095   -2.5559 O   0  0  0  0  0  0  0  0  0  0  0  0
   20.7064   72.7406   -4.9561 O   0  0  0  0  0  0  0  0  0  0  0  0
   18.8433   73.5480   -6.1781 O   0  0  0  0  0  0  0  0  0  0  0  0
   17.8200   69.5525   -5.9781 O   0  0  0  0  0  0  0  0  0  0  0  0
   18.7089   70.6654   -8.4719 O   0  0  0  0  0  0  0  0  0  0  0  0
   19.0651   70.8398   -3.7038 O   0  0  0  0  0  0  0  0  0  0  0  0
   18.7124   70.6654   -6.0801 C   0  0  1  0  0  0  0  0  0  0  0  0
   18.3526   71.4547   -7.3404 C   0  0  1  0  0  0  0  0  0  0  0  0
   18.5633   71.5404   -4.8369 C   0  0  2  0  0  0  0  0  0  0  0  0
   19.0845   72.8030   -7.3775 C   0  0  1  0  0  0  0  0  0  0  0  0
   19.2884   72.8778   -4.9972 C   0  0  1  0  0  0  0  0  0  0  0  0
   17.9100   68.9926   -6.7641 H   0  0  0  0  0  0  0  0  0  0  0  0
   18.2403   69.8167   -8.4361 H   0  0  0  0  0  0  0  0  0  0  0  0
   18.5979   69.9952   -3.6131 H   0  0  0  0  0  0  0  0  0  0  0  0
   19.1508   73.1369   -9.7425 O   0  0  0  0  0  0  0  0  0  0  0  0
   18.6216   73.6732   -8.5439 C   0  0  0  0  0  0  0  0  0  0  0  0
   18.8640   73.6804  -10.4935 H   0  0  0  0  0  0  0  0  0  0  0  0
 25 28  1  0
 25 24  1  0
 25 26  1  1
 25 27  2  0
  1  4  1  0
  1 24  1  0
  1  2  1  6
  1  3  2  0
  6 11  1  0
  6 12  1  0
 29 36  1  0
 29 37  1  0
  9  7  1  1
  7 13  1  0
 10  8  1  1
  8 14  1  0
 37 28  1  6
  4  5  1  0
 33 30  1  1
 30 38  1  0
 34 31  1  6
 31 39  1  0
 35 32  1  1
 32 40  1  0
 41 42  1  0
 41 43  1  0
 15 19  2  0
 16 22  2  0
 12 17  1  6
 17 19  1  0
 17 20  1  0
 18 19  1  0
 18 22  1  0
 18 23  1  0
  9 10  1  0
  9 11  1  0
 10 12  1  0
 11  5  1  6
 33 34  1  0
 33 35  1  0
 34 36  1  0
 35 37  1  0
 36 42  1  6
 20 21  2  0
 21 22  1  0
M  CHG  2   2  -1  26  -1
M  END
>  <COMPND>  (44) 
    8629 

>  <AUTHOR>  (44) 
    GENERATED BY OPEN BABEL 3.1.1

>  <MASTER>  (44) 
        0    0    0    0    0    0    0    0   58    0   58    0

>  <minimizedAffinity>  (44) 
-7.02458

>  <CNNscore>  (44) 
0.5383141637

>  <CNNaffinity>  (44) 
4.3794755936

>  <CNN_VS>  (44) 
2.3575336933

>  <CNNaffinity_variance>  (44) 
0.0530107729

$$$$
45
     RDKit          3D

 43 45  0  0  0  0  0  0  0  0999 V2000
   24.3414   72.7482   -4.7494 P   0  0  2  0  0  0  0  0  0  0  0  0
   23.0075   71.9202   -5.1402 O   0  0  0  0  0  0  0  0  0  0  0  0
   24.9734   73.5028   -5.8819 O   0  0  0  0  0  0  0  0  0  0  0  0
   25.2826   71.6491   -4.0256 O   0  0  0  0  0  0  0  0  0  0  0  0
   26.6625   71.6238   -4.3469 C   0  0  0  0  0  0  0  0  0  0  0  0
   27.8047   69.8764   -3.1571 O   0  0  0  0  0  0  0  0  0  0  0  0
   29.1557   72.0651   -1.6160 O   0  0  0  0  0  0  0  0  0  0  0  0
   31.0677   71.3415   -3.4208 O   0  0  0  0  0  0  0  0  0  0  0  0
   28.7763   72.0314   -2.9909 C   0  0  1  0  0  0  0  0  0  0  0  0
   29.7147   71.1368   -3.7735 C   0  0  2  0  0  0  0  0  0  0  0  0
   27.4567   71.2769   -3.0951 C   0  0  1  0  0  0  0  0  0  0  0  0
   29.2158   69.7517   -3.3982 C   0  0  2  0  0  0  0  0  0  0  0  0
   29.9958   72.5424   -1.5242 H   0  0  0  0  0  0  0  0  0  0  0  0
   31.3377   72.2363   -3.6799 H   0  0  0  0  0  0  0  0  0  0  0  0
   31.1401   67.6863   -3.3037 O   0  0  0  0  0  0  0  0  0  0  0  0
   29.9383   66.1265   -7.4707 O   0  0  0  0  0  0  0  0  0  0  0  0
   29.4270   68.7914   -4.4444 N   0  0  0  0  0  0  0  0  0  0  0  0
   30.5400   66.9112   -5.3786 N   0  0  0  0  0  0  0  0  0  0  0  0
   30.4200   67.7948   -4.2984 C   0  0  0  0  0  0  0  0  0  0  0  0
   28.6540   68.8434   -5.5993 C   0  0  0  0  0  0  0  0  0  0  0  0
   28.7818   67.9941   -6.6208 C   0  0  0  0  0  0  0  0  0  0  0  0
   29.7963   66.9229   -6.5480 C   0  0  0  0  0  0  0  0  0  0  0  0
   31.2256   66.2088   -5.2993 H   0  0  0  0  0  0  0  0  0  0  0  0
   23.8482   73.6717   -3.5179 O   0  0  0  0  0  0  0  0  0  0  0  0
   24.6836   74.4498   -2.3735 P   0  0  2  0  0  0  0  0  0  0  0  0
   23.9421   75.8850   -2.2840 O   0  0  0  0  0  0  0  0  0  0  0  0
   26.1594   74.5307   -2.6367 O   0  0  0  0  0  0  0  0  0  0  0  0
   24.2892   73.7008   -0.9993 O   0  0  0  0  0  0  0  0  0  0  0  0
   25.6657   71.8603   -0.4213 O   0  0  0  0  0  0  0  0  0  0  0  0
   22.5110   71.1576    2.1487 O   0  0  0  0  0  0  0  0  0  0  0  0
   25.0088   72.1110    3.1974 O   0  0  0  0  0  0  0  0  0  0  0  0
   22.0031   72.1439   -0.5250 O   0  0  0  0  0  0  0  0  0  0  0  0
   23.4320   71.9604    1.4053 C   0  0  1  0  0  0  0  0  0  0  0  0
   24.8492   71.6189    1.8697 C   0  0  1  0  0  0  0  0  0  0  0  0
   23.2670   71.6602   -0.0834 C   0  0  2  0  0  0  0  0  0  0  0  0
   25.9012   72.2386    0.9400 C   0  0  1  0  0  0  0  0  0  0  0  0
   24.3920   72.2819   -0.9129 C   0  0  1  0  0  0  0  0  0  0  0  0
   22.6102   71.3438    3.0948 H   0  0  0  0  0  0  0  0  0  0  0  0
   24.3383   71.7123    3.7741 H   0  0  0  0  0  0  0  0  0  0  0  0
   21.2994   71.7427    0.0076 H   0  0  0  0  0  0  0  0  0  0  0  0
   28.2205   72.8128    0.9423 O   0  0  0  0  0  0  0  0  0  0  0  0
   27.3153   71.7819    1.2917 C   0  0  0  0  0  0  0  0  0  0  0  0
   29.1246   72.5362    1.1608 H   0  0  0  0  0  0  0  0  0  0  0  0
 25 28  1  0
 25 24  1  0
 25 26  1  1
 25 27  2  0
  1  4  1  0
  1 24  1  0
  1  2  1  6
  1  3  2  0
  6 11  1  0
  6 12  1  0
 29 36  1  0
 29 37  1  0
  9  7  1  1
  7 13  1  0
 10  8  1  1
  8 14  1  0
 37 28  1  1
  4  5  1  0
 33 30  1  1
 30 38  1  0
 34 31  1  1
 31 39  1  0
 35 32  1  6
 32 40  1  0
 41 42  1  0
 41 43  1  0
 15 19  2  0
 16 22  2  0
 12 17  1  6
 17 19  1  0
 17 20  1  0
 18 19  1  0
 18 22  1  0
 18 23  1  0
  9 10  1  0
  9 11  1  0
 10 12  1  0
 11  5  1  6
 33 34  1  0
 33 35  1  0
 34 36  1  0
 35 37  1  0
 36 42  1  1
 20 21  2  0
 21 22  1  0
M  CHG  2   2  -1  26  -1
M  END
>  <COMPND>  (45) 
    8629 

>  <AUTHOR>  (45) 
    GENERATED BY OPEN BABEL 3.1.1

>  <MASTER>  (45) 
        0    0    0    0    0    0    0    0   58    0   58    0

>  <minimizedAffinity>  (45) 
-6.82224

>  <CNNscore>  (45) 
0.5308240652

>  <CNNaffinity>  (45) 
4.2674088478

>  <CNN_VS>  (45) 
2.2652432919

>  <CNNaffinity_variance>  (45) 
0.0532933474

$$$$
46
     RDKit          3D

 43 45  0  0  0  0  0  0  0  0999 V2000
   27.4564   72.9826   -2.5215 P   0  0  2  0  0  0  0  0  0  0  0  0
   27.2542   74.5783   -2.3480 O   0  0  0  0  0  0  0  0  0  0  0  0
   27.0376   72.1584   -1.3396 O   0  0  0  0  0  0  0  0  0  0  0  0
   29.0042   72.8336   -2.9689 O   0  0  0  0  0  0  0  0  0  0  0  0
   29.4008   71.6558   -3.6496 C   0  0  0  0  0  0  0  0  0  0  0  0
   28.6968   69.4820   -2.9064 O   0  0  0  0  0  0  0  0  0  0  0  0
   31.3197   69.3328   -1.4610 O   0  0  0  0  0  0  0  0  0  0  0  0
   31.7803   67.8244   -3.6856 O   0  0  0  0  0  0  0  0  0  0  0  0
   31.0180   69.9234   -2.7241 C   0  0  1  0  0  0  0  0  0  0  0  0
   30.8106   68.8487   -3.7709 C   0  0  2  0  0  0  0  0  0  0  0  0
   29.6315   70.5482   -2.6308 C   0  0  1  0  0  0  0  0  0  0  0  0
   29.4107   68.3570   -3.4447 C   0  0  2  0  0  0  0  0  0  0  0  0
   32.2008   68.9275   -1.4960 H   0  0  0  0  0  0  0  0  0  0  0  0
   32.6536   68.1869   -3.9018 H   0  0  0  0  0  0  0  0  0  0  0  0
   26.8101   67.2556   -3.4033 O   0  0  0  0  0  0  0  0  0  0  0  0
   26.8426   66.5399   -7.9561 O   0  0  0  0  0  0  0  0  0  0  0  0
   28.7152   67.8753   -4.6047 N   0  0  0  0  0  0  0  0  0  0  0  0
   26.8283   66.9003   -5.6703 N   0  0  0  0  0  0  0  0  0  0  0  0
   27.4125   67.3398   -4.4755 C   0  0  0  0  0  0  0  0  0  0  0  0
   29.3246   67.9368   -5.8533 C   0  0  0  0  0  0  0  0  0  0  0  0
   28.7544   67.5122   -6.9828 C   0  0  0  0  0  0  0  0  0  0  0  0
   27.3938   66.9390   -6.9350 C   0  0  0  0  0  0  0  0  0  0  0  0
   25.9211   66.5230   -5.6046 H   0  0  0  0  0  0  0  0  0  0  0  0
   26.6512   72.6603   -3.8856 O   0  0  0  0  0  0  0  0  0  0  0  0
   25.2474   73.2298   -4.4494 P   0  0  2  0  0  0  0  0  0  0  0  0
   25.5184   73.3791   -6.0374 O   0  0  0  0  0  0  0  0  0  0  0  0
   24.7810   74.4899   -3.7796 O   0  0  0  0  0  0  0  0  0  0  0  0
   24.2236   71.9882   -4.3255 O   0  0  0  0  0  0  0  0  0  0  0  0
   22.7195   72.2001   -2.5064 O   0  0  0  0  0  0  0  0  0  0  0  0
   22.0066   68.2550   -3.4959 O   0  0  0  0  0  0  0  0  0  0  0  0
   20.0305   70.2486   -4.1033 O   0  0  0  0  0  0  0  0  0  0  0  0
   24.6982   69.3124   -3.6252 O   0  0  0  0  0  0  0  0  0  0  0  0
   22.3138   69.6279   -3.7534 C   0  0  1  0  0  0  0  0  0  0  0  0
   21.1483   70.4824   -3.2511 C   0  0  1  0  0  0  0  0  0  0  0  0
   23.6041   69.9961   -3.0234 C   0  0  2  0  0  0  0  0  0  0  0  0
   21.5152   71.9726   -3.2477 C   0  0  1  0  0  0  0  0  0  0  0  0
   23.8499   71.5059   -3.0375 C   0  0  1  0  0  0  0  0  0  0  0  0
   21.1885   68.0147   -3.9569 H   0  0  0  0  0  0  0  0  0  0  0  0
   19.8095   69.3040   -4.0968 H   0  0  0  0  0  0  0  0  0  0  0  0
   24.5306   68.3577   -3.6099 H   0  0  0  0  0  0  0  0  0  0  0  0
   19.7061   72.0240   -1.6878 O   0  0  0  0  0  0  0  0  0  0  0  0
   20.4265   72.8281   -2.6036 C   0  0  0  0  0  0  0  0  0  0  0  0
   19.0099   72.5555   -1.2699 H   0  0  0  0  0  0  0  0  0  0  0  0
 25 28  1  0
 25 24  1  0
 25 26  1  6
 25 27  2  0
  1  4  1  0
  1 24  1  0
  1  2  1  1
  1  3  2  0
  6 11  1  0
  6 12  1  0
 29 36  1  0
 29 37  1  0
  9  7  1  1
  7 13  1  0
 10  8  1  1
  8 14  1  0
 37 28  1  6
  4  5  1  0
 33 30  1  1
 30 38  1  0
 34 31  1  6
 31 39  1  0
 35 32  1  6
 32 40  1  0
 41 42  1  0
 41 43  1  0
 15 19  2  0
 16 22  2  0
 12 17  1  6
 17 19  1  0
 17 20  1  0
 18 19  1  0
 18 22  1  0
 18 23  1  0
  9 10  1  0
  9 11  1  0
 10 12  1  0
 11  5  1  6
 33 34  1  0
 33 35  1  0
 34 36  1  0
 35 37  1  0
 36 42  1  1
 20 21  2  0
 21 22  1  0
M  CHG  2   2  -1  26  -1
M  END
>  <COMPND>  (46) 
    8629 

>  <AUTHOR>  (46) 
    GENERATED BY OPEN BABEL 3.1.1

>  <MASTER>  (46) 
        0    0    0    0    0    0    0    0   58    0   58    0

>  <minimizedAffinity>  (46) 
-8.13677

>  <CNNscore>  (46) 
0.5216815472

>  <CNNaffinity>  (46) 
4.4583139420

>  <CNN_VS>  (46) 
2.3258202076

>  <CNNaffinity_variance>  (46) 
0.6112071276

$$$$
47
     RDKit          3D

 43 45  0  0  0  0  0  0  0  0999 V2000
   24.7847   73.7330   -4.9695 P   0  0  2  0  0  0  0  0  0  0  0  0
   25.0902   74.7220   -6.2129 O   0  0  0  0  0  0  0  0  0  0  0  0
   24.1768   74.3948   -3.7678 O   0  0  0  0  0  0  0  0  0  0  0  0
   26.1936   72.9781   -4.7184 O   0  0  0  0  0  0  0  0  0  0  0  0
   26.2075   71.5613   -4.6993 C   0  0  0  0  0  0  0  0  0  0  0  0
   27.0392   69.6888   -3.4440 O   0  0  0  0  0  0  0  0  0  0  0  0
   28.0317   71.7019   -1.4557 O   0  0  0  0  0  0  0  0  0  0  0  0
   30.2918   71.0775   -2.8480 O   0  0  0  0  0  0  0  0  0  0  0  0
   27.9686   71.7940   -2.8780 C   0  0  1  0  0  0  0  0  0  0  0  0
   29.0500   70.9415   -3.5085 C   0  0  2  0  0  0  0  0  0  0  0  0
   26.6989   71.0886   -3.3380 C   0  0  1  0  0  0  0  0  0  0  0  0
   28.4673   69.5447   -3.3762 C   0  0  2  0  0  0  0  0  0  0  0  0
   28.8343   72.1458   -1.1384 H   0  0  0  0  0  0  0  0  0  0  0  0
   30.6210   71.9828   -2.9613 H   0  0  0  0  0  0  0  0  0  0  0  0
   30.8395   68.0130   -3.3084 O   0  0  0  0  0  0  0  0  0  0  0  0
   30.0201   66.2231   -7.4756 O   0  0  0  0  0  0  0  0  0  0  0  0
   28.8982   68.6695   -4.4297 N   0  0  0  0  0  0  0  0  0  0  0  0
   30.4295   67.1229   -5.3833 N   0  0  0  0  0  0  0  0  0  0  0  0
   30.1061   67.9459   -4.2970 C   0  0  0  0  0  0  0  0  0  0  0  0
   28.1260   68.5353   -5.5784 C   0  0  0  0  0  0  0  0  0  0  0  0
   28.4490   67.7472   -6.6060 C   0  0  0  0  0  0  0  0  0  0  0  0
   29.6954   66.9568   -6.5471 C   0  0  0  0  0  0  0  0  0  0  0  0
   31.2669   66.6094   -5.3134 H   0  0  0  0  0  0  0  0  0  0  0  0
   23.8691   72.5807   -5.6380 O   0  0  0  0  0  0  0  0  0  0  0  0
   22.2632   72.4191   -5.7269 P   0  0  2  0  0  0  0  0  0  0  0  0
   22.0740   70.9646   -6.4097 O   0  0  0  0  0  0  0  0  0  0  0  0
   21.5713   73.5377   -6.4506 O   0  0  0  0  0  0  0  0  0  0  0  0
   21.7878   72.2166   -4.1979 O   0  0  0  0  0  0  0  0  0  0  0  0
   23.0973   71.5143   -2.3517 O   0  0  0  0  0  0  0  0  0  0  0  0
   19.4765   69.8555   -1.2614 O   0  0  0  0  0  0  0  0  0  0  0  0
   20.4665   72.1522    0.1504 O   0  0  0  0  0  0  0  0  0  0  0  0
   20.2896   69.8490   -4.0396 O   0  0  0  0  0  0  0  0  0  0  0  0
   20.3367   70.8383   -1.8440 C   0  0  1  0  0  0  0  0  0  0  0  0
   21.2574   71.3798   -0.7486 C   0  0  1  0  0  0  0  0  0  0  0  0
   21.1530   70.1888   -2.9599 C   0  0  2  0  0  0  0  0  0  0  0  0
   22.3815   72.2382   -1.3440 C   0  0  1  0  0  0  0  0  0  0  0  0
   22.2749   71.1074   -3.4471 C   0  0  1  0  0  0  0  0  0  0  0  0
   18.9550   70.2615   -0.5524 H   0  0  0  0  0  0  0  0  0  0  0  0
   19.7601   71.5986    0.5189 H   0  0  0  0  0  0  0  0  0  0  0  0
   19.5839   69.2671   -3.7183 H   0  0  0  0  0  0  0  0  0  0  0  0
   23.3229   71.7524    0.7977 O   0  0  0  0  0  0  0  0  0  0  0  0
   23.4011   72.6583   -0.2875 C   0  0  0  0  0  0  0  0  0  0  0  0
   23.9665   72.0073    1.4778 H   0  0  0  0  0  0  0  0  0  0  0  0
 25 28  1  0
 25 24  1  0
 25 26  1  6
 25 27  2  0
  1  4  1  0
  1 24  1  0
  1  2  1  6
  1  3  2  0
  6 11  1  0
  6 12  1  0
 29 36  1  0
 29 37  1  0
  9  7  1  1
  7 13  1  0
 10  8  1  1
  8 14  1  0
 37 28  1  1
  4  5  1  0
 33 30  1  1
 30 38  1  0
 34 31  1  1
 31 39  1  0
 35 32  1  6
 32 40  1  0
 41 42  1  0
 41 43  1  0
 15 19  2  0
 16 22  2  0
 12 17  1  6
 17 19  1  0
 17 20  1  0
 18 19  1  0
 18 22  1  0
 18 23  1  0
  9 10  1  0
  9 11  1  0
 10 12  1  0
 11  5  1  6
 33 34  1  0
 33 35  1  0
 34 36  1  0
 35 37  1  0
 36 42  1  1
 20 21  2  0
 21 22  1  0
M  CHG  2   2  -1  26  -1
M  END
>  <COMPND>  (47) 
    8629 

>  <AUTHOR>  (47) 
    GENERATED BY OPEN BABEL 3.1.1

>  <MASTER>  (47) 
        0    0    0    0    0    0    0    0   58    0   58    0

>  <minimizedAffinity>  (47) 
-7.21627

>  <CNNscore>  (47) 
0.4649376273

>  <CNNaffinity>  (47) 
4.3219952583

>  <CNN_VS>  (47) 
2.0094583035

>  <CNNaffinity_variance>  (47) 
0.0615001991

$$$$
48
     RDKit          3D

 43 45  0  0  0  0  0  0  0  0999 V2000
   24.3386   73.3058   -4.9532 P   0  0  2  0  0  0  0  0  0  0  0  0
   25.5351   73.6563   -5.9842 O   0  0  0  0  0  0  0  0  0  0  0  0
   23.7836   74.4809   -4.2033 O   0  0  0  0  0  0  0  0  0  0  0  0
   24.9469   72.1147   -4.0426 O   0  0  0  0  0  0  0  0  0  0  0  0
   26.2047   71.5672   -4.3976 C   0  0  0  0  0  0  0  0  0  0  0  0
   27.4747   69.9367   -3.1720 O   0  0  0  0  0  0  0  0  0  0  0  0
   28.6056   72.2486   -1.6336 O   0  0  0  0  0  0  0  0  0  0  0  0
   30.6022   71.6772   -3.4009 O   0  0  0  0  0  0  0  0  0  0  0  0
   28.2529   72.1694   -3.0136 C   0  0  1  0  0  0  0  0  0  0  0  0
   29.2780   71.3525   -3.7722 C   0  0  2  0  0  0  0  0  0  0  0  0
   27.0056   71.3022   -3.1302 C   0  0  1  0  0  0  0  0  0  0  0  0
   28.8950   69.9328   -3.3900 C   0  0  2  0  0  0  0  0  0  0  0  0
   29.3995   72.7979   -1.5339 H   0  0  0  0  0  0  0  0  0  0  0  0
   30.7978   72.5896   -3.6654 H   0  0  0  0  0  0  0  0  0  0  0  0
   30.8414   67.8994   -3.1564 O   0  0  0  0  0  0  0  0  0  0  0  0
   30.0030   66.3541   -7.4167 O   0  0  0  0  0  0  0  0  0  0  0  0
   29.2057   68.9849   -4.4226 N   0  0  0  0  0  0  0  0  0  0  0  0
   30.4222   67.1315   -5.2778 N   0  0  0  0  0  0  0  0  0  0  0  0
   30.2011   68.0040   -4.2046 C   0  0  0  0  0  0  0  0  0  0  0  0
   28.5264   69.0334   -5.6351 C   0  0  0  0  0  0  0  0  0  0  0  0
   28.7501   68.1949   -6.6490 C   0  0  0  0  0  0  0  0  0  0  0  0
   29.7740   67.1403   -6.5027 C   0  0  0  0  0  0  0  0  0  0  0  0
   31.1115   66.4401   -5.1489 H   0  0  0  0  0  0  0  0  0  0  0  0
   23.2669   72.5372   -5.8880 O   0  0  0  0  0  0  0  0  0  0  0  0
   21.6837   72.2754   -5.6933 P   0  0  2  0  0  0  0  0  0  0  0  0
   21.4290   70.9090   -6.5212 O   0  0  0  0  0  0  0  0  0  0  0  0
   20.8137   73.4249   -6.1127 O   0  0  0  0  0  0  0  0  0  0  0  0
   21.5276   71.8488   -4.1446 O   0  0  0  0  0  0  0  0  0  0  0  0
   19.5065   72.6695   -3.2181 O   0  0  0  0  0  0  0  0  0  0  0  0
   21.3114   71.3083    0.2373 O   0  0  0  0  0  0  0  0  0  0  0  0
   19.0869   69.8639   -0.8642 O   0  0  0  0  0  0  0  0  0  0  0  0
   22.9014   72.5917   -1.8131 O   0  0  0  0  0  0  0  0  0  0  0  0
   20.9833   71.2923   -1.1546 C   0  0  1  0  0  0  0  0  0  0  0  0
   19.4640   71.1710   -1.2878 C   0  0  1  0  0  0  0  0  0  0  0  0
   21.4780   72.5859   -1.7990 C   0  0  2  0  0  0  0  0  0  0  0  0
   19.0135   71.4146   -2.7344 C   0  0  1  0  0  0  0  0  0  0  0  0
   20.9330   72.7542   -3.2184 C   0  0  1  0  0  0  0  0  0  0  0  0
   21.0005   70.4894    0.6523 H   0  0  0  0  0  0  0  0  0  0  0  0
   19.3776   69.7227    0.0506 H   0  0  0  0  0  0  0  0  0  0  0  0
   23.2341   72.4847   -0.9088 H   0  0  0  0  0  0  0  0  0  0  0  0
   17.0095   70.1242   -2.9003 O   0  0  0  0  0  0  0  0  0  0  0  0
   17.4921   71.4545   -2.8607 C   0  0  0  0  0  0  0  0  0  0  0  0
   16.0424   70.1340   -2.9802 H   0  0  0  0  0  0  0  0  0  0  0  0
 25 28  1  0
 25 24  1  0
 25 26  1  6
 25 27  2  0
  1  4  1  0
  1 24  1  0
  1  2  1  6
  1  3  2  0
  6 11  1  0
  6 12  1  0
 29 36  1  0
 29 37  1  0
  9  7  1  1
  7 13  1  0
 10  8  1  1
  8 14  1  0
 37 28  1  6
  4  5  1  0
 33 30  1  1
 30 38  1  0
 34 31  1  6
 31 39  1  0
 35 32  1  6
 32 40  1  0
 41 42  1  0
 41 43  1  0
 15 19  2  0
 16 22  2  0
 12 17  1  6
 17 19  1  0
 17 20  1  0
 18 19  1  0
 18 22  1  0
 18 23  1  0
  9 10  1  0
  9 11  1  0
 10 12  1  0
 11  5  1  6
 33 34  1  0
 33 35  1  0
 34 36  1  0
 35 37  1  0
 36 42  1  1
 20 21  2  0
 21 22  1  0
M  CHG  2   2  -1  26  -1
M  END
>  <COMPND>  (48) 
    8629 

>  <AUTHOR>  (48) 
    GENERATED BY OPEN BABEL 3.1.1

>  <MASTER>  (48) 
        0    0    0    0    0    0    0    0   58    0   58    0

>  <minimizedAffinity>  (48) 
-7.52347

>  <CNNscore>  (48) 
0.4562886059

>  <CNNaffinity>  (48) 
4.2485852242

>  <CNN_VS>  (48) 
1.9385809898

>  <CNNaffinity_variance>  (48) 
0.0668356046

$$$$
49
     RDKit          3D

 43 45  0  0  0  0  0  0  0  0999 V2000
   25.4602   74.0132   -4.6526 P   0  0  2  0  0  0  0  0  0  0  0  0
   25.0486   74.1370   -6.2123 O   0  0  0  0  0  0  0  0  0  0  0  0
   26.7666   74.6556   -4.2890 O   0  0  0  0  0  0  0  0  0  0  0  0
   25.3468   72.4287   -4.3456 O   0  0  0  0  0  0  0  0  0  0  0  0
   26.4852   71.6142   -4.5656 C   0  0  0  0  0  0  0  0  0  0  0  0
   27.2769   69.6928   -3.3593 O   0  0  0  0  0  0  0  0  0  0  0  0
   28.4049   71.6368   -1.3745 O   0  0  0  0  0  0  0  0  0  0  0  0
   30.5979   70.9433   -2.8396 O   0  0  0  0  0  0  0  0  0  0  0  0
   28.3052   71.7513   -2.7931 C   0  0  1  0  0  0  0  0  0  0  0  0
   29.3334   70.8659   -3.4656 C   0  0  2  0  0  0  0  0  0  0  0  0
   26.9958   71.1032   -3.2253 C   0  0  1  0  0  0  0  0  0  0  0  0
   28.6994   69.4914   -3.3347 C   0  0  2  0  0  0  0  0  0  0  0  0
   29.2332   72.0441   -1.0748 H   0  0  0  0  0  0  0  0  0  0  0  0
   30.9596   71.8364   -2.9506 H   0  0  0  0  0  0  0  0  0  0  0  0
   30.9764   67.8201   -3.3290 O   0  0  0  0  0  0  0  0  0  0  0  0
   30.0033   66.1717   -7.5215 O   0  0  0  0  0  0  0  0  0  0  0  0
   29.0650   68.6149   -4.4115 N   0  0  0  0  0  0  0  0  0  0  0  0
   30.4899   67.0005   -5.4164 N   0  0  0  0  0  0  0  0  0  0  0  0
   30.2290   67.8179   -4.3093 C   0  0  0  0  0  0  0  0  0  0  0  0
   28.2729   68.5514   -5.5528 C   0  0  0  0  0  0  0  0  0  0  0  0
   28.5363   67.7677   -6.6005 C   0  0  0  0  0  0  0  0  0  0  0  0
   29.7339   66.9033   -6.5739 C   0  0  0  0  0  0  0  0  0  0  0  0
   31.2959   66.4367   -5.3678 H   0  0  0  0  0  0  0  0  0  0  0  0
   24.1740   74.6245   -3.8877 O   0  0  0  0  0  0  0  0  0  0  0  0
   23.3146   74.0617   -2.6397 P   0  0  2  0  0  0  0  0  0  0  0  0
   22.2329   75.2352   -2.3748 O   0  0  0  0  0  0  0  0  0  0  0  0
   24.1392   73.6970   -1.4393 O   0  0  0  0  0  0  0  0  0  0  0  0
   22.4522   72.8434   -3.2539 O   0  0  0  0  0  0  0  0  0  0  0  0
   20.4484   72.1132   -2.2204 O   0  0  0  0  0  0  0  0  0  0  0  0
   21.4232   68.6681   -4.2775 O   0  0  0  0  0  0  0  0  0  0  0  0
   19.2268   70.2842   -5.1786 O   0  0  0  0  0  0  0  0  0  0  0  0
   23.5085   70.2521   -3.0437 O   0  0  0  0  0  0  0  0  0  0  0  0
   21.3356   70.0802   -4.0685 C   0  0  1  0  0  0  0  0  0  0  0  0
   19.8595   70.4512   -3.9129 C   0  0  1  0  0  0  0  0  0  0  0  0
   22.1181   70.4479   -2.8093 C   0  0  2  0  0  0  0  0  0  0  0  0
   19.7003   71.8967   -3.4225 C   0  0  1  0  0  0  0  0  0  0  0  0
   21.8511   71.8917   -2.3798 C   0  0  1  0  0  0  0  0  0  0  0  0
   20.9288   68.4280   -5.0759 H   0  0  0  0  0  0  0  0  0  0  0  0
   19.3350   69.3674   -5.4771 H   0  0  0  0  0  0  0  0  0  0  0  0
   23.6644   69.3344   -3.3146 H   0  0  0  0  0  0  0  0  0  0  0  0
   17.6170   72.6658   -4.3042 O   0  0  0  0  0  0  0  0  0  0  0  0
   18.2450   72.2376   -3.1098 C   0  0  0  0  0  0  0  0  0  0  0  0
   16.6899   72.8858   -4.1204 H   0  0  0  0  0  0  0  0  0  0  0  0
 25 28  1  0
 25 24  1  0
 25 26  1  1
 25 27  2  0
  1  4  1  0
  1 24  1  0
  1  2  1  6
  1  3  2  0
  6 11  1  0
  6 12  1  0
 29 36  1  0
 29 37  1  0
  9  7  1  1
  7 13  1  0
 10  8  1  1
  8 14  1  0
 37 28  1  6
  4  5  1  0
 33 30  1  1
 30 38  1  0
 34 31  1  6
 31 39  1  0
 35 32  1  6
 32 40  1  0
 41 42  1  0
 41 43  1  0
 15 19  2  0
 16 22  2  0
 12 17  1  6
 17 19  1  0
 17 20  1  0
 18 19  1  0
 18 22  1  0
 18 23  1  0
  9 10  1  0
  9 11  1  0
 10 12  1  0
 11  5  1  6
 33 34  1  0
 33 35  1  0
 34 36  1  0
 35 37  1  0
 36 42  1  1
 20 21  2  0
 21 22  1  0
M  CHG  2   2  -1  26  -1
M  END
>  <COMPND>  (49) 
    8629 

>  <AUTHOR>  (49) 
    GENERATED BY OPEN BABEL 3.1.1

>  <MASTER>  (49) 
        0    0    0    0    0    0    0    0   58    0   58    0

>  <minimizedAffinity>  (49) 
-6.78724

>  <CNNscore>  (49) 
0.4364737868

>  <CNNaffinity>  (49) 
4.2811632156

>  <CNN_VS>  (49) 
1.8686155081

>  <CNNaffinity_variance>  (49) 
0.0497217551

$$$$
50
     RDKit          3D

 43 45  0  0  0  0  0  0  0  0999 V2000
   22.3619   71.8163   -4.7792 P   0  0  2  0  0  0  0  0  0  0  0  0
   21.8668   70.3132   -5.1150 O   0  0  0  0  0  0  0  0  0  0  0  0
   21.7154   72.4433   -3.5791 O   0  0  0  0  0  0  0  0  0  0  0  0
   22.1694   72.6099   -6.1760 O   0  0  0  0  0  0  0  0  0  0  0  0
   20.8602   72.7477   -6.7004 C   0  0  0  0  0  0  0  0  0  0  0  0
   20.1111   70.9482   -8.1056 O   0  0  0  0  0  0  0  0  0  0  0  0
   20.5720   72.8071  -10.4128 O   0  0  0  0  0  0  0  0  0  0  0  0
   17.8698   72.9422  -10.0713 O   0  0  0  0  0  0  0  0  0  0  0  0
   20.0936   73.0988   -9.1008 C   0  0  1  0  0  0  0  0  0  0  0  0
   18.6632   72.6260   -8.9455 C   0  0  2  0  0  0  0  0  0  0  0  0
   20.8345   72.1984   -8.1202 C   0  0  1  0  0  0  0  0  0  0  0  0
   18.8446   71.1291   -8.7599 C   0  0  2  0  0  0  0  0  0  0  0  0
   20.1135   73.3703  -11.0566 H   0  0  0  0  0  0  0  0  0  0  0  0
   17.7840   73.9054  -10.1463 H   0  0  0  0  0  0  0  0  0  0  0  0
   16.4218   70.0810   -9.7646 O   0  0  0  0  0  0  0  0  0  0  0  0
   14.9588   68.9297   -5.5485 O   0  0  0  0  0  0  0  0  0  0  0  0
   17.8129   70.5490   -7.9472 N   0  0  0  0  0  0  0  0  0  0  0  0
   15.6954   69.5084   -7.6645 N   0  0  0  0  0  0  0  0  0  0  0  0
   16.6339   70.0525   -8.5506 C   0  0  0  0  0  0  0  0  0  0  0  0
   17.9757   70.4764   -6.5681 C   0  0  0  0  0  0  0  0  0  0  0  0
   17.0706   69.9558   -5.7369 C   0  0  0  0  0  0  0  0  0  0  0  0
   15.8107   69.4149   -6.2866 C   0  0  0  0  0  0  0  0  0  0  0  0
   14.8660   69.1567   -8.0623 H   0  0  0  0  0  0  0  0  0  0  0  0
   23.9667   71.6548   -4.6714 O   0  0  0  0  0  0  0  0  0  0  0  0
   25.1528   72.7485   -4.7717 P   0  0  2  0  0  0  0  0  0  0  0  0
   25.0761   73.5108   -3.3467 O   0  0  0  0  0  0  0  0  0  0  0  0
   25.0551   73.6545   -5.9647 O   0  0  0  0  0  0  0  0  0  0  0  0
   26.5134   71.8834   -4.6984 O   0  0  0  0  0  0  0  0  0  0  0  0
   26.6972   69.8711   -3.4600 O   0  0  0  0  0  0  0  0  0  0  0  0
   30.6612   71.0273   -3.4322 O   0  0  0  0  0  0  0  0  0  0  0  0
   29.8422   68.8103   -5.0639 O   0  0  0  0  0  0  0  0  0  0  0  0
   28.5749   73.0167   -3.1685 O   0  0  0  0  0  0  0  0  0  0  0  0
   29.3489   70.8862   -3.9831 C   0  0  1  0  0  0  0  0  0  0  0  0
   29.0183   69.3943   -4.0586 C   0  0  1  0  0  0  0  0  0  0  0  0
   28.3498   71.6135   -3.0852 C   0  0  2  0  0  0  0  0  0  0  0  0
   27.5358   69.1713   -4.3866 C   0  0  1  0  0  0  0  0  0  0  0  0
   26.9050   71.2848   -3.4656 C   0  0  1  0  0  0  0  0  0  0  0  0
   31.3004   70.5681   -3.9979 H   0  0  0  0  0  0  0  0  0  0  0  0
   30.7756   68.9586   -4.8451 H   0  0  0  0  0  0  0  0  0  0  0  0
   29.4928   73.2117   -2.9249 H   0  0  0  0  0  0  0  0  0  0  0  0
   27.4140   67.2277   -3.0022 O   0  0  0  0  0  0  0  0  0  0  0  0
   27.1492   67.6959   -4.3118 C   0  0  0  0  0  0  0  0  0  0  0  0
   27.1724   66.2899   -2.9397 H   0  0  0  0  0  0  0  0  0  0  0  0
 25 28  1  0
 25 24  1  0
 25 26  1  1
 25 27  2  0
  1  4  1  0
  1 24  1  0
  1  2  1  6
  1  3  2  0
  6 11  1  0
  6 12  1  0
 29 36  1  0
 29 37  1  0
  9  7  1  6
  7 13  1  0
 10  8  1  6
  8 14  1  0
 37 28  1  6
  4  5  1  0
 33 30  1  1
 30 38  1  0
 34 31  1  6
 31 39  1  0
 35 32  1  6
 32 40  1  0
 41 42  1  0
 41 43  1  0
 15 19  2  0
 16 22  2  0
 12 17  1  1
 17 19  1  0
 17 20  1  0
 18 19  1  0
 18 22  1  0
 18 23  1  0
  9 10  1  0
  9 11  1  0
 10 12  1  0
 11  5  1  1
 33 34  1  0
 33 35  1  0
 34 36  1  0
 35 37  1  0
 36 42  1  1
 20 21  2  0
 21 22  1  0
M  CHG  2   2  -1  26  -1
M  END
>  <COMPND>  (50) 
    8629 

>  <AUTHOR>  (50) 
    GENERATED BY OPEN BABEL 3.1.1

>  <MASTER>  (50) 
        0    0    0    0    0    0    0    0   58    0   58    0

>  <minimizedAffinity>  (50) 
-7.66563

>  <CNNscore>  (50) 
0.4269903302

>  <CNNaffinity>  (50) 
4.1711220741

>  <CNN_VS>  (50) 
1.7810287476

>  <CNNaffinity_variance>  (50) 
0.0422030874

$$$$
51
     RDKit          3D

 43 45  0  0  0  0  0  0  0  0999 V2000
   21.7410   73.9822   -4.0293 P   0  0  2  0  0  0  0  0  0  0  0  0
   21.0216   74.3024   -2.6160 O   0  0  0  0  0  0  0  0  0  0  0  0
   22.3918   75.1614   -4.6907 O   0  0  0  0  0  0  0  0  0  0  0  0
   20.5907   73.2394   -4.8912 O   0  0  0  0  0  0  0  0  0  0  0  0
   19.9150   73.9774   -5.8946 C   0  0  0  0  0  0  0  0  0  0  0  0
   20.1417   72.2215   -7.5191 O   0  0  0  0  0  0  0  0  0  0  0  0
   20.8145   74.3828   -9.4856 O   0  0  0  0  0  0  0  0  0  0  0  0
   18.2054   73.8421  -10.0661 O   0  0  0  0  0  0  0  0  0  0  0  0
   19.8863   74.4056   -8.4023 C   0  0  1  0  0  0  0  0  0  0  0  0
   18.6538   73.5966   -8.7488 C   0  0  2  0  0  0  0  0  0  0  0  0
   20.4837   73.5999   -7.2555 C   0  0  1  0  0  0  0  0  0  0  0  0
   19.1468   72.1727   -8.5548 C   0  0  2  0  0  0  0  0  0  0  0  0
   20.4550   74.8913  -10.2299 H   0  0  0  0  0  0  0  0  0  0  0  0
   17.9023   74.7606  -10.1387 H   0  0  0  0  0  0  0  0  0  0  0  0
   17.4419   70.8033  -10.3425 O   0  0  0  0  0  0  0  0  0  0  0  0
   15.1541   68.7741   -6.8944 O   0  0  0  0  0  0  0  0  0  0  0  0
   18.0972   71.2799   -8.1515 N   0  0  0  0  0  0  0  0  0  0  0  0
   16.3042   69.7939   -8.6242 N   0  0  0  0  0  0  0  0  0  0  0  0
   17.2972   70.6432   -9.1288 C   0  0  0  0  0  0  0  0  0  0  0  0
   17.8700   71.0430   -6.8002 C   0  0  0  0  0  0  0  0  0  0  0  0
   16.9181   70.2312   -6.3353 C   0  0  0  0  0  0  0  0  0  0  0  0
   16.0384   69.5271   -7.2904 C   0  0  0  0  0  0  0  0  0  0  0  0
   15.7343   69.3398   -9.2866 H   0  0  0  0  0  0  0  0  0  0  0  0
   22.7519   72.7768   -3.6576 O   0  0  0  0  0  0  0  0  0  0  0  0
   23.4293   71.6364   -4.5816 P   0  0  2  0  0  0  0  0  0  0  0  0
   23.2884   72.2382   -6.0767 O   0  0  0  0  0  0  0  0  0  0  0  0
   22.8351   70.2689   -4.4059 O   0  0  0  0  0  0  0  0  0  0  0  0
   25.0067   71.7276   -4.2524 O   0  0  0  0  0  0  0  0  0  0  0  0
   26.3515   69.9567   -3.4325 O   0  0  0  0  0  0  0  0  0  0  0  0
   28.3727   73.1474   -1.7636 O   0  0  0  0  0  0  0  0  0  0  0  0
   29.5427   71.7232   -3.9660 O   0  0  0  0  0  0  0  0  0  0  0  0
   25.4814   73.1813   -1.8994 O   0  0  0  0  0  0  0  0  0  0  0  0
   27.6123   72.4671   -2.7657 C   0  0  1  0  0  0  0  0  0  0  0  0
   28.4149   71.2517   -3.2340 C   0  0  1  0  0  0  0  0  0  0  0  0
   26.2759   72.0311   -2.1679 C   0  0  2  0  0  0  0  0  0  0  0  0
   27.5588   70.3262   -4.1091 C   0  0  1  0  0  0  0  0  0  0  0  0
   25.5267   71.0744   -3.0973 C   0  0  1  0  0  0  0  0  0  0  0  0
   29.2223   73.4274   -2.1368 H   0  0  0  0  0  0  0  0  0  0  0  0
   30.0746   72.3068   -3.4023 H   0  0  0  0  0  0  0  0  0  0  0  0
   25.9665   73.7788   -1.3099 H   0  0  0  0  0  0  0  0  0  0  0  0
   29.2972   69.3250   -5.4070 O   0  0  0  0  0  0  0  0  0  0  0  0
   28.2894   69.0311   -4.4571 C   0  0  0  0  0  0  0  0  0  0  0  0
   29.7707   68.5099   -5.6377 H   0  0  0  0  0  0  0  0  0  0  0  0
 25 28  1  0
 25 24  1  0
 25 26  1  6
 25 27  2  0
  1  4  1  0
  1 24  1  0
  1  2  1  1
  1  3  2  0
  6 11  1  0
  6 12  1  0
 29 36  1  0
 29 37  1  0
  9  7  1  6
  7 13  1  0
 10  8  1  6
  8 14  1  0
 37 28  1  6
  4  5  1  0
 33 30  1  1
 30 38  1  0
 34 31  1  6
 31 39  1  0
 35 32  1  6
 32 40  1  0
 41 42  1  0
 41 43  1  0
 15 19  2  0
 16 22  2  0
 12 17  1  1
 17 19  1  0
 17 20  1  0
 18 19  1  0
 18 22  1  0
 18 23  1  0
  9 10  1  0
  9 11  1  0
 10 12  1  0
 11  5  1  1
 33 34  1  0
 33 35  1  0
 34 36  1  0
 35 37  1  0
 36 42  1  1
 20 21  2  0
 21 22  1  0
M  CHG  2   2  -1  26  -1
M  END
>  <COMPND>  (51) 
    8629 

>  <AUTHOR>  (51) 
    GENERATED BY OPEN BABEL 3.1.1

>  <MASTER>  (51) 
        0    0    0    0    0    0    0    0   58    0   58    0

>  <minimizedAffinity>  (51) 
-6.45450

>  <CNNscore>  (51) 
0.3871717155

>  <CNNaffinity>  (51) 
4.0594706535

>  <CNN_VS>  (51) 
1.5717122555

>  <CNNaffinity_variance>  (51) 
0.0295776464

$$$$
52
     RDKit          3D

 43 45  0  0  0  0  0  0  0  0999 V2000
   23.0879   72.2616   -4.6639 P   0  0  2  0  0  0  0  0  0  0  0  0
   24.0978   72.6876   -5.8538 O   0  0  0  0  0  0  0  0  0  0  0  0
   22.6773   73.3792   -3.7507 O   0  0  0  0  0  0  0  0  0  0  0  0
   23.8293   71.0108   -3.9542 O   0  0  0  0  0  0  0  0  0  0  0  0
   25.1227   70.6474   -4.4047 C   0  0  0  0  0  0  0  0  0  0  0  0
   26.8147   69.4337   -3.2055 O   0  0  0  0  0  0  0  0  0  0  0  0
   27.6051   72.0732   -2.0228 O   0  0  0  0  0  0  0  0  0  0  0  0
   29.4851   71.7046   -3.9634 O   0  0  0  0  0  0  0  0  0  0  0  0
   27.1369   71.7777   -3.3376 C   0  0  1  0  0  0  0  0  0  0  0  0
   28.2233   71.0941   -4.1413 C   0  0  2  0  0  0  0  0  0  0  0  0
   26.0857   70.6805   -3.2258 C   0  0  1  0  0  0  0  0  0  0  0  0
   28.1766   69.6778   -3.5935 C   0  0  2  0  0  0  0  0  0  0  0  0
   28.2773   72.7718   -2.0685 H   0  0  0  0  0  0  0  0  0  0  0  0
   29.4640   72.6032   -4.3280 H   0  0  0  0  0  0  0  0  0  0  0  0
   30.8421   68.8776   -4.0760 O   0  0  0  0  0  0  0  0  0  0  0  0
   29.5515   65.9184   -7.3652 O   0  0  0  0  0  0  0  0  0  0  0  0
   28.5658   68.6998   -4.5699 N   0  0  0  0  0  0  0  0  0  0  0  0
   30.1973   67.4047   -5.7132 N   0  0  0  0  0  0  0  0  0  0  0  0
   29.9314   68.3702   -4.7339 C   0  0  0  0  0  0  0  0  0  0  0  0
   27.5983   68.0784   -5.3521 C   0  0  0  0  0  0  0  0  0  0  0  0
   27.8685   67.1605   -6.2825 C   0  0  0  0  0  0  0  0  0  0  0  0
   29.2707   66.7594   -6.5169 C   0  0  0  0  0  0  0  0  0  0  0  0
   31.1418   67.1595   -5.8454 H   0  0  0  0  0  0  0  0  0  0  0  0
   21.8677   71.5583   -5.4571 O   0  0  0  0  0  0  0  0  0  0  0  0
   21.1297   71.9573   -6.8388 P   0  0  2  0  0  0  0  0  0  0  0  0
   22.0056   71.1903   -7.9622 O   0  0  0  0  0  0  0  0  0  0  0  0
   20.9965   73.4361   -7.0605 O   0  0  0  0  0  0  0  0  0  0  0  0
   19.7281   71.1580   -6.7989 O   0  0  0  0  0  0  0  0  0  0  0  0
   18.0574   72.6503   -7.5726 O   0  0  0  0  0  0  0  0  0  0  0  0
   15.6726   69.4045   -6.6621 O   0  0  0  0  0  0  0  0  0  0  0  0
   16.1706   70.0716   -9.4108 O   0  0  0  0  0  0  0  0  0  0  0  0
   17.9113   70.0757   -4.9542 O   0  0  0  0  0  0  0  0  0  0  0  0
   16.8563   70.0642   -7.1194 C   0  0  1  0  0  0  0  0  0  0  0  0
   16.4861   70.9347   -8.3219 C   0  0  1  0  0  0  0  0  0  0  0  0
   17.4186   70.9220   -5.9874 C   0  0  2  0  0  0  0  0  0  0  0  0
   17.6387   71.8742   -8.7014 C   0  0  1  0  0  0  0  0  0  0  0  0
   18.5258   71.8546   -6.4820 C   0  0  1  0  0  0  0  0  0  0  0  0
   15.3108   68.8578   -7.3760 H   0  0  0  0  0  0  0  0  0  0  0  0
   15.4418   69.4833   -9.1580 H   0  0  0  0  0  0  0  0  0  0  0  0
   17.2010   69.4905   -4.6495 H   0  0  0  0  0  0  0  0  0  0  0  0
   15.8590   72.6852  -10.0740 O   0  0  0  0  0  0  0  0  0  0  0  0
   17.2361   72.8601   -9.7959 C   0  0  0  0  0  0  0  0  0  0  0  0
   15.5886   73.3064  -10.7687 H   0  0  0  0  0  0  0  0  0  0  0  0
 25 28  1  0
 25 24  1  0
 25 26  1  6
 25 27  2  0
  1  4  1  0
  1 24  1  0
  1  2  1  6
  1  3  2  0
  6 11  1  0
  6 12  1  0
 29 36  1  0
 29 37  1  0
  9  7  1  1
  7 13  1  0
 10  8  1  1
  8 14  1  0
 37 28  1  6
  4  5  1  0
 33 30  1  1
 30 38  1  0
 34 31  1  6
 31 39  1  0
 35 32  1  1
 32 40  1  0
 41 42  1  0
 41 43  1  0
 15 19  2  0
 16 22  2  0
 12 17  1  6
 17 19  1  0
 17 20  1  0
 18 19  1  0
 18 22  1  0
 18 23  1  0
  9 10  1  0
  9 11  1  0
 10 12  1  0
 11  5  1  6
 33 34  1  0
 33 35  1  0
 34 36  1  0
 35 37  1  0
 36 42  1  6
 20 21  2  0
 21 22  1  0
M  CHG  2   2  -1  26  -1
M  END
>  <COMPND>  (52) 
    8629 

>  <AUTHOR>  (52) 
    GENERATED BY OPEN BABEL 3.1.1

>  <MASTER>  (52) 
        0    0    0    0    0    0    0    0   58    0   58    0

>  <minimizedAffinity>  (52) 
-7.19110

>  <CNNscore>  (52) 
0.3686416447

>  <CNNaffinity>  (52) 
4.3509712219

>  <CNN_VS>  (52) 
1.6039491892

>  <CNNaffinity_variance>  (52) 
0.0830458999

$$$$
53
     RDKit          3D

 43 45  0  0  0  0  0  0  0  0999 V2000
   23.7711   71.8110   -3.8839 P   0  0  2  0  0  0  0  0  0  0  0  0
   24.0725   73.3788   -4.1459 O   0  0  0  0  0  0  0  0  0  0  0  0
   23.4892   71.4500   -2.4550 O   0  0  0  0  0  0  0  0  0  0  0  0
   25.0289   71.0546   -4.5648 O   0  0  0  0  0  0  0  0  0  0  0  0
   26.3222   71.6091   -4.3984 C   0  0  0  0  0  0  0  0  0  0  0  0
   27.2385   69.7222   -3.2264 O   0  0  0  0  0  0  0  0  0  0  0  0
   28.3629   71.7116   -1.2849 O   0  0  0  0  0  0  0  0  0  0  0  0
   30.5233   71.1079   -2.8357 O   0  0  0  0  0  0  0  0  0  0  0  0
   28.2031   71.8214   -2.6984 C   0  0  1  0  0  0  0  0  0  0  0  0
   29.2395   70.9785   -3.4118 C   0  0  2  0  0  0  0  0  0  0  0  0
   26.9054   71.1200   -3.0798 C   0  0  1  0  0  0  0  0  0  0  0  0
   28.6680   69.5793   -3.2578 C   0  0  2  0  0  0  0  0  0  0  0  0
   29.1851   72.1526   -1.0174 H   0  0  0  0  0  0  0  0  0  0  0  0
   30.8436   72.0151   -2.9597 H   0  0  0  0  0  0  0  0  0  0  0  0
   30.9823   67.9613   -3.3197 O   0  0  0  0  0  0  0  0  0  0  0  0
   29.9430   66.3162   -7.4976 O   0  0  0  0  0  0  0  0  0  0  0  0
   29.0266   68.7180   -4.3491 N   0  0  0  0  0  0  0  0  0  0  0  0
   30.4629   67.1433   -5.3999 N   0  0  0  0  0  0  0  0  0  0  0  0
   30.2109   67.9477   -4.2811 C   0  0  0  0  0  0  0  0  0  0  0  0
   28.2080   68.6432   -5.4708 C   0  0  0  0  0  0  0  0  0  0  0  0
   28.4631   67.8722   -6.5299 C   0  0  0  0  0  0  0  0  0  0  0  0
   29.6806   67.0357   -6.5388 C   0  0  0  0  0  0  0  0  0  0  0  0
   31.2825   66.5981   -5.3750 H   0  0  0  0  0  0  0  0  0  0  0  0
   22.5606   71.4975   -4.9083 O   0  0  0  0  0  0  0  0  0  0  0  0
   21.2242   70.6055   -4.7314 P   0  0  2  0  0  0  0  0  0  0  0  0
   20.3463   71.4583   -3.6733 O   0  0  0  0  0  0  0  0  0  0  0  0
   21.4826   69.1852   -4.3191 O   0  0  0  0  0  0  0  0  0  0  0  0
   20.4394   70.7629   -6.1329 O   0  0  0  0  0  0  0  0  0  0  0  0
   19.2259   72.6389   -6.9234 O   0  0  0  0  0  0  0  0  0  0  0  0
   16.9738   69.6287   -8.6314 O   0  0  0  0  0  0  0  0  0  0  0  0
   18.6694   71.2468  -10.2911 O   0  0  0  0  0  0  0  0  0  0  0  0
   18.0578   69.2877   -5.9691 O   0  0  0  0  0  0  0  0  0  0  0  0
   18.1728   70.2575   -8.1708 C   0  0  1  0  0  0  0  0  0  0  0  0
   18.3528   71.5680   -8.9395 C   0  0  1  0  0  0  0  0  0  0  0  0
   18.0518   70.5256   -6.6719 C   0  0  2  0  0  0  0  0  0  0  0  0
   19.4643   72.4257   -8.3197 C   0  0  1  0  0  0  0  0  0  0  0  0
   19.1792   71.4277   -6.1666 C   0  0  1  0  0  0  0  0  0  0  0  0
   17.0443   69.4552   -9.5824 H   0  0  0  0  0  0  0  0  0  0  0  0
   17.9599   70.7047  -10.6706 H   0  0  0  0  0  0  0  0  0  0  0  0
   17.3394   68.7258   -6.2979 H   0  0  0  0  0  0  0  0  0  0  0  0
   18.4840   73.9378   -9.8886 O   0  0  0  0  0  0  0  0  0  0  0  0
   19.5547   73.8034   -8.9722 C   0  0  0  0  0  0  0  0  0  0  0  0
   18.5286   74.8101  -10.3114 H   0  0  0  0  0  0  0  0  0  0  0  0
 25 28  1  0
 25 24  1  0
 25 26  1  1
 25 27  2  0
  1  4  1  0
  1 24  1  0
  1  2  1  1
  1  3  2  0
  6 11  1  0
  6 12  1  0
 29 36  1  0
 29 37  1  0
  9  7  1  1
  7 13  1  0
 10  8  1  1
  8 14  1  0
 37 28  1  6
  4  5  1  0
 33 30  1  6
 30 38  1  0
 34 31  1  6
 31 39  1  0
 35 32  1  1
 32 40  1  0
 41 42  1  0
 41 43  1  0
 15 19  2  0
 16 22  2  0
 12 17  1  6
 17 19  1  0
 17 20  1  0
 18 19  1  0
 18 22  1  0
 18 23  1  0
  9 10  1  0
  9 11  1  0
 10 12  1  0
 11  5  1  6
 33 34  1  0
 33 35  1  0
 34 36  1  0
 35 37  1  0
 36 42  1  6
 20 21  2  0
 21 22  1  0
M  CHG  2   2  -1  26  -1
M  END
>  <COMPND>  (53) 
    8629 

>  <AUTHOR>  (53) 
    GENERATED BY OPEN BABEL 3.1.1

>  <MASTER>  (53) 
        0    0    0    0    0    0    0    0   58    0   58    0

>  <minimizedAffinity>  (53) 
-7.00426

>  <CNNscore>  (53) 
0.3628838062

>  <CNNaffinity>  (53) 
4.4153509140

>  <CNN_VS>  (53) 
1.6022593975

>  <CNNaffinity_variance>  (53) 
0.0964643210

$$$$
54
     RDKit          3D

 43 45  0  0  0  0  0  0  0  0999 V2000
   22.4390   72.3174   -5.4254 P   0  0  2  0  0  0  0  0  0  0  0  0
   22.2465   73.9146   -5.2545 O   0  0  0  0  0  0  0  0  0  0  0  0
   22.2819   71.8065   -6.8274 O   0  0  0  0  0  0  0  0  0  0  0  0
   21.4299   71.6852   -4.3300 O   0  0  0  0  0  0  0  0  0  0  0  0
   21.9779   71.1290   -3.1476 C   0  0  0  0  0  0  0  0  0  0  0  0
   21.6233   70.8757   -0.7845 O   0  0  0  0  0  0  0  0  0  0  0  0
   19.3767   72.8361   -1.1011 O   0  0  0  0  0  0  0  0  0  0  0  0
   21.3779   74.3845   -0.0842 O   0  0  0  0  0  0  0  0  0  0  0  0
   20.6376   72.7936   -1.7671 C   0  0  1  0  0  0  0  0  0  0  0  0
   21.7414   73.2422   -0.8323 C   0  0  2  0  0  0  0  0  0  0  0  0
   20.9949   71.3314   -2.0026 C   0  0  1  0  0  0  0  0  0  0  0  0
   21.9373   72.0119    0.0373 C   0  0  2  0  0  0  0  0  0  0  0  0
   19.1272   73.7601   -0.9402 H   0  0  0  0  0  0  0  0  0  0  0  0
   21.2651   75.1401   -0.6818 H   0  0  0  0  0  0  0  0  0  0  0  0
   22.6403   71.2343    2.6600 O   0  0  0  0  0  0  0  0  0  0  0  0
   27.1457   71.5629    1.7462 O   0  0  0  0  0  0  0  0  0  0  0  0
   23.2865   71.8856    0.5117 N   0  0  0  0  0  0  0  0  0  0  0  0
   24.8831   71.3983    2.2028 N   0  0  0  0  0  0  0  0  0  0  0  0
   23.5313   71.4894    1.8472 C   0  0  0  0  0  0  0  0  0  0  0  0
   24.3497   72.1531   -0.3437 C   0  0  0  0  0  0  0  0  0  0  0  0
   25.6331   72.0628    0.0113 C   0  0  0  0  0  0  0  0  0  0  0  0
   25.9752   71.6550    1.3892 C   0  0  0  0  0  0  0  0  0  0  0  0
   25.0778   71.1244    3.1284 H   0  0  0  0  0  0  0  0  0  0  0  0
   23.8944   72.0549   -4.7729 O   0  0  0  0  0  0  0  0  0  0  0  0
   25.2699   72.8982   -4.8718 P   0  0  2  0  0  0  0  0  0  0  0  0
   25.3515   73.6445   -3.4386 O   0  0  0  0  0  0  0  0  0  0  0  0
   25.3430   73.8197   -6.0548 O   0  0  0  0  0  0  0  0  0  0  0  0
   26.4367   71.7844   -4.8184 O   0  0  0  0  0  0  0  0  0  0  0  0
   26.6296   69.7808   -3.5674 O   0  0  0  0  0  0  0  0  0  0  0  0
   30.5573   71.0441   -3.3997 O   0  0  0  0  0  0  0  0  0  0  0  0
   29.8583   68.8018   -5.0525 O   0  0  0  0  0  0  0  0  0  0  0  0
   28.4099   72.9768   -3.2185 O   0  0  0  0  0  0  0  0  0  0  0  0
   29.2702   70.8662   -3.9973 C   0  0  1  0  0  0  0  0  0  0  0  0
   28.9830   69.3657   -4.0798 C   0  0  1  0  0  0  0  0  0  0  0  0
   28.2199   71.5683   -3.1387 C   0  0  2  0  0  0  0  0  0  0  0  0
   27.5200   69.1018   -4.4606 C   0  0  1  0  0  0  0  0  0  0  0  0
   26.7993   71.1996   -3.5703 C   0  0  1  0  0  0  0  0  0  0  0  0
   31.2289   70.6011   -3.9403 H   0  0  0  0  0  0  0  0  0  0  0  0
   30.7789   68.9759   -4.8005 H   0  0  0  0  0  0  0  0  0  0  0  0
   29.3127   73.1973   -2.9425 H   0  0  0  0  0  0  0  0  0  0  0  0
   27.1157   67.2276   -3.0348 O   0  0  0  0  0  0  0  0  0  0  0  0
   27.1709   67.6166   -4.3949 C   0  0  0  0  0  0  0  0  0  0  0  0
   26.8941   66.2846   -2.9775 H   0  0  0  0  0  0  0  0  0  0  0  0
 25 28  1  0
 25 24  1  0
 25 26  1  1
 25 27  2  0
  1  4  1  0
  1 24  1  0
  1  2  1  6
  1  3  2  0
  6 11  1  0
  6 12  1  0
 29 36  1  0
 29 37  1  0
  9  7  1  1
  7 13  1  0
 10  8  1  1
  8 14  1  0
 37 28  1  6
  4  5  1  0
 33 30  1  1
 30 38  1  0
 34 31  1  6
 31 39  1  0
 35 32  1  6
 32 40  1  0
 41 42  1  0
 41 43  1  0
 15 19  2  0
 16 22  2  0
 12 17  1  6
 17 19  1  0
 17 20  1  0
 18 19  1  0
 18 22  1  0
 18 23  1  0
  9 10  1  0
  9 11  1  0
 10 12  1  0
 11  5  1  6
 33 34  1  0
 33 35  1  0
 34 36  1  0
 35 37  1  0
 36 42  1  1
 20 21  2  0
 21 22  1  0
M  CHG  2   2  -1  26  -1
M  END
>  <COMPND>  (54) 
    8629 

>  <AUTHOR>  (54) 
    GENERATED BY OPEN BABEL 3.1.1

>  <MASTER>  (54) 
        0    0    0    0    0    0    0    0   58    0   58    0

>  <minimizedAffinity>  (54) 
-6.99989

>  <CNNscore>  (54) 
0.3190166950

>  <CNNaffinity>  (54) 
3.6740295887

>  <CNN_VS>  (54) 
1.1720768213

>  <CNNaffinity_variance>  (54) 
0.5418929458

$$$$
55
     RDKit          3D

 43 45  0  0  0  0  0  0  0  0999 V2000
   26.7613   72.2105   -1.5008 P   0  0  2  0  0  0  0  0  0  0  0  0
   26.7641   73.5968   -2.3348 O   0  0  0  0  0  0  0  0  0  0  0  0
   25.5021   71.9356   -0.7324 O   0  0  0  0  0  0  0  0  0  0  0  0
   28.1185   72.2827   -0.6228 O   0  0  0  0  0  0  0  0  0  0  0  0
   28.8230   73.5108   -0.5669 C   0  0  0  0  0  0  0  0  0  0  0  0
   31.1175   73.2327    0.0903 O   0  0  0  0  0  0  0  0  0  0  0  0
   31.5666   72.0877   -2.6443 O   0  0  0  0  0  0  0  0  0  0  0  0
   31.4162   69.8568   -1.0832 O   0  0  0  0  0  0  0  0  0  0  0  0
   30.4309   71.9642   -1.7899 C   0  0  1  0  0  0  0  0  0  0  0  0
   30.7317   71.0144   -0.6493 C   0  0  2  0  0  0  0  0  0  0  0  0
   30.2462   73.2890   -1.0604 C   0  0  1  0  0  0  0  0  0  0  0  0
   31.5749   71.8823    0.2694 C   0  0  2  0  0  0  0  0  0  0  0  0
   31.7045   71.2538   -3.1213 H   0  0  0  0  0  0  0  0  0  0  0  0
   30.8384   69.3382   -1.6645 H   0  0  0  0  0  0  0  0  0  0  0  0
   32.8616   69.6820    1.4862 O   0  0  0  0  0  0  0  0  0  0  0  0
   30.9412   70.5871    5.5769 O   0  0  0  0  0  0  0  0  0  0  0  0
   31.4293   71.5200    1.6510 N   0  0  0  0  0  0  0  0  0  0  0  0
   31.9045   70.1346    3.5221 N   0  0  0  0  0  0  0  0  0  0  0  0
   32.1186   70.3960    2.1628 C   0  0  0  0  0  0  0  0  0  0  0  0
   30.6107   72.2760    2.4831 C   0  0  0  0  0  0  0  0  0  0  0  0
   30.4162   72.0126    3.7769 C   0  0  0  0  0  0  0  0  0  0  0  0
   31.0997   70.8555    4.3900 C   0  0  0  0  0  0  0  0  0  0  0  0
   32.3741   69.3561    3.9005 H   0  0  0  0  0  0  0  0  0  0  0  0
   27.1160   71.1075   -2.6279 O   0  0  0  0  0  0  0  0  0  0  0  0
   26.2186   70.4765   -3.8152 P   0  0  2  0  0  0  0  0  0  0  0  0
   25.9892   71.7294   -4.8128 O   0  0  0  0  0  0  0  0  0  0  0  0
   24.9533   69.8182   -3.3467 O   0  0  0  0  0  0  0  0  0  0  0  0
   27.2253   69.4992   -4.6129 O   0  0  0  0  0  0  0  0  0  0  0  0
   26.9100   67.2119   -5.1471 O   0  0  0  0  0  0  0  0  0  0  0  0
   31.0080   67.2121   -4.6393 O   0  0  0  0  0  0  0  0  0  0  0  0
   29.9066   66.9798   -7.2815 O   0  0  0  0  0  0  0  0  0  0  0  0
   29.3371   68.8107   -2.8979 O   0  0  0  0  0  0  0  0  0  0  0  0
   29.7428   67.7562   -5.0251 C   0  0  1  0  0  0  0  0  0  0  0  0
   29.1339   66.8442   -6.0920 C   0  0  1  0  0  0  0  0  0  0  0  0
   28.8356   67.8286   -3.7982 C   0  0  2  0  0  0  0  0  0  0  0  0
   27.6682   67.2099   -6.3624 C   0  0  1  0  0  0  0  0  0  0  0  0
   27.3904   68.1506   -4.1827 C   0  0  1  0  0  0  0  0  0  0  0  0
   31.5889   67.1638   -5.4136 H   0  0  0  0  0  0  0  0  0  0  0  0
   30.8300   66.7465   -7.0969 H   0  0  0  0  0  0  0  0  0  0  0  0
   30.2524   68.5954   -2.6619 H   0  0  0  0  0  0  0  0  0  0  0  0
   26.7306   66.8696   -8.5336 O   0  0  0  0  0  0  0  0  0  0  0  0
   26.9954   66.2156   -7.3062 C   0  0  0  0  0  0  0  0  0  0  0  0
   26.3027   66.2487   -9.1444 H   0  0  0  0  0  0  0  0  0  0  0  0
 25 28  1  0
 25 24  1  0
 25 26  1  6
 25 27  2  0
  1  4  1  0
  1 24  1  0
  1  2  1  6
  1  3  2  0
  6 11  1  0
  6 12  1  0
 29 36  1  0
 29 37  1  0
  9  7  1  6
  7 13  1  0
 10  8  1  6
  8 14  1  0
 37 28  1  6
  4  5  1  0
 33 30  1  1
 30 38  1  0
 34 31  1  6
 31 39  1  0
 35 32  1  1
 32 40  1  0
 41 42  1  0
 41 43  1  0
 15 19  2  0
 16 22  2  0
 12 17  1  1
 17 19  1  0
 17 20  1  0
 18 19  1  0
 18 22  1  0
 18 23  1  0
  9 10  1  0
  9 11  1  0
 10 12  1  0
 11  5  1  1
 33 34  1  0
 33 35  1  0
 34 36  1  0
 35 37  1  0
 36 42  1  6
 20 21  2  0
 21 22  1  0
M  CHG  2   2  -1  26  -1
M  END
>  <COMPND>  (55) 
    8629 

>  <AUTHOR>  (55) 
    GENERATED BY OPEN BABEL 3.1.1

>  <MASTER>  (55) 
        0    0    0    0    0    0    0    0   58    0   58    0

>  <minimizedAffinity>  (55) 
-7.76159

>  <CNNscore>  (55) 
0.3124282658

>  <CNNaffinity>  (55) 
4.0692472458

>  <CNN_VS>  (55) 
1.2713478804

>  <CNNaffinity_variance>  (55) 
0.0799605623

$$$$
56
     RDKit          3D

 43 45  0  0  0  0  0  0  0  0999 V2000
   25.4586   70.9270   -3.1912 P   0  0  2  0  0  0  0  0  0  0  0  0
   25.7204   71.9553   -4.4125 O   0  0  0  0  0  0  0  0  0  0  0  0
   25.2838   69.4930   -3.5965 O   0  0  0  0  0  0  0  0  0  0  0  0
   24.2187   71.5862   -2.3875 O   0  0  0  0  0  0  0  0  0  0  0  0
   23.0016   70.8645   -2.3123 C   0  0  0  0  0  0  0  0  0  0  0  0
   22.3158   71.2391   -0.0400 O   0  0  0  0  0  0  0  0  0  0  0  0
   20.9777   73.7248   -1.0508 O   0  0  0  0  0  0  0  0  0  0  0  0
   23.2743   74.6938    0.0552 O   0  0  0  0  0  0  0  0  0  0  0  0
   22.2050   73.1281   -1.4667 C   0  0  1  0  0  0  0  0  0  0  0  0
   23.2835   73.3670   -0.4306 C   0  0  2  0  0  0  0  0  0  0  0  0
   22.0353   71.6151   -1.4061 C   0  0  1  0  0  0  0  0  0  0  0  0
   22.9235   72.3501    0.6392 C   0  0  2  0  0  0  0  0  0  0  0  0
   21.0616   74.6912   -1.0815 H   0  0  0  0  0  0  0  0  0  0  0  0
   23.5094   75.3027   -0.6623 H   0  0  0  0  0  0  0  0  0  0  0  0
   22.8099   70.9278    3.0768 O   0  0  0  0  0  0  0  0  0  0  0  0
   27.4014   70.6100    3.3167 O   0  0  0  0  0  0  0  0  0  0  0  0
   24.0739   71.8832    1.3603 N   0  0  0  0  0  0  0  0  0  0  0  0
   25.0962   70.7705    3.1942 N   0  0  0  0  0  0  0  0  0  0  0  0
   23.9077   71.1794    2.5758 C   0  0  0  0  0  0  0  0  0  0  0  0
   25.3493   72.1240    0.8612 C   0  0  0  0  0  0  0  0  0  0  0  0
   26.4726   71.7286    1.4637 C   0  0  0  0  0  0  0  0  0  0  0  0
   26.3870   70.9870    2.7383 C   0  0  0  0  0  0  0  0  0  0  0  0
   25.0051   70.2788    4.0425 H   0  0  0  0  0  0  0  0  0  0  0  0
   26.7140   71.2007   -2.2103 O   0  0  0  0  0  0  0  0  0  0  0  0
   28.2443   71.6088   -2.5334 P   0  0  2  0  0  0  0  0  0  0  0  0
   29.0082   71.3194   -1.1369 O   0  0  0  0  0  0  0  0  0  0  0  0
   28.4117   73.0075   -3.0525 O   0  0  0  0  0  0  0  0  0  0  0  0
   28.7721   70.4568   -3.5330 O   0  0  0  0  0  0  0  0  0  0  0  0
   28.0772   68.1989   -3.7224 O   0  0  0  0  0  0  0  0  0  0  0  0
   32.0957   67.7239   -4.5452 O   0  0  0  0  0  0  0  0  0  0  0  0
   30.1753   67.4785   -6.6665 O   0  0  0  0  0  0  0  0  0  0  0  0
   31.2497   69.6126   -2.5212 O   0  0  0  0  0  0  0  0  0  0  0  0
   30.8337   68.3966   -4.5583 C   0  0  1  0  0  0  0  0  0  0  0  0
   29.8237   67.5071   -5.2860 C   0  0  1  0  0  0  0  0  0  0  0  0
   30.3882   68.6499   -3.1193 C   0  0  2  0  0  0  0  0  0  0  0  0
   28.3933   68.0343   -5.1097 C   0  0  1  0  0  0  0  0  0  0  0  0
   28.9355   69.1248   -3.0531 C   0  0  1  0  0  0  0  0  0  0  0  0
   32.3845   67.5604   -5.4559 H   0  0  0  0  0  0  0  0  0  0  0  0
   31.0808   67.1442   -6.7639 H   0  0  0  0  0  0  0  0  0  0  0  0
   32.1662   69.3001   -2.5692 H   0  0  0  0  0  0  0  0  0  0  0  0
   26.2867   66.9585   -4.7725 O   0  0  0  0  0  0  0  0  0  0  0  0
   27.3553   67.0782   -5.6933 C   0  0  0  0  0  0  0  0  0  0  0  0
   25.6182   66.3531   -5.1307 H   0  0  0  0  0  0  0  0  0  0  0  0
 25 28  1  0
 25 24  1  0
 25 26  1  1
 25 27  2  0
  1  4  1  0
  1 24  1  0
  1  2  1  6
  1  3  2  0
  6 11  1  0
  6 12  1  0
 29 36  1  0
 29 37  1  0
  9  7  1  1
  7 13  1  0
 10  8  1  1
  8 14  1  0
 37 28  1  6
  4  5  1  0
 33 30  1  1
 30 38  1  0
 34 31  1  6
 31 39  1  0
 35 32  1  6
 32 40  1  0
 41 42  1  0
 41 43  1  0
 15 19  2  0
 16 22  2  0
 12 17  1  6
 17 19  1  0
 17 20  1  0
 18 19  1  0
 18 22  1  0
 18 23  1  0
  9 10  1  0
  9 11  1  0
 10 12  1  0
 11  5  1  6
 33 34  1  0
 33 35  1  0
 34 36  1  0
 35 37  1  0
 36 42  1  1
 20 21  2  0
 21 22  1  0
M  CHG  2   2  -1  26  -1
M  END
>  <COMPND>  (56) 
    8629 

>  <AUTHOR>  (56) 
    GENERATED BY OPEN BABEL 3.1.1

>  <MASTER>  (56) 
        0    0    0    0    0    0    0    0   58    0   58    0

>  <minimizedAffinity>  (56) 
-6.80885

>  <CNNscore>  (56) 
0.3076646328

>  <CNNaffinity>  (56) 
3.9943752289

>  <CNN_VS>  (56) 
1.2289279699

>  <CNNaffinity_variance>  (56) 
0.1313496083

$$$$
57
     RDKit          3D

 43 45  0  0  0  0  0  0  0  0999 V2000
   16.9608   72.3277   -2.9988 P   0  0  2  0  0  0  0  0  0  0  0  0
   18.0729   71.1659   -3.1745 O   0  0  0  0  0  0  0  0  0  0  0  0
   17.4693   73.7262   -3.1911 O   0  0  0  0  0  0  0  0  0  0  0  0
   16.2956   72.0139   -1.5576 O   0  0  0  0  0  0  0  0  0  0  0  0
   15.3670   70.9481   -1.4592 C   0  0  0  0  0  0  0  0  0  0  0  0
   13.6144   70.0559   -0.0786 O   0  0  0  0  0  0  0  0  0  0  0  0
   15.2213   71.0222    2.2613 O   0  0  0  0  0  0  0  0  0  0  0  0
   15.7935   68.3565    2.2075 O   0  0  0  0  0  0  0  0  0  0  0  0
   15.6705   70.4758    1.0223 C   0  0  1  0  0  0  0  0  0  0  0  0
   15.4351   68.9801    0.9912 C   0  0  2  0  0  0  0  0  0  0  0  0
   14.7344   70.9680   -0.0744 C   0  0  1  0  0  0  0  0  0  0  0  0
   13.9439   68.9015    0.7112 C   0  0  2  0  0  0  0  0  0  0  0  0
   15.8040   70.7220    2.9770 H   0  0  0  0  0  0  0  0  0  0  0  0
   16.7513   68.4331    2.3404 H   0  0  0  0  0  0  0  0  0  0  0  0
   13.2637   66.4334    1.9043 O   0  0  0  0  0  0  0  0  0  0  0  0
   12.5870   64.4313   -2.1914 O   0  0  0  0  0  0  0  0  0  0  0  0
   13.5854   67.7188   -0.0196 N   0  0  0  0  0  0  0  0  0  0  0  0
   12.9271   65.4386   -0.1360 N   0  0  0  0  0  0  0  0  0  0  0  0
   13.2619   66.5302    0.6754 C   0  0  0  0  0  0  0  0  0  0  0  0
   13.5569   67.7451   -1.4097 C   0  0  0  0  0  0  0  0  0  0  0  0
   13.2368   66.6951   -2.1688 C   0  0  0  0  0  0  0  0  0  0  0  0
   12.8857   65.4148   -1.5210 C   0  0  0  0  0  0  0  0  0  0  0  0
   12.6984   64.5996    0.3262 H   0  0  0  0  0  0  0  0  0  0  0  0
   15.8042   71.8837   -4.0371 O   0  0  0  0  0  0  0  0  0  0  0  0
   15.8708   70.9873   -5.3806 P   0  0  2  0  0  0  0  0  0  0  0  0
   14.6065   71.5145   -6.2415 O   0  0  0  0  0  0  0  0  0  0  0  0
   15.8771   69.5066   -5.1328 O   0  0  0  0  0  0  0  0  0  0  0  0
   17.1632   71.5379   -6.1754 O   0  0  0  0  0  0  0  0  0  0  0  0
   17.8558   70.1504   -7.9675 O   0  0  0  0  0  0  0  0  0  0  0  0
   21.1754   72.5918   -7.7023 O   0  0  0  0  0  0  0  0  0  0  0  0
   19.3665   72.8933   -9.9125 O   0  0  0  0  0  0  0  0  0  0  0  0
   19.8204   71.7305   -5.2937 O   0  0  0  0  0  0  0  0  0  0  0  0
   19.7820   72.2759   -7.6394 C   0  0  1  0  0  0  0  0  0  0  0  0
   19.3390   71.7840   -9.0187 C   0  0  1  0  0  0  0  0  0  0  0  0
   19.5630   71.1916   -6.5859 C   0  0  2  0  0  0  0  0  0  0  0  0
   17.9309   71.1764   -8.9642 C   0  0  1  0  0  0  0  0  0  0  0  0
   18.1454   70.6204   -6.6495 C   0  0  1  0  0  0  0  0  0  0  0  0
   21.3212   73.2801   -8.3690 H   0  0  0  0  0  0  0  0  0  0  0  0
   20.2611   73.2680   -9.9373 H   0  0  0  0  0  0  0  0  0  0  0  0
   20.7209   72.0885   -5.2663 H   0  0  0  0  0  0  0  0  0  0  0  0
   16.1952   70.0826  -10.1890 O   0  0  0  0  0  0  0  0  0  0  0  0
   17.5317   70.5377  -10.2928 C   0  0  0  0  0  0  0  0  0  0  0  0
   15.9274   69.6740  -11.0275 H   0  0  0  0  0  0  0  0  0  0  0  0
 25 28  1  0
 25 24  1  0
 25 26  1  6
 25 27  2  0
  1  4  1  0
  1 24  1  0
  1  2  1  6
  1  3  2  0
  6 11  1  0
  6 12  1  0
 29 36  1  0
 29 37  1  0
  9  7  1  1
  7 13  1  0
 10  8  1  1
  8 14  1  0
 37 28  1  6
  4  5  1  0
 33 30  1  6
 30 38  1  0
 34 31  1  6
 31 39  1  0
 35 32  1  1
 32 40  1  0
 41 42  1  0
 41 43  1  0
 15 19  2  0
 16 22  2  0
 12 17  1  6
 17 19  1  0
 17 20  1  0
 18 19  1  0
 18 22  1  0
 18 23  1  0
  9 10  1  0
  9 11  1  0
 10 12  1  0
 11  5  1  6
 33 34  1  0
 33 35  1  0
 34 36  1  0
 35 37  1  0
 36 42  1  6
 20 21  2  0
 21 22  1  0
M  CHG  2   2  -1  26  -1
M  END
>  <COMPND>  (57) 
    8629 

>  <AUTHOR>  (57) 
    GENERATED BY OPEN BABEL 3.1.1

>  <MASTER>  (57) 
        0    0    0    0    0    0    0    0   58    0   58    0

>  <minimizedAffinity>  (57) 
-6.08942

>  <CNNscore>  (57) 
0.2447280437

>  <CNNaffinity>  (57) 
3.9130413532

>  <CNN_VS>  (57) 
0.9576309323

>  <CNNaffinity_variance>  (57) 
0.2202975005

$$$$
58
     RDKit          3D

 43 45  0  0  0  0  0  0  0  0999 V2000
   15.4937   71.3892   -4.7877 P   0  0  2  0  0  0  0  0  0  0  0  0
   17.0208   71.0661   -4.3622 O   0  0  0  0  0  0  0  0  0  0  0  0
   15.0282   72.7800   -4.4707 O   0  0  0  0  0  0  0  0  0  0  0  0
   14.6406   70.1917   -4.1123 O   0  0  0  0  0  0  0  0  0  0  0  0
   15.1408   69.5874   -2.9323 C   0  0  0  0  0  0  0  0  0  0  0  0
   13.7765   69.8807   -0.9762 O   0  0  0  0  0  0  0  0  0  0  0  0
   15.8345   71.8628   -0.0670 O   0  0  0  0  0  0  0  0  0  0  0  0
   16.4725   69.6390    1.3766 O   0  0  0  0  0  0  0  0  0  0  0  0
   16.0118   70.6448   -0.7884 C   0  0  1  0  0  0  0  0  0  0  0  0
   15.8277   69.4567    0.1325 C   0  0  2  0  0  0  0  0  0  0  0  0
   14.8361   70.4908   -1.7452 C   0  0  1  0  0  0  0  0  0  0  0  0
   14.3155   69.3898    0.2621 C   0  0  2  0  0  0  0  0  0  0  0  0
   16.5736   71.9833    0.5504 H   0  0  0  0  0  0  0  0  0  0  0  0
   17.4323   69.6752    1.2413 H   0  0  0  0  0  0  0  0  0  0  0  0
   14.2604   68.1034    2.7760 O   0  0  0  0  0  0  0  0  0  0  0  0
   12.4831   64.2528    0.9717 O   0  0  0  0  0  0  0  0  0  0  0  0
   13.8430   68.0513    0.4782 N   0  0  0  0  0  0  0  0  0  0  0  0
   13.3754   66.1872    1.8756 N   0  0  0  0  0  0  0  0  0  0  0  0
   13.8587   67.4984    1.7799 C   0  0  0  0  0  0  0  0  0  0  0  0
   13.3706   67.3017   -0.5936 C   0  0  0  0  0  0  0  0  0  0  0  0
   12.9143   66.0521   -0.4858 C   0  0  0  0  0  0  0  0  0  0  0  0
   12.8966   65.4007    0.8398 C   0  0  0  0  0  0  0  0  0  0  0  0
   13.3771   65.7812    2.7728 H   0  0  0  0  0  0  0  0  0  0  0  0
   15.4670   71.0127   -6.3595 O   0  0  0  0  0  0  0  0  0  0  0  0
   16.1186   69.7721   -7.1651 P   0  0  2  0  0  0  0  0  0  0  0  0
   15.3043   69.7687   -8.5631 O   0  0  0  0  0  0  0  0  0  0  0  0
   16.0796   68.4678   -6.4226 O   0  0  0  0  0  0  0  0  0  0  0  0
   17.6013   70.2739   -7.5582 O   0  0  0  0  0  0  0  0  0  0  0  0
   18.6559   72.2542   -6.7947 O   0  0  0  0  0  0  0  0  0  0  0  0
   20.4482   71.9392  -10.5014 O   0  0  0  0  0  0  0  0  0  0  0  0
   21.9741   71.3708   -8.1357 O   0  0  0  0  0  0  0  0  0  0  0  0
   17.6529   71.2562  -10.1864 O   0  0  0  0  0  0  0  0  0  0  0  0
   19.8776   71.4508   -9.2843 C   0  0  1  0  0  0  0  0  0  0  0  0
   20.6968   72.0021   -8.1156 C   0  0  1  0  0  0  0  0  0  0  0  0
   18.4262   71.9176   -9.1909 C   0  0  2  0  0  0  0  0  0  0  0  0
   19.9941   71.7437   -6.7760 C   0  0  1  0  0  0  0  0  0  0  0  0
   17.8375   71.6579   -7.8030 C   0  0  1  0  0  0  0  0  0  0  0  0
   21.3697   71.6459  -10.5671 H   0  0  0  0  0  0  0  0  0  0  0  0
   22.4070   71.5413   -8.9870 H   0  0  0  0  0  0  0  0  0  0  0  0
   18.0355   71.4287  -11.0603 H   0  0  0  0  0  0  0  0  0  0  0  0
   21.6882   73.3037   -6.1393 O   0  0  0  0  0  0  0  0  0  0  0  0
   20.7140   72.4219   -5.6124 C   0  0  0  0  0  0  0  0  0  0  0  0
   22.1542   73.7427   -5.4100 H   0  0  0  0  0  0  0  0  0  0  0  0
 25 28  1  0
 25 24  1  0
 25 26  1  6
 25 27  2  0
  1  4  1  0
  1 24  1  0
  1  2  1  1
  1  3  2  0
  6 11  1  0
  6 12  1  0
 29 36  1  0
 29 37  1  0
  9  7  1  1
  7 13  1  0
 10  8  1  1
  8 14  1  0
 37 28  1  1
  4  5  1  0
 33 30  1  6
 30 38  1  0
 34 31  1  1
 31 39  1  0
 35 32  1  6
 32 40  1  0
 41 42  1  0
 41 43  1  0
 15 19  2  0
 16 22  2  0
 12 17  1  6
 17 19  1  0
 17 20  1  0
 18 19  1  0
 18 22  1  0
 18 23  1  0
  9 10  1  0
  9 11  1  0
 10 12  1  0
 11  5  1  6
 33 34  1  0
 33 35  1  0
 34 36  1  0
 35 37  1  0
 36 42  1  1
 20 21  2  0
 21 22  1  0
M  CHG  2   2  -1  26  -1
M  END
>  <COMPND>  (58) 
    8629 

>  <AUTHOR>  (58) 
    GENERATED BY OPEN BABEL 3.1.1

>  <MASTER>  (58) 
        0    0    0    0    0    0    0    0   58    0   58    0

>  <minimizedAffinity>  (58) 
-6.70354

>  <CNNscore>  (58) 
0.2397757918

>  <CNNaffinity>  (58) 
3.9331107140

>  <CNN_VS>  (58) 
0.9430647492

>  <CNNaffinity_variance>  (58) 
0.1545737237

$$$$
59
     RDKit          3D

 43 45  0  0  0  0  0  0  0  0999 V2000
   25.4425   72.1887    1.3449 P   0  0  2  0  0  0  0  0  0  0  0  0
   23.9939   71.8477    0.7102 O   0  0  0  0  0  0  0  0  0  0  0  0
   25.6652   73.6355    1.6748 O   0  0  0  0  0  0  0  0  0  0  0  0
   26.4889   71.5379    0.2964 O   0  0  0  0  0  0  0  0  0  0  0  0
   27.0432   72.3683   -0.7091 C   0  0  0  0  0  0  0  0  0  0  0  0
   29.0625   71.0777   -0.8834 O   0  0  0  0  0  0  0  0  0  0  0  0
   30.5119   73.7017   -0.9513 O   0  0  0  0  0  0  0  0  0  0  0  0
   30.4675   72.9790   -3.5804 O   0  0  0  0  0  0  0  0  0  0  0  0
   29.2466   73.3552   -1.5118 C   0  0  1  0  0  0  0  0  0  0  0  0
   29.4351   72.4964   -2.7449 C   0  0  2  0  0  0  0  0  0  0  0  0
   28.5577   72.3905   -0.5546 C   0  0  1  0  0  0  0  0  0  0  0  0
   29.7589   71.1415   -2.1387 C   0  0  2  0  0  0  0  0  0  0  0  0
   30.9705   74.3176   -1.5448 H   0  0  0  0  0  0  0  0  0  0  0  0
   30.2141   73.8428   -3.9415 H   0  0  0  0  0  0  0  0  0  0  0  0
   31.0019   68.6065   -2.2228 O   0  0  0  0  0  0  0  0  0  0  0  0
   28.0108   67.0408   -5.3601 O   0  0  0  0  0  0  0  0  0  0  0  0
   29.3256   70.0527   -2.9682 N   0  0  0  0  0  0  0  0  0  0  0  0
   29.5114   67.8289   -3.7847 N   0  0  0  0  0  0  0  0  0  0  0  0
   30.0198   68.8208   -2.9364 C   0  0  0  0  0  0  0  0  0  0  0  0
   28.2234   70.2121   -3.8011 C   0  0  0  0  0  0  0  0  0  0  0  0
   27.7520   69.2567   -4.6050 C   0  0  0  0  0  0  0  0  0  0  0  0
   28.4201   67.9396   -4.6318 C   0  0  0  0  0  0  0  0  0  0  0  0
   29.9793   66.9624   -3.7797 H   0  0  0  0  0  0  0  0  0  0  0  0
   25.5285   71.1888    2.6121 O   0  0  0  0  0  0  0  0  0  0  0  0
   26.1922   71.3817    4.0734 P   0  0  2  0  0  0  0  0  0  0  0  0
   25.7703   70.0289    4.8540 O   0  0  0  0  0  0  0  0  0  0  0  0
   25.7898   72.6496    4.7695 O   0  0  0  0  0  0  0  0  0  0  0  0
   27.7797   71.2303    3.8242 O   0  0  0  0  0  0  0  0  0  0  0  0
   29.6037   71.4591    5.3199 O   0  0  0  0  0  0  0  0  0  0  0  0
   31.3075   73.1161    1.9432 O   0  0  0  0  0  0  0  0  0  0  0  0
   32.1584   70.5216    2.8332 O   0  0  0  0  0  0  0  0  0  0  0  0
   28.5217   73.6177    2.5495 O   0  0  0  0  0  0  0  0  0  0  0  0
   30.4732   72.2112    2.6715 C   0  0  1  0  0  0  0  0  0  0  0  0
   31.3586   71.4002    3.6197 C   0  0  1  0  0  0  0  0  0  0  0  0
   29.4355   73.0110    3.4569 C   0  0  2  0  0  0  0  0  0  0  0  0
   30.5125   70.6011    4.6201 C   0  0  1  0  0  0  0  0  0  0  0  0
   28.6838   72.1317    4.4578 C   0  0  1  0  0  0  0  0  0  0  0  0
   31.9683   72.6146    1.4419 H   0  0  0  0  0  0  0  0  0  0  0  0
   32.6873   71.0386    2.2055 H   0  0  0  0  0  0  0  0  0  0  0  0
   29.0098   74.1719    1.9214 H   0  0  0  0  0  0  0  0  0  0  0  0
   32.6951   70.4098    5.5734 O   0  0  0  0  0  0  0  0  0  0  0  0
   31.3745   69.9096    5.6741 C   0  0  0  0  0  0  0  0  0  0  0  0
   33.2550   69.9788    6.2385 H   0  0  0  0  0  0  0  0  0  0  0  0
 25 28  1  0
 25 24  1  0
 25 26  1  1
 25 27  2  0
  1  4  1  0
  1 24  1  0
  1  2  1  6
  1  3  2  0
  6 11  1  0
  6 12  1  0
 29 36  1  0
 29 37  1  0
  9  7  1  1
  7 13  1  0
 10  8  1  6
  8 14  1  0
 37 28  1  6
  4  5  1  0
 33 30  1  1
 30 38  1  0
 34 31  1  6
 31 39  1  0
 35 32  1  6
 32 40  1  0
 41 42  1  0
 41 43  1  0
 15 19  2  0
 16 22  2  0
 12 17  1  6
 17 19  1  0
 17 20  1  0
 18 19  1  0
 18 22  1  0
 18 23  1  0
  9 10  1  0
  9 11  1  0
 10 12  1  0
 11  5  1  6
 33 34  1  0
 33 35  1  0
 34 36  1  0
 35 37  1  0
 36 42  1  1
 20 21  2  0
 21 22  1  0
M  CHG  2   2  -1  26  -1
M  END
>  <COMPND>  (59) 
    8629 

>  <AUTHOR>  (59) 
    GENERATED BY OPEN BABEL 3.1.1

>  <MASTER>  (59) 
        0    0    0    0    0    0    0    0   58    0   58    0

>  <minimizedAffinity>  (59) 
-6.26862

>  <CNNscore>  (59) 
0.2195508182

>  <CNNaffinity>  (59) 
3.8425705433

>  <CNN_VS>  (59) 
0.8436394930

>  <CNNaffinity_variance>  (59) 
0.1449920237

$$$$
60
     RDKit          3D

 43 45  0  0  0  0  0  0  0  0999 V2000
   15.7025   72.1256   -2.4496 P   0  0  2  0  0  0  0  0  0  0  0  0
   14.7284   73.0914   -1.5919 O   0  0  0  0  0  0  0  0  0  0  0  0
   17.1253   72.5909   -2.5532 O   0  0  0  0  0  0  0  0  0  0  0  0
   14.9218   71.9346   -3.8539 O   0  0  0  0  0  0  0  0  0  0  0  0
   15.6856   71.8175   -5.0416 C   0  0  0  0  0  0  0  0  0  0  0  0
   15.6591   70.6982   -7.1678 O   0  0  0  0  0  0  0  0  0  0  0  0
   15.0940   68.1878   -5.6285 O   0  0  0  0  0  0  0  0  0  0  0  0
   17.7600   67.9718   -6.1600 O   0  0  0  0  0  0  0  0  0  0  0  0
   15.9217   69.2951   -5.2762 C   0  0  1  0  0  0  0  0  0  0  0  0
   17.2051   69.2689   -6.0799 C   0  0  2  0  0  0  0  0  0  0  0  0
   15.2514   70.5638   -5.7886 C   0  0  1  0  0  0  0  0  0  0  0  0
   16.7425   69.7913   -7.4294 C   0  0  2  0  0  0  0  0  0  0  0  0
   15.5014   67.3660   -5.3114 H   0  0  0  0  0  0  0  0  0  0  0  0
   18.0390   67.6842   -5.2767 H   0  0  0  0  0  0  0  0  0  0  0  0
   17.1699   69.6422  -10.2174 O   0  0  0  0  0  0  0  0  0  0  0  0
   20.7555   72.5302  -10.0069 O   0  0  0  0  0  0  0  0  0  0  0  0
   17.7803   70.4941   -8.1297 N   0  0  0  0  0  0  0  0  0  0  0  0
   18.9548   71.0804  -10.1104 N   0  0  0  0  0  0  0  0  0  0  0  0
   17.9096   70.3499   -9.5307 C   0  0  0  0  0  0  0  0  0  0  0  0
   18.6559   71.3157   -7.4281 C   0  0  0  0  0  0  0  0  0  0  0  0
   19.6483   72.0045   -7.9956 C   0  0  0  0  0  0  0  0  0  0  0  0
   19.8520   71.9092   -9.4555 C   0  0  0  0  0  0  0  0  0  0  0  0
   19.0644   70.9952  -11.0853 H   0  0  0  0  0  0  0  0  0  0  0  0
   15.5150   70.6896   -1.7314 O   0  0  0  0  0  0  0  0  0  0  0  0
   16.3004   70.0122   -0.4916 P   0  0  2  0  0  0  0  0  0  0  0  0
   16.0651   71.0634    0.7156 O   0  0  0  0  0  0  0  0  0  0  0  0
   17.7426   69.7034   -0.7716 O   0  0  0  0  0  0  0  0  0  0  0  0
   15.4065   68.7284   -0.0942 O   0  0  0  0  0  0  0  0  0  0  0  0
   13.2962   68.0377   -0.9226 O   0  0  0  0  0  0  0  0  0  0  0  0
   12.8675   66.8840    3.0189 O   0  0  0  0  0  0  0  0  0  0  0  0
   13.2334   64.8861    0.9885 O   0  0  0  0  0  0  0  0  0  0  0  0
   14.2347   69.3536    2.3779 O   0  0  0  0  0  0  0  0  0  0  0  0
   13.5758   67.1108    1.7974 C   0  0  1  0  0  0  0  0  0  0  0  0
   12.9365   66.2507    0.7055 C   0  0  1  0  0  0  0  0  0  0  0  0
   13.4863   68.5923    1.4362 C   0  0  2  0  0  0  0  0  0  0  0  0
   13.4646   66.6356   -0.6831 C   0  0  1  0  0  0  0  0  0  0  0  0
   13.9916   68.8593    0.0172 C   0  0  1  0  0  0  0  0  0  0  0  0
   12.9209   65.9452    3.2542 H   0  0  0  0  0  0  0  0  0  0  0  0
   12.8951   64.6561    1.8681 H   0  0  0  0  0  0  0  0  0  0  0  0
   13.9050   69.1761    3.2721 H   0  0  0  0  0  0  0  0  0  0  0  0
   13.4821   64.7598   -2.1630 O   0  0  0  0  0  0  0  0  0  0  0  0
   12.7264   65.9005   -1.7997 C   0  0  0  0  0  0  0  0  0  0  0  0
   13.0241   64.2819   -2.8726 H   0  0  0  0  0  0  0  0  0  0  0  0
 25 28  1  0
 25 24  1  0
 25 26  1  1
 25 27  2  0
  1  4  1  0
  1 24  1  0
  1  2  1  1
  1  3  2  0
  6 11  1  0
  6 12  1  0
 29 36  1  0
 29 37  1  0
  9  7  1  6
  7 13  1  0
 10  8  1  6
  8 14  1  0
 37 28  1  1
  4  5  1  0
 33 30  1  1
 30 38  1  0
 34 31  1  1
 31 39  1  0
 35 32  1  1
 32 40  1  0
 41 42  1  0
 41 43  1  0
 15 19  2  0
 16 22  2  0
 12 17  1  1
 17 19  1  0
 17 20  1  0
 18 19  1  0
 18 22  1  0
 18 23  1  0
  9 10  1  0
  9 11  1  0
 10 12  1  0
 11  5  1  1
 33 34  1  0
 33 35  1  0
 34 36  1  0
 35 37  1  0
 36 42  1  6
 20 21  2  0
 21 22  1  0
M  CHG  2   2  -1  26  -1
M  END
>  <COMPND>  (60) 
    8629 

>  <AUTHOR>  (60) 
    GENERATED BY OPEN BABEL 3.1.1

>  <MASTER>  (60) 
        0    0    0    0    0    0    0    0   58    0   58    0

>  <minimizedAffinity>  (60) 
-6.54892

>  <CNNscore>  (60) 
0.2143108696

>  <CNNaffinity>  (60) 
3.8443412781

>  <CNN_VS>  (60) 
0.8238841295

>  <CNNaffinity_variance>  (60) 
0.1418155134

$$$$
61
     RDKit          3D

 43 45  0  0  0  0  0  0  0  0999 V2000
   23.8951   72.7843   -4.7121 P   0  0  2  0  0  0  0  0  0  0  0  0
   23.2613   72.5097   -6.1751 O   0  0  0  0  0  0  0  0  0  0  0  0
   24.0662   74.2321   -4.3571 O   0  0  0  0  0  0  0  0  0  0  0  0
   25.2458   71.8936   -4.7005 O   0  0  0  0  0  0  0  0  0  0  0  0
   26.4699   72.5261   -4.3699 C   0  0  0  0  0  0  0  0  0  0  0  0
   26.8159   70.4357   -3.2366 O   0  0  0  0  0  0  0  0  0  0  0  0
   28.9250   71.8591   -1.6503 O   0  0  0  0  0  0  0  0  0  0  0  0
   30.3931   70.4821   -3.4902 O   0  0  0  0  0  0  0  0  0  0  0  0
   28.5671   72.0177   -3.0222 C   0  0  1  0  0  0  0  0  0  0  0  0
   29.0719   70.8447   -3.8363 C   0  0  2  0  0  0  0  0  0  0  0  0
   27.0563   71.8563   -3.1347 C   0  0  1  0  0  0  0  0  0  0  0  0
   28.0602   69.7645   -3.4933 C   0  0  2  0  0  0  0  0  0  0  0  0
   29.8856   71.9583   -1.5534 H   0  0  0  0  0  0  0  0  0  0  0  0
   30.9988   71.2013   -3.7281 H   0  0  0  0  0  0  0  0  0  0  0  0
   26.4405   67.4560   -3.3330 O   0  0  0  0  0  0  0  0  0  0  0  0
   27.4167   66.2467   -7.6719 O   0  0  0  0  0  0  0  0  0  0  0  0
   27.8728   68.8290   -4.5662 N   0  0  0  0  0  0  0  0  0  0  0  0
   26.9278   66.8559   -5.4936 N   0  0  0  0  0  0  0  0  0  0  0  0
   27.0393   67.7012   -4.3823 C   0  0  0  0  0  0  0  0  0  0  0  0
   28.5115   69.0345   -5.7843 C   0  0  0  0  0  0  0  0  0  0  0  0
   28.3958   68.2182   -6.8338 C   0  0  0  0  0  0  0  0  0  0  0  0
   27.5434   67.0167   -6.7248 C   0  0  0  0  0  0  0  0  0  0  0  0
   26.3526   66.0635   -5.3887 H   0  0  0  0  0  0  0  0  0  0  0  0
   22.9095   71.9625   -3.7290 O   0  0  0  0  0  0  0  0  0  0  0  0
   22.3029   70.4684   -3.8407 P   0  0  2  0  0  0  0  0  0  0  0  0
   23.4510   69.5503   -3.1651 O   0  0  0  0  0  0  0  0  0  0  0  0
   21.9245   70.0605   -5.2351 O   0  0  0  0  0  0  0  0  0  0  0  0
   21.0846   70.4420   -2.7823 O   0  0  0  0  0  0  0  0  0  0  0  0
   19.4938   72.0757   -3.4280 O   0  0  0  0  0  0  0  0  0  0  0  0
   17.7821   70.8568    0.1266 O   0  0  0  0  0  0  0  0  0  0  0  0
   16.5721   70.0956   -2.3642 O   0  0  0  0  0  0  0  0  0  0  0  0
   20.6597   71.0901   -0.0851 O   0  0  0  0  0  0  0  0  0  0  0  0
   18.5092   70.6909   -1.0938 C   0  0  1  0  0  0  0  0  0  0  0  0
   17.5932   71.0833   -2.2548 C   0  0  1  0  0  0  0  0  0  0  0  0
   19.7487   71.5831   -1.0616 C   0  0  2  0  0  0  0  0  0  0  0  0
   18.3786   71.1879   -3.5690 C   0  0  1  0  0  0  0  0  0  0  0  0
   20.4273   71.6567   -2.4306 C   0  0  1  0  0  0  0  0  0  0  0  0
   16.9941   70.2926    0.1128 H   0  0  0  0  0  0  0  0  0  0  0  0
   16.0841   70.0392   -1.5277 H   0  0  0  0  0  0  0  0  0  0  0  0
   20.2182   71.0485    0.7770 H   0  0  0  0  0  0  0  0  0  0  0  0
   16.8002   70.6528   -5.2811 O   0  0  0  0  0  0  0  0  0  0  0  0
   17.5180   71.7301   -4.7080 C   0  0  0  0  0  0  0  0  0  0  0  0
   16.2477   70.9831   -6.0073 H   0  0  0  0  0  0  0  0  0  0  0  0
 25 28  1  0
 25 24  1  0
 25 26  1  1
 25 27  2  0
  1  4  1  0
  1 24  1  0
  1  2  1  6
  1  3  2  0
  6 11  1  0
  6 12  1  0
 29 36  1  0
 29 37  1  0
  9  7  1  1
  7 13  1  0
 10  8  1  1
  8 14  1  0
 37 28  1  6
  4  5  1  0
 33 30  1  1
 30 38  1  0
 34 31  1  6
 31 39  1  0
 35 32  1  1
 32 40  1  0
 41 42  1  0
 41 43  1  0
 15 19  2  0
 16 22  2  0
 12 17  1  6
 17 19  1  0
 17 20  1  0
 18 19  1  0
 18 22  1  0
 18 23  1  0
  9 10  1  0
  9 11  1  0
 10 12  1  0
 11  5  1  6
 33 34  1  0
 33 35  1  0
 34 36  1  0
 35 37  1  0
 36 42  1  6
 20 21  2  0
 21 22  1  0
M  CHG  2   2  -1  26  -1
M  END
>  <COMPND>  (61) 
    8629 

>  <AUTHOR>  (61) 
    GENERATED BY OPEN BABEL 3.1.1

>  <MASTER>  (61) 
        0    0    0    0    0    0    0    0   58    0   58    0

>  <minimizedAffinity>  (61) 
-7.12157

>  <CNNscore>  (61) 
0.6830380559

>  <CNNaffinity>  (61) 
4.5776305199

>  <CNN_VS>  (61) 
3.1266958714

>  <CNNaffinity_variance>  (61) 
0.0188991986

$$$$
62
     RDKit          3D

 43 45  0  0  0  0  0  0  0  0999 V2000
   24.3795   73.1603   -4.8416 P   0  0  2  0  0  0  0  0  0  0  0  0
   25.3581   73.6918   -6.0151 O   0  0  0  0  0  0  0  0  0  0  0  0
   24.1773   74.1168   -3.7032 O   0  0  0  0  0  0  0  0  0  0  0  0
   24.9955   71.7174   -4.4460 O   0  0  0  0  0  0  0  0  0  0  0  0
   26.3831   71.5003   -4.6332 C   0  0  0  0  0  0  0  0  0  0  0  0
   27.3264   69.6636   -3.4042 O   0  0  0  0  0  0  0  0  0  0  0  0
   28.5060   71.7323   -1.5822 O   0  0  0  0  0  0  0  0  0  0  0  0
   30.6233   71.0544   -3.1616 O   0  0  0  0  0  0  0  0  0  0  0  0
   28.3090   71.7807   -2.9944 C   0  0  1  0  0  0  0  0  0  0  0  0
   29.3243   70.9041   -3.6973 C   0  0  2  0  0  0  0  0  0  0  0  0
   27.0002   71.0676   -3.3103 C   0  0  1  0  0  0  0  0  0  0  0  0
   28.7542   69.5148   -3.4671 C   0  0  2  0  0  0  0  0  0  0  0  0
   29.3359   72.1820   -1.3562 H   0  0  0  0  0  0  0  0  0  0  0  0
   30.9419   71.9542   -3.3336 H   0  0  0  0  0  0  0  0  0  0  0  0
   31.0316   67.8442   -3.4912 O   0  0  0  0  0  0  0  0  0  0  0  0
   29.9111   66.0674   -7.5934 O   0  0  0  0  0  0  0  0  0  0  0  0
   29.0819   68.6054   -4.5287 N   0  0  0  0  0  0  0  0  0  0  0  0
   30.4717   66.9607   -5.5337 N   0  0  0  0  0  0  0  0  0  0  0  0
   30.2496   67.8119   -4.4436 C   0  0  0  0  0  0  0  0  0  0  0  0
   28.2497   68.5070   -5.6385 C   0  0  0  0  0  0  0  0  0  0  0  0
   28.4763   67.6913   -6.6702 C   0  0  0  0  0  0  0  0  0  0  0  0
   29.6749   66.8280   -6.6598 C   0  0  0  0  0  0  0  0  0  0  0  0
   31.2794   66.3986   -5.4965 H   0  0  0  0  0  0  0  0  0  0  0  0
   23.0297   72.7721   -5.6418 O   0  0  0  0  0  0  0  0  0  0  0  0
   21.5912   73.5057   -5.7156 P   0  0  2  0  0  0  0  0  0  0  0  0
   21.9048   74.8542   -6.5526 O   0  0  0  0  0  0  0  0  0  0  0  0
   20.9515   73.7417   -4.3781 O   0  0  0  0  0  0  0  0  0  0  0  0
   20.7191   72.5944   -6.7226 O   0  0  0  0  0  0  0  0  0  0  0  0
   20.1404   72.5861   -9.0208 O   0  0  0  0  0  0  0  0  0  0  0  0
   16.3807   72.0741   -7.3917 O   0  0  0  0  0  0  0  0  0  0  0  0
   17.6695   69.8688   -8.7047 O   0  0  0  0  0  0  0  0  0  0  0  0
   18.2812   73.8420   -6.1101 O   0  0  0  0  0  0  0  0  0  0  0  0
   17.7997   71.9133   -7.4702 C   0  0  1  0  0  0  0  0  0  0  0  0
   18.1308   71.2142   -8.7902 C   0  0  1  0  0  0  0  0  0  0  0  0
   18.4620   73.2884   -7.4091 C   0  0  2  0  0  0  0  0  0  0  0  0
   19.6394   71.2451   -9.0702 C   0  0  1  0  0  0  0  0  0  0  0  0
   19.9511   73.2138   -7.7511 C   0  0  1  0  0  0  0  0  0  0  0  0
   15.9541   71.2046   -7.4295 H   0  0  0  0  0  0  0  0  0  0  0  0
   16.7157   69.8634   -8.5271 H   0  0  0  0  0  0  0  0  0  0  0  0
   17.3345   73.8842   -5.9057 H   0  0  0  0  0  0  0  0  0  0  0  0
   18.7663   70.4804  -11.1587 O   0  0  0  0  0  0  0  0  0  0  0  0
   19.9756   70.6940  -10.4541 C   0  0  0  0  0  0  0  0  0  0  0  0
   18.9648   70.1300  -12.0416 H   0  0  0  0  0  0  0  0  0  0  0  0
 25 28  1  0
 25 24  1  0
 25 26  1  6
 25 27  2  0
  1  4  1  0
  1 24  1  0
  1  2  1  6
  1  3  2  0
  6 11  1  0
  6 12  1  0
 29 36  1  0
 29 37  1  0
  9  7  1  1
  7 13  1  0
 10  8  1  1
  8 14  1  0
 37 28  1  1
  4  5  1  0
 33 30  1  6
 30 38  1  0
 34 31  1  1
 31 39  1  0
 35 32  1  1
 32 40  1  0
 41 42  1  0
 41 43  1  0
 15 19  2  0
 16 22  2  0
 12 17  1  6
 17 19  1  0
 17 20  1  0
 18 19  1  0
 18 22  1  0
 18 23  1  0
  9 10  1  0
  9 11  1  0
 10 12  1  0
 11  5  1  6
 33 34  1  0
 33 35  1  0
 34 36  1  0
 35 37  1  0
 36 42  1  6
 20 21  2  0
 21 22  1  0
M  CHG  2   2  -1  26  -1
M  END
>  <COMPND>  (62) 
    8629 

>  <AUTHOR>  (62) 
    GENERATED BY OPEN BABEL 3.1.1

>  <MASTER>  (62) 
        0    0    0    0    0    0    0    0   58    0   58    0

>  <minimizedAffinity>  (62) 
-7.41534

>  <CNNscore>  (62) 
0.6254990101

>  <CNNaffinity>  (62) 
4.5247564316

>  <CNN_VS>  (62) 
2.8302307129

>  <CNNaffinity_variance>  (62) 
0.0442463309

$$$$
63
     RDKit          3D

 43 45  0  0  0  0  0  0  0  0999 V2000
   24.7757   73.5587   -5.0823 P   0  0  2  0  0  0  0  0  0  0  0  0
   24.0236   72.1630   -5.4044 O   0  0  0  0  0  0  0  0  0  0  0  0
   25.0010   74.4463   -6.2710 O   0  0  0  0  0  0  0  0  0  0  0  0
   26.1064   73.1069   -4.2805 O   0  0  0  0  0  0  0  0  0  0  0  0
   26.4817   71.7408   -4.3089 C   0  0  0  0  0  0  0  0  0  0  0  0
   27.6539   70.0257   -3.1013 O   0  0  0  0  0  0  0  0  0  0  0  0
   28.8970   72.2496   -1.5202 O   0  0  0  0  0  0  0  0  0  0  0  0
   30.8719   71.5986   -3.2844 O   0  0  0  0  0  0  0  0  0  0  0  0
   28.5499   72.2106   -2.9035 C   0  0  1  0  0  0  0  0  0  0  0  0
   29.5347   71.3514   -3.6686 C   0  0  2  0  0  0  0  0  0  0  0  0
   27.2586   71.4137   -3.0410 C   0  0  1  0  0  0  0  0  0  0  0  0
   29.0734   69.9488   -3.3109 C   0  0  2  0  0  0  0  0  0  0  0  0
   29.7186   72.7538   -1.4073 H   0  0  0  0  0  0  0  0  0  0  0  0
   31.1180   72.5031   -3.5334 H   0  0  0  0  0  0  0  0  0  0  0  0
   31.0649   67.9499   -3.1837 O   0  0  0  0  0  0  0  0  0  0  0  0
   30.0064   66.3703   -7.3820 O   0  0  0  0  0  0  0  0  0  0  0  0
   29.3397   69.0014   -4.3563 N   0  0  0  0  0  0  0  0  0  0  0  0
   30.5361   67.1649   -5.2741 N   0  0  0  0  0  0  0  0  0  0  0  0
   30.3629   68.0386   -4.1931 C   0  0  0  0  0  0  0  0  0  0  0  0
   28.5902   69.0326   -5.5273 C   0  0  0  0  0  0  0  0  0  0  0  0
   28.7687   68.1931   -6.5494 C   0  0  0  0  0  0  0  0  0  0  0  0
   29.8176   67.1569   -6.4592 C   0  0  0  0  0  0  0  0  0  0  0  0
   31.2435   66.4859   -5.1831 H   0  0  0  0  0  0  0  0  0  0  0  0
   23.8557   74.2081   -3.9227 O   0  0  0  0  0  0  0  0  0  0  0  0
   23.2465   73.5693   -2.5685 P   0  0  2  0  0  0  0  0  0  0  0  0
   22.5368   74.8326   -1.8489 O   0  0  0  0  0  0  0  0  0  0  0  0
   24.2564   72.8577   -1.7154 O   0  0  0  0  0  0  0  0  0  0  0  0
   22.0221   72.6440   -3.0681 O   0  0  0  0  0  0  0  0  0  0  0  0
   20.8330   73.1353   -5.0584 O   0  0  0  0  0  0  0  0  0  0  0  0
   17.9473   70.9307   -3.0928 O   0  0  0  0  0  0  0  0  0  0  0  0
   19.3167   69.7874   -5.3436 O   0  0  0  0  0  0  0  0  0  0  0  0
   19.6292   72.7588   -1.6066 O   0  0  0  0  0  0  0  0  0  0  0  0
   19.2780   71.2850   -3.4790 C   0  0  1  0  0  0  0  0  0  0  0  0
   19.3826   71.1689   -5.0010 C   0  0  1  0  0  0  0  0  0  0  0  0
   19.5643   72.7161   -3.0280 C   0  0  2  0  0  0  0  0  0  0  0  0
   20.6908   71.7851   -5.5150 C   0  0  1  0  0  0  0  0  0  0  0  0
   20.8632   73.2502   -3.6344 C   0  0  1  0  0  0  0  0  0  0  0  0
   17.7593   70.0229   -3.3758 H   0  0  0  0  0  0  0  0  0  0  0  0
   18.4862   69.4103   -5.0129 H   0  0  0  0  0  0  0  0  0  0  0  0
   18.8011   72.4184   -1.2349 H   0  0  0  0  0  0  0  0  0  0  0  0
   22.0491   71.4574   -7.4532 O   0  0  0  0  0  0  0  0  0  0  0  0
   20.7448   71.8221   -7.0407 C   0  0  0  0  0  0  0  0  0  0  0  0
   22.0983   71.4763   -8.4221 H   0  0  0  0  0  0  0  0  0  0  0  0
 25 28  1  0
 25 24  1  0
 25 26  1  1
 25 27  2  0
  1  4  1  0
  1 24  1  0
  1  2  1  6
  1  3  2  0
  6 11  1  0
  6 12  1  0
 29 36  1  0
 29 37  1  0
  9  7  1  1
  7 13  1  0
 10  8  1  1
  8 14  1  0
 37 28  1  1
  4  5  1  0
 33 30  1  6
 30 38  1  0
 34 31  1  1
 31 39  1  0
 35 32  1  1
 32 40  1  0
 41 42  1  0
 41 43  1  0
 15 19  2  0
 16 22  2  0
 12 17  1  6
 17 19  1  0
 17 20  1  0
 18 19  1  0
 18 22  1  0
 18 23  1  0
  9 10  1  0
  9 11  1  0
 10 12  1  0
 11  5  1  6
 33 34  1  0
 33 35  1  0
 34 36  1  0
 35 37  1  0
 36 42  1  6
 20 21  2  0
 21 22  1  0
M  CHG  2   2  -1  26  -1
M  END
>  <COMPND>  (63) 
    8629 

>  <AUTHOR>  (63) 
    GENERATED BY OPEN BABEL 3.1.1

>  <MASTER>  (63) 
        0    0    0    0    0    0    0    0   58    0   58    0

>  <minimizedAffinity>  (63) 
-6.91564

>  <CNNscore>  (63) 
0.5980668068

>  <CNNaffinity>  (63) 
4.4357748032

>  <CNN_VS>  (63) 
2.6528897285

>  <CNNaffinity_variance>  (63) 
0.0439852700

$$$$
64
     RDKit          3D

 43 45  0  0  0  0  0  0  0  0999 V2000
   24.3608   73.3410   -4.8888 P   0  0  2  0  0  0  0  0  0  0  0  0
   25.3582   73.7901   -6.0808 O   0  0  0  0  0  0  0  0  0  0  0  0
   24.0872   74.3979   -3.8595 O   0  0  0  0  0  0  0  0  0  0  0  0
   25.0144   71.9698   -4.3314 O   0  0  0  0  0  0  0  0  0  0  0  0
   26.3906   71.7310   -4.5698 C   0  0  0  0  0  0  0  0  0  0  0  0
   27.4157   69.9720   -3.2936 O   0  0  0  0  0  0  0  0  0  0  0  0
   28.6264   72.1459   -1.6206 O   0  0  0  0  0  0  0  0  0  0  0  0
   30.6927   71.4286   -3.2493 O   0  0  0  0  0  0  0  0  0  0  0  0
   28.3734   72.1228   -3.0245 C   0  0  1  0  0  0  0  0  0  0  0  0
   29.3769   71.2306   -3.7250 C   0  0  2  0  0  0  0  0  0  0  0  0
   27.0670   71.3731   -3.2535 C   0  0  1  0  0  0  0  0  0  0  0  0
   28.8425   69.8446   -3.4064 C   0  0  2  0  0  0  0  0  0  0  0  0
   29.4559   72.6199   -1.4495 H   0  0  0  0  0  0  0  0  0  0  0  0
   30.9874   72.3244   -3.4765 H   0  0  0  0  0  0  0  0  0  0  0  0
   31.1191   68.1727   -3.4128 O   0  0  0  0  0  0  0  0  0  0  0  0
   29.9035   66.2245   -7.4087 O   0  0  0  0  0  0  0  0  0  0  0  0
   29.1456   68.8908   -4.4359 N   0  0  0  0  0  0  0  0  0  0  0  0
   30.5119   67.2039   -5.4024 N   0  0  0  0  0  0  0  0  0  0  0  0
   30.3151   68.1006   -4.3445 C   0  0  0  0  0  0  0  0  0  0  0  0
   28.2877   68.7460   -5.5207 C   0  0  0  0  0  0  0  0  0  0  0  0
   28.4903   67.8871   -6.5220 C   0  0  0  0  0  0  0  0  0  0  0  0
   29.6890   67.0241   -6.5030 C   0  0  0  0  0  0  0  0  0  0  0  0
   31.3203   66.6432   -5.3603 H   0  0  0  0  0  0  0  0  0  0  0  0
   23.0530   72.8227   -5.6850 O   0  0  0  0  0  0  0  0  0  0  0  0
   21.7980   71.9286   -5.1967 P   0  0  2  0  0  0  0  0  0  0  0  0
   21.4456   72.5462   -3.7435 O   0  0  0  0  0  0  0  0  0  0  0  0
   22.0594   70.4503   -5.1944 O   0  0  0  0  0  0  0  0  0  0  0  0
   20.5748   72.3901   -6.1432 O   0  0  0  0  0  0  0  0  0  0  0  0
   18.5489   71.6773   -7.1452 O   0  0  0  0  0  0  0  0  0  0  0  0
   20.7611   72.3831  -10.5597 O   0  0  0  0  0  0  0  0  0  0  0  0
   18.6429   74.1859   -9.8447 O   0  0  0  0  0  0  0  0  0  0  0  0
   22.0275   71.2117   -8.2352 O   0  0  0  0  0  0  0  0  0  0  0  0
   20.3310   72.6127   -9.2152 C   0  0  1  0  0  0  0  0  0  0  0  0
   18.8306   72.9113   -9.2360 C   0  0  1  0  0  0  0  0  0  0  0  0
   20.6198   71.3673   -8.3792 C   0  0  2  0  0  0  0  0  0  0  0  0
   18.2448   72.9049   -7.8176 C   0  0  1  0  0  0  0  0  0  0  0  0
   19.9513   71.4417   -7.0053 C   0  0  1  0  0  0  0  0  0  0  0  0
   20.5810   73.1704  -11.0958 H   0  0  0  0  0  0  0  0  0  0  0  0
   19.0176   74.1766  -10.7395 H   0  0  0  0  0  0  0  0  0  0  0  0
   22.4390   71.1656   -9.1118 H   0  0  0  0  0  0  0  0  0  0  0  0
   16.2668   72.8959   -9.1579 O   0  0  0  0  0  0  0  0  0  0  0  0
   16.7240   73.0439   -7.8263 C   0  0  0  0  0  0  0  0  0  0  0  0
   15.3004   72.9817   -9.1788 H   0  0  0  0  0  0  0  0  0  0  0  0
 25 28  1  0
 25 24  1  0
 25 26  1  1
 25 27  2  0
  1  4  1  0
  1 24  1  0
  1  2  1  6
  1  3  2  0
  6 11  1  0
  6 12  1  0
 29 36  1  0
 29 37  1  0
  9  7  1  1
  7 13  1  0
 10  8  1  1
  8 14  1  0
 37 28  1  1
  4  5  1  0
 33 30  1  6
 30 38  1  0
 34 31  1  1
 31 39  1  0
 35 32  1  1
 32 40  1  0
 41 42  1  0
 41 43  1  0
 15 19  2  0
 16 22  2  0
 12 17  1  6
 17 19  1  0
 17 20  1  0
 18 19  1  0
 18 22  1  0
 18 23  1  0
  9 10  1  0
  9 11  1  0
 10 12  1  0
 11  5  1  6
 33 34  1  0
 33 35  1  0
 34 36  1  0
 35 37  1  0
 36 42  1  6
 20 21  2  0
 21 22  1  0
M  CHG  2   2  -1  26  -1
M  END
>  <COMPND>  (64) 
    8629 

>  <AUTHOR>  (64) 
    GENERATED BY OPEN BABEL 3.1.1

>  <MASTER>  (64) 
        0    0    0    0    0    0    0    0   58    0   58    0

>  <minimizedAffinity>  (64) 
-7.75829

>  <CNNscore>  (64) 
0.5772111416

>  <CNNaffinity>  (64) 
4.4363179207

>  <CNN_VS>  (64) 
2.5606920719

>  <CNNaffinity_variance>  (64) 
0.0149573106

$$$$
65
     RDKit          3D

 43 45  0  0  0  0  0  0  0  0999 V2000
   24.5173   73.3842   -4.4000 P   0  0  2  0  0  0  0  0  0  0  0  0
   23.9906   72.1891   -5.3548 O   0  0  0  0  0  0  0  0  0  0  0  0
   23.9938   74.7477   -4.7440 O   0  0  0  0  0  0  0  0  0  0  0  0
   26.1270   73.2222   -4.4270 O   0  0  0  0  0  0  0  0  0  0  0  0
   26.6735   71.9209   -4.5518 C   0  0  0  0  0  0  0  0  0  0  0  0
   27.6039   70.1104   -3.2750 O   0  0  0  0  0  0  0  0  0  0  0  0
   28.8988   72.2182   -1.5806 O   0  0  0  0  0  0  0  0  0  0  0  0
   30.9445   71.4129   -3.1941 O   0  0  0  0  0  0  0  0  0  0  0  0
   28.6580   72.2131   -2.9868 C   0  0  1  0  0  0  0  0  0  0  0  0
   29.6254   71.2784   -3.6825 C   0  0  2  0  0  0  0  0  0  0  0  0
   27.3203   71.5260   -3.2313 C   0  0  1  0  0  0  0  0  0  0  0  0
   29.0243   69.9173   -3.3755 C   0  0  2  0  0  0  0  0  0  0  0  0
   29.7478   72.6524   -1.3997 H   0  0  0  0  0  0  0  0  0  0  0  0
   31.2826   72.2950   -3.4142 H   0  0  0  0  0  0  0  0  0  0  0  0
   31.0633   67.9669   -3.2475 O   0  0  0  0  0  0  0  0  0  0  0  0
   29.9612   66.2785   -7.3919 O   0  0  0  0  0  0  0  0  0  0  0  0
   29.2922   68.9550   -4.4068 N   0  0  0  0  0  0  0  0  0  0  0  0
   30.5127   67.1277   -5.3111 N   0  0  0  0  0  0  0  0  0  0  0  0
   30.3402   68.0191   -4.2445 C   0  0  0  0  0  0  0  0  0  0  0  0
   28.5199   68.9454   -5.5633 C   0  0  0  0  0  0  0  0  0  0  0  0
   28.6981   68.0895   -6.5717 C   0  0  0  0  0  0  0  0  0  0  0  0
   29.7720   67.0793   -6.4814 C   0  0  0  0  0  0  0  0  0  0  0  0
   31.2372   66.4669   -5.2204 H   0  0  0  0  0  0  0  0  0  0  0  0
   24.1249   72.8667   -2.9197 O   0  0  0  0  0  0  0  0  0  0  0  0
   23.4529   71.4832   -2.4224 P   0  0  2  0  0  0  0  0  0  0  0  0
   23.4903   71.6112   -0.8100 O   0  0  0  0  0  0  0  0  0  0  0  0
   24.1158   70.2486   -2.9611 O   0  0  0  0  0  0  0  0  0  0  0  0
   21.8918   71.6260   -2.8066 O   0  0  0  0  0  0  0  0  0  0  0  0
   20.1163   70.2692   -2.0172 O   0  0  0  0  0  0  0  0  0  0  0  0
   18.6158   71.2161   -5.7458 O   0  0  0  0  0  0  0  0  0  0  0  0
   17.4550   72.4090   -3.4055 O   0  0  0  0  0  0  0  0  0  0  0  0
   21.4447   70.6978   -5.4168 O   0  0  0  0  0  0  0  0  0  0  0  0
   19.3351   71.4520   -4.5325 C   0  0  1  0  0  0  0  0  0  0  0  0
   18.3604   71.3097   -3.3618 C   0  0  1  0  0  0  0  0  0  0  0  0
   20.4668   70.4326   -4.4168 C   0  0  2  0  0  0  0  0  0  0  0  0
   19.1057   71.2842   -2.0205 C   0  0  1  0  0  0  0  0  0  0  0  0
   21.1085   70.4562   -3.0284 C   0  0  1  0  0  0  0  0  0  0  0  0
   17.8960   71.8603   -5.8256 H   0  0  0  0  0  0  0  0  0  0  0  0
   16.9913   72.4139   -4.2576 H   0  0  0  0  0  0  0  0  0  0  0  0
   21.0260   70.6797   -6.2911 H   0  0  0  0  0  0  0  0  0  0  0  0
   18.1952   69.5923   -0.6002 O   0  0  0  0  0  0  0  0  0  0  0  0
   18.1694   70.9853   -0.8516 C   0  0  0  0  0  0  0  0  0  0  0  0
   17.6040   69.3873    0.1416 H   0  0  0  0  0  0  0  0  0  0  0  0
 25 28  1  0
 25 24  1  0
 25 26  1  1
 25 27  2  0
  1  4  1  0
  1 24  1  0
  1  2  1  6
  1  3  2  0
  6 11  1  0
  6 12  1  0
 29 36  1  0
 29 37  1  0
  9  7  1  1
  7 13  1  0
 10  8  1  1
  8 14  1  0
 37 28  1  1
  4  5  1  0
 33 30  1  6
 30 38  1  0
 34 31  1  1
 31 39  1  0
 35 32  1  6
 32 40  1  0
 41 42  1  0
 41 43  1  0
 15 19  2  0
 16 22  2  0
 12 17  1  6
 17 19  1  0
 17 20  1  0
 18 19  1  0
 18 22  1  0
 18 23  1  0
  9 10  1  0
  9 11  1  0
 10 12  1  0
 11  5  1  6
 33 34  1  0
 33 35  1  0
 34 36  1  0
 35 37  1  0
 36 42  1  1
 20 21  2  0
 21 22  1  0
M  CHG  2   2  -1  26  -1
M  END
>  <COMPND>  (65) 
    8629 

>  <AUTHOR>  (65) 
    GENERATED BY OPEN BABEL 3.1.1

>  <MASTER>  (65) 
        0    0    0    0    0    0    0    0   58    0   58    0

>  <minimizedAffinity>  (65) 
-6.50054

>  <CNNscore>  (65) 
0.5762961507

>  <CNNaffinity>  (65) 
4.4762897491

>  <CNN_VS>  (65) 
2.5796685219

>  <CNNaffinity_variance>  (65) 
0.0527118854

$$$$
66
     RDKit          3D

 43 45  0  0  0  0  0  0  0  0999 V2000
   25.4731   73.0407   -4.6078 P   0  0  2  0  0  0  0  0  0  0  0  0
   26.4902   73.7805   -3.5902 O   0  0  0  0  0  0  0  0  0  0  0  0
   25.1516   73.8115   -5.8544 O   0  0  0  0  0  0  0  0  0  0  0  0
   24.2083   72.6503   -3.6773 O   0  0  0  0  0  0  0  0  0  0  0  0
   24.2420   73.0069   -2.3063 C   0  0  0  0  0  0  0  0  0  0  0  0
   23.2921   71.4869   -0.7059 O   0  0  0  0  0  0  0  0  0  0  0  0
   20.8900   73.2816   -0.7071 O   0  0  0  0  0  0  0  0  0  0  0  0
   22.1837   74.0215    1.5766 O   0  0  0  0  0  0  0  0  0  0  0  0
   22.2708   73.6222   -0.8201 C   0  0  1  0  0  0  0  0  0  0  0  0
   22.9576   73.4857    0.5227 C   0  0  2  0  0  0  0  0  0  0  0  0
   22.9564   72.5363   -1.6399 C   0  0  1  0  0  0  0  0  0  0  0  0
   23.1352   71.9810    0.6343 C   0  0  2  0  0  0  0  0  0  0  0  0
   20.4310   73.9609   -0.1876 H   0  0  0  0  0  0  0  0  0  0  0  0
   22.0996   74.9808    1.4608 H   0  0  0  0  0  0  0  0  0  0  0  0
   23.0525   70.5923    3.0924 O   0  0  0  0  0  0  0  0  0  0  0  0
   27.6434   70.6575    3.4932 O   0  0  0  0  0  0  0  0  0  0  0  0
   24.2939   71.6217    1.4023 N   0  0  0  0  0  0  0  0  0  0  0  0
   25.3385   70.6257    3.2899 N   0  0  0  0  0  0  0  0  0  0  0  0
   24.1431   70.9256    2.6243 C   0  0  0  0  0  0  0  0  0  0  0  0
   25.5621   71.9589    0.9422 C   0  0  0  0  0  0  0  0  0  0  0  0
   26.6921   71.6668    1.5896 C   0  0  0  0  0  0  0  0  0  0  0  0
   26.6225   70.9406    2.8741 C   0  0  0  0  0  0  0  0  0  0  0  0
   25.2581   70.1414    4.1436 H   0  0  0  0  0  0  0  0  0  0  0  0
   26.1892   71.6145   -4.8646 O   0  0  0  0  0  0  0  0  0  0  0  0
   26.5896   70.4283   -3.8420 P   0  0  2  0  0  0  0  0  0  0  0  0
   25.1823   69.6749   -3.5784 O   0  0  0  0  0  0  0  0  0  0  0  0
   27.2835   70.8979   -2.5962 O   0  0  0  0  0  0  0  0  0  0  0  0
   27.4462   69.3915   -4.7343 O   0  0  0  0  0  0  0  0  0  0  0  0
   27.0927   67.1242   -5.3269 O   0  0  0  0  0  0  0  0  0  0  0  0
   31.1649   67.0030   -4.6532 O   0  0  0  0  0  0  0  0  0  0  0  0
   30.1674   66.8512   -7.3420 O   0  0  0  0  0  0  0  0  0  0  0  0
   29.4667   68.6130   -2.9492 O   0  0  0  0  0  0  0  0  0  0  0  0
   29.9315   67.5886   -5.0789 C   0  0  1  0  0  0  0  0  0  0  0  0
   29.3430   66.7141   -6.1879 C   0  0  1  0  0  0  0  0  0  0  0  0
   28.9768   67.6624   -3.8888 C   0  0  2  0  0  0  0  0  0  0  0  0
   27.8999   67.1247   -6.5102 C   0  0  1  0  0  0  0  0  0  0  0  0
   27.5577   68.0308   -4.3250 C   0  0  1  0  0  0  0  0  0  0  0  0
   31.7757   66.9537   -5.4041 H   0  0  0  0  0  0  0  0  0  0  0  0
   31.0759   66.5893   -7.1249 H   0  0  0  0  0  0  0  0  0  0  0  0
   30.3655   68.3685   -2.6807 H   0  0  0  0  0  0  0  0  0  0  0  0
   26.0617   65.6515   -6.9097 O   0  0  0  0  0  0  0  0  0  0  0  0
   27.2404   66.1673   -7.5004 C   0  0  0  0  0  0  0  0  0  0  0  0
   25.6311   65.0407   -7.5288 H   0  0  0  0  0  0  0  0  0  0  0  0
 25 28  1  0
 25 24  1  0
 25 26  1  1
 25 27  2  0
  1  4  1  0
  1 24  1  0
  1  2  1  1
  1  3  2  0
  6 11  1  0
  6 12  1  0
 29 36  1  0
 29 37  1  0
  9  7  1  1
  7 13  1  0
 10  8  1  1
  8 14  1  0
 37 28  1  6
  4  5  1  0
 33 30  1  1
 30 38  1  0
 34 31  1  6
 31 39  1  0
 35 32  1  1
 32 40  1  0
 41 42  1  0
 41 43  1  0
 15 19  2  0
 16 22  2  0
 12 17  1  1
 17 19  1  0
 17 20  1  0
 18 19  1  0
 18 22  1  0
 18 23  1  0
  9 10  1  0
  9 11  1  0
 10 12  1  0
 11  5  1  1
 33 34  1  0
 33 35  1  0
 34 36  1  0
 35 37  1  0
 36 42  1  6
 20 21  2  0
 21 22  1  0
M  CHG  2   2  -1  26  -1
M  END
>  <COMPND>  (66) 
    8629 

>  <AUTHOR>  (66) 
    GENERATED BY OPEN BABEL 3.1.1

>  <MASTER>  (66) 
        0    0    0    0    0    0    0    0   58    0   58    0

>  <minimizedAffinity>  (66) 
-8.30915

>  <CNNscore>  (66) 
0.5625209808

>  <CNNaffinity>  (66) 
4.3001027107

>  <CNN_VS>  (66) 
2.4188981056

>  <CNNaffinity_variance>  (66) 
0.1070946008

$$$$
67
     RDKit          3D

 43 45  0  0  0  0  0  0  0  0999 V2000
   26.3691   72.6307   -2.3397 P   0  0  2  0  0  0  0  0  0  0  0  0
   27.3935   73.8692   -2.5241 O   0  0  0  0  0  0  0  0  0  0  0  0
   25.3610   72.8002   -1.2413 O   0  0  0  0  0  0  0  0  0  0  0  0
   27.3378   71.3411   -2.2115 O   0  0  0  0  0  0  0  0  0  0  0  0
   28.5886   71.3662   -2.8769 C   0  0  0  0  0  0  0  0  0  0  0  0
   28.9285   68.9963   -2.6734 O   0  0  0  0  0  0  0  0  0  0  0  0
   31.7519   69.6559   -1.9091 O   0  0  0  0  0  0  0  0  0  0  0  0
   32.0005   68.9181   -4.5226 O   0  0  0  0  0  0  0  0  0  0  0  0
   30.8988   70.3007   -2.8535 C   0  0  1  0  0  0  0  0  0  0  0  0
   30.7628   69.4549   -4.1024 C   0  0  2  0  0  0  0  0  0  0  0  0
   29.4805   70.2770   -2.2973 C   0  0  1  0  0  0  0  0  0  0  0  0
   29.7836   68.3839   -3.6525 C   0  0  2  0  0  0  0  0  0  0  0  0
   32.6635   69.6590   -2.2423 H   0  0  0  0  0  0  0  0  0  0  0  0
   32.5884   69.6384   -4.7988 H   0  0  0  0  0  0  0  0  0  0  0  0
   27.1384   67.4362   -3.3653 O   0  0  0  0  0  0  0  0  0  0  0  0
   26.7851   66.5144   -7.8671 O   0  0  0  0  0  0  0  0  0  0  0  0
   28.9769   67.8907   -4.7329 N   0  0  0  0  0  0  0  0  0  0  0  0
   26.9646   66.9781   -5.6071 N   0  0  0  0  0  0  0  0  0  0  0  0
   27.6610   67.4371   -4.4818 C   0  0  0  0  0  0  0  0  0  0  0  0
   29.4916   67.8606   -6.0244 C   0  0  0  0  0  0  0  0  0  0  0  0
   28.8150   67.4187   -7.0866 C   0  0  0  0  0  0  0  0  0  0  0  0
   27.4332   66.9271   -6.9104 C   0  0  0  0  0  0  0  0  0  0  0  0
   26.0460   66.6568   -5.4562 H   0  0  0  0  0  0  0  0  0  0  0  0
   25.7332   72.4621   -3.8162 O   0  0  0  0  0  0  0  0  0  0  0  0
   24.6229   73.3371   -4.6002 P   0  0  2  0  0  0  0  0  0  0  0  0
   25.1943   73.3923   -6.1128 O   0  0  0  0  0  0  0  0  0  0  0  0
   24.3561   74.6824   -3.9895 O   0  0  0  0  0  0  0  0  0  0  0  0
   23.3308   72.3739   -4.6875 O   0  0  0  0  0  0  0  0  0  0  0  0
   21.4558   72.3964   -3.2381 O   0  0  0  0  0  0  0  0  0  0  0  0
   21.4858   68.3847   -4.2160 O   0  0  0  0  0  0  0  0  0  0  0  0
   19.4474   70.0931   -5.2996 O   0  0  0  0  0  0  0  0  0  0  0  0
   23.9834   69.7902   -3.8080 O   0  0  0  0  0  0  0  0  0  0  0  0
   21.6622   69.7844   -4.4509 C   0  0  1  0  0  0  0  0  0  0  0  0
   20.3160   70.4796   -4.2383 C   0  0  1  0  0  0  0  0  0  0  0  0
   22.7068   70.3262   -3.4770 C   0  0  2  0  0  0  0  0  0  0  0  0
   20.4788   72.0053   -4.2098 C   0  0  1  0  0  0  0  0  0  0  0  0
   22.7537   71.8552   -3.4920 C   0  0  1  0  0  0  0  0  0  0  0  0
   20.8241   68.0343   -4.8315 H   0  0  0  0  0  0  0  0  0  0  0  0
   19.3535   69.1275   -5.3068 H   0  0  0  0  0  0  0  0  0  0  0  0
   23.9406   68.8218   -3.7947 H   0  0  0  0  0  0  0  0  0  0  0  0
   19.4794   74.0409   -3.4572 O   0  0  0  0  0  0  0  0  0  0  0  0
   19.1763   72.7128   -3.8425 C   0  0  0  0  0  0  0  0  0  0  0  0
   18.6597   74.5035   -3.2209 H   0  0  0  0  0  0  0  0  0  0  0  0
 25 28  1  0
 25 24  1  0
 25 26  1  6
 25 27  2  0
  1  4  1  0
  1 24  1  0
  1  2  1  6
  1  3  2  0
  6 11  1  0
  6 12  1  0
 29 36  1  0
 29 37  1  0
  9  7  1  1
  7 13  1  0
 10  8  1  1
  8 14  1  0
 37 28  1  6
  4  5  1  0
 33 30  1  1
 30 38  1  0
 34 31  1  6
 31 39  1  0
 35 32  1  6
 32 40  1  0
 41 42  1  0
 41 43  1  0
 15 19  2  0
 16 22  2  0
 12 17  1  6
 17 19  1  0
 17 20  1  0
 18 19  1  0
 18 22  1  0
 18 23  1  0
  9 10  1  0
  9 11  1  0
 10 12  1  0
 11  5  1  6
 33 34  1  0
 33 35  1  0
 34 36  1  0
 35 37  1  0
 36 42  1  1
 20 21  2  0
 21 22  1  0
M  CHG  2   2  -1  26  -1
M  END
>  <COMPND>  (67) 
    8629 

>  <AUTHOR>  (67) 
    GENERATED BY OPEN BABEL 3.1.1

>  <MASTER>  (67) 
        0    0    0    0    0    0    0    0   58    0   58    0

>  <minimizedAffinity>  (67) 
-7.74410

>  <CNNscore>  (67) 
0.4746233523

>  <CNNaffinity>  (67) 
4.4378209114

>  <CNN_VS>  (67) 
2.1062934399

>  <CNNaffinity_variance>  (67) 
0.3813493848

$$$$
68
     RDKit          3D

 43 45  0  0  0  0  0  0  0  0999 V2000
   25.1439   73.8857   -4.4064 P   0  0  2  0  0  0  0  0  0  0  0  0
   25.1812   73.3070   -5.9168 O   0  0  0  0  0  0  0  0  0  0  0  0
   24.8803   75.3589   -4.2986 O   0  0  0  0  0  0  0  0  0  0  0  0
   26.5347   73.3716   -3.7590 O   0  0  0  0  0  0  0  0  0  0  0  0
   26.8876   72.0076   -3.9106 C   0  0  0  0  0  0  0  0  0  0  0  0
   27.9946   70.1616   -2.8427 O   0  0  0  0  0  0  0  0  0  0  0  0
   29.4763   72.2189   -1.2419 O   0  0  0  0  0  0  0  0  0  0  0  0
   31.3037   71.5125   -3.1388 O   0  0  0  0  0  0  0  0  0  0  0  0
   29.0552   72.2673   -2.6041 C   0  0  1  0  0  0  0  0  0  0  0  0
   29.9338   71.3771   -3.4580 C   0  0  2  0  0  0  0  0  0  0  0  0
   27.7043   71.5696   -2.7026 C   0  0  1  0  0  0  0  0  0  0  0  0
   29.3918   69.9953   -3.1339 C   0  0  2  0  0  0  0  0  0  0  0  0
   30.3370   72.6588   -1.1539 H   0  0  0  0  0  0  0  0  0  0  0  0
   31.6011   72.4080   -3.3631 H   0  0  0  0  0  0  0  0  0  0  0  0
   31.1714   67.8020   -3.1627 O   0  0  0  0  0  0  0  0  0  0  0  0
   29.8524   66.5524   -7.3982 O   0  0  0  0  0  0  0  0  0  0  0  0
   29.5338   69.0802   -4.2311 N   0  0  0  0  0  0  0  0  0  0  0  0
   30.5130   67.1815   -5.2716 N   0  0  0  0  0  0  0  0  0  0  0  0
   30.4570   68.0122   -4.1451 C   0  0  0  0  0  0  0  0  0  0  0  0
   28.7623   69.2462   -5.3762 C   0  0  0  0  0  0  0  0  0  0  0  0
   28.8286   68.4460   -6.4423 C   0  0  0  0  0  0  0  0  0  0  0  0
   29.7680   67.3061   -6.4335 C   0  0  0  0  0  0  0  0  0  0  0  0
   31.1495   66.4309   -5.2345 H   0  0  0  0  0  0  0  0  0  0  0  0
   24.0400   72.9502   -3.6859 O   0  0  0  0  0  0  0  0  0  0  0  0
   23.3018   73.0895   -2.2546 P   0  0  2  0  0  0  0  0  0  0  0  0
   22.2969   71.8218   -2.2305 O   0  0  0  0  0  0  0  0  0  0  0  0
   22.6320   74.4149   -2.0340 O   0  0  0  0  0  0  0  0  0  0  0  0
   24.4411   72.7272   -1.1703 O   0  0  0  0  0  0  0  0  0  0  0  0
   23.8581   73.2418    1.0684 O   0  0  0  0  0  0  0  0  0  0  0  0
   27.9061   72.6006    1.5716 O   0  0  0  0  0  0  0  0  0  0  0  0
   26.0303   70.6594    2.5521 O   0  0  0  0  0  0  0  0  0  0  0  0
   26.9416   73.9469   -0.8026 O   0  0  0  0  0  0  0  0  0  0  0  0
   26.6136   72.3827    0.9994 C   0  0  1  0  0  0  0  0  0  0  0  0
   25.6579   71.9647    2.1186 C   0  0  1  0  0  0  0  0  0  0  0  0
   26.1358   73.6746    0.3390 C   0  0  2  0  0  0  0  0  0  0  0  0
   24.2015   71.9719    1.6349 C   0  0  1  0  0  0  0  0  0  0  0  0
   24.6613   73.5932   -0.0600 C   0  0  1  0  0  0  0  0  0  0  0  0
   28.2154   71.7840    1.9921 H   0  0  0  0  0  0  0  0  0  0  0  0
   26.9521   70.6686    2.8544 H   0  0  0  0  0  0  0  0  0  0  0  0
   27.8726   73.9963   -0.5367 H   0  0  0  0  0  0  0  0  0  0  0  0
   23.1414   70.3146    2.9908 O   0  0  0  0  0  0  0  0  0  0  0  0
   23.2191   71.7116    2.7748 C   0  0  0  0  0  0  0  0  0  0  0  0
   22.5198   70.1339    3.7139 H   0  0  0  0  0  0  0  0  0  0  0  0
 25 28  1  0
 25 24  1  0
 25 26  1  6
 25 27  2  0
  1  4  1  0
  1 24  1  0
  1  2  1  6
  1  3  2  0
  6 11  1  0
  6 12  1  0
 29 36  1  0
 29 37  1  0
  9  7  1  1
  7 13  1  0
 10  8  1  1
  8 14  1  0
 37 28  1  6
  4  5  1  0
 33 30  1  1
 30 38  1  0
 34 31  1  6
 31 39  1  0
 35 32  1  6
 32 40  1  0
 41 42  1  0
 41 43  1  0
 15 19  2  0
 16 22  2  0
 12 17  1  6
 17 19  1  0
 17 20  1  0
 18 19  1  0
 18 22  1  0
 18 23  1  0
  9 10  1  0
  9 11  1  0
 10 12  1  0
 11  5  1  6
 33 34  1  0
 33 35  1  0
 34 36  1  0
 35 37  1  0
 36 42  1  1
 20 21  2  0
 21 22  1  0
M  CHG  2   2  -1  26  -1
M  END
>  <COMPND>  (68) 
    8629 

>  <AUTHOR>  (68) 
    GENERATED BY OPEN BABEL 3.1.1

>  <MASTER>  (68) 
        0    0    0    0    0    0    0    0   58    0   58    0

>  <minimizedAffinity>  (68) 
-6.70417

>  <CNNscore>  (68) 
0.4651796520

>  <CNNaffinity>  (68) 
4.1697435379

>  <CNN_VS>  (68) 
1.9396798611

>  <CNNaffinity_variance>  (68) 
0.0768861249

$$$$
69
     RDKit          3D

 43 45  0  0  0  0  0  0  0  0999 V2000
   22.1187   71.0330   -3.8468 P   0  0  2  0  0  0  0  0  0  0  0  0
   21.6312   71.3021   -2.3278 O   0  0  0  0  0  0  0  0  0  0  0  0
   22.1197   69.5923   -4.2663 O   0  0  0  0  0  0  0  0  0  0  0  0
   23.5446   71.7922   -3.9373 O   0  0  0  0  0  0  0  0  0  0  0  0
   24.7199   71.0107   -4.0624 C   0  0  0  0  0  0  0  0  0  0  0  0
   26.5826   70.1939   -2.7829 O   0  0  0  0  0  0  0  0  0  0  0  0
   26.7701   72.9598   -1.6404 O   0  0  0  0  0  0  0  0  0  0  0  0
   28.7526   72.9545   -3.5129 O   0  0  0  0  0  0  0  0  0  0  0  0
   26.4193   72.5513   -2.9615 C   0  0  1  0  0  0  0  0  0  0  0  0
   27.6507   72.0933   -3.7148 C   0  0  2  0  0  0  0  0  0  0  0  0
   25.6135   71.2625   -2.8556 C   0  0  1  0  0  0  0  0  0  0  0  0
   27.8777   70.7076   -3.1346 C   0  0  2  0  0  0  0  0  0  0  0  0
   27.2852   73.7813   -1.6823 H   0  0  0  0  0  0  0  0  0  0  0  0
   28.5595   73.8229   -3.8995 H   0  0  0  0  0  0  0  0  0  0  0  0
   29.8770   68.8254   -2.4728 O   0  0  0  0  0  0  0  0  0  0  0  0
   30.1712   67.3343   -6.8238 O   0  0  0  0  0  0  0  0  0  0  0  0
   28.4941   69.8145   -4.0747 N   0  0  0  0  0  0  0  0  0  0  0  0
   30.0217   68.0844   -4.6398 N   0  0  0  0  0  0  0  0  0  0  0  0
   29.4890   68.9081   -3.6400 C   0  0  0  0  0  0  0  0  0  0  0  0
   28.1107   69.8427   -5.4112 C   0  0  0  0  0  0  0  0  0  0  0  0
   28.6294   69.0514   -6.3525 C   0  0  0  0  0  0  0  0  0  0  0  0
   29.6746   68.0757   -5.9815 C   0  0  0  0  0  0  0  0  0  0  0  0
   30.7167   67.4452   -4.3602 H   0  0  0  0  0  0  0  0  0  0  0  0
   21.1439   71.9859   -4.7155 O   0  0  0  0  0  0  0  0  0  0  0  0
   21.3170   72.6157   -6.1942 P   0  0  2  0  0  0  0  0  0  0  0  0
   22.3169   71.5753   -6.9258 O   0  0  0  0  0  0  0  0  0  0  0  0
   21.7899   74.0405   -6.2046 O   0  0  0  0  0  0  0  0  0  0  0  0
   19.8891   72.3796   -6.9085 O   0  0  0  0  0  0  0  0  0  0  0  0
   18.8675   70.9167   -8.4682 O   0  0  0  0  0  0  0  0  0  0  0  0
   17.9612   74.5260  -10.2576 O   0  0  0  0  0  0  0  0  0  0  0  0
   15.8846   73.0263   -8.9589 O   0  0  0  0  0  0  0  0  0  0  0  0
   20.5353   74.1499   -8.9878 O   0  0  0  0  0  0  0  0  0  0  0  0
   18.1886   73.6359   -9.1615 C   0  0  1  0  0  0  0  0  0  0  0  0
   17.1737   72.4946   -9.2521 C   0  0  1  0  0  0  0  0  0  0  0  0
   19.6147   73.0951   -9.2453 C   0  0  2  0  0  0  0  0  0  0  0  0
   17.5212   71.3652   -8.2730 C   0  0  1  0  0  0  0  0  0  0  0  0
   19.8405   71.9431   -8.2644 C   0  0  1  0  0  0  0  0  0  0  0  0
   17.0576   74.8734  -10.2100 H   0  0  0  0  0  0  0  0  0  0  0  0
   15.6776   73.7388   -9.5839 H   0  0  0  0  0  0  0  0  0  0  0  0
   20.3823   74.8728   -9.6155 H   0  0  0  0  0  0  0  0  0  0  0  0
   16.2294   70.0785   -9.8172 O   0  0  0  0  0  0  0  0  0  0  0  0
   16.6151   70.1498   -8.4569 C   0  0  0  0  0  0  0  0  0  0  0  0
   15.6525   69.3094   -9.9492 H   0  0  0  0  0  0  0  0  0  0  0  0
 25 28  1  0
 25 24  1  0
 25 26  1  6
 25 27  2  0
  1  4  1  0
  1 24  1  0
  1  2  1  1
  1  3  2  0
  6 11  1  0
  6 12  1  0
 29 36  1  0
 29 37  1  0
  9  7  1  1
  7 13  1  0
 10  8  1  1
  8 14  1  0
 37 28  1  1
  4  5  1  0
 33 30  1  6
 30 38  1  0
 34 31  1  1
 31 39  1  0
 35 32  1  1
 32 40  1  0
 41 42  1  0
 41 43  1  0
 15 19  2  0
 16 22  2  0
 12 17  1  6
 17 19  1  0
 17 20  1  0
 18 19  1  0
 18 22  1  0
 18 23  1  0
  9 10  1  0
  9 11  1  0
 10 12  1  0
 11  5  1  6
 33 34  1  0
 33 35  1  0
 34 36  1  0
 35 37  1  0
 36 42  1  6
 20 21  2  0
 21 22  1  0
M  CHG  2   2  -1  26  -1
M  END
>  <COMPND>  (69) 
    8629 

>  <AUTHOR>  (69) 
    GENERATED BY OPEN BABEL 3.1.1

>  <MASTER>  (69) 
        0    0    0    0    0    0    0    0   58    0   58    0

>  <minimizedAffinity>  (69) 
-7.06977

>  <CNNscore>  (69) 
0.4567816556

>  <CNNaffinity>  (69) 
4.3362345695

>  <CNN_VS>  (69) 
1.9807124138

>  <CNNaffinity_variance>  (69) 
0.0595255271

$$$$
70
     RDKit          3D

 43 45  0  0  0  0  0  0  0  0999 V2000
   24.4213   73.0406   -4.9561 P   0  0  2  0  0  0  0  0  0  0  0  0
   25.4832   73.6317   -6.0240 O   0  0  0  0  0  0  0  0  0  0  0  0
   23.9748   74.0114   -3.9026 O   0  0  0  0  0  0  0  0  0  0  0  0
   25.1276   71.6901   -4.4129 O   0  0  0  0  0  0  0  0  0  0  0  0
   26.5371   71.5791   -4.5076 C   0  0  0  0  0  0  0  0  0  0  0  0
   27.3723   69.6660   -3.3176 O   0  0  0  0  0  0  0  0  0  0  0  0
   28.5370   71.6223   -1.3664 O   0  0  0  0  0  0  0  0  0  0  0  0
   30.6968   70.9404   -2.8852 O   0  0  0  0  0  0  0  0  0  0  0  0
   28.4005   71.7328   -2.7822 C   0  0  1  0  0  0  0  0  0  0  0  0
   29.4174   70.8528   -3.4787 C   0  0  2  0  0  0  0  0  0  0  0  0
   27.0851   71.0748   -3.1796 C   0  0  1  0  0  0  0  0  0  0  0  0
   28.7964   69.4744   -3.3287 C   0  0  2  0  0  0  0  0  0  0  0  0
   29.3699   72.0360   -1.0888 H   0  0  0  0  0  0  0  0  0  0  0  0
   31.0494   71.8357   -3.0073 H   0  0  0  0  0  0  0  0  0  0  0  0
   31.0204   67.7331   -3.3282 O   0  0  0  0  0  0  0  0  0  0  0  0
   30.0197   66.1581   -7.5424 O   0  0  0  0  0  0  0  0  0  0  0  0
   29.1405   68.5978   -4.4125 N   0  0  0  0  0  0  0  0  0  0  0  0
   30.5202   66.9502   -5.4265 N   0  0  0  0  0  0  0  0  0  0  0  0
   30.2786   67.7641   -4.3124 C   0  0  0  0  0  0  0  0  0  0  0  0
   28.3532   68.5705   -5.5585 C   0  0  0  0  0  0  0  0  0  0  0  0
   28.5979   67.7896   -6.6127 C   0  0  0  0  0  0  0  0  0  0  0  0
   29.7679   66.8882   -6.5888 C   0  0  0  0  0  0  0  0  0  0  0  0
   31.3080   66.3611   -5.3795 H   0  0  0  0  0  0  0  0  0  0  0  0
   23.2346   72.4766   -5.8976 O   0  0  0  0  0  0  0  0  0  0  0  0
   21.7970   71.8380   -5.5255 P   0  0  2  0  0  0  0  0  0  0  0  0
   22.0101   70.2582   -5.8015 O   0  0  0  0  0  0  0  0  0  0  0  0
   20.6427   72.4462   -6.2682 O   0  0  0  0  0  0  0  0  0  0  0  0
   21.6985   71.9615   -3.9192 O   0  0  0  0  0  0  0  0  0  0  0  0
   23.0667   70.9320   -2.2807 O   0  0  0  0  0  0  0  0  0  0  0  0
   19.4819   70.9486   -0.2313 O   0  0  0  0  0  0  0  0  0  0  0  0
   21.5728   72.7537    0.5545 O   0  0  0  0  0  0  0  0  0  0  0  0
   19.5167   70.4114   -3.0756 O   0  0  0  0  0  0  0  0  0  0  0  0
   20.4723   71.4584   -1.1283 C   0  0  1  0  0  0  0  0  0  0  0  0
   21.7693   71.6650   -0.3434 C   0  0  1  0  0  0  0  0  0  0  0  0
   20.6834   70.4556   -2.2611 C   0  0  2  0  0  0  0  0  0  0  0  0
   22.9463   71.9544   -1.2847 C   0  0  1  0  0  0  0  0  0  0  0  0
   21.9077   70.8089   -3.1074 C   0  0  1  0  0  0  0  0  0  0  0  0
   19.3429   71.5808    0.4901 H   0  0  0  0  0  0  0  0  0  0  0  0
   20.8266   72.5585    1.1429 H   0  0  0  0  0  0  0  0  0  0  0  0
   18.7487   70.1865   -2.5283 H   0  0  0  0  0  0  0  0  0  0  0  0
   25.0944   72.9912   -1.1442 O   0  0  0  0  0  0  0  0  0  0  0  0
   24.2768   72.0077   -0.5371 C   0  0  0  0  0  0  0  0  0  0  0  0
   25.9446   73.0365   -0.6785 H   0  0  0  0  0  0  0  0  0  0  0  0
 25 28  1  0
 25 24  1  0
 25 26  1  1
 25 27  2  0
  1  4  1  0
  1 24  1  0
  1  2  1  6
  1  3  2  0
  6 11  1  0
  6 12  1  0
 29 36  1  0
 29 37  1  0
  9  7  1  1
  7 13  1  0
 10  8  1  1
  8 14  1  0
 37 28  1  1
  4  5  1  0
 33 30  1  1
 30 38  1  0
 34 31  1  1
 31 39  1  0
 35 32  1  6
 32 40  1  0
 41 42  1  0
 41 43  1  0
 15 19  2  0
 16 22  2  0
 12 17  1  6
 17 19  1  0
 17 20  1  0
 18 19  1  0
 18 22  1  0
 18 23  1  0
  9 10  1  0
  9 11  1  0
 10 12  1  0
 11  5  1  6
 33 34  1  0
 33 35  1  0
 34 36  1  0
 35 37  1  0
 36 42  1  1
 20 21  2  0
 21 22  1  0
M  CHG  2   2  -1  26  -1
M  END
>  <COMPND>  (70) 
    8629 

>  <AUTHOR>  (70) 
    GENERATED BY OPEN BABEL 3.1.1

>  <MASTER>  (70) 
        0    0    0    0    0    0    0    0   58    0   58    0

>  <minimizedAffinity>  (70) 
-7.41837

>  <CNNscore>  (70) 
0.4410293102

>  <CNNaffinity>  (70) 
4.3165750504

>  <CNN_VS>  (70) 
1.9037361145

>  <CNNaffinity_variance>  (70) 
0.0597931929

$$$$
71
     RDKit          3D

 43 45  0  0  0  0  0  0  0  0999 V2000
   22.4147   72.0543   -5.1055 P   0  0  2  0  0  0  0  0  0  0  0  0
   21.6634   70.6681   -4.7430 O   0  0  0  0  0  0  0  0  0  0  0  0
   21.8310   73.2783   -4.4632 O   0  0  0  0  0  0  0  0  0  0  0  0
   22.4568   72.0619   -6.7229 O   0  0  0  0  0  0  0  0  0  0  0  0
   21.5972   71.1816   -7.4258 C   0  0  0  0  0  0  0  0  0  0  0  0
   19.8989   71.1532   -9.1254 O   0  0  0  0  0  0  0  0  0  0  0  0
   20.5193   74.0587   -9.5303 O   0  0  0  0  0  0  0  0  0  0  0  0
   18.2462   74.1403   -8.0259 O   0  0  0  0  0  0  0  0  0  0  0  0
   20.5077   73.2984   -8.3232 C   0  0  1  0  0  0  0  0  0  0  0  0
   19.0833   73.0091   -7.8977 C   0  0  2  0  0  0  0  0  0  0  0  0
   21.0338   71.9044   -8.6416 C   0  0  1  0  0  0  0  0  0  0  0  0
   18.6946   71.8842   -8.8420 C   0  0  2  0  0  0  0  0  0  0  0  0
   20.1877   74.9532   -9.3519 H   0  0  0  0  0  0  0  0  0  0  0  0
   18.5339   74.8276   -7.4049 H   0  0  0  0  0  0  0  0  0  0  0  0
   16.4450   70.8580  -10.2073 O   0  0  0  0  0  0  0  0  0  0  0  0
   15.0687   68.4640   -6.5173 O   0  0  0  0  0  0  0  0  0  0  0  0
   17.7321   70.9904   -8.2623 N   0  0  0  0  0  0  0  0  0  0  0  0
   15.7616   69.6667   -8.3689 N   0  0  0  0  0  0  0  0  0  0  0  0
   16.6377   70.5343   -9.0335 C   0  0  0  0  0  0  0  0  0  0  0  0
   17.8787   70.5749   -6.9433 C   0  0  0  0  0  0  0  0  0  0  0  0
   17.0337   69.7482   -6.3238 C   0  0  0  0  0  0  0  0  0  0  0  0
   15.8638   69.2257   -7.0590 C   0  0  0  0  0  0  0  0  0  0  0  0
   14.9916   69.3364   -8.8863 H   0  0  0  0  0  0  0  0  0  0  0  0
   23.9507   71.7512   -4.7035 O   0  0  0  0  0  0  0  0  0  0  0  0
   25.2789   72.6650   -4.8207 P   0  0  2  0  0  0  0  0  0  0  0  0
   25.3242   73.4377   -3.4000 O   0  0  0  0  0  0  0  0  0  0  0  0
   25.2995   73.5698   -6.0186 O   0  0  0  0  0  0  0  0  0  0  0  0
   26.5037   71.6161   -4.7536 O   0  0  0  0  0  0  0  0  0  0  0  0
   26.8941   69.6873   -3.4330 O   0  0  0  0  0  0  0  0  0  0  0  0
   30.6955   71.2990   -3.3867 O   0  0  0  0  0  0  0  0  0  0  0  0
   30.1738   68.9416   -4.9418 O   0  0  0  0  0  0  0  0  0  0  0  0
   28.3873   73.0395   -3.2366 O   0  0  0  0  0  0  0  0  0  0  0  0
   29.4203   70.9849   -3.9528 C   0  0  1  0  0  0  0  0  0  0  0  0
   29.2669   69.4628   -3.9742 C   0  0  1  0  0  0  0  0  0  0  0  0
   28.3250   71.6238   -3.1011 C   0  0  2  0  0  0  0  0  0  0  0  0
   27.8275   69.0559   -4.3172 C   0  0  1  0  0  0  0  0  0  0  0  0
   26.9364   71.1144   -3.4917 C   0  0  1  0  0  0  0  0  0  0  0  0
   31.3955   70.8967   -3.9231 H   0  0  0  0  0  0  0  0  0  0  0  0
   31.0789   69.2061   -4.7138 H   0  0  0  0  0  0  0  0  0  0  0  0
   29.2710   73.3495   -2.9861 H   0  0  0  0  0  0  0  0  0  0  0  0
   26.8767   67.2983   -3.0072 O   0  0  0  0  0  0  0  0  0  0  0  0
   27.6133   67.5492   -4.1899 C   0  0  0  0  0  0  0  0  0  0  0  0
   26.7326   66.3432   -2.9133 H   0  0  0  0  0  0  0  0  0  0  0  0
 25 28  1  0
 25 24  1  0
 25 26  1  1
 25 27  2  0
  1  4  1  0
  1 24  1  0
  1  2  1  6
  1  3  2  0
  6 11  1  0
  6 12  1  0
 29 36  1  0
 29 37  1  0
  9  7  1  6
  7 13  1  0
 10  8  1  6
  8 14  1  0
 37 28  1  6
  4  5  1  0
 33 30  1  1
 30 38  1  0
 34 31  1  6
 31 39  1  0
 35 32  1  6
 32 40  1  0
 41 42  1  0
 41 43  1  0
 15 19  2  0
 16 22  2  0
 12 17  1  1
 17 19  1  0
 17 20  1  0
 18 19  1  0
 18 22  1  0
 18 23  1  0
  9 10  1  0
  9 11  1  0
 10 12  1  0
 11  5  1  1
 33 34  1  0
 33 35  1  0
 34 36  1  0
 35 37  1  0
 36 42  1  1
 20 21  2  0
 21 22  1  0
M  CHG  2   2  -1  26  -1
M  END
>  <COMPND>  (71) 
    8629 

>  <AUTHOR>  (71) 
    GENERATED BY OPEN BABEL 3.1.1

>  <MASTER>  (71) 
        0    0    0    0    0    0    0    0   58    0   58    0

>  <minimizedAffinity>  (71) 
-7.63942

>  <CNNscore>  (71) 
0.4288296998

>  <CNNaffinity>  (71) 
4.1410136223

>  <CNN_VS>  (71) 
1.7757896185

>  <CNNaffinity_variance>  (71) 
0.0730394423

$$$$
72
     RDKit          3D

 43 45  0  0  0  0  0  0  0  0999 V2000
   25.7627   72.1786   -2.1190 P   0  0  2  0  0  0  0  0  0  0  0  0
   25.7735   73.5198   -1.2142 O   0  0  0  0  0  0  0  0  0  0  0  0
   24.5913   71.2693   -1.8902 O   0  0  0  0  0  0  0  0  0  0  0  0
   27.2203   71.5250   -1.8621 O   0  0  0  0  0  0  0  0  0  0  0  0
   28.3423   72.3864   -1.7783 C   0  0  0  0  0  0  0  0  0  0  0  0
   29.4219   70.2402   -1.7300 O   0  0  0  0  0  0  0  0  0  0  0  0
   31.8833   71.7070   -0.8464 O   0  0  0  0  0  0  0  0  0  0  0  0
   32.3635   71.2827   -3.4971 O   0  0  0  0  0  0  0  0  0  0  0  0
   30.8719   72.1142   -1.7665 C   0  0  1  0  0  0  0  0  0  0  0  0
   31.0177   71.3642   -3.0741 C   0  0  2  0  0  0  0  0  0  0  0  0
   29.5339   71.5985   -1.2516 C   0  0  1  0  0  0  0  0  0  0  0  0
   30.4312   70.0067   -2.7258 C   0  0  2  0  0  0  0  0  0  0  0  0
   32.7470   72.0253   -1.1540 H   0  0  0  0  0  0  0  0  0  0  0  0
   32.6910   72.1713   -3.7069 H   0  0  0  0  0  0  0  0  0  0  0  0
   31.0463   67.3886   -3.5889 O   0  0  0  0  0  0  0  0  0  0  0  0
   28.0565   67.6427   -7.0872 O   0  0  0  0  0  0  0  0  0  0  0  0
   29.8282   69.3635   -3.8590 N   0  0  0  0  0  0  0  0  0  0  0  0
   29.5570   67.5172   -5.3300 N   0  0  0  0  0  0  0  0  0  0  0  0
   30.2082   68.0468   -4.2086 C   0  0  0  0  0  0  0  0  0  0  0  0
   28.8713   70.0373   -4.6102 C   0  0  0  0  0  0  0  0  0  0  0  0
   28.2607   69.5186   -5.6776 C   0  0  0  0  0  0  0  0  0  0  0  0
   28.6003   68.1475   -6.1098 C   0  0  0  0  0  0  0  0  0  0  0  0
   29.8059   66.6012   -5.5925 H   0  0  0  0  0  0  0  0  0  0  0  0
   25.8830   72.7549   -3.6245 O   0  0  0  0  0  0  0  0  0  0  0  0
   24.9187   73.7453   -4.4623 P   0  0  2  0  0  0  0  0  0  0  0  0
   25.3617   73.4846   -5.9963 O   0  0  0  0  0  0  0  0  0  0  0  0
   24.9899   75.1822   -4.0329 O   0  0  0  0  0  0  0  0  0  0  0  0
   23.4513   73.0837   -4.3436 O   0  0  0  0  0  0  0  0  0  0  0  0
   22.9465   70.8291   -4.8714 O   0  0  0  0  0  0  0  0  0  0  0  0
   19.2665   72.5302   -5.6554 O   0  0  0  0  0  0  0  0  0  0  0  0
   19.6031   70.8925   -3.3203 O   0  0  0  0  0  0  0  0  0  0  0  0
   21.6912   73.9506   -6.3500 O   0  0  0  0  0  0  0  0  0  0  0  0
   20.5092   72.3740   -4.9650 C   0  0  1  0  0  0  0  0  0  0  0  0
   20.5568   70.9625   -4.3766 C   0  0  1  0  0  0  0  0  0  0  0  0
   21.6574   72.5848   -5.9501 C   0  0  2  0  0  0  0  0  0  0  0  0
   21.9598   70.6277   -3.8528 C   0  0  1  0  0  0  0  0  0  0  0  0
   23.0021   72.1758   -5.3462 C   0  0  1  0  0  0  0  0  0  0  0  0
   18.5332   72.3981   -5.0354 H   0  0  0  0  0  0  0  0  0  0  0  0
   18.7215   71.1065   -3.6642 H   0  0  0  0  0  0  0  0  0  0  0  0
   20.8345   74.1972   -6.7309 H   0  0  0  0  0  0  0  0  0  0  0  0
   21.3233   68.3686   -4.3004 O   0  0  0  0  0  0  0  0  0  0  0  0
   22.0711   69.1717   -3.4058 C   0  0  0  0  0  0  0  0  0  0  0  0
   21.3852   67.4391   -4.0284 H   0  0  0  0  0  0  0  0  0  0  0  0
 25 28  1  0
 25 24  1  0
 25 26  1  6
 25 27  2  0
  1  4  1  0
  1 24  1  0
  1  2  1  1
  1  3  2  0
  6 11  1  0
  6 12  1  0
 29 36  1  0
 29 37  1  0
  9  7  1  1
  7 13  1  0
 10  8  1  1
  8 14  1  0
 37 28  1  1
  4  5  1  0
 33 30  1  6
 30 38  1  0
 34 31  1  1
 31 39  1  0
 35 32  1  1
 32 40  1  0
 41 42  1  0
 41 43  1  0
 15 19  2  0
 16 22  2  0
 12 17  1  6
 17 19  1  0
 17 20  1  0
 18 19  1  0
 18 22  1  0
 18 23  1  0
  9 10  1  0
  9 11  1  0
 10 12  1  0
 11  5  1  6
 33 34  1  0
 33 35  1  0
 34 36  1  0
 35 37  1  0
 36 42  1  6
 20 21  2  0
 21 22  1  0
M  CHG  2   2  -1  26  -1
M  END
>  <COMPND>  (72) 
    8629 

>  <AUTHOR>  (72) 
    GENERATED BY OPEN BABEL 3.1.1

>  <MASTER>  (72) 
        0    0    0    0    0    0    0    0   58    0   58    0

>  <minimizedAffinity>  (72) 
-7.05885

>  <CNNscore>  (72) 
0.3914162517

>  <CNNaffinity>  (72) 
4.1911325455

>  <CNN_VS>  (72) 
1.6404774189

>  <CNNaffinity_variance>  (72) 
0.1819191873

$$$$
73
     RDKit          3D

 43 45  0  0  0  0  0  0  0  0999 V2000
   28.0504   72.3580   -2.0932 P   0  0  2  0  0  0  0  0  0  0  0  0
   28.4586   72.1118   -0.5472 O   0  0  0  0  0  0  0  0  0  0  0  0
   29.1835   72.7579   -2.9918 O   0  0  0  0  0  0  0  0  0  0  0  0
   26.8186   73.4037   -2.0079 O   0  0  0  0  0  0  0  0  0  0  0  0
   26.0963   73.4998   -0.7927 C   0  0  0  0  0  0  0  0  0  0  0  0
   24.8396   71.7817    0.3221 O   0  0  0  0  0  0  0  0  0  0  0  0
   22.5691   72.5286   -1.4883 O   0  0  0  0  0  0  0  0  0  0  0  0
   21.9027   73.7726    0.8451 O   0  0  0  0  0  0  0  0  0  0  0  0
   23.5575   73.3646   -0.8888 C   0  0  1  0  0  0  0  0  0  0  0  0
   23.2726   73.5396    0.5883 C   0  0  2  0  0  0  0  0  0  0  0  0
   24.8731   72.5965   -0.8701 C   0  0  1  0  0  0  0  0  0  0  0  0
   23.7585   72.2192    1.1615 C   0  0  2  0  0  0  0  0  0  0  0  0
   21.7199   72.9979   -1.5117 H   0  0  0  0  0  0  0  0  0  0  0  0
   21.6418   74.6241    0.4609 H   0  0  0  0  0  0  0  0  0  0  0  0
   23.1468   70.4236    3.2542 O   0  0  0  0  0  0  0  0  0  0  0  0
   25.6513   72.8220    6.2901 O   0  0  0  0  0  0  0  0  0  0  0  0
   24.2376   72.3501    2.5086 N   0  0  0  0  0  0  0  0  0  0  0  0
   24.3945   71.6191    4.7641 N   0  0  0  0  0  0  0  0  0  0  0  0
   23.8708   71.3944    3.4846 C   0  0  0  0  0  0  0  0  0  0  0  0
   25.0618   73.4167    2.8504 C   0  0  0  0  0  0  0  0  0  0  0  0
   25.5518   73.6175    4.0754 C   0  0  0  0  0  0  0  0  0  0  0  0
   25.2166   72.6648    5.1534 C   0  0  0  0  0  0  0  0  0  0  0  0
   24.1522   70.9664    5.4605 H   0  0  0  0  0  0  0  0  0  0  0  0
   27.3238   70.9733   -2.5023 O   0  0  0  0  0  0  0  0  0  0  0  0
   26.4365   70.5818   -3.7955 P   0  0  2  0  0  0  0  0  0  0  0  0
   26.4332   71.9434   -4.6693 O   0  0  0  0  0  0  0  0  0  0  0  0
   25.0702   70.0534   -3.4672 O   0  0  0  0  0  0  0  0  0  0  0  0
   27.3645   69.5616   -4.6341 O   0  0  0  0  0  0  0  0  0  0  0  0
   27.0552   67.2616   -5.1144 O   0  0  0  0  0  0  0  0  0  0  0  0
   31.1565   67.2899   -4.6355 O   0  0  0  0  0  0  0  0  0  0  0  0
   30.0378   66.9937   -7.2640 O   0  0  0  0  0  0  0  0  0  0  0  0
   29.4910   68.9205   -2.9189 O   0  0  0  0  0  0  0  0  0  0  0  0
   29.8864   67.8200   -5.0245 C   0  0  1  0  0  0  0  0  0  0  0  0
   29.2739   66.8818   -6.0664 C   0  0  1  0  0  0  0  0  0  0  0  0
   28.9874   67.9164   -3.7933 C   0  0  2  0  0  0  0  0  0  0  0  0
   27.8049   67.2353   -6.3346 C   0  0  1  0  0  0  0  0  0  0  0  0
   27.5382   68.2237   -4.1748 C   0  0  1  0  0  0  0  0  0  0  0  0
   31.7323   67.2265   -5.4127 H   0  0  0  0  0  0  0  0  0  0  0  0
   30.9635   66.7683   -7.0808 H   0  0  0  0  0  0  0  0  0  0  0  0
   30.4089   68.7144   -2.6846 H   0  0  0  0  0  0  0  0  0  0  0  0
   26.6824   66.8876   -8.4150 O   0  0  0  0  0  0  0  0  0  0  0  0
   27.1298   66.2172   -7.2511 C   0  0  0  0  0  0  0  0  0  0  0  0
   26.2508   66.2519   -9.0078 H   0  0  0  0  0  0  0  0  0  0  0  0
 25 28  1  0
 25 24  1  0
 25 26  1  6
 25 27  2  0
  1  4  1  0
  1 24  1  0
  1  2  1  1
  1  3  2  0
  6 11  1  0
  6 12  1  0
 29 36  1  0
 29 37  1  0
  9  7  1  1
  7 13  1  0
 10  8  1  6
  8 14  1  0
 37 28  1  6
  4  5  1  0
 33 30  1  1
 30 38  1  0
 34 31  1  6
 31 39  1  0
 35 32  1  1
 32 40  1  0
 41 42  1  0
 41 43  1  0
 15 19  2  0
 16 22  2  0
 12 17  1  1
 17 19  1  0
 17 20  1  0
 18 19  1  0
 18 22  1  0
 18 23  1  0
  9 10  1  0
  9 11  1  0
 10 12  1  0
 11  5  1  1
 33 34  1  0
 33 35  1  0
 34 36  1  0
 35 37  1  0
 36 42  1  6
 20 21  2  0
 21 22  1  0
M  CHG  2   2  -1  26  -1
M  END
>  <COMPND>  (73) 
    8629 

>  <AUTHOR>  (73) 
    GENERATED BY OPEN BABEL 3.1.1

>  <MASTER>  (73) 
        0    0    0    0    0    0    0    0   58    0   58    0

>  <minimizedAffinity>  (73) 
-7.31236

>  <CNNscore>  (73) 
0.3444099426

>  <CNNaffinity>  (73) 
3.9788920879

>  <CNN_VS>  (73) 
1.3703700304

>  <CNNaffinity_variance>  (73) 
0.0911981761

$$$$
74
     RDKit          3D

 43 45  0  0  0  0  0  0  0  0999 V2000
   31.3607   73.0466    2.3030 P   0  0  2  0  0  0  0  0  0  0  0  0
   31.1325   73.2269    3.8945 O   0  0  0  0  0  0  0  0  0  0  0  0
   32.1258   74.1558    1.6428 O   0  0  0  0  0  0  0  0  0  0  0  0
   29.8734   72.7782    1.7253 O   0  0  0  0  0  0  0  0  0  0  0  0
   28.9627   72.0387    2.5199 C   0  0  0  0  0  0  0  0  0  0  0  0
   26.8693   70.8624    2.4307 O   0  0  0  0  0  0  0  0  0  0  0  0
   26.8302   71.5343   -0.4912 O   0  0  0  0  0  0  0  0  0  0  0  0
   25.1256   73.3816    0.5663 O   0  0  0  0  0  0  0  0  0  0  0  0
   27.3077   72.3102    0.6066 C   0  0  1  0  0  0  0  0  0  0  0  0
   26.1454   72.8699    1.3999 C   0  0  2  0  0  0  0  0  0  0  0  0
   27.9488   71.3592    1.6096 C   0  0  1  0  0  0  0  0  0  0  0  0
   25.6954   71.6576    2.1974 C   0  0  2  0  0  0  0  0  0  0  0  0
   26.4168   72.1201   -1.1453 H   0  0  0  0  0  0  0  0  0  0  0  0
   25.4607   74.1512    0.0804 H   0  0  0  0  0  0  0  0  0  0  0  0
   23.3143   70.5490    3.2362 O   0  0  0  0  0  0  0  0  0  0  0  0
   23.5700   73.1147    7.0563 O   0  0  0  0  0  0  0  0  0  0  0  0
   25.1171   72.0174    3.4613 N   0  0  0  0  0  0  0  0  0  0  0  0
   23.4436   71.8273    5.1376 N   0  0  0  0  0  0  0  0  0  0  0  0
   23.9181   71.4019    3.8902 C   0  0  0  0  0  0  0  0  0  0  0  0
   25.7380   72.9705    4.2613 C   0  0  0  0  0  0  0  0  0  0  0  0
   25.2720   73.3661    5.4477 C   0  0  0  0  0  0  0  0  0  0  0  0
   24.0241   72.7720    5.9690 C   0  0  0  0  0  0  0  0  0  0  0  0
   22.6094   71.4125    5.4567 H   0  0  0  0  0  0  0  0  0  0  0  0
   32.0590   71.5926    2.1984 O   0  0  0  0  0  0  0  0  0  0  0  0
   32.6481   70.7868    0.9268 P   0  0  2  0  0  0  0  0  0  0  0  0
   32.6002   69.2438    1.4107 O   0  0  0  0  0  0  0  0  0  0  0  0
   34.0023   71.2529    0.4766 O   0  0  0  0  0  0  0  0  0  0  0  0
   31.4948   70.8976   -0.1969 O   0  0  0  0  0  0  0  0  0  0  0  0
   31.5768   69.9482   -2.3668 O   0  0  0  0  0  0  0  0  0  0  0  0
   29.2027   73.2296   -3.1715 O   0  0  0  0  0  0  0  0  0  0  0  0
   28.0301   70.6084   -3.1243 O   0  0  0  0  0  0  0  0  0  0  0  0
   31.4160   73.4676   -1.3211 O   0  0  0  0  0  0  0  0  0  0  0  0
   29.7053   72.1467   -2.3840 C   0  0  1  0  0  0  0  0  0  0  0  0
   29.4357   70.8416   -3.1356 C   0  0  1  0  0  0  0  0  0  0  0  0
   31.2046   72.3417   -2.1661 C   0  0  2  0  0  0  0  0  0  0  0  0
   30.1778   69.6653   -2.4870 C   0  0  1  0  0  0  0  0  0  0  0  0
   31.8544   71.0957   -1.5617 C   0  0  1  0  0  0  0  0  0  0  0  0
   28.2511   73.1120   -3.3131 H   0  0  0  0  0  0  0  0  0  0  0  0
   27.5733   71.3586   -3.5362 H   0  0  0  0  0  0  0  0  0  0  0  0
   31.0003   74.2499   -1.7148 H   0  0  0  0  0  0  0  0  0  0  0  0
   28.7102   67.9354   -3.2372 O   0  0  0  0  0  0  0  0  0  0  0  0
   30.0507   68.3852   -3.3100 C   0  0  0  0  0  0  0  0  0  0  0  0
   28.6143   67.1214   -3.7567 H   0  0  0  0  0  0  0  0  0  0  0  0
 25 28  1  0
 25 24  1  0
 25 26  1  1
 25 27  2  0
  1  4  1  0
  1 24  1  0
  1  2  1  1
  1  3  2  0
  6 11  1  0
  6 12  1  0
 29 36  1  0
 29 37  1  0
  9  7  1  6
  7 13  1  0
 10  8  1  6
  8 14  1  0
 37 28  1  1
  4  5  1  0
 33 30  1  6
 30 38  1  0
 34 31  1  1
 31 39  1  0
 35 32  1  1
 32 40  1  0
 41 42  1  0
 41 43  1  0
 15 19  2  0
 16 22  2  0
 12 17  1  1
 17 19  1  0
 17 20  1  0
 18 19  1  0
 18 22  1  0
 18 23  1  0
  9 10  1  0
  9 11  1  0
 10 12  1  0
 11  5  1  1
 33 34  1  0
 33 35  1  0
 34 36  1  0
 35 37  1  0
 36 42  1  6
 20 21  2  0
 21 22  1  0
M  CHG  2   2  -1  26  -1
M  END
>  <COMPND>  (74) 
    8629 

>  <AUTHOR>  (74) 
    GENERATED BY OPEN BABEL 3.1.1

>  <MASTER>  (74) 
        0    0    0    0    0    0    0    0   58    0   58    0

>  <minimizedAffinity>  (74) 
-6.29139

>  <CNNscore>  (74) 
0.3094842732

>  <CNNaffinity>  (74) 
3.7524914742

>  <CNN_VS>  (74) 
1.1613371372

>  <CNNaffinity_variance>  (74) 
0.3558393419

$$$$
75
     RDKit          3D

 43 45  0  0  0  0  0  0  0  0999 V2000
   22.4443   72.2716   -5.3532 P   0  0  2  0  0  0  0  0  0  0  0  0
   22.0991   73.8198   -5.0347 O   0  0  0  0  0  0  0  0  0  0  0  0
   22.3931   71.8966   -6.8052 O   0  0  0  0  0  0  0  0  0  0  0  0
   21.4529   71.4441   -4.3784 O   0  0  0  0  0  0  0  0  0  0  0  0
   20.2586   70.9109   -4.9235 C   0  0  0  0  0  0  0  0  0  0  0  0
   18.6590   72.3653   -5.9721 O   0  0  0  0  0  0  0  0  0  0  0  0
   17.1784   72.3083   -3.3654 O   0  0  0  0  0  0  0  0  0  0  0  0
   15.7632   70.5463   -4.8915 O   0  0  0  0  0  0  0  0  0  0  0  0
   17.9111   71.2675   -4.0097 C   0  0  1  0  0  0  0  0  0  0  0  0
   17.1317   70.7298   -5.1917 C   0  0  2  0  0  0  0  0  0  0  0  0
   19.1224   71.8964   -4.6869 C   0  0  1  0  0  0  0  0  0  0  0  0
   17.3614   71.8078   -6.2373 C   0  0  2  0  0  0  0  0  0  0  0  0
   16.4000   71.9309   -2.9254 H   0  0  0  0  0  0  0  0  0  0  0  0
   15.6693   69.8508   -4.2219 H   0  0  0  0  0  0  0  0  0  0  0  0
   15.0128   71.1316   -7.6531 O   0  0  0  0  0  0  0  0  0  0  0  0
   17.4092   69.8144  -11.3630 O   0  0  0  0  0  0  0  0  0  0  0  0
   17.3424   71.2864   -7.5749 N   0  0  0  0  0  0  0  0  0  0  0  0
   16.2079   70.4765   -9.4993 N   0  0  0  0  0  0  0  0  0  0  0  0
   16.1093   70.9781   -8.1952 C   0  0  0  0  0  0  0  0  0  0  0  0
   18.5372   71.0860   -8.2576 C   0  0  0  0  0  0  0  0  0  0  0  0
   18.6142   70.6056   -9.5004 C   0  0  0  0  0  0  0  0  0  0  0  0
   17.3716   70.2583  -10.2196 C   0  0  0  0  0  0  0  0  0  0  0  0
   15.3616   70.2543   -9.9512 H   0  0  0  0  0  0  0  0  0  0  0  0
   23.8893   72.0708   -4.6572 O   0  0  0  0  0  0  0  0  0  0  0  0
   25.2727   72.8895   -4.8276 P   0  0  2  0  0  0  0  0  0  0  0  0
   25.3880   73.7157   -3.4413 O   0  0  0  0  0  0  0  0  0  0  0  0
   25.3359   73.7405   -6.0627 O   0  0  0  0  0  0  0  0  0  0  0  0
   26.4271   71.7658   -4.7297 O   0  0  0  0  0  0  0  0  0  0  0  0
   26.7258   69.8743   -3.3333 O   0  0  0  0  0  0  0  0  0  0  0  0
   30.6117   71.2698   -3.3941 O   0  0  0  0  0  0  0  0  0  0  0  0
   29.9393   68.8832   -4.8433 O   0  0  0  0  0  0  0  0  0  0  0  0
   28.4064   73.1423   -3.2935 O   0  0  0  0  0  0  0  0  0  0  0  0
   29.3138   71.0049   -3.9334 C   0  0  1  0  0  0  0  0  0  0  0  0
   29.0753   69.4943   -3.8891 C   0  0  1  0  0  0  0  0  0  0  0  0
   28.2668   71.7392   -3.0979 C   0  0  2  0  0  0  0  0  0  0  0  0
   27.6112   69.1553   -4.1998 C   0  0  1  0  0  0  0  0  0  0  0  0
   26.8471   71.2931   -3.4524 C   0  0  1  0  0  0  0  0  0  0  0  0
   31.2812   70.8068   -3.9204 H   0  0  0  0  0  0  0  0  0  0  0  0
   30.8606   69.1055   -4.6360 H   0  0  0  0  0  0  0  0  0  0  0  0
   29.3092   73.4122   -3.0654 H   0  0  0  0  0  0  0  0  0  0  0  0
   26.0104   67.5372   -3.4731 O   0  0  0  0  0  0  0  0  0  0  0  0
   27.3148   67.6696   -4.0071 C   0  0  0  0  0  0  0  0  0  0  0  0
   25.8079   66.5967   -3.3454 H   0  0  0  0  0  0  0  0  0  0  0  0
 25 28  1  0
 25 24  1  0
 25 26  1  1
 25 27  2  0
  1  4  1  0
  1 24  1  0
  1  2  1  6
  1  3  2  0
  6 11  1  0
  6 12  1  0
 29 36  1  0
 29 37  1  0
  9  7  1  6
  7 13  1  0
 10  8  1  1
  8 14  1  0
 37 28  1  6
  4  5  1  0
 33 30  1  1
 30 38  1  0
 34 31  1  6
 31 39  1  0
 35 32  1  6
 32 40  1  0
 41 42  1  0
 41 43  1  0
 15 19  2  0
 16 22  2  0
 12 17  1  6
 17 19  1  0
 17 20  1  0
 18 19  1  0
 18 22  1  0
 18 23  1  0
  9 10  1  0
  9 11  1  0
 10 12  1  0
 11  5  1  6
 33 34  1  0
 33 35  1  0
 34 36  1  0
 35 37  1  0
 36 42  1  1
 20 21  2  0
 21 22  1  0
M  CHG  2   2  -1  26  -1
M  END
>  <COMPND>  (75) 
    8629 

>  <AUTHOR>  (75) 
    GENERATED BY OPEN BABEL 3.1.1

>  <MASTER>  (75) 
        0    0    0    0    0    0    0    0   58    0   58    0

>  <minimizedAffinity>  (75) 
-7.36857

>  <CNNscore>  (75) 
0.3039261997

>  <CNNaffinity>  (75) 
4.2036347389

>  <CNN_VS>  (75) 
1.2775946856

>  <CNNaffinity_variance>  (75) 
0.0458320528

$$$$
76
     RDKit          3D

 43 45  0  0  0  0  0  0  0  0999 V2000
   25.9606   72.6175    0.3336 P   0  0  2  0  0  0  0  0  0  0  0  0
   24.7597   71.7994    1.0448 O   0  0  0  0  0  0  0  0  0  0  0  0
   25.5609   73.9307   -0.2723 O   0  0  0  0  0  0  0  0  0  0  0  0
   26.6125   71.5430   -0.6854 O   0  0  0  0  0  0  0  0  0  0  0  0
   27.5709   71.9973   -1.6250 C   0  0  0  0  0  0  0  0  0  0  0  0
   27.9635   71.3937   -3.9174 O   0  0  0  0  0  0  0  0  0  0  0  0
   24.9817   71.3974   -4.2336 O   0  0  0  0  0  0  0  0  0  0  0  0
   25.5519   68.7405   -4.0040 O   0  0  0  0  0  0  0  0  0  0  0  0
   25.7699   70.9931   -3.1152 C   0  0  1  0  0  0  0  0  0  0  0  0
   26.4339   69.6608   -3.3941 C   0  0  2  0  0  0  0  0  0  0  0  0
   26.9666   71.9313   -3.0209 C   0  0  1  0  0  0  0  0  0  0  0  0
   27.5798   70.0646   -4.3061 C   0  0  2  0  0  0  0  0  0  0  0  0
   24.2111   70.8129   -4.3140 H   0  0  0  0  0  0  0  0  0  0  0  0
   24.8406   68.5148   -3.3843 H   0  0  0  0  0  0  0  0  0  0  0  0
   27.9758   67.7203   -5.8311 O   0  0  0  0  0  0  0  0  0  0  0  0
   31.9715   66.8051   -3.7245 O   0  0  0  0  0  0  0  0  0  0  0  0
   28.7150   69.1951   -4.1771 N   0  0  0  0  0  0  0  0  0  0  0  0
   29.9651   67.2666   -4.7810 N   0  0  0  0  0  0  0  0  0  0  0  0
   28.8177   68.0424   -4.9902 C   0  0  0  0  0  0  0  0  0  0  0  0
   29.7115   69.4890   -3.2527 C   0  0  0  0  0  0  0  0  0  0  0  0
   30.7988   68.7383   -3.0646 C   0  0  0  0  0  0  0  0  0  0  0  0
   30.9827   67.5163   -3.8739 C   0  0  0  0  0  0  0  0  0  0  0  0
   30.0579   66.4584   -5.3360 H   0  0  0  0  0  0  0  0  0  0  0  0
   27.0695   72.7267    1.5047 O   0  0  0  0  0  0  0  0  0  0  0  0
   27.2340   71.9104    2.8902 P   0  0  2  0  0  0  0  0  0  0  0  0
   28.5893   72.5256    3.5246 O   0  0  0  0  0  0  0  0  0  0  0  0
   27.2484   70.4181    2.7272 O   0  0  0  0  0  0  0  0  0  0  0  0
   26.0514   72.4686    3.8362 O   0  0  0  0  0  0  0  0  0  0  0  0
   26.0603   72.3750    6.2042 O   0  0  0  0  0  0  0  0  0  0  0  0
   21.9831   72.2927    5.5561 O   0  0  0  0  0  0  0  0  0  0  0  0
   23.2033   74.6683    6.6123 O   0  0  0  0  0  0  0  0  0  0  0  0
   23.7571   70.8536    3.7781 O   0  0  0  0  0  0  0  0  0  0  0  0
   23.3363   72.6757    5.2960 C   0  0  1  0  0  0  0  0  0  0  0  0
   23.8709   73.4125    6.5257 C   0  0  1  0  0  0  0  0  0  0  0  0
   24.1648   71.4230    5.0174 C   0  0  2  0  0  0  0  0  0  0  0  0
   25.3885   73.6196    6.4310 C   0  0  1  0  0  0  0  0  0  0  0  0
   25.6630   71.7309    4.9921 C   0  0  1  0  0  0  0  0  0  0  0  0
   21.4515   73.0836    5.7333 H   0  0  0  0  0  0  0  0  0  0  0  0
   22.2458   74.5235    6.6710 H   0  0  0  0  0  0  0  0  0  0  0  0
   22.8070   70.6630    3.8069 H   0  0  0  0  0  0  0  0  0  0  0  0
   25.0066   74.0697    8.7463 O   0  0  0  0  0  0  0  0  0  0  0  0
   25.9663   74.2108    7.7151 C   0  0  0  0  0  0  0  0  0  0  0  0
   25.3607   74.4414    9.5698 H   0  0  0  0  0  0  0  0  0  0  0  0
 25 28  1  0
 25 24  1  0
 25 26  1  1
 25 27  2  0
  1  4  1  0
  1 24  1  0
  1  2  1  1
  1  3  2  0
  6 11  1  0
  6 12  1  0
 29 36  1  0
 29 37  1  0
  9  7  1  6
  7 13  1  0
 10  8  1  6
  8 14  1  0
 37 28  1  6
  4  5  1  0
 33 30  1  1
 30 38  1  0
 34 31  1  6
 31 39  1  0
 35 32  1  6
 32 40  1  0
 41 42  1  0
 41 43  1  0
 15 19  2  0
 16 22  2  0
 12 17  1  1
 17 19  1  0
 17 20  1  0
 18 19  1  0
 18 22  1  0
 18 23  1  0
  9 10  1  0
  9 11  1  0
 10 12  1  0
 11  5  1  1
 33 34  1  0
 33 35  1  0
 34 36  1  0
 35 37  1  0
 36 42  1  1
 20 21  2  0
 21 22  1  0
M  CHG  2   2  -1  26  -1
M  END
>  <COMPND>  (76) 
    8629 

>  <AUTHOR>  (76) 
    GENERATED BY OPEN BABEL 3.1.1

>  <MASTER>  (76) 
        0    0    0    0    0    0    0    0   58    0   58    0

>  <minimizedAffinity>  (76) 
-6.32087

>  <CNNscore>  (76) 
0.3004486263

>  <CNNaffinity>  (76) 
3.8385634422

>  <CNN_VS>  (76) 
1.1532911062

>  <CNNaffinity_variance>  (76) 
0.0148308780

$$$$
77
     RDKit          3D

 43 45  0  0  0  0  0  0  0  0999 V2000
   23.0540   70.2048   -3.4190 P   0  0  2  0  0  0  0  0  0  0  0  0
   22.3140   68.7757   -3.2527 O   0  0  0  0  0  0  0  0  0  0  0  0
   22.7332   71.2122   -2.3542 O   0  0  0  0  0  0  0  0  0  0  0  0
   22.7043   70.6491   -4.9349 O   0  0  0  0  0  0  0  0  0  0  0  0
   21.3510   70.6177   -5.3536 C   0  0  0  0  0  0  0  0  0  0  0  0
   20.3451   72.4439   -6.5481 O   0  0  0  0  0  0  0  0  0  0  0  0
   19.3718   73.4073   -3.8807 O   0  0  0  0  0  0  0  0  0  0  0  0
   17.1542   72.2139   -4.9270 O   0  0  0  0  0  0  0  0  0  0  0  0
   19.5142   72.0713   -4.3603 C   0  0  1  0  0  0  0  0  0  0  0  0
   18.4184   71.7501   -5.3551 C   0  0  2  0  0  0  0  0  0  0  0  0
   20.7620   72.0165   -5.2329 C   0  0  1  0  0  0  0  0  0  0  0  0
   18.9093   72.4607   -6.6050 C   0  0  2  0  0  0  0  0  0  0  0  0
   18.5815   73.4670   -3.3204 H   0  0  0  0  0  0  0  0  0  0  0  0
   16.8857   71.7316   -4.1295 H   0  0  0  0  0  0  0  0  0  0  0  0
   18.9595   73.6472   -9.1677 O   0  0  0  0  0  0  0  0  0  0  0  0
   17.2468   69.8585  -11.1562 O   0  0  0  0  0  0  0  0  0  0  0  0
   18.4827   71.8070   -7.8100 N   0  0  0  0  0  0  0  0  0  0  0  0
   18.1068   71.7597  -10.1558 N   0  0  0  0  0  0  0  0  0  0  0  0
   18.5476   72.4917   -9.0459 C   0  0  0  0  0  0  0  0  0  0  0  0
   18.0068   70.5013   -7.7588 C   0  0  0  0  0  0  0  0  0  0  0  0
   17.5890   69.8177   -8.8262 C   0  0  0  0  0  0  0  0  0  0  0  0
   17.6241   70.4606  -10.1557 C   0  0  0  0  0  0  0  0  0  0  0  0
   18.1425   72.2165  -11.0275 H   0  0  0  0  0  0  0  0  0  0  0  0
   24.6155   69.7970   -3.5109 O   0  0  0  0  0  0  0  0  0  0  0  0
   25.9375   70.7010   -3.7298 P   0  0  2  0  0  0  0  0  0  0  0  0
   26.5713   70.7974   -2.2444 O   0  0  0  0  0  0  0  0  0  0  0  0
   25.6743   72.0293   -4.3782 O   0  0  0  0  0  0  0  0  0  0  0  0
   26.9534   69.7482   -4.5454 O   0  0  0  0  0  0  0  0  0  0  0  0
   26.8806   67.4075   -4.9094 O   0  0  0  0  0  0  0  0  0  0  0  0
   30.9663   67.8944   -4.5612 O   0  0  0  0  0  0  0  0  0  0  0  0
   29.8173   67.3524   -7.1369 O   0  0  0  0  0  0  0  0  0  0  0  0
   29.1809   69.4214   -2.8700 O   0  0  0  0  0  0  0  0  0  0  0  0
   29.6368   68.2670   -4.9342 C   0  0  1  0  0  0  0  0  0  0  0  0
   29.1016   67.2190   -5.9120 C   0  0  1  0  0  0  0  0  0  0  0  0
   28.7654   68.3278   -3.6811 C   0  0  2  0  0  0  0  0  0  0  0  0
   27.5965   67.4011   -6.1501 C   0  0  1  0  0  0  0  0  0  0  0  0
   27.2820   68.4604   -4.0307 C   0  0  1  0  0  0  0  0  0  0  0  0
   31.5250   67.8544   -5.3523 H   0  0  0  0  0  0  0  0  0  0  0  0
   30.7663   67.2358   -6.9726 H   0  0  0  0  0  0  0  0  0  0  0  0
   30.1214   69.3256   -2.6554 H   0  0  0  0  0  0  0  0  0  0  0  0
   26.7778   66.7670   -8.3033 O   0  0  0  0  0  0  0  0  0  0  0  0
   27.0109   66.2734   -6.9971 C   0  0  0  0  0  0  0  0  0  0  0  0
   26.4054   66.0599   -8.8538 H   0  0  0  0  0  0  0  0  0  0  0  0
 25 28  1  0
 25 24  1  0
 25 26  1  1
 25 27  2  0
  1  4  1  0
  1 24  1  0
  1  2  1  1
  1  3  2  0
  6 11  1  0
  6 12  1  0
 29 36  1  0
 29 37  1  0
  9  7  1  6
  7 13  1  0
 10  8  1  1
  8 14  1  0
 37 28  1  6
  4  5  1  0
 33 30  1  1
 30 38  1  0
 34 31  1  6
 31 39  1  0
 35 32  1  1
 32 40  1  0
 41 42  1  0
 41 43  1  0
 15 19  2  0
 16 22  2  0
 12 17  1  6
 17 19  1  0
 17 20  1  0
 18 19  1  0
 18 22  1  0
 18 23  1  0
  9 10  1  0
  9 11  1  0
 10 12  1  0
 11  5  1  6
 33 34  1  0
 33 35  1  0
 34 36  1  0
 35 37  1  0
 36 42  1  6
 20 21  2  0
 21 22  1  0
M  CHG  2   2  -1  26  -1
M  END
>  <COMPND>  (77) 
    8629 

>  <AUTHOR>  (77) 
    GENERATED BY OPEN BABEL 3.1.1

>  <MASTER>  (77) 
        0    0    0    0    0    0    0    0   58    0   58    0

>  <minimizedAffinity>  (77) 
-7.72120

>  <CNNscore>  (77) 
0.2981936932

>  <CNNaffinity>  (77) 
4.2943129539

>  <CNN_VS>  (77) 
1.2805370092

>  <CNNaffinity_variance>  (77) 
0.0300968699

$$$$
78
     RDKit          3D

 43 45  0  0  0  0  0  0  0  0999 V2000
   26.2278   72.1779   -0.9084 P   0  0  2  0  0  0  0  0  0  0  0  0
   26.3552   73.6619   -1.5400 O   0  0  0  0  0  0  0  0  0  0  0  0
   25.8908   72.1380    0.5532 O   0  0  0  0  0  0  0  0  0  0  0  0
   27.6131   71.4561   -1.3300 O   0  0  0  0  0  0  0  0  0  0  0  0
   28.7668   72.2592   -1.5087 C   0  0  0  0  0  0  0  0  0  0  0  0
   29.8407   70.1131   -1.6297 O   0  0  0  0  0  0  0  0  0  0  0  0
   32.3734   71.5486   -0.9115 O   0  0  0  0  0  0  0  0  0  0  0  0
   32.6212   71.2184   -3.6071 O   0  0  0  0  0  0  0  0  0  0  0  0
   31.2872   71.9877   -1.7257 C   0  0  1  0  0  0  0  0  0  0  0  0
   31.3173   71.2843   -3.0666 C   0  0  2  0  0  0  0  0  0  0  0  0
   29.9974   71.4536   -1.1152 C   0  0  1  0  0  0  0  0  0  0  0  0
   30.7594   69.9152   -2.7168 C   0  0  2  0  0  0  0  0  0  0  0  0
   33.2081   71.8778   -1.2814 H   0  0  0  0  0  0  0  0  0  0  0  0
   32.9317   72.1138   -3.8131 H   0  0  0  0  0  0  0  0  0  0  0  0
   31.1807   67.2725   -3.6204 O   0  0  0  0  0  0  0  0  0  0  0  0
   28.0155   67.7087   -6.9418 O   0  0  0  0  0  0  0  0  0  0  0  0
   30.0589   69.3122   -3.8154 N   0  0  0  0  0  0  0  0  0  0  0  0
   29.6042   67.4918   -5.2734 N   0  0  0  0  0  0  0  0  0  0  0  0
   30.3460   67.9788   -4.1896 C   0  0  0  0  0  0  0  0  0  0  0  0
   29.0991   70.0412   -4.5091 C   0  0  0  0  0  0  0  0  0  0  0  0
   28.4014   69.5626   -5.5413 C   0  0  0  0  0  0  0  0  0  0  0  0
   28.6407   68.1777   -5.9958 C   0  0  0  0  0  0  0  0  0  0  0  0
   29.7875   66.5652   -5.5521 H   0  0  0  0  0  0  0  0  0  0  0  0
   25.1401   71.4661   -1.8693 O   0  0  0  0  0  0  0  0  0  0  0  0
   25.2480   70.9561   -3.3994 P   0  0  2  0  0  0  0  0  0  0  0  0
   25.8330   69.4551   -3.2499 O   0  0  0  0  0  0  0  0  0  0  0  0
   26.0596   71.8511   -4.2906 O   0  0  0  0  0  0  0  0  0  0  0  0
   23.7180   70.7522   -3.8709 O   0  0  0  0  0  0  0  0  0  0  0  0
   22.2943   72.1861   -5.1092 O   0  0  0  0  0  0  0  0  0  0  0  0
   19.5160   70.5827   -2.5090 O   0  0  0  0  0  0  0  0  0  0  0  0
   19.5026   69.7840   -5.2676 O   0  0  0  0  0  0  0  0  0  0  0  0
   22.1808   71.2098   -1.5681 O   0  0  0  0  0  0  0  0  0  0  0  0
   20.6794   70.5735   -3.3408 C   0  0  1  0  0  0  0  0  0  0  0  0
   20.2473   70.8936   -4.7731 C   0  0  1  0  0  0  0  0  0  0  0  0
   21.6664   71.6215   -2.8300 C   0  0  2  0  0  0  0  0  0  0  0  0
   21.4623   71.1643   -5.6708 C   0  0  1  0  0  0  0  0  0  0  0  0
   22.8102   71.8498   -3.8198 C   0  0  1  0  0  0  0  0  0  0  0  0
   18.8853   69.9192   -2.8276 H   0  0  0  0  0  0  0  0  0  0  0  0
   18.7386   69.6234   -4.6916 H   0  0  0  0  0  0  0  0  0  0  0  0
   21.4470   71.0689   -0.9504 H   0  0  0  0  0  0  0  0  0  0  0  0
   22.0532   71.2524   -7.9842 O   0  0  0  0  0  0  0  0  0  0  0  0
   21.0505   71.6391   -7.0626 C   0  0  0  0  0  0  0  0  0  0  0  0
   21.8045   71.5477   -8.8745 H   0  0  0  0  0  0  0  0  0  0  0  0
 25 28  1  0
 25 24  1  0
 25 26  1  1
 25 27  2  0
  1  4  1  0
  1 24  1  0
  1  2  1  6
  1  3  2  0
  6 11  1  0
  6 12  1  0
 29 36  1  0
 29 37  1  0
  9  7  1  1
  7 13  1  0
 10  8  1  1
  8 14  1  0
 37 28  1  6
  4  5  1  0
 33 30  1  1
 30 38  1  0
 34 31  1  6
 31 39  1  0
 35 32  1  1
 32 40  1  0
 41 42  1  0
 41 43  1  0
 15 19  2  0
 16 22  2  0
 12 17  1  6
 17 19  1  0
 17 20  1  0
 18 19  1  0
 18 22  1  0
 18 23  1  0
  9 10  1  0
  9 11  1  0
 10 12  1  0
 11  5  1  6
 33 34  1  0
 33 35  1  0
 34 36  1  0
 35 37  1  0
 36 42  1  6
 20 21  2  0
 21 22  1  0
M  CHG  2   2  -1  26  -1
M  END
>  <COMPND>  (78) 
    8629 

>  <AUTHOR>  (78) 
    GENERATED BY OPEN BABEL 3.1.1

>  <MASTER>  (78) 
        0    0    0    0    0    0    0    0   58    0   58    0

>  <minimizedAffinity>  (78) 
-6.85060

>  <CNNscore>  (78) 
0.2841394246

>  <CNNaffinity>  (78) 
4.1588563919

>  <CNN_VS>  (78) 
1.1816951036

>  <CNNaffinity_variance>  (78) 
0.1076356396

$$$$
79
     RDKit          3D

 43 45  0  0  0  0  0  0  0  0999 V2000
   30.4863   70.6975    0.0854 P   0  0  2  0  0  0  0  0  0  0  0  0
   31.3987   69.3624    0.0356 O   0  0  0  0  0  0  0  0  0  0  0  0
   31.2335   71.9652    0.3790 O   0  0  0  0  0  0  0  0  0  0  0  0
   29.3044   70.3218    1.1245 O   0  0  0  0  0  0  0  0  0  0  0  0
   28.7544   71.3537    1.9248 C   0  0  0  0  0  0  0  0  0  0  0  0
   27.4524   70.6979    3.8349 O   0  0  0  0  0  0  0  0  0  0  0  0
   25.0389   71.3417    2.1762 O   0  0  0  0  0  0  0  0  0  0  0  0
   25.2691   73.5425    3.7700 O   0  0  0  0  0  0  0  0  0  0  0  0
   26.3083   71.9918    2.2123 C   0  0  1  0  0  0  0  0  0  0  0  0
   26.4431   72.8123    3.4781 C   0  0  2  0  0  0  0  0  0  0  0  0
   27.3769   70.9238    2.4102 C   0  0  1  0  0  0  0  0  0  0  0  0
   26.7403   71.7436    4.5162 C   0  0  2  0  0  0  0  0  0  0  0  0
   24.3404   72.0037    2.0502 H   0  0  0  0  0  0  0  0  0  0  0  0
   25.1233   74.2095    3.0812 H   0  0  0  0  0  0  0  0  0  0  0  0
   25.7414   73.1371    6.7608 O   0  0  0  0  0  0  0  0  0  0  0  0
   29.9506   73.5884    8.5831 O   0  0  0  0  0  0  0  0  0  0  0  0
   27.5527   72.2364    5.5925 N   0  0  0  0  0  0  0  0  0  0  0  0
   27.8381   73.3605    7.6664 N   0  0  0  0  0  0  0  0  0  0  0  0
   26.9525   72.9244    6.6727 C   0  0  0  0  0  0  0  0  0  0  0  0
   28.9286   72.0355    5.5702 C   0  0  0  0  0  0  0  0  0  0  0  0
   29.7594   72.4589    6.5251 C   0  0  0  0  0  0  0  0  0  0  0  0
   29.2128   73.1864    7.6887 C   0  0  0  0  0  0  0  0  0  0  0  0
   27.4425   73.8426    8.4286 H   0  0  0  0  0  0  0  0  0  0  0  0
   29.7331   70.6765   -1.3447 O   0  0  0  0  0  0  0  0  0  0  0  0
   30.1893   71.2305   -2.7931 P   0  0  2  0  0  0  0  0  0  0  0  0
   31.7889   70.9874   -2.7962 O   0  0  0  0  0  0  0  0  0  0  0  0
   29.7778   72.6480   -3.0674 O   0  0  0  0  0  0  0  0  0  0  0  0
   29.6109   70.1508   -3.8442 O   0  0  0  0  0  0  0  0  0  0  0  0
   28.5854   68.0871   -3.2908 O   0  0  0  0  0  0  0  0  0  0  0  0
   30.2221   67.0535   -6.9383 O   0  0  0  0  0  0  0  0  0  0  0  0
   27.3823   67.4163   -6.7101 O   0  0  0  0  0  0  0  0  0  0  0  0
   31.6901   68.7754   -5.1329 O   0  0  0  0  0  0  0  0  0  0  0  0
   29.6048   67.9252   -5.9872 C   0  0  1  0  0  0  0  0  0  0  0  0
   28.2563   67.3222   -5.5887 C   0  0  1  0  0  0  0  0  0  0  0  0
   30.5153   68.0589   -4.7681 C   0  0  2  0  0  0  0  0  0  0  0  0
   27.6569   68.0553   -4.3810 C   0  0  1  0  0  0  0  0  0  0  0  0
   29.8062   68.7590   -3.6075 C   0  0  1  0  0  0  0  0  0  0  0  0
   29.6492   66.9648   -7.7151 H   0  0  0  0  0  0  0  0  0  0  0  0
   27.7727   66.9498   -7.4659 H   0  0  0  0  0  0  0  0  0  0  0  0
   32.1300   68.3220   -5.8682 H   0  0  0  0  0  0  0  0  0  0  0  0
   25.4427   68.3721   -3.5409 O   0  0  0  0  0  0  0  0  0  0  0  0
   26.3905   67.3728   -3.8686 C   0  0  0  0  0  0  0  0  0  0  0  0
   24.6313   67.9524   -3.2136 H   0  0  0  0  0  0  0  0  0  0  0  0
 25 28  1  0
 25 24  1  0
 25 26  1  1
 25 27  2  0
  1  4  1  0
  1 24  1  0
  1  2  1  6
  1  3  2  0
  6 11  1  0
  6 12  1  0
 29 36  1  0
 29 37  1  0
  9  7  1  1
  7 13  1  0
 10  8  1  1
  8 14  1  0
 37 28  1  6
  4  5  1  0
 33 30  1  6
 30 38  1  0
 34 31  1  6
 31 39  1  0
 35 32  1  6
 32 40  1  0
 41 42  1  0
 41 43  1  0
 15 19  2  0
 16 22  2  0
 12 17  1  1
 17 19  1  0
 17 20  1  0
 18 19  1  0
 18 22  1  0
 18 23  1  0
  9 10  1  0
  9 11  1  0
 10 12  1  0
 11  5  1  1
 33 34  1  0
 33 35  1  0
 34 36  1  0
 35 37  1  0
 36 42  1  1
 20 21  2  0
 21 22  1  0
M  CHG  2   2  -1  26  -1
M  END
>  <COMPND>  (79) 
    8629 

>  <AUTHOR>  (79) 
    GENERATED BY OPEN BABEL 3.1.1

>  <MASTER>  (79) 
        0    0    0    0    0    0    0    0   58    0   58    0

>  <minimizedAffinity>  (79) 
-7.18280

>  <CNNscore>  (79) 
0.2830959260

>  <CNNaffinity>  (79) 
3.7041840553

>  <CNN_VS>  (79) 
1.0486394167

>  <CNNaffinity_variance>  (79) 
0.2926348150

$$$$
80
     RDKit          3D

 43 45  0  0  0  0  0  0  0  0999 V2000
   22.8550   72.4559   -4.6627 P   0  0  2  0  0  0  0  0  0  0  0  0
   23.8718   72.6839   -5.9002 O   0  0  0  0  0  0  0  0  0  0  0  0
   22.2461   73.7083   -4.1038 O   0  0  0  0  0  0  0  0  0  0  0  0
   23.7087   71.5629   -3.6179 O   0  0  0  0  0  0  0  0  0  0  0  0
   24.9998   71.1230   -4.0019 C   0  0  0  0  0  0  0  0  0  0  0  0
   26.8547   70.1735   -2.8054 O   0  0  0  0  0  0  0  0  0  0  0  0
   27.2632   72.9074   -1.6436 O   0  0  0  0  0  0  0  0  0  0  0  0
   29.1670   72.7995   -3.5931 O   0  0  0  0  0  0  0  0  0  0  0  0
   26.8358   72.5385   -2.9538 C   0  0  1  0  0  0  0  0  0  0  0  0
   28.0051   72.0126   -3.7597 C   0  0  2  0  0  0  0  0  0  0  0  0
   25.9539   71.3024   -2.8290 C   0  0  1  0  0  0  0  0  0  0  0  0
   28.1654   70.6082   -3.2029 C   0  0  2  0  0  0  0  0  0  0  0  0
   27.8277   73.6950   -1.6976 H   0  0  0  0  0  0  0  0  0  0  0  0
   29.0150   73.6831   -3.9630 H   0  0  0  0  0  0  0  0  0  0  0  0
   30.0490   68.5814   -2.6354 O   0  0  0  0  0  0  0  0  0  0  0  0
   30.0938   67.1430   -7.0138 O   0  0  0  0  0  0  0  0  0  0  0  0
   28.6863   69.6895   -4.1756 N   0  0  0  0  0  0  0  0  0  0  0  0
   30.0696   67.8667   -4.8159 N   0  0  0  0  0  0  0  0  0  0  0  0
   29.6293   68.7095   -3.7874 C   0  0  0  0  0  0  0  0  0  0  0  0
   28.2617   69.7656   -5.4977 C   0  0  0  0  0  0  0  0  0  0  0  0
   28.6923   68.9552   -6.4668 C   0  0  0  0  0  0  0  0  0  0  0  0
   29.6785   67.9035   -6.1450 C   0  0  0  0  0  0  0  0  0  0  0  0
   30.7271   67.1764   -4.5690 H   0  0  0  0  0  0  0  0  0  0  0  0
   21.7886   71.3974   -5.2587 O   0  0  0  0  0  0  0  0  0  0  0  0
   20.8044   70.3508   -4.5179 P   0  0  2  0  0  0  0  0  0  0  0  0
   20.1409   71.2368   -3.3380 O   0  0  0  0  0  0  0  0  0  0  0  0
   21.4824   69.0977   -4.0448 O   0  0  0  0  0  0  0  0  0  0  0  0
   19.6035   70.1058   -5.5682 O   0  0  0  0  0  0  0  0  0  0  0  0
   19.0036   71.8425   -7.0650 O   0  0  0  0  0  0  0  0  0  0  0  0
   15.5237   69.6238   -7.2001 O   0  0  0  0  0  0  0  0  0  0  0  0
   17.3013   69.6121   -9.4558 O   0  0  0  0  0  0  0  0  0  0  0  0
   16.9419   69.9344   -4.6957 O   0  0  0  0  0  0  0  0  0  0  0  0
   16.9359   69.8279   -7.1019 C   0  0  1  0  0  0  0  0  0  0  0  0
   17.4080   70.5339   -8.3745 C   0  0  1  0  0  0  0  0  0  0  0  0
   17.2323   70.6829   -5.8712 C   0  0  2  0  0  0  0  0  0  0  0  0
   18.8550   71.0246   -8.2314 C   0  0  1  0  0  0  0  0  0  0  0  0
   18.6859   71.1590   -5.8510 C   0  0  1  0  0  0  0  0  0  0  0  0
   15.3288   69.0812   -7.9792 H   0  0  0  0  0  0  0  0  0  0  0  0
   16.3829   69.3096   -9.5350 H   0  0  0  0  0  0  0  0  0  0  0  0
   16.0188   69.6390   -4.7204 H   0  0  0  0  0  0  0  0  0  0  0  0
   19.4115   71.0214  -10.5550 O   0  0  0  0  0  0  0  0  0  0  0  0
   19.2936   71.8681   -9.4265 C   0  0  0  0  0  0  0  0  0  0  0  0
   19.6898   71.5447  -11.3234 H   0  0  0  0  0  0  0  0  0  0  0  0
 25 28  1  0
 25 24  1  0
 25 26  1  1
 25 27  2  0
  1  4  1  0
  1 24  1  0
  1  2  1  6
  1  3  2  0
  6 11  1  0
  6 12  1  0
 29 36  1  0
 29 37  1  0
  9  7  1  1
  7 13  1  0
 10  8  1  1
  8 14  1  0
 37 28  1  6
  4  5  1  0
 33 30  1  6
 30 38  1  0
 34 31  1  6
 31 39  1  0
 35 32  1  1
 32 40  1  0
 41 42  1  0
 41 43  1  0
 15 19  2  0
 16 22  2  0
 12 17  1  6
 17 19  1  0
 17 20  1  0
 18 19  1  0
 18 22  1  0
 18 23  1  0
  9 10  1  0
  9 11  1  0
 10 12  1  0
 11  5  1  6
 33 34  1  0
 33 35  1  0
 34 36  1  0
 35 37  1  0
 36 42  1  6
 20 21  2  0
 21 22  1  0
M  CHG  2   2  -1  26  -1
M  END
>  <COMPND>  (80) 
    8629 

>  <AUTHOR>  (80) 
    GENERATED BY OPEN BABEL 3.1.1

>  <MASTER>  (80) 
        0    0    0    0    0    0    0    0   58    0   58    0

>  <minimizedAffinity>  (80) 
-7.36915

>  <CNNscore>  (80) 
0.2692629099

>  <CNNaffinity>  (80) 
4.2658061981

>  <CNN_VS>  (80) 
1.1486233473

>  <CNNaffinity_variance>  (80) 
0.0306881163

$$$$
81
     RDKit          3D

 43 45  0  0  0  0  0  0  0  0999 V2000
   26.8526   72.1311   -3.2598 P   0  0  2  0  0  0  0  0  0  0  0  0
   27.3728   73.6523   -3.0787 O   0  0  0  0  0  0  0  0  0  0  0  0
   26.3792   71.4689   -1.9993 O   0  0  0  0  0  0  0  0  0  0  0  0
   28.0711   71.3927   -4.0265 O   0  0  0  0  0  0  0  0  0  0  0  0
   29.3877   71.5731   -3.5348 C   0  0  0  0  0  0  0  0  0  0  0  0
   28.8245   69.3352   -2.8653 O   0  0  0  0  0  0  0  0  0  0  0  0
   31.5259   69.2439   -1.5672 O   0  0  0  0  0  0  0  0  0  0  0  0
   31.9335   67.8665   -3.8852 O   0  0  0  0  0  0  0  0  0  0  0  0
   31.1297   69.8784   -2.7820 C   0  0  1  0  0  0  0  0  0  0  0  0
   30.9150   68.8459   -3.8688 C   0  0  2  0  0  0  0  0  0  0  0  0
   29.7233   70.4308   -2.5858 C   0  0  1  0  0  0  0  0  0  0  0  0
   29.5585   68.2726   -3.4954 C   0  0  2  0  0  0  0  0  0  0  0  0
   32.4214   68.8835   -1.6680 H   0  0  0  0  0  0  0  0  0  0  0  0
   32.7764   68.2803   -4.1281 H   0  0  0  0  0  0  0  0  0  0  0  0
   26.8965   67.3323   -3.4113 O   0  0  0  0  0  0  0  0  0  0  0  0
   26.8412   66.5351   -7.9503 O   0  0  0  0  0  0  0  0  0  0  0  0
   28.8239   67.8135   -4.6403 N   0  0  0  0  0  0  0  0  0  0  0  0
   26.8711   66.9363   -5.6715 N   0  0  0  0  0  0  0  0  0  0  0  0
   27.4925   67.3606   -4.4900 C   0  0  0  0  0  0  0  0  0  0  0  0
   29.4237   67.8155   -5.8949 C   0  0  0  0  0  0  0  0  0  0  0  0
   28.8179   67.4064   -7.0116 C   0  0  0  0  0  0  0  0  0  0  0  0
   27.4255   66.9180   -6.9415 C   0  0  0  0  0  0  0  0  0  0  0  0
   25.9432   66.6161   -5.5910 H   0  0  0  0  0  0  0  0  0  0  0  0
   25.7271   72.2666   -4.4121 O   0  0  0  0  0  0  0  0  0  0  0  0
   24.6042   73.4002   -4.6712 P   0  0  2  0  0  0  0  0  0  0  0  0
   24.9664   73.9503   -6.1490 O   0  0  0  0  0  0  0  0  0  0  0  0
   24.5464   74.4625   -3.6119 O   0  0  0  0  0  0  0  0  0  0  0  0
   23.2302   72.5766   -4.8683 O   0  0  0  0  0  0  0  0  0  0  0  0
   22.9426   71.3661   -2.8512 O   0  0  0  0  0  0  0  0  0  0  0  0
   19.5540   70.1220   -4.8564 O   0  0  0  0  0  0  0  0  0  0  0  0
   19.3085   71.9528   -2.6573 O   0  0  0  0  0  0  0  0  0  0  0  0
   22.0371   70.4791   -6.3007 O   0  0  0  0  0  0  0  0  0  0  0  0
   20.5752   71.0469   -4.4727 C   0  0  1  0  0  0  0  0  0  0  0  0
   20.5042   71.2378   -2.9564 C   0  0  1  0  0  0  0  0  0  0  0  0
   21.9360   70.4856   -4.8808 C   0  0  2  0  0  0  0  0  0  0  0  0
   21.7286   72.0031   -2.4364 C   0  0  1  0  0  0  0  0  0  0  0  0
   23.0849   71.2907   -4.2711 C   0  0  1  0  0  0  0  0  0  0  0  0
   18.6874   70.4726   -4.6005 H   0  0  0  0  0  0  0  0  0  0  0  0
   18.5430   71.4591   -2.9913 H   0  0  0  0  0  0  0  0  0  0  0  0
   21.3044   69.9661   -6.6746 H   0  0  0  0  0  0  0  0  0  0  0  0
   20.8941   71.0672   -0.4025 O   0  0  0  0  0  0  0  0  0  0  0  0
   21.7574   72.0676   -0.9110 C   0  0  0  0  0  0  0  0  0  0  0  0
   20.9026   71.0962    0.5674 H   0  0  0  0  0  0  0  0  0  0  0  0
 25 28  1  0
 25 24  1  0
 25 26  1  6
 25 27  2  0
  1  4  1  0
  1 24  1  0
  1  2  1  1
  1  3  2  0
  6 11  1  0
  6 12  1  0
 29 36  1  0
 29 37  1  0
  9  7  1  1
  7 13  1  0
 10  8  1  1
  8 14  1  0
 37 28  1  6
  4  5  1  0
 33 30  1  1
 30 38  1  0
 34 31  1  6
 31 39  1  0
 35 32  1  6
 32 40  1  0
 41 42  1  0
 41 43  1  0
 15 19  2  0
 16 22  2  0
 12 17  1  6
 17 19  1  0
 17 20  1  0
 18 19  1  0
 18 22  1  0
 18 23  1  0
  9 10  1  0
  9 11  1  0
 10 12  1  0
 11  5  1  6
 33 34  1  0
 33 35  1  0
 34 36  1  0
 35 37  1  0
 36 42  1  1
 20 21  2  0
 21 22  1  0
M  CHG  2   2  -1  26  -1
M  END
>  <COMPND>  (81) 
    8629 

>  <AUTHOR>  (81) 
    GENERATED BY OPEN BABEL 3.1.1

>  <MASTER>  (81) 
        0    0    0    0    0    0    0    0   58    0   58    0

>  <minimizedAffinity>  (81) 
-7.84074

>  <CNNscore>  (81) 
0.7005258799

>  <CNNaffinity>  (81) 
4.6492547989

>  <CNN_VS>  (81) 
3.2569231987

>  <CNNaffinity_variance>  (81) 
0.2544882894

$$$$
82
     RDKit          3D

 43 45  0  0  0  0  0  0  0  0999 V2000
   24.1373   73.1816   -4.9769 P   0  0  2  0  0  0  0  0  0  0  0  0
   25.2957   73.7160   -5.9719 O   0  0  0  0  0  0  0  0  0  0  0  0
   23.7335   74.1445   -3.8993 O   0  0  0  0  0  0  0  0  0  0  0  0
   24.6927   71.7498   -4.4677 O   0  0  0  0  0  0  0  0  0  0  0  0
   26.0797   71.4831   -4.5821 C   0  0  0  0  0  0  0  0  0  0  0  0
   26.9948   69.6323   -3.3530 O   0  0  0  0  0  0  0  0  0  0  0  0
   27.9482   71.6653   -1.3659 O   0  0  0  0  0  0  0  0  0  0  0  0
   30.2066   71.1285   -2.7971 O   0  0  0  0  0  0  0  0  0  0  0  0
   27.8599   71.7645   -2.7863 C   0  0  1  0  0  0  0  0  0  0  0  0
   28.9600   70.9541   -3.4394 C   0  0  2  0  0  0  0  0  0  0  0  0
   26.6082   71.0187   -3.2318 C   0  0  1  0  0  0  0  0  0  0  0  0
   28.4279   69.5371   -3.3081 C   0  0  2  0  0  0  0  0  0  0  0  0
   28.7399   72.1346   -1.0578 H   0  0  0  0  0  0  0  0  0  0  0  0
   30.5026   72.0453   -2.9089 H   0  0  0  0  0  0  0  0  0  0  0  0
   30.8367   68.0625   -3.2737 O   0  0  0  0  0  0  0  0  0  0  0  0
   30.0309   66.2993   -7.4550 O   0  0  0  0  0  0  0  0  0  0  0  0
   28.8722   68.6843   -4.3743 N   0  0  0  0  0  0  0  0  0  0  0  0
   30.4335   67.1856   -5.3556 N   0  0  0  0  0  0  0  0  0  0  0  0
   30.0982   67.9886   -4.2579 C   0  0  0  0  0  0  0  0  0  0  0  0
   28.0953   68.5441   -5.5191 C   0  0  0  0  0  0  0  0  0  0  0  0
   28.4298   67.7754   -6.5576 C   0  0  0  0  0  0  0  0  0  0  0  0
   29.6954   67.0147   -6.5161 C   0  0  0  0  0  0  0  0  0  0  0  0
   31.2834   66.6918   -5.2971 H   0  0  0  0  0  0  0  0  0  0  0  0
   22.9481   72.7701   -5.9915 O   0  0  0  0  0  0  0  0  0  0  0  0
   21.6144   71.8862   -5.7611 P   0  0  2  0  0  0  0  0  0  0  0  0
   21.1096   72.3513   -4.2960 O   0  0  0  0  0  0  0  0  0  0  0  0
   21.8248   70.4065   -5.9027 O   0  0  0  0  0  0  0  0  0  0  0  0
   20.5305   72.5085   -6.7822 O   0  0  0  0  0  0  0  0  0  0  0  0
   19.7080   70.9535   -8.3704 O   0  0  0  0  0  0  0  0  0  0  0  0
   18.2905   74.4411  -10.0667 O   0  0  0  0  0  0  0  0  0  0  0  0
   16.4557   72.6368   -8.7916 O   0  0  0  0  0  0  0  0  0  0  0  0
   20.9038   74.3990   -8.8223 O   0  0  0  0  0  0  0  0  0  0  0  0
   18.6502   73.5665   -8.9938 C   0  0  1  0  0  0  0  0  0  0  0  0
   17.8034   72.2971   -9.1056 C   0  0  1  0  0  0  0  0  0  0  0  0
   20.1369   73.2321   -9.0994 C   0  0  2  0  0  0  0  0  0  0  0  0
   18.3143   71.2051   -8.1561 C   0  0  1  0  0  0  0  0  0  0  0  0
   20.5303   72.1007   -8.1479 C   0  0  1  0  0  0  0  0  0  0  0  0
   17.3478   74.6578  -10.0052 H   0  0  0  0  0  0  0  0  0  0  0  0
   16.1454   73.3276   -9.3981 H   0  0  0  0  0  0  0  0  0  0  0  0
   20.6456   75.1076   -9.4314 H   0  0  0  0  0  0  0  0  0  0  0  0
   16.7352   70.0057   -9.4891 O   0  0  0  0  0  0  0  0  0  0  0  0
   17.5847   69.8797   -8.3635 C   0  0  0  0  0  0  0  0  0  0  0  0
   16.2645   69.1694   -9.6334 H   0  0  0  0  0  0  0  0  0  0  0  0
 25 28  1  0
 25 24  1  0
 25 26  1  1
 25 27  2  0
  1  4  1  0
  1 24  1  0
  1  2  1  6
  1  3  2  0
  6 11  1  0
  6 12  1  0
 29 36  1  0
 29 37  1  0
  9  7  1  1
  7 13  1  0
 10  8  1  1
  8 14  1  0
 37 28  1  1
  4  5  1  0
 33 30  1  6
 30 38  1  0
 34 31  1  1
 31 39  1  0
 35 32  1  1
 32 40  1  0
 41 42  1  0
 41 43  1  0
 15 19  2  0
 16 22  2  0
 12 17  1  6
 17 19  1  0
 17 20  1  0
 18 19  1  0
 18 22  1  0
 18 23  1  0
  9 10  1  0
  9 11  1  0
 10 12  1  0
 11  5  1  6
 33 34  1  0
 33 35  1  0
 34 36  1  0
 35 37  1  0
 36 42  1  6
 20 21  2  0
 21 22  1  0
M  CHG  2   2  -1  26  -1
M  END
>  <COMPND>  (82) 
    8629 

>  <AUTHOR>  (82) 
    GENERATED BY OPEN BABEL 3.1.1

>  <MASTER>  (82) 
        0    0    0    0    0    0    0    0   58    0   58    0

>  <minimizedAffinity>  (82) 
-7.80978

>  <CNNscore>  (82) 
0.6215903759

>  <CNNaffinity>  (82) 
4.4911298752

>  <CNN_VS>  (82) 
2.7916431427

>  <CNNaffinity_variance>  (82) 
0.0355697051

$$$$
83
     RDKit          3D

 43 45  0  0  0  0  0  0  0  0999 V2000
   22.7926   71.5163   -3.5347 P   0  0  2  0  0  0  0  0  0  0  0  0
   22.2189   71.7897   -2.0469 O   0  0  0  0  0  0  0  0  0  0  0  0
   23.1492   70.0878   -3.8238 O   0  0  0  0  0  0  0  0  0  0  0  0
   23.9965   72.5862   -3.6893 O   0  0  0  0  0  0  0  0  0  0  0  0
   25.2314   72.1418   -4.2236 C   0  0  0  0  0  0  0  0  0  0  0  0
   26.3730   70.3344   -3.1264 O   0  0  0  0  0  0  0  0  0  0  0  0
   28.1095   72.4365   -1.8787 O   0  0  0  0  0  0  0  0  0  0  0  0
   29.6817   71.4861   -3.8941 O   0  0  0  0  0  0  0  0  0  0  0  0
   27.5408   72.3956   -3.1864 C   0  0  1  0  0  0  0  0  0  0  0  0
   28.2802   71.3954   -4.0504 C   0  0  2  0  0  0  0  0  0  0  0  0
   26.1594   71.7621   -3.0777 C   0  0  1  0  0  0  0  0  0  0  0  0
   27.7207   70.0739   -3.5516 C   0  0  2  0  0  0  0  0  0  0  0  0
   28.9922   72.8375   -1.9226 H   0  0  0  0  0  0  0  0  0  0  0  0
   29.9892   72.3441   -4.2257 H   0  0  0  0  0  0  0  0  0  0  0  0
   26.3215   67.6281   -3.3555 O   0  0  0  0  0  0  0  0  0  0  0  0
   27.7154   66.2847   -7.5380 O   0  0  0  0  0  0  0  0  0  0  0  0
   27.7004   69.0667   -4.5746 N   0  0  0  0  0  0  0  0  0  0  0  0
   27.0166   66.9613   -5.4383 N   0  0  0  0  0  0  0  0  0  0  0  0
   26.9674   67.8735   -4.3765 C   0  0  0  0  0  0  0  0  0  0  0  0
   28.4016   69.2674   -5.7586 C   0  0  0  0  0  0  0  0  0  0  0  0
   28.4395   68.3870   -6.7610 C   0  0  0  0  0  0  0  0  0  0  0  0
   27.7002   67.1145   -6.6341 C   0  0  0  0  0  0  0  0  0  0  0  0
   26.5137   66.1226   -5.3225 H   0  0  0  0  0  0  0  0  0  0  0  0
   21.6386   72.1277   -4.4873 O   0  0  0  0  0  0  0  0  0  0  0  0
   21.7190   72.7964   -5.9567 P   0  0  2  0  0  0  0  0  0  0  0  0
   22.7590   71.8390   -6.7437 O   0  0  0  0  0  0  0  0  0  0  0  0
   22.0969   74.2494   -5.9518 O   0  0  0  0  0  0  0  0  0  0  0  0
   20.2858   72.4804   -6.6283 O   0  0  0  0  0  0  0  0  0  0  0  0
   19.3113   70.8434   -8.0379 O   0  0  0  0  0  0  0  0  0  0  0  0
   18.1416   74.2433  -10.0685 O   0  0  0  0  0  0  0  0  0  0  0  0
   16.1950   72.7327   -8.5930 O   0  0  0  0  0  0  0  0  0  0  0  0
   20.7675   74.1167   -8.8567 O   0  0  0  0  0  0  0  0  0  0  0  0
   18.4519   73.4563   -8.9154 C   0  0  1  0  0  0  0  0  0  0  0  0
   17.5051   72.2549   -8.8858 C   0  0  1  0  0  0  0  0  0  0  0  0
   19.9051   72.9936   -9.0030 C   0  0  2  0  0  0  0  0  0  0  0  0
   17.9464   71.2275   -7.8347 C   0  0  1  0  0  0  0  0  0  0  0  0
   20.2262   71.9370   -7.9445 C   0  0  1  0  0  0  0  0  0  0  0  0
   17.2204   74.5406  -10.0188 H   0  0  0  0  0  0  0  0  0  0  0  0
   15.9286   73.3810   -9.2638 H   0  0  0  0  0  0  0  0  0  0  0  0
   20.5543   74.7782   -9.5326 H   0  0  0  0  0  0  0  0  0  0  0  0
   16.5848   69.8205   -9.2040 O   0  0  0  0  0  0  0  0  0  0  0  0
   17.1100   69.9513   -7.8958 C   0  0  0  0  0  0  0  0  0  0  0  0
   16.0503   69.0123   -9.2579 H   0  0  0  0  0  0  0  0  0  0  0  0
 25 28  1  0
 25 24  1  0
 25 26  1  6
 25 27  2  0
  1  4  1  0
  1 24  1  0
  1  2  1  1
  1  3  2  0
  6 11  1  0
  6 12  1  0
 29 36  1  0
 29 37  1  0
  9  7  1  1
  7 13  1  0
 10  8  1  1
  8 14  1  0
 37 28  1  1
  4  5  1  0
 33 30  1  6
 30 38  1  0
 34 31  1  1
 31 39  1  0
 35 32  1  1
 32 40  1  0
 41 42  1  0
 41 43  1  0
 15 19  2  0
 16 22  2  0
 12 17  1  6
 17 19  1  0
 17 20  1  0
 18 19  1  0
 18 22  1  0
 18 23  1  0
  9 10  1  0
  9 11  1  0
 10 12  1  0
 11  5  1  6
 33 34  1  0
 33 35  1  0
 34 36  1  0
 35 37  1  0
 36 42  1  6
 20 21  2  0
 21 22  1  0
M  CHG  2   2  -1  26  -1
M  END
>  <COMPND>  (83) 
    8629 

>  <AUTHOR>  (83) 
    GENERATED BY OPEN BABEL 3.1.1

>  <MASTER>  (83) 
        0    0    0    0    0    0    0    0   58    0   58    0

>  <minimizedAffinity>  (83) 
-7.46545

>  <CNNscore>  (83) 
0.5807298422

>  <CNNaffinity>  (83) 
4.3686785698

>  <CNN_VS>  (83) 
2.5370221138

>  <CNNaffinity_variance>  (83) 
0.0660095513

$$$$
84
     RDKit          3D

 43 45  0  0  0  0  0  0  0  0999 V2000
   30.7732   70.6076   -1.0128 P   0  0  2  0  0  0  0  0  0  0  0  0
   31.2838   71.8410   -1.9268 O   0  0  0  0  0  0  0  0  0  0  0  0
   31.2764   69.2576   -1.4318 O   0  0  0  0  0  0  0  0  0  0  0  0
   29.1648   70.7817   -0.9889 O   0  0  0  0  0  0  0  0  0  0  0  0
   28.6224   72.0789   -1.1648 C   0  0  0  0  0  0  0  0  0  0  0  0
   26.4919   71.3430   -1.9973 O   0  0  0  0  0  0  0  0  0  0  0  0
   26.8349   73.3982   -4.1536 O   0  0  0  0  0  0  0  0  0  0  0  0
   25.1231   74.6303   -2.4250 O   0  0  0  0  0  0  0  0  0  0  0  0
   27.2222   73.4566   -2.7818 C   0  0  1  0  0  0  0  0  0  0  0  0
   26.0075   73.6609   -1.9007 C   0  0  2  0  0  0  0  0  0  0  0  0
   27.6866   72.0664   -2.3658 C   0  0  1  0  0  0  0  0  0  0  0  0
   25.3998   72.2688   -1.8740 C   0  0  2  0  0  0  0  0  0  0  0  0
   26.5347   74.2749   -4.4422 H   0  0  0  0  0  0  0  0  0  0  0  0
   25.5555   75.4985   -2.4209 H   0  0  0  0  0  0  0  0  0  0  0  0
   22.6141   71.8385   -1.6945 O   0  0  0  0  0  0  0  0  0  0  0  0
   22.8140   71.2520    2.8725 O   0  0  0  0  0  0  0  0  0  0  0  0
   24.6976   72.0011   -0.6506 N   0  0  0  0  0  0  0  0  0  0  0  0
   22.7159   71.5467    0.5794 N   0  0  0  0  0  0  0  0  0  0  0  0
   23.2976   71.8006   -0.6693 C   0  0  0  0  0  0  0  0  0  0  0  0
   25.3962   71.9393    0.5502 C   0  0  0  0  0  0  0  0  0  0  0  0
   24.8265   71.6974    1.7326 C   0  0  0  0  0  0  0  0  0  0  0  0
   23.3675   71.4766    1.8005 C   0  0  0  0  0  0  0  0  0  0  0  0
   21.7416   71.4042    0.5909 H   0  0  0  0  0  0  0  0  0  0  0  0
   31.2093   71.0552    0.4780 O   0  0  0  0  0  0  0  0  0  0  0  0
   32.4695   70.6188    1.3914 P   0  0  2  0  0  0  0  0  0  0  0  0
   33.7158   71.3753    0.6900 O   0  0  0  0  0  0  0  0  0  0  0  0
   32.6446   69.1341    1.5296 O   0  0  0  0  0  0  0  0  0  0  0  0
   32.2521   71.3994    2.7873 O   0  0  0  0  0  0  0  0  0  0  0  0
   32.4902   70.7066    5.0411 O   0  0  0  0  0  0  0  0  0  0  0  0
   29.1043   73.0393    5.4221 O   0  0  0  0  0  0  0  0  0  0  0  0
   31.6055   73.9893    6.4659 O   0  0  0  0  0  0  0  0  0  0  0  0
   29.4606   71.3838    3.0743 O   0  0  0  0  0  0  0  0  0  0  0  0
   30.3800   72.6713    4.8905 C   0  0  1  0  0  0  0  0  0  0  0  0
   31.3895   72.6469    6.0398 C   0  0  1  0  0  0  0  0  0  0  0  0
   30.2713   71.2931    4.2409 C   0  0  2  0  0  0  0  0  0  0  0  0
   32.7131   72.0061    5.6010 C   0  0  1  0  0  0  0  0  0  0  0  0
   31.6471   70.7252    3.8876 C   0  0  1  0  0  0  0  0  0  0  0  0
   29.1663   73.9137    5.8356 H   0  0  0  0  0  0  0  0  0  0  0  0
   30.7620   74.3826    6.7398 H   0  0  0  0  0  0  0  0  0  0  0  0
   28.5924   71.7443    3.3113 H   0  0  0  0  0  0  0  0  0  0  0  0
   34.3322   73.0615    7.0059 O   0  0  0  0  0  0  0  0  0  0  0  0
   33.6780   71.8281    6.7712 C   0  0  0  0  0  0  0  0  0  0  0  0
   34.9493   72.9634    7.7484 H   0  0  0  0  0  0  0  0  0  0  0  0
 25 28  1  0
 25 24  1  0
 25 26  1  6
 25 27  2  0
  1  4  1  0
  1 24  1  0
  1  2  1  6
  1  3  2  0
  6 11  1  0
  6 12  1  0
 29 36  1  0
 29 37  1  0
  9  7  1  6
  7 13  1  0
 10  8  1  6
  8 14  1  0
 37 28  1  6
  4  5  1  0
 33 30  1  1
 30 38  1  0
 34 31  1  6
 31 39  1  0
 35 32  1  6
 32 40  1  0
 41 42  1  0
 41 43  1  0
 15 19  2  0
 16 22  2  0
 12 17  1  1
 17 19  1  0
 17 20  1  0
 18 19  1  0
 18 22  1  0
 18 23  1  0
  9 10  1  0
  9 11  1  0
 10 12  1  0
 11  5  1  1
 33 34  1  0
 33 35  1  0
 34 36  1  0
 35 37  1  0
 36 42  1  1
 20 21  2  0
 21 22  1  0
M  CHG  2   2  -1  26  -1
M  END
>  <COMPND>  (84) 
    8629 

>  <AUTHOR>  (84) 
    GENERATED BY OPEN BABEL 3.1.1

>  <MASTER>  (84) 
        0    0    0    0    0    0    0    0   58    0   58    0

>  <minimizedAffinity>  (84) 
-6.30076

>  <CNNscore>  (84) 
0.5371137857

>  <CNNaffinity>  (84) 
3.9247558117

>  <CNN_VS>  (84) 
2.1080405712

>  <CNNaffinity_variance>  (84) 
0.1476442069

$$$$
85
     RDKit          3D

 43 45  0  0  0  0  0  0  0  0999 V2000
   24.3125   73.2796   -4.9927 P   0  0  2  0  0  0  0  0  0  0  0  0
   25.5183   73.6942   -5.9885 O   0  0  0  0  0  0  0  0  0  0  0  0
   23.8111   74.3846   -4.1101 O   0  0  0  0  0  0  0  0  0  0  0  0
   24.8739   71.9691   -4.2276 O   0  0  0  0  0  0  0  0  0  0  0  0
   26.1845   71.5211   -4.5268 C   0  0  0  0  0  0  0  0  0  0  0  0
   27.3991   69.8986   -3.2361 O   0  0  0  0  0  0  0  0  0  0  0  0
   28.4660   72.2210   -1.6680 O   0  0  0  0  0  0  0  0  0  0  0  0
   30.5355   71.6348   -3.3443 O   0  0  0  0  0  0  0  0  0  0  0  0
   28.1724   72.1318   -3.0612 C   0  0  1  0  0  0  0  0  0  0  0  0
   29.2280   71.3084   -3.7693 C   0  0  2  0  0  0  0  0  0  0  0  0
   26.9303   71.2648   -3.2244 C   0  0  1  0  0  0  0  0  0  0  0  0
   28.8275   69.8920   -3.3933 C   0  0  2  0  0  0  0  0  0  0  0  0
   29.2556   72.7704   -1.5386 H   0  0  0  0  0  0  0  0  0  0  0  0
   30.7433   72.5451   -3.6069 H   0  0  0  0  0  0  0  0  0  0  0  0
   30.8609   67.9516   -3.1142 O   0  0  0  0  0  0  0  0  0  0  0  0
   30.0968   66.2777   -7.3398 O   0  0  0  0  0  0  0  0  0  0  0  0
   29.1808   68.9361   -4.4046 N   0  0  0  0  0  0  0  0  0  0  0  0
   30.4787   67.1196   -5.2184 N   0  0  0  0  0  0  0  0  0  0  0  0
   30.2180   68.0049   -4.1647 C   0  0  0  0  0  0  0  0  0  0  0  0
   28.5017   68.9281   -5.6181 C   0  0  0  0  0  0  0  0  0  0  0  0
   28.7633   68.0781   -6.6133 C   0  0  0  0  0  0  0  0  0  0  0  0
   29.8324   67.0730   -6.4434 C   0  0  0  0  0  0  0  0  0  0  0  0
   31.1975   66.4621   -5.0740 H   0  0  0  0  0  0  0  0  0  0  0  0
   23.2052   72.6667   -5.9982 O   0  0  0  0  0  0  0  0  0  0  0  0
   21.7832   71.9559   -5.7055 P   0  0  2  0  0  0  0  0  0  0  0  0
   21.9639   70.4841   -6.3526 O   0  0  0  0  0  0  0  0  0  0  0  0
   20.5967   72.7177   -6.2212 O   0  0  0  0  0  0  0  0  0  0  0  0
   21.7738   71.7021   -4.1116 O   0  0  0  0  0  0  0  0  0  0  0  0
   19.6733   72.4593   -3.3171 O   0  0  0  0  0  0  0  0  0  0  0  0
   21.3702   71.3327    0.2748 O   0  0  0  0  0  0  0  0  0  0  0  0
   19.2731   69.7358   -0.8654 O   0  0  0  0  0  0  0  0  0  0  0  0
   22.9956   72.6075   -1.7531 O   0  0  0  0  0  0  0  0  0  0  0  0
   21.1114   71.2431   -1.1289 C   0  0  1  0  0  0  0  0  0  0  0  0
   19.6079   71.0414   -1.3275 C   0  0  1  0  0  0  0  0  0  0  0  0
   21.5750   72.5319   -1.8052 C   0  0  2  0  0  0  0  0  0  0  0  0
   19.2174   71.2026   -2.8028 C   0  0  1  0  0  0  0  0  0  0  0  0
   21.0924   72.6144   -3.2545 C   0  0  1  0  0  0  0  0  0  0  0  0
   21.0786   70.5172    0.7101 H   0  0  0  0  0  0  0  0  0  0  0  0
   19.5252   69.6470    0.0672 H   0  0  0  0  0  0  0  0  0  0  0  0
   23.2885   72.5545   -0.8305 H   0  0  0  0  0  0  0  0  0  0  0  0
   17.4352   70.7131   -4.3171 O   0  0  0  0  0  0  0  0  0  0  0  0
   17.7038   71.1619   -3.0016 C   0  0  0  0  0  0  0  0  0  0  0  0
   16.4756   70.6819   -4.4578 H   0  0  0  0  0  0  0  0  0  0  0  0
 25 28  1  0
 25 24  1  0
 25 26  1  6
 25 27  2  0
  1  4  1  0
  1 24  1  0
  1  2  1  6
  1  3  2  0
  6 11  1  0
  6 12  1  0
 29 36  1  0
 29 37  1  0
  9  7  1  1
  7 13  1  0
 10  8  1  1
  8 14  1  0
 37 28  1  6
  4  5  1  0
 33 30  1  1
 30 38  1  0
 34 31  1  6
 31 39  1  0
 35 32  1  6
 32 40  1  0
 41 42  1  0
 41 43  1  0
 15 19  2  0
 16 22  2  0
 12 17  1  6
 17 19  1  0
 17 20  1  0
 18 19  1  0
 18 22  1  0
 18 23  1  0
  9 10  1  0
  9 11  1  0
 10 12  1  0
 11  5  1  6
 33 34  1  0
 33 35  1  0
 34 36  1  0
 35 37  1  0
 36 42  1  1
 20 21  2  0
 21 22  1  0
M  CHG  2   2  -1  26  -1
M  END
>  <COMPND>  (85) 
    8629 

>  <AUTHOR>  (85) 
    GENERATED BY OPEN BABEL 3.1.1

>  <MASTER>  (85) 
        0    0    0    0    0    0    0    0   58    0   58    0

>  <minimizedAffinity>  (85) 
-7.44048

>  <CNNscore>  (85) 
0.4773309827

>  <CNNaffinity>  (85) 
4.2987675667

>  <CNN_VS>  (85) 
2.0519349575

>  <CNNaffinity_variance>  (85) 
0.0557650030

$$$$
86
     RDKit          3D

 43 45  0  0  0  0  0  0  0  0999 V2000
   24.0323   73.4629   -5.0148 P   0  0  2  0  0  0  0  0  0  0  0  0
   25.0687   73.9269   -6.1672 O   0  0  0  0  0  0  0  0  0  0  0  0
   23.2921   74.5805   -4.3407 O   0  0  0  0  0  0  0  0  0  0  0  0
   24.9251   72.5254   -4.0442 O   0  0  0  0  0  0  0  0  0  0  0  0
   26.3182   72.4339   -4.2868 C   0  0  0  0  0  0  0  0  0  0  0  0
   26.8097   70.3541   -3.1884 O   0  0  0  0  0  0  0  0  0  0  0  0
   28.9201   71.8625   -1.6844 O   0  0  0  0  0  0  0  0  0  0  0  0
   30.3662   70.5673   -3.5996 O   0  0  0  0  0  0  0  0  0  0  0  0
   28.4945   72.0138   -3.0377 C   0  0  1  0  0  0  0  0  0  0  0  0
   29.0157   70.8709   -3.8837 C   0  0  2  0  0  0  0  0  0  0  0  0
   26.9891   71.7836   -3.0847 C   0  0  1  0  0  0  0  0  0  0  0  0
   28.0708   69.7428   -3.5058 C   0  0  2  0  0  0  0  0  0  0  0  0
   29.8784   72.0054   -1.6292 H   0  0  0  0  0  0  0  0  0  0  0  0
   30.9271   71.3153   -3.8576 H   0  0  0  0  0  0  0  0  0  0  0  0
   26.4440   67.4397   -3.3410 O   0  0  0  0  0  0  0  0  0  0  0  0
   27.4098   66.2235   -7.6803 O   0  0  0  0  0  0  0  0  0  0  0  0
   27.8788   68.8070   -4.5776 N   0  0  0  0  0  0  0  0  0  0  0  0
   26.9261   66.8361   -5.5018 N   0  0  0  0  0  0  0  0  0  0  0  0
   27.0419   67.6820   -4.3915 C   0  0  0  0  0  0  0  0  0  0  0  0
   28.5163   69.0094   -5.7968 C   0  0  0  0  0  0  0  0  0  0  0  0
   28.3964   68.1925   -6.8454 C   0  0  0  0  0  0  0  0  0  0  0  0
   27.5404   66.9939   -6.7341 C   0  0  0  0  0  0  0  0  0  0  0  0
   26.3485   66.0456   -5.3953 H   0  0  0  0  0  0  0  0  0  0  0  0
   23.0891   72.3975   -5.7818 O   0  0  0  0  0  0  0  0  0  0  0  0
   21.9149   71.4315   -5.2332 P   0  0  2  0  0  0  0  0  0  0  0  0
   21.2242   72.3132   -4.0657 O   0  0  0  0  0  0  0  0  0  0  0  0
   22.3889   70.0780   -4.7889 O   0  0  0  0  0  0  0  0  0  0  0  0
   20.8227   71.4009   -6.4211 O   0  0  0  0  0  0  0  0  0  0  0  0
   19.3026   73.1312   -6.9799 O   0  0  0  0  0  0  0  0  0  0  0  0
   17.0359   69.8706   -8.1118 O   0  0  0  0  0  0  0  0  0  0  0  0
   18.1932   71.5606  -10.1249 O   0  0  0  0  0  0  0  0  0  0  0  0
   18.6745   69.7330   -5.7295 O   0  0  0  0  0  0  0  0  0  0  0  0
   18.2405   70.6190   -7.9268 C   0  0  1  0  0  0  0  0  0  0  0  0
   18.1347   71.9079   -8.7443 C   0  0  1  0  0  0  0  0  0  0  0  0
   18.4079   70.9363   -6.4419 C   0  0  2  0  0  0  0  0  0  0  0  0
   19.2656   72.8829   -8.3901 C   0  0  1  0  0  0  0  0  0  0  0  0
   19.5265   71.9523   -6.2041 C   0  0  1  0  0  0  0  0  0  0  0  0
   16.9239   69.6655   -9.0525 H   0  0  0  0  0  0  0  0  0  0  0  0
   17.4741   70.9443  -10.3353 H   0  0  0  0  0  0  0  0  0  0  0  0
   17.9591   69.0983   -5.8880 H   0  0  0  0  0  0  0  0  0  0  0  0
   18.0876   74.1099  -10.0681 O   0  0  0  0  0  0  0  0  0  0  0  0
   19.0904   74.2357   -9.0767 C   0  0  0  0  0  0  0  0  0  0  0  0
   17.9651   74.9634  -10.5133 H   0  0  0  0  0  0  0  0  0  0  0  0
 25 28  1  0
 25 24  1  0
 25 26  1  1
 25 27  2  0
  1  4  1  0
  1 24  1  0
  1  2  1  6
  1  3  2  0
  6 11  1  0
  6 12  1  0
 29 36  1  0
 29 37  1  0
  9  7  1  1
  7 13  1  0
 10  8  1  1
  8 14  1  0
 37 28  1  6
  4  5  1  0
 33 30  1  1
 30 38  1  0
 34 31  1  6
 31 39  1  0
 35 32  1  1
 32 40  1  0
 41 42  1  0
 41 43  1  0
 15 19  2  0
 16 22  2  0
 12 17  1  6
 17 19  1  0
 17 20  1  0
 18 19  1  0
 18 22  1  0
 18 23  1  0
  9 10  1  0
  9 11  1  0
 10 12  1  0
 11  5  1  6
 33 34  1  0
 33 35  1  0
 34 36  1  0
 35 37  1  0
 36 42  1  6
 20 21  2  0
 21 22  1  0
M  CHG  2   2  -1  26  -1
M  END
>  <COMPND>  (86) 
    8629 

>  <AUTHOR>  (86) 
    GENERATED BY OPEN BABEL 3.1.1

>  <MASTER>  (86) 
        0    0    0    0    0    0    0    0   58    0   58    0

>  <minimizedAffinity>  (86) 
-7.88909

>  <CNNscore>  (86) 
0.4657889307

>  <CNNaffinity>  (86) 
4.2408804893

>  <CNN_VS>  (86) 
1.9753551483

>  <CNNaffinity_variance>  (86) 
0.2379764020

$$$$
87
     RDKit          3D

 43 45  0  0  0  0  0  0  0  0999 V2000
   26.2189   74.3740   -2.5046 P   0  0  2  0  0  0  0  0  0  0  0  0
   25.4592   75.3465   -3.5508 O   0  0  0  0  0  0  0  0  0  0  0  0
   27.4441   74.9615   -1.8681 O   0  0  0  0  0  0  0  0  0  0  0  0
   26.4478   73.0076   -3.3403 O   0  0  0  0  0  0  0  0  0  0  0  0
   27.7762   72.5923   -3.6064 C   0  0  0  0  0  0  0  0  0  0  0  0
   27.6664   70.3410   -2.7735 O   0  0  0  0  0  0  0  0  0  0  0  0
   30.0913   71.0234   -1.1472 O   0  0  0  0  0  0  0  0  0  0  0  0
   31.1498   69.6220   -3.2334 O   0  0  0  0  0  0  0  0  0  0  0  0
   29.7394   71.4466   -2.4634 C   0  0  1  0  0  0  0  0  0  0  0  0
   29.9376   70.3149   -3.4502 C   0  0  2  0  0  0  0  0  0  0  0  0
   28.2292   71.6439   -2.5048 C   0  0  1  0  0  0  0  0  0  0  0  0
   28.7155   69.4511   -3.1885 C   0  0  2  0  0  0  0  0  0  0  0  0
   31.0515   70.8912   -1.0962 H   0  0  0  0  0  0  0  0  0  0  0  0
   31.8972   70.2137   -3.4130 H   0  0  0  0  0  0  0  0  0  0  0  0
   26.7658   67.4074   -3.1893 O   0  0  0  0  0  0  0  0  0  0  0  0
   27.1524   66.7883   -7.7399 O   0  0  0  0  0  0  0  0  0  0  0  0
   28.2872   68.7391   -4.3594 N   0  0  0  0  0  0  0  0  0  0  0  0
   26.9598   67.1009   -5.4552 N   0  0  0  0  0  0  0  0  0  0  0  0
   27.3023   67.7297   -4.2513 C   0  0  0  0  0  0  0  0  0  0  0  0
   28.8418   69.0443   -5.5976 C   0  0  0  0  0  0  0  0  0  0  0  0
   28.5052   68.4344   -6.7360 C   0  0  0  0  0  0  0  0  0  0  0  0
   27.4835   67.3679   -6.7102 C   0  0  0  0  0  0  0  0  0  0  0  0
   26.2759   66.3941   -5.4042 H   0  0  0  0  0  0  0  0  0  0  0  0
   25.0477   73.9725   -1.4654 O   0  0  0  0  0  0  0  0  0  0  0  0
   24.4741   72.5288   -1.0185 P   0  0  2  0  0  0  0  0  0  0  0  0
   23.2663   72.9053   -0.0100 O   0  0  0  0  0  0  0  0  0  0  0  0
   25.5073   71.6109   -0.4319 O   0  0  0  0  0  0  0  0  0  0  0  0
   23.7406   71.9547   -2.3366 O   0  0  0  0  0  0  0  0  0  0  0  0
   22.2591   73.4753   -3.3899 O   0  0  0  0  0  0  0  0  0  0  0  0
   21.0880   69.9963   -5.2807 O   0  0  0  0  0  0  0  0  0  0  0  0
   22.5941   71.9624   -6.7347 O   0  0  0  0  0  0  0  0  0  0  0  0
   21.7823   69.9492   -2.4709 O   0  0  0  0  0  0  0  0  0  0  0  0
   22.0142   70.8999   -4.6717 C   0  0  1  0  0  0  0  0  0  0  0  0
   21.9985   72.2088   -5.4639 C   0  0  1  0  0  0  0  0  0  0  0  0
   21.5951   71.1432   -3.2231 C   0  0  2  0  0  0  0  0  0  0  0  0
   22.7611   73.3146   -4.7217 C   0  0  1  0  0  0  0  0  0  0  0  0
   22.3807   72.2950   -2.5936 C   0  0  1  0  0  0  0  0  0  0  0  0
   21.3486   69.8372   -6.2007 H   0  0  0  0  0  0  0  0  0  0  0  0
   22.1034   71.2619   -7.1927 H   0  0  0  0  0  0  0  0  0  0  0  0
   21.2797   69.2277   -2.8793 H   0  0  0  0  0  0  0  0  0  0  0  0
   21.6560   74.5517   -6.4414 O   0  0  0  0  0  0  0  0  0  0  0  0
   22.6252   74.6680   -5.4160 C   0  0  0  0  0  0  0  0  0  0  0  0
   21.5587   75.4057   -6.8918 H   0  0  0  0  0  0  0  0  0  0  0  0
 25 28  1  0
 25 24  1  0
 25 26  1  1
 25 27  2  0
  1  4  1  0
  1 24  1  0
  1  2  1  6
  1  3  2  0
  6 11  1  0
  6 12  1  0
 29 36  1  0
 29 37  1  0
  9  7  1  1
  7 13  1  0
 10  8  1  1
  8 14  1  0
 37 28  1  6
  4  5  1  0
 33 30  1  6
 30 38  1  0
 34 31  1  6
 31 39  1  0
 35 32  1  1
 32 40  1  0
 41 42  1  0
 41 43  1  0
 15 19  2  0
 16 22  2  0
 12 17  1  6
 17 19  1  0
 17 20  1  0
 18 19  1  0
 18 22  1  0
 18 23  1  0
  9 10  1  0
  9 11  1  0
 10 12  1  0
 11  5  1  6
 33 34  1  0
 33 35  1  0
 34 36  1  0
 35 37  1  0
 36 42  1  6
 20 21  2  0
 21 22  1  0
M  CHG  2   2  -1  26  -1
M  END
>  <COMPND>  (87) 
    8629 

>  <AUTHOR>  (87) 
    GENERATED BY OPEN BABEL 3.1.1

>  <MASTER>  (87) 
        0    0    0    0    0    0    0    0   58    0   58    0

>  <minimizedAffinity>  (87) 
-6.12891

>  <CNNscore>  (87) 
0.4479009211

>  <CNNaffinity>  (87) 
4.2230844498

>  <CNN_VS>  (87) 
1.8915233612

>  <CNNaffinity_variance>  (87) 
0.4285017848

$$$$
88
     RDKit          3D

 43 45  0  0  0  0  0  0  0  0999 V2000
   22.2622   71.9211   -4.7044 P   0  0  2  0  0  0  0  0  0  0  0  0
   21.6749   70.4539   -5.0505 O   0  0  0  0  0  0  0  0  0  0  0  0
   21.6448   72.5850   -3.5088 O   0  0  0  0  0  0  0  0  0  0  0  0
   22.1357   72.7293   -6.1004 O   0  0  0  0  0  0  0  0  0  0  0  0
   20.8486   72.9023   -6.6672 C   0  0  0  0  0  0  0  0  0  0  0  0
   20.1614   71.0302   -8.0076 O   0  0  0  0  0  0  0  0  0  0  0  0
   20.5490   72.8246  -10.3784 O   0  0  0  0  0  0  0  0  0  0  0  0
   17.8446   72.8739  -10.0314 O   0  0  0  0  0  0  0  0  0  0  0  0
   20.0637   73.1435   -9.0753 C   0  0  1  0  0  0  0  0  0  0  0  0
   18.6517   72.6251   -8.8986 C   0  0  2  0  0  0  0  0  0  0  0  0
   20.8391   72.3044   -8.0674 C   0  0  1  0  0  0  0  0  0  0  0  0
   18.8875   71.1429   -8.6629 C   0  0  2  0  0  0  0  0  0  0  0  0
   20.0688   73.3487  -11.0393 H   0  0  0  0  0  0  0  0  0  0  0  0
   17.7238   73.8303  -10.1388 H   0  0  0  0  0  0  0  0  0  0  0  0
   16.4966   69.9843   -9.6215 O   0  0  0  0  0  0  0  0  0  0  0  0
   15.0923   68.9153   -5.3639 O   0  0  0  0  0  0  0  0  0  0  0  0
   17.8795   70.5540   -7.8271 N   0  0  0  0  0  0  0  0  0  0  0  0
   15.7994   69.4528   -7.5008 N   0  0  0  0  0  0  0  0  0  0  0  0
   16.7152   70.0002   -8.4083 C   0  0  0  0  0  0  0  0  0  0  0  0
   18.0510   70.5295   -6.4472 C   0  0  0  0  0  0  0  0  0  0  0  0
   17.1676   70.0048   -5.5954 C   0  0  0  0  0  0  0  0  0  0  0  0
   15.9240   69.4056   -6.1213 C   0  0  0  0  0  0  0  0  0  0  0  0
   14.9804   69.0615   -7.8829 H   0  0  0  0  0  0  0  0  0  0  0  0
   23.8520   71.6563   -4.5807 O   0  0  0  0  0  0  0  0  0  0  0  0
   25.1114   72.6537   -4.7594 P   0  0  2  0  0  0  0  0  0  0  0  0
   25.1363   73.4735   -3.3648 O   0  0  0  0  0  0  0  0  0  0  0  0
   25.0425   73.5184   -5.9848 O   0  0  0  0  0  0  0  0  0  0  0  0
   26.4065   71.6930   -4.6906 O   0  0  0  0  0  0  0  0  0  0  0  0
   26.7487   69.7703   -3.3479 O   0  0  0  0  0  0  0  0  0  0  0  0
   30.6148   71.2186   -3.4239 O   0  0  0  0  0  0  0  0  0  0  0  0
   29.9540   68.8614   -4.9255 O   0  0  0  0  0  0  0  0  0  0  0  0
   28.3870   73.0583   -3.2455 O   0  0  0  0  0  0  0  0  0  0  0  0
   29.3133   70.9504   -3.9526 C   0  0  1  0  0  0  0  0  0  0  0  0
   29.0951   69.4361   -3.9445 C   0  0  1  0  0  0  0  0  0  0  0  0
   28.2683   71.6488   -3.0846 C   0  0  2  0  0  0  0  0  0  0  0  0
   27.6315   69.0857   -4.2444 C   0  0  1  0  0  0  0  0  0  0  0  0
   26.8498   71.1932   -3.4317 C   0  0  1  0  0  0  0  0  0  0  0  0
   31.2831   70.7783   -3.9708 H   0  0  0  0  0  0  0  0  0  0  0  0
   30.8750   69.0906   -4.7248 H   0  0  0  0  0  0  0  0  0  0  0  0
   29.2892   73.3342   -3.0224 H   0  0  0  0  0  0  0  0  0  0  0  0
   26.8118   67.1043   -5.2987 O   0  0  0  0  0  0  0  0  0  0  0  0
   27.3571   67.5917   -4.0864 C   0  0  0  0  0  0  0  0  0  0  0  0
   26.6324   66.1545   -5.2130 H   0  0  0  0  0  0  0  0  0  0  0  0
 25 28  1  0
 25 24  1  0
 25 26  1  1
 25 27  2  0
  1  4  1  0
  1 24  1  0
  1  2  1  6
  1  3  2  0
  6 11  1  0
  6 12  1  0
 29 36  1  0
 29 37  1  0
  9  7  1  6
  7 13  1  0
 10  8  1  6
  8 14  1  0
 37 28  1  6
  4  5  1  0
 33 30  1  1
 30 38  1  0
 34 31  1  6
 31 39  1  0
 35 32  1  6
 32 40  1  0
 41 42  1  0
 41 43  1  0
 15 19  2  0
 16 22  2  0
 12 17  1  1
 17 19  1  0
 17 20  1  0
 18 19  1  0
 18 22  1  0
 18 23  1  0
  9 10  1  0
  9 11  1  0
 10 12  1  0
 11  5  1  1
 33 34  1  0
 33 35  1  0
 34 36  1  0
 35 37  1  0
 36 42  1  1
 20 21  2  0
 21 22  1  0
M  CHG  2   2  -1  26  -1
M  END
>  <COMPND>  (88) 
    8629 

>  <AUTHOR>  (88) 
    GENERATED BY OPEN BABEL 3.1.1

>  <MASTER>  (88) 
        0    0    0    0    0    0    0    0   58    0   58    0

>  <minimizedAffinity>  (88) 
-7.61193

>  <CNNscore>  (88) 
0.4328072369

>  <CNNaffinity>  (88) 
4.1548547745

>  <CNN_VS>  (88) 
1.7982512712

>  <CNNaffinity_variance>  (88) 
0.0503086746

$$$$
89
     RDKit          3D

 43 45  0  0  0  0  0  0  0  0999 V2000
   21.5720   74.0838   -3.8348 P   0  0  2  0  0  0  0  0  0  0  0  0
   21.2547   73.5085   -2.3564 O   0  0  0  0  0  0  0  0  0  0  0  0
   21.5915   75.5803   -3.9418 O   0  0  0  0  0  0  0  0  0  0  0  0
   20.5038   73.3254   -4.7842 O   0  0  0  0  0  0  0  0  0  0  0  0
   19.8625   74.0670   -5.8073 C   0  0  0  0  0  0  0  0  0  0  0  0
   20.1595   72.3053   -7.4142 O   0  0  0  0  0  0  0  0  0  0  0  0
   20.8527   74.4652   -9.3752 O   0  0  0  0  0  0  0  0  0  0  0  0
   18.2687   73.8815  -10.0226 O   0  0  0  0  0  0  0  0  0  0  0  0
   19.8953   74.4802   -8.3175 C   0  0  1  0  0  0  0  0  0  0  0  0
   18.6850   73.6505   -8.6921 C   0  0  2  0  0  0  0  0  0  0  0  0
   20.4735   73.6902   -7.1500 C   0  0  1  0  0  0  0  0  0  0  0  0
   19.1939   72.2354   -8.4761 C   0  0  2  0  0  0  0  0  0  0  0  0
   20.5058   74.9639  -10.1321 H   0  0  0  0  0  0  0  0  0  0  0  0
   17.9539   74.7948  -10.1090 H   0  0  0  0  0  0  0  0  0  0  0  0
   17.4817   70.9204  -10.2973 O   0  0  0  0  0  0  0  0  0  0  0  0
   15.2133   68.7814   -6.9031 O   0  0  0  0  0  0  0  0  0  0  0  0
   18.1474   71.3291   -8.0957 N   0  0  0  0  0  0  0  0  0  0  0  0
   16.3537   69.8563   -8.6058 N   0  0  0  0  0  0  0  0  0  0  0  0
   17.3432   70.7222   -9.0885 C   0  0  0  0  0  0  0  0  0  0  0  0
   17.9271   71.0497   -6.7514 C   0  0  0  0  0  0  0  0  0  0  0  0
   16.9785   70.2226   -6.3074 C   0  0  0  0  0  0  0  0  0  0  0  0
   16.0949   69.5475   -7.2798 C   0  0  0  0  0  0  0  0  0  0  0  0
   15.7811   69.4223   -9.2793 H   0  0  0  0  0  0  0  0  0  0  0  0
   22.9692   73.3641   -4.2127 O   0  0  0  0  0  0  0  0  0  0  0  0
   23.2959   71.8412   -4.6451 P   0  0  2  0  0  0  0  0  0  0  0  0
   23.1314   71.8689   -6.2543 O   0  0  0  0  0  0  0  0  0  0  0  0
   22.4510   70.8105   -3.9539 O   0  0  0  0  0  0  0  0  0  0  0  0
   24.8829   71.6785   -4.4003 O   0  0  0  0  0  0  0  0  0  0  0  0
   26.0217   69.8920   -3.3382 O   0  0  0  0  0  0  0  0  0  0  0  0
   28.4874   73.0075   -2.2136 O   0  0  0  0  0  0  0  0  0  0  0  0
   29.3894   71.1270   -4.1880 O   0  0  0  0  0  0  0  0  0  0  0  0
   25.6205   73.3966   -2.3077 O   0  0  0  0  0  0  0  0  0  0  0  0
   27.6121   72.2885   -3.0867 C   0  0  1  0  0  0  0  0  0  0  0  0
   28.2377   70.9223   -3.3744 C   0  0  1  0  0  0  0  0  0  0  0  0
   26.2534   72.1255   -2.4079 C   0  0  2  0  0  0  0  0  0  0  0  0
   27.2412   69.9947   -4.0826 C   0  0  1  0  0  0  0  0  0  0  0  0
   25.3570   71.1452   -3.1666 C   0  0  1  0  0  0  0  0  0  0  0  0
   29.3518   73.1149   -2.6389 H   0  0  0  0  0  0  0  0  0  0  0  0
   30.0104   71.7147   -3.7295 H   0  0  0  0  0  0  0  0  0  0  0  0
   26.1978   74.0080   -1.8252 H   0  0  0  0  0  0  0  0  0  0  0  0
   28.7272   68.3430   -3.2036 O   0  0  0  0  0  0  0  0  0  0  0  0
   27.7896   68.5779   -4.2380 C   0  0  0  0  0  0  0  0  0  0  0  0
   29.0844   67.4449   -3.2896 H   0  0  0  0  0  0  0  0  0  0  0  0
 25 28  1  0
 25 24  1  0
 25 26  1  6
 25 27  2  0
  1  4  1  0
  1 24  1  0
  1  2  1  1
  1  3  2  0
  6 11  1  0
  6 12  1  0
 29 36  1  0
 29 37  1  0
  9  7  1  6
  7 13  1  0
 10  8  1  6
  8 14  1  0
 37 28  1  6
  4  5  1  0
 33 30  1  1
 30 38  1  0
 34 31  1  6
 31 39  1  0
 35 32  1  6
 32 40  1  0
 41 42  1  0
 41 43  1  0
 15 19  2  0
 16 22  2  0
 12 17  1  1
 17 19  1  0
 17 20  1  0
 18 19  1  0
 18 22  1  0
 18 23  1  0
  9 10  1  0
  9 11  1  0
 10 12  1  0
 11  5  1  1
 33 34  1  0
 33 35  1  0
 34 36  1  0
 35 37  1  0
 36 42  1  1
 20 21  2  0
 21 22  1  0
M  CHG  2   2  -1  26  -1
M  END
>  <COMPND>  (89) 
    8629 

>  <AUTHOR>  (89) 
    GENERATED BY OPEN BABEL 3.1.1

>  <MASTER>  (89) 
        0    0    0    0    0    0    0    0   58    0   58    0

>  <minimizedAffinity>  (89) 
-6.40701

>  <CNNscore>  (89) 
0.4166586101

>  <CNNaffinity>  (89) 
4.1420073509

>  <CNN_VS>  (89) 
1.7258030176

>  <CNNaffinity_variance>  (89) 
0.0353935286

$$$$
90
     RDKit          3D

 43 45  0  0  0  0  0  0  0  0999 V2000
   28.6412   72.1712    0.7899 P   0  0  2  0  0  0  0  0  0  0  0  0
   28.7542   73.7851    0.7871 O   0  0  0  0  0  0  0  0  0  0  0  0
   27.3962   71.6219    0.1577 O   0  0  0  0  0  0  0  0  0  0  0  0
   28.8796   71.7679    2.3386 O   0  0  0  0  0  0  0  0  0  0  0  0
   29.5767   72.6755    3.1740 C   0  0  0  0  0  0  0  0  0  0  0  0
   31.6803   72.9661    4.2983 O   0  0  0  0  0  0  0  0  0  0  0  0
   32.6040   70.5393    2.7989 O   0  0  0  0  0  0  0  0  0  0  0  0
   32.0409   69.5326    5.2699 O   0  0  0  0  0  0  0  0  0  0  0  0
   31.3174   70.8278    3.3437 C   0  0  1  0  0  0  0  0  0  0  0  0
   31.3411   70.6867    4.8514 C   0  0  2  0  0  0  0  0  0  0  0  0
   31.0568   72.3186    3.1678 C   0  0  1  0  0  0  0  0  0  0  0  0
   32.0276   71.9733    5.2774 C   0  0  2  0  0  0  0  0  0  0  0  0
   32.7926   69.5926    2.8994 H   0  0  0  0  0  0  0  0  0  0  0  0
   31.5647   68.7408    4.9750 H   0  0  0  0  0  0  0  0  0  0  0  0
   33.7691   72.7178    7.3729 O   0  0  0  0  0  0  0  0  0  0  0  0
   30.2560   73.6796   10.1967 O   0  0  0  0  0  0  0  0  0  0  0  0
   31.5950   72.4225    6.5707 N   0  0  0  0  0  0  0  0  0  0  0  0
   32.0184   73.1963    8.7772 N   0  0  0  0  0  0  0  0  0  0  0  0
   32.5508   72.7715    7.5532 C   0  0  0  0  0  0  0  0  0  0  0  0
   30.2366   72.5138    6.8540 C   0  0  0  0  0  0  0  0  0  0  0  0
   29.7452   72.9195    8.0267 C   0  0  0  0  0  0  0  0  0  0  0  0
   30.6766   73.3026    9.1073 C   0  0  0  0  0  0  0  0  0  0  0  0
   32.6654   73.4442    9.4769 H   0  0  0  0  0  0  0  0  0  0  0  0
   30.0171   71.7093    0.0782 O   0  0  0  0  0  0  0  0  0  0  0  0
   30.5678   70.2414   -0.3154 P   0  0  2  0  0  0  0  0  0  0  0  0
   29.8784   69.2785    0.7869 O   0  0  0  0  0  0  0  0  0  0  0  0
   32.0646   70.1414   -0.3754 O   0  0  0  0  0  0  0  0  0  0  0  0
   29.8174   69.8807   -1.6981 O   0  0  0  0  0  0  0  0  0  0  0  0
   30.8021   69.4459   -3.8094 O   0  0  0  0  0  0  0  0  0  0  0  0
   27.2917   71.2170   -5.0708 O   0  0  0  0  0  0  0  0  0  0  0  0
   27.6520   68.3874   -5.4046 O   0  0  0  0  0  0  0  0  0  0  0  0
   28.6515   72.2197   -2.7202 O   0  0  0  0  0  0  0  0  0  0  0  0
   28.1129   70.4131   -4.2194 C   0  0  1  0  0  0  0  0  0  0  0  0
   28.7073   69.2795   -5.0575 C   0  0  1  0  0  0  0  0  0  0  0  0
   29.2208   71.2828   -3.6283 C   0  0  2  0  0  0  0  0  0  0  0  0
   29.8038   68.5349   -4.2839 C   0  0  1  0  0  0  0  0  0  0  0  0
   30.2848   70.4400   -2.9228 C   0  0  1  0  0  0  0  0  0  0  0  0
   26.5859   70.6709   -5.4490 H   0  0  0  0  0  0  0  0  0  0  0  0
   26.9661   68.8701   -5.8922 H   0  0  0  0  0  0  0  0  0  0  0  0
   27.9798   72.7473   -3.1790 H   0  0  0  0  0  0  0  0  0  0  0  0
   30.1634   67.7333   -6.5058 O   0  0  0  0  0  0  0  0  0  0  0  0
   30.5184   67.5039   -5.1546 C   0  0  0  0  0  0  0  0  0  0  0  0
   30.6112   67.0845   -7.0717 H   0  0  0  0  0  0  0  0  0  0  0  0
 25 28  1  0
 25 24  1  0
 25 26  1  1
 25 27  2  0
  1  4  1  0
  1 24  1  0
  1  2  1  1
  1  3  2  0
  6 11  1  0
  6 12  1  0
 29 36  1  0
 29 37  1  0
  9  7  1  1
  7 13  1  0
 10  8  1  6
  8 14  1  0
 37 28  1  1
  4  5  1  0
 33 30  1  6
 30 38  1  0
 34 31  1  1
 31 39  1  0
 35 32  1  1
 32 40  1  0
 41 42  1  0
 41 43  1  0
 15 19  2  0
 16 22  2  0
 12 17  1  1
 17 19  1  0
 17 20  1  0
 18 19  1  0
 18 22  1  0
 18 23  1  0
  9 10  1  0
  9 11  1  0
 10 12  1  0
 11  5  1  1
 33 34  1  0
 33 35  1  0
 34 36  1  0
 35 37  1  0
 36 42  1  6
 20 21  2  0
 21 22  1  0
M  CHG  2   2  -1  26  -1
M  END
>  <COMPND>  (90) 
    8629 

>  <AUTHOR>  (90) 
    GENERATED BY OPEN BABEL 3.1.1

>  <MASTER>  (90) 
        0    0    0    0    0    0    0    0   58    0   58    0

>  <minimizedAffinity>  (90) 
-6.77833

>  <CNNscore>  (90) 
0.3876670003

>  <CNNaffinity>  (90) 
3.7944073677

>  <CNN_VS>  (90) 
1.4709665775

>  <CNNaffinity_variance>  (90) 
0.1439492106

$$$$
91
     RDKit          3D

 43 45  0  0  0  0  0  0  0  0999 V2000
   22.1368   71.6694   -3.4192 P   0  0  2  0  0  0  0  0  0  0  0  0
   22.5247   72.7758   -4.5341 O   0  0  0  0  0  0  0  0  0  0  0  0
   22.1026   72.1771   -2.0076 O   0  0  0  0  0  0  0  0  0  0  0  0
   23.1659   70.4538   -3.7039 O   0  0  0  0  0  0  0  0  0  0  0  0
   24.4754   70.7660   -4.1462 C   0  0  0  0  0  0  0  0  0  0  0  0
   26.3831   70.1160   -2.8377 O   0  0  0  0  0  0  0  0  0  0  0  0
   26.3559   72.9110   -1.7522 O   0  0  0  0  0  0  0  0  0  0  0  0
   28.3483   73.0147   -3.6112 O   0  0  0  0  0  0  0  0  0  0  0  0
   26.0469   72.4506   -3.0667 C   0  0  1  0  0  0  0  0  0  0  0  0
   27.3149   72.0701   -3.8021 C   0  0  2  0  0  0  0  0  0  0  0  0
   25.3380   71.1080   -2.9392 C   0  0  1  0  0  0  0  0  0  0  0  0
   27.6393   70.7172   -3.1916 C   0  0  2  0  0  0  0  0  0  0  0  0
   26.8089   73.7675   -1.8079 H   0  0  0  0  0  0  0  0  0  0  0  0
   28.0946   73.8583   -4.0171 H   0  0  0  0  0  0  0  0  0  0  0  0
   29.7157   68.9463   -2.4631 O   0  0  0  0  0  0  0  0  0  0  0  0
   30.2089   67.4519   -6.7949 O   0  0  0  0  0  0  0  0  0  0  0  0
   28.3277   69.8533   -4.1088 N   0  0  0  0  0  0  0  0  0  0  0  0
   29.9594   68.2035   -4.6206 N   0  0  0  0  0  0  0  0  0  0  0  0
   29.3565   69.0028   -3.6410 C   0  0  0  0  0  0  0  0  0  0  0  0
   27.9808   69.8549   -5.4554 C   0  0  0  0  0  0  0  0  0  0  0  0
   28.5664   69.0875   -6.3771 C   0  0  0  0  0  0  0  0  0  0  0  0
   29.6507   68.1701   -5.9713 C   0  0  0  0  0  0  0  0  0  0  0  0
   30.6791   67.6032   -4.3180 H   0  0  0  0  0  0  0  0  0  0  0  0
   20.7287   71.0875   -3.9592 O   0  0  0  0  0  0  0  0  0  0  0  0
   19.3266   71.8263   -4.2768 P   0  0  2  0  0  0  0  0  0  0  0  0
   19.4191   73.1875   -3.4073 O   0  0  0  0  0  0  0  0  0  0  0  0
   18.1123   70.9908   -3.9918 O   0  0  0  0  0  0  0  0  0  0  0  0
   19.4591   72.3124   -5.8102 O   0  0  0  0  0  0  0  0  0  0  0  0
   18.2859   71.0620   -7.4462 O   0  0  0  0  0  0  0  0  0  0  0  0
   20.9322   73.0546   -9.9113 O   0  0  0  0  0  0  0  0  0  0  0  0
   18.1613   73.8095   -9.9007 O   0  0  0  0  0  0  0  0  0  0  0  0
   21.8109   72.0942   -7.3258 O   0  0  0  0  0  0  0  0  0  0  0  0
   20.0689   72.8984   -8.7819 C   0  0  1  0  0  0  0  0  0  0  0  0
   18.6548   72.6183   -9.2943 C   0  0  1  0  0  0  0  0  0  0  0  0
   20.5710   71.7365   -7.9268 C   0  0  2  0  0  0  0  0  0  0  0  0
   17.7292   72.1768   -8.1525 C   0  0  1  0  0  0  0  0  0  0  0  0
   19.5545   71.3452   -6.8527 C   0  0  1  0  0  0  0  0  0  0  0  0
   20.6193   73.7912  -10.4582 H   0  0  0  0  0  0  0  0  0  0  0  0
   18.7550   74.0777  -10.6195 H   0  0  0  0  0  0  0  0  0  0  0  0
   22.4458   72.3395   -8.0161 H   0  0  0  0  0  0  0  0  0  0  0  0
   16.4744   71.4088  -10.0352 O   0  0  0  0  0  0  0  0  0  0  0  0
   16.3578   71.7411   -8.6640 C   0  0  0  0  0  0  0  0  0  0  0  0
   15.6092   71.1293  -10.3743 H   0  0  0  0  0  0  0  0  0  0  0  0
 25 28  1  0
 25 24  1  0
 25 26  1  1
 25 27  2  0
  1  4  1  0
  1 24  1  0
  1  2  1  6
  1  3  2  0
  6 11  1  0
  6 12  1  0
 29 36  1  0
 29 37  1  0
  9  7  1  1
  7 13  1  0
 10  8  1  1
  8 14  1  0
 37 28  1  1
  4  5  1  0
 33 30  1  6
 30 38  1  0
 34 31  1  1
 31 39  1  0
 35 32  1  1
 32 40  1  0
 41 42  1  0
 41 43  1  0
 15 19  2  0
 16 22  2  0
 12 17  1  6
 17 19  1  0
 17 20  1  0
 18 19  1  0
 18 22  1  0
 18 23  1  0
  9 10  1  0
  9 11  1  0
 10 12  1  0
 11  5  1  6
 33 34  1  0
 33 35  1  0
 34 36  1  0
 35 37  1  0
 36 42  1  6
 20 21  2  0
 21 22  1  0
M  CHG  2   2  -1  26  -1
M  END
>  <COMPND>  (91) 
    8629 

>  <AUTHOR>  (91) 
    GENERATED BY OPEN BABEL 3.1.1

>  <MASTER>  (91) 
        0    0    0    0    0    0    0    0   58    0   58    0

>  <minimizedAffinity>  (91) 
-6.37956

>  <CNNscore>  (91) 
0.3834467828

>  <CNNaffinity>  (91) 
4.2751088142

>  <CNN_VS>  (91) 
1.6392767429

>  <CNNaffinity_variance>  (91) 
0.0826001018

$$$$
92
     RDKit          3D

 43 45  0  0  0  0  0  0  0  0999 V2000
   20.8758   71.8413   -3.5384 P   0  0  2  0  0  0  0  0  0  0  0  0
   20.0700   72.5437   -2.3241 O   0  0  0  0  0  0  0  0  0  0  0  0
   21.0129   70.3511   -3.4298 O   0  0  0  0  0  0  0  0  0  0  0  0
   22.2629   72.6708   -3.6152 O   0  0  0  0  0  0  0  0  0  0  0  0
   23.4599   71.9628   -3.8868 C   0  0  0  0  0  0  0  0  0  0  0  0
   24.5125   73.3265   -2.2116 O   0  0  0  0  0  0  0  0  0  0  0  0
   27.0052   73.1024   -3.8629 O   0  0  0  0  0  0  0  0  0  0  0  0
   27.4410   71.2829   -1.8789 O   0  0  0  0  0  0  0  0  0  0  0  0
   25.9857   72.1315   -3.6320 C   0  0  1  0  0  0  0  0  0  0  0  0
   26.1027   71.5693   -2.2306 C   0  0  2  0  0  0  0  0  0  0  0  0
   24.6489   72.8601   -3.5719 C   0  0  1  0  0  0  0  0  0  0  0  0
   25.5040   72.6859   -1.3922 C   0  0  2  0  0  0  0  0  0  0  0  0
   27.8684   72.6607   -3.9056 H   0  0  0  0  0  0  0  0  0  0  0  0
   27.7767   70.5665   -2.4400 H   0  0  0  0  0  0  0  0  0  0  0  0
   26.8929   71.9619    0.9582 O   0  0  0  0  0  0  0  0  0  0  0  0
   22.9918   70.8217    3.1314 O   0  0  0  0  0  0  0  0  0  0  0  0
   24.8762   72.1971   -0.1971 N   0  0  0  0  0  0  0  0  0  0  0  0
   24.9493   71.3949    2.0385 N   0  0  0  0  0  0  0  0  0  0  0  0
   25.6647   71.8606    0.9279 C   0  0  0  0  0  0  0  0  0  0  0  0
   23.4936   72.0558   -0.1486 C   0  0  0  0  0  0  0  0  0  0  0  0
   22.8268   71.6091    0.9177 C   0  0  0  0  0  0  0  0  0  0  0  0
   23.5759   71.2358    2.1348 C   0  0  0  0  0  0  0  0  0  0  0  0
   25.4777   71.1541    2.8338 H   0  0  0  0  0  0  0  0  0  0  0  0
   20.0756   72.3496   -4.8477 O   0  0  0  0  0  0  0  0  0  0  0  0
   20.5696   72.5854   -6.3687 P   0  0  2  0  0  0  0  0  0  0  0  0
   21.4028   71.2391   -6.7011 O   0  0  0  0  0  0  0  0  0  0  0  0
   21.3399   73.8573   -6.5753 O   0  0  0  0  0  0  0  0  0  0  0  0
   19.2277   72.4642   -7.2574 O   0  0  0  0  0  0  0  0  0  0  0  0
   18.0830   70.3933   -7.3897 O   0  0  0  0  0  0  0  0  0  0  0  0
   16.6263   72.1727  -10.8194 O   0  0  0  0  0  0  0  0  0  0  0  0
   14.9074   71.8714   -8.5385 O   0  0  0  0  0  0  0  0  0  0  0  0
   19.3926   72.5553  -10.0573 O   0  0  0  0  0  0  0  0  0  0  0  0
   17.0950   72.1361   -9.4687 C   0  0  1  0  0  0  0  0  0  0  0  0
   16.1692   71.2214   -8.6644 C   0  0  1  0  0  0  0  0  0  0  0  0
   18.5261   71.6023   -9.4512 C   0  0  2  0  0  0  0  0  0  0  0  0
   16.7555   70.9198   -7.2787 C   0  0  1  0  0  0  0  0  0  0  0  0
   18.9947   71.2889   -8.0291 C   0  0  1  0  0  0  0  0  0  0  0  0
   15.7183   72.5112  -10.8376 H   0  0  0  0  0  0  0  0  0  0  0  0
   14.5483   72.0566   -9.4205 H   0  0  0  0  0  0  0  0  0  0  0  0
   19.0855   72.7450  -10.9571 H   0  0  0  0  0  0  0  0  0  0  0  0
   15.1617   69.1486   -7.4559 O   0  0  0  0  0  0  0  0  0  0  0  0
   15.9273   69.8850   -6.5201 C   0  0  0  0  0  0  0  0  0  0  0  0
   14.6297   68.4859   -6.9873 H   0  0  0  0  0  0  0  0  0  0  0  0
 25 28  1  0
 25 24  1  0
 25 26  1  6
 25 27  2  0
  1  4  1  0
  1 24  1  0
  1  2  1  1
  1  3  2  0
  6 11  1  0
  6 12  1  0
 29 36  1  0
 29 37  1  0
  9  7  1  1
  7 13  1  0
 10  8  1  1
  8 14  1  0
 37 28  1  1
  4  5  1  0
 33 30  1  6
 30 38  1  0
 34 31  1  1
 31 39  1  0
 35 32  1  1
 32 40  1  0
 41 42  1  0
 41 43  1  0
 15 19  2  0
 16 22  2  0
 12 17  1  1
 17 19  1  0
 17 20  1  0
 18 19  1  0
 18 22  1  0
 18 23  1  0
  9 10  1  0
  9 11  1  0
 10 12  1  0
 11  5  1  1
 33 34  1  0
 33 35  1  0
 34 36  1  0
 35 37  1  0
 36 42  1  6
 20 21  2  0
 21 22  1  0
M  CHG  2   2  -1  26  -1
M  END
>  <COMPND>  (92) 
    8629 

>  <AUTHOR>  (92) 
    GENERATED BY OPEN BABEL 3.1.1

>  <MASTER>  (92) 
        0    0    0    0    0    0    0    0   58    0   58    0

>  <minimizedAffinity>  (92) 
-6.26794

>  <CNNscore>  (92) 
0.3781380951

>  <CNNaffinity>  (92) 
3.9876275063

>  <CNN_VS>  (92) 
1.5078738928

>  <CNNaffinity_variance>  (92) 
0.1584811807

$$$$
93
     RDKit          3D

 43 45  0  0  0  0  0  0  0  0999 V2000
   24.8062   73.5016   -4.7664 P   0  0  2  0  0  0  0  0  0  0  0  0
   25.0303   74.1531   -6.2302 O   0  0  0  0  0  0  0  0  0  0  0  0
   24.2142   74.4274   -3.7446 O   0  0  0  0  0  0  0  0  0  0  0  0
   26.2512   72.8761   -4.3942 O   0  0  0  0  0  0  0  0  0  0  0  0
   26.4085   71.4684   -4.4315 C   0  0  0  0  0  0  0  0  0  0  0  0
   27.3996   69.6087   -3.2768 O   0  0  0  0  0  0  0  0  0  0  0  0
   28.6412   71.6419   -1.4560 O   0  0  0  0  0  0  0  0  0  0  0  0
   30.7005   71.0030   -3.1256 O   0  0  0  0  0  0  0  0  0  0  0  0
   28.3925   71.7194   -2.8587 C   0  0  1  0  0  0  0  0  0  0  0  0
   29.3831   70.8605   -3.6166 C   0  0  2  0  0  0  0  0  0  0  0  0
   27.0743   71.0095   -3.1414 C   0  0  1  0  0  0  0  0  0  0  0  0
   28.8244   69.4651   -3.3950 C   0  0  2  0  0  0  0  0  0  0  0  0
   29.4779   72.0889   -1.2510 H   0  0  0  0  0  0  0  0  0  0  0  0
   31.0109   71.9071   -3.2902 H   0  0  0  0  0  0  0  0  0  0  0  0
   31.1013   67.7996   -3.5363 O   0  0  0  0  0  0  0  0  0  0  0  0
   29.8361   66.1084   -7.6327 O   0  0  0  0  0  0  0  0  0  0  0  0
   29.1148   68.5792   -4.4868 N   0  0  0  0  0  0  0  0  0  0  0  0
   30.4694   66.9588   -5.5758 N   0  0  0  0  0  0  0  0  0  0  0  0
   30.2857   67.7861   -4.4606 C   0  0  0  0  0  0  0  0  0  0  0  0
   28.2434   68.5028   -5.5679 C   0  0  0  0  0  0  0  0  0  0  0  0
   28.4337   67.7096   -6.6243 C   0  0  0  0  0  0  0  0  0  0  0  0
   29.6328   66.8485   -6.6752 C   0  0  0  0  0  0  0  0  0  0  0  0
   31.2785   66.3974   -5.5796 H   0  0  0  0  0  0  0  0  0  0  0  0
   23.9142   72.1916   -5.0842 O   0  0  0  0  0  0  0  0  0  0  0  0
   22.3480   72.0379   -5.4536 P   0  0  2  0  0  0  0  0  0  0  0  0
   22.2308   70.4993   -5.9399 O   0  0  0  0  0  0  0  0  0  0  0  0
   21.8497   73.0425   -6.4518 O   0  0  0  0  0  0  0  0  0  0  0  0
   21.5872   72.0747   -4.0307 O   0  0  0  0  0  0  0  0  0  0  0  0
   22.4822   72.2999   -1.8478 O   0  0  0  0  0  0  0  0  0  0  0  0
   19.3588   69.7295   -1.0183 O   0  0  0  0  0  0  0  0  0  0  0  0
   19.1965   72.4733   -0.1857 O   0  0  0  0  0  0  0  0  0  0  0  0
   20.8718   69.4204   -3.4667 O   0  0  0  0  0  0  0  0  0  0  0  0
   20.0164   70.8060   -1.6920 C   0  0  1  0  0  0  0  0  0  0  0  0
   20.3961   71.8620   -0.6520 C   0  0  1  0  0  0  0  0  0  0  0  0
   21.2630   70.2691   -2.3929 C   0  0  2  0  0  0  0  0  0  0  0  0
   21.3355   72.9172   -1.2514 C   0  0  1  0  0  0  0  0  0  0  0  0
   22.1527   71.4014   -2.9090 C   0  0  1  0  0  0  0  0  0  0  0  0
   18.5661   70.0636   -0.5716 H   0  0  0  0  0  0  0  0  0  0  0  0
   18.6119   71.7962    0.1898 H   0  0  0  0  0  0  0  0  0  0  0  0
   20.3093   68.7076   -3.1270 H   0  0  0  0  0  0  0  0  0  0  0  0
   21.7717   73.2613    1.0725 O   0  0  0  0  0  0  0  0  0  0  0  0
   21.8522   73.8898   -0.1935 C   0  0  0  0  0  0  0  0  0  0  0  0
   22.0976   73.8686    1.7556 H   0  0  0  0  0  0  0  0  0  0  0  0
 25 28  1  0
 25 24  1  0
 25 26  1  6
 25 27  2  0
  1  4  1  0
  1 24  1  0
  1  2  1  6
  1  3  2  0
  6 11  1  0
  6 12  1  0
 29 36  1  0
 29 37  1  0
  9  7  1  1
  7 13  1  0
 10  8  1  1
  8 14  1  0
 37 28  1  6
  4  5  1  0
 33 30  1  1
 30 38  1  0
 34 31  1  6
 31 39  1  0
 35 32  1  6
 32 40  1  0
 41 42  1  0
 41 43  1  0
 15 19  2  0
 16 22  2  0
 12 17  1  6
 17 19  1  0
 17 20  1  0
 18 19  1  0
 18 22  1  0
 18 23  1  0
  9 10  1  0
  9 11  1  0
 10 12  1  0
 11  5  1  6
 33 34  1  0
 33 35  1  0
 34 36  1  0
 35 37  1  0
 36 42  1  1
 20 21  2  0
 21 22  1  0
M  CHG  2   2  -1  26  -1
M  END
>  <COMPND>  (93) 
    8629 

>  <AUTHOR>  (93) 
    GENERATED BY OPEN BABEL 3.1.1

>  <MASTER>  (93) 
        0    0    0    0    0    0    0    0   58    0   58    0

>  <minimizedAffinity>  (93) 
-7.30057

>  <CNNscore>  (93) 
0.3717078865

>  <CNNaffinity>  (93) 
4.1823215485

>  <CNN_VS>  (93) 
1.5546019077

>  <CNNaffinity_variance>  (93) 
0.0682135150

$$$$
94
     RDKit          3D

 43 45  0  0  0  0  0  0  0  0999 V2000
   30.6518   72.6977   -1.2887 P   0  0  2  0  0  0  0  0  0  0  0  0
   31.2306   74.1412   -0.8430 O   0  0  0  0  0  0  0  0  0  0  0  0
   31.4285   72.0109   -2.3733 O   0  0  0  0  0  0  0  0  0  0  0  0
   29.0941   72.9880   -1.6159 O   0  0  0  0  0  0  0  0  0  0  0  0
   28.2152   71.8850   -1.7535 C   0  0  0  0  0  0  0  0  0  0  0  0
   28.5781   71.3175   -4.0600 O   0  0  0  0  0  0  0  0  0  0  0  0
   25.6060   71.5410   -4.3884 O   0  0  0  0  0  0  0  0  0  0  0  0
   25.9855   68.8452   -4.2295 O   0  0  0  0  0  0  0  0  0  0  0  0
   26.3568   71.0517   -3.2783 C   0  0  1  0  0  0  0  0  0  0  0  0
   26.9266   69.6837   -3.5909 C   0  0  2  0  0  0  0  0  0  0  0  0
   27.6163   71.8998   -3.1532 C   0  0  1  0  0  0  0  0  0  0  0  0
   28.1038   70.0299   -4.4867 C   0  0  2  0  0  0  0  0  0  0  0  0
   24.7965   71.0149   -4.4881 H   0  0  0  0  0  0  0  0  0  0  0  0
   25.2563   68.6537   -3.6192 H   0  0  0  0  0  0  0  0  0  0  0  0
   28.8276   68.2010   -6.5137 O   0  0  0  0  0  0  0  0  0  0  0  0
   32.2251   66.4270   -3.9541 O   0  0  0  0  0  0  0  0  0  0  0  0
   29.1739   69.0790   -4.3768 N   0  0  0  0  0  0  0  0  0  0  0  0
   30.5188   67.3193   -5.2377 N   0  0  0  0  0  0  0  0  0  0  0  0
   29.4548   68.2046   -5.4525 C   0  0  0  0  0  0  0  0  0  0  0  0
   29.9320   69.0203   -3.2125 C   0  0  0  0  0  0  0  0  0  0  0  0
   30.9426   68.1694   -3.0230 C   0  0  0  0  0  0  0  0  0  0  0  0
   31.3012   67.2218   -4.0979 C   0  0  0  0  0  0  0  0  0  0  0  0
   30.7325   66.7003   -5.9732 H   0  0  0  0  0  0  0  0  0  0  0  0
   30.5846   71.8861    0.1077 O   0  0  0  0  0  0  0  0  0  0  0  0
   31.1347   70.4208    0.5114 P   0  0  2  0  0  0  0  0  0  0  0  0
   32.5777   70.3525   -0.2171 O   0  0  0  0  0  0  0  0  0  0  0  0
   30.2071   69.2955    0.1548 O   0  0  0  0  0  0  0  0  0  0  0  0
   31.4772   70.5322    2.0847 O   0  0  0  0  0  0  0  0  0  0  0  0
   30.5652   71.3981    4.0934 O   0  0  0  0  0  0  0  0  0  0  0  0
   34.2454   73.2687    4.1796 O   0  0  0  0  0  0  0  0  0  0  0  0
   33.7059   71.1161    6.0026 O   0  0  0  0  0  0  0  0  0  0  0  0
   32.8494   72.9438    1.6646 O   0  0  0  0  0  0  0  0  0  0  0  0
   33.3314   72.2035    3.9054 C   0  0  1  0  0  0  0  0  0  0  0  0
   32.6998   71.7614    5.2269 C   0  0  1  0  0  0  0  0  0  0  0  0
   32.2598   72.7019    2.9376 C   0  0  2  0  0  0  0  0  0  0  0  0
   31.5192   70.8110    4.9861 C   0  0  1  0  0  0  0  0  0  0  0  0
   31.1079   71.7038    2.8074 C   0  0  1  0  0  0  0  0  0  0  0  0
   34.9287   72.9587    4.7932 H   0  0  0  0  0  0  0  0  0  0  0  0
   34.4458   71.7268    6.1470 H   0  0  0  0  0  0  0  0  0  0  0  0
   33.5769   73.5774    1.7605 H   0  0  0  0  0  0  0  0  0  0  0  0
   30.4022   71.6967    6.9036 O   0  0  0  0  0  0  0  0  0  0  0  0
   30.7765   70.4824    6.2794 C   0  0  0  0  0  0  0  0  0  0  0  0
   29.9282   71.5031    7.7280 H   0  0  0  0  0  0  0  0  0  0  0  0
 25 28  1  0
 25 24  1  0
 25 26  1  6
 25 27  2  0
  1  4  1  0
  1 24  1  0
  1  2  1  1
  1  3  2  0
  6 11  1  0
  6 12  1  0
 29 36  1  0
 29 37  1  0
  9  7  1  6
  7 13  1  0
 10  8  1  6
  8 14  1  0
 37 28  1  1
  4  5  1  0
 33 30  1  1
 30 38  1  0
 34 31  1  1
 31 39  1  0
 35 32  1  6
 32 40  1  0
 41 42  1  0
 41 43  1  0
 15 19  2  0
 16 22  2  0
 12 17  1  1
 17 19  1  0
 17 20  1  0
 18 19  1  0
 18 22  1  0
 18 23  1  0
  9 10  1  0
  9 11  1  0
 10 12  1  0
 11  5  1  1
 33 34  1  0
 33 35  1  0
 34 36  1  0
 35 37  1  0
 36 42  1  1
 20 21  2  0
 21 22  1  0
M  CHG  2   2  -1  26  -1
M  END
>  <COMPND>  (94) 
    8629 

>  <AUTHOR>  (94) 
    GENERATED BY OPEN BABEL 3.1.1

>  <MASTER>  (94) 
        0    0    0    0    0    0    0    0   58    0   58    0

>  <minimizedAffinity>  (94) 
-6.56654

>  <CNNscore>  (94) 
0.3485275507

>  <CNNaffinity>  (94) 
3.9658191204

>  <CNN_VS>  (94) 
1.3821972609

>  <CNNaffinity_variance>  (94) 
0.0956438929

$$$$
95
     RDKit          3D

 43 45  0  0  0  0  0  0  0  0999 V2000
   26.1155   72.4607   -0.8953 P   0  0  2  0  0  0  0  0  0  0  0  0
   26.6091   73.9259   -0.4189 O   0  0  0  0  0  0  0  0  0  0  0  0
   25.0875   71.8195   -0.0102 O   0  0  0  0  0  0  0  0  0  0  0  0
   27.4912   71.6314   -1.0893 O   0  0  0  0  0  0  0  0  0  0  0  0
   28.6545   72.3354   -1.4881 C   0  0  0  0  0  0  0  0  0  0  0  0
   29.7249   70.1850   -1.5507 O   0  0  0  0  0  0  0  0  0  0  0  0
   32.2592   71.6349   -0.8683 O   0  0  0  0  0  0  0  0  0  0  0  0
   32.5093   71.2325   -3.5538 O   0  0  0  0  0  0  0  0  0  0  0  0
   31.1746   72.0540   -1.6950 C   0  0  1  0  0  0  0  0  0  0  0  0
   31.2049   71.3151   -3.0166 C   0  0  2  0  0  0  0  0  0  0  0  0
   29.8833   71.5385   -1.0720 C   0  0  1  0  0  0  0  0  0  0  0  0
   30.6444   69.9567   -2.6311 C   0  0  2  0  0  0  0  0  0  0  0  0
   33.0949   71.9527   -1.2458 H   0  0  0  0  0  0  0  0  0  0  0  0
   32.8215   72.1217   -3.7832 H   0  0  0  0  0  0  0  0  0  0  0  0
   31.1584   67.3367   -3.5529 O   0  0  0  0  0  0  0  0  0  0  0  0
   27.8960   67.6405   -6.7942 O   0  0  0  0  0  0  0  0  0  0  0  0
   29.9440   69.3258   -3.7141 N   0  0  0  0  0  0  0  0  0  0  0  0
   29.5334   67.4901   -5.1659 N   0  0  0  0  0  0  0  0  0  0  0  0
   30.2797   68.0069   -4.0992 C   0  0  0  0  0  0  0  0  0  0  0  0
   28.9364   70.0135   -4.3817 C   0  0  0  0  0  0  0  0  0  0  0  0
   28.2350   69.5068   -5.3979 C   0  0  0  0  0  0  0  0  0  0  0  0
   28.5233   68.1345   -5.8624 C   0  0  0  0  0  0  0  0  0  0  0  0
   29.7501   66.5730   -5.4519 H   0  0  0  0  0  0  0  0  0  0  0  0
   25.6287   72.7175   -2.4151 O   0  0  0  0  0  0  0  0  0  0  0  0
   25.1955   71.6839   -3.5800 P   0  0  2  0  0  0  0  0  0  0  0  0
   25.6502   70.2478   -2.9898 O   0  0  0  0  0  0  0  0  0  0  0  0
   25.7645   72.0062   -4.9315 O   0  0  0  0  0  0  0  0  0  0  0  0
   23.5828   71.6561   -3.5226 O   0  0  0  0  0  0  0  0  0  0  0  0
   22.5241   70.8663   -1.5548 O   0  0  0  0  0  0  0  0  0  0  0  0
   19.3904   70.4341   -4.2089 O   0  0  0  0  0  0  0  0  0  0  0  0
   19.3087   72.5306   -2.2477 O   0  0  0  0  0  0  0  0  0  0  0  0
   22.0934   69.8387   -5.0568 O   0  0  0  0  0  0  0  0  0  0  0  0
   20.5552   71.0548   -3.6581 C   0  0  1  0  0  0  0  0  0  0  0  0
   20.2466   71.4584   -2.2149 C   0  0  1  0  0  0  0  0  0  0  0  0
   21.7171   70.0641   -3.7026 C   0  0  2  0  0  0  0  0  0  0  0  0
   21.5211   71.8857   -1.4746 C   0  0  1  0  0  0  0  0  0  0  0  0
   22.9165   70.5636   -2.8951 C   0  0  1  0  0  0  0  0  0  0  0  0
   18.6491   71.0581   -4.1840 H   0  0  0  0  0  0  0  0  0  0  0  0
   18.5088   72.2478   -2.7183 H   0  0  0  0  0  0  0  0  0  0  0  0
   21.3256   69.5226   -5.5573 H   0  0  0  0  0  0  0  0  0  0  0  0
   22.2233   71.4249    0.7623 O   0  0  0  0  0  0  0  0  0  0  0  0
   21.2625   72.1412    0.0086 C   0  0  0  0  0  0  0  0  0  0  0  0
   22.0712   71.5784    1.7083 H   0  0  0  0  0  0  0  0  0  0  0  0
 25 28  1  0
 25 24  1  0
 25 26  1  1
 25 27  2  0
  1  4  1  0
  1 24  1  0
  1  2  1  1
  1  3  2  0
  6 11  1  0
  6 12  1  0
 29 36  1  0
 29 37  1  0
  9  7  1  1
  7 13  1  0
 10  8  1  1
  8 14  1  0
 37 28  1  6
  4  5  1  0
 33 30  1  1
 30 38  1  0
 34 31  1  6
 31 39  1  0
 35 32  1  6
 32 40  1  0
 41 42  1  0
 41 43  1  0
 15 19  2  0
 16 22  2  0
 12 17  1  6
 17 19  1  0
 17 20  1  0
 18 19  1  0
 18 22  1  0
 18 23  1  0
  9 10  1  0
  9 11  1  0
 10 12  1  0
 11  5  1  6
 33 34  1  0
 33 35  1  0
 34 36  1  0
 35 37  1  0
 36 42  1  1
 20 21  2  0
 21 22  1  0
M  CHG  2   2  -1  26  -1
M  END
>  <COMPND>  (95) 
    8629 

>  <AUTHOR>  (95) 
    GENERATED BY OPEN BABEL 3.1.1

>  <MASTER>  (95) 
        0    0    0    0    0    0    0    0   58    0   58    0

>  <minimizedAffinity>  (95) 
-6.65730

>  <CNNscore>  (95) 
0.3461668491

>  <CNNaffinity>  (95) 
4.0875043869

>  <CNN_VS>  (95) 
1.4149584770

>  <CNNaffinity_variance>  (95) 
0.1940011680

$$$$
96
     RDKit          3D

 43 45  0  0  0  0  0  0  0  0999 V2000
   26.7445   71.8264   -3.0714 P   0  0  2  0  0  0  0  0  0  0  0  0
   26.6993   71.5085   -1.4858 O   0  0  0  0  0  0  0  0  0  0  0  0
   26.5552   70.6340   -3.9625 O   0  0  0  0  0  0  0  0  0  0  0  0
   28.1319   72.6358   -3.2660 O   0  0  0  0  0  0  0  0  0  0  0  0
   29.0525   72.6680   -2.1893 C   0  0  0  0  0  0  0  0  0  0  0  0
   31.2491   71.9854   -1.4943 O   0  0  0  0  0  0  0  0  0  0  0  0
   31.2025   70.1102   -3.8335 O   0  0  0  0  0  0  0  0  0  0  0  0
   30.6205   68.4630   -1.7396 O   0  0  0  0  0  0  0  0  0  0  0  0
   30.1364   70.5029   -2.9707 C   0  0  1  0  0  0  0  0  0  0  0  0
   30.2758   69.8283   -1.6220 C   0  0  2  0  0  0  0  0  0  0  0  0
   30.3374   71.9706   -2.6145 C   0  0  1  0  0  0  0  0  0  0  0  0
   31.3712   70.6536   -0.9686 C   0  0  2  0  0  0  0  0  0  0  0  0
   31.0955   69.1762   -4.0749 H   0  0  0  0  0  0  0  0  0  0  0  0
   29.8921   67.9806   -2.1608 H   0  0  0  0  0  0  0  0  0  0  0  0
   33.5060   70.2741    0.8415 O   0  0  0  0  0  0  0  0  0  0  0  0
   30.7560   70.8625    4.4928 O   0  0  0  0  0  0  0  0  0  0  0  0
   31.2415   70.7027    0.4604 N   0  0  0  0  0  0  0  0  0  0  0  0
   32.1350   70.5676    2.6581 N   0  0  0  0  0  0  0  0  0  0  0  0
   32.3758   70.4976    1.2800 C   0  0  0  0  0  0  0  0  0  0  0  0
   30.0001   70.9523    1.0354 C   0  0  0  0  0  0  0  0  0  0  0  0
   29.7870   71.0145    2.3514 C   0  0  0  0  0  0  0  0  0  0  0  0
   30.9196   70.8115    3.2777 C   0  0  0  0  0  0  0  0  0  0  0  0
   32.9105   70.4275    3.2487 H   0  0  0  0  0  0  0  0  0  0  0  0
   25.6242   72.9790   -3.2431 O   0  0  0  0  0  0  0  0  0  0  0  0
   24.6901   73.3724   -4.5023 P   0  0  2  0  0  0  0  0  0  0  0  0
   25.6876   73.2180   -5.7667 O   0  0  0  0  0  0  0  0  0  0  0  0
   24.0390   74.7203   -4.3882 O   0  0  0  0  0  0  0  0  0  0  0  0
   23.6571   72.1405   -4.6452 O   0  0  0  0  0  0  0  0  0  0  0  0
   21.6641   72.4293   -3.3957 O   0  0  0  0  0  0  0  0  0  0  0  0
   21.2650   68.4342   -4.3605 O   0  0  0  0  0  0  0  0  0  0  0  0
   19.5897   70.3783   -5.6495 O   0  0  0  0  0  0  0  0  0  0  0  0
   23.8714   69.5068   -3.7003 O   0  0  0  0  0  0  0  0  0  0  0  0
   21.6469   69.7952   -4.5778 C   0  0  1  0  0  0  0  0  0  0  0  0
   20.3894   70.6635   -4.5052 C   0  0  1  0  0  0  0  0  0  0  0  0
   22.6496   70.2100   -3.5026 C   0  0  2  0  0  0  0  0  0  0  0  0
   20.7478   72.1551   -4.4621 C   0  0  1  0  0  0  0  0  0  0  0  0
   22.8985   71.7193   -3.5146 C   0  0  1  0  0  0  0  0  0  0  0  0
   20.6288   68.1644   -5.0402 H   0  0  0  0  0  0  0  0  0  0  0  0
   19.3707   69.4333   -5.6651 H   0  0  0  0  0  0  0  0  0  0  0  0
   23.7004   68.5526   -3.6903 H   0  0  0  0  0  0  0  0  0  0  0  0
   18.9515   73.3506   -5.4883 O   0  0  0  0  0  0  0  0  0  0  0  0
   19.5192   73.0321   -4.2310 C   0  0  0  0  0  0  0  0  0  0  0  0
   18.1683   73.9083   -5.3568 H   0  0  0  0  0  0  0  0  0  0  0  0
 25 28  1  0
 25 24  1  0
 25 26  1  6
 25 27  2  0
  1  4  1  0
  1 24  1  0
  1  2  1  1
  1  3  2  0
  6 11  1  0
  6 12  1  0
 29 36  1  0
 29 37  1  0
  9  7  1  6
  7 13  1  0
 10  8  1  6
  8 14  1  0
 37 28  1  6
  4  5  1  0
 33 30  1  1
 30 38  1  0
 34 31  1  6
 31 39  1  0
 35 32  1  6
 32 40  1  0
 41 42  1  0
 41 43  1  0
 15 19  2  0
 16 22  2  0
 12 17  1  1
 17 19  1  0
 17 20  1  0
 18 19  1  0
 18 22  1  0
 18 23  1  0
  9 10  1  0
  9 11  1  0
 10 12  1  0
 11  5  1  1
 33 34  1  0
 33 35  1  0
 34 36  1  0
 35 37  1  0
 36 42  1  1
 20 21  2  0
 21 22  1  0
M  CHG  2   2  -1  26  -1
M  END
>  <COMPND>  (96) 
    8629 

>  <AUTHOR>  (96) 
    GENERATED BY OPEN BABEL 3.1.1

>  <MASTER>  (96) 
        0    0    0    0    0    0    0    0   58    0   58    0

>  <minimizedAffinity>  (96) 
-6.74254

>  <CNNscore>  (96) 
0.3383187950

>  <CNNaffinity>  (96) 
3.9158852100

>  <CNN_VS>  (96) 
1.3248175383

>  <CNNaffinity_variance>  (96) 
0.0534950271

$$$$
97
     RDKit          3D

 43 45  0  0  0  0  0  0  0  0999 V2000
   22.1324   73.1256   -5.3349 P   0  0  2  0  0  0  0  0  0  0  0  0
   22.5552   71.9596   -6.3737 O   0  0  0  0  0  0  0  0  0  0  0  0
   22.0761   74.5060   -5.9203 O   0  0  0  0  0  0  0  0  0  0  0  0
   23.1525   72.9295   -4.0945 O   0  0  0  0  0  0  0  0  0  0  0  0
   24.3357   72.1786   -4.3044 C   0  0  0  0  0  0  0  0  0  0  0  0
   25.2213   73.4518   -2.4691 O   0  0  0  0  0  0  0  0  0  0  0  0
   27.9123   73.0398   -3.7257 O   0  0  0  0  0  0  0  0  0  0  0  0
   27.9004   71.1865   -1.7253 O   0  0  0  0  0  0  0  0  0  0  0  0
   26.7985   72.1503   -3.6665 C   0  0  1  0  0  0  0  0  0  0  0  0
   26.6572   71.5768   -2.2720 C   0  0  2  0  0  0  0  0  0  0  0  0
   25.5277   72.9801   -3.7994 C   0  0  1  0  0  0  0  0  0  0  0  0
   26.0244   72.7340   -1.5180 C   0  0  2  0  0  0  0  0  0  0  0  0
   28.7357   72.5326   -3.6432 H   0  0  0  0  0  0  0  0  0  0  0  0
   28.2622   70.4478   -2.2393 H   0  0  0  0  0  0  0  0  0  0  0  0
   26.9667   72.0314    1.0503 O   0  0  0  0  0  0  0  0  0  0  0  0
   22.7176   71.0505    2.5416 O   0  0  0  0  0  0  0  0  0  0  0  0
   25.1863   72.2919   -0.4394 N   0  0  0  0  0  0  0  0  0  0  0  0
   24.8502   71.5437    1.7908 N   0  0  0  0  0  0  0  0  0  0  0  0
   25.7594   71.9624    0.8110 C   0  0  0  0  0  0  0  0  0  0  0  0
   23.8121   72.1891   -0.6268 C   0  0  0  0  0  0  0  0  0  0  0  0
   22.9589   71.7870    0.3174 C   0  0  0  0  0  0  0  0  0  0  0  0
   23.4764   71.4240    1.6525 C   0  0  0  0  0  0  0  0  0  0  0  0
   25.2268   71.3085    2.6698 H   0  0  0  0  0  0  0  0  0  0  0  0
   20.7285   72.5899   -4.7390 O   0  0  0  0  0  0  0  0  0  0  0  0
   20.1978   71.0889   -4.4591 P   0  0  2  0  0  0  0  0  0  0  0  0
   19.0569   71.3028   -3.3321 O   0  0  0  0  0  0  0  0  0  0  0  0
   21.2752   70.1172   -4.0730 O   0  0  0  0  0  0  0  0  0  0  0  0
   19.3827   70.6884   -5.7933 O   0  0  0  0  0  0  0  0  0  0  0  0
   19.1018   72.0544   -7.7095 O   0  0  0  0  0  0  0  0  0  0  0  0
   15.5878   69.8957   -7.9172 O   0  0  0  0  0  0  0  0  0  0  0  0
   17.6914   69.3648   -9.7990 O   0  0  0  0  0  0  0  0  0  0  0  0
   16.6129   70.7418   -5.3456 O   0  0  0  0  0  0  0  0  0  0  0  0
   16.9754   70.1026   -7.6394 C   0  0  1  0  0  0  0  0  0  0  0  0
   17.6708   70.5030   -8.9420 C   0  0  1  0  0  0  0  0  0  0  0  0
   17.1158   71.2070   -6.5935 C   0  0  2  0  0  0  0  0  0  0  0  0
   19.0988   70.9989   -8.6779 C   0  0  1  0  0  0  0  0  0  0  0  0
   18.5688   71.6613   -6.4433 C   0  0  1  0  0  0  0  0  0  0  0  0
   15.4917   69.1953   -8.5803 H   0  0  0  0  0  0  0  0  0  0  0  0
   16.7836   69.0614   -9.9574 H   0  0  0  0  0  0  0  0  0  0  0  0
   15.6924   70.4575   -5.4539 H   0  0  0  0  0  0  0  0  0  0  0  0
   19.8077   72.9621   -9.8408 O   0  0  0  0  0  0  0  0  0  0  0  0
   19.7554   71.5509   -9.9414 C   0  0  0  0  0  0  0  0  0  0  0  0
   20.2236   73.3273  -10.6379 H   0  0  0  0  0  0  0  0  0  0  0  0
 25 28  1  0
 25 24  1  0
 25 26  1  1
 25 27  2  0
  1  4  1  0
  1 24  1  0
  1  2  1  6
  1  3  2  0
  6 11  1  0
  6 12  1  0
 29 36  1  0
 29 37  1  0
  9  7  1  1
  7 13  1  0
 10  8  1  1
  8 14  1  0
 37 28  1  6
  4  5  1  0
 33 30  1  6
 30 38  1  0
 34 31  1  6
 31 39  1  0
 35 32  1  1
 32 40  1  0
 41 42  1  0
 41 43  1  0
 15 19  2  0
 16 22  2  0
 12 17  1  1
 17 19  1  0
 17 20  1  0
 18 19  1  0
 18 22  1  0
 18 23  1  0
  9 10  1  0
  9 11  1  0
 10 12  1  0
 11  5  1  1
 33 34  1  0
 33 35  1  0
 34 36  1  0
 35 37  1  0
 36 42  1  6
 20 21  2  0
 21 22  1  0
M  CHG  2   2  -1  26  -1
M  END
>  <COMPND>  (97) 
    8629 

>  <AUTHOR>  (97) 
    GENERATED BY OPEN BABEL 3.1.1

>  <MASTER>  (97) 
        0    0    0    0    0    0    0    0   58    0   58    0

>  <minimizedAffinity>  (97) 
-6.26575

>  <CNNscore>  (97) 
0.3255181611

>  <CNNaffinity>  (97) 
3.9572441578

>  <CNN_VS>  (97) 
1.2881548405

>  <CNNaffinity_variance>  (97) 
0.1572722197

$$$$
98
     RDKit          3D

 43 45  0  0  0  0  0  0  0  0999 V2000
   28.7785   73.8746   -2.3974 P   0  0  2  0  0  0  0  0  0  0  0  0
   28.9856   75.3388   -3.0537 O   0  0  0  0  0  0  0  0  0  0  0  0
   28.7147   73.8552   -0.8984 O   0  0  0  0  0  0  0  0  0  0  0  0
   29.9524   72.9815   -3.0623 O   0  0  0  0  0  0  0  0  0  0  0  0
   29.6112   71.7259   -3.6235 C   0  0  0  0  0  0  0  0  0  0  0  0
   28.7364   69.6355   -2.8243 O   0  0  0  0  0  0  0  0  0  0  0  0
   31.2694   69.3964   -1.2376 O   0  0  0  0  0  0  0  0  0  0  0  0
   31.7452   67.7607   -3.3670 O   0  0  0  0  0  0  0  0  0  0  0  0
   31.0686   69.9444   -2.5394 C   0  0  1  0  0  0  0  0  0  0  0  0
   30.8470   68.8364   -3.5478 C   0  0  2  0  0  0  0  0  0  0  0  0
   29.7210   70.6552   -2.5466 C   0  0  1  0  0  0  0  0  0  0  0  0
   29.4044   68.4457   -3.2747 C   0  0  2  0  0  0  0  0  0  0  0  0
   32.1241   68.9376   -1.2084 H   0  0  0  0  0  0  0  0  0  0  0  0
   32.6492   68.0594   -3.5525 H   0  0  0  0  0  0  0  0  0  0  0  0
   26.7704   67.4265   -3.3055 O   0  0  0  0  0  0  0  0  0  0  0  0
   26.9546   66.5817   -7.8325 O   0  0  0  0  0  0  0  0  0  0  0  0
   28.7390   67.9529   -4.4476 N   0  0  0  0  0  0  0  0  0  0  0  0
   26.8642   67.0068   -5.5596 N   0  0  0  0  0  0  0  0  0  0  0  0
   27.4159   67.4617   -4.3551 C   0  0  0  0  0  0  0  0  0  0  0  0
   29.3974   67.9603   -5.6725 C   0  0  0  0  0  0  0  0  0  0  0  0
   28.8577   67.5218   -6.8117 C   0  0  0  0  0  0  0  0  0  0  0  0
   27.4787   66.9924   -6.8017 C   0  0  0  0  0  0  0  0  0  0  0  0
   25.9435   66.6597   -5.5193 H   0  0  0  0  0  0  0  0  0  0  0  0
   27.4466   73.3310   -3.1346 O   0  0  0  0  0  0  0  0  0  0  0  0
   26.0235   74.0438   -3.4167 P   0  0  2  0  0  0  0  0  0  0  0  0
   26.2185   74.6933   -4.8856 O   0  0  0  0  0  0  0  0  0  0  0  0
   25.6046   75.0220   -2.3577 O   0  0  0  0  0  0  0  0  0  0  0  0
   24.9930   72.8226   -3.6444 O   0  0  0  0  0  0  0  0  0  0  0  0
   22.9990   72.3323   -2.4610 O   0  0  0  0  0  0  0  0  0  0  0  0
   24.2435   68.4814   -3.2810 O   0  0  0  0  0  0  0  0  0  0  0  0
   21.9911   69.5736   -4.6887 O   0  0  0  0  0  0  0  0  0  0  0  0
   26.1887   70.5118   -2.5930 O   0  0  0  0  0  0  0  0  0  0  0  0
   24.0672   69.8767   -3.5403 C   0  0  1  0  0  0  0  0  0  0  0  0
   22.5676   70.1798   -3.5352 C   0  0  1  0  0  0  0  0  0  0  0  0
   24.7819   70.6803   -2.4555 C   0  0  2  0  0  0  0  0  0  0  0  0
   22.3080   71.6923   -3.5402 C   0  0  1  0  0  0  0  0  0  0  0  0
   24.4169   72.1645   -2.5191 C   0  0  1  0  0  0  0  0  0  0  0  0
   23.7926   67.9655   -3.9665 H   0  0  0  0  0  0  0  0  0  0  0  0
   22.1626   68.6189   -4.6736 H   0  0  0  0  0  0  0  0  0  0  0  0
   26.4068   69.5681   -2.5507 H   0  0  0  0  0  0  0  0  0  0  0  0
   20.1184   70.8086   -3.1747 O   0  0  0  0  0  0  0  0  0  0  0  0
   20.8252   72.0186   -3.3763 C   0  0  0  0  0  0  0  0  0  0  0  0
   19.1731   71.0009   -3.0685 H   0  0  0  0  0  0  0  0  0  0  0  0
 25 28  1  0
 25 24  1  0
 25 26  1  6
 25 27  2  0
  1  4  1  0
  1 24  1  0
  1  2  1  6
  1  3  2  0
  6 11  1  0
  6 12  1  0
 29 36  1  0
 29 37  1  0
  9  7  1  1
  7 13  1  0
 10  8  1  1
  8 14  1  0
 37 28  1  6
  4  5  1  0
 33 30  1  1
 30 38  1  0
 34 31  1  6
 31 39  1  0
 35 32  1  6
 32 40  1  0
 41 42  1  0
 41 43  1  0
 15 19  2  0
 16 22  2  0
 12 17  1  6
 17 19  1  0
 17 20  1  0
 18 19  1  0
 18 22  1  0
 18 23  1  0
  9 10  1  0
  9 11  1  0
 10 12  1  0
 11  5  1  6
 33 34  1  0
 33 35  1  0
 34 36  1  0
 35 37  1  0
 36 42  1  1
 20 21  2  0
 21 22  1  0
M  CHG  2   2  -1  26  -1
M  END
>  <COMPND>  (98) 
    8629 

>  <AUTHOR>  (98) 
    GENERATED BY OPEN BABEL 3.1.1

>  <MASTER>  (98) 
        0    0    0    0    0    0    0    0   58    0   58    0

>  <minimizedAffinity>  (98) 
-7.36404

>  <CNNscore>  (98) 
0.3240479231

>  <CNNaffinity>  (98) 
4.1461057663

>  <CNN_VS>  (98) 
1.3435369730

>  <CNNaffinity_variance>  (98) 
0.4498677254

$$$$
99
     RDKit          3D

 43 45  0  0  0  0  0  0  0  0999 V2000
   22.2260   75.0911   -5.4791 P   0  0  2  0  0  0  0  0  0  0  0  0
   21.2990   75.9670   -4.4836 O   0  0  0  0  0  0  0  0  0  0  0  0
   22.6576   75.7988   -6.7298 O   0  0  0  0  0  0  0  0  0  0  0  0
   21.3810   73.7288   -5.6985 O   0  0  0  0  0  0  0  0  0  0  0  0
   20.2677   73.7575   -6.5747 C   0  0  0  0  0  0  0  0  0  0  0  0
   20.0769   71.5504   -7.5053 O   0  0  0  0  0  0  0  0  0  0  0  0
   20.5723   72.8339  -10.1695 O   0  0  0  0  0  0  0  0  0  0  0  0
   17.8684   72.4800  -10.1739 O   0  0  0  0  0  0  0  0  0  0  0  0
   19.8466   73.3345   -9.0479 C   0  0  1  0  0  0  0  0  0  0  0  0
   18.5137   72.6259   -8.9253 C   0  0  2  0  0  0  0  0  0  0  0  0
   20.5654   72.8809   -7.7834 C   0  0  1  0  0  0  0  0  0  0  0  0
   18.9197   71.2940   -8.3177 C   0  0  2  0  0  0  0  0  0  0  0  0
   20.1323   73.1111  -10.9890 H   0  0  0  0  0  0  0  0  0  0  0  0
   17.6300   73.3545  -10.5190 H   0  0  0  0  0  0  0  0  0  0  0  0
   16.7938   69.7066   -9.2867 O   0  0  0  0  0  0  0  0  0  0  0  0
   15.0162   69.1863   -5.0665 O   0  0  0  0  0  0  0  0  0  0  0  0
   17.8874   70.7303   -7.4942 N   0  0  0  0  0  0  0  0  0  0  0  0
   15.9106   69.4487   -7.1845 N   0  0  0  0  0  0  0  0  0  0  0  0
   16.8646   69.9486   -8.0800 C   0  0  0  0  0  0  0  0  0  0  0  0
   17.8962   70.9543   -6.1217 C   0  0  0  0  0  0  0  0  0  0  0  0
   16.9783   70.4714   -5.2817 C   0  0  0  0  0  0  0  0  0  0  0  0
   15.8756   69.6446   -5.8130 C   0  0  0  0  0  0  0  0  0  0  0  0
   15.1882   68.9016   -7.5701 H   0  0  0  0  0  0  0  0  0  0  0  0
   23.4391   74.6160   -4.5222 O   0  0  0  0  0  0  0  0  0  0  0  0
   24.6582   73.5877   -4.7851 P   0  0  2  0  0  0  0  0  0  0  0  0
   25.6469   73.8564   -3.5330 O   0  0  0  0  0  0  0  0  0  0  0  0
   25.3085   73.7352   -6.1303 O   0  0  0  0  0  0  0  0  0  0  0  0
   24.0298   72.1282   -4.5024 O   0  0  0  0  0  0  0  0  0  0  0  0
   22.8174   72.2927   -2.4728 O   0  0  0  0  0  0  0  0  0  0  0  0
   22.2522   68.2778   -3.2554 O   0  0  0  0  0  0  0  0  0  0  0  0
   20.0635   70.1081   -3.5830 O   0  0  0  0  0  0  0  0  0  0  0  0
   24.8047   69.5159   -3.8312 O   0  0  0  0  0  0  0  0  0  0  0  0
   22.4129   69.6598   -3.5865 C   0  0  1  0  0  0  0  0  0  0  0  0
   21.2804   70.4466   -2.9237 C   0  0  1  0  0  0  0  0  0  0  0  0
   23.7708   70.1404   -3.0779 C   0  0  2  0  0  0  0  0  0  0  0  0
   21.5320   71.9580   -3.0091 C   0  0  1  0  0  0  0  0  0  0  0  0
   23.8990   71.6624   -3.1618 C   0  0  1  0  0  0  0  0  0  0  0  0
   21.3922   67.9663   -3.5760 H   0  0  0  0  0  0  0  0  0  0  0  0
   19.9167   69.1511   -3.5221 H   0  0  0  0  0  0  0  0  0  0  0  0
   24.7127   68.5528   -3.7699 H   0  0  0  0  0  0  0  0  0  0  0  0
   19.2886   72.7783   -2.9552 O   0  0  0  0  0  0  0  0  0  0  0  0
   20.4973   72.7557   -2.2184 C   0  0  0  0  0  0  0  0  0  0  0  0
   18.6206   73.2824   -2.4639 H   0  0  0  0  0  0  0  0  0  0  0  0
 25 28  1  0
 25 24  1  0
 25 26  1  1
 25 27  2  0
  1  4  1  0
  1 24  1  0
  1  2  1  1
  1  3  2  0
  6 11  1  0
  6 12  1  0
 29 36  1  0
 29 37  1  0
  9  7  1  6
  7 13  1  0
 10  8  1  6
  8 14  1  0
 37 28  1  6
  4  5  1  0
 33 30  1  1
 30 38  1  0
 34 31  1  6
 31 39  1  0
 35 32  1  6
 32 40  1  0
 41 42  1  0
 41 43  1  0
 15 19  2  0
 16 22  2  0
 12 17  1  1
 17 19  1  0
 17 20  1  0
 18 19  1  0
 18 22  1  0
 18 23  1  0
  9 10  1  0
  9 11  1  0
 10 12  1  0
 11  5  1  1
 33 34  1  0
 33 35  1  0
 34 36  1  0
 35 37  1  0
 36 42  1  1
 20 21  2  0
 21 22  1  0
M  CHG  2   2  -1  26  -1
M  END
>  <COMPND>  (99) 
    8629 

>  <AUTHOR>  (99) 
    GENERATED BY OPEN BABEL 3.1.1

>  <MASTER>  (99) 
        0    0    0    0    0    0    0    0   58    0   58    0

>  <minimizedAffinity>  (99) 
-6.42833

>  <CNNscore>  (99) 
0.3046607375

>  <CNNaffinity>  (99) 
3.8922410011

>  <CNN_VS>  (99) 
1.1858130693

>  <CNNaffinity_variance>  (99) 
0.2823296189

$$$$
100
     RDKit          3D

 43 45  0  0  0  0  0  0  0  0999 V2000
   15.8163   71.1136   -2.9321 P   0  0  2  0  0  0  0  0  0  0  0  0
   15.7922   69.5649   -3.3997 O   0  0  0  0  0  0  0  0  0  0  0  0
   14.7744   71.9845   -3.5704 O   0  0  0  0  0  0  0  0  0  0  0  0
   17.3515   71.5667   -3.1681 O   0  0  0  0  0  0  0  0  0  0  0  0
   17.7193   72.0726   -4.4396 C   0  0  0  0  0  0  0  0  0  0  0  0
   18.9326   70.6017   -5.9019 O   0  0  0  0  0  0  0  0  0  0  0  0
   21.3813   72.1422   -5.1133 O   0  0  0  0  0  0  0  0  0  0  0  0
   20.7803   73.1918   -7.5574 O   0  0  0  0  0  0  0  0  0  0  0  0
   20.0479   72.6082   -5.3137 C   0  0  1  0  0  0  0  0  0  0  0  0
   19.7225   72.6512   -6.7922 C   0  0  2  0  0  0  0  0  0  0  0  0
   19.0941   71.5325   -4.8092 C   0  0  1  0  0  0  0  0  0  0  0  0
   19.4668   71.1859   -7.1012 C   0  0  2  0  0  0  0  0  0  0  0  0
   22.0086   72.8127   -5.4277 H   0  0  0  0  0  0  0  0  0  0  0  0
   20.9038   74.1252   -7.3246 H   0  0  0  0  0  0  0  0  0  0  0  0
   20.1318   71.2265   -9.8460 O   0  0  0  0  0  0  0  0  0  0  0  0
   15.7591   70.4931  -11.1040 O   0  0  0  0  0  0  0  0  0  0  0  0
   18.5219   71.0078   -8.1675 N   0  0  0  0  0  0  0  0  0  0  0  0
   17.9540   70.8611  -10.4702 N   0  0  0  0  0  0  0  0  0  0  0  0
   18.9589   71.0467   -9.5121 C   0  0  0  0  0  0  0  0  0  0  0  0
   17.1788   70.7971   -7.8752 C   0  0  0  0  0  0  0  0  0  0  0  0
   16.2328   70.6232   -8.8005 C   0  0  0  0  0  0  0  0  0  0  0  0
   16.6056   70.6497  -10.2296 C   0  0  0  0  0  0  0  0  0  0  0  0
   18.2349   70.8846  -11.4137 H   0  0  0  0  0  0  0  0  0  0  0  0
   15.7117   71.0090   -1.3225 O   0  0  0  0  0  0  0  0  0  0  0  0
   16.5465   70.1220   -0.2598 P   0  0  2  0  0  0  0  0  0  0  0  0
   16.4802   71.0053    1.0940 O   0  0  0  0  0  0  0  0  0  0  0  0
   17.9376   69.7756   -0.7057 O   0  0  0  0  0  0  0  0  0  0  0  0
   15.6029   68.8470    0.0387 O   0  0  0  0  0  0  0  0  0  0  0  0
   13.5180   68.2061   -0.8881 O   0  0  0  0  0  0  0  0  0  0  0  0
   12.8810   67.0572    3.0266 O   0  0  0  0  0  0  0  0  0  0  0  0
   13.2946   65.0542    1.0104 O   0  0  0  0  0  0  0  0  0  0  0  0
   14.3326   69.4957    2.4554 O   0  0  0  0  0  0  0  0  0  0  0  0
   13.6501   67.2694    1.8396 C   0  0  1  0  0  0  0  0  0  0  0  0
   13.0425   66.4257    0.7173 C   0  0  1  0  0  0  0  0  0  0  0  0
   13.6113   68.7530    1.4783 C   0  0  2  0  0  0  0  0  0  0  0  0
   13.6430   66.8002   -0.6445 C   0  0  1  0  0  0  0  0  0  0  0  0
   14.1878   69.0102    0.0848 C   0  0  1  0  0  0  0  0  0  0  0  0
   12.9019   66.1171    3.2618 H   0  0  0  0  0  0  0  0  0  0  0  0
   12.9108   64.8308    1.8729 H   0  0  0  0  0  0  0  0  0  0  0  0
   13.9578   69.3245    3.3329 H   0  0  0  0  0  0  0  0  0  0  0  0
   13.8859   65.2646   -2.4589 O   0  0  0  0  0  0  0  0  0  0  0  0
   12.9406   66.0837   -1.7958 C   0  0  0  0  0  0  0  0  0  0  0  0
   13.4529   64.8022   -3.1939 H   0  0  0  0  0  0  0  0  0  0  0  0
 25 28  1  0
 25 24  1  0
 25 26  1  1
 25 27  2  0
  1  4  1  0
  1 24  1  0
  1  2  1  6
  1  3  2  0
  6 11  1  0
  6 12  1  0
 29 36  1  0
 29 37  1  0
  9  7  1  6
  7 13  1  0
 10  8  1  6
  8 14  1  0
 37 28  1  1
  4  5  1  0
 33 30  1  1
 30 38  1  0
 34 31  1  1
 31 39  1  0
 35 32  1  1
 32 40  1  0
 41 42  1  0
 41 43  1  0
 15 19  2  0
 16 22  2  0
 12 17  1  6
 17 19  1  0
 17 20  1  0
 18 19  1  0
 18 22  1  0
 18 23  1  0
  9 10  1  0
  9 11  1  0
 10 12  1  0
 11  5  1  6
 33 34  1  0
 33 35  1  0
 34 36  1  0
 35 37  1  0
 36 42  1  6
 20 21  2  0
 21 22  1  0
M  CHG  2   2  -1  26  -1
M  END
>  <COMPND>  (100) 
    8629 

>  <AUTHOR>  (100) 
    GENERATED BY OPEN BABEL 3.1.1

>  <MASTER>  (100) 
        0    0    0    0    0    0    0    0   58    0   58    0

>  <minimizedAffinity>  (100) 
-6.48306

>  <CNNscore>  (100) 
0.2961179316

>  <CNNaffinity>  (100) 
4.0725693703

>  <CNN_VS>  (100) 
1.2059608698

>  <CNNaffinity_variance>  (100) 
0.2363418043

$$$$
101
     RDKit          3D

 43 45  0  0  0  0  0  0  0  0999 V2000
   24.4706   73.2623   -5.0423 P   0  0  2  0  0  0  0  0  0  0  0  0
   23.0205   72.8394   -5.6217 O   0  0  0  0  0  0  0  0  0  0  0  0
   25.4173   73.8317   -6.0576 O   0  0  0  0  0  0  0  0  0  0  0  0
   24.9825   71.9356   -4.2706 O   0  0  0  0  0  0  0  0  0  0  0  0
   26.2886   71.4574   -4.5416 C   0  0  0  0  0  0  0  0  0  0  0  0
   27.3025   69.6426   -3.3365 O   0  0  0  0  0  0  0  0  0  0  0  0
   28.4710   71.7372   -1.5370 O   0  0  0  0  0  0  0  0  0  0  0  0
   30.5692   71.1127   -3.1631 O   0  0  0  0  0  0  0  0  0  0  0  0
   28.2422   71.7824   -2.9445 C   0  0  1  0  0  0  0  0  0  0  0  0
   29.2630   70.9315   -3.6708 C   0  0  2  0  0  0  0  0  0  0  0  0
   26.9445   71.0381   -3.2331 C   0  0  1  0  0  0  0  0  0  0  0  0
   28.7318   69.5285   -3.4306 C   0  0  2  0  0  0  0  0  0  0  0  0
   29.2944   72.2065   -1.3282 H   0  0  0  0  0  0  0  0  0  0  0  0
   30.8622   72.0201   -3.3404 H   0  0  0  0  0  0  0  0  0  0  0  0
   31.0037   67.8508   -3.4675 O   0  0  0  0  0  0  0  0  0  0  0  0
   29.8842   66.1183   -7.5889 O   0  0  0  0  0  0  0  0  0  0  0  0
   29.0583   68.6286   -4.5006 N   0  0  0  0  0  0  0  0  0  0  0  0
   30.4443   66.9894   -5.5195 N   0  0  0  0  0  0  0  0  0  0  0  0
   30.2232   67.8305   -4.4215 C   0  0  0  0  0  0  0  0  0  0  0  0
   28.2276   68.5438   -5.6126 C   0  0  0  0  0  0  0  0  0  0  0  0
   28.4532   67.7376   -6.6520 C   0  0  0  0  0  0  0  0  0  0  0  0
   29.6490   66.8704   -6.6482 C   0  0  0  0  0  0  0  0  0  0  0  0
   31.2501   66.4243   -5.4866 H   0  0  0  0  0  0  0  0  0  0  0  0
   24.0993   74.2665   -3.8312 O   0  0  0  0  0  0  0  0  0  0  0  0
   24.8972   74.6339   -2.4743 P   0  0  2  0  0  0  0  0  0  0  0  0
   24.2919   76.0780   -2.0673 O   0  0  0  0  0  0  0  0  0  0  0  0
   26.3919   74.6056   -2.6125 O   0  0  0  0  0  0  0  0  0  0  0  0
   24.3086   73.6183   -1.3665 O   0  0  0  0  0  0  0  0  0  0  0  0
   22.1692   74.3909   -0.7010 O   0  0  0  0  0  0  0  0  0  0  0  0
   22.5773   71.2327    1.9276 O   0  0  0  0  0  0  0  0  0  0  0  0
   20.7448   71.0180   -0.2733 O   0  0  0  0  0  0  0  0  0  0  0  0
   24.8689   72.8793    1.2821 O   0  0  0  0  0  0  0  0  0  0  0  0
   22.7397   71.9239    0.6861 C   0  0  1  0  0  0  0  0  0  0  0  0
   21.3507   72.2430    0.1297 C   0  0  1  0  0  0  0  0  0  0  0  0
   23.5295   73.2085    0.9297 C   0  0  2  0  0  0  0  0  0  0  0  0
   21.4386   73.2115   -1.0575 C   0  0  1  0  0  0  0  0  0  0  0  0
   23.5133   74.1227   -0.2968 C   0  0  1  0  0  0  0  0  0  0  0  0
   22.0770   70.4157    1.7798 H   0  0  0  0  0  0  0  0  0  0  0  0
   20.6957   70.4152    0.4853 H   0  0  0  0  0  0  0  0  0  0  0  0
   24.8655   72.3007    2.0599 H   0  0  0  0  0  0  0  0  0  0  0  0
   19.1364   73.4686   -0.4721 O   0  0  0  0  0  0  0  0  0  0  0  0
   20.0588   73.6667   -1.5277 C   0  0  0  0  0  0  0  0  0  0  0  0
   18.2538   73.7542   -0.7570 H   0  0  0  0  0  0  0  0  0  0  0  0
 25 28  1  0
 25 24  1  0
 25 26  1  1
 25 27  2  0
  1  4  1  0
  1 24  1  0
  1  2  1  6
  1  3  2  0
  6 11  1  0
  6 12  1  0
 29 36  1  0
 29 37  1  0
  9  7  1  1
  7 13  1  0
 10  8  1  1
  8 14  1  0
 37 28  1  6
  4  5  1  0
 33 30  1  1
 30 38  1  0
 34 31  1  6
 31 39  1  0
 35 32  1  6
 32 40  1  0
 41 42  1  0
 41 43  1  0
 15 19  2  0
 16 22  2  0
 12 17  1  6
 17 19  1  0
 17 20  1  0
 18 19  1  0
 18 22  1  0
 18 23  1  0
  9 10  1  0
  9 11  1  0
 10 12  1  0
 11  5  1  6
 33 34  1  0
 33 35  1  0
 34 36  1  0
 35 37  1  0
 36 42  1  1
 20 21  2  0
 21 22  1  0
M  CHG  2   2  -1  26  -1
M  END
>  <COMPND>  (101) 
    8629 

>  <AUTHOR>  (101) 
    GENERATED BY OPEN BABEL 3.1.1

>  <MASTER>  (101) 
        0    0    0    0    0    0    0    0   58    0   58    0

>  <minimizedAffinity>  (101) 
-6.68571

>  <CNNscore>  (101) 
0.6604071259

>  <CNNaffinity>  (101) 
4.5087370872

>  <CNN_VS>  (101) 
2.9776020050

>  <CNNaffinity_variance>  (101) 
0.0411727242

$$$$
102
     RDKit          3D

 43 45  0  0  0  0  0  0  0  0999 V2000
   28.6453   73.9130   -2.6766 P   0  0  2  0  0  0  0  0  0  0  0  0
   27.0836   74.3298   -2.6065 O   0  0  0  0  0  0  0  0  0  0  0  0
   29.5453   74.9322   -3.3111 O   0  0  0  0  0  0  0  0  0  0  0  0
   28.6273   72.4563   -3.3806 O   0  0  0  0  0  0  0  0  0  0  0  0
   29.8450   71.7387   -3.4807 C   0  0  0  0  0  0  0  0  0  0  0  0
   28.8272   69.6875   -2.7521 O   0  0  0  0  0  0  0  0  0  0  0  0
   31.2968   69.2657   -1.1047 O   0  0  0  0  0  0  0  0  0  0  0  0
   31.7349   67.6495   -3.2570 O   0  0  0  0  0  0  0  0  0  0  0  0
   31.1647   69.8517   -2.3987 C   0  0  1  0  0  0  0  0  0  0  0  0
   30.9066   68.7801   -3.4373 C   0  0  2  0  0  0  0  0  0  0  0  0
   29.8619   70.6411   -2.4256 C   0  0  1  0  0  0  0  0  0  0  0  0
   29.4366   68.4699   -3.2113 C   0  0  2  0  0  0  0  0  0  0  0  0
   32.1220   68.7566   -1.0632 H   0  0  0  0  0  0  0  0  0  0  0  0
   32.6596   67.8979   -3.4117 H   0  0  0  0  0  0  0  0  0  0  0  0
   26.8748   67.2829   -3.2875 O   0  0  0  0  0  0  0  0  0  0  0  0
   27.0029   66.8668   -7.8757 O   0  0  0  0  0  0  0  0  0  0  0  0
   28.7762   68.0421   -4.4123 N   0  0  0  0  0  0  0  0  0  0  0  0
   26.9405   67.0768   -5.5720 N   0  0  0  0  0  0  0  0  0  0  0  0
   27.4907   67.4566   -4.3411 C   0  0  0  0  0  0  0  0  0  0  0  0
   29.4026   68.2048   -5.6432 C   0  0  0  0  0  0  0  0  0  0  0  0
   28.8649   67.8362   -6.8078 C   0  0  0  0  0  0  0  0  0  0  0  0
   27.5241   67.2166   -6.8213 C   0  0  0  0  0  0  0  0  0  0  0  0
   26.0457   66.6664   -5.5470 H   0  0  0  0  0  0  0  0  0  0  0  0
   28.9990   73.5684   -1.1374 O   0  0  0  0  0  0  0  0  0  0  0  0
   28.0446   73.2028    0.1149 P   0  0  2  0  0  0  0  0  0  0  0  0
   27.2706   71.8727   -0.3843 O   0  0  0  0  0  0  0  0  0  0  0  0
   27.1398   74.3207    0.5460 O   0  0  0  0  0  0  0  0  0  0  0  0
   29.0552   72.6809    1.2600 O   0  0  0  0  0  0  0  0  0  0  0  0
   30.4977   70.8021    1.1832 O   0  0  0  0  0  0  0  0  0  0  0  0
   29.5804   70.7655    5.2091 O   0  0  0  0  0  0  0  0  0  0  0  0
   32.1965   71.5902    4.3584 O   0  0  0  0  0  0  0  0  0  0  0  0
   27.5400   71.4391    3.2694 O   0  0  0  0  0  0  0  0  0  0  0  0
   29.8522   71.3665    3.9401 C   0  0  1  0  0  0  0  0  0  0  0  0
   31.2568   70.9471    3.5019 C   0  0  1  0  0  0  0  0  0  0  0  0
   28.8096   70.8921    2.9296 C   0  0  2  0  0  0  0  0  0  0  0  0
   31.5180   71.3298    2.0389 C   0  0  1  0  0  0  0  0  0  0  0  0
   29.1898   71.2825    1.5002 C   0  0  1  0  0  0  0  0  0  0  0  0
   30.2386   71.0631    5.8555 H   0  0  0  0  0  0  0  0  0  0  0  0
   32.0203   71.3405    5.2792 H   0  0  0  0  0  0  0  0  0  0  0  0
   27.3106   71.1846    4.1762 H   0  0  0  0  0  0  0  0  0  0  0  0
   32.7186   69.3863    1.3388 O   0  0  0  0  0  0  0  0  0  0  0  0
   32.8511   70.7822    1.5338 C   0  0  0  0  0  0  0  0  0  0  0  0
   33.5594   69.0241    1.0170 H   0  0  0  0  0  0  0  0  0  0  0  0
 25 28  1  0
 25 24  1  0
 25 26  1  6
 25 27  2  0
  1  4  1  0
  1 24  1  0
  1  2  1  1
  1  3  2  0
  6 11  1  0
  6 12  1  0
 29 36  1  0
 29 37  1  0
  9  7  1  1
  7 13  1  0
 10  8  1  1
  8 14  1  0
 37 28  1  1
  4  5  1  0
 33 30  1  1
 30 38  1  0
 34 31  1  1
 31 39  1  0
 35 32  1  1
 32 40  1  0
 41 42  1  0
 41 43  1  0
 15 19  2  0
 16 22  2  0
 12 17  1  6
 17 19  1  0
 17 20  1  0
 18 19  1  0
 18 22  1  0
 18 23  1  0
  9 10  1  0
  9 11  1  0
 10 12  1  0
 11  5  1  6
 33 34  1  0
 33 35  1  0
 34 36  1  0
 35 37  1  0
 36 42  1  6
 20 21  2  0
 21 22  1  0
M  CHG  2   2  -1  26  -1
M  END
>  <COMPND>  (102) 
    8629 

>  <AUTHOR>  (102) 
    GENERATED BY OPEN BABEL 3.1.1

>  <MASTER>  (102) 
        0    0    0    0    0    0    0    0   58    0   58    0

>  <minimizedAffinity>  (102) 
-7.41810

>  <CNNscore>  (102) 
0.5699864030

>  <CNNaffinity>  (102) 
4.3744406700

>  <CNN_VS>  (102) 
2.4933717251

>  <CNNaffinity_variance>  (102) 
0.1138358712

$$$$
103
     RDKit          3D

 43 45  0  0  0  0  0  0  0  0999 V2000
   26.2728   71.4354   -2.7630 P   0  0  2  0  0  0  0  0  0  0  0  0
   25.3758   71.6286   -1.4305 O   0  0  0  0  0  0  0  0  0  0  0  0
   25.7792   70.3835   -3.7123 O   0  0  0  0  0  0  0  0  0  0  0  0
   27.7722   71.2207   -2.1941 O   0  0  0  0  0  0  0  0  0  0  0  0
   28.6451   72.3361   -2.1508 C   0  0  0  0  0  0  0  0  0  0  0  0
   30.9360   72.0569   -1.4816 O   0  0  0  0  0  0  0  0  0  0  0  0
   31.2160   70.2546   -3.8616 O   0  0  0  0  0  0  0  0  0  0  0  0
   30.9666   68.4848   -1.8018 O   0  0  0  0  0  0  0  0  0  0  0  0
   30.1033   70.4254   -2.9852 C   0  0  1  0  0  0  0  0  0  0  0  0
   30.3767   69.7602   -1.6524 C   0  0  2  0  0  0  0  0  0  0  0  0
   30.0329   71.8972   -2.5976 C   0  0  1  0  0  0  0  0  0  0  0  0
   31.3066   70.7600   -0.9861 C   0  0  2  0  0  0  0  0  0  0  0  0
   31.2812   69.3222   -4.1231 H   0  0  0  0  0  0  0  0  0  0  0  0
   30.3361   67.8850   -2.2302 H   0  0  0  0  0  0  0  0  0  0  0  0
   33.4522   70.3305    0.7999 O   0  0  0  0  0  0  0  0  0  0  0  0
   30.7131   70.7589    4.4817 O   0  0  0  0  0  0  0  0  0  0  0  0
   31.1826   70.7544    0.4442 N   0  0  0  0  0  0  0  0  0  0  0  0
   32.0866   70.5443    2.6317 N   0  0  0  0  0  0  0  0  0  0  0  0
   32.3221   70.5281    1.2510 C   0  0  0  0  0  0  0  0  0  0  0  0
   29.9417   70.9719    1.0331 C   0  0  0  0  0  0  0  0  0  0  0  0
   29.7337   70.9830    2.3514 C   0  0  0  0  0  0  0  0  0  0  0  0
   30.8719   70.7549    3.2649 C   0  0  0  0  0  0  0  0  0  0  0  0
   32.8657   70.3886    3.2135 H   0  0  0  0  0  0  0  0  0  0  0  0
   26.3295   72.9274   -3.3824 O   0  0  0  0  0  0  0  0  0  0  0  0
   25.3730   73.6689   -4.4541 P   0  0  2  0  0  0  0  0  0  0  0  0
   25.7854   72.9797   -5.8586 O   0  0  0  0  0  0  0  0  0  0  0  0
   25.4820   75.1662   -4.4435 O   0  0  0  0  0  0  0  0  0  0  0  0
   23.8940   73.1036   -4.1414 O   0  0  0  0  0  0  0  0  0  0  0  0
   22.9303   71.0141   -4.7086 O   0  0  0  0  0  0  0  0  0  0  0  0
   19.5865   73.4073   -5.0869 O   0  0  0  0  0  0  0  0  0  0  0  0
   19.7982   71.6087   -2.8578 O   0  0  0  0  0  0  0  0  0  0  0  0
   22.1707   74.3910   -5.9436 O   0  0  0  0  0  0  0  0  0  0  0  0
   20.8298   72.9859   -4.5192 C   0  0  1  0  0  0  0  0  0  0  0  0
   20.6578   71.5595   -3.9932 C   0  0  1  0  0  0  0  0  0  0  0  0
   21.9122   73.0350   -5.5959 C   0  0  2  0  0  0  0  0  0  0  0  0
   22.0105   70.9425   -3.6129 C   0  0  1  0  0  0  0  0  0  0  0  0
   23.2003   72.3514   -5.1335 C   0  0  1  0  0  0  0  0  0  0  0  0
   18.8950   73.3789   -4.4082 H   0  0  0  0  0  0  0  0  0  0  0  0
   18.9478   72.0008   -3.1114 H   0  0  0  0  0  0  0  0  0  0  0  0
   21.3477   74.8124   -6.2350 H   0  0  0  0  0  0  0  0  0  0  0  0
   21.3110   68.7728   -4.3285 O   0  0  0  0  0  0  0  0  0  0  0  0
   21.8807   69.4685   -3.2350 C   0  0  0  0  0  0  0  0  0  0  0  0
   21.2227   67.8332   -4.1025 H   0  0  0  0  0  0  0  0  0  0  0  0
 25 28  1  0
 25 24  1  0
 25 26  1  6
 25 27  2  0
  1  4  1  0
  1 24  1  0
  1  2  1  1
  1  3  2  0
  6 11  1  0
  6 12  1  0
 29 36  1  0
 29 37  1  0
  9  7  1  6
  7 13  1  0
 10  8  1  6
  8 14  1  0
 37 28  1  1
  4  5  1  0
 33 30  1  6
 30 38  1  0
 34 31  1  1
 31 39  1  0
 35 32  1  1
 32 40  1  0
 41 42  1  0
 41 43  1  0
 15 19  2  0
 16 22  2  0
 12 17  1  1
 17 19  1  0
 17 20  1  0
 18 19  1  0
 18 22  1  0
 18 23  1  0
  9 10  1  0
  9 11  1  0
 10 12  1  0
 11  5  1  1
 33 34  1  0
 33 35  1  0
 34 36  1  0
 35 37  1  0
 36 42  1  6
 20 21  2  0
 21 22  1  0
M  CHG  2   2  -1  26  -1
M  END
>  <COMPND>  (103) 
    8629 

>  <AUTHOR>  (103) 
    GENERATED BY OPEN BABEL 3.1.1

>  <MASTER>  (103) 
        0    0    0    0    0    0    0    0   58    0   58    0

>  <minimizedAffinity>  (103) 
-6.56015

>  <CNNscore>  (103) 
0.5679324865

>  <CNNaffinity>  (103) 
4.0142736435

>  <CNN_VS>  (103) 
2.2798364162

>  <CNNaffinity_variance>  (103) 
0.0362110585

$$$$
104
     RDKit          3D

 43 45  0  0  0  0  0  0  0  0999 V2000
   24.3431   73.2627   -4.8665 P   0  0  2  0  0  0  0  0  0  0  0  0
   25.4252   73.5724   -6.0286 O   0  0  0  0  0  0  0  0  0  0  0  0
   24.0547   74.4123   -3.9463 O   0  0  0  0  0  0  0  0  0  0  0  0
   24.9060   71.9207   -4.1593 O   0  0  0  0  0  0  0  0  0  0  0  0
   26.2090   71.4757   -4.4940 C   0  0  0  0  0  0  0  0  0  0  0  0
   27.4085   69.7997   -3.2588 O   0  0  0  0  0  0  0  0  0  0  0  0
   28.5672   72.0652   -1.6727 O   0  0  0  0  0  0  0  0  0  0  0  0
   30.5854   71.4579   -3.4032 O   0  0  0  0  0  0  0  0  0  0  0  0
   28.2423   72.0090   -3.0607 C   0  0  1  0  0  0  0  0  0  0  0  0
   29.2613   71.1725   -3.8059 C   0  0  2  0  0  0  0  0  0  0  0  0
   26.9751   71.1768   -3.2127 C   0  0  1  0  0  0  0  0  0  0  0  0
   28.8326   69.7599   -3.4467 C   0  0  2  0  0  0  0  0  0  0  0  0
   29.3731   72.5920   -1.5505 H   0  0  0  0  0  0  0  0  0  0  0  0
   30.8108   72.3673   -3.6539 H   0  0  0  0  0  0  0  0  0  0  0  0
   31.2443   68.2987   -3.6086 O   0  0  0  0  0  0  0  0  0  0  0  0
   29.9035   66.1605   -7.4650 O   0  0  0  0  0  0  0  0  0  0  0  0
   29.1401   68.8142   -4.4823 N   0  0  0  0  0  0  0  0  0  0  0  0
   30.5747   67.2351   -5.5285 N   0  0  0  0  0  0  0  0  0  0  0  0
   30.3802   68.1341   -4.4722 C   0  0  0  0  0  0  0  0  0  0  0  0
   28.2171   68.5690   -5.4932 C   0  0  0  0  0  0  0  0  0  0  0  0
   28.4184   67.7094   -6.4941 C   0  0  0  0  0  0  0  0  0  0  0  0
   29.6884   66.9578   -6.5573 C   0  0  0  0  0  0  0  0  0  0  0  0
   31.4316   66.7500   -5.5423 H   0  0  0  0  0  0  0  0  0  0  0  0
   23.0629   72.7270   -5.6954 O   0  0  0  0  0  0  0  0  0  0  0  0
   21.7611   71.8960   -5.2180 P   0  0  2  0  0  0  0  0  0  0  0  0
   21.4194   72.5396   -3.7734 O   0  0  0  0  0  0  0  0  0  0  0  0
   21.9529   70.4071   -5.2029 O   0  0  0  0  0  0  0  0  0  0  0  0
   20.5732   72.4077   -6.1834 O   0  0  0  0  0  0  0  0  0  0  0  0
   18.5262   71.7686   -7.1924 O   0  0  0  0  0  0  0  0  0  0  0  0
   20.7697   72.4083  -10.5995 O   0  0  0  0  0  0  0  0  0  0  0  0
   18.7135   74.2811   -9.8834 O   0  0  0  0  0  0  0  0  0  0  0  0
   21.9892   71.1863   -8.2759 O   0  0  0  0  0  0  0  0  0  0  0  0
   20.3446   72.6484   -9.2552 C   0  0  1  0  0  0  0  0  0  0  0  0
   18.8555   72.9988   -9.2785 C   0  0  1  0  0  0  0  0  0  0  0  0
   20.5881   71.3910   -8.4226 C   0  0  2  0  0  0  0  0  0  0  0  0
   18.2664   73.0082   -7.8614 C   0  0  1  0  0  0  0  0  0  0  0  0
   19.9193   71.4842   -7.0500 C   0  0  1  0  0  0  0  0  0  0  0  0
   20.6183   73.2030  -11.1333 H   0  0  0  0  0  0  0  0  0  0  0  0
   19.0898   74.2616  -10.7774 H   0  0  0  0  0  0  0  0  0  0  0  0
   22.4009   71.1287   -9.1517 H   0  0  0  0  0  0  0  0  0  0  0  0
   16.2312   72.5965   -9.0434 O   0  0  0  0  0  0  0  0  0  0  0  0
   16.7514   73.1999   -7.8732 C   0  0  0  0  0  0  0  0  0  0  0  0
   15.2677   72.7103   -9.0642 H   0  0  0  0  0  0  0  0  0  0  0  0
 25 28  1  0
 25 24  1  0
 25 26  1  1
 25 27  2  0
  1  4  1  0
  1 24  1  0
  1  2  1  6
  1  3  2  0
  6 11  1  0
  6 12  1  0
 29 36  1  0
 29 37  1  0
  9  7  1  1
  7 13  1  0
 10  8  1  1
  8 14  1  0
 37 28  1  1
  4  5  1  0
 33 30  1  6
 30 38  1  0
 34 31  1  1
 31 39  1  0
 35 32  1  1
 32 40  1  0
 41 42  1  0
 41 43  1  0
 15 19  2  0
 16 22  2  0
 12 17  1  6
 17 19  1  0
 17 20  1  0
 18 19  1  0
 18 22  1  0
 18 23  1  0
  9 10  1  0
  9 11  1  0
 10 12  1  0
 11  5  1  6
 33 34  1  0
 33 35  1  0
 34 36  1  0
 35 37  1  0
 36 42  1  6
 20 21  2  0
 21 22  1  0
M  CHG  2   2  -1  26  -1
M  END
>  <COMPND>  (104) 
    8629 

>  <AUTHOR>  (104) 
    GENERATED BY OPEN BABEL 3.1.1

>  <MASTER>  (104) 
        0    0    0    0    0    0    0    0   58    0   58    0

>  <minimizedAffinity>  (104) 
-7.69302

>  <CNNscore>  (104) 
0.5610817671

>  <CNNaffinity>  (104) 
4.4008164406

>  <CNN_VS>  (104) 
2.4692177773

>  <CNNaffinity_variance>  (104) 
0.0194092300

$$$$
105
     RDKit          3D

 43 45  0  0  0  0  0  0  0  0999 V2000
   25.1224   73.9548   -3.1071 P   0  0  2  0  0  0  0  0  0  0  0  0
   24.1539   72.6648   -2.9835 O   0  0  0  0  0  0  0  0  0  0  0  0
   24.4814   75.1739   -3.7024 O   0  0  0  0  0  0  0  0  0  0  0  0
   26.4219   73.3914   -3.8893 O   0  0  0  0  0  0  0  0  0  0  0  0
   26.6566   71.9940   -3.8913 C   0  0  0  0  0  0  0  0  0  0  0  0
   27.8969   70.2440   -2.8084 O   0  0  0  0  0  0  0  0  0  0  0  0
   29.2944   72.4250   -1.2981 O   0  0  0  0  0  0  0  0  0  0  0  0
   31.1122   71.7774   -3.2251 O   0  0  0  0  0  0  0  0  0  0  0  0
   28.8372   72.4134   -2.6495 C   0  0  1  0  0  0  0  0  0  0  0  0
   29.7451   71.5541   -3.5044 C   0  0  2  0  0  0  0  0  0  0  0  0
   27.5277   71.6358   -2.6951 C   0  0  1  0  0  0  0  0  0  0  0  0
   29.2938   70.1519   -3.1325 C   0  0  2  0  0  0  0  0  0  0  0  0
   30.1296   72.9164   -1.2438 H   0  0  0  0  0  0  0  0  0  0  0  0
   31.3506   72.6827   -3.4790 H   0  0  0  0  0  0  0  0  0  0  0  0
   31.0855   67.9688   -3.0882 O   0  0  0  0  0  0  0  0  0  0  0  0
   29.8555   66.6374   -7.3256 O   0  0  0  0  0  0  0  0  0  0  0  0
   29.4619   69.2185   -4.2104 N   0  0  0  0  0  0  0  0  0  0  0  0
   30.4715   67.3076   -5.1980 N   0  0  0  0  0  0  0  0  0  0  0  0
   30.3892   68.1576   -4.0878 C   0  0  0  0  0  0  0  0  0  0  0  0
   28.7118   69.3599   -5.3728 C   0  0  0  0  0  0  0  0  0  0  0  0
   28.8031   68.5415   -6.4232 C   0  0  0  0  0  0  0  0  0  0  0  0
   29.7484   67.4074   -6.3761 C   0  0  0  0  0  0  0  0  0  0  0  0
   31.1112   66.5615   -5.1355 H   0  0  0  0  0  0  0  0  0  0  0  0
   25.6636   74.1491   -1.5963 O   0  0  0  0  0  0  0  0  0  0  0  0
   24.9585   74.7892   -0.2902 P   0  0  2  0  0  0  0  0  0  0  0  0
   23.3859   74.7677   -0.6695 O   0  0  0  0  0  0  0  0  0  0  0  0
   25.4848   76.1422    0.0924 O   0  0  0  0  0  0  0  0  0  0  0  0
   25.1174   73.6618    0.8537 O   0  0  0  0  0  0  0  0  0  0  0  0
   26.2940   71.6071    0.7515 O   0  0  0  0  0  0  0  0  0  0  0  0
   23.1734   70.4594    3.2001 O   0  0  0  0  0  0  0  0  0  0  0  0
   25.7999   70.7935    4.3128 O   0  0  0  0  0  0  0  0  0  0  0  0
   22.6866   72.2664    0.9917 O   0  0  0  0  0  0  0  0  0  0  0  0
   24.1531   71.3579    2.6725 C   0  0  1  0  0  0  0  0  0  0  0  0
   25.5376   70.7527    2.9128 C   0  0  1  0  0  0  0  0  0  0  0  0
   23.9018   71.5487    1.1779 C   0  0  2  0  0  0  0  0  0  0  0  0
   26.6198   71.5225    2.1438 C   0  0  1  0  0  0  0  0  0  0  0  0
   25.0602   72.2824    0.4996 C   0  0  1  0  0  0  0  0  0  0  0  0
   23.3271   70.3342    4.1489 H   0  0  0  0  0  0  0  0  0  0  0  0
   25.1092   70.3043    4.7868 H   0  0  0  0  0  0  0  0  0  0  0  0
   21.9611   71.7916    1.4253 H   0  0  0  0  0  0  0  0  0  0  0  0
   28.6077   70.9015    0.9726 O   0  0  0  0  0  0  0  0  0  0  0  0
   27.9840   70.8433    2.2422 C   0  0  0  0  0  0  0  0  0  0  0  0
   29.4772   70.4733    1.0202 H   0  0  0  0  0  0  0  0  0  0  0  0
 25 28  1  0
 25 24  1  0
 25 26  1  6
 25 27  2  0
  1  4  1  0
  1 24  1  0
  1  2  1  1
  1  3  2  0
  6 11  1  0
  6 12  1  0
 29 36  1  0
 29 37  1  0
  9  7  1  1
  7 13  1  0
 10  8  1  1
  8 14  1  0
 37 28  1  1
  4  5  1  0
 33 30  1  6
 30 38  1  0
 34 31  1  1
 31 39  1  0
 35 32  1  1
 32 40  1  0
 41 42  1  0
 41 43  1  0
 15 19  2  0
 16 22  2  0
 12 17  1  6
 17 19  1  0
 17 20  1  0
 18 19  1  0
 18 22  1  0
 18 23  1  0
  9 10  1  0
  9 11  1  0
 10 12  1  0
 11  5  1  6
 33 34  1  0
 33 35  1  0
 34 36  1  0
 35 37  1  0
 36 42  1  6
 20 21  2  0
 21 22  1  0
M  CHG  2   2  -1  26  -1
M  END
>  <COMPND>  (105) 
    8629 

>  <AUTHOR>  (105) 
    GENERATED BY OPEN BABEL 3.1.1

>  <MASTER>  (105) 
        0    0    0    0    0    0    0    0   58    0   58    0

>  <minimizedAffinity>  (105) 
-6.63612

>  <CNNscore>  (105) 
0.5384110808

>  <CNNaffinity>  (105) 
4.2600650787

>  <CNN_VS>  (105) 
2.2936661243

>  <CNNaffinity_variance>  (105) 
0.0654811785

$$$$
106
     RDKit          3D

 43 45  0  0  0  0  0  0  0  0999 V2000
   25.0529   72.8792   -4.8097 P   0  0  2  0  0  0  0  0  0  0  0  0
   25.7978   74.2273   -5.3047 O   0  0  0  0  0  0  0  0  0  0  0  0
   23.8531   72.4841   -5.6196 O   0  0  0  0  0  0  0  0  0  0  0  0
   24.7832   73.1400   -3.2358 O   0  0  0  0  0  0  0  0  0  0  0  0
   23.6436   73.8941   -2.8610 C   0  0  0  0  0  0  0  0  0  0  0  0
   23.1051   71.8583   -1.7036 O   0  0  0  0  0  0  0  0  0  0  0  0
   20.2701   72.8347   -1.6921 O   0  0  0  0  0  0  0  0  0  0  0  0
   21.1080   73.4123    0.8379 O   0  0  0  0  0  0  0  0  0  0  0  0
   21.4808   73.5777   -1.5589 C   0  0  1  0  0  0  0  0  0  0  0  0
   22.0813   73.3627   -0.1853 C   0  0  2  0  0  0  0  0  0  0  0  0
   22.5252   72.9393   -2.4661 C   0  0  1  0  0  0  0  0  0  0  0  0
   22.7099   71.9870   -0.3281 C   0  0  2  0  0  0  0  0  0  0  0  0
   19.5878   73.2240   -1.1221 H   0  0  0  0  0  0  0  0  0  0  0  0
   20.7378   74.3074    0.8892 H   0  0  0  0  0  0  0  0  0  0  0  0
   22.6269   71.1511    2.3687 O   0  0  0  0  0  0  0  0  0  0  0  0
   27.2109   71.3989    2.7775 O   0  0  0  0  0  0  0  0  0  0  0  0
   23.8667   71.8242    0.5067 N   0  0  0  0  0  0  0  0  0  0  0  0
   24.9095   71.2750    2.5700 N   0  0  0  0  0  0  0  0  0  0  0  0
   23.7160   71.4007    1.8477 C   0  0  0  0  0  0  0  0  0  0  0  0
   25.1332   72.0832   -0.0060 C   0  0  0  0  0  0  0  0  0  0  0  0
   26.2613   71.9597    0.6963 C   0  0  0  0  0  0  0  0  0  0  0  0
   26.1916   71.5219    2.1054 C   0  0  0  0  0  0  0  0  0  0  0  0
   24.8290   70.9816    3.5066 H   0  0  0  0  0  0  0  0  0  0  0  0
   26.2456   71.7882   -4.7980 O   0  0  0  0  0  0  0  0  0  0  0  0
   26.5182   70.5237   -3.8287 P   0  0  2  0  0  0  0  0  0  0  0  0
   25.0470   69.8779   -3.6387 O   0  0  0  0  0  0  0  0  0  0  0  0
   27.2124   70.8717   -2.5438 O   0  0  0  0  0  0  0  0  0  0  0  0
   27.3121   69.4646   -4.7523 O   0  0  0  0  0  0  0  0  0  0  0  0
   26.9813   67.1892   -5.3263 O   0  0  0  0  0  0  0  0  0  0  0  0
   31.0497   67.1078   -4.6246 O   0  0  0  0  0  0  0  0  0  0  0  0
   30.0715   66.9233   -7.3185 O   0  0  0  0  0  0  0  0  0  0  0  0
   29.3269   68.7192   -2.9468 O   0  0  0  0  0  0  0  0  0  0  0  0
   29.8144   67.6793   -5.0639 C   0  0  1  0  0  0  0  0  0  0  0  0
   29.2406   66.7899   -6.1687 C   0  0  1  0  0  0  0  0  0  0  0  0
   28.8512   67.7560   -3.8808 C   0  0  2  0  0  0  0  0  0  0  0  0
   27.7963   67.1856   -6.5042 C   0  0  1  0  0  0  0  0  0  0  0  0
   27.4320   68.1087   -4.3298 C   0  0  1  0  0  0  0  0  0  0  0  0
   31.6659   67.0568   -5.3710 H   0  0  0  0  0  0  0  0  0  0  0  0
   30.9807   66.6710   -7.0930 H   0  0  0  0  0  0  0  0  0  0  0  0
   30.2259   68.4846   -2.6700 H   0  0  0  0  0  0  0  0  0  0  0  0
   26.1357   65.4959   -6.8139 O   0  0  0  0  0  0  0  0  0  0  0  0
   27.1514   66.2138   -7.4900 C   0  0  0  0  0  0  0  0  0  0  0  0
   25.7161   64.8736   -7.4291 H   0  0  0  0  0  0  0  0  0  0  0  0
 25 28  1  0
 25 24  1  0
 25 26  1  1
 25 27  2  0
  1  4  1  0
  1 24  1  0
  1  2  1  6
  1  3  2  0
  6 11  1  0
  6 12  1  0
 29 36  1  0
 29 37  1  0
  9  7  1  1
  7 13  1  0
 10  8  1  1
  8 14  1  0
 37 28  1  6
  4  5  1  0
 33 30  1  1
 30 38  1  0
 34 31  1  6
 31 39  1  0
 35 32  1  1
 32 40  1  0
 41 42  1  0
 41 43  1  0
 15 19  2  0
 16 22  2  0
 12 17  1  1
 17 19  1  0
 17 20  1  0
 18 19  1  0
 18 22  1  0
 18 23  1  0
  9 10  1  0
  9 11  1  0
 10 12  1  0
 11  5  1  1
 33 34  1  0
 33 35  1  0
 34 36  1  0
 35 37  1  0
 36 42  1  6
 20 21  2  0
 21 22  1  0
M  CHG  2   2  -1  26  -1
M  END
>  <COMPND>  (106) 
    8629 

>  <AUTHOR>  (106) 
    GENERATED BY OPEN BABEL 3.1.1

>  <MASTER>  (106) 
        0    0    0    0    0    0    0    0   58    0   58    0

>  <minimizedAffinity>  (106) 
-7.78010

>  <CNNscore>  (106) 
0.5030397177

>  <CNNaffinity>  (106) 
4.1930770874

>  <CNN_VS>  (106) 
2.1092844009

>  <CNNaffinity_variance>  (106) 
0.1102707982

$$$$
107
     RDKit          3D

 43 45  0  0  0  0  0  0  0  0999 V2000
   24.2018   73.5980   -5.0543 P   0  0  2  0  0  0  0  0  0  0  0  0
   25.2878   74.0378   -6.1699 O   0  0  0  0  0  0  0  0  0  0  0  0
   23.4128   74.7266   -4.4584 O   0  0  0  0  0  0  0  0  0  0  0  0
   25.0582   72.7098   -4.0076 O   0  0  0  0  0  0  0  0  0  0  0  0
   26.4261   72.4679   -4.2869 C   0  0  0  0  0  0  0  0  0  0  0  0
   26.8542   70.3743   -3.1882 O   0  0  0  0  0  0  0  0  0  0  0  0
   28.9851   71.8268   -1.6584 O   0  0  0  0  0  0  0  0  0  0  0  0
   30.4191   70.5001   -3.5611 O   0  0  0  0  0  0  0  0  0  0  0  0
   28.5779   71.9914   -3.0157 C   0  0  1  0  0  0  0  0  0  0  0  0
   29.0796   70.8377   -3.8588 C   0  0  2  0  0  0  0  0  0  0  0  0
   27.0679   71.7986   -3.0793 C   0  0  1  0  0  0  0  0  0  0  0  0
   28.1032   69.7325   -3.4936 C   0  0  2  0  0  0  0  0  0  0  0  0
   29.9461   71.9457   -1.5926 H   0  0  0  0  0  0  0  0  0  0  0  0
   31.0011   71.2345   -3.8114 H   0  0  0  0  0  0  0  0  0  0  0  0
   26.4855   67.4234   -3.3240 O   0  0  0  0  0  0  0  0  0  0  0  0
   27.3963   66.2419   -7.6847 O   0  0  0  0  0  0  0  0  0  0  0  0
   27.8995   68.8040   -4.5696 N   0  0  0  0  0  0  0  0  0  0  0  0
   26.9402   66.8371   -5.4955 N   0  0  0  0  0  0  0  0  0  0  0  0
   27.0685   67.6752   -4.3806 C   0  0  0  0  0  0  0  0  0  0  0  0
   28.5198   69.0173   -5.7958 C   0  0  0  0  0  0  0  0  0  0  0  0
   28.3882   68.2078   -6.8487 C   0  0  0  0  0  0  0  0  0  0  0  0
   27.5374   67.0057   -6.7347 C   0  0  0  0  0  0  0  0  0  0  0  0
   26.3664   66.0441   -5.3871 H   0  0  0  0  0  0  0  0  0  0  0  0
   23.3135   72.4913   -5.8283 O   0  0  0  0  0  0  0  0  0  0  0  0
   21.8741   71.8473   -5.4726 P   0  0  2  0  0  0  0  0  0  0  0  0
   22.0909   70.2707   -5.7636 O   0  0  0  0  0  0  0  0  0  0  0  0
   20.7242   72.4620   -6.2166 O   0  0  0  0  0  0  0  0  0  0  0  0
   21.7648   71.9540   -3.8658 O   0  0  0  0  0  0  0  0  0  0  0  0
   23.1090   70.9065   -2.2189 O   0  0  0  0  0  0  0  0  0  0  0  0
   19.4926   70.8923   -0.2257 O   0  0  0  0  0  0  0  0  0  0  0  0
   21.5679   72.6909    0.6148 O   0  0  0  0  0  0  0  0  0  0  0  0
   19.5727   70.3902   -3.0754 O   0  0  0  0  0  0  0  0  0  0  0  0
   20.4960   71.4146   -1.1008 C   0  0  1  0  0  0  0  0  0  0  0  0
   21.7802   71.6136   -0.2933 C   0  0  1  0  0  0  0  0  0  0  0  0
   20.7265   70.4262   -2.2424 C   0  0  2  0  0  0  0  0  0  0  0  0
   22.9713   71.9163   -1.2124 C   0  0  1  0  0  0  0  0  0  0  0  0
   21.9633   70.7918   -3.0650 C   0  0  1  0  0  0  0  0  0  0  0  0
   19.3412   71.5154    0.5012 H   0  0  0  0  0  0  0  0  0  0  0  0
   20.8129   72.4873    1.1890 H   0  0  0  0  0  0  0  0  0  0  0  0
   18.7967   70.1574   -2.5430 H   0  0  0  0  0  0  0  0  0  0  0  0
   24.3037   73.1314    0.3552 O   0  0  0  0  0  0  0  0  0  0  0  0
   24.2899   71.9625   -0.4434 C   0  0  0  0  0  0  0  0  0  0  0  0
   25.1370   73.1739    0.8506 H   0  0  0  0  0  0  0  0  0  0  0  0
 25 28  1  0
 25 24  1  0
 25 26  1  1
 25 27  2  0
  1  4  1  0
  1 24  1  0
  1  2  1  6
  1  3  2  0
  6 11  1  0
  6 12  1  0
 29 36  1  0
 29 37  1  0
  9  7  1  1
  7 13  1  0
 10  8  1  1
  8 14  1  0
 37 28  1  1
  4  5  1  0
 33 30  1  1
 30 38  1  0
 34 31  1  1
 31 39  1  0
 35 32  1  6
 32 40  1  0
 41 42  1  0
 41 43  1  0
 15 19  2  0
 16 22  2  0
 12 17  1  6
 17 19  1  0
 17 20  1  0
 18 19  1  0
 18 22  1  0
 18 23  1  0
  9 10  1  0
  9 11  1  0
 10 12  1  0
 11  5  1  6
 33 34  1  0
 33 35  1  0
 34 36  1  0
 35 37  1  0
 36 42  1  1
 20 21  2  0
 21 22  1  0
M  CHG  2   2  -1  26  -1
M  END
>  <COMPND>  (107) 
    8629 

>  <AUTHOR>  (107) 
    GENERATED BY OPEN BABEL 3.1.1

>  <MASTER>  (107) 
        0    0    0    0    0    0    0    0   58    0   58    0

>  <minimizedAffinity>  (107) 
-7.48568

>  <CNNscore>  (107) 
0.4837699533

>  <CNNaffinity>  (107) 
4.1863188744

>  <CNN_VS>  (107) 
2.0252153873

>  <CNNaffinity_variance>  (107) 
0.4229263663

$$$$
108
     RDKit          3D

 43 45  0  0  0  0  0  0  0  0999 V2000
   27.4814   73.7279   -2.6723 P   0  0  2  0  0  0  0  0  0  0  0  0
   27.8890   75.1662   -3.2909 O   0  0  0  0  0  0  0  0  0  0  0  0
   26.7818   73.7837   -1.3461 O   0  0  0  0  0  0  0  0  0  0  0  0
   28.8630   72.8863   -2.7030 O   0  0  0  0  0  0  0  0  0  0  0  0
   28.9053   71.6832   -3.4504 C   0  0  0  0  0  0  0  0  0  0  0  0
   28.6300   69.3734   -2.8481 O   0  0  0  0  0  0  0  0  0  0  0  0
   31.3597   69.5618   -1.6218 O   0  0  0  0  0  0  0  0  0  0  0  0
   31.8597   68.3194   -3.9973 O   0  0  0  0  0  0  0  0  0  0  0  0
   30.8563   70.1841   -2.8027 C   0  0  1  0  0  0  0  0  0  0  0  0
   30.7336   69.1696   -3.9204 C   0  0  2  0  0  0  0  0  0  0  0  0
   29.4008   70.5585   -2.5518 C   0  0  1  0  0  0  0  0  0  0  0  0
   29.4657   68.4270   -3.5341 C   0  0  2  0  0  0  0  0  0  0  0  0
   32.2882   69.3140   -1.7578 H   0  0  0  0  0  0  0  0  0  0  0  0
   32.6404   68.8384   -4.2460 H   0  0  0  0  0  0  0  0  0  0  0  0
   26.8816   67.2910   -3.4352 O   0  0  0  0  0  0  0  0  0  0  0  0
   26.8475   66.5195   -7.9788 O   0  0  0  0  0  0  0  0  0  0  0  0
   28.7576   67.9215   -4.6763 N   0  0  0  0  0  0  0  0  0  0  0  0
   26.8666   66.9080   -5.6977 N   0  0  0  0  0  0  0  0  0  0  0  0
   27.4648   67.3701   -4.5184 C   0  0  0  0  0  0  0  0  0  0  0  0
   29.3450   67.9758   -5.9356 C   0  0  0  0  0  0  0  0  0  0  0  0
   28.7618   67.5296   -7.0501 C   0  0  0  0  0  0  0  0  0  0  0  0
   27.4102   66.9387   -6.9721 C   0  0  0  0  0  0  0  0  0  0  0  0
   25.9659   66.5193   -5.6120 H   0  0  0  0  0  0  0  0  0  0  0  0
   26.6182   73.0527   -3.8605 O   0  0  0  0  0  0  0  0  0  0  0  0
   25.1519   73.4076   -4.4411 P   0  0  2  0  0  0  0  0  0  0  0  0
   25.4165   73.5987   -6.0257 O   0  0  0  0  0  0  0  0  0  0  0  0
   24.4950   74.5828   -3.7768 O   0  0  0  0  0  0  0  0  0  0  0  0
   24.3233   72.0270   -4.3297 O   0  0  0  0  0  0  0  0  0  0  0  0
   22.9192   72.2207   -2.4304 O   0  0  0  0  0  0  0  0  0  0  0  0
   21.9846   68.3577   -3.5508 O   0  0  0  0  0  0  0  0  0  0  0  0
   20.0724   70.4585   -3.9730 O   0  0  0  0  0  0  0  0  0  0  0  0
   24.7113   69.3049   -3.7690 O   0  0  0  0  0  0  0  0  0  0  0  0
   22.3399   69.7265   -3.7644 C   0  0  1  0  0  0  0  0  0  0  0  0
   21.2391   70.6063   -3.1685 C   0  0  1  0  0  0  0  0  0  0  0  0
   23.6789   70.0065   -3.0847 C   0  0  2  0  0  0  0  0  0  0  0  0
   21.6717   72.0779   -3.1197 C   0  0  1  0  0  0  0  0  0  0  0  0
   23.9907   71.5037   -3.0464 C   0  0  1  0  0  0  0  0  0  0  0  0
   21.1355   68.1732   -3.9802 H   0  0  0  0  0  0  0  0  0  0  0  0
   19.8101   69.5248   -3.9959 H   0  0  0  0  0  0  0  0  0  0  0  0
   24.5023   68.3583   -3.7861 H   0  0  0  0  0  0  0  0  0  0  0  0
   20.1657   73.9252   -3.2875 O   0  0  0  0  0  0  0  0  0  0  0  0
   20.6544   72.9491   -2.3861 C   0  0  0  0  0  0  0  0  0  0  0  0
   19.5169   74.4869   -2.8344 H   0  0  0  0  0  0  0  0  0  0  0  0
 25 28  1  0
 25 24  1  0
 25 26  1  6
 25 27  2  0
  1  4  1  0
  1 24  1  0
  1  2  1  6
  1  3  2  0
  6 11  1  0
  6 12  1  0
 29 36  1  0
 29 37  1  0
  9  7  1  1
  7 13  1  0
 10  8  1  1
  8 14  1  0
 37 28  1  6
  4  5  1  0
 33 30  1  1
 30 38  1  0
 34 31  1  6
 31 39  1  0
 35 32  1  6
 32 40  1  0
 41 42  1  0
 41 43  1  0
 15 19  2  0
 16 22  2  0
 12 17  1  6
 17 19  1  0
 17 20  1  0
 18 19  1  0
 18 22  1  0
 18 23  1  0
  9 10  1  0
  9 11  1  0
 10 12  1  0
 11  5  1  6
 33 34  1  0
 33 35  1  0
 34 36  1  0
 35 37  1  0
 36 42  1  1
 20 21  2  0
 21 22  1  0
M  CHG  2   2  -1  26  -1
M  END
>  <COMPND>  (108) 
    8629 

>  <AUTHOR>  (108) 
    GENERATED BY OPEN BABEL 3.1.1

>  <MASTER>  (108) 
        0    0    0    0    0    0    0    0   58    0   58    0

>  <minimizedAffinity>  (108) 
-7.77226

>  <CNNscore>  (108) 
0.4752923250

>  <CNNaffinity>  (108) 
4.3452911377

>  <CNN_VS>  (108) 
2.0652835369

>  <CNNaffinity_variance>  (108) 
0.5895560384

$$$$
109
     RDKit          3D

 43 45  0  0  0  0  0  0  0  0999 V2000
   23.5950   71.7430    2.6027 P   0  0  2  0  0  0  0  0  0  0  0  0
   22.7350   73.0239    3.0896 O   0  0  0  0  0  0  0  0  0  0  0  0
   23.0912   70.4177    3.0936 O   0  0  0  0  0  0  0  0  0  0  0  0
   25.1141   72.1147    3.0176 O   0  0  0  0  0  0  0  0  0  0  0  0
   26.0319   71.0583    3.2404 C   0  0  0  0  0  0  0  0  0  0  0  0
   27.9237   70.5161    4.6191 O   0  0  0  0  0  0  0  0  0  0  0  0
   27.0943   72.8267    6.3408 O   0  0  0  0  0  0  0  0  0  0  0  0
   29.1455   73.8777    4.8833 O   0  0  0  0  0  0  0  0  0  0  0  0
   27.0255   72.6880    4.9226 C   0  0  1  0  0  0  0  0  0  0  0  0
   28.4065   72.8163    4.3142 C   0  0  2  0  0  0  0  0  0  0  0  0
   26.6733   71.2392    4.6093 C   0  0  1  0  0  0  0  0  0  0  0  0
   29.0111   71.4555    4.6154 C   0  0  2  0  0  0  0  0  0  0  0  0
   27.3176   73.7441    6.5654 H   0  0  0  0  0  0  0  0  0  0  0  0
   28.7210   74.7217    4.6637 H   0  0  0  0  0  0  0  0  0  0  0  0
   31.6659   70.6836    5.1936 O   0  0  0  0  0  0  0  0  0  0  0  0
   32.6096   69.9300    0.7458 O   0  0  0  0  0  0  0  0  0  0  0  0
   29.9721   71.0524    3.6277 N   0  0  0  0  0  0  0  0  0  0  0  0
   32.1336   70.3088    2.9785 N   0  0  0  0  0  0  0  0  0  0  0  0
   31.2794   70.6848    4.0230 C   0  0  0  0  0  0  0  0  0  0  0  0
   29.6146   71.0241    2.2841 C   0  0  0  0  0  0  0  0  0  0  0  0
   30.4414   70.6644    1.3001 C   0  0  0  0  0  0  0  0  0  0  0  0
   31.8254   70.2658    1.6280 C   0  0  0  0  0  0  0  0  0  0  0  0
   33.0495   70.0490    3.2301 H   0  0  0  0  0  0  0  0  0  0  0  0
   23.6080   71.9040    0.9943 O   0  0  0  0  0  0  0  0  0  0  0  0
   23.6245   73.2227    0.0596 P   0  0  2  0  0  0  0  0  0  0  0  0
   24.0623   74.3972    1.0826 O   0  0  0  0  0  0  0  0  0  0  0  0
   22.3344   73.4805   -0.6636 O   0  0  0  0  0  0  0  0  0  0  0  0
   24.9036   73.0241   -0.9045 O   0  0  0  0  0  0  0  0  0  0  0  0
   26.0812   71.1543   -1.7611 O   0  0  0  0  0  0  0  0  0  0  0  0
   29.2907   73.5063   -0.6575 O   0  0  0  0  0  0  0  0  0  0  0  0
   28.6720   73.1675   -3.4415 O   0  0  0  0  0  0  0  0  0  0  0  0
   26.9217   73.4244    1.0040 O   0  0  0  0  0  0  0  0  0  0  0  0
   27.9750   73.2476   -1.1549 C   0  0  1  0  0  0  0  0  0  0  0  0
   28.0981   72.3751   -2.4056 C   0  0  1  0  0  0  0  0  0  0  0  0
   27.1658   72.5299   -0.0762 C   0  0  2  0  0  0  0  0  0  0  0  0
   26.7291   71.8357   -2.8417 C   0  0  1  0  0  0  0  0  0  0  0  0
   25.8445   71.9902   -0.6266 C   0  0  1  0  0  0  0  0  0  0  0  0
   29.8096   73.9623   -1.3375 H   0  0  0  0  0  0  0  0  0  0  0  0
   29.5357   73.5023   -3.1532 H   0  0  0  0  0  0  0  0  0  0  0  0
   27.7658   73.7588    1.3438 H   0  0  0  0  0  0  0  0  0  0  0  0
   27.0511   71.5581   -5.1929 O   0  0  0  0  0  0  0  0  0  0  0  0
   26.8475   70.8375   -3.9914 C   0  0  0  0  0  0  0  0  0  0  0  0
   27.1286   70.9357   -5.9333 H   0  0  0  0  0  0  0  0  0  0  0  0
 25 28  1  0
 25 24  1  0
 25 26  1  1
 25 27  2  0
  1  4  1  0
  1 24  1  0
  1  2  1  1
  1  3  2  0
  6 11  1  0
  6 12  1  0
 29 36  1  0
 29 37  1  0
  9  7  1  1
  7 13  1  0
 10  8  1  1
  8 14  1  0
 37 28  1  6
  4  5  1  0
 33 30  1  1
 30 38  1  0
 34 31  1  6
 31 39  1  0
 35 32  1  1
 32 40  1  0
 41 42  1  0
 41 43  1  0
 15 19  2  0
 16 22  2  0
 12 17  1  6
 17 19  1  0
 17 20  1  0
 18 19  1  0
 18 22  1  0
 18 23  1  0
  9 10  1  0
  9 11  1  0
 10 12  1  0
 11  5  1  6
 33 34  1  0
 33 35  1  0
 34 36  1  0
 35 37  1  0
 36 42  1  6
 20 21  2  0
 21 22  1  0
M  CHG  2   2  -1  26  -1
M  END
>  <COMPND>  (109) 
    8629 

>  <AUTHOR>  (109) 
    GENERATED BY OPEN BABEL 3.1.1

>  <MASTER>  (109) 
        0    0    0    0    0    0    0    0   58    0   58    0

>  <minimizedAffinity>  (109) 
-5.80691

>  <CNNscore>  (109) 
0.4723160267

>  <CNNaffinity>  (109) 
3.7840144634

>  <CNN_VS>  (109) 
1.7872506380

>  <CNNaffinity_variance>  (109) 
0.4224994183

$$$$
110
     RDKit          3D

 43 45  0  0  0  0  0  0  0  0999 V2000
   25.7143   71.5415   -2.5252 P   0  0  2  0  0  0  0  0  0  0  0  0
   24.4286   71.6779   -1.5527 O   0  0  0  0  0  0  0  0  0  0  0  0
   25.6512   70.4055   -3.5035 O   0  0  0  0  0  0  0  0  0  0  0  0
   26.9714   71.5228   -1.5068 O   0  0  0  0  0  0  0  0  0  0  0  0
   28.1028   72.3185   -1.8146 C   0  0  0  0  0  0  0  0  0  0  0  0
   29.3579   70.2714   -1.7260 O   0  0  0  0  0  0  0  0  0  0  0  0
   31.6775   71.9510   -0.8375 O   0  0  0  0  0  0  0  0  0  0  0  0
   32.2216   71.5347   -3.4771 O   0  0  0  0  0  0  0  0  0  0  0  0
   30.6460   72.2600   -1.7734 C   0  0  1  0  0  0  0  0  0  0  0  0
   30.8690   71.5082   -3.0690 C   0  0  2  0  0  0  0  0  0  0  0  0
   29.3502   71.6403   -1.2651 C   0  0  1  0  0  0  0  0  0  0  0  0
   30.3945   70.1108   -2.7082 C   0  0  2  0  0  0  0  0  0  0  0  0
   32.5150   72.3367   -1.1406 H   0  0  0  0  0  0  0  0  0  0  0  0
   32.4758   72.4449   -3.6957 H   0  0  0  0  0  0  0  0  0  0  0  0
   31.1230   67.4809   -3.4368 O   0  0  0  0  0  0  0  0  0  0  0  0
   28.2818   67.5033   -7.0656 O   0  0  0  0  0  0  0  0  0  0  0  0
   29.8604   69.4049   -3.8386 N   0  0  0  0  0  0  0  0  0  0  0  0
   29.7076   67.4941   -5.2429 N   0  0  0  0  0  0  0  0  0  0  0  0
   30.2936   68.0877   -4.1177 C   0  0  0  0  0  0  0  0  0  0  0  0
   28.9177   70.0183   -4.6565 C   0  0  0  0  0  0  0  0  0  0  0  0
   28.3695   69.4390   -5.7266 C   0  0  0  0  0  0  0  0  0  0  0  0
   28.7677   68.0631   -6.0876 C   0  0  0  0  0  0  0  0  0  0  0  0
   29.9944   66.5767   -5.4570 H   0  0  0  0  0  0  0  0  0  0  0  0
   25.8159   73.0064   -3.2010 O   0  0  0  0  0  0  0  0  0  0  0  0
   25.0114   73.6618   -4.4404 P   0  0  2  0  0  0  0  0  0  0  0  0
   25.6376   72.9096   -5.7286 O   0  0  0  0  0  0  0  0  0  0  0  0
   25.0878   75.1599   -4.5004 O   0  0  0  0  0  0  0  0  0  0  0  0
   23.5140   73.0731   -4.3126 O   0  0  0  0  0  0  0  0  0  0  0  0
   22.9289   70.8472   -4.8781 O   0  0  0  0  0  0  0  0  0  0  0  0
   19.2760   72.6687   -5.5024 O   0  0  0  0  0  0  0  0  0  0  0  0
   19.6389   70.9645   -3.2194 O   0  0  0  0  0  0  0  0  0  0  0  0
   21.7173   74.0383   -6.2400 O   0  0  0  0  0  0  0  0  0  0  0  0
   20.5348   72.4609   -4.8562 C   0  0  1  0  0  0  0  0  0  0  0  0
   20.5606   71.0343   -4.3038 C   0  0  1  0  0  0  0  0  0  0  0  0
   21.6571   72.6644   -5.8722 C   0  0  2  0  0  0  0  0  0  0  0  0
   21.9693   70.6478   -3.8335 C   0  0  1  0  0  0  0  0  0  0  0  0
   23.0078   72.2032   -5.3218 C   0  0  1  0  0  0  0  0  0  0  0  0
   18.5591   72.5415   -4.8626 H   0  0  0  0  0  0  0  0  0  0  0  0
   18.7535   71.2113   -3.5296 H   0  0  0  0  0  0  0  0  0  0  0  0
   20.8564   74.3179   -6.5872 H   0  0  0  0  0  0  0  0  0  0  0  0
   21.3011   68.4123   -4.3485 O   0  0  0  0  0  0  0  0  0  0  0  0
   22.0530   69.1785   -3.4255 C   0  0  0  0  0  0  0  0  0  0  0  0
   21.3455   67.4749   -4.1015 H   0  0  0  0  0  0  0  0  0  0  0  0
 25 28  1  0
 25 24  1  0
 25 26  1  6
 25 27  2  0
  1  4  1  0
  1 24  1  0
  1  2  1  1
  1  3  2  0
  6 11  1  0
  6 12  1  0
 29 36  1  0
 29 37  1  0
  9  7  1  1
  7 13  1  0
 10  8  1  1
  8 14  1  0
 37 28  1  1
  4  5  1  0
 33 30  1  6
 30 38  1  0
 34 31  1  1
 31 39  1  0
 35 32  1  1
 32 40  1  0
 41 42  1  0
 41 43  1  0
 15 19  2  0
 16 22  2  0
 12 17  1  6
 17 19  1  0
 17 20  1  0
 18 19  1  0
 18 22  1  0
 18 23  1  0
  9 10  1  0
  9 11  1  0
 10 12  1  0
 11  5  1  6
 33 34  1  0
 33 35  1  0
 34 36  1  0
 35 37  1  0
 36 42  1  6
 20 21  2  0
 21 22  1  0
M  CHG  2   2  -1  26  -1
M  END
>  <COMPND>  (110) 
    8629 

>  <AUTHOR>  (110) 
    GENERATED BY OPEN BABEL 3.1.1

>  <MASTER>  (110) 
        0    0    0    0    0    0    0    0   58    0   58    0

>  <minimizedAffinity>  (110) 
-7.01276

>  <CNNscore>  (110) 
0.4435070157

>  <CNNaffinity>  (110) 
4.2548689842

>  <CNN_VS>  (110) 
1.8870642185

>  <CNNaffinity_variance>  (110) 
0.1483586580

$$$$
111
     RDKit          3D

 43 45  0  0  0  0  0  0  0  0999 V2000
   22.6187   73.0274   -5.0293 P   0  0  2  0  0  0  0  0  0  0  0  0
   22.4603   74.6246   -4.8261 O   0  0  0  0  0  0  0  0  0  0  0  0
   23.7593   72.6106   -5.9106 O   0  0  0  0  0  0  0  0  0  0  0  0
   21.1492   72.5492   -5.5087 O   0  0  0  0  0  0  0  0  0  0  0  0
   20.4920   73.2942   -6.5191 C   0  0  0  0  0  0  0  0  0  0  0  0
   20.0799   71.2671   -7.7416 O   0  0  0  0  0  0  0  0  0  0  0  0
   20.5752   72.8817  -10.2193 O   0  0  0  0  0  0  0  0  0  0  0  0
   17.8530   72.7423  -10.1349 O   0  0  0  0  0  0  0  0  0  0  0  0
   19.9390   73.2687   -9.0023 C   0  0  1  0  0  0  0  0  0  0  0  0
   18.5574   72.6551   -8.9130 C   0  0  2  0  0  0  0  0  0  0  0  0
   20.6669   72.5821   -7.8534 C   0  0  1  0  0  0  0  0  0  0  0  0
   18.8739   71.2216   -8.5217 C   0  0  2  0  0  0  0  0  0  0  0  0
   20.1278   73.3081  -10.9676 H   0  0  0  0  0  0  0  0  0  0  0  0
   17.6754   73.6734  -10.3401 H   0  0  0  0  0  0  0  0  0  0  0  0
   16.6154   69.9087   -9.5955 O   0  0  0  0  0  0  0  0  0  0  0  0
   14.9380   68.9751   -5.4055 O   0  0  0  0  0  0  0  0  0  0  0  0
   17.8315   70.6259   -7.7344 N   0  0  0  0  0  0  0  0  0  0  0  0
   15.7821   69.4447   -7.5083 N   0  0  0  0  0  0  0  0  0  0  0  0
   16.7399   69.9915   -8.3718 C   0  0  0  0  0  0  0  0  0  0  0  0
   17.8981   70.6739   -6.3461 C   0  0  0  0  0  0  0  0  0  0  0  0
   16.9758   70.1487   -5.5369 C   0  0  0  0  0  0  0  0  0  0  0  0
   15.8031   69.4679   -6.1228 C   0  0  0  0  0  0  0  0  0  0  0  0
   15.0124   68.9980   -7.9300 H   0  0  0  0  0  0  0  0  0  0  0  0
   22.7037   72.4747   -3.5126 O   0  0  0  0  0  0  0  0  0  0  0  0
   23.7836   72.7495   -2.3416 P   0  0  2  0  0  0  0  0  0  0  0  0
   23.4636   71.5881   -1.2617 O   0  0  0  0  0  0  0  0  0  0  0  0
   23.7444   74.1424   -1.7829 O   0  0  0  0  0  0  0  0  0  0  0  0
   25.2017   72.3271   -2.9864 O   0  0  0  0  0  0  0  0  0  0  0  0
   26.2798   70.2535   -2.5934 O   0  0  0  0  0  0  0  0  0  0  0  0
   29.5971   72.5831   -3.3803 O   0  0  0  0  0  0  0  0  0  0  0  0
   28.7240   70.6567   -5.3232 O   0  0  0  0  0  0  0  0  0  0  0  0
   27.3889   73.6803   -1.8638 O   0  0  0  0  0  0  0  0  0  0  0  0
   28.2393   72.1581   -3.5255 C   0  0  1  0  0  0  0  0  0  0  0  0
   28.2401   70.6984   -3.9836 C   0  0  1  0  0  0  0  0  0  0  0  0
   27.5256   72.2996   -2.1823 C   0  0  2  0  0  0  0  0  0  0  0  0
   26.8324   70.0923   -3.9050 C   0  0  1  0  0  0  0  0  0  0  0  0
   26.1549   71.6206   -2.1967 C   0  0  1  0  0  0  0  0  0  0  0  0
   30.0557   72.4962   -4.2297 H   0  0  0  0  0  0  0  0  0  0  0  0
   29.6133   71.0428   -5.3591 H   0  0  0  0  0  0  0  0  0  0  0  0
   28.2634   74.0987   -1.8576 H   0  0  0  0  0  0  0  0  0  0  0  0
   25.8192   67.9793   -3.4383 O   0  0  0  0  0  0  0  0  0  0  0  0
   26.8367   68.5952   -4.2063 C   0  0  0  0  0  0  0  0  0  0  0  0
   25.8099   67.0261   -3.6201 H   0  0  0  0  0  0  0  0  0  0  0  0
 25 28  1  0
 25 24  1  0
 25 26  1  1
 25 27  2  0
  1  4  1  0
  1 24  1  0
  1  2  1  1
  1  3  2  0
  6 11  1  0
  6 12  1  0
 29 36  1  0
 29 37  1  0
  9  7  1  6
  7 13  1  0
 10  8  1  6
  8 14  1  0
 37 28  1  6
  4  5  1  0
 33 30  1  1
 30 38  1  0
 34 31  1  6
 31 39  1  0
 35 32  1  6
 32 40  1  0
 41 42  1  0
 41 43  1  0
 15 19  2  0
 16 22  2  0
 12 17  1  1
 17 19  1  0
 17 20  1  0
 18 19  1  0
 18 22  1  0
 18 23  1  0
  9 10  1  0
  9 11  1  0
 10 12  1  0
 11  5  1  1
 33 34  1  0
 33 35  1  0
 34 36  1  0
 35 37  1  0
 36 42  1  1
 20 21  2  0
 21 22  1  0
M  CHG  2   2  -1  26  -1
M  END
>  <COMPND>  (111) 
    8629 

>  <AUTHOR>  (111) 
    GENERATED BY OPEN BABEL 3.1.1

>  <MASTER>  (111) 
        0    0    0    0    0    0    0    0   58    0   58    0

>  <minimizedAffinity>  (111) 
-6.77164

>  <CNNscore>  (111) 
0.4413504899

>  <CNNaffinity>  (111) 
4.0532197952

>  <CNN_VS>  (111) 
1.7888906002

>  <CNNaffinity_variance>  (111) 
0.0298175421

$$$$
112
     RDKit          3D

 43 45  0  0  0  0  0  0  0  0999 V2000
   24.0058   72.3255   -3.9753 P   0  0  2  0  0  0  0  0  0  0  0  0
   22.6049   71.6282   -4.3858 O   0  0  0  0  0  0  0  0  0  0  0  0
   24.3441   73.5689   -4.7441 O   0  0  0  0  0  0  0  0  0  0  0  0
   25.0828   71.1222   -4.0761 O   0  0  0  0  0  0  0  0  0  0  0  0
   26.4381   71.4475   -4.3312 C   0  0  0  0  0  0  0  0  0  0  0  0
   27.6417   69.7505   -3.1289 O   0  0  0  0  0  0  0  0  0  0  0  0
   28.9714   71.9997   -1.6580 O   0  0  0  0  0  0  0  0  0  0  0  0
   30.8651   71.2822   -3.4843 O   0  0  0  0  0  0  0  0  0  0  0  0
   28.5672   71.9296   -3.0244 C   0  0  1  0  0  0  0  0  0  0  0  0
   29.5108   71.0403   -3.8068 C   0  0  2  0  0  0  0  0  0  0  0  0
   27.2633   71.1439   -3.0882 C   0  0  1  0  0  0  0  0  0  0  0  0
   29.0504   69.6524   -3.3945 C   0  0  2  0  0  0  0  0  0  0  0  0
   29.8020   72.4974   -1.5918 H   0  0  0  0  0  0  0  0  0  0  0  0
   31.1100   72.1773   -3.7663 H   0  0  0  0  0  0  0  0  0  0  0  0
   31.3736   68.0635   -3.6311 O   0  0  0  0  0  0  0  0  0  0  0  0
   29.7600   65.9397   -7.3897 O   0  0  0  0  0  0  0  0  0  0  0  0
   29.2638   68.6759   -4.4252 N   0  0  0  0  0  0  0  0  0  0  0  0
   30.5682   67.0072   -5.5023 N   0  0  0  0  0  0  0  0  0  0  0  0
   30.4660   67.9315   -4.4548 C   0  0  0  0  0  0  0  0  0  0  0  0
   28.2869   68.4642   -5.3921 C   0  0  0  0  0  0  0  0  0  0  0  0
   28.4003   67.5798   -6.3852 C   0  0  0  0  0  0  0  0  0  0  0  0
   29.6256   66.7613   -6.4881 C   0  0  0  0  0  0  0  0  0  0  0  0
   31.3973   66.4774   -5.5433 H   0  0  0  0  0  0  0  0  0  0  0  0
   23.8508   72.5417   -2.3809 O   0  0  0  0  0  0  0  0  0  0  0  0
   24.5423   73.6080   -1.3820 P   0  0  2  0  0  0  0  0  0  0  0  0
   23.5020   74.8470   -1.3839 O   0  0  0  0  0  0  0  0  0  0  0  0
   25.9482   73.9793   -1.7558 O   0  0  0  0  0  0  0  0  0  0  0  0
   24.3915   72.9513    0.0846 O   0  0  0  0  0  0  0  0  0  0  0  0
   24.5471   73.8723    2.2627 O   0  0  0  0  0  0  0  0  0  0  0  0
   26.4657   70.2769    2.9280 O   0  0  0  0  0  0  0  0  0  0  0  0
   23.8306   70.6958    3.9904 O   0  0  0  0  0  0  0  0  0  0  0  0
   26.8747   71.6924    0.4363 O   0  0  0  0  0  0  0  0  0  0  0  0
   25.4975   71.1470    2.3356 C   0  0  1  0  0  0  0  0  0  0  0  0
   24.6379   71.7400    3.4537 C   0  0  1  0  0  0  0  0  0  0  0  0
   26.2222   72.2529    1.5706 C   0  0  2  0  0  0  0  0  0  0  0  0
   23.7562   72.8810    2.9287 C   0  0  1  0  0  0  0  0  0  0  0  0
   25.2620   73.3615    1.1358 C   0  0  1  0  0  0  0  0  0  0  0  0
   26.0121   69.5721    3.4149 H   0  0  0  0  0  0  0  0  0  0  0  0
   24.3995   69.9814    4.3180 H   0  0  0  0  0  0  0  0  0  0  0  0
   27.4799   70.9921    0.7248 H   0  0  0  0  0  0  0  0  0  0  0  0
   22.1133   72.6687    4.6506 O   0  0  0  0  0  0  0  0  0  0  0  0
   23.0079   73.5904    4.0553 C   0  0  0  0  0  0  0  0  0  0  0  0
   21.6303   73.1062    5.3696 H   0  0  0  0  0  0  0  0  0  0  0  0
 25 28  1  0
 25 24  1  0
 25 26  1  1
 25 27  2  0
  1  4  1  0
  1 24  1  0
  1  2  1  6
  1  3  2  0
  6 11  1  0
  6 12  1  0
 29 36  1  0
 29 37  1  0
  9  7  1  1
  7 13  1  0
 10  8  1  1
  8 14  1  0
 37 28  1  6
  4  5  1  0
 33 30  1  1
 30 38  1  0
 34 31  1  6
 31 39  1  0
 35 32  1  6
 32 40  1  0
 41 42  1  0
 41 43  1  0
 15 19  2  0
 16 22  2  0
 12 17  1  6
 17 19  1  0
 17 20  1  0
 18 19  1  0
 18 22  1  0
 18 23  1  0
  9 10  1  0
  9 11  1  0
 10 12  1  0
 11  5  1  6
 33 34  1  0
 33 35  1  0
 34 36  1  0
 35 37  1  0
 36 42  1  1
 20 21  2  0
 21 22  1  0
M  CHG  2   2  -1  26  -1
M  END
>  <COMPND>  (112) 
    8629 

>  <AUTHOR>  (112) 
    GENERATED BY OPEN BABEL 3.1.1

>  <MASTER>  (112) 
        0    0    0    0    0    0    0    0   58    0   58    0

>  <minimizedAffinity>  (112) 
-6.36296

>  <CNNscore>  (112) 
0.4157306850

>  <CNNaffinity>  (112) 
4.1959776878

>  <CNN_VS>  (112) 
1.7443966866

>  <CNNaffinity_variance>  (112) 
0.0470476039

$$$$
113
     RDKit          3D

 43 45  0  0  0  0  0  0  0  0999 V2000
   21.1220   73.3021   -3.6970 P   0  0  2  0  0  0  0  0  0  0  0  0
   20.2712   71.9776   -4.0700 O   0  0  0  0  0  0  0  0  0  0  0  0
   20.7078   73.9846   -2.4266 O   0  0  0  0  0  0  0  0  0  0  0  0
   21.0430   74.2048   -5.0375 O   0  0  0  0  0  0  0  0  0  0  0  0
   19.9610   73.9984   -5.9288 C   0  0  0  0  0  0  0  0  0  0  0  0
   20.1638   72.2590   -7.5742 O   0  0  0  0  0  0  0  0  0  0  0  0
   20.8145   74.4396   -9.5268 O   0  0  0  0  0  0  0  0  0  0  0  0
   18.1972   73.9088  -10.0790 O   0  0  0  0  0  0  0  0  0  0  0  0
   19.9005   74.4526   -8.4315 C   0  0  1  0  0  0  0  0  0  0  0  0
   18.6623   73.6490   -8.7702 C   0  0  2  0  0  0  0  0  0  0  0  0
   20.5114   73.6341   -7.3009 C   0  0  1  0  0  0  0  0  0  0  0  0
   19.1555   72.2224   -8.5974 C   0  0  2  0  0  0  0  0  0  0  0  0
   20.4462   74.9563  -10.2612 H   0  0  0  0  0  0  0  0  0  0  0  0
   17.8947   74.8284  -10.1382 H   0  0  0  0  0  0  0  0  0  0  0  0
   17.4372   70.8600  -10.3776 O   0  0  0  0  0  0  0  0  0  0  0  0
   15.1785   68.8135   -6.9205 O   0  0  0  0  0  0  0  0  0  0  0  0
   18.1098   71.3271   -8.1898 N   0  0  0  0  0  0  0  0  0  0  0  0
   16.3140   69.8420   -8.6548 N   0  0  0  0  0  0  0  0  0  0  0  0
   17.3024   70.6943   -9.1635 C   0  0  0  0  0  0  0  0  0  0  0  0
   17.8936   71.0839   -6.8377 C   0  0  0  0  0  0  0  0  0  0  0  0
   16.9460   70.2693   -6.3689 C   0  0  0  0  0  0  0  0  0  0  0  0
   16.0591   69.5688   -7.3202 C   0  0  0  0  0  0  0  0  0  0  0  0
   15.7392   69.3904   -9.3146 H   0  0  0  0  0  0  0  0  0  0  0  0
   22.6479   72.7688   -3.7075 O   0  0  0  0  0  0  0  0  0  0  0  0
   23.3557   71.5933   -4.5619 P   0  0  2  0  0  0  0  0  0  0  0  0
   23.1834   72.0911   -6.0916 O   0  0  0  0  0  0  0  0  0  0  0  0
   22.8088   70.2215   -4.2918 O   0  0  0  0  0  0  0  0  0  0  0  0
   24.9317   71.7573   -4.2550 O   0  0  0  0  0  0  0  0  0  0  0  0
   26.3473   70.0903   -3.3418 O   0  0  0  0  0  0  0  0  0  0  0  0
   28.2569   73.4486   -1.8836 O   0  0  0  0  0  0  0  0  0  0  0  0
   29.4664   71.9391   -4.0065 O   0  0  0  0  0  0  0  0  0  0  0  0
   25.3655   73.3666   -1.9973 O   0  0  0  0  0  0  0  0  0  0  0  0
   27.5165   72.6814   -2.8369 C   0  0  1  0  0  0  0  0  0  0  0  0
   28.3615   71.4707   -3.2383 C   0  0  1  0  0  0  0  0  0  0  0  0
   26.2011   72.2326   -2.2030 C   0  0  2  0  0  0  0  0  0  0  0  0
   27.5356   70.4631   -4.0493 C   0  0  1  0  0  0  0  0  0  0  0  0
   25.4830   71.1946   -3.0672 C   0  0  1  0  0  0  0  0  0  0  0  0
   29.0931   73.7370   -2.2800 H   0  0  0  0  0  0  0  0  0  0  0  0
   29.9793   72.5749   -3.4831 H   0  0  0  0  0  0  0  0  0  0  0  0
   25.8314   74.0161   -1.4486 H   0  0  0  0  0  0  0  0  0  0  0  0
   29.2344   69.4251   -5.3705 O   0  0  0  0  0  0  0  0  0  0  0  0
   28.3123   69.1775   -4.3252 C   0  0  0  0  0  0  0  0  0  0  0  0
   29.7361   68.6156   -5.5568 H   0  0  0  0  0  0  0  0  0  0  0  0
 25 28  1  0
 25 24  1  0
 25 26  1  6
 25 27  2  0
  1  4  1  0
  1 24  1  0
  1  2  1  6
  1  3  2  0
  6 11  1  0
  6 12  1  0
 29 36  1  0
 29 37  1  0
  9  7  1  6
  7 13  1  0
 10  8  1  6
  8 14  1  0
 37 28  1  6
  4  5  1  0
 33 30  1  1
 30 38  1  0
 34 31  1  6
 31 39  1  0
 35 32  1  6
 32 40  1  0
 41 42  1  0
 41 43  1  0
 15 19  2  0
 16 22  2  0
 12 17  1  1
 17 19  1  0
 17 20  1  0
 18 19  1  0
 18 22  1  0
 18 23  1  0
  9 10  1  0
  9 11  1  0
 10 12  1  0
 11  5  1  1
 33 34  1  0
 33 35  1  0
 34 36  1  0
 35 37  1  0
 36 42  1  1
 20 21  2  0
 21 22  1  0
M  CHG  2   2  -1  26  -1
M  END
>  <COMPND>  (113) 
    8629 

>  <AUTHOR>  (113) 
    GENERATED BY OPEN BABEL 3.1.1

>  <MASTER>  (113) 
        0    0    0    0    0    0    0    0   58    0   58    0

>  <minimizedAffinity>  (113) 
-6.37548

>  <CNNscore>  (113) 
0.3847339749

>  <CNNaffinity>  (113) 
4.0658326149

>  <CNN_VS>  (113) 
1.5642639399

>  <CNNaffinity_variance>  (113) 
0.0343713537

$$$$
114
     RDKit          3D

 43 45  0  0  0  0  0  0  0  0999 V2000
   25.1528   72.9570   -4.7924 P   0  0  2  0  0  0  0  0  0  0  0  0
   25.9719   74.3384   -4.9880 O   0  0  0  0  0  0  0  0  0  0  0  0
   24.0934   72.6971   -5.8227 O   0  0  0  0  0  0  0  0  0  0  0  0
   24.6405   73.0230   -3.2591 O   0  0  0  0  0  0  0  0  0  0  0  0
   23.4431   73.7257   -2.9759 C   0  0  0  0  0  0  0  0  0  0  0  0
   22.1329   74.2206   -1.0234 O   0  0  0  0  0  0  0  0  0  0  0  0
   24.7045   74.0687    0.5112 O   0  0  0  0  0  0  0  0  0  0  0  0
   23.5618   71.6465    1.0248 O   0  0  0  0  0  0  0  0  0  0  0  0
   24.2762   73.2979   -0.6103 C   0  0  1  0  0  0  0  0  0  0  0  0
   23.2266   72.2916   -0.1868 C   0  0  2  0  0  0  0  0  0  0  0  0
   23.4839   74.2142   -1.5344 C   0  0  1  0  0  0  0  0  0  0  0  0
   21.9877   73.1621   -0.0624 C   0  0  2  0  0  0  0  0  0  0  0  0
   25.2131   73.5048    1.1156 H   0  0  0  0  0  0  0  0  0  0  0  0
   24.3560   71.1052    0.8942 H   0  0  0  0  0  0  0  0  0  0  0  0
   19.3947   74.0699    0.5933 O   0  0  0  0  0  0  0  0  0  0  0  0
   17.4264   70.3035   -1.1902 O   0  0  0  0  0  0  0  0  0  0  0  0
   20.7797   72.4390   -0.3441 N   0  0  0  0  0  0  0  0  0  0  0  0
   18.4167   72.1939   -0.2954 N   0  0  0  0  0  0  0  0  0  0  0  0
   19.5281   72.9828    0.0276 C   0  0  0  0  0  0  0  0  0  0  0  0
   20.8435   71.2052   -0.9825 C   0  0  0  0  0  0  0  0  0  0  0  0
   19.7744   70.4647   -1.2823 C   0  0  0  0  0  0  0  0  0  0  0  0
   18.4289   70.9609   -0.9281 C   0  0  0  0  0  0  0  0  0  0  0  0
   17.5342   72.5524   -0.0457 H   0  0  0  0  0  0  0  0  0  0  0  0
   26.3243   71.8446   -4.7365 O   0  0  0  0  0  0  0  0  0  0  0  0
   26.5145   70.5501   -3.7873 P   0  0  2  0  0  0  0  0  0  0  0  0
   25.0127   69.9630   -3.6551 O   0  0  0  0  0  0  0  0  0  0  0  0
   27.1831   70.8421   -2.4752 O   0  0  0  0  0  0  0  0  0  0  0  0
   27.2916   69.4777   -4.7099 O   0  0  0  0  0  0  0  0  0  0  0  0
   27.0191   67.1699   -5.1749 O   0  0  0  0  0  0  0  0  0  0  0  0
   31.1158   67.2610   -4.6652 O   0  0  0  0  0  0  0  0  0  0  0  0
   30.0217   66.9287   -7.2997 O   0  0  0  0  0  0  0  0  0  0  0  0
   29.4139   68.8803   -2.9738 O   0  0  0  0  0  0  0  0  0  0  0  0
   29.8412   67.7697   -5.0679 C   0  0  1  0  0  0  0  0  0  0  0  0
   29.2503   66.8149   -6.1071 C   0  0  1  0  0  0  0  0  0  0  0  0
   28.9315   67.8625   -3.8443 C   0  0  2  0  0  0  0  0  0  0  0  0
   27.7784   67.1452   -6.3892 C   0  0  1  0  0  0  0  0  0  0  0  0
   27.4811   68.1459   -4.2390 C   0  0  1  0  0  0  0  0  0  0  0  0
   31.6983   67.2001   -5.4375 H   0  0  0  0  0  0  0  0  0  0  0  0
   30.9490   66.7181   -7.1078 H   0  0  0  0  0  0  0  0  0  0  0  0
   30.3328   68.6892   -2.7310 H   0  0  0  0  0  0  0  0  0  0  0  0
   26.6610   66.7687   -8.4673 O   0  0  0  0  0  0  0  0  0  0  0  0
   27.1251   66.1106   -7.3029 C   0  0  0  0  0  0  0  0  0  0  0  0
   26.2430   66.1224   -9.0583 H   0  0  0  0  0  0  0  0  0  0  0  0
 25 28  1  0
 25 24  1  0
 25 26  1  1
 25 27  2  0
  1  4  1  0
  1 24  1  0
  1  2  1  6
  1  3  2  0
  6 11  1  0
  6 12  1  0
 29 36  1  0
 29 37  1  0
  9  7  1  1
  7 13  1  0
 10  8  1  1
  8 14  1  0
 37 28  1  6
  4  5  1  0
 33 30  1  1
 30 38  1  0
 34 31  1  6
 31 39  1  0
 35 32  1  1
 32 40  1  0
 41 42  1  0
 41 43  1  0
 15 19  2  0
 16 22  2  0
 12 17  1  6
 17 19  1  0
 17 20  1  0
 18 19  1  0
 18 22  1  0
 18 23  1  0
  9 10  1  0
  9 11  1  0
 10 12  1  0
 11  5  1  6
 33 34  1  0
 33 35  1  0
 34 36  1  0
 35 37  1  0
 36 42  1  6
 20 21  2  0
 21 22  1  0
M  CHG  2   2  -1  26  -1
M  END
>  <COMPND>  (114) 
    8629 

>  <AUTHOR>  (114) 
    GENERATED BY OPEN BABEL 3.1.1

>  <MASTER>  (114) 
        0    0    0    0    0    0    0    0   58    0   58    0

>  <minimizedAffinity>  (114) 
-7.27314

>  <CNNscore>  (114) 
0.3763349354

>  <CNNaffinity>  (114) 
4.0445175171

>  <CNN_VS>  (114) 
1.5220932961

>  <CNNaffinity_variance>  (114) 
0.0613209195

$$$$
115
     RDKit          3D

 43 45  0  0  0  0  0  0  0  0999 V2000
   28.9534   72.4184    0.6025 P   0  0  2  0  0  0  0  0  0  0  0  0
   29.0016   73.8889   -0.0704 O   0  0  0  0  0  0  0  0  0  0  0  0
   27.7481   71.5982    0.2477 O   0  0  0  0  0  0  0  0  0  0  0  0
   29.1679   72.7060    2.1802 O   0  0  0  0  0  0  0  0  0  0  0  0
   28.1244   73.3391    2.9000 C   0  0  0  0  0  0  0  0  0  0  0  0
   28.6939   71.4691    4.2973 O   0  0  0  0  0  0  0  0  0  0  0  0
   26.3818   72.2918    6.0201 O   0  0  0  0  0  0  0  0  0  0  0  0
   28.5242   73.2736    7.3921 O   0  0  0  0  0  0  0  0  0  0  0  0
   27.3026   73.1066    5.2966 C   0  0  1  0  0  0  0  0  0  0  0  0
   28.6477   73.1248    5.9924 C   0  0  2  0  0  0  0  0  0  0  0  0
   27.6305   72.3967    3.9890 C   0  0  1  0  0  0  0  0  0  0  0  0
   29.2255   71.7767    5.5964 C   0  0  2  0  0  0  0  0  0  0  0  0
   26.1571   72.7248    6.8591 H   0  0  0  0  0  0  0  0  0  0  0  0
   28.1524   74.1466    7.5931 H   0  0  0  0  0  0  0  0  0  0  0  0
   30.8778   69.5305    6.0464 O   0  0  0  0  0  0  0  0  0  0  0  0
   34.7130   71.9690    5.2813 O   0  0  0  0  0  0  0  0  0  0  0  0
   30.6591   71.7961    5.5210 N   0  0  0  0  0  0  0  0  0  0  0  0
   32.7861   70.7465    5.6649 N   0  0  0  0  0  0  0  0  0  0  0  0
   31.3953   70.6135    5.7655 C   0  0  0  0  0  0  0  0  0  0  0  0
   31.3206   72.9784    5.2071 C   0  0  0  0  0  0  0  0  0  0  0  0
   32.6475   73.0889    5.1163 C   0  0  0  0  0  0  0  0  0  0  0  0
   33.4902   71.8998    5.3571 C   0  0  0  0  0  0  0  0  0  0  0  0
   33.3196   69.9357    5.8315 H   0  0  0  0  0  0  0  0  0  0  0  0
   30.3646   71.7682    0.1566 O   0  0  0  0  0  0  0  0  0  0  0  0
   30.7345   70.2776   -0.3474 P   0  0  2  0  0  0  0  0  0  0  0  0
   30.0649   69.3283    0.7786 O   0  0  0  0  0  0  0  0  0  0  0  0
   32.2027   70.0462   -0.5591 O   0  0  0  0  0  0  0  0  0  0  0  0
   29.8258   70.0537   -1.6623 O   0  0  0  0  0  0  0  0  0  0  0  0
   30.7808   69.5511   -3.7723 O   0  0  0  0  0  0  0  0  0  0  0  0
   27.2125   71.1985   -5.0388 O   0  0  0  0  0  0  0  0  0  0  0  0
   27.6246   68.3652   -5.2625 O   0  0  0  0  0  0  0  0  0  0  0  0
   28.5938   72.3247   -2.7577 O   0  0  0  0  0  0  0  0  0  0  0  0
   28.0652   70.4471   -4.1707 C   0  0  1  0  0  0  0  0  0  0  0  0
   28.6675   69.2916   -4.9725 C   0  0  1  0  0  0  0  0  0  0  0  0
   29.1657   71.3623   -3.6370 C   0  0  2  0  0  0  0  0  0  0  0  0
   29.7929   68.6016   -4.1898 C   0  0  1  0  0  0  0  0  0  0  0  0
   30.2593   70.5707   -2.9177 C   0  0  1  0  0  0  0  0  0  0  0  0
   26.5113   70.6233   -5.3807 H   0  0  0  0  0  0  0  0  0  0  0  0
   26.9202   68.8136   -5.7565 H   0  0  0  0  0  0  0  0  0  0  0  0
   27.9032   72.8194   -3.2249 H   0  0  0  0  0  0  0  0  0  0  0  0
   30.2286   67.7942   -6.3960 O   0  0  0  0  0  0  0  0  0  0  0  0
   30.5126   67.5495   -5.0308 C   0  0  0  0  0  0  0  0  0  0  0  0
   30.6804   67.1323   -6.9432 H   0  0  0  0  0  0  0  0  0  0  0  0
 25 28  1  0
 25 24  1  0
 25 26  1  1
 25 27  2  0
  1  4  1  0
  1 24  1  0
  1  2  1  6
  1  3  2  0
  6 11  1  0
  6 12  1  0
 29 36  1  0
 29 37  1  0
  9  7  1  1
  7 13  1  0
 10  8  1  1
  8 14  1  0
 37 28  1  1
  4  5  1  0
 33 30  1  6
 30 38  1  0
 34 31  1  1
 31 39  1  0
 35 32  1  1
 32 40  1  0
 41 42  1  0
 41 43  1  0
 15 19  2  0
 16 22  2  0
 12 17  1  6
 17 19  1  0
 17 20  1  0
 18 19  1  0
 18 22  1  0
 18 23  1  0
  9 10  1  0
  9 11  1  0
 10 12  1  0
 11  5  1  6
 33 34  1  0
 33 35  1  0
 34 36  1  0
 35 37  1  0
 36 42  1  6
 20 21  2  0
 21 22  1  0
M  CHG  2   2  -1  26  -1
M  END
>  <COMPND>  (115) 
    8629 

>  <AUTHOR>  (115) 
    GENERATED BY OPEN BABEL 3.1.1

>  <MASTER>  (115) 
        0    0    0    0    0    0    0    0   58    0   58    0

>  <minimizedAffinity>  (115) 
-6.27433

>  <CNNscore>  (115) 
0.3695703745

>  <CNNaffinity>  (115) 
3.9461636543

>  <CNN_VS>  (115) 
1.4583852291

>  <CNNaffinity_variance>  (115) 
0.1120865345

$$$$
116
     RDKit          3D

 43 45  0  0  0  0  0  0  0  0999 V2000
   20.2201   72.0305   -7.2640 P   0  0  2  0  0  0  0  0  0  0  0  0
   19.8959   73.5424   -7.7398 O   0  0  0  0  0  0  0  0  0  0  0  0
   21.5545   71.5011   -7.7006 O   0  0  0  0  0  0  0  0  0  0  0  0
   18.9327   71.1836   -7.7571 O   0  0  0  0  0  0  0  0  0  0  0  0
   18.7047   71.0491   -9.1492 C   0  0  0  0  0  0  0  0  0  0  0  0
   16.4597   70.9721   -8.2959 O   0  0  0  0  0  0  0  0  0  0  0  0
   15.6487   70.0655  -11.0365 O   0  0  0  0  0  0  0  0  0  0  0  0
   14.9699   72.7066  -11.0590 O   0  0  0  0  0  0  0  0  0  0  0  0
   16.6561   71.0017  -10.6573 C   0  0  1  0  0  0  0  0  0  0  0  0
   16.0232   72.3022  -10.2082 C   0  0  2  0  0  0  0  0  0  0  0  0
   17.3015   70.5013   -9.3711 C   0  0  1  0  0  0  0  0  0  0  0  0
   15.5436   71.9527   -8.8096 C   0  0  2  0  0  0  0  0  0  0  0  0
   15.2224   70.3637  -11.8559 H   0  0  0  0  0  0  0  0  0  0  0  0
   15.3257   72.9180  -11.9362 H   0  0  0  0  0  0  0  0  0  0  0  0
   13.7399   72.3036   -6.6645 O   0  0  0  0  0  0  0  0  0  0  0  0
   15.6119   76.3546   -5.5129 O   0  0  0  0  0  0  0  0  0  0  0  0
   15.5374   73.0896   -7.9327 N   0  0  0  0  0  0  0  0  0  0  0  0
   14.6736   74.3203   -6.0927 N   0  0  0  0  0  0  0  0  0  0  0  0
   14.5889   73.1693   -6.8865 C   0  0  0  0  0  0  0  0  0  0  0  0
   16.4648   74.1098   -8.1142 C   0  0  0  0  0  0  0  0  0  0  0  0
   16.5315   75.2015   -7.3493 C   0  0  0  0  0  0  0  0  0  0  0  0
   15.5763   75.3623   -6.2340 C   0  0  0  0  0  0  0  0  0  0  0  0
   14.0226   74.3977   -5.3579 H   0  0  0  0  0  0  0  0  0  0  0  0
   20.0161   72.1020   -5.6621 O   0  0  0  0  0  0  0  0  0  0  0  0
   20.6218   71.1896   -4.4731 P   0  0  2  0  0  0  0  0  0  0  0  0
   20.4125   69.6812   -5.0195 O   0  0  0  0  0  0  0  0  0  0  0  0
   20.0124   71.4503   -3.1260 O   0  0  0  0  0  0  0  0  0  0  0  0
   22.2160   71.4314   -4.5442 O   0  0  0  0  0  0  0  0  0  0  0  0
   23.8033   72.1552   -2.9401 O   0  0  0  0  0  0  0  0  0  0  0  0
   25.2023   74.2202   -6.2309 O   0  0  0  0  0  0  0  0  0  0  0  0
   26.6756   71.9618   -5.2425 O   0  0  0  0  0  0  0  0  0  0  0  0
   22.3526   73.9314   -5.8117 O   0  0  0  0  0  0  0  0  0  0  0  0
   24.6040   73.1195   -5.5410 C   0  0  1  0  0  0  0  0  0  0  0  0
   25.6143   72.5846   -4.5242 C   0  0  1  0  0  0  0  0  0  0  0  0
   23.3365   73.6008   -4.8374 C   0  0  2  0  0  0  0  0  0  0  0  0
   24.9577   71.5823   -3.5654 C   0  0  1  0  0  0  0  0  0  0  0  0
   22.7924   72.5474   -3.8707 C   0  0  1  0  0  0  0  0  0  0  0  0
   26.0074   73.9212   -6.6802 H   0  0  0  0  0  0  0  0  0  0  0  0
   27.0815   72.6053   -5.8446 H   0  0  0  0  0  0  0  0  0  0  0  0
   22.7091   74.5992   -6.4173 H   0  0  0  0  0  0  0  0  0  0  0  0
   26.8295   70.2209   -2.9725 O   0  0  0  0  0  0  0  0  0  0  0  0
   25.9055   71.1558   -2.4466 C   0  0  0  0  0  0  0  0  0  0  0  0
   27.4394   69.9408   -2.2716 H   0  0  0  0  0  0  0  0  0  0  0  0
 25 28  1  0
 25 24  1  0
 25 26  1  6
 25 27  2  0
  1  4  1  0
  1 24  1  0
  1  2  1  6
  1  3  2  0
  6 11  1  0
  6 12  1  0
 29 36  1  0
 29 37  1  0
  9  7  1  1
  7 13  1  0
 10  8  1  6
  8 14  1  0
 37 28  1  6
  4  5  1  0
 33 30  1  1
 30 38  1  0
 34 31  1  6
 31 39  1  0
 35 32  1  6
 32 40  1  0
 41 42  1  0
 41 43  1  0
 15 19  2  0
 16 22  2  0
 12 17  1  1
 17 19  1  0
 17 20  1  0
 18 19  1  0
 18 22  1  0
 18 23  1  0
  9 10  1  0
  9 11  1  0
 10 12  1  0
 11  5  1  1
 33 34  1  0
 33 35  1  0
 34 36  1  0
 35 37  1  0
 36 42  1  1
 20 21  2  0
 21 22  1  0
M  CHG  2   2  -1  26  -1
M  END
>  <COMPND>  (116) 
    8629 

>  <AUTHOR>  (116) 
    GENERATED BY OPEN BABEL 3.1.1

>  <MASTER>  (116) 
        0    0    0    0    0    0    0    0   58    0   58    0

>  <minimizedAffinity>  (116) 
-6.08828

>  <CNNscore>  (116) 
0.3649877310

>  <CNNaffinity>  (116) 
4.1486783028

>  <CNN_VS>  (116) 
1.5142166615

>  <CNNaffinity_variance>  (116) 
0.0466445573

$$$$
117
     RDKit          3D

 43 45  0  0  0  0  0  0  0  0999 V2000
   22.5143   72.4317   -4.7927 P   0  0  2  0  0  0  0  0  0  0  0  0
   23.6922   72.8010   -5.8384 O   0  0  0  0  0  0  0  0  0  0  0  0
   21.9732   73.5929   -4.0115 O   0  0  0  0  0  0  0  0  0  0  0  0
   23.1386   71.2242   -3.9151 O   0  0  0  0  0  0  0  0  0  0  0  0
   24.4738   70.8237   -4.1693 C   0  0  0  0  0  0  0  0  0  0  0  0
   26.3503   70.1128   -2.8476 O   0  0  0  0  0  0  0  0  0  0  0  0
   26.3536   72.8833   -1.7009 O   0  0  0  0  0  0  0  0  0  0  0  0
   28.3754   72.9937   -3.5276 O   0  0  0  0  0  0  0  0  0  0  0  0
   26.0568   72.4572   -3.0297 C   0  0  1  0  0  0  0  0  0  0  0  0
   27.3293   72.0713   -3.7546 C   0  0  2  0  0  0  0  0  0  0  0  0
   25.3237   71.1244   -2.9424 C   0  0  1  0  0  0  0  0  0  0  0  0
   27.6217   70.7000   -3.1696 C   0  0  2  0  0  0  0  0  0  0  0  0
   26.8217   73.7329   -1.7309 H   0  0  0  0  0  0  0  0  0  0  0  0
   28.1419   73.8502   -3.9184 H   0  0  0  0  0  0  0  0  0  0  0  0
   29.6688   68.8908   -2.4526 O   0  0  0  0  0  0  0  0  0  0  0  0
   30.1897   67.4704   -6.8060 O   0  0  0  0  0  0  0  0  0  0  0  0
   28.3093   69.8448   -4.0954 N   0  0  0  0  0  0  0  0  0  0  0  0
   29.9264   68.1849   -4.6208 N   0  0  0  0  0  0  0  0  0  0  0  0
   29.3228   68.9733   -3.6329 C   0  0  0  0  0  0  0  0  0  0  0  0
   27.9767   69.8754   -5.4453 C   0  0  0  0  0  0  0  0  0  0  0  0
   28.5627   69.1180   -6.3749 C   0  0  0  0  0  0  0  0  0  0  0  0
   29.6316   68.1801   -5.9750 C   0  0  0  0  0  0  0  0  0  0  0  0
   30.6355   67.5703   -4.3220 H   0  0  0  0  0  0  0  0  0  0  0  0
   21.4258   71.6803   -5.7220 O   0  0  0  0  0  0  0  0  0  0  0  0
   20.9210   71.9884   -7.2264 P   0  0  2  0  0  0  0  0  0  0  0  0
   21.9509   71.1426   -8.1438 O   0  0  0  0  0  0  0  0  0  0  0  0
   20.8476   73.4495   -7.5637 O   0  0  0  0  0  0  0  0  0  0  0  0
   19.5183   71.2007   -7.3560 O   0  0  0  0  0  0  0  0  0  0  0  0
   17.6866   72.6205   -7.8516 O   0  0  0  0  0  0  0  0  0  0  0  0
   15.6133   69.1871   -6.8699 O   0  0  0  0  0  0  0  0  0  0  0  0
   15.7536   70.0231   -9.6139 O   0  0  0  0  0  0  0  0  0  0  0  0
   17.9905   69.9124   -5.3859 O   0  0  0  0  0  0  0  0  0  0  0  0
   16.6967   69.9433   -7.4173 C   0  0  1  0  0  0  0  0  0  0  0  0
   16.1415   70.8483   -8.5189 C   0  0  1  0  0  0  0  0  0  0  0  0
   17.3346   70.7768   -6.3074 C   0  0  2  0  0  0  0  0  0  0  0  0
   17.1868   71.8776   -8.9696 C   0  0  1  0  0  0  0  0  0  0  0  0
   18.3220   71.8021   -6.8675 C   0  0  1  0  0  0  0  0  0  0  0  0
   15.2042   68.6552   -7.5694 H   0  0  0  0  0  0  0  0  0  0  0  0
   15.0937   69.3774   -9.3158 H   0  0  0  0  0  0  0  0  0  0  0  0
   17.3548   69.2683   -5.0383 H   0  0  0  0  0  0  0  0  0  0  0  0
   16.4925   72.2704  -11.2218 O   0  0  0  0  0  0  0  0  0  0  0  0
   16.6052   72.8900   -9.9538 C   0  0  0  0  0  0  0  0  0  0  0  0
   16.1233   72.9030  -11.8584 H   0  0  0  0  0  0  0  0  0  0  0  0
 25 28  1  0
 25 24  1  0
 25 26  1  6
 25 27  2  0
  1  4  1  0
  1 24  1  0
  1  2  1  6
  1  3  2  0
  6 11  1  0
  6 12  1  0
 29 36  1  0
 29 37  1  0
  9  7  1  1
  7 13  1  0
 10  8  1  1
  8 14  1  0
 37 28  1  6
  4  5  1  0
 33 30  1  1
 30 38  1  0
 34 31  1  6
 31 39  1  0
 35 32  1  1
 32 40  1  0
 41 42  1  0
 41 43  1  0
 15 19  2  0
 16 22  2  0
 12 17  1  6
 17 19  1  0
 17 20  1  0
 18 19  1  0
 18 22  1  0
 18 23  1  0
  9 10  1  0
  9 11  1  0
 10 12  1  0
 11  5  1  6
 33 34  1  0
 33 35  1  0
 34 36  1  0
 35 37  1  0
 36 42  1  6
 20 21  2  0
 21 22  1  0
M  CHG  2   2  -1  26  -1
M  END
>  <COMPND>  (117) 
    8629 

>  <AUTHOR>  (117) 
    GENERATED BY OPEN BABEL 3.1.1

>  <MASTER>  (117) 
        0    0    0    0    0    0    0    0   58    0   58    0

>  <minimizedAffinity>  (117) 
-7.41730

>  <CNNscore>  (117) 
0.3509631753

>  <CNNaffinity>  (117) 
4.2198100090

>  <CNN_VS>  (117) 
1.4809979200

>  <CNNaffinity_variance>  (117) 
0.0293537918

$$$$
118
     RDKit          3D

 43 45  0  0  0  0  0  0  0  0999 V2000
   20.8759   71.8409   -7.2834 P   0  0  2  0  0  0  0  0  0  0  0  0
   20.7520   73.3504   -7.8521 O   0  0  0  0  0  0  0  0  0  0  0  0
   22.1921   71.1703   -7.5470 O   0  0  0  0  0  0  0  0  0  0  0  0
   19.5732   71.0917   -7.8830 O   0  0  0  0  0  0  0  0  0  0  0  0
   19.0986   71.4794   -9.1606 C   0  0  0  0  0  0  0  0  0  0  0  0
   17.5734   69.7840   -8.4035 O   0  0  0  0  0  0  0  0  0  0  0  0
   15.9059   70.4797  -10.7964 O   0  0  0  0  0  0  0  0  0  0  0  0
   14.6147   71.7767   -8.7748 O   0  0  0  0  0  0  0  0  0  0  0  0
   16.6888   71.3332   -9.9634 C   0  0  1  0  0  0  0  0  0  0  0  0
   16.0007   71.5423   -8.6306 C   0  0  2  0  0  0  0  0  0  0  0  0
   17.9435   70.5702   -9.5573 C   0  0  1  0  0  0  0  0  0  0  0  0
   16.3014   70.2376   -7.9126 C   0  0  2  0  0  0  0  0  0  0  0  0
   15.0992   70.9454  -11.0688 H   0  0  0  0  0  0  0  0  0  0  0  0
   14.4752   72.6179   -9.2372 H   0  0  0  0  0  0  0  0  0  0  0  0
   15.5987   68.2494   -6.0334 O   0  0  0  0  0  0  0  0  0  0  0  0
   16.6531   70.9813   -2.4745 O   0  0  0  0  0  0  0  0  0  0  0  0
   16.3828   70.4023   -6.4886 N   0  0  0  0  0  0  0  0  0  0  0  0
   16.1244   69.6113   -4.2629 N   0  0  0  0  0  0  0  0  0  0  0  0
   16.0049   69.3420   -5.6323 C   0  0  0  0  0  0  0  0  0  0  0  0
   16.8338   71.6046   -5.9547 C   0  0  0  0  0  0  0  0  0  0  0  0
   16.9407   71.8459   -4.6465 C   0  0  0  0  0  0  0  0  0  0  0  0
   16.5661   70.7902   -3.6835 C   0  0  0  0  0  0  0  0  0  0  0  0
   15.8664   68.8873   -3.6472 H   0  0  0  0  0  0  0  0  0  0  0  0
   20.5091   72.0109   -5.7183 O   0  0  0  0  0  0  0  0  0  0  0  0
   20.8968   71.1102   -4.4332 P   0  0  2  0  0  0  0  0  0  0  0  0
   20.7446   69.5959   -4.9819 O   0  0  0  0  0  0  0  0  0  0  0  0
   20.0858   71.4085   -3.2055 O   0  0  0  0  0  0  0  0  0  0  0  0
   22.4867   71.3203   -4.2518 O   0  0  0  0  0  0  0  0  0  0  0  0
   23.1393   72.6907   -2.4317 O   0  0  0  0  0  0  0  0  0  0  0  0
   26.6920   72.6526   -4.5358 O   0  0  0  0  0  0  0  0  0  0  0  0
   26.4794   71.1701   -2.0853 O   0  0  0  0  0  0  0  0  0  0  0  0
   24.1733   72.7771   -5.9572 O   0  0  0  0  0  0  0  0  0  0  0  0
   25.4665   72.1086   -4.0383 C   0  0  1  0  0  0  0  0  0  0  0  0
   25.5173   72.1318   -2.5093 C   0  0  1  0  0  0  0  0  0  0  0  0
   24.3012   72.9532   -4.5504 C   0  0  2  0  0  0  0  0  0  0  0  0
   24.1429   71.8152   -1.9045 C   0  0  1  0  0  0  0  0  0  0  0  0
   22.9905   72.5913   -3.8494 C   0  0  1  0  0  0  0  0  0  0  0  0
   27.4359   72.1206   -4.2147 H   0  0  0  0  0  0  0  0  0  0  0  0
   27.3426   71.3812   -2.4746 H   0  0  0  0  0  0  0  0  0  0  0  0
   25.0094   73.0097   -6.3893 H   0  0  0  0  0  0  0  0  0  0  0  0
   22.8815   71.5449    0.1066 O   0  0  0  0  0  0  0  0  0  0  0  0
   24.1324   71.9871   -0.3871 C   0  0  0  0  0  0  0  0  0  0  0  0
   22.8605   71.6481    1.0713 H   0  0  0  0  0  0  0  0  0  0  0  0
 25 28  1  0
 25 24  1  0
 25 26  1  6
 25 27  2  0
  1  4  1  0
  1 24  1  0
  1  2  1  6
  1  3  2  0
  6 11  1  0
  6 12  1  0
 29 36  1  0
 29 37  1  0
  9  7  1  6
  7 13  1  0
 10  8  1  6
  8 14  1  0
 37 28  1  1
  4  5  1  0
 33 30  1  6
 30 38  1  0
 34 31  1  1
 31 39  1  0
 35 32  1  6
 32 40  1  0
 41 42  1  0
 41 43  1  0
 15 19  2  0
 16 22  2  0
 12 17  1  1
 17 19  1  0
 17 20  1  0
 18 19  1  0
 18 22  1  0
 18 23  1  0
  9 10  1  0
  9 11  1  0
 10 12  1  0
 11  5  1  1
 33 34  1  0
 33 35  1  0
 34 36  1  0
 35 37  1  0
 36 42  1  1
 20 21  2  0
 21 22  1  0
M  CHG  2   2  -1  26  -1
M  END
>  <COMPND>  (118) 
    8629 

>  <AUTHOR>  (118) 
    GENERATED BY OPEN BABEL 3.1.1

>  <MASTER>  (118) 
        0    0    0    0    0    0    0    0   58    0   58    0

>  <minimizedAffinity>  (118) 
-6.37822

>  <CNNscore>  (118) 
0.3436205685

>  <CNNaffinity>  (118) 
4.0997138023

>  <CNN_VS>  (118) 
1.4087460041

>  <CNNaffinity_variance>  (118) 
0.2585083544

$$$$
119
     RDKit          3D

 43 45  0  0  0  0  0  0  0  0999 V2000
   23.1664   72.1805   -4.5178 P   0  0  2  0  0  0  0  0  0  0  0  0
   24.0386   72.6514   -5.7964 O   0  0  0  0  0  0  0  0  0  0  0  0
   22.7235   73.2898   -3.6096 O   0  0  0  0  0  0  0  0  0  0  0  0
   24.0735   71.0301   -3.8312 O   0  0  0  0  0  0  0  0  0  0  0  0
   25.3756   70.8015   -4.3412 C   0  0  0  0  0  0  0  0  0  0  0  0
   27.0435   69.5110   -3.1895 O   0  0  0  0  0  0  0  0  0  0  0  0
   27.9671   72.1070   -2.0070 O   0  0  0  0  0  0  0  0  0  0  0  0
   29.7863   71.6778   -3.9927 O   0  0  0  0  0  0  0  0  0  0  0  0
   27.4577   71.8410   -3.3127 C   0  0  1  0  0  0  0  0  0  0  0  0
   28.4969   71.1203   -4.1458 C   0  0  2  0  0  0  0  0  0  0  0  0
   26.3656   70.7864   -3.1845 C   0  0  1  0  0  0  0  0  0  0  0  0
   28.4051   69.7028   -3.6069 C   0  0  2  0  0  0  0  0  0  0  0  0
   28.6660   72.7781   -2.0632 H   0  0  0  0  0  0  0  0  0  0  0  0
   29.7934   72.5793   -4.3504 H   0  0  0  0  0  0  0  0  0  0  0  0
   31.0172   68.7559   -4.1152 O   0  0  0  0  0  0  0  0  0  0  0  0
   29.5409   65.9227   -7.4370 O   0  0  0  0  0  0  0  0  0  0  0  0
   28.7320   68.7175   -4.5987 N   0  0  0  0  0  0  0  0  0  0  0  0
   30.2799   67.3458   -5.7687 N   0  0  0  0  0  0  0  0  0  0  0  0
   30.0754   68.3115   -4.7748 C   0  0  0  0  0  0  0  0  0  0  0  0
   27.7263   68.1643   -5.3838 C   0  0  0  0  0  0  0  0  0  0  0  0
   27.9381   67.2453   -6.3282 C   0  0  0  0  0  0  0  0  0  0  0  0
   29.3135   66.7668   -6.5758 C   0  0  0  0  0  0  0  0  0  0  0  0
   31.2080   67.0480   -5.9095 H   0  0  0  0  0  0  0  0  0  0  0  0
   21.9607   71.3395   -5.1901 O   0  0  0  0  0  0  0  0  0  0  0  0
   20.8835   70.3242   -4.5406 P   0  0  2  0  0  0  0  0  0  0  0  0
   20.2412   71.1877   -3.3326 O   0  0  0  0  0  0  0  0  0  0  0  0
   21.4592   69.0031   -4.1195 O   0  0  0  0  0  0  0  0  0  0  0  0
   19.7056   70.2208   -5.6391 O   0  0  0  0  0  0  0  0  0  0  0  0
   18.9416   71.9245   -7.0987 O   0  0  0  0  0  0  0  0  0  0  0  0
   15.3866   69.9034   -6.5256 O   0  0  0  0  0  0  0  0  0  0  0  0
   16.7450   69.6960   -9.0475 O   0  0  0  0  0  0  0  0  0  0  0  0
   17.2295   70.2378   -4.3185 O   0  0  0  0  0  0  0  0  0  0  0  0
   16.8027   70.0309   -6.6799 C   0  0  1  0  0  0  0  0  0  0  0  0
   17.0817   70.6548   -8.0487 C   0  0  1  0  0  0  0  0  0  0  0  0
   17.3486   70.9185   -5.5630 C   0  0  2  0  0  0  0  0  0  0  0  0
   18.5539   71.0681   -8.1794 C   0  0  1  0  0  0  0  0  0  0  0  0
   18.8053   71.3117   -5.8150 C   0  0  1  0  0  0  0  0  0  0  0  0
   15.0337   69.3406   -7.2314 H   0  0  0  0  0  0  0  0  0  0  0  0
   15.8131   69.4432   -8.9535 H   0  0  0  0  0  0  0  0  0  0  0  0
   16.3028   69.9946   -4.1705 H   0  0  0  0  0  0  0  0  0  0  0  0
   19.0845   70.8993  -10.5030 O   0  0  0  0  0  0  0  0  0  0  0  0
   18.8201   71.8343   -9.4733 C   0  0  0  0  0  0  0  0  0  0  0  0
   19.2555   71.3727  -11.3327 H   0  0  0  0  0  0  0  0  0  0  0  0
 25 28  1  0
 25 24  1  0
 25 26  1  1
 25 27  2  0
  1  4  1  0
  1 24  1  0
  1  2  1  6
  1  3  2  0
  6 11  1  0
  6 12  1  0
 29 36  1  0
 29 37  1  0
  9  7  1  1
  7 13  1  0
 10  8  1  1
  8 14  1  0
 37 28  1  6
  4  5  1  0
 33 30  1  1
 30 38  1  0
 34 31  1  6
 31 39  1  0
 35 32  1  1
 32 40  1  0
 41 42  1  0
 41 43  1  0
 15 19  2  0
 16 22  2  0
 12 17  1  6
 17 19  1  0
 17 20  1  0
 18 19  1  0
 18 22  1  0
 18 23  1  0
  9 10  1  0
  9 11  1  0
 10 12  1  0
 11  5  1  6
 33 34  1  0
 33 35  1  0
 34 36  1  0
 35 37  1  0
 36 42  1  6
 20 21  2  0
 21 22  1  0
M  CHG  2   2  -1  26  -1
M  END
>  <COMPND>  (119) 
    8629 

>  <AUTHOR>  (119) 
    GENERATED BY OPEN BABEL 3.1.1

>  <MASTER>  (119) 
        0    0    0    0    0    0    0    0   58    0   58    0

>  <minimizedAffinity>  (119) 
-7.42480

>  <CNNscore>  (119) 
0.3241131008

>  <CNNaffinity>  (119) 
4.3411574364

>  <CNN_VS>  (119) 
1.4070260525

>  <CNNaffinity_variance>  (119) 
0.0451446399

$$$$
120
     RDKit          3D

 43 45  0  0  0  0  0  0  0  0999 V2000
   24.6868   75.2029   -3.3368 P   0  0  2  0  0  0  0  0  0  0  0  0
   25.9023   76.2635   -3.4608 O   0  0  0  0  0  0  0  0  0  0  0  0
   23.4974   75.4980   -4.2026 O   0  0  0  0  0  0  0  0  0  0  0  0
   24.3972   75.1284   -1.7467 O   0  0  0  0  0  0  0  0  0  0  0  0
   24.8130   73.9745   -1.0371 C   0  0  0  0  0  0  0  0  0  0  0  0
   24.0771   71.8484   -0.1932 O   0  0  0  0  0  0  0  0  0  0  0  0
   21.3059   72.9915   -0.2604 O   0  0  0  0  0  0  0  0  0  0  0  0
   21.9696   73.1965    2.3766 O   0  0  0  0  0  0  0  0  0  0  0  0
   22.5398   73.6348    0.0541 C   0  0  1  0  0  0  0  0  0  0  0  0
   23.0171   73.2136    1.4283 C   0  0  2  0  0  0  0  0  0  0  0  0
   23.6178   73.0500   -0.8500 C   0  0  1  0  0  0  0  0  0  0  0  0
   23.5813   71.8297    1.1554 C   0  0  2  0  0  0  0  0  0  0  0  0
   20.6021   73.3488    0.3042 H   0  0  0  0  0  0  0  0  0  0  0  0
   21.6445   74.0996    2.5159 H   0  0  0  0  0  0  0  0  0  0  0  0
   23.2414   70.6519    3.7000 O   0  0  0  0  0  0  0  0  0  0  0  0
   27.7838   70.5802    4.4761 O   0  0  0  0  0  0  0  0  0  0  0  0
   24.6579   71.4922    2.0434 N   0  0  0  0  0  0  0  0  0  0  0  0
   25.5034   70.6170    4.0843 N   0  0  0  0  0  0  0  0  0  0  0  0
   24.3795   70.9050    3.2996 C   0  0  0  0  0  0  0  0  0  0  0  0
   25.9724   71.7434    1.6656 C   0  0  0  0  0  0  0  0  0  0  0  0
   27.0330   71.4639    2.4260 C   0  0  0  0  0  0  0  0  0  0  0  0
   26.8291   70.8490    3.7535 C   0  0  0  0  0  0  0  0  0  0  0  0
   25.3338   70.2079    4.9639 H   0  0  0  0  0  0  0  0  0  0  0  0
   25.4065   73.7880   -3.6417 O   0  0  0  0  0  0  0  0  0  0  0  0
   25.1049   72.6636   -4.7632 P   0  0  2  0  0  0  0  0  0  0  0  0
   25.2394   73.4805   -6.1532 O   0  0  0  0  0  0  0  0  0  0  0  0
   23.7937   71.9541   -4.5862 O   0  0  0  0  0  0  0  0  0  0  0  0
   26.3977   71.6978   -4.7313 O   0  0  0  0  0  0  0  0  0  0  0  0
   26.7707   69.7294   -3.4652 O   0  0  0  0  0  0  0  0  0  0  0  0
   30.6088   71.2526   -3.4630 O   0  0  0  0  0  0  0  0  0  0  0  0
   29.9997   68.9457   -5.0616 O   0  0  0  0  0  0  0  0  0  0  0  0
   28.3453   73.0410   -3.2222 O   0  0  0  0  0  0  0  0  0  0  0  0
   29.3150   70.9813   -4.0088 C   0  0  1  0  0  0  0  0  0  0  0  0
   29.1258   69.4640   -4.0627 C   0  0  1  0  0  0  0  0  0  0  0  0
   28.2529   71.6243   -3.1188 C   0  0  2  0  0  0  0  0  0  0  0  0
   27.6704   69.0983   -4.3840 C   0  0  1  0  0  0  0  0  0  0  0  0
   26.8450   71.1562   -3.4912 C   0  0  1  0  0  0  0  0  0  0  0  0
   31.2877   70.8475   -4.0237 H   0  0  0  0  0  0  0  0  0  0  0  0
   30.9154   69.1841   -4.8471 H   0  0  0  0  0  0  0  0  0  0  0  0
   29.2411   73.3248   -2.9836 H   0  0  0  0  0  0  0  0  0  0  0  0
   26.9425   67.3001   -2.9892 O   0  0  0  0  0  0  0  0  0  0  0  0
   27.4240   67.5943   -4.2876 C   0  0  0  0  0  0  0  0  0  0  0  0
   26.7809   66.3462   -2.9134 H   0  0  0  0  0  0  0  0  0  0  0  0
 25 28  1  0
 25 24  1  0
 25 26  1  6
 25 27  2  0
  1  4  1  0
  1 24  1  0
  1  2  1  1
  1  3  2  0
  6 11  1  0
  6 12  1  0
 29 36  1  0
 29 37  1  0
  9  7  1  6
  7 13  1  0
 10  8  1  1
  8 14  1  0
 37 28  1  6
  4  5  1  0
 33 30  1  1
 30 38  1  0
 34 31  1  6
 31 39  1  0
 35 32  1  6
 32 40  1  0
 41 42  1  0
 41 43  1  0
 15 19  2  0
 16 22  2  0
 12 17  1  1
 17 19  1  0
 17 20  1  0
 18 19  1  0
 18 22  1  0
 18 23  1  0
  9 10  1  0
  9 11  1  0
 10 12  1  0
 11  5  1  1
 33 34  1  0
 33 35  1  0
 34 36  1  0
 35 37  1  0
 36 42  1  1
 20 21  2  0
 21 22  1  0
M  CHG  2   2  -1  26  -1
M  END
>  <COMPND>  (120) 
    8629 

>  <AUTHOR>  (120) 
    GENERATED BY OPEN BABEL 3.1.1

>  <MASTER>  (120) 
        0    0    0    0    0    0    0    0   58    0   58    0

>  <minimizedAffinity>  (120) 
-6.79565

>  <CNNscore>  (120) 
0.2985065281

>  <CNNaffinity>  (120) 
3.5952103138

>  <CNN_VS>  (120) 
1.0731937885

>  <CNNaffinity_variance>  (120) 
0.4857327342

$$$$
121
     RDKit          3D

 43 45  0  0  0  0  0  0  0  0999 V2000
   24.5158   72.9490   -4.6574 P   0  0  2  0  0  0  0  0  0  0  0  0
   23.4145   72.6068   -5.7921 O   0  0  0  0  0  0  0  0  0  0  0  0
   25.4116   74.1105   -4.9735 O   0  0  0  0  0  0  0  0  0  0  0  0
   25.2613   71.5361   -4.4011 O   0  0  0  0  0  0  0  0  0  0  0  0
   26.6691   71.4774   -4.5512 C   0  0  0  0  0  0  0  0  0  0  0  0
   27.5640   69.5916   -3.3610 O   0  0  0  0  0  0  0  0  0  0  0  0
   28.8384   71.5919   -1.5264 O   0  0  0  0  0  0  0  0  0  0  0  0
   30.9101   70.8643   -3.1436 O   0  0  0  0  0  0  0  0  0  0  0  0
   28.6248   71.6675   -2.9349 C   0  0  1  0  0  0  0  0  0  0  0  0
   29.5998   70.7666   -3.6637 C   0  0  2  0  0  0  0  0  0  0  0  0
   27.2880   71.0045   -3.2430 C   0  0  1  0  0  0  0  0  0  0  0  0
   28.9849   69.3946   -3.4453 C   0  0  2  0  0  0  0  0  0  0  0  0
   29.6863   72.0093   -1.3053 H   0  0  0  0  0  0  0  0  0  0  0  0
   31.2575   71.7549   -3.3073 H   0  0  0  0  0  0  0  0  0  0  0  0
   31.2036   67.6484   -3.5245 O   0  0  0  0  0  0  0  0  0  0  0  0
   29.9674   65.9694   -7.6347 O   0  0  0  0  0  0  0  0  0  0  0  0
   29.2670   68.4899   -4.5239 N   0  0  0  0  0  0  0  0  0  0  0  0
   30.5862   66.8137   -5.5709 N   0  0  0  0  0  0  0  0  0  0  0  0
   30.4081   67.6562   -4.4662 C   0  0  0  0  0  0  0  0  0  0  0  0
   28.4169   68.4355   -5.6231 C   0  0  0  0  0  0  0  0  0  0  0  0
   28.6015   67.6275   -6.6691 C   0  0  0  0  0  0  0  0  0  0  0  0
   29.7701   66.7241   -6.6875 C   0  0  0  0  0  0  0  0  0  0  0  0
   31.3747   66.2240   -5.5530 H   0  0  0  0  0  0  0  0  0  0  0  0
   23.6195   73.1339   -3.3250 O   0  0  0  0  0  0  0  0  0  0  0  0
   23.3174   72.1232   -2.1001 P   0  0  2  0  0  0  0  0  0  0  0  0
   24.7672   71.9371   -1.4065 O   0  0  0  0  0  0  0  0  0  0  0  0
   22.6579   70.8385   -2.5107 O   0  0  0  0  0  0  0  0  0  0  0  0
   22.4703   73.0023   -1.0444 O   0  0  0  0  0  0  0  0  0  0  0  0
   22.2514   71.4841    0.7621 O   0  0  0  0  0  0  0  0  0  0  0  0
   20.5934   74.8363    2.5128 O   0  0  0  0  0  0  0  0  0  0  0  0
   23.1929   73.9417    3.3434 O   0  0  0  0  0  0  0  0  0  0  0  0
   20.0830   74.2628   -0.2783 O   0  0  0  0  0  0  0  0  0  0  0  0
   21.4969   74.1202    1.6664 C   0  0  1  0  0  0  0  0  0  0  0  0
   22.3131   73.1630    2.5373 C   0  0  1  0  0  0  0  0  0  0  0  0
   20.6949   73.3457    0.6222 C   0  0  2  0  0  0  0  0  0  0  0  0
   23.1112   72.1748    1.6762 C   0  0  1  0  0  0  0  0  0  0  0  0
   21.5737   72.3559   -0.1448 C   0  0  1  0  0  0  0  0  0  0  0  0
   21.0962   75.3306    3.1778 H   0  0  0  0  0  0  0  0  0  0  0  0
   22.6764   74.5618    3.8818 H   0  0  0  0  0  0  0  0  0  0  0  0
   19.5292   74.8837    0.2194 H   0  0  0  0  0  0  0  0  0  0  0  0
   23.1483   71.0290    3.7726 O   0  0  0  0  0  0  0  0  0  0  0  0
   23.8081   71.1119    2.5228 C   0  0  0  0  0  0  0  0  0  0  0  0
   23.5809   70.3561    4.3220 H   0  0  0  0  0  0  0  0  0  0  0  0
 25 28  1  0
 25 24  1  0
 25 26  1  1
 25 27  2  0
  1  4  1  0
  1 24  1  0
  1  2  1  6
  1  3  2  0
  6 11  1  0
  6 12  1  0
 29 36  1  0
 29 37  1  0
  9  7  1  1
  7 13  1  0
 10  8  1  1
  8 14  1  0
 37 28  1  1
  4  5  1  0
 33 30  1  1
 30 38  1  0
 34 31  1  6
 31 39  1  0
 35 32  1  6
 32 40  1  0
 41 42  1  0
 41 43  1  0
 15 19  2  0
 16 22  2  0
 12 17  1  6
 17 19  1  0
 17 20  1  0
 18 19  1  0
 18 22  1  0
 18 23  1  0
  9 10  1  0
  9 11  1  0
 10 12  1  0
 11  5  1  6
 33 34  1  0
 33 35  1  0
 34 36  1  0
 35 37  1  0
 36 42  1  1
 20 21  2  0
 21 22  1  0
M  CHG  2   2  -1  26  -1
M  END
>  <COMPND>  (121) 
    8629 

>  <AUTHOR>  (121) 
    GENERATED BY OPEN BABEL 3.1.1

>  <MASTER>  (121) 
        0    0    0    0    0    0    0    0   58    0   58    0

>  <minimizedAffinity>  (121) 
-6.73199

>  <CNNscore>  (121) 
0.6948531866

>  <CNNaffinity>  (121) 
4.5977392197

>  <CNN_VS>  (121) 
3.1947536469

>  <CNNaffinity_variance>  (121) 
0.1331328899

$$$$
122
     RDKit          3D

 43 45  0  0  0  0  0  0  0  0999 V2000
   24.7652   73.5498   -2.7773 P   0  0  2  0  0  0  0  0  0  0  0  0
   24.2583   72.0764   -3.2127 O   0  0  0  0  0  0  0  0  0  0  0  0
   23.9301   74.6851   -3.2920 O   0  0  0  0  0  0  0  0  0  0  0  0
   26.3231   73.5693   -3.2137 O   0  0  0  0  0  0  0  0  0  0  0  0
   26.8756   72.4036   -3.8002 C   0  0  0  0  0  0  0  0  0  0  0  0
   27.3570   70.2200   -2.9206 O   0  0  0  0  0  0  0  0  0  0  0  0
   29.7124   71.4896   -1.5673 O   0  0  0  0  0  0  0  0  0  0  0  0
   30.8513   70.2749   -3.7269 O   0  0  0  0  0  0  0  0  0  0  0  0
   29.1479   71.7702   -2.8471 C   0  0  1  0  0  0  0  0  0  0  0  0
   29.4989   70.6717   -3.8289 C   0  0  2  0  0  0  0  0  0  0  0  0
   27.6354   71.6251   -2.7349 C   0  0  1  0  0  0  0  0  0  0  0  0
   28.5342   69.5693   -3.4264 C   0  0  2  0  0  0  0  0  0  0  0  0
   30.6779   71.5762   -1.6139 H   0  0  0  0  0  0  0  0  0  0  0  0
   31.4251   71.0100   -3.9936 H   0  0  0  0  0  0  0  0  0  0  0  0
   26.7438   67.3915   -3.2543 O   0  0  0  0  0  0  0  0  0  0  0  0
   27.1944   66.4302   -7.7392 O   0  0  0  0  0  0  0  0  0  0  0  0
   28.1654   68.7330   -4.5336 N   0  0  0  0  0  0  0  0  0  0  0  0
   26.9695   66.9147   -5.4876 N   0  0  0  0  0  0  0  0  0  0  0  0
   27.2588   67.6646   -4.3405 C   0  0  0  0  0  0  0  0  0  0  0  0
   28.7005   68.9760   -5.7940 C   0  0  0  0  0  0  0  0  0  0  0  0
   28.4153   68.2507   -6.8774 C   0  0  0  0  0  0  0  0  0  0  0  0
   27.4767   67.1160   -6.7615 C   0  0  0  0  0  0  0  0  0  0  0  0
   26.3406   66.1650   -5.3770 H   0  0  0  0  0  0  0  0  0  0  0  0
   24.8406   73.4467   -1.1659 O   0  0  0  0  0  0  0  0  0  0  0  0
   23.6936   73.6012   -0.0374 P   0  0  2  0  0  0  0  0  0  0  0  0
   22.6293   72.4475   -0.4298 O   0  0  0  0  0  0  0  0  0  0  0  0
   23.1059   74.9793    0.0579 O   0  0  0  0  0  0  0  0  0  0  0  0
   24.3844   73.0730    1.3223 O   0  0  0  0  0  0  0  0  0  0  0  0
   25.8136   71.1941    1.5307 O   0  0  0  0  0  0  0  0  0  0  0  0
   24.0871   71.1292    5.2812 O   0  0  0  0  0  0  0  0  0  0  0  0
   26.8216   71.9585    4.9932 O   0  0  0  0  0  0  0  0  0  0  0  0
   22.4892   71.8177    2.9677 O   0  0  0  0  0  0  0  0  0  0  0  0
   24.6138   71.7390    4.0997 C   0  0  1  0  0  0  0  0  0  0  0  0
   26.0789   71.3220    3.9570 C   0  0  1  0  0  0  0  0  0  0  0  0
   23.8020   71.2724    2.8927 C   0  0  2  0  0  0  0  0  0  0  0  0
   26.6354   71.7151    2.5819 C   0  0  1  0  0  0  0  0  0  0  0  0
   24.4680   71.6729    1.5751 C   0  0  1  0  0  0  0  0  0  0  0  0
   24.5978   71.4217    6.0513 H   0  0  0  0  0  0  0  0  0  0  0  0
   26.4598   71.7023    5.8561 H   0  0  0  0  0  0  0  0  0  0  0  0
   22.0782   71.5568    3.8061 H   0  0  0  0  0  0  0  0  0  0  0  0
   28.3035   71.1525    0.9665 O   0  0  0  0  0  0  0  0  0  0  0  0
   28.0444   71.1704    2.3582 C   0  0  0  0  0  0  0  0  0  0  0  0
   29.1971   70.8083    0.8090 H   0  0  0  0  0  0  0  0  0  0  0  0
 25 28  1  0
 25 24  1  0
 25 26  1  6
 25 27  2  0
  1  4  1  0
  1 24  1  0
  1  2  1  6
  1  3  2  0
  6 11  1  0
  6 12  1  0
 29 36  1  0
 29 37  1  0
  9  7  1  1
  7 13  1  0
 10  8  1  1
  8 14  1  0
 37 28  1  1
  4  5  1  0
 33 30  1  1
 30 38  1  0
 34 31  1  1
 31 39  1  0
 35 32  1  1
 32 40  1  0
 41 42  1  0
 41 43  1  0
 15 19  2  0
 16 22  2  0
 12 17  1  6
 17 19  1  0
 17 20  1  0
 18 19  1  0
 18 22  1  0
 18 23  1  0
  9 10  1  0
  9 11  1  0
 10 12  1  0
 11  5  1  6
 33 34  1  0
 33 35  1  0
 34 36  1  0
 35 37  1  0
 36 42  1  6
 20 21  2  0
 21 22  1  0
M  CHG  2   2  -1  26  -1
M  END
>  <COMPND>  (122) 
    8629 

>  <AUTHOR>  (122) 
    GENERATED BY OPEN BABEL 3.1.1

>  <MASTER>  (122) 
        0    0    0    0    0    0    0    0   58    0   58    0

>  <minimizedAffinity>  (122) 
-6.50851

>  <CNNscore>  (122) 
0.6681019068

>  <CNNaffinity>  (122) 
4.3642539978

>  <CNN_VS>  (122) 
2.9157664776

>  <CNNaffinity_variance>  (122) 
0.1452743113

$$$$
123
     RDKit          3D

 43 45  0  0  0  0  0  0  0  0999 V2000
   23.9949   73.1857   -5.0966 P   0  0  2  0  0  0  0  0  0  0  0  0
   25.1975   73.5205   -6.1258 O   0  0  0  0  0  0  0  0  0  0  0  0
   23.5165   74.3504   -4.2805 O   0  0  0  0  0  0  0  0  0  0  0  0
   24.5450   71.9174   -4.2559 O   0  0  0  0  0  0  0  0  0  0  0  0
   25.8913   71.5162   -4.4409 C   0  0  0  0  0  0  0  0  0  0  0  0
   26.9137   69.7085   -3.2322 O   0  0  0  0  0  0  0  0  0  0  0  0
   27.8091   71.7817   -1.2597 O   0  0  0  0  0  0  0  0  0  0  0  0
   30.0627   71.3510   -2.7336 O   0  0  0  0  0  0  0  0  0  0  0  0
   27.6899   71.8779   -2.6781 C   0  0  1  0  0  0  0  0  0  0  0  0
   28.8138   71.1197   -3.3529 C   0  0  2  0  0  0  0  0  0  0  0  0
   26.4658   71.0755   -3.1015 C   0  0  1  0  0  0  0  0  0  0  0  0
   28.3502   69.6796   -3.2142 C   0  0  2  0  0  0  0  0  0  0  0  0
   28.5840   72.2868   -0.9656 H   0  0  0  0  0  0  0  0  0  0  0  0
   30.3140   72.2806   -2.8494 H   0  0  0  0  0  0  0  0  0  0  0  0
   30.7327   68.1640   -3.1479 O   0  0  0  0  0  0  0  0  0  0  0  0
   30.0281   66.5307   -7.3997 O   0  0  0  0  0  0  0  0  0  0  0  0
   28.8134   68.8491   -4.2898 N   0  0  0  0  0  0  0  0  0  0  0  0
   30.3799   67.3518   -5.2650 N   0  0  0  0  0  0  0  0  0  0  0  0
   30.0238   68.1297   -4.1559 C   0  0  0  0  0  0  0  0  0  0  0  0
   28.0701   68.7537   -5.4612 C   0  0  0  0  0  0  0  0  0  0  0  0
   28.4241   68.0084   -6.5103 C   0  0  0  0  0  0  0  0  0  0  0  0
   29.6753   67.2255   -6.4517 C   0  0  0  0  0  0  0  0  0  0  0  0
   31.2196   66.8422   -5.1946 H   0  0  0  0  0  0  0  0  0  0  0  0
   22.8705   72.5274   -6.0532 O   0  0  0  0  0  0  0  0  0  0  0  0
   21.6245   71.5553   -5.7135 P   0  0  2  0  0  0  0  0  0  0  0  0
   21.1330   72.0754   -4.2624 O   0  0  0  0  0  0  0  0  0  0  0  0
   21.9535   70.0914   -5.7678 O   0  0  0  0  0  0  0  0  0  0  0  0
   20.4577   72.0167   -6.7286 O   0  0  0  0  0  0  0  0  0  0  0  0
   20.0279   71.0559   -8.8520 O   0  0  0  0  0  0  0  0  0  0  0  0
   18.6929   74.8945   -9.5823 O   0  0  0  0  0  0  0  0  0  0  0  0
   16.7912   72.7597   -9.3099 O   0  0  0  0  0  0  0  0  0  0  0  0
   21.0492   74.4703   -7.9553 O   0  0  0  0  0  0  0  0  0  0  0  0
   18.9201   73.7215   -8.7963 C   0  0  1  0  0  0  0  0  0  0  0  0
   18.1926   72.5508   -9.4606 C   0  0  1  0  0  0  0  0  0  0  0  0
   20.4218   73.4510   -8.7259 C   0  0  2  0  0  0  0  0  0  0  0  0
   18.6044   71.2135   -8.8305 C   0  0  1  0  0  0  0  0  0  0  0  0
   20.7205   72.0749   -8.1282 C   0  0  1  0  0  0  0  0  0  0  0  0
   17.7412   75.0721   -9.6306 H   0  0  0  0  0  0  0  0  0  0  0  0
   16.5444   73.6076   -9.7115 H   0  0  0  0  0  0  0  0  0  0  0  0
   20.8529   75.3365   -8.3440 H   0  0  0  0  0  0  0  0  0  0  0  0
   16.6938   69.8065   -9.1115 O   0  0  0  0  0  0  0  0  0  0  0  0
   18.0123   70.0218   -9.5799 C   0  0  0  0  0  0  0  0  0  0  0  0
   16.3042   69.0512   -9.5799 H   0  0  0  0  0  0  0  0  0  0  0  0
 25 28  1  0
 25 24  1  0
 25 26  1  1
 25 27  2  0
  1  4  1  0
  1 24  1  0
  1  2  1  6
  1  3  2  0
  6 11  1  0
  6 12  1  0
 29 36  1  0
 29 37  1  0
  9  7  1  1
  7 13  1  0
 10  8  1  1
  8 14  1  0
 37 28  1  1
  4  5  1  0
 33 30  1  6
 30 38  1  0
 34 31  1  1
 31 39  1  0
 35 32  1  1
 32 40  1  0
 41 42  1  0
 41 43  1  0
 15 19  2  0
 16 22  2  0
 12 17  1  6
 17 19  1  0
 17 20  1  0
 18 19  1  0
 18 22  1  0
 18 23  1  0
  9 10  1  0
  9 11  1  0
 10 12  1  0
 11  5  1  6
 33 34  1  0
 33 35  1  0
 34 36  1  0
 35 37  1  0
 36 42  1  6
 20 21  2  0
 21 22  1  0
M  CHG  2   2  -1  26  -1
M  END
>  <COMPND>  (123) 
    8629 

>  <AUTHOR>  (123) 
    GENERATED BY OPEN BABEL 3.1.1

>  <MASTER>  (123) 
        0    0    0    0    0    0    0    0   58    0   58    0

>  <minimizedAffinity>  (123) 
-7.62710

>  <CNNscore>  (123) 
0.5913598537

>  <CNNaffinity>  (123) 
4.4442505836

>  <CNN_VS>  (123) 
2.6281514168

>  <CNNaffinity_variance>  (123) 
0.0452710688

$$$$
124
     RDKit          3D

 43 45  0  0  0  0  0  0  0  0999 V2000
   28.7627   73.4350   -2.0033 P   0  0  2  0  0  0  0  0  0  0  0  0
   28.2295   74.8685   -2.5307 O   0  0  0  0  0  0  0  0  0  0  0  0
   30.0505   73.4816   -1.2345 O   0  0  0  0  0  0  0  0  0  0  0  0
   28.7703   72.5108   -3.3313 O   0  0  0  0  0  0  0  0  0  0  0  0
   29.8779   71.6553   -3.5533 C   0  0  0  0  0  0  0  0  0  0  0  0
   28.8411   69.6208   -2.8051 O   0  0  0  0  0  0  0  0  0  0  0  0
   31.3081   69.1901   -1.1562 O   0  0  0  0  0  0  0  0  0  0  0  0
   31.7284   67.5502   -3.2941 O   0  0  0  0  0  0  0  0  0  0  0  0
   31.1804   69.7655   -2.4554 C   0  0  1  0  0  0  0  0  0  0  0  0
   30.9109   68.6870   -3.4839 C   0  0  2  0  0  0  0  0  0  0  0  0
   29.8852   70.5672   -2.4883 C   0  0  1  0  0  0  0  0  0  0  0  0
   29.4382   68.3932   -3.2538 C   0  0  2  0  0  0  0  0  0  0  0  0
   32.1284   68.6734   -1.1108 H   0  0  0  0  0  0  0  0  0  0  0  0
   32.6553   67.7883   -3.4519 H   0  0  0  0  0  0  0  0  0  0  0  0
   26.8309   67.3093   -3.3264 O   0  0  0  0  0  0  0  0  0  0  0  0
   26.9861   66.7672   -7.9006 O   0  0  0  0  0  0  0  0  0  0  0  0
   28.7725   67.9608   -4.4502 N   0  0  0  0  0  0  0  0  0  0  0  0
   26.9102   67.0404   -5.6040 N   0  0  0  0  0  0  0  0  0  0  0  0
   27.4635   67.4300   -4.3776 C   0  0  0  0  0  0  0  0  0  0  0  0
   29.4168   68.0655   -5.6781 C   0  0  0  0  0  0  0  0  0  0  0  0
   28.8758   67.6883   -6.8384 C   0  0  0  0  0  0  0  0  0  0  0  0
   27.5110   67.1233   -6.8501 C   0  0  0  0  0  0  0  0  0  0  0  0
   25.9993   66.6674   -5.5779 H   0  0  0  0  0  0  0  0  0  0  0  0
   27.5018   72.8625   -1.1694 O   0  0  0  0  0  0  0  0  0  0  0  0
   26.0271   72.4099   -1.6524 P   0  0  2  0  0  0  0  0  0  0  0  0
   26.2901   70.9753   -2.3527 O   0  0  0  0  0  0  0  0  0  0  0  0
   25.3334   73.4101   -2.5312 O   0  0  0  0  0  0  0  0  0  0  0  0
   25.2400   72.0591   -0.2877 O   0  0  0  0  0  0  0  0  0  0  0  0
   24.3581   73.4041    1.4529 O   0  0  0  0  0  0  0  0  0  0  0  0
   25.9248   70.3312    3.7230 O   0  0  0  0  0  0  0  0  0  0  0  0
   23.0783   70.5606    3.4189 O   0  0  0  0  0  0  0  0  0  0  0  0
   27.3506   71.2720    1.3859 O   0  0  0  0  0  0  0  0  0  0  0  0
   25.2906   70.9160    2.5823 C   0  0  1  0  0  0  0  0  0  0  0  0
   23.9948   71.5853    3.0446 C   0  0  1  0  0  0  0  0  0  0  0  0
   26.2337   71.9433    1.9588 C   0  0  2  0  0  0  0  0  0  0  0  0
   23.3956   72.4586    1.9340 C   0  0  1  0  0  0  0  0  0  0  0  0
   25.5252   72.7916    0.9011 C   0  0  1  0  0  0  0  0  0  0  0  0
   25.3315   69.6776    4.1232 H   0  0  0  0  0  0  0  0  0  0  0  0
   23.4690   70.0161    4.1204 H   0  0  0  0  0  0  0  0  0  0  0  0
   27.7906   70.7388    2.0656 H   0  0  0  0  0  0  0  0  0  0  0  0
   22.4035   73.6091    3.7782 O   0  0  0  0  0  0  0  0  0  0  0  0
   22.1903   73.2587    2.4232 C   0  0  0  0  0  0  0  0  0  0  0  0
   21.6444   74.1190    4.1030 H   0  0  0  0  0  0  0  0  0  0  0  0
 25 28  1  0
 25 24  1  0
 25 26  1  6
 25 27  2  0
  1  4  1  0
  1 24  1  0
  1  2  1  6
  1  3  2  0
  6 11  1  0
  6 12  1  0
 29 36  1  0
 29 37  1  0
  9  7  1  1
  7 13  1  0
 10  8  1  1
  8 14  1  0
 37 28  1  6
  4  5  1  0
 33 30  1  1
 30 38  1  0
 34 31  1  6
 31 39  1  0
 35 32  1  6
 32 40  1  0
 41 42  1  0
 41 43  1  0
 15 19  2  0
 16 22  2  0
 12 17  1  6
 17 19  1  0
 17 20  1  0
 18 19  1  0
 18 22  1  0
 18 23  1  0
  9 10  1  0
  9 11  1  0
 10 12  1  0
 11  5  1  6
 33 34  1  0
 33 35  1  0
 34 36  1  0
 35 37  1  0
 36 42  1  1
 20 21  2  0
 21 22  1  0
M  CHG  2   2  -1  26  -1
M  END
>  <COMPND>  (124) 
    8629 

>  <AUTHOR>  (124) 
    GENERATED BY OPEN BABEL 3.1.1

>  <MASTER>  (124) 
        0    0    0    0    0    0    0    0   58    0   58    0

>  <minimizedAffinity>  (124) 
-7.66119

>  <CNNscore>  (124) 
0.5409932137

>  <CNNaffinity>  (124) 
4.4036760330

>  <CNN_VS>  (124) 
2.3823587894

>  <CNNaffinity_variance>  (124) 
0.1267489195

$$$$
125
     RDKit          3D

 43 45  0  0  0  0  0  0  0  0999 V2000
   27.0969   72.1768   -3.4045 P   0  0  2  0  0  0  0  0  0  0  0  0
   27.7968   73.5611   -2.9448 O   0  0  0  0  0  0  0  0  0  0  0  0
   26.3834   71.4343   -2.3131 O   0  0  0  0  0  0  0  0  0  0  0  0
   28.2865   71.3668   -4.1438 O   0  0  0  0  0  0  0  0  0  0  0  0
   29.5955   71.4495   -3.6076 C   0  0  0  0  0  0  0  0  0  0  0  0
   28.8112   69.3014   -2.8698 O   0  0  0  0  0  0  0  0  0  0  0  0
   31.4334   69.0440   -1.4386 O   0  0  0  0  0  0  0  0  0  0  0  0
   31.8240   67.5286   -3.6719 O   0  0  0  0  0  0  0  0  0  0  0  0
   31.1486   69.6514   -2.6977 C   0  0  1  0  0  0  0  0  0  0  0  0
   30.8945   68.5902   -3.7478 C   0  0  2  0  0  0  0  0  0  0  0  0
   29.7880   70.3292   -2.5946 C   0  0  1  0  0  0  0  0  0  0  0  0
   29.4780   68.1519   -3.4165 C   0  0  2  0  0  0  0  0  0  0  0  0
   32.2979   68.6049   -1.4798 H   0  0  0  0  0  0  0  0  0  0  0  0
   32.7096   67.8578   -3.8910 H   0  0  0  0  0  0  0  0  0  0  0  0
   26.7294   67.5019   -3.4353 O   0  0  0  0  0  0  0  0  0  0  0  0
   26.8243   66.4376   -7.9186 O   0  0  0  0  0  0  0  0  0  0  0  0
   28.7586   67.7026   -4.5750 N   0  0  0  0  0  0  0  0  0  0  0  0
   26.7788   66.9727   -5.6677 N   0  0  0  0  0  0  0  0  0  0  0  0
   27.3802   67.4014   -4.4775 C   0  0  0  0  0  0  0  0  0  0  0  0
   29.4195   67.5650   -5.7908 C   0  0  0  0  0  0  0  0  0  0  0  0
   28.8319   67.1537   -6.9164 C   0  0  0  0  0  0  0  0  0  0  0  0
   27.3933   66.8187   -6.9003 C   0  0  0  0  0  0  0  0  0  0  0  0
   25.8190   66.7568   -5.6236 H   0  0  0  0  0  0  0  0  0  0  0  0
   26.1528   72.6374   -4.6332 O   0  0  0  0  0  0  0  0  0  0  0  0
   24.7418   73.4258   -4.6500 P   0  0  2  0  0  0  0  0  0  0  0  0
   24.6899   74.0619   -6.1367 O   0  0  0  0  0  0  0  0  0  0  0  0
   24.5829   74.4267   -3.5423 O   0  0  0  0  0  0  0  0  0  0  0  0
   23.6236   72.2620   -4.6653 O   0  0  0  0  0  0  0  0  0  0  0  0
   21.7907   72.4053   -3.1699 O   0  0  0  0  0  0  0  0  0  0  0  0
   21.6452   68.3643   -4.0064 O   0  0  0  0  0  0  0  0  0  0  0  0
   19.6431   70.1109   -5.0967 O   0  0  0  0  0  0  0  0  0  0  0  0
   24.2034   69.6869   -3.7125 O   0  0  0  0  0  0  0  0  0  0  0  0
   21.8670   69.7474   -4.2948 C   0  0  1  0  0  0  0  0  0  0  0  0
   20.5538   70.5003   -4.0723 C   0  0  1  0  0  0  0  0  0  0  0  0
   22.9570   70.2821   -3.3678 C   0  0  2  0  0  0  0  0  0  0  0  0
   20.7739   72.0187   -4.1018 C   0  0  1  0  0  0  0  0  0  0  0  0
   23.0602   71.8068   -3.4379 C   0  0  1  0  0  0  0  0  0  0  0  0
   20.9545   68.0185   -4.5920 H   0  0  0  0  0  0  0  0  0  0  0  0
   19.5132   69.1500   -5.0674 H   0  0  0  0  0  0  0  0  0  0  0  0
   24.1250   68.7218   -3.6641 H   0  0  0  0  0  0  0  0  0  0  0  0
   18.6002   72.7140   -4.8093 O   0  0  0  0  0  0  0  0  0  0  0  0
   19.5089   72.7874   -3.7262 C   0  0  0  0  0  0  0  0  0  0  0  0
   17.7901   73.1987   -4.5843 H   0  0  0  0  0  0  0  0  0  0  0  0
 25 28  1  0
 25 24  1  0
 25 26  1  6
 25 27  2  0
  1  4  1  0
  1 24  1  0
  1  2  1  1
  1  3  2  0
  6 11  1  0
  6 12  1  0
 29 36  1  0
 29 37  1  0
  9  7  1  1
  7 13  1  0
 10  8  1  1
  8 14  1  0
 37 28  1  6
  4  5  1  0
 33 30  1  1
 30 38  1  0
 34 31  1  6
 31 39  1  0
 35 32  1  6
 32 40  1  0
 41 42  1  0
 41 43  1  0
 15 19  2  0
 16 22  2  0
 12 17  1  6
 17 19  1  0
 17 20  1  0
 18 19  1  0
 18 22  1  0
 18 23  1  0
  9 10  1  0
  9 11  1  0
 10 12  1  0
 11  5  1  6
 33 34  1  0
 33 35  1  0
 34 36  1  0
 35 37  1  0
 36 42  1  1
 20 21  2  0
 21 22  1  0
M  CHG  2   2  -1  26  -1
M  END
>  <COMPND>  (125) 
    8629 

>  <AUTHOR>  (125) 
    GENERATED BY OPEN BABEL 3.1.1

>  <MASTER>  (125) 
        0    0    0    0    0    0    0    0   58    0   58    0

>  <minimizedAffinity>  (125) 
-8.05580

>  <CNNscore>  (125) 
0.5100317001

>  <CNNaffinity>  (125) 
4.4766449928

>  <CNN_VS>  (125) 
2.2832307816

>  <CNNaffinity_variance>  (125) 
0.4083198905

$$$$
126
     RDKit          3D

 43 45  0  0  0  0  0  0  0  0999 V2000
   24.4929   72.9470   -4.8514 P   0  0  2  0  0  0  0  0  0  0  0  0
   22.9930   72.5357   -5.2968 O   0  0  0  0  0  0  0  0  0  0  0  0
   25.2472   73.7728   -5.8517 O   0  0  0  0  0  0  0  0  0  0  0  0
   25.1772   71.5385   -4.4442 O   0  0  0  0  0  0  0  0  0  0  0  0
   26.5764   71.3925   -4.6139 C   0  0  0  0  0  0  0  0  0  0  0  0
   27.4789   69.5107   -3.4232 O   0  0  0  0  0  0  0  0  0  0  0  0
   28.7178   71.5157   -1.5696 O   0  0  0  0  0  0  0  0  0  0  0  0
   30.8105   70.8145   -3.1714 O   0  0  0  0  0  0  0  0  0  0  0  0
   28.5158   71.5948   -2.9797 C   0  0  1  0  0  0  0  0  0  0  0  0
   29.5059   70.7063   -3.7034 C   0  0  2  0  0  0  0  0  0  0  0  0
   27.1883   70.9203   -3.3021 C   0  0  1  0  0  0  0  0  0  0  0  0
   28.9023   69.3276   -3.4958 C   0  0  2  0  0  0  0  0  0  0  0  0
   29.5596   71.9403   -1.3394 H   0  0  0  0  0  0  0  0  0  0  0  0
   31.1508   71.7091   -3.3285 H   0  0  0  0  0  0  0  0  0  0  0  0
   31.1562   67.6272   -3.5774 O   0  0  0  0  0  0  0  0  0  0  0  0
   29.9536   65.9276   -7.6891 O   0  0  0  0  0  0  0  0  0  0  0  0
   29.2026   68.4300   -4.5754 N   0  0  0  0  0  0  0  0  0  0  0  0
   30.5555   66.7822   -5.6246 N   0  0  0  0  0  0  0  0  0  0  0  0
   30.3605   67.6197   -4.5189 C   0  0  0  0  0  0  0  0  0  0  0  0
   28.3535   68.3594   -5.6744 C   0  0  0  0  0  0  0  0  0  0  0  0
   28.5543   67.5564   -6.7214 C   0  0  0  0  0  0  0  0  0  0  0  0
   29.7411   66.6771   -6.7410 C   0  0  0  0  0  0  0  0  0  0  0  0
   31.3559   66.2088   -5.6074 H   0  0  0  0  0  0  0  0  0  0  0  0
   24.2632   73.6660   -3.4219 O   0  0  0  0  0  0  0  0  0  0  0  0
   25.2900   74.4516   -2.4516 P   0  0  2  0  0  0  0  0  0  0  0  0
   24.5856   75.8949   -2.2565 O   0  0  0  0  0  0  0  0  0  0  0  0
   26.6984   74.5146   -2.9679 O   0  0  0  0  0  0  0  0  0  0  0  0
   25.1348   73.7252   -1.0187 O   0  0  0  0  0  0  0  0  0  0  0  0
   26.1556   71.7721   -0.1470 O   0  0  0  0  0  0  0  0  0  0  0  0
   22.3829   71.3228    1.4703 O   0  0  0  0  0  0  0  0  0  0  0  0
   24.5769   72.0565    3.1720 O   0  0  0  0  0  0  0  0  0  0  0  0
   22.6888   72.3635   -1.2135 O   0  0  0  0  0  0  0  0  0  0  0  0
   23.5300   72.0494    1.0215 C   0  0  1  0  0  0  0  0  0  0  0  0
   24.7395   71.5873    1.8365 C   0  0  1  0  0  0  0  0  0  0  0  0
   23.7459   71.7727   -0.4652 C   0  0  2  0  0  0  0  0  0  0  0  0
   26.0477   72.1215    1.2379 C   0  0  1  0  0  0  0  0  0  0  0  0
   25.0975   72.3022   -0.9478 C   0  0  1  0  0  0  0  0  0  0  0  0
   22.2399   71.4945    2.4135 H   0  0  0  0  0  0  0  0  0  0  0  0
   23.7470   71.7124    3.5381 H   0  0  0  0  0  0  0  0  0  0  0  0
   21.8387   72.0200   -0.8987 H   0  0  0  0  0  0  0  0  0  0  0  0
   26.8503   70.5194    2.8184 O   0  0  0  0  0  0  0  0  0  0  0  0
   27.2753   71.5453    1.9402 C   0  0  0  0  0  0  0  0  0  0  0  0
   27.6212   70.1432    3.2722 H   0  0  0  0  0  0  0  0  0  0  0  0
 25 28  1  0
 25 24  1  0
 25 26  1  1
 25 27  2  0
  1  4  1  0
  1 24  1  0
  1  2  1  6
  1  3  2  0
  6 11  1  0
  6 12  1  0
 29 36  1  0
 29 37  1  0
  9  7  1  1
  7 13  1  0
 10  8  1  1
  8 14  1  0
 37 28  1  1
  4  5  1  0
 33 30  1  1
 30 38  1  0
 34 31  1  1
 31 39  1  0
 35 32  1  6
 32 40  1  0
 41 42  1  0
 41 43  1  0
 15 19  2  0
 16 22  2  0
 12 17  1  6
 17 19  1  0
 17 20  1  0
 18 19  1  0
 18 22  1  0
 18 23  1  0
  9 10  1  0
  9 11  1  0
 10 12  1  0
 11  5  1  6
 33 34  1  0
 33 35  1  0
 34 36  1  0
 35 37  1  0
 36 42  1  1
 20 21  2  0
 21 22  1  0
M  CHG  2   2  -1  26  -1
M  END
>  <COMPND>  (126) 
    8629 

>  <AUTHOR>  (126) 
    GENERATED BY OPEN BABEL 3.1.1

>  <MASTER>  (126) 
        0    0    0    0    0    0    0    0   58    0   58    0

>  <minimizedAffinity>  (126) 
-6.97692

>  <CNNscore>  (126) 
0.4799728096

>  <CNNaffinity>  (126) 
4.2706637383

>  <CNN_VS>  (126) 
2.0498025417

>  <CNNaffinity_variance>  (126) 
0.0687035471

$$$$
127
     RDKit          3D

 43 45  0  0  0  0  0  0  0  0999 V2000
   24.5299   72.1234   -4.3568 P   0  0  2  0  0  0  0  0  0  0  0  0
   24.2267   72.6424   -5.8589 O   0  0  0  0  0  0  0  0  0  0  0  0
   24.0455   70.7355   -4.0560 O   0  0  0  0  0  0  0  0  0  0  0  0
   23.9345   73.2953   -3.4134 O   0  0  0  0  0  0  0  0  0  0  0  0
   24.1179   73.1938   -2.0120 C   0  0  0  0  0  0  0  0  0  0  0  0
   23.2411   71.5217   -0.5256 O   0  0  0  0  0  0  0  0  0  0  0  0
   20.7519   73.1900   -0.4186 O   0  0  0  0  0  0  0  0  0  0  0  0
   22.0005   73.8346    1.9185 O   0  0  0  0  0  0  0  0  0  0  0  0
   22.1141   73.6061   -0.4993 C   0  0  1  0  0  0  0  0  0  0  0  0
   22.8033   73.4119    0.8352 C   0  0  2  0  0  0  0  0  0  0  0  0
   22.8557   72.6148   -1.3875 C   0  0  1  0  0  0  0  0  0  0  0  0
   23.0559   71.9139    0.8443 C   0  0  2  0  0  0  0  0  0  0  0  0
   20.2579   73.8081    0.1434 H   0  0  0  0  0  0  0  0  0  0  0  0
   21.8685   74.7942    1.8683 H   0  0  0  0  0  0  0  0  0  0  0  0
   23.0271   70.4466    3.2576 O   0  0  0  0  0  0  0  0  0  0  0  0
   27.6175   70.6189    3.6307 O   0  0  0  0  0  0  0  0  0  0  0  0
   24.2290   71.5609    1.5931 N   0  0  0  0  0  0  0  0  0  0  0  0
   25.3128   70.5334    3.4414 N   0  0  0  0  0  0  0  0  0  0  0  0
   24.1052   70.8229    2.7933 C   0  0  0  0  0  0  0  0  0  0  0  0
   25.4848   71.9454    1.1358 C   0  0  0  0  0  0  0  0  0  0  0  0
   26.6266   71.6626    1.7662 C   0  0  0  0  0  0  0  0  0  0  0  0
   26.5851   70.8947    3.0274 C   0  0  0  0  0  0  0  0  0  0  0  0
   25.2511   70.0205    4.2797 H   0  0  0  0  0  0  0  0  0  0  0  0
   26.1281   72.3228   -4.2190 O   0  0  0  0  0  0  0  0  0  0  0  0
   27.2530   71.4135   -3.4975 P   0  0  2  0  0  0  0  0  0  0  0  0
   26.4871   70.8425   -2.1918 O   0  0  0  0  0  0  0  0  0  0  0  0
   28.5318   72.1403   -3.1968 O   0  0  0  0  0  0  0  0  0  0  0  0
   27.4233   70.1316   -4.4632 O   0  0  0  0  0  0  0  0  0  0  0  0
   27.1143   67.7947   -4.7077 O   0  0  0  0  0  0  0  0  0  0  0  0
   31.2376   67.8982   -4.5122 O   0  0  0  0  0  0  0  0  0  0  0  0
   29.9503   67.3510   -7.0205 O   0  0  0  0  0  0  0  0  0  0  0  0
   29.6681   69.6684   -2.8442 O   0  0  0  0  0  0  0  0  0  0  0  0
   29.9373   68.3803   -4.8615 C   0  0  1  0  0  0  0  0  0  0  0  0
   29.2697   67.3449   -5.7687 C   0  0  1  0  0  0  0  0  0  0  0  0
   29.1212   68.5837   -3.5864 C   0  0  2  0  0  0  0  0  0  0  0  0
   27.7812   67.6609   -5.9683 C   0  0  1  0  0  0  0  0  0  0  0  0
   27.6457   68.8434   -3.8955 C   0  0  1  0  0  0  0  0  0  0  0  0
   31.7611   67.7673   -5.3174 H   0  0  0  0  0  0  0  0  0  0  0  0
   30.8892   67.1505   -6.8804 H   0  0  0  0  0  0  0  0  0  0  0  0
   30.6023   69.4918   -2.6546 H   0  0  0  0  0  0  0  0  0  0  0  0
   26.9591   66.9494   -8.0959 O   0  0  0  0  0  0  0  0  0  0  0  0
   27.0606   66.5572   -6.7394 C   0  0  0  0  0  0  0  0  0  0  0  0
   26.5028   66.2563   -8.5989 H   0  0  0  0  0  0  0  0  0  0  0  0
 25 28  1  0
 25 24  1  0
 25 26  1  1
 25 27  2  0
  1  4  1  0
  1 24  1  0
  1  2  1  6
  1  3  2  0
  6 11  1  0
  6 12  1  0
 29 36  1  0
 29 37  1  0
  9  7  1  1
  7 13  1  0
 10  8  1  1
  8 14  1  0
 37 28  1  6
  4  5  1  0
 33 30  1  1
 30 38  1  0
 34 31  1  6
 31 39  1  0
 35 32  1  6
 32 40  1  0
 41 42  1  0
 41 43  1  0
 15 19  2  0
 16 22  2  0
 12 17  1  1
 17 19  1  0
 17 20  1  0
 18 19  1  0
 18 22  1  0
 18 23  1  0
  9 10  1  0
  9 11  1  0
 10 12  1  0
 11  5  1  1
 33 34  1  0
 33 35  1  0
 34 36  1  0
 35 37  1  0
 36 42  1  6
 20 21  2  0
 21 22  1  0
M  CHG  2   2  -1  26  -1
M  END
>  <COMPND>  (127) 
    8629 

>  <AUTHOR>  (127) 
    GENERATED BY OPEN BABEL 3.1.1

>  <MASTER>  (127) 
        0    0    0    0    0    0    0    0   58    0   58    0

>  <minimizedAffinity>  (127) 
-7.72599

>  <CNNscore>  (127) 
0.4739172161

>  <CNNaffinity>  (127) 
4.1348352432

>  <CNN_VS>  (127) 
1.9595695734

>  <CNNaffinity_variance>  (127) 
0.1209270805

$$$$
128
     RDKit          3D

 43 45  0  0  0  0  0  0  0  0999 V2000
   27.5069   74.1674   -2.7207 P   0  0  2  0  0  0  0  0  0  0  0  0
   26.6056   73.7490   -3.9974 O   0  0  0  0  0  0  0  0  0  0  0  0
   27.6855   75.6447   -2.5278 O   0  0  0  0  0  0  0  0  0  0  0  0
   28.8684   73.3139   -2.9099 O   0  0  0  0  0  0  0  0  0  0  0  0
   29.8895   73.4451   -1.9363 C   0  0  0  0  0  0  0  0  0  0  0  0
   31.9299   72.4446   -1.1557 O   0  0  0  0  0  0  0  0  0  0  0  0
   31.5573   70.4268   -3.3422 O   0  0  0  0  0  0  0  0  0  0  0  0
   30.6902   69.0792   -1.1357 O   0  0  0  0  0  0  0  0  0  0  0  0
   30.5757   71.0681   -2.5295 C   0  0  1  0  0  0  0  0  0  0  0  0
   30.5916   70.4888   -1.1303 C   0  0  2  0  0  0  0  0  0  0  0  0
   31.0319   72.5012   -2.2856 C   0  0  1  0  0  0  0  0  0  0  0  0
   31.8143   71.1581   -0.5260 C   0  0  2  0  0  0  0  0  0  0  0  0
   31.2877   69.5100   -3.5118 H   0  0  0  0  0  0  0  0  0  0  0  0
   29.8888   68.7004   -1.5295 H   0  0  0  0  0  0  0  0  0  0  0  0
   32.6228   69.2618    1.4049 O   0  0  0  0  0  0  0  0  0  0  0  0
   31.2985   71.9730    4.8887 O   0  0  0  0  0  0  0  0  0  0  0  0
   31.6927   71.3426    0.8926 N   0  0  0  0  0  0  0  0  0  0  0  0
   31.9629   70.6134    3.1380 N   0  0  0  0  0  0  0  0  0  0  0  0
   32.1282   70.3281    1.7766 C   0  0  0  0  0  0  0  0  0  0  0  0
   31.1471   72.5193    1.3942 C   0  0  0  0  0  0  0  0  0  0  0  0
   30.9952   72.7755    2.6952 C   0  0  0  0  0  0  0  0  0  0  0  0
   31.4249   71.7673    3.6856 C   0  0  0  0  0  0  0  0  0  0  0  0
   32.2589   69.9209    3.7725 H   0  0  0  0  0  0  0  0  0  0  0  0
   26.7725   73.4128   -1.4943 O   0  0  0  0  0  0  0  0  0  0  0  0
   26.0228   71.9824   -1.4242 P   0  0  2  0  0  0  0  0  0  0  0  0
   26.9978   71.0104   -2.2740 O   0  0  0  0  0  0  0  0  0  0  0  0
   24.6012   72.0085   -1.9062 O   0  0  0  0  0  0  0  0  0  0  0  0
   26.2015   71.5021    0.1062 O   0  0  0  0  0  0  0  0  0  0  0  0
   24.6174   72.8853    1.1988 O   0  0  0  0  0  0  0  0  0  0  0  0
   25.6826   70.4680    4.3726 O   0  0  0  0  0  0  0  0  0  0  0  0
   23.1067   70.1432    3.1449 O   0  0  0  0  0  0  0  0  0  0  0  0
   27.6928   71.3321    2.4773 O   0  0  0  0  0  0  0  0  0  0  0  0
   25.4093   70.7747    3.0027 C   0  0  1  0  0  0  0  0  0  0  0  0
   23.9609   71.2567    2.8989 C   0  0  1  0  0  0  0  0  0  0  0  0
   26.3730   71.8627    2.5328 C   0  0  2  0  0  0  0  0  0  0  0  0
   23.6740   71.8549    1.5151 C   0  0  1  0  0  0  0  0  0  0  0  0
   25.9694   72.4239    1.1682 C   0  0  1  0  0  0  0  0  0  0  0  0
   25.0744   69.7774    4.6770 H   0  0  0  0  0  0  0  0  0  0  0  0
   23.2984   69.7745    4.0215 H   0  0  0  0  0  0  0  0  0  0  0  0
   27.9366   70.9803    3.3472 H   0  0  0  0  0  0  0  0  0  0  0  0
   21.4881   71.7126    0.5609 O   0  0  0  0  0  0  0  0  0  0  0  0
   22.2845   72.4842    1.4410 C   0  0  0  0  0  0  0  0  0  0  0  0
   20.6007   72.1012    0.5041 H   0  0  0  0  0  0  0  0  0  0  0  0
 25 28  1  0
 25 24  1  0
 25 26  1  6
 25 27  2  0
  1  4  1  0
  1 24  1  0
  1  2  1  6
  1  3  2  0
  6 11  1  0
  6 12  1  0
 29 36  1  0
 29 37  1  0
  9  7  1  6
  7 13  1  0
 10  8  1  6
  8 14  1  0
 37 28  1  6
  4  5  1  0
 33 30  1  1
 30 38  1  0
 34 31  1  6
 31 39  1  0
 35 32  1  6
 32 40  1  0
 41 42  1  0
 41 43  1  0
 15 19  2  0
 16 22  2  0
 12 17  1  1
 17 19  1  0
 17 20  1  0
 18 19  1  0
 18 22  1  0
 18 23  1  0
  9 10  1  0
  9 11  1  0
 10 12  1  0
 11  5  1  1
 33 34  1  0
 33 35  1  0
 34 36  1  0
 35 37  1  0
 36 42  1  1
 20 21  2  0
 21 22  1  0
M  CHG  2   2  -1  26  -1
M  END
>  <COMPND>  (128) 
    8629 

>  <AUTHOR>  (128) 
    GENERATED BY OPEN BABEL 3.1.1

>  <MASTER>  (128) 
        0    0    0    0    0    0    0    0   58    0   58    0

>  <minimizedAffinity>  (128) 
-6.45995

>  <CNNscore>  (128) 
0.4609136283

>  <CNNaffinity>  (128) 
3.8231475353

>  <CNN_VS>  (128) 
1.7621407509

>  <CNNaffinity_variance>  (128) 
0.5324100256

$$$$
129
     RDKit          3D

 43 45  0  0  0  0  0  0  0  0999 V2000
   24.8086   73.4062   -4.8667 P   0  0  2  0  0  0  0  0  0  0  0  0
   25.0009   74.2573   -6.2290 O   0  0  0  0  0  0  0  0  0  0  0  0
   24.4001   74.2117   -3.6684 O   0  0  0  0  0  0  0  0  0  0  0  0
   26.1956   72.5857   -4.7221 O   0  0  0  0  0  0  0  0  0  0  0  0
   26.1378   71.2209   -4.3458 C   0  0  0  0  0  0  0  0  0  0  0  0
   27.5348   69.6657   -3.1610 O   0  0  0  0  0  0  0  0  0  0  0  0
   28.6279   72.0466   -1.7026 O   0  0  0  0  0  0  0  0  0  0  0  0
   30.5663   71.5416   -3.5530 O   0  0  0  0  0  0  0  0  0  0  0  0
   28.2170   71.9330   -3.0641 C   0  0  1  0  0  0  0  0  0  0  0  0
   29.2428   71.1528   -3.8595 C   0  0  2  0  0  0  0  0  0  0  0  0
   27.0065   71.0092   -3.1134 C   0  0  1  0  0  0  0  0  0  0  0  0
   28.9425   69.7227   -3.4439 C   0  0  2  0  0  0  0  0  0  0  0  0
   29.3997   72.6323   -1.6457 H   0  0  0  0  0  0  0  0  0  0  0  0
   30.7081   72.4582   -3.8365 H   0  0  0  0  0  0  0  0  0  0  0  0
   30.9828   67.7769   -3.2733 O   0  0  0  0  0  0  0  0  0  0  0  0
   30.0289   66.1435   -7.4760 O   0  0  0  0  0  0  0  0  0  0  0  0
   29.2489   68.7758   -4.4787 N   0  0  0  0  0  0  0  0  0  0  0  0
   30.5061   66.9651   -5.3660 N   0  0  0  0  0  0  0  0  0  0  0  0
   30.2940   67.8409   -4.2936 C   0  0  0  0  0  0  0  0  0  0  0  0
   28.5166   68.7800   -5.6609 C   0  0  0  0  0  0  0  0  0  0  0  0
   28.7322   67.9389   -6.6744 C   0  0  0  0  0  0  0  0  0  0  0  0
   29.8059   66.9308   -6.5615 C   0  0  0  0  0  0  0  0  0  0  0  0
   31.2293   66.3053   -5.2598 H   0  0  0  0  0  0  0  0  0  0  0  0
   23.7527   72.2613   -5.2994 O   0  0  0  0  0  0  0  0  0  0  0  0
   22.1861   72.3538   -5.6871 P   0  0  2  0  0  0  0  0  0  0  0  0
   22.0101   71.1929   -6.8001 O   0  0  0  0  0  0  0  0  0  0  0  0
   21.7431   73.7157   -6.1374 O   0  0  0  0  0  0  0  0  0  0  0  0
   21.4099   71.7937   -4.3876 O   0  0  0  0  0  0  0  0  0  0  0  0
   19.4570   72.6866   -3.3850 O   0  0  0  0  0  0  0  0  0  0  0  0
   21.3047   71.1875   -0.0102 O   0  0  0  0  0  0  0  0  0  0  0  0
   18.9851   69.8619   -1.0640 O   0  0  0  0  0  0  0  0  0  0  0  0
   22.8866   72.4347   -2.0890 O   0  0  0  0  0  0  0  0  0  0  0  0
   20.9335   71.2100   -1.3912 C   0  0  1  0  0  0  0  0  0  0  0  0
   19.4069   71.1583   -1.4784 C   0  0  1  0  0  0  0  0  0  0  0  0
   21.4654   72.4915   -2.0301 C   0  0  2  0  0  0  0  0  0  0  0  0
   18.9235   71.4466   -2.9061 C   0  0  1  0  0  0  0  0  0  0  0  0
   20.8851   72.7083   -3.4288 C   0  0  1  0  0  0  0  0  0  0  0  0
   20.9704   70.3760    0.4013 H   0  0  0  0  0  0  0  0  0  0  0  0
   19.2972   69.6922   -0.1612 H   0  0  0  0  0  0  0  0  0  0  0  0
   23.2418   72.2975   -1.1975 H   0  0  0  0  0  0  0  0  0  0  0  0
   16.8805   71.5069   -1.6685 O   0  0  0  0  0  0  0  0  0  0  0  0
   17.4023   71.5558   -2.9837 C   0  0  0  0  0  0  0  0  0  0  0  0
   15.9131   71.5756   -1.7023 H   0  0  0  0  0  0  0  0  0  0  0  0
 25 28  1  0
 25 24  1  0
 25 26  1  6
 25 27  2  0
  1  4  1  0
  1 24  1  0
  1  2  1  6
  1  3  2  0
  6 11  1  0
  6 12  1  0
 29 36  1  0
 29 37  1  0
  9  7  1  1
  7 13  1  0
 10  8  1  1
  8 14  1  0
 37 28  1  6
  4  5  1  0
 33 30  1  1
 30 38  1  0
 34 31  1  6
 31 39  1  0
 35 32  1  6
 32 40  1  0
 41 42  1  0
 41 43  1  0
 15 19  2  0
 16 22  2  0
 12 17  1  6
 17 19  1  0
 17 20  1  0
 18 19  1  0
 18 22  1  0
 18 23  1  0
  9 10  1  0
  9 11  1  0
 10 12  1  0
 11  5  1  6
 33 34  1  0
 33 35  1  0
 34 36  1  0
 35 37  1  0
 36 42  1  1
 20 21  2  0
 21 22  1  0
M  CHG  2   2  -1  26  -1
M  END
>  <COMPND>  (129) 
    8629 

>  <AUTHOR>  (129) 
    GENERATED BY OPEN BABEL 3.1.1

>  <MASTER>  (129) 
        0    0    0    0    0    0    0    0   58    0   58    0

>  <minimizedAffinity>  (129) 
-7.15911

>  <CNNscore>  (129) 
0.4422059059

>  <CNNaffinity>  (129) 
4.2158489227

>  <CNN_VS>  (129) 
1.8642733097

>  <CNNaffinity_variance>  (129) 
0.0653169528

$$$$
130
     RDKit          3D

 43 45  0  0  0  0  0  0  0  0999 V2000
   24.0981   74.6351   -2.7691 P   0  0  2  0  0  0  0  0  0  0  0  0
   24.8000   74.9363   -1.3429 O   0  0  0  0  0  0  0  0  0  0  0  0
   23.8391   75.8461   -3.6163 O   0  0  0  0  0  0  0  0  0  0  0  0
   22.7957   73.7561   -2.3830 O   0  0  0  0  0  0  0  0  0  0  0  0
   22.9677   72.6221   -1.5510 C   0  0  0  0  0  0  0  0  0  0  0  0
   22.3621   71.7663    0.6111 O   0  0  0  0  0  0  0  0  0  0  0  0
   20.5120   74.1170    0.8162 O   0  0  0  0  0  0  0  0  0  0  0  0
   22.6422   74.9038    2.3260 O   0  0  0  0  0  0  0  0  0  0  0  0
   21.8035   74.0351    0.2157 C   0  0  1  0  0  0  0  0  0  0  0  0
   22.8768   73.9801    1.2827 C   0  0  2  0  0  0  0  0  0  0  0  0
   21.9320   72.6638   -0.4357 C   0  0  1  0  0  0  0  0  0  0  0  0
   22.7848   72.5368    1.7480 C   0  0  2  0  0  0  0  0  0  0  0  0
   20.4063   74.9845    1.2385 H   0  0  0  0  0  0  0  0  0  0  0  0
   22.7118   75.8072    1.9800 H   0  0  0  0  0  0  0  0  0  0  0  0
   23.0905   70.1888    3.2881 O   0  0  0  0  0  0  0  0  0  0  0  0
   27.6685   70.6878    3.4746 O   0  0  0  0  0  0  0  0  0  0  0  0
   24.0452   72.0296    2.2124 N   0  0  0  0  0  0  0  0  0  0  0  0
   25.3697   70.4391    3.3795 N   0  0  0  0  0  0  0  0  0  0  0  0
   24.0893   70.8425    2.9800 C   0  0  0  0  0  0  0  0  0  0  0  0
   25.2203   72.7072    1.9056 C   0  0  0  0  0  0  0  0  0  0  0  0
   26.4334   72.3100    2.2953 C   0  0  0  0  0  0  0  0  0  0  0  0
   26.5670   71.0791    3.1009 C   0  0  0  0  0  0  0  0  0  0  0  0
   25.4249   69.6149    3.9156 H   0  0  0  0  0  0  0  0  0  0  0  0
   25.0868   73.5451   -3.4379 O   0  0  0  0  0  0  0  0  0  0  0  0
   24.9667   72.7067   -4.8147 P   0  0  2  0  0  0  0  0  0  0  0  0
   25.3671   73.7918   -5.9460 O   0  0  0  0  0  0  0  0  0  0  0  0
   23.6296   72.0574   -5.0252 O   0  0  0  0  0  0  0  0  0  0  0  0
   26.2108   71.6791   -4.7770 O   0  0  0  0  0  0  0  0  0  0  0  0
   26.5552   69.7061   -3.5100 O   0  0  0  0  0  0  0  0  0  0  0  0
   30.4023   71.2052   -3.4555 O   0  0  0  0  0  0  0  0  0  0  0  0
   29.7995   68.9051   -5.0661 O   0  0  0  0  0  0  0  0  0  0  0  0
   28.1472   73.0074   -3.2405 O   0  0  0  0  0  0  0  0  0  0  0  0
   29.1140   70.9430   -4.0184 C   0  0  1  0  0  0  0  0  0  0  0  0
   28.9160   69.4271   -4.0776 C   0  0  1  0  0  0  0  0  0  0  0  0
   28.0446   71.5910   -3.1409 C   0  0  2  0  0  0  0  0  0  0  0  0
   27.4627   69.0711   -4.4183 C   0  0  1  0  0  0  0  0  0  0  0  0
   26.6387   71.1325   -3.5323 C   0  0  1  0  0  0  0  0  0  0  0  0
   31.0859   70.7969   -4.0082 H   0  0  0  0  0  0  0  0  0  0  0  0
   30.7138   69.1373   -4.8394 H   0  0  0  0  0  0  0  0  0  0  0  0
   29.0416   73.2851   -2.9898 H   0  0  0  0  0  0  0  0  0  0  0  0
   27.1246   67.2078   -2.9614 O   0  0  0  0  0  0  0  0  0  0  0  0
   27.2056   67.5685   -4.3280 C   0  0  0  0  0  0  0  0  0  0  0  0
   26.9610   66.2540   -2.8885 H   0  0  0  0  0  0  0  0  0  0  0  0
 25 28  1  0
 25 24  1  0
 25 26  1  6
 25 27  2  0
  1  4  1  0
  1 24  1  0
  1  2  1  1
  1  3  2  0
  6 11  1  0
  6 12  1  0
 29 36  1  0
 29 37  1  0
  9  7  1  1
  7 13  1  0
 10  8  1  1
  8 14  1  0
 37 28  1  6
  4  5  1  0
 33 30  1  1
 30 38  1  0
 34 31  1  6
 31 39  1  0
 35 32  1  6
 32 40  1  0
 41 42  1  0
 41 43  1  0
 15 19  2  0
 16 22  2  0
 12 17  1  6
 17 19  1  0
 17 20  1  0
 18 19  1  0
 18 22  1  0
 18 23  1  0
  9 10  1  0
  9 11  1  0
 10 12  1  0
 11  5  1  6
 33 34  1  0
 33 35  1  0
 34 36  1  0
 35 37  1  0
 36 42  1  1
 20 21  2  0
 21 22  1  0
M  CHG  2   2  -1  26  -1
M  END
>  <COMPND>  (130) 
    8629 

>  <AUTHOR>  (130) 
    GENERATED BY OPEN BABEL 3.1.1

>  <MASTER>  (130) 
        0    0    0    0    0    0    0    0   58    0   58    0

>  <minimizedAffinity>  (130) 
-6.76992

>  <CNNscore>  (130) 
0.4415524900

>  <CNNaffinity>  (130) 
3.8171234131

>  <CNN_VS>  (130) 
1.6854603291

>  <CNNaffinity_variance>  (130) 
0.3948473334

$$$$
131
     RDKit          3D

 43 45  0  0  0  0  0  0  0  0999 V2000
   21.9142   74.1866   -4.1382 P   0  0  2  0  0  0  0  0  0  0  0  0
   21.3230   74.6530   -2.7062 O   0  0  0  0  0  0  0  0  0  0  0  0
   22.5038   75.2879   -4.9694 O   0  0  0  0  0  0  0  0  0  0  0  0
   20.6918   73.3719   -4.8163 O   0  0  0  0  0  0  0  0  0  0  0  0
   19.9326   74.0104   -5.8281 C   0  0  0  0  0  0  0  0  0  0  0  0
   20.1775   72.2604   -7.4563 O   0  0  0  0  0  0  0  0  0  0  0  0
   20.8411   74.4316   -9.4150 O   0  0  0  0  0  0  0  0  0  0  0  0
   18.2381   73.8734  -10.0058 O   0  0  0  0  0  0  0  0  0  0  0  0
   19.9092   74.4449   -8.3349 C   0  0  1  0  0  0  0  0  0  0  0  0
   18.6838   73.6277   -8.6875 C   0  0  2  0  0  0  0  0  0  0  0  0
   20.5086   73.6405   -7.1881 C   0  0  1  0  0  0  0  0  0  0  0  0
   19.1866   72.2070   -8.4956 C   0  0  2  0  0  0  0  0  0  0  0  0
   20.4804   74.9394  -10.1593 H   0  0  0  0  0  0  0  0  0  0  0  0
   17.9285   74.7898  -10.0771 H   0  0  0  0  0  0  0  0  0  0  0  0
   17.4897   70.8393  -10.2922 O   0  0  0  0  0  0  0  0  0  0  0  0
   15.2136   68.7746   -6.8574 O   0  0  0  0  0  0  0  0  0  0  0  0
   18.1422   71.3055   -8.0981 N   0  0  0  0  0  0  0  0  0  0  0  0
   16.3579   69.8122   -8.5805 N   0  0  0  0  0  0  0  0  0  0  0  0
   17.3459   70.6705   -9.0795 C   0  0  0  0  0  0  0  0  0  0  0  0
   17.9163   71.0586   -6.7483 C   0  0  0  0  0  0  0  0  0  0  0  0
   16.9692   70.2382   -6.2888 C   0  0  0  0  0  0  0  0  0  0  0  0
   16.0936   69.5352   -7.2485 C   0  0  0  0  0  0  0  0  0  0  0  0
   15.7907   69.3590   -9.2458 H   0  0  0  0  0  0  0  0  0  0  0  0
   22.9539   73.0153   -3.7382 O   0  0  0  0  0  0  0  0  0  0  0  0
   23.5107   71.7556   -4.5844 P   0  0  2  0  0  0  0  0  0  0  0  0
   23.3787   72.2518   -6.1186 O   0  0  0  0  0  0  0  0  0  0  0  0
   22.8120   70.4597   -4.2904 O   0  0  0  0  0  0  0  0  0  0  0  0
   25.0986   71.7398   -4.2962 O   0  0  0  0  0  0  0  0  0  0  0  0
   26.4091   69.9394   -3.4852 O   0  0  0  0  0  0  0  0  0  0  0  0
   28.4748   73.0806   -1.7775 O   0  0  0  0  0  0  0  0  0  0  0  0
   29.6324   71.6564   -3.9864 O   0  0  0  0  0  0  0  0  0  0  0  0
   25.5851   73.1645   -1.9280 O   0  0  0  0  0  0  0  0  0  0  0  0
   27.7083   72.4221   -2.7895 C   0  0  1  0  0  0  0  0  0  0  0  0
   28.4929   71.1975   -3.2645 C   0  0  1  0  0  0  0  0  0  0  0  0
   26.3616   72.0034   -2.2026 C   0  0  2  0  0  0  0  0  0  0  0  0
   27.6260   70.2943   -4.1522 C   0  0  1  0  0  0  0  0  0  0  0  0
   25.6014   71.0678   -3.1443 C   0  0  1  0  0  0  0  0  0  0  0  0
   29.3309   73.3495   -2.1438 H   0  0  0  0  0  0  0  0  0  0  0  0
   30.1710   72.2259   -3.4148 H   0  0  0  0  0  0  0  0  0  0  0  0
   26.0771   73.7485   -1.3307 H   0  0  0  0  0  0  0  0  0  0  0  0
   29.3660   69.2780   -5.4362 O   0  0  0  0  0  0  0  0  0  0  0  0
   28.3365   68.9902   -4.5079 C   0  0  0  0  0  0  0  0  0  0  0  0
   29.8271   68.4572   -5.6715 H   0  0  0  0  0  0  0  0  0  0  0  0
 25 28  1  0
 25 24  1  0
 25 26  1  6
 25 27  2  0
  1  4  1  0
  1 24  1  0
  1  2  1  1
  1  3  2  0
  6 11  1  0
  6 12  1  0
 29 36  1  0
 29 37  1  0
  9  7  1  6
  7 13  1  0
 10  8  1  6
  8 14  1  0
 37 28  1  6
  4  5  1  0
 33 30  1  1
 30 38  1  0
 34 31  1  6
 31 39  1  0
 35 32  1  6
 32 40  1  0
 41 42  1  0
 41 43  1  0
 15 19  2  0
 16 22  2  0
 12 17  1  1
 17 19  1  0
 17 20  1  0
 18 19  1  0
 18 22  1  0
 18 23  1  0
  9 10  1  0
  9 11  1  0
 10 12  1  0
 11  5  1  1
 33 34  1  0
 33 35  1  0
 34 36  1  0
 35 37  1  0
 36 42  1  1
 20 21  2  0
 21 22  1  0
M  CHG  2   2  -1  26  -1
M  END
>  <COMPND>  (131) 
    8629 

>  <AUTHOR>  (131) 
    GENERATED BY OPEN BABEL 3.1.1

>  <MASTER>  (131) 
        0    0    0    0    0    0    0    0   58    0   58    0

>  <minimizedAffinity>  (131) 
-6.40238

>  <CNNscore>  (131) 
0.3960465789

>  <CNNaffinity>  (131) 
4.0682091713

>  <CNN_VS>  (131) 
1.6112003326

>  <CNNaffinity_variance>  (131) 
0.0318262950

$$$$
132
     RDKit          3D

 43 45  0  0  0  0  0  0  0  0999 V2000
   26.1780   72.3170   -0.6874 P   0  0  2  0  0  0  0  0  0  0  0  0
   26.5061   73.9010   -0.6584 O   0  0  0  0  0  0  0  0  0  0  0  0
   25.7968   71.7244    0.6373 O   0  0  0  0  0  0  0  0  0  0  0  0
   27.4749   71.6647   -1.4019 O   0  0  0  0  0  0  0  0  0  0  0  0
   28.6438   72.4548   -1.5325 C   0  0  0  0  0  0  0  0  0  0  0  0
   29.6640   70.2792   -1.5374 O   0  0  0  0  0  0  0  0  0  0  0  0
   32.2215   71.6828   -0.8445 O   0  0  0  0  0  0  0  0  0  0  0  0
   32.5017   71.2221   -3.5177 O   0  0  0  0  0  0  0  0  0  0  0  0
   31.1594   72.1107   -1.6956 C   0  0  1  0  0  0  0  0  0  0  0  0
   31.1918   71.3456   -3.0021 C   0  0  2  0  0  0  0  0  0  0  0  0
   29.8472   71.6378   -1.0825 C   0  0  1  0  0  0  0  0  0  0  0  0
   30.5937   70.0084   -2.5991 C   0  0  2  0  0  0  0  0  0  0  0  0
   33.0699   71.9736   -1.2154 H   0  0  0  0  0  0  0  0  0  0  0  0
   32.8381   72.0991   -3.7594 H   0  0  0  0  0  0  0  0  0  0  0  0
   31.1421   67.4027   -3.5412 O   0  0  0  0  0  0  0  0  0  0  0  0
   27.8489   67.6736   -6.7541 O   0  0  0  0  0  0  0  0  0  0  0  0
   29.8947   69.3729   -3.6802 N   0  0  0  0  0  0  0  0  0  0  0  0
   29.5018   67.5397   -5.1401 N   0  0  0  0  0  0  0  0  0  0  0  0
   30.2484   68.0620   -4.0762 C   0  0  0  0  0  0  0  0  0  0  0  0
   28.8708   70.0483   -4.3355 C   0  0  0  0  0  0  0  0  0  0  0  0
   28.1693   69.5366   -5.3491 C   0  0  0  0  0  0  0  0  0  0  0  0
   28.4758   68.1720   -5.8243 C   0  0  0  0  0  0  0  0  0  0  0  0
   29.7308   66.6279   -5.4334 H   0  0  0  0  0  0  0  0  0  0  0  0
   25.0386   72.2027   -1.8284 O   0  0  0  0  0  0  0  0  0  0  0  0
   25.0602   71.4989   -3.2834 P   0  0  2  0  0  0  0  0  0  0  0  0
   25.5395   69.9884   -2.9579 O   0  0  0  0  0  0  0  0  0  0  0  0
   25.9056   72.2115   -4.2991 O   0  0  0  0  0  0  0  0  0  0  0  0
   23.5051   71.3544   -3.6905 O   0  0  0  0  0  0  0  0  0  0  0  0
   22.2892   70.4717   -1.8577 O   0  0  0  0  0  0  0  0  0  0  0  0
   19.3008   70.4433   -4.7072 O   0  0  0  0  0  0  0  0  0  0  0  0
   19.2166   72.3747   -2.5834 O   0  0  0  0  0  0  0  0  0  0  0  0
   22.0131   69.7593   -5.4524 O   0  0  0  0  0  0  0  0  0  0  0  0
   20.4627   70.9470   -4.0427 C   0  0  1  0  0  0  0  0  0  0  0  0
   20.0909   71.2496   -2.5898 C   0  0  1  0  0  0  0  0  0  0  0  0
   21.5693   69.8959   -4.1067 C   0  0  2  0  0  0  0  0  0  0  0  0
   21.3403   71.5390   -1.7470 C   0  0  1  0  0  0  0  0  0  0  0  0
   22.7438   70.2561   -3.1951 C   0  0  1  0  0  0  0  0  0  0  0  0
   18.5945   71.1061   -4.6706 H   0  0  0  0  0  0  0  0  0  0  0  0
   18.4320   72.1791   -3.1195 H   0  0  0  0  0  0  0  0  0  0  0  0
   21.2605   69.5309   -6.0193 H   0  0  0  0  0  0  0  0  0  0  0  0
   22.1928   71.4886    0.4845 O   0  0  0  0  0  0  0  0  0  0  0  0
   21.0078   71.6882   -0.2640 C   0  0  0  0  0  0  0  0  0  0  0  0
   21.9964   71.5809    1.4304 H   0  0  0  0  0  0  0  0  0  0  0  0
 25 28  1  0
 25 24  1  0
 25 26  1  1
 25 27  2  0
  1  4  1  0
  1 24  1  0
  1  2  1  1
  1  3  2  0
  6 11  1  0
  6 12  1  0
 29 36  1  0
 29 37  1  0
  9  7  1  1
  7 13  1  0
 10  8  1  1
  8 14  1  0
 37 28  1  6
  4  5  1  0
 33 30  1  6
 30 38  1  0
 34 31  1  6
 31 39  1  0
 35 32  1  6
 32 40  1  0
 41 42  1  0
 41 43  1  0
 15 19  2  0
 16 22  2  0
 12 17  1  6
 17 19  1  0
 17 20  1  0
 18 19  1  0
 18 22  1  0
 18 23  1  0
  9 10  1  0
  9 11  1  0
 10 12  1  0
 11  5  1  6
 33 34  1  0
 33 35  1  0
 34 36  1  0
 35 37  1  0
 36 42  1  1
 20 21  2  0
 21 22  1  0
M  CHG  2   2  -1  26  -1
M  END
>  <COMPND>  (132) 
    8629 

>  <AUTHOR>  (132) 
    GENERATED BY OPEN BABEL 3.1.1

>  <MASTER>  (132) 
        0    0    0    0    0    0    0    0   58    0   58    0

>  <minimizedAffinity>  (132) 
-6.55190

>  <CNNscore>  (132) 
0.3798196614

>  <CNNaffinity>  (132) 
4.1522707939

>  <CNN_VS>  (132) 
1.5771141052

>  <CNNaffinity_variance>  (132) 
0.0982284918

$$$$
133
     RDKit          3D

 43 45  0  0  0  0  0  0  0  0999 V2000
   24.7573   73.7126   -4.9773 P   0  0  2  0  0  0  0  0  0  0  0  0
   25.0448   74.6397   -6.2715 O   0  0  0  0  0  0  0  0  0  0  0  0
   24.1624   74.4315   -3.8022 O   0  0  0  0  0  0  0  0  0  0  0  0
   26.1711   72.9739   -4.7068 O   0  0  0  0  0  0  0  0  0  0  0  0
   26.1713   71.5742   -4.4858 C   0  0  0  0  0  0  0  0  0  0  0  0
   27.3614   69.9033   -3.2346 O   0  0  0  0  0  0  0  0  0  0  0  0
   28.4722   72.1722   -1.6193 O   0  0  0  0  0  0  0  0  0  0  0  0
   30.5268   71.5875   -3.3144 O   0  0  0  0  0  0  0  0  0  0  0  0
   28.1734   72.1186   -3.0133 C   0  0  1  0  0  0  0  0  0  0  0  0
   29.2128   71.2930   -3.7425 C   0  0  2  0  0  0  0  0  0  0  0  0
   26.9161   71.2767   -3.1917 C   0  0  1  0  0  0  0  0  0  0  0  0
   28.7890   69.8757   -3.3963 C   0  0  2  0  0  0  0  0  0  0  0  0
   29.2715   72.7050   -1.4804 H   0  0  0  0  0  0  0  0  0  0  0  0
   30.7495   72.4997   -3.5576 H   0  0  0  0  0  0  0  0  0  0  0  0
   30.9724   68.0876   -3.2818 O   0  0  0  0  0  0  0  0  0  0  0  0
   29.9759   66.3178   -7.4190 O   0  0  0  0  0  0  0  0  0  0  0  0
   29.1232   68.9364   -4.4294 N   0  0  0  0  0  0  0  0  0  0  0  0
   30.4743   67.2077   -5.3418 N   0  0  0  0  0  0  0  0  0  0  0  0
   30.2409   68.0837   -4.2741 C   0  0  0  0  0  0  0  0  0  0  0  0
   28.3463   68.8670   -5.5808 C   0  0  0  0  0  0  0  0  0  0  0  0
   28.5830   68.0269   -6.5904 C   0  0  0  0  0  0  0  0  0  0  0  0
   29.7318   67.1021   -6.5073 C   0  0  0  0  0  0  0  0  0  0  0  0
   31.2479   66.6044   -5.2559 H   0  0  0  0  0  0  0  0  0  0  0  0
   23.8367   72.5269   -5.5769 O   0  0  0  0  0  0  0  0  0  0  0  0
   22.2304   72.3825   -5.6871 P   0  0  2  0  0  0  0  0  0  0  0  0
   22.0342   70.9234   -6.3579 O   0  0  0  0  0  0  0  0  0  0  0  0
   21.5617   73.5014   -6.4318 O   0  0  0  0  0  0  0  0  0  0  0  0
   21.7311   72.2010   -4.1630 O   0  0  0  0  0  0  0  0  0  0  0  0
   23.0828   71.7052   -2.2806 O   0  0  0  0  0  0  0  0  0  0  0  0
   19.5933   69.8420   -1.0963 O   0  0  0  0  0  0  0  0  0  0  0  0
   20.4017   72.2831    0.1825 O   0  0  0  0  0  0  0  0  0  0  0  0
   20.4152   69.7398   -3.8700 O   0  0  0  0  0  0  0  0  0  0  0  0
   20.3791   70.8525   -1.7342 C   0  0  1  0  0  0  0  0  0  0  0  0
   21.2520   71.5230   -0.6716 C   0  0  1  0  0  0  0  0  0  0  0  0
   21.2463   70.2043   -2.8118 C   0  0  2  0  0  0  0  0  0  0  0  0
   22.3105   72.4288   -1.3152 C   0  0  1  0  0  0  0  0  0  0  0  0
   22.2976   71.1761   -3.3508 C   0  0  1  0  0  0  0  0  0  0  0  0
   19.0399   70.2470   -0.4113 H   0  0  0  0  0  0  0  0  0  0  0  0
   19.7377   71.6995    0.5822 H   0  0  0  0  0  0  0  0  0  0  0  0
   19.7542   69.1253   -3.5160 H   0  0  0  0  0  0  0  0  0  0  0  0
   24.0740   73.9878   -0.9044 O   0  0  0  0  0  0  0  0  0  0  0  0
   23.2914   72.9838   -0.2847 C   0  0  0  0  0  0  0  0  0  0  0  0
   24.7027   74.3504   -0.2602 H   0  0  0  0  0  0  0  0  0  0  0  0
 25 28  1  0
 25 24  1  0
 25 26  1  6
 25 27  2  0
  1  4  1  0
  1 24  1  0
  1  2  1  6
  1  3  2  0
  6 11  1  0
  6 12  1  0
 29 36  1  0
 29 37  1  0
  9  7  1  1
  7 13  1  0
 10  8  1  1
  8 14  1  0
 37 28  1  1
  4  5  1  0
 33 30  1  1
 30 38  1  0
 34 31  1  1
 31 39  1  0
 35 32  1  6
 32 40  1  0
 41 42  1  0
 41 43  1  0
 15 19  2  0
 16 22  2  0
 12 17  1  6
 17 19  1  0
 17 20  1  0
 18 19  1  0
 18 22  1  0
 18 23  1  0
  9 10  1  0
  9 11  1  0
 10 12  1  0
 11  5  1  6
 33 34  1  0
 33 35  1  0
 34 36  1  0
 35 37  1  0
 36 42  1  1
 20 21  2  0
 21 22  1  0
M  CHG  2   2  -1  26  -1
M  END
>  <COMPND>  (133) 
    8629 

>  <AUTHOR>  (133) 
    GENERATED BY OPEN BABEL 3.1.1

>  <MASTER>  (133) 
        0    0    0    0    0    0    0    0   58    0   58    0

>  <minimizedAffinity>  (133) 
-7.23264

>  <CNNscore>  (133) 
0.3778351545

>  <CNNaffinity>  (133) 
4.2080793381

>  <CNN_VS>  (133) 
1.5899603367

>  <CNNaffinity_variance>  (133) 
0.0906674191

$$$$
134
     RDKit          3D

 43 45  0  0  0  0  0  0  0  0999 V2000
   23.0564   69.9742   -3.2717 P   0  0  2  0  0  0  0  0  0  0  0  0
   22.4196   68.5366   -2.8906 O   0  0  0  0  0  0  0  0  0  0  0  0
   22.6801   71.0981   -2.3515 O   0  0  0  0  0  0  0  0  0  0  0  0
   22.6576   70.1758   -4.8267 O   0  0  0  0  0  0  0  0  0  0  0  0
   21.5384   70.9872   -5.1379 C   0  0  0  0  0  0  0  0  0  0  0  0
   21.7282   71.9451   -7.3334 O   0  0  0  0  0  0  0  0  0  0  0  0
   22.0961   74.5790   -5.9484 O   0  0  0  0  0  0  0  0  0  0  0  0
   19.4837   74.6755   -6.7248 O   0  0  0  0  0  0  0  0  0  0  0  0
   21.2660   73.4769   -5.5854 C   0  0  1  0  0  0  0  0  0  0  0  0
   20.0590   73.4050   -6.4972 C   0  0  2  0  0  0  0  0  0  0  0  0
   22.0083   72.1941   -5.9385 C   0  0  1  0  0  0  0  0  0  0  0  0
   20.6518   72.7975   -7.7573 C   0  0  2  0  0  0  0  0  0  0  0  0
   21.6433   75.4097   -5.7320 H   0  0  0  0  0  0  0  0  0  0  0  0
   19.1207   75.0197   -5.8938 H   0  0  0  0  0  0  0  0  0  0  0  0
   20.9784   71.9827  -10.4419 O   0  0  0  0  0  0  0  0  0  0  0  0
   16.9221   69.7947  -10.4632 O   0  0  0  0  0  0  0  0  0  0  0  0
   19.6968   72.0139   -8.4890 N   0  0  0  0  0  0  0  0  0  0  0  0
   18.9585   70.8938  -10.4503 N   0  0  0  0  0  0  0  0  0  0  0  0
   19.9565   71.6588   -9.8332 C   0  0  0  0  0  0  0  0  0  0  0  0
   18.5185   71.6055   -7.8737 C   0  0  0  0  0  0  0  0  0  0  0  0
   17.5763   70.8774   -8.4764 C   0  0  0  0  0  0  0  0  0  0  0  0
   17.7699   70.4644   -9.8813 C   0  0  0  0  0  0  0  0  0  0  0  0
   19.1175   70.6349  -11.3870 H   0  0  0  0  0  0  0  0  0  0  0  0
   24.6412   69.6630   -3.3405 O   0  0  0  0  0  0  0  0  0  0  0  0
   25.8985   70.6244   -3.6690 P   0  0  2  0  0  0  0  0  0  0  0  0
   26.6189   70.7976   -2.2308 O   0  0  0  0  0  0  0  0  0  0  0  0
   25.5269   71.9174   -4.3352 O   0  0  0  0  0  0  0  0  0  0  0  0
   26.9086   69.6986   -4.5220 O   0  0  0  0  0  0  0  0  0  0  0  0
   26.8954   67.3578   -4.8924 O   0  0  0  0  0  0  0  0  0  0  0  0
   30.9728   67.9650   -4.6535 O   0  0  0  0  0  0  0  0  0  0  0  0
   29.7706   67.3963   -7.1990 O   0  0  0  0  0  0  0  0  0  0  0  0
   29.1896   69.4334   -2.9090 O   0  0  0  0  0  0  0  0  0  0  0  0
   29.6232   68.2989   -4.9889 C   0  0  1  0  0  0  0  0  0  0  0  0
   29.0928   67.2383   -5.9557 C   0  0  1  0  0  0  0  0  0  0  0  0
   28.7847   68.3302   -3.7124 C   0  0  2  0  0  0  0  0  0  0  0  0
   27.5771   67.3762   -6.1521 C   0  0  1  0  0  0  0  0  0  0  0  0
   27.2891   68.4197   -4.0211 C   0  0  1  0  0  0  0  0  0  0  0  0
   31.5106   67.9439   -5.4596 H   0  0  0  0  0  0  0  0  0  0  0  0
   30.7268   67.3075   -7.0610 H   0  0  0  0  0  0  0  0  0  0  0  0
   30.1380   69.3650   -2.7203 H   0  0  0  0  0  0  0  0  0  0  0  0
   26.7753   66.7081   -8.3015 O   0  0  0  0  0  0  0  0  0  0  0  0
   27.0023   66.2339   -6.9870 C   0  0  0  0  0  0  0  0  0  0  0  0
   26.4098   65.9917   -8.8444 H   0  0  0  0  0  0  0  0  0  0  0  0
 25 28  1  0
 25 24  1  0
 25 26  1  1
 25 27  2  0
  1  4  1  0
  1 24  1  0
  1  2  1  1
  1  3  2  0
  6 11  1  0
  6 12  1  0
 29 36  1  0
 29 37  1  0
  9  7  1  6
  7 13  1  0
 10  8  1  6
  8 14  1  0
 37 28  1  6
  4  5  1  0
 33 30  1  1
 30 38  1  0
 34 31  1  6
 31 39  1  0
 35 32  1  1
 32 40  1  0
 41 42  1  0
 41 43  1  0
 15 19  2  0
 16 22  2  0
 12 17  1  1
 17 19  1  0
 17 20  1  0
 18 19  1  0
 18 22  1  0
 18 23  1  0
  9 10  1  0
  9 11  1  0
 10 12  1  0
 11  5  1  1
 33 34  1  0
 33 35  1  0
 34 36  1  0
 35 37  1  0
 36 42  1  6
 20 21  2  0
 21 22  1  0
M  CHG  2   2  -1  26  -1
M  END
>  <COMPND>  (134) 
    8629 

>  <AUTHOR>  (134) 
    GENERATED BY OPEN BABEL 3.1.1

>  <MASTER>  (134) 
        0    0    0    0    0    0    0    0   58    0   58    0

>  <minimizedAffinity>  (134) 
-7.90544

>  <CNNscore>  (134) 
0.3368998468

>  <CNNaffinity>  (134) 
4.3450775146

>  <CNN_VS>  (134) 
1.4638559818

>  <CNNaffinity_variance>  (134) 
0.1298661381

$$$$
135
     RDKit          3D

 43 45  0  0  0  0  0  0  0  0999 V2000
   25.8859   72.1287   -1.0042 P   0  0  2  0  0  0  0  0  0  0  0  0
   25.9240   73.6227   -1.6239 O   0  0  0  0  0  0  0  0  0  0  0  0
   25.5284   72.0551    0.4512 O   0  0  0  0  0  0  0  0  0  0  0  0
   27.3232   71.5044   -1.4071 O   0  0  0  0  0  0  0  0  0  0  0  0
   28.4435   72.3699   -1.4672 C   0  0  0  0  0  0  0  0  0  0  0  0
   29.5881   70.2582   -1.5320 O   0  0  0  0  0  0  0  0  0  0  0  0
   32.0470   71.7788   -0.7364 O   0  0  0  0  0  0  0  0  0  0  0  0
   32.4013   71.4370   -3.4186 O   0  0  0  0  0  0  0  0  0  0  0  0
   30.9773   72.1772   -1.5923 C   0  0  1  0  0  0  0  0  0  0  0  0
   31.0775   71.4655   -2.9253 C   0  0  2  0  0  0  0  0  0  0  0  0
   29.6840   71.6068   -1.0236 C   0  0  1  0  0  0  0  0  0  0  0  0
   30.5509   70.0818   -2.5841 C   0  0  2  0  0  0  0  0  0  0  0  0
   32.8836   72.1317   -1.0792 H   0  0  0  0  0  0  0  0  0  0  0  0
   32.6906   72.3405   -3.6210 H   0  0  0  0  0  0  0  0  0  0  0  0
   31.0436   67.4271   -3.4135 O   0  0  0  0  0  0  0  0  0  0  0  0
   28.0329   67.7596   -6.8872 O   0  0  0  0  0  0  0  0  0  0  0  0
   29.9094   69.4489   -3.7019 N   0  0  0  0  0  0  0  0  0  0  0  0
   29.5440   67.5948   -5.1423 N   0  0  0  0  0  0  0  0  0  0  0  0
   30.2286   68.1120   -4.0351 C   0  0  0  0  0  0  0  0  0  0  0  0
   28.9752   70.1525   -4.4542 C   0  0  0  0  0  0  0  0  0  0  0  0
   28.3320   69.6453   -5.5079 C   0  0  0  0  0  0  0  0  0  0  0  0
   28.6078   68.2546   -5.9227 C   0  0  0  0  0  0  0  0  0  0  0  0
   29.7505   66.6652   -5.3934 H   0  0  0  0  0  0  0  0  0  0  0  0
   24.8643   71.3531   -1.9880 O   0  0  0  0  0  0  0  0  0  0  0  0
   25.0379   70.8464   -3.5131 P   0  0  2  0  0  0  0  0  0  0  0  0
   25.7005   69.3802   -3.3438 O   0  0  0  0  0  0  0  0  0  0  0  0
   25.8210   71.7827   -4.3872 O   0  0  0  0  0  0  0  0  0  0  0  0
   23.5335   70.5576   -4.0214 O   0  0  0  0  0  0  0  0  0  0  0  0
   22.2575   72.5056   -3.5813 O   0  0  0  0  0  0  0  0  0  0  0  0
   19.2680   70.0832   -5.0798 O   0  0  0  0  0  0  0  0  0  0  0  0
   20.2550   72.2638   -6.6668 O   0  0  0  0  0  0  0  0  0  0  0  0
   21.3199   68.9582   -3.3758 O   0  0  0  0  0  0  0  0  0  0  0  0
   20.5967   70.6027   -4.9801 C   0  0  1  0  0  0  0  0  0  0  0  0
   20.5493   72.1018   -5.2821 C   0  0  1  0  0  0  0  0  0  0  0  0
   21.1249   70.3551   -3.5684 C   0  0  2  0  0  0  0  0  0  0  0  0
   21.8824   72.7790   -4.9364 C   0  0  1  0  0  0  0  0  0  0  0  0
   22.4289   71.1127   -3.3122 C   0  0  1  0  0  0  0  0  0  0  0  0
   18.9269   70.2367   -5.9740 H   0  0  0  0  0  0  0  0  0  0  0  0
   19.4112   71.8313   -6.8720 H   0  0  0  0  0  0  0  0  0  0  0  0
   20.4872   68.4898   -3.5406 H   0  0  0  0  0  0  0  0  0  0  0  0
   21.9124   74.6240   -6.4542 O   0  0  0  0  0  0  0  0  0  0  0  0
   21.8070   74.2974   -5.0807 C   0  0  0  0  0  0  0  0  0  0  0  0
   21.8656   75.5874   -6.5614 H   0  0  0  0  0  0  0  0  0  0  0  0
 25 28  1  0
 25 24  1  0
 25 26  1  1
 25 27  2  0
  1  4  1  0
  1 24  1  0
  1  2  1  6
  1  3  2  0
  6 11  1  0
  6 12  1  0
 29 36  1  0
 29 37  1  0
  9  7  1  1
  7 13  1  0
 10  8  1  1
  8 14  1  0
 37 28  1  6
  4  5  1  0
 33 30  1  1
 30 38  1  0
 34 31  1  6
 31 39  1  0
 35 32  1  6
 32 40  1  0
 41 42  1  0
 41 43  1  0
 15 19  2  0
 16 22  2  0
 12 17  1  6
 17 19  1  0
 17 20  1  0
 18 19  1  0
 18 22  1  0
 18 23  1  0
  9 10  1  0
  9 11  1  0
 10 12  1  0
 11  5  1  6
 33 34  1  0
 33 35  1  0
 34 36  1  0
 35 37  1  0
 36 42  1  1
 20 21  2  0
 21 22  1  0
M  CHG  2   2  -1  26  -1
M  END
>  <COMPND>  (135) 
    8629 

>  <AUTHOR>  (135) 
    GENERATED BY OPEN BABEL 3.1.1

>  <MASTER>  (135) 
        0    0    0    0    0    0    0    0   58    0   58    0

>  <minimizedAffinity>  (135) 
-6.71377

>  <CNNscore>  (135) 
0.3094751835

>  <CNNaffinity>  (135) 
4.2246026993

>  <CNN_VS>  (135) 
1.3074096441

>  <CNNaffinity_variance>  (135) 
0.0592334494

$$$$
136
     RDKit          3D

 43 45  0  0  0  0  0  0  0  0999 V2000
   23.1232   70.0366   -3.2568 P   0  0  2  0  0  0  0  0  0  0  0  0
   22.4280   68.5809   -3.1345 O   0  0  0  0  0  0  0  0  0  0  0  0
   22.9083   70.9425   -2.0801 O   0  0  0  0  0  0  0  0  0  0  0  0
   22.5999   70.5986   -4.6809 O   0  0  0  0  0  0  0  0  0  0  0  0
   21.2090   70.5690   -4.9496 C   0  0  0  0  0  0  0  0  0  0  0  0
   19.7633   72.3821   -5.5793 O   0  0  0  0  0  0  0  0  0  0  0  0
   19.5851   73.0095   -2.6527 O   0  0  0  0  0  0  0  0  0  0  0  0
   17.2421   71.6957   -3.1226 O   0  0  0  0  0  0  0  0  0  0  0  0
   19.6666   71.7408   -3.3000 C   0  0  1  0  0  0  0  0  0  0  0  0
   18.3446   71.3990   -3.9552 C   0  0  2  0  0  0  0  0  0  0  0  0
   20.5897   71.8864   -4.5034 C   0  0  1  0  0  0  0  0  0  0  0  0
   18.3809   72.2604   -5.2062 C   0  0  2  0  0  0  0  0  0  0  0  0
   19.0011   72.9414   -1.8805 H   0  0  0  0  0  0  0  0  0  0  0  0
   17.2635   71.1219   -2.3409 H   0  0  0  0  0  0  0  0  0  0  0  0
   15.8585   73.1568   -6.1071 O   0  0  0  0  0  0  0  0  0  0  0  0
   15.6834   69.9330   -9.3962 O   0  0  0  0  0  0  0  0  0  0  0  0
   17.6536   71.6739   -6.2963 N   0  0  0  0  0  0  0  0  0  0  0  0
   15.7734   71.5510   -7.7442 N   0  0  0  0  0  0  0  0  0  0  0  0
   16.3941   72.1988   -6.6685 C   0  0  0  0  0  0  0  0  0  0  0  0
   18.1898   70.5906   -6.9840 C   0  0  0  0  0  0  0  0  0  0  0  0
   17.5847   69.9833   -8.0068 C   0  0  0  0  0  0  0  0  0  0  0  0
   16.2653   70.4702   -8.4588 C   0  0  0  0  0  0  0  0  0  0  0  0
   14.8948   71.8992   -8.0209 H   0  0  0  0  0  0  0  0  0  0  0  0
   24.6707   69.6765   -3.5547 O   0  0  0  0  0  0  0  0  0  0  0  0
   25.9641   70.6271   -3.7454 P   0  0  2  0  0  0  0  0  0  0  0  0
   26.5624   70.7445   -2.2468 O   0  0  0  0  0  0  0  0  0  0  0  0
   25.6676   71.9458   -4.3989 O   0  0  0  0  0  0  0  0  0  0  0  0
   27.0303   69.7119   -4.5394 O   0  0  0  0  0  0  0  0  0  0  0  0
   26.9489   67.3743   -4.9212 O   0  0  0  0  0  0  0  0  0  0  0  0
   31.0395   67.8520   -4.6225 O   0  0  0  0  0  0  0  0  0  0  0  0
   29.8561   67.3325   -7.1872 O   0  0  0  0  0  0  0  0  0  0  0  0
   29.2788   69.3681   -2.8960 O   0  0  0  0  0  0  0  0  0  0  0  0
   29.7059   68.2296   -4.9751 C   0  0  1  0  0  0  0  0  0  0  0  0
   29.1562   67.1904   -5.9542 C   0  0  1  0  0  0  0  0  0  0  0  0
   28.8510   68.2817   -3.7103 C   0  0  2  0  0  0  0  0  0  0  0  0
   27.6485   67.3767   -6.1711 C   0  0  1  0  0  0  0  0  0  0  0  0
   27.3634   68.4195   -4.0394 C   0  0  1  0  0  0  0  0  0  0  0  0
   31.5877   67.8175   -5.4211 H   0  0  0  0  0  0  0  0  0  0  0  0
   30.8070   67.2131   -7.0363 H   0  0  0  0  0  0  0  0  0  0  0  0
   30.2219   69.2691   -2.6944 H   0  0  0  0  0  0  0  0  0  0  0  0
   26.7742   66.7689   -8.3101 O   0  0  0  0  0  0  0  0  0  0  0  0
   27.0500   66.2567   -7.0194 C   0  0  0  0  0  0  0  0  0  0  0  0
   26.3931   66.0670   -8.8612 H   0  0  0  0  0  0  0  0  0  0  0  0
 25 28  1  0
 25 24  1  0
 25 26  1  1
 25 27  2  0
  1  4  1  0
  1 24  1  0
  1  2  1  1
  1  3  2  0
  6 11  1  0
  6 12  1  0
 29 36  1  0
 29 37  1  0
  9  7  1  6
  7 13  1  0
 10  8  1  1
  8 14  1  0
 37 28  1  6
  4  5  1  0
 33 30  1  1
 30 38  1  0
 34 31  1  6
 31 39  1  0
 35 32  1  1
 32 40  1  0
 41 42  1  0
 41 43  1  0
 15 19  2  0
 16 22  2  0
 12 17  1  6
 17 19  1  0
 17 20  1  0
 18 19  1  0
 18 22  1  0
 18 23  1  0
  9 10  1  0
  9 11  1  0
 10 12  1  0
 11  5  1  6
 33 34  1  0
 33 35  1  0
 34 36  1  0
 35 37  1  0
 36 42  1  6
 20 21  2  0
 21 22  1  0
M  CHG  2   2  -1  26  -1
M  END
>  <COMPND>  (136) 
    8629 

>  <AUTHOR>  (136) 
    GENERATED BY OPEN BABEL 3.1.1

>  <MASTER>  (136) 
        0    0    0    0    0    0    0    0   58    0   58    0

>  <minimizedAffinity>  (136) 
-7.29647

>  <CNNscore>  (136) 
0.3052211106

>  <CNNaffinity>  (136) 
4.2439699173

>  <CNN_VS>  (136) 
1.2953492403

>  <CNNaffinity_variance>  (136) 
0.0434875302

$$$$
137
     RDKit          3D

 43 45  0  0  0  0  0  0  0  0999 V2000
   30.1172   72.1801    2.6191 P   0  0  2  0  0  0  0  0  0  0  0  0
   30.3900   72.9343    4.0241 O   0  0  0  0  0  0  0  0  0  0  0  0
   29.8669   73.0876    1.4507 O   0  0  0  0  0  0  0  0  0  0  0  0
   28.9313   71.1346    2.9634 O   0  0  0  0  0  0  0  0  0  0  0  0
   27.7417   71.1845    2.1951 C   0  0  0  0  0  0  0  0  0  0  0  0
   25.8890   72.7018    1.9977 O   0  0  0  0  0  0  0  0  0  0  0  0
   25.1697   71.8921    4.7937 O   0  0  0  0  0  0  0  0  0  0  0  0
   23.4307   70.4300    3.2855 O   0  0  0  0  0  0  0  0  0  0  0  0
   25.7219   71.1045    3.7402 C   0  0  1  0  0  0  0  0  0  0  0  0
   24.6631   70.7995    2.7012 C   0  0  2  0  0  0  0  0  0  0  0  0
   26.6920   71.9810    2.9579 C   0  0  1  0  0  0  0  0  0  0  0  0
   24.5797   72.1125    1.9415 C   0  0  2  0  0  0  0  0  0  0  0  0
   24.5471   71.3535    5.3077 H   0  0  0  0  0  0  0  0  0  0  0  0
   23.5355   69.5889    3.7570 H   0  0  0  0  0  0  0  0  0  0  0  0
   21.9463   71.6146    1.0497 O   0  0  0  0  0  0  0  0  0  0  0  0
   23.2805   71.4165   -3.3573 O   0  0  0  0  0  0  0  0  0  0  0  0
   24.2103   71.9272    0.5665 N   0  0  0  0  0  0  0  0  0  0  0  0
   22.6127   71.5165   -1.1439 N   0  0  0  0  0  0  0  0  0  0  0  0
   22.8599   71.6815    0.2249 C   0  0  0  0  0  0  0  0  0  0  0  0
   25.1818   71.9901   -0.4265 C   0  0  0  0  0  0  0  0  0  0  0  0
   24.9298   71.8293   -1.7273 C   0  0  0  0  0  0  0  0  0  0  0  0
   23.5444   71.5689   -2.1686 C   0  0  0  0  0  0  0  0  0  0  0  0
   21.6791   71.3440   -1.4055 H   0  0  0  0  0  0  0  0  0  0  0  0
   31.4108   71.2235    2.4629 O   0  0  0  0  0  0  0  0  0  0  0  0
   32.2766   70.8131    1.1610 P   0  0  2  0  0  0  0  0  0  0  0  0
   32.6124   69.2512    1.4160 O   0  0  0  0  0  0  0  0  0  0  0  0
   33.4829   71.6757    0.9273 O   0  0  0  0  0  0  0  0  0  0  0  0
   31.2124   70.8084   -0.0524 O   0  0  0  0  0  0  0  0  0  0  0  0
   31.5002   69.9224   -2.2315 O   0  0  0  0  0  0  0  0  0  0  0  0
   29.0116   73.0922   -3.1315 O   0  0  0  0  0  0  0  0  0  0  0  0
   27.9850   70.4118   -3.2280 O   0  0  0  0  0  0  0  0  0  0  0  0
   31.0718   73.3993   -1.1213 O   0  0  0  0  0  0  0  0  0  0  0  0
   29.5162   72.0173   -2.3344 C   0  0  1  0  0  0  0  0  0  0  0  0
   29.3729   70.7200   -3.1326 C   0  0  1  0  0  0  0  0  0  0  0  0
   30.9832   72.2864   -2.0045 C   0  0  2  0  0  0  0  0  0  0  0  0
   30.1310   69.5683   -2.4587 C   0  0  1  0  0  0  0  0  0  0  0  0
   31.6563   71.0614   -1.3829 C   0  0  1  0  0  0  0  0  0  0  0  0
   28.0803   72.9277   -3.3441 H   0  0  0  0  0  0  0  0  0  0  0  0
   27.5178   71.1471   -3.6548 H   0  0  0  0  0  0  0  0  0  0  0  0
   30.6424   74.1684   -1.5264 H   0  0  0  0  0  0  0  0  0  0  0  0
   28.8210   67.7746   -3.3392 O   0  0  0  0  0  0  0  0  0  0  0  0
   30.1333   68.3054   -3.3172 C   0  0  0  0  0  0  0  0  0  0  0  0
   28.8072   66.9705   -3.8823 H   0  0  0  0  0  0  0  0  0  0  0  0
 25 28  1  0
 25 24  1  0
 25 26  1  1
 25 27  2  0
  1  4  1  0
  1 24  1  0
  1  2  1  1
  1  3  2  0
  6 11  1  0
  6 12  1  0
 29 36  1  0
 29 37  1  0
  9  7  1  1
  7 13  1  0
 10  8  1  1
  8 14  1  0
 37 28  1  1
  4  5  1  0
 33 30  1  6
 30 38  1  0
 34 31  1  1
 31 39  1  0
 35 32  1  1
 32 40  1  0
 41 42  1  0
 41 43  1  0
 15 19  2  0
 16 22  2  0
 12 17  1  6
 17 19  1  0
 17 20  1  0
 18 19  1  0
 18 22  1  0
 18 23  1  0
  9 10  1  0
  9 11  1  0
 10 12  1  0
 11  5  1  6
 33 34  1  0
 33 35  1  0
 34 36  1  0
 35 37  1  0
 36 42  1  6
 20 21  2  0
 21 22  1  0
M  CHG  2   2  -1  26  -1
M  END
>  <COMPND>  (137) 
    8629 

>  <AUTHOR>  (137) 
    GENERATED BY OPEN BABEL 3.1.1

>  <MASTER>  (137) 
        0    0    0    0    0    0    0    0   58    0   58    0

>  <minimizedAffinity>  (137) 
-6.42354

>  <CNNscore>  (137) 
0.2948249578

>  <CNNaffinity>  (137) 
3.6165626049

>  <CNN_VS>  (137) 
1.0662529469

>  <CNNaffinity_variance>  (137) 
0.6103874445

$$$$
138
     RDKit          3D

 43 45  0  0  0  0  0  0  0  0999 V2000
   31.1487   72.2696    2.6187 P   0  0  2  0  0  0  0  0  0  0  0  0
   31.9701   71.3952    3.7041 O   0  0  0  0  0  0  0  0  0  0  0  0
   31.7139   73.6321    2.3439 O   0  0  0  0  0  0  0  0  0  0  0  0
   29.6264   72.2377    3.1660 O   0  0  0  0  0  0  0  0  0  0  0  0
   28.6264   72.9124    2.4227 C   0  0  0  0  0  0  0  0  0  0  0  0
   26.9345   71.2109    2.5500 O   0  0  0  0  0  0  0  0  0  0  0  0
   26.6573   71.5276   -0.4188 O   0  0  0  0  0  0  0  0  0  0  0  0
   24.5319   72.9475    0.5314 O   0  0  0  0  0  0  0  0  0  0  0  0
   26.9245   72.5176    0.5731 C   0  0  1  0  0  0  0  0  0  0  0  0
   25.6685   72.8241    1.3618 C   0  0  2  0  0  0  0  0  0  0  0  0
   27.8206   71.8897    1.6333 C   0  0  1  0  0  0  0  0  0  0  0  0
   25.5833   71.6287    2.2956 C   0  0  2  0  0  0  0  0  0  0  0  0
   26.0868   71.9054   -1.1070 H   0  0  0  0  0  0  0  0  0  0  0  0
   24.6339   73.7219   -0.0435 H   0  0  0  0  0  0  0  0  0  0  0  0
   22.8499   71.1978    2.8617 O   0  0  0  0  0  0  0  0  0  0  0  0
   23.2728   72.9122    7.1188 O   0  0  0  0  0  0  0  0  0  0  0  0
   24.9526   71.9528    3.5441 N   0  0  0  0  0  0  0  0  0  0  0  0
   23.0627   72.0516    4.9810 N   0  0  0  0  0  0  0  0  0  0  0  0
   23.5735   71.6971    3.7259 C   0  0  0  0  0  0  0  0  0  0  0  0
   25.6999   72.5173    4.5720 C   0  0  0  0  0  0  0  0  0  0  0  0
   25.1975   72.8508    5.7627 C   0  0  0  0  0  0  0  0  0  0  0  0
   23.7646   72.6164    6.0342 C   0  0  0  0  0  0  0  0  0  0  0  0
   22.1040   71.8830    5.1304 H   0  0  0  0  0  0  0  0  0  0  0  0
   31.0928   71.2925    1.3322 O   0  0  0  0  0  0  0  0  0  0  0  0
   32.2740   70.6003    0.4727 P   0  0  2  0  0  0  0  0  0  0  0  0
   32.6815   69.3165    1.3688 O   0  0  0  0  0  0  0  0  0  0  0  0
   33.4175   71.5174    0.1485 O   0  0  0  0  0  0  0  0  0  0  0  0
   31.5297   69.9776   -0.8170 O   0  0  0  0  0  0  0  0  0  0  0  0
   31.7334   69.7926   -3.1709 O   0  0  0  0  0  0  0  0  0  0  0  0
   28.0385   71.6252   -2.9703 O   0  0  0  0  0  0  0  0  0  0  0  0
   28.2093   68.8556   -3.7107 O   0  0  0  0  0  0  0  0  0  0  0  0
   30.1326   72.3918   -1.1246 O   0  0  0  0  0  0  0  0  0  0  0  0
   29.0834   70.7489   -2.5394 C   0  0  1  0  0  0  0  0  0  0  0  0
   29.3371   69.7241   -3.6467 C   0  0  1  0  0  0  0  0  0  0  0  0
   30.3428   71.5696   -2.2675 C   0  0  2  0  0  0  0  0  0  0  0  0
   30.6158   68.9203   -3.3752 C   0  0  1  0  0  0  0  0  0  0  0  0
   31.5660   70.6749   -2.0594 C   0  0  1  0  0  0  0  0  0  0  0  0
   27.2358   71.1104   -3.1441 H   0  0  0  0  0  0  0  0  0  0  0  0
   27.4084   69.3757   -3.8821 H   0  0  0  0  0  0  0  0  0  0  0  0
   29.3558   72.9536   -1.2690 H   0  0  0  0  0  0  0  0  0  0  0  0
   30.4454   68.5620   -5.7314 O   0  0  0  0  0  0  0  0  0  0  0  0
   30.9735   68.0031   -4.5427 C   0  0  0  0  0  0  0  0  0  0  0  0
   30.6656   67.9890   -6.4830 H   0  0  0  0  0  0  0  0  0  0  0  0
 25 28  1  0
 25 24  1  0
 25 26  1  1
 25 27  2  0
  1  4  1  0
  1 24  1  0
  1  2  1  1
  1  3  2  0
  6 11  1  0
  6 12  1  0
 29 36  1  0
 29 37  1  0
  9  7  1  6
  7 13  1  0
 10  8  1  6
  8 14  1  0
 37 28  1  1
  4  5  1  0
 33 30  1  6
 30 38  1  0
 34 31  1  1
 31 39  1  0
 35 32  1  1
 32 40  1  0
 41 42  1  0
 41 43  1  0
 15 19  2  0
 16 22  2  0
 12 17  1  1
 17 19  1  0
 17 20  1  0
 18 19  1  0
 18 22  1  0
 18 23  1  0
  9 10  1  0
  9 11  1  0
 10 12  1  0
 11  5  1  1
 33 34  1  0
 33 35  1  0
 34 36  1  0
 35 37  1  0
 36 42  1  6
 20 21  2  0
 21 22  1  0
M  CHG  2   2  -1  26  -1
M  END
>  <COMPND>  (138) 
    8629 

>  <AUTHOR>  (138) 
    GENERATED BY OPEN BABEL 3.1.1

>  <MASTER>  (138) 
        0    0    0    0    0    0    0    0   58    0   58    0

>  <minimizedAffinity>  (138) 
-6.11250

>  <CNNscore>  (138) 
0.2948133349

>  <CNNaffinity>  (138) 
3.7535564899

>  <CNN_VS>  (138) 
1.1065984964

>  <CNNaffinity_variance>  (138) 
0.2669352889

$$$$
139
     RDKit          3D

 43 45  0  0  0  0  0  0  0  0999 V2000
   28.2291   72.4380    0.6571 P   0  0  2  0  0  0  0  0  0  0  0  0
   27.3907   73.6542    1.3169 O   0  0  0  0  0  0  0  0  0  0  0  0
   27.5084   71.6831   -0.4210 O   0  0  0  0  0  0  0  0  0  0  0  0
   28.7073   71.5606    1.9297 O   0  0  0  0  0  0  0  0  0  0  0  0
   29.1535   72.2402    3.0902 C   0  0  0  0  0  0  0  0  0  0  0  0
   31.1122   72.9258    4.3015 O   0  0  0  0  0  0  0  0  0  0  0  0
   32.5331   70.6874    2.9010 O   0  0  0  0  0  0  0  0  0  0  0  0
   32.0428   69.6299    5.3664 O   0  0  0  0  0  0  0  0  0  0  0  0
   31.1906   70.7438    3.3804 C   0  0  1  0  0  0  0  0  0  0  0  0
   31.1662   70.6308    4.8905 C   0  0  2  0  0  0  0  0  0  0  0  0
   30.6724   72.1593    3.1590 C   0  0  1  0  0  0  0  0  0  0  0  0
   31.5860   72.0270    5.3177 C   0  0  2  0  0  0  0  0  0  0  0  0
   32.8855   69.7925    3.0315 H   0  0  0  0  0  0  0  0  0  0  0  0
   31.7333   68.7604    5.0684 H   0  0  0  0  0  0  0  0  0  0  0  0
   33.0568   73.1210    7.4666 O   0  0  0  0  0  0  0  0  0  0  0  0
   29.2972   73.4500   10.1120 O   0  0  0  0  0  0  0  0  0  0  0  0
   31.0168   72.4080    6.5795 N   0  0  0  0  0  0  0  0  0  0  0  0
   31.1836   73.2841    8.7820 N   0  0  0  0  0  0  0  0  0  0  0  0
   31.8429   72.9471    7.5930 C   0  0  0  0  0  0  0  0  0  0  0  0
   29.6536   72.2462    6.8019 C   0  0  0  0  0  0  0  0  0  0  0  0
   29.0404   72.5713    7.9418 C   0  0  0  0  0  0  0  0  0  0  0  0
   29.8317   73.1410    9.0515 C   0  0  0  0  0  0  0  0  0  0  0  0
   31.7391   73.6611    9.5025 H   0  0  0  0  0  0  0  0  0  0  0  0
   29.5952   73.1565    0.1771 O   0  0  0  0  0  0  0  0  0  0  0  0
   30.7670   72.6532   -0.8160 P   0  0  2  0  0  0  0  0  0  0  0  0
   31.8681   72.0323    0.1938 O   0  0  0  0  0  0  0  0  0  0  0  0
   31.2974   73.7183   -1.7316 O   0  0  0  0  0  0  0  0  0  0  0  0
   30.1397   71.3727   -1.5722 O   0  0  0  0  0  0  0  0  0  0  0  0
   30.9862   70.0369   -3.3373 O   0  0  0  0  0  0  0  0  0  0  0  0
   27.0035   70.1199   -4.4244 O   0  0  0  0  0  0  0  0  0  0  0  0
   28.1310   67.7053   -3.3536 O   0  0  0  0  0  0  0  0  0  0  0  0
   28.2483   72.4883   -3.3197 O   0  0  0  0  0  0  0  0  0  0  0  0
   28.1049   70.0917   -3.5125 C   0  0  1  0  0  0  0  0  0  0  0  0
   28.9128   68.8194   -3.7755 C   0  0  1  0  0  0  0  0  0  0  0  0
   28.9682   71.3322   -3.7341 C   0  0  2  0  0  0  0  0  0  0  0  0
   30.2511   68.8479   -3.0250 C   0  0  1  0  0  0  0  0  0  0  0  0
   30.2970   71.2373   -2.9823 C   0  0  1  0  0  0  0  0  0  0  0  0
   26.4510   69.3351   -4.2886 H   0  0  0  0  0  0  0  0  0  0  0  0
   27.2886   67.6992   -3.8347 H   0  0  0  0  0  0  0  0  0  0  0  0
   27.4094   72.5372   -3.8030 H   0  0  0  0  0  0  0  0  0  0  0  0
   31.0270   67.4352   -4.7889 O   0  0  0  0  0  0  0  0  0  0  0  0
   31.1404   67.6632   -3.3962 C   0  0  0  0  0  0  0  0  0  0  0  0
   31.5879   66.6841   -5.0396 H   0  0  0  0  0  0  0  0  0  0  0  0
 25 28  1  0
 25 24  1  0
 25 26  1  1
 25 27  2  0
  1  4  1  0
  1 24  1  0
  1  2  1  1
  1  3  2  0
  6 11  1  0
  6 12  1  0
 29 36  1  0
 29 37  1  0
  9  7  1  1
  7 13  1  0
 10  8  1  6
  8 14  1  0
 37 28  1  1
  4  5  1  0
 33 30  1  6
 30 38  1  0
 34 31  1  1
 31 39  1  0
 35 32  1  1
 32 40  1  0
 41 42  1  0
 41 43  1  0
 15 19  2  0
 16 22  2  0
 12 17  1  1
 17 19  1  0
 17 20  1  0
 18 19  1  0
 18 22  1  0
 18 23  1  0
  9 10  1  0
  9 11  1  0
 10 12  1  0
 11  5  1  1
 33 34  1  0
 33 35  1  0
 34 36  1  0
 35 37  1  0
 36 42  1  6
 20 21  2  0
 21 22  1  0
M  CHG  2   2  -1  26  -1
M  END
>  <COMPND>  (139) 
    8629 

>  <AUTHOR>  (139) 
    GENERATED BY OPEN BABEL 3.1.1

>  <MASTER>  (139) 
        0    0    0    0    0    0    0    0   58    0   58    0

>  <minimizedAffinity>  (139) 
-6.31672

>  <CNNscore>  (139) 
0.2806622684

>  <CNNaffinity>  (139) 
3.5739986897

>  <CNN_VS>  (139) 
1.0030865669

>  <CNNaffinity_variance>  (139) 
0.2198999226

$$$$
140
     RDKit          3D

 43 45  0  0  0  0  0  0  0  0999 V2000
   27.6338   72.6153   -1.6515 P   0  0  2  0  0  0  0  0  0  0  0  0
   26.2837   73.4583   -1.9417 O   0  0  0  0  0  0  0  0  0  0  0  0
   27.6696   71.9126   -0.3262 O   0  0  0  0  0  0  0  0  0  0  0  0
   28.8217   73.6822   -1.9134 O   0  0  0  0  0  0  0  0  0  0  0  0
   29.7207   73.9663   -0.8556 C   0  0  0  0  0  0  0  0  0  0  0  0
   31.8742   73.2833   -0.0372 O   0  0  0  0  0  0  0  0  0  0  0  0
   32.3084   72.0660   -2.7428 O   0  0  0  0  0  0  0  0  0  0  0  0
   31.6473   69.9042   -1.2176 O   0  0  0  0  0  0  0  0  0  0  0  0
   31.1098   72.1515   -1.9738 C   0  0  1  0  0  0  0  0  0  0  0  0
   31.1517   71.1675   -0.8234 C   0  0  2  0  0  0  0  0  0  0  0  0
   31.1131   73.4907   -1.2471 C   0  0  1  0  0  0  0  0  0  0  0  0
   32.0678   71.8734    0.1618 C   0  0  2  0  0  0  0  0  0  0  0  0
   32.3287   71.2190   -3.2163 H   0  0  0  0  0  0  0  0  0  0  0  0
   31.0297   69.4955   -1.8439 H   0  0  0  0  0  0  0  0  0  0  0  0
   32.8167   69.4671    1.4372 O   0  0  0  0  0  0  0  0  0  0  0  0
   30.8295   70.7337    5.3979 O   0  0  0  0  0  0  0  0  0  0  0  0
   31.7596   71.5483    1.5259 N   0  0  0  0  0  0  0  0  0  0  0  0
   31.8268   70.0998    3.4084 N   0  0  0  0  0  0  0  0  0  0  0  0
   32.1810   70.3127    2.0700 C   0  0  0  0  0  0  0  0  0  0  0  0
   31.0473   72.4499    2.3092 C   0  0  0  0  0  0  0  0  0  0  0  0
   30.7163   72.2313    3.5835 C   0  0  0  0  0  0  0  0  0  0  0  0
   31.1187   70.9645    4.2279 C   0  0  0  0  0  0  0  0  0  0  0  0
   32.1094   69.2456    3.8086 H   0  0  0  0  0  0  0  0  0  0  0  0
   27.7344   71.6373   -2.9345 O   0  0  0  0  0  0  0  0  0  0  0  0
   26.5933   70.8289   -3.7452 P   0  0  2  0  0  0  0  0  0  0  0  0
   26.0487   71.9210   -4.8074 O   0  0  0  0  0  0  0  0  0  0  0  0
   25.5285   70.2279   -2.8740 O   0  0  0  0  0  0  0  0  0  0  0  0
   27.4072   69.7605   -4.6401 O   0  0  0  0  0  0  0  0  0  0  0  0
   27.0256   67.4905   -5.2041 O   0  0  0  0  0  0  0  0  0  0  0  0
   31.0930   67.3236   -4.5118 O   0  0  0  0  0  0  0  0  0  0  0  0
   30.1044   67.1496   -7.2026 O   0  0  0  0  0  0  0  0  0  0  0  0
   29.4099   68.9788   -2.8364 O   0  0  0  0  0  0  0  0  0  0  0  0
   29.8694   67.9200   -4.9505 C   0  0  1  0  0  0  0  0  0  0  0  0
   29.2737   67.0389   -6.0503 C   0  0  1  0  0  0  0  0  0  0  0  0
   28.9111   68.0224   -3.7654 C   0  0  2  0  0  0  0  0  0  0  0  0
   27.8375   67.4645   -6.3839 C   0  0  1  0  0  0  0  0  0  0  0  0
   27.4988   68.4040   -4.2124 C   0  0  1  0  0  0  0  0  0  0  0  0
   31.7062   67.2561   -5.2595 H   0  0  0  0  0  0  0  0  0  0  0  0
   31.0085   66.8784   -6.9783 H   0  0  0  0  0  0  0  0  0  0  0  0
   30.3043   68.7257   -2.5609 H   0  0  0  0  0  0  0  0  0  0  0  0
   28.0503   65.4210   -7.6037 O   0  0  0  0  0  0  0  0  0  0  0  0
   27.1692   66.5029   -7.3642 C   0  0  0  0  0  0  0  0  0  0  0  0
   27.6380   64.8006   -8.2257 H   0  0  0  0  0  0  0  0  0  0  0  0
 25 28  1  0
 25 24  1  0
 25 26  1  6
 25 27  2  0
  1  4  1  0
  1 24  1  0
  1  2  1  6
  1  3  2  0
  6 11  1  0
  6 12  1  0
 29 36  1  0
 29 37  1  0
  9  7  1  6
  7 13  1  0
 10  8  1  6
  8 14  1  0
 37 28  1  6
  4  5  1  0
 33 30  1  1
 30 38  1  0
 34 31  1  6
 31 39  1  0
 35 32  1  1
 32 40  1  0
 41 42  1  0
 41 43  1  0
 15 19  2  0
 16 22  2  0
 12 17  1  1
 17 19  1  0
 17 20  1  0
 18 19  1  0
 18 22  1  0
 18 23  1  0
  9 10  1  0
  9 11  1  0
 10 12  1  0
 11  5  1  1
 33 34  1  0
 33 35  1  0
 34 36  1  0
 35 37  1  0
 36 42  1  6
 20 21  2  0
 21 22  1  0
M  CHG  2   2  -1  26  -1
M  END
>  <COMPND>  (140) 
    8629 

>  <AUTHOR>  (140) 
    GENERATED BY OPEN BABEL 3.1.1

>  <MASTER>  (140) 
        0    0    0    0    0    0    0    0   58    0   58    0

>  <minimizedAffinity>  (140) 
-7.23865

>  <CNNscore>  (140) 
0.2795873284

>  <CNNaffinity>  (140) 
3.9659523964

>  <CNN_VS>  (140) 
1.1088300943

>  <CNNaffinity_variance>  (140) 
0.1263924390

$$$$
141
     RDKit          3D

 43 45  0  0  0  0  0  0  0  0999 V2000
   23.9247   73.5007   -5.0883 P   0  0  2  0  0  0  0  0  0  0  0  0
   24.9091   74.1809   -6.1772 O   0  0  0  0  0  0  0  0  0  0  0  0
   23.3183   74.4530   -4.1000 O   0  0  0  0  0  0  0  0  0  0  0  0
   24.8116   72.3035   -4.4573 O   0  0  0  0  0  0  0  0  0  0  0  0
   26.2237   72.4033   -4.5190 C   0  0  0  0  0  0  0  0  0  0  0  0
   26.6355   70.3511   -3.3390 O   0  0  0  0  0  0  0  0  0  0  0  0
   28.6685   71.8864   -1.7578 O   0  0  0  0  0  0  0  0  0  0  0  0
   30.2112   70.5306   -3.5518 O   0  0  0  0  0  0  0  0  0  0  0  0
   28.3219   72.0036   -3.1368 C   0  0  1  0  0  0  0  0  0  0  0  0
   28.8815   70.8348   -3.9207 C   0  0  2  0  0  0  0  0  0  0  0  0
   26.8199   71.7817   -3.2635 C   0  0  1  0  0  0  0  0  0  0  0  0
   27.9078   69.7234   -3.5673 C   0  0  2  0  0  0  0  0  0  0  0  0
   29.6233   72.0247   -1.6517 H   0  0  0  0  0  0  0  0  0  0  0  0
   30.7917   71.2678   -3.7973 H   0  0  0  0  0  0  0  0  0  0  0  0
   26.3483   67.3751   -3.3908 O   0  0  0  0  0  0  0  0  0  0  0  0
   27.4534   66.0994   -7.6794 O   0  0  0  0  0  0  0  0  0  0  0  0
   27.7698   68.7600   -4.6229 N   0  0  0  0  0  0  0  0  0  0  0  0
   26.8997   66.7419   -5.5264 N   0  0  0  0  0  0  0  0  0  0  0  0
   26.9634   67.6139   -4.4321 C   0  0  0  0  0  0  0  0  0  0  0  0
   28.4296   68.9567   -5.8312 C   0  0  0  0  0  0  0  0  0  0  0  0
   28.3595   68.1149   -6.8645 C   0  0  0  0  0  0  0  0  0  0  0  0
   27.5380   66.8929   -6.7472 C   0  0  0  0  0  0  0  0  0  0  0  0
   26.3440   65.9363   -5.4163 H   0  0  0  0  0  0  0  0  0  0  0  0
   22.8537   72.7135   -6.0083 O   0  0  0  0  0  0  0  0  0  0  0  0
   21.6453   71.7155   -5.6127 P   0  0  2  0  0  0  0  0  0  0  0  0
   21.1107   72.3181   -4.2096 O   0  0  0  0  0  0  0  0  0  0  0  0
   22.0368   70.2673   -5.5556 O   0  0  0  0  0  0  0  0  0  0  0  0
   20.4751   72.0507   -6.6725 O   0  0  0  0  0  0  0  0  0  0  0  0
   20.1326   71.1094   -8.8204 O   0  0  0  0  0  0  0  0  0  0  0  0
   18.7483   74.9313   -9.5466 O   0  0  0  0  0  0  0  0  0  0  0  0
   16.8802   72.7578   -9.3623 O   0  0  0  0  0  0  0  0  0  0  0  0
   21.0587   74.5306   -7.8492 O   0  0  0  0  0  0  0  0  0  0  0  0
   18.9726   73.7528   -8.7681 C   0  0  1  0  0  0  0  0  0  0  0  0
   18.2895   72.5773   -9.4699 C   0  0  1  0  0  0  0  0  0  0  0  0
   20.4762   73.5097   -8.6522 C   0  0  2  0  0  0  0  0  0  0  0  0
   18.7064   71.2399   -8.8432 C   0  0  1  0  0  0  0  0  0  0  0  0
   20.7817   72.1319   -8.0620 C   0  0  1  0  0  0  0  0  0  0  0  0
   17.7955   75.0916   -9.6237 H   0  0  0  0  0  0  0  0  0  0  0  0
   16.6303   73.6061   -9.7613 H   0  0  0  0  0  0  0  0  0  0  0  0
   20.8584   75.3979   -8.2335 H   0  0  0  0  0  0  0  0  0  0  0  0
   16.8739   69.7334   -9.1287 O   0  0  0  0  0  0  0  0  0  0  0  0
   18.1618   70.0471   -9.6260 C   0  0  0  0  0  0  0  0  0  0  0  0
   16.5147   68.9762   -9.6178 H   0  0  0  0  0  0  0  0  0  0  0  0
 25 28  1  0
 25 24  1  0
 25 26  1  1
 25 27  2  0
  1  4  1  0
  1 24  1  0
  1  2  1  6
  1  3  2  0
  6 11  1  0
  6 12  1  0
 29 36  1  0
 29 37  1  0
  9  7  1  1
  7 13  1  0
 10  8  1  1
  8 14  1  0
 37 28  1  1
  4  5  1  0
 33 30  1  6
 30 38  1  0
 34 31  1  1
 31 39  1  0
 35 32  1  1
 32 40  1  0
 41 42  1  0
 41 43  1  0
 15 19  2  0
 16 22  2  0
 12 17  1  6
 17 19  1  0
 17 20  1  0
 18 19  1  0
 18 22  1  0
 18 23  1  0
  9 10  1  0
  9 11  1  0
 10 12  1  0
 11  5  1  6
 33 34  1  0
 33 35  1  0
 34 36  1  0
 35 37  1  0
 36 42  1  6
 20 21  2  0
 21 22  1  0
M  CHG  2   2  -1  26  -1
M  END
>  <COMPND>  (141) 
    8629 

>  <AUTHOR>  (141) 
    GENERATED BY OPEN BABEL 3.1.1

>  <MASTER>  (141) 
        0    0    0    0    0    0    0    0   58    0   58    0

>  <minimizedAffinity>  (141) 
-7.71343

>  <CNNscore>  (141) 
0.7168540955

>  <CNNaffinity>  (141) 
4.5076913834

>  <CNN_VS>  (141) 
3.2313570976

>  <CNNaffinity_variance>  (141) 
0.1389196068

$$$$
142
     RDKit          3D

 43 45  0  0  0  0  0  0  0  0999 V2000
   26.1584   73.1227   -4.0885 P   0  0  2  0  0  0  0  0  0  0  0  0
   25.1594   72.6739   -5.2792 O   0  0  0  0  0  0  0  0  0  0  0  0
   26.7704   74.4827   -4.2535 O   0  0  0  0  0  0  0  0  0  0  0  0
   27.2023   71.8919   -3.9726 O   0  0  0  0  0  0  0  0  0  0  0  0
   28.5443   72.1748   -3.6165 C   0  0  0  0  0  0  0  0  0  0  0  0
   28.3076   69.9062   -2.8608 O   0  0  0  0  0  0  0  0  0  0  0  0
   30.9465   70.2855   -1.4884 O   0  0  0  0  0  0  0  0  0  0  0  0
   31.6367   68.8935   -3.7294 O   0  0  0  0  0  0  0  0  0  0  0  0
   30.4987   70.8011   -2.7410 C   0  0  1  0  0  0  0  0  0  0  0  0
   30.4806   69.7041   -3.7849 C   0  0  2  0  0  0  0  0  0  0  0  0
   29.0187   71.1377   -2.6077 C   0  0  1  0  0  0  0  0  0  0  0  0
   29.2160   68.9444   -3.4219 C   0  0  2  0  0  0  0  0  0  0  0  0
   31.8894   70.0636   -1.5488 H   0  0  0  0  0  0  0  0  0  0  0  0
   32.4141   69.4219   -3.9684 H   0  0  0  0  0  0  0  0  0  0  0  0
   26.9057   67.3234   -3.3086 O   0  0  0  0  0  0  0  0  0  0  0  0
   26.9369   66.6426   -7.8668 O   0  0  0  0  0  0  0  0  0  0  0  0
   28.5987   68.3310   -4.5639 N   0  0  0  0  0  0  0  0  0  0  0  0
   26.9230   66.9859   -5.5783 N   0  0  0  0  0  0  0  0  0  0  0  0
   27.4416   67.5346   -4.3985 C   0  0  0  0  0  0  0  0  0  0  0  0
   29.1402   68.5219   -5.8304 C   0  0  0  0  0  0  0  0  0  0  0  0
   28.6344   67.9906   -6.9454 C   0  0  0  0  0  0  0  0  0  0  0  0
   27.4259   67.1455   -6.8599 C   0  0  0  0  0  0  0  0  0  0  0  0
   26.1172   66.4271   -5.4875 H   0  0  0  0  0  0  0  0  0  0  0  0
   25.2464   72.9515   -2.7649 O   0  0  0  0  0  0  0  0  0  0  0  0
   24.8415   71.6358   -1.9177 P   0  0  2  0  0  0  0  0  0  0  0  0
   25.2041   70.4211   -2.9229 O   0  0  0  0  0  0  0  0  0  0  0  0
   23.4222   71.6318   -1.4282 O   0  0  0  0  0  0  0  0  0  0  0  0
   25.9520   71.5440   -0.7501 O   0  0  0  0  0  0  0  0  0  0  0  0
   24.8813   72.7020    1.0190 O   0  0  0  0  0  0  0  0  0  0  0  0
   28.2353   71.3784    3.0313 O   0  0  0  0  0  0  0  0  0  0  0  0
   25.6871   70.1702    3.5743 O   0  0  0  0  0  0  0  0  0  0  0  0
   28.4566   72.2704    0.2864 O   0  0  0  0  0  0  0  0  0  0  0  0
   27.1723   71.2998    2.0779 C   0  0  1  0  0  0  0  0  0  0  0  0
   25.8440   71.3771    2.8332 C   0  0  1  0  0  0  0  0  0  0  0  0
   27.2987   72.4601    1.0925 C   0  0  2  0  0  0  0  0  0  0  0  0
   24.6673   71.5673    1.8666 C   0  0  1  0  0  0  0  0  0  0  0  0
   26.0550   72.5910    0.2115 C   0  0  1  0  0  0  0  0  0  0  0  0
   28.1611   70.6441    3.6597 H   0  0  0  0  0  0  0  0  0  0  0  0
   26.4368   70.0618    4.1805 H   0  0  0  0  0  0  0  0  0  0  0  0
   29.2371   72.1893    0.8557 H   0  0  0  0  0  0  0  0  0  0  0  0
   22.8582   70.5564    3.0558 O   0  0  0  0  0  0  0  0  0  0  0  0
   23.3524   71.8046    2.6060 C   0  0  0  0  0  0  0  0  0  0  0  0
   22.0216   70.6920    3.5285 H   0  0  0  0  0  0  0  0  0  0  0  0
 25 28  1  0
 25 24  1  0
 25 26  1  6
 25 27  2  0
  1  4  1  0
  1 24  1  0
  1  2  1  6
  1  3  2  0
  6 11  1  0
  6 12  1  0
 29 36  1  0
 29 37  1  0
  9  7  1  1
  7 13  1  0
 10  8  1  1
  8 14  1  0
 37 28  1  6
  4  5  1  0
 33 30  1  1
 30 38  1  0
 34 31  1  6
 31 39  1  0
 35 32  1  6
 32 40  1  0
 41 42  1  0
 41 43  1  0
 15 19  2  0
 16 22  2  0
 12 17  1  6
 17 19  1  0
 17 20  1  0
 18 19  1  0
 18 22  1  0
 18 23  1  0
  9 10  1  0
  9 11  1  0
 10 12  1  0
 11  5  1  6
 33 34  1  0
 33 35  1  0
 34 36  1  0
 35 37  1  0
 36 42  1  1
 20 21  2  0
 21 22  1  0
M  CHG  2   2  -1  26  -1
M  END
>  <COMPND>  (142) 
    8629 

>  <AUTHOR>  (142) 
    GENERATED BY OPEN BABEL 3.1.1

>  <MASTER>  (142) 
        0    0    0    0    0    0    0    0   58    0   58    0

>  <minimizedAffinity>  (142) 
-7.22818

>  <CNNscore>  (142) 
0.6340842843

>  <CNNaffinity>  (142) 
4.4780859947

>  <CNN_VS>  (142) 
2.8394839764

>  <CNNaffinity_variance>  (142) 
0.1545854509

$$$$
143
     RDKit          3D

 43 45  0  0  0  0  0  0  0  0999 V2000
   26.0359   73.1168   -4.2331 P   0  0  2  0  0  0  0  0  0  0  0  0
   24.9803   72.5250   -5.3069 O   0  0  0  0  0  0  0  0  0  0  0  0
   26.5034   74.5157   -4.5087 O   0  0  0  0  0  0  0  0  0  0  0  0
   27.1944   71.9894   -4.1653 O   0  0  0  0  0  0  0  0  0  0  0  0
   28.4542   72.3462   -3.6237 C   0  0  0  0  0  0  0  0  0  0  0  0
   28.1284   70.1021   -2.8288 O   0  0  0  0  0  0  0  0  0  0  0  0
   30.6776   70.4750   -1.2948 O   0  0  0  0  0  0  0  0  0  0  0  0
   31.4889   69.0140   -3.4497 O   0  0  0  0  0  0  0  0  0  0  0  0
   30.3222   70.9648   -2.5868 C   0  0  1  0  0  0  0  0  0  0  0  0
   30.3535   69.8413   -3.6018 C   0  0  2  0  0  0  0  0  0  0  0  0
   28.8429   71.3284   -2.5602 C   0  0  1  0  0  0  0  0  0  0  0  0
   29.0545   69.1117   -3.3044 C   0  0  2  0  0  0  0  0  0  0  0  0
   31.6184   70.2365   -1.2871 H   0  0  0  0  0  0  0  0  0  0  0  0
   32.2896   69.5236   -3.6499 H   0  0  0  0  0  0  0  0  0  0  0  0
   26.8726   67.3184   -3.2633 O   0  0  0  0  0  0  0  0  0  0  0  0
   27.0240   66.7423   -7.8335 O   0  0  0  0  0  0  0  0  0  0  0  0
   28.5028   68.4786   -4.4690 N   0  0  0  0  0  0  0  0  0  0  0  0
   26.9497   67.0332   -5.5390 N   0  0  0  0  0  0  0  0  0  0  0  0
   27.4073   67.5935   -4.3395 C   0  0  0  0  0  0  0  0  0  0  0  0
   29.0473   68.7377   -5.7221 C   0  0  0  0  0  0  0  0  0  0  0  0
   28.6001   68.1943   -6.8561 C   0  0  0  0  0  0  0  0  0  0  0  0
   27.4582   67.2585   -6.8083 C   0  0  0  0  0  0  0  0  0  0  0  0
   26.1874   66.4131   -5.4732 H   0  0  0  0  0  0  0  0  0  0  0  0
   25.2647   72.9305   -2.8247 O   0  0  0  0  0  0  0  0  0  0  0  0
   24.8573   71.5977   -2.0057 P   0  0  2  0  0  0  0  0  0  0  0  0
   25.9032   71.5864   -0.7714 O   0  0  0  0  0  0  0  0  0  0  0  0
   24.8597   70.3436   -2.8309 O   0  0  0  0  0  0  0  0  0  0  0  0
   23.4344   71.9518   -1.3311 O   0  0  0  0  0  0  0  0  0  0  0  0
   21.9663   71.8644   -3.1895 O   0  0  0  0  0  0  0  0  0  0  0  0
   19.1975   72.4866   -0.1900 O   0  0  0  0  0  0  0  0  0  0  0  0
   19.3762   69.9082   -1.4421 O   0  0  0  0  0  0  0  0  0  0  0  0
   21.7590   73.8314   -0.0922 O   0  0  0  0  0  0  0  0  0  0  0  0
   20.3965   71.9640   -0.7685 C   0  0  1  0  0  0  0  0  0  0  0  0
   20.0100   71.0773   -1.9539 C   0  0  1  0  0  0  0  0  0  0  0  0
   21.2755   73.1250   -1.2296 C   0  0  2  0  0  0  0  0  0  0  0  0
   21.2422   70.6964   -2.7856 C   0  0  1  0  0  0  0  0  0  0  0  0
   22.4444   72.6415   -2.0897 C   0  0  1  0  0  0  0  0  0  0  0  0
   18.6350   71.7545    0.1053 H   0  0  0  0  0  0  0  0  0  0  0  0
   18.6001   70.1626   -0.9185 H   0  0  0  0  0  0  0  0  0  0  0  0
   21.0095   74.1325    0.4440 H   0  0  0  0  0  0  0  0  0  0  0  0
   21.4954   68.6784   -4.0396 O   0  0  0  0  0  0  0  0  0  0  0  0
   20.8622   69.9445   -4.0594 C   0  0  0  0  0  0  0  0  0  0  0  0
   21.2623   68.1885   -4.8442 H   0  0  0  0  0  0  0  0  0  0  0  0
 25 28  1  0
 25 24  1  0
 25 26  1  1
 25 27  2  0
  1  4  1  0
  1 24  1  0
  1  2  1  6
  1  3  2  0
  6 11  1  0
  6 12  1  0
 29 36  1  0
 29 37  1  0
  9  7  1  1
  7 13  1  0
 10  8  1  1
  8 14  1  0
 37 28  1  1
  4  5  1  0
 33 30  1  6
 30 38  1  0
 34 31  1  1
 31 39  1  0
 35 32  1  1
 32 40  1  0
 41 42  1  0
 41 43  1  0
 15 19  2  0
 16 22  2  0
 12 17  1  6
 17 19  1  0
 17 20  1  0
 18 19  1  0
 18 22  1  0
 18 23  1  0
  9 10  1  0
  9 11  1  0
 10 12  1  0
 11  5  1  6
 33 34  1  0
 33 35  1  0
 34 36  1  0
 35 37  1  0
 36 42  1  6
 20 21  2  0
 21 22  1  0
M  CHG  2   2  -1  26  -1
M  END
>  <COMPND>  (143) 
    8629 

>  <AUTHOR>  (143) 
    GENERATED BY OPEN BABEL 3.1.1

>  <MASTER>  (143) 
        0    0    0    0    0    0    0    0   58    0   58    0

>  <minimizedAffinity>  (143) 
-6.82949

>  <CNNscore>  (143) 
0.5892415643

>  <CNNaffinity>  (143) 
4.5239686966

>  <CNN_VS>  (143) 
2.6657104492

>  <CNNaffinity_variance>  (143) 
0.1883540154

$$$$
144
     RDKit          3D

 43 45  0  0  0  0  0  0  0  0999 V2000
   15.2210   69.8197   -3.7678 P   0  0  2  0  0  0  0  0  0  0  0  0
   16.1902   70.2037   -2.5307 O   0  0  0  0  0  0  0  0  0  0  0  0
   14.1472   70.8241   -4.0672 O   0  0  0  0  0  0  0  0  0  0  0  0
   14.7074   68.3276   -3.4102 O   0  0  0  0  0  0  0  0  0  0  0  0
   13.3132   68.1016   -3.2966 C   0  0  0  0  0  0  0  0  0  0  0  0
   13.8460   66.2964   -1.8028 O   0  0  0  0  0  0  0  0  0  0  0  0
   11.3993   64.9348   -2.8754 O   0  0  0  0  0  0  0  0  0  0  0  0
   10.5283   65.9303   -0.4907 O   0  0  0  0  0  0  0  0  0  0  0  0
   11.6238   66.3214   -2.6257 C   0  0  1  0  0  0  0  0  0  0  0  0
   11.5916   66.5995   -1.1373 C   0  0  2  0  0  0  0  0  0  0  0  0
   13.0736   66.6325   -2.9761 C   0  0  1  0  0  0  0  0  0  0  0  0
   12.9549   66.0969   -0.6933 C   0  0  2  0  0  0  0  0  0  0  0  0
   10.4797   64.7122   -2.6592 H   0  0  0  0  0  0  0  0  0  0  0  0
    9.6828   66.2854   -0.8067 H   0  0  0  0  0  0  0  0  0  0  0  0
   12.4304   65.3985    1.9928 O   0  0  0  0  0  0  0  0  0  0  0  0
   14.9400   68.9188    3.5898 O   0  0  0  0  0  0  0  0  0  0  0  0
   13.4588   66.8133    0.4443 N   0  0  0  0  0  0  0  0  0  0  0  0
   13.6806   67.1518    2.7858 N   0  0  0  0  0  0  0  0  0  0  0  0
   13.1356   66.3803    1.7514 C   0  0  0  0  0  0  0  0  0  0  0  0
   14.2643   67.9315    0.2579 C   0  0  0  0  0  0  0  0  0  0  0  0
   14.7749   68.6570    1.2549 C   0  0  0  0  0  0  0  0  0  0  0  0
   14.4853   68.2720    2.6513 C   0  0  0  0  0  0  0  0  0  0  0  0
   13.4685   66.8693    3.7050 H   0  0  0  0  0  0  0  0  0  0  0  0
   16.2609   69.5654   -4.9790 O   0  0  0  0  0  0  0  0  0  0  0  0
   16.3038   68.4196   -6.1184 P   0  0  2  0  0  0  0  0  0  0  0  0
   14.7410   68.1765   -6.4591 O   0  0  0  0  0  0  0  0  0  0  0  0
   17.0502   67.1804   -5.7171 O   0  0  0  0  0  0  0  0  0  0  0  0
   16.8947   69.1632   -7.4234 O   0  0  0  0  0  0  0  0  0  0  0  0
   18.3906   70.8777   -8.0860 O   0  0  0  0  0  0  0  0  0  0  0  0
   14.9168   72.3473   -9.7664 O   0  0  0  0  0  0  0  0  0  0  0  0
   16.9571   71.2473  -11.4620 O   0  0  0  0  0  0  0  0  0  0  0  0
   14.8336   71.0520   -7.1790 O   0  0  0  0  0  0  0  0  0  0  0  0
   15.8356   71.3331   -9.3511 C   0  0  1  0  0  0  0  0  0  0  0  0
   17.1593   71.5553  -10.0856 C   0  0  1  0  0  0  0  0  0  0  0  0
   16.0364   71.4298   -7.8399 C   0  0  2  0  0  0  0  0  0  0  0  0
   18.2724   70.6765   -9.4993 C   0  0  1  0  0  0  0  0  0  0  0  0
   17.1986   70.5545   -7.3674 C   0  0  1  0  0  0  0  0  0  0  0  0
   14.7845   72.2911  -10.7249 H   0  0  0  0  0  0  0  0  0  0  0  0
   16.2515   71.8087  -11.8199 H   0  0  0  0  0  0  0  0  0  0  0  0
   14.1057   71.6136   -7.4865 H   0  0  0  0  0  0  0  0  0  0  0  0
   19.6699   70.4750  -11.4268 O   0  0  0  0  0  0  0  0  0  0  0  0
   19.6349   70.9956  -10.1108 C   0  0  0  0  0  0  0  0  0  0  0  0
   20.5312   70.6710  -11.8286 H   0  0  0  0  0  0  0  0  0  0  0  0
 25 28  1  0
 25 24  1  0
 25 26  1  6
 25 27  2  0
  1  4  1  0
  1 24  1  0
  1  2  1  1
  1  3  2  0
  6 11  1  0
  6 12  1  0
 29 36  1  0
 29 37  1  0
  9  7  1  1
  7 13  1  0
 10  8  1  1
  8 14  1  0
 37 28  1  6
  4  5  1  0
 33 30  1  6
 30 38  1  0
 34 31  1  6
 31 39  1  0
 35 32  1  1
 32 40  1  0
 41 42  1  0
 41 43  1  0
 15 19  2  0
 16 22  2  0
 12 17  1  1
 17 19  1  0
 17 20  1  0
 18 19  1  0
 18 22  1  0
 18 23  1  0
  9 10  1  0
  9 11  1  0
 10 12  1  0
 11  5  1  1
 33 34  1  0
 33 35  1  0
 34 36  1  0
 35 37  1  0
 36 42  1  6
 20 21  2  0
 21 22  1  0
M  CHG  2   2  -1  26  -1
M  END
>  <COMPND>  (144) 
    8629 

>  <AUTHOR>  (144) 
    GENERATED BY OPEN BABEL 3.1.1

>  <MASTER>  (144) 
        0    0    0    0    0    0    0    0   58    0   58    0

>  <minimizedAffinity>  (144) 
-6.44885

>  <CNNscore>  (144) 
0.5888137817

>  <CNNaffinity>  (144) 
4.0570058823

>  <CNN_VS>  (144) 
2.3888208866

>  <CNNaffinity_variance>  (144) 
0.0602152720

$$$$
145
     RDKit          3D

 43 45  0  0  0  0  0  0  0  0999 V2000
   23.8522   72.5971   -4.3614 P   0  0  2  0  0  0  0  0  0  0  0  0
   23.6631   72.8767   -5.9436 O   0  0  0  0  0  0  0  0  0  0  0  0
   23.8072   73.8192   -3.4920 O   0  0  0  0  0  0  0  0  0  0  0  0
   25.2140   71.7271   -4.2807 O   0  0  0  0  0  0  0  0  0  0  0  0
   26.4368   72.4052   -4.0506 C   0  0  0  0  0  0  0  0  0  0  0  0
   26.9905   70.2933   -3.0471 O   0  0  0  0  0  0  0  0  0  0  0  0
   29.1881   71.7569   -1.6261 O   0  0  0  0  0  0  0  0  0  0  0  0
   30.5165   70.5215   -3.6622 O   0  0  0  0  0  0  0  0  0  0  0  0
   28.6830   71.9489   -2.9464 C   0  0  1  0  0  0  0  0  0  0  0  0
   29.1518   70.8326   -3.8562 C   0  0  2  0  0  0  0  0  0  0  0  0
   27.1773   71.7191   -2.9108 C   0  0  1  0  0  0  0  0  0  0  0  0
   28.2299   69.6928   -3.4573 C   0  0  2  0  0  0  0  0  0  0  0  0
   30.1483   71.8987   -1.6236 H   0  0  0  0  0  0  0  0  0  0  0  0
   31.0619   71.2775   -3.9303 H   0  0  0  0  0  0  0  0  0  0  0  0
   26.5406   67.4352   -3.2912 O   0  0  0  0  0  0  0  0  0  0  0  0
   27.3220   66.2989   -7.6889 O   0  0  0  0  0  0  0  0  0  0  0  0
   27.9735   68.7899   -4.5437 N   0  0  0  0  0  0  0  0  0  0  0  0
   26.9309   66.8714   -5.4811 N   0  0  0  0  0  0  0  0  0  0  0  0
   27.1098   67.6858   -4.3556 C   0  0  0  0  0  0  0  0  0  0  0  0
   28.5753   69.0036   -5.7791 C   0  0  0  0  0  0  0  0  0  0  0  0
   28.3953   68.2168   -6.8421 C   0  0  0  0  0  0  0  0  0  0  0  0
   27.5077   67.0414   -6.7297 C   0  0  0  0  0  0  0  0  0  0  0  0
   26.3336   66.0959   -5.3735 H   0  0  0  0  0  0  0  0  0  0  0  0
   22.7037   71.5042   -4.0457 O   0  0  0  0  0  0  0  0  0  0  0  0
   22.5319   70.4701   -2.8152 P   0  0  2  0  0  0  0  0  0  0  0  0
   23.7100   69.3910   -3.0701 O   0  0  0  0  0  0  0  0  0  0  0  0
   21.1593   69.8728   -2.7005 O   0  0  0  0  0  0  0  0  0  0  0  0
   23.0117   71.2982   -1.5156 O   0  0  0  0  0  0  0  0  0  0  0  0
   22.4417   71.3307    0.7845 O   0  0  0  0  0  0  0  0  0  0  0  0
   22.4702   75.3948    0.0545 O   0  0  0  0  0  0  0  0  0  0  0  0
   24.5899   74.2154    1.5920 O   0  0  0  0  0  0  0  0  0  0  0  0
   21.4295   73.5762   -1.9429 O   0  0  0  0  0  0  0  0  0  0  0  0
   22.9051   74.0407   -0.0967 C   0  0  1  0  0  0  0  0  0  0  0  0
   23.3811   73.5349    1.2665 C   0  0  1  0  0  0  0  0  0  0  0  0
   21.7390   73.1959   -0.6064 C   0  0  2  0  0  0  0  0  0  0  0  0
   23.6111   72.0178    1.2449 C   0  0  1  0  0  0  0  0  0  0  0  0
   22.0536   71.7003   -0.5401 C   0  0  1  0  0  0  0  0  0  0  0  0
   23.2061   75.9367    0.3774 H   0  0  0  0  0  0  0  0  0  0  0  0
   24.4311   75.1724    1.6017 H   0  0  0  0  0  0  0  0  0  0  0  0
   21.2319   74.5249   -1.9714 H   0  0  0  0  0  0  0  0  0  0  0  0
   23.0049   70.4446    2.9381 O   0  0  0  0  0  0  0  0  0  0  0  0
   23.9338   71.4685    2.6328 C   0  0  0  0  0  0  0  0  0  0  0  0
   23.1982   70.0854    3.8186 H   0  0  0  0  0  0  0  0  0  0  0  0
 25 28  1  0
 25 24  1  0
 25 26  1  6
 25 27  2  0
  1  4  1  0
  1 24  1  0
  1  2  1  6
  1  3  2  0
  6 11  1  0
  6 12  1  0
 29 36  1  0
 29 37  1  0
  9  7  1  1
  7 13  1  0
 10  8  1  1
  8 14  1  0
 37 28  1  6
  4  5  1  0
 33 30  1  1
 30 38  1  0
 34 31  1  6
 31 39  1  0
 35 32  1  6
 32 40  1  0
 41 42  1  0
 41 43  1  0
 15 19  2  0
 16 22  2  0
 12 17  1  6
 17 19  1  0
 17 20  1  0
 18 19  1  0
 18 22  1  0
 18 23  1  0
  9 10  1  0
  9 11  1  0
 10 12  1  0
 11  5  1  6
 33 34  1  0
 33 35  1  0
 34 36  1  0
 35 37  1  0
 36 42  1  1
 20 21  2  0
 21 22  1  0
M  CHG  2   2  -1  26  -1
M  END
>  <COMPND>  (145) 
    8629 

>  <AUTHOR>  (145) 
    GENERATED BY OPEN BABEL 3.1.1

>  <MASTER>  (145) 
        0    0    0    0    0    0    0    0   58    0   58    0

>  <minimizedAffinity>  (145) 
-7.35623

>  <CNNscore>  (145) 
0.5787231922

>  <CNNaffinity>  (145) 
4.3409152031

>  <CNN_VS>  (145) 
2.5121881962

>  <CNNaffinity_variance>  (145) 
0.1989071369

$$$$
146
     RDKit          3D

 43 45  0  0  0  0  0  0  0  0999 V2000
   24.8535   73.8334   -5.1799 P   0  0  2  0  0  0  0  0  0  0  0  0
   24.0547   72.5711   -5.8011 O   0  0  0  0  0  0  0  0  0  0  0  0
   25.0216   74.9977   -6.1114 O   0  0  0  0  0  0  0  0  0  0  0  0
   26.2225   73.1851   -4.6114 O   0  0  0  0  0  0  0  0  0  0  0  0
   26.2834   71.7804   -4.4357 C   0  0  0  0  0  0  0  0  0  0  0  0
   27.4540   70.0929   -3.1883 O   0  0  0  0  0  0  0  0  0  0  0  0
   28.6168   72.3471   -1.5891 O   0  0  0  0  0  0  0  0  0  0  0  0
   30.6475   71.7214   -3.2982 O   0  0  0  0  0  0  0  0  0  0  0  0
   28.3062   72.2944   -2.9805 C   0  0  1  0  0  0  0  0  0  0  0  0
   29.3252   71.4485   -3.7151 C   0  0  2  0  0  0  0  0  0  0  0  0
   27.0330   71.4740   -3.1463 C   0  0  1  0  0  0  0  0  0  0  0  0
   28.8796   70.0399   -3.3610 C   0  0  2  0  0  0  0  0  0  0  0  0
   29.4262   72.8663   -1.4582 H   0  0  0  0  0  0  0  0  0  0  0  0
   30.8841   72.6288   -3.5462 H   0  0  0  0  0  0  0  0  0  0  0  0
   30.8201   68.0011   -3.1254 O   0  0  0  0  0  0  0  0  0  0  0  0
   29.9839   66.4601   -7.3878 O   0  0  0  0  0  0  0  0  0  0  0  0
   29.1892   69.0916   -4.3936 N   0  0  0  0  0  0  0  0  0  0  0  0
   30.4020   67.2354   -5.2479 N   0  0  0  0  0  0  0  0  0  0  0  0
   30.1816   68.1079   -4.1745 C   0  0  0  0  0  0  0  0  0  0  0  0
   28.5120   69.1426   -5.6071 C   0  0  0  0  0  0  0  0  0  0  0  0
   28.7348   68.3039   -6.6211 C   0  0  0  0  0  0  0  0  0  0  0  0
   29.7557   67.2465   -6.4738 C   0  0  0  0  0  0  0  0  0  0  0  0
   31.0892   66.5420   -5.1182 H   0  0  0  0  0  0  0  0  0  0  0  0
   24.0214   74.1634   -3.8339 O   0  0  0  0  0  0  0  0  0  0  0  0
   22.5999   74.9025   -3.6190 P   0  0  2  0  0  0  0  0  0  0  0  0
   22.1072   75.2057   -5.1299 O   0  0  0  0  0  0  0  0  0  0  0  0
   22.6636   76.1133   -2.7337 O   0  0  0  0  0  0  0  0  0  0  0  0
   21.6108   73.7406   -3.0931 O   0  0  0  0  0  0  0  0  0  0  0  0
   21.5637   71.6326   -4.1751 O   0  0  0  0  0  0  0  0  0  0  0  0
   17.8519   71.5302   -2.3689 O   0  0  0  0  0  0  0  0  0  0  0  0
   19.9687   69.8757   -1.3541 O   0  0  0  0  0  0  0  0  0  0  0  0
   18.8454   74.0083   -3.4877 O   0  0  0  0  0  0  0  0  0  0  0  0
   19.2398   71.8580   -2.4768 C   0  0  1  0  0  0  0  0  0  0  0  0
   20.0316   70.5551   -2.6050 C   0  0  1  0  0  0  0  0  0  0  0  0
   19.4505   72.7386   -3.7070 C   0  0  2  0  0  0  0  0  0  0  0  0
   21.4913   70.8298   -2.9911 C   0  0  1  0  0  0  0  0  0  0  0  0
   20.9356   72.9082   -4.0325 C   0  0  1  0  0  0  0  0  0  0  0  0
   17.7111   70.9715   -1.5894 H   0  0  0  0  0  0  0  0  0  0  0  0
   19.0417   69.7088   -1.1217 H   0  0  0  0  0  0  0  0  0  0  0  0
   17.9055   73.8873   -3.2829 H   0  0  0  0  0  0  0  0  0  0  0  0
   21.4174   68.6706   -4.0116 O   0  0  0  0  0  0  0  0  0  0  0  0
   22.2590   69.5413   -3.2782 C   0  0  0  0  0  0  0  0  0  0  0  0
   21.8930   67.8463   -4.2018 H   0  0  0  0  0  0  0  0  0  0  0  0
 25 28  1  0
 25 24  1  0
 25 26  1  6
 25 27  2  0
  1  4  1  0
  1 24  1  0
  1  2  1  6
  1  3  2  0
  6 11  1  0
  6 12  1  0
 29 36  1  0
 29 37  1  0
  9  7  1  1
  7 13  1  0
 10  8  1  1
  8 14  1  0
 37 28  1  1
  4  5  1  0
 33 30  1  6
 30 38  1  0
 34 31  1  1
 31 39  1  0
 35 32  1  1
 32 40  1  0
 41 42  1  0
 41 43  1  0
 15 19  2  0
 16 22  2  0
 12 17  1  6
 17 19  1  0
 17 20  1  0
 18 19  1  0
 18 22  1  0
 18 23  1  0
  9 10  1  0
  9 11  1  0
 10 12  1  0
 11  5  1  6
 33 34  1  0
 33 35  1  0
 34 36  1  0
 35 37  1  0
 36 42  1  6
 20 21  2  0
 21 22  1  0
M  CHG  2   2  -1  26  -1
M  END
>  <COMPND>  (146) 
    8629 

>  <AUTHOR>  (146) 
    GENERATED BY OPEN BABEL 3.1.1

>  <MASTER>  (146) 
        0    0    0    0    0    0    0    0   58    0   58    0

>  <minimizedAffinity>  (146) 
-6.86394

>  <CNNscore>  (146) 
0.5367614031

>  <CNNaffinity>  (146) 
4.2882814407

>  <CNN_VS>  (146) 
2.3017840385

>  <CNNaffinity_variance>  (146) 
0.0694943666

$$$$
147
     RDKit          3D

 43 45  0  0  0  0  0  0  0  0999 V2000
   24.4719   72.9760   -4.7293 P   0  0  2  0  0  0  0  0  0  0  0  0
   25.2913   73.5438   -6.0035 O   0  0  0  0  0  0  0  0  0  0  0  0
   24.3114   73.9458   -3.5956 O   0  0  0  0  0  0  0  0  0  0  0  0
   25.2266   71.5912   -4.3678 O   0  0  0  0  0  0  0  0  0  0  0  0
   26.6402   71.5489   -4.4552 C   0  0  0  0  0  0  0  0  0  0  0  0
   27.4762   69.6282   -3.2779 O   0  0  0  0  0  0  0  0  0  0  0  0
   28.6870   71.5737   -1.3441 O   0  0  0  0  0  0  0  0  0  0  0  0
   30.8178   70.8731   -2.8950 O   0  0  0  0  0  0  0  0  0  0  0  0
   28.5305   71.6858   -2.7577 C   0  0  1  0  0  0  0  0  0  0  0  0
   29.5290   70.7970   -3.4694 C   0  0  2  0  0  0  0  0  0  0  0  0
   27.2035   71.0395   -3.1356 C   0  0  1  0  0  0  0  0  0  0  0  0
   28.8982   69.4240   -3.3103 C   0  0  2  0  0  0  0  0  0  0  0  0
   29.5276   71.9799   -1.0789 H   0  0  0  0  0  0  0  0  0  0  0  0
   31.1765   71.7652   -3.0222 H   0  0  0  0  0  0  0  0  0  0  0  0
   31.1241   67.6859   -3.3563 O   0  0  0  0  0  0  0  0  0  0  0  0
   30.0283   66.0969   -7.5415 O   0  0  0  0  0  0  0  0  0  0  0  0
   29.2184   68.5447   -4.3992 N   0  0  0  0  0  0  0  0  0  0  0  0
   30.5765   66.8960   -5.4401 N   0  0  0  0  0  0  0  0  0  0  0  0
   30.3597   67.7129   -4.3231 C   0  0  0  0  0  0  0  0  0  0  0  0
   28.4047   68.5129   -5.5265 C   0  0  0  0  0  0  0  0  0  0  0  0
   28.6260   67.7292   -6.5839 C   0  0  0  0  0  0  0  0  0  0  0  0
   29.7976   66.8295   -6.5844 C   0  0  0  0  0  0  0  0  0  0  0  0
   31.3660   66.3082   -5.4096 H   0  0  0  0  0  0  0  0  0  0  0  0
   23.0831   72.4724   -5.3854 O   0  0  0  0  0  0  0  0  0  0  0  0
   21.8698   71.6027   -4.7651 P   0  0  2  0  0  0  0  0  0  0  0  0
   21.2792   72.5641   -3.6056 O   0  0  0  0  0  0  0  0  0  0  0  0
   22.2718   70.2361   -4.2913 O   0  0  0  0  0  0  0  0  0  0  0  0
   20.7361   71.6057   -5.9138 O   0  0  0  0  0  0  0  0  0  0  0  0
   20.8405   72.6731   -8.0272 O   0  0  0  0  0  0  0  0  0  0  0  0
   16.7810   72.9766   -7.3346 O   0  0  0  0  0  0  0  0  0  0  0  0
   17.7487   71.1251   -9.3053 O   0  0  0  0  0  0  0  0  0  0  0  0
   18.6482   73.3178   -5.1490 O   0  0  0  0  0  0  0  0  0  0  0  0
   18.0693   72.3578   -7.2808 C   0  0  1  0  0  0  0  0  0  0  0  0
   18.5566   72.1393   -8.7146 C   0  0  1  0  0  0  0  0  0  0  0  0
   19.0297   73.2697   -6.5196 C   0  0  2  0  0  0  0  0  0  0  0  0
   20.0347   71.7278   -8.7406 C   0  0  1  0  0  0  0  0  0  0  0  0
   20.4792   72.7985   -6.6504 C   0  0  1  0  0  0  0  0  0  0  0  0
   16.1663   72.4024   -7.8162 H   0  0  0  0  0  0  0  0  0  0  0  0
   16.8177   71.3972   -9.2821 H   0  0  0  0  0  0  0  0  0  0  0  0
   17.7290   73.6177   -5.0797 H   0  0  0  0  0  0  0  0  0  0  0  0
   19.9067   70.6256  -10.8567 O   0  0  0  0  0  0  0  0  0  0  0  0
   20.5839   71.6579  -10.1639 C   0  0  0  0  0  0  0  0  0  0  0  0
   20.2457   70.5697  -11.7643 H   0  0  0  0  0  0  0  0  0  0  0  0
 25 28  1  0
 25 24  1  0
 25 26  1  1
 25 27  2  0
  1  4  1  0
  1 24  1  0
  1  2  1  6
  1  3  2  0
  6 11  1  0
  6 12  1  0
 29 36  1  0
 29 37  1  0
  9  7  1  1
  7 13  1  0
 10  8  1  1
  8 14  1  0
 37 28  1  1
  4  5  1  0
 33 30  1  6
 30 38  1  0
 34 31  1  1
 31 39  1  0
 35 32  1  1
 32 40  1  0
 41 42  1  0
 41 43  1  0
 15 19  2  0
 16 22  2  0
 12 17  1  6
 17 19  1  0
 17 20  1  0
 18 19  1  0
 18 22  1  0
 18 23  1  0
  9 10  1  0
  9 11  1  0
 10 12  1  0
 11  5  1  6
 33 34  1  0
 33 35  1  0
 34 36  1  0
 35 37  1  0
 36 42  1  6
 20 21  2  0
 21 22  1  0
M  CHG  2   2  -1  26  -1
M  END
>  <COMPND>  (147) 
    8629 

>  <AUTHOR>  (147) 
    GENERATED BY OPEN BABEL 3.1.1

>  <MASTER>  (147) 
        0    0    0    0    0    0    0    0   58    0   58    0

>  <minimizedAffinity>  (147) 
-7.29024

>  <CNNscore>  (147) 
0.5338044167

>  <CNNaffinity>  (147) 
4.4730482101

>  <CNN_VS>  (147) 
2.3877329826

>  <CNNaffinity_variance>  (147) 
0.0267229043

$$$$
148
     RDKit          3D

 43 45  0  0  0  0  0  0  0  0999 V2000
   24.5746   73.2794   -5.1067 P   0  0  2  0  0  0  0  0  0  0  0  0
   25.0312   74.3303   -6.2489 O   0  0  0  0  0  0  0  0  0  0  0  0
   24.1989   73.8963   -3.7916 O   0  0  0  0  0  0  0  0  0  0  0  0
   25.7852   72.2068   -5.0594 O   0  0  0  0  0  0  0  0  0  0  0  0
   25.5831   70.9895   -4.3630 C   0  0  0  0  0  0  0  0  0  0  0  0
   27.1621   69.6197   -3.1779 O   0  0  0  0  0  0  0  0  0  0  0  0
   28.1838   72.1678   -1.9720 O   0  0  0  0  0  0  0  0  0  0  0  0
   30.0223   71.6527   -3.9191 O   0  0  0  0  0  0  0  0  0  0  0  0
   27.6902   71.9272   -3.2887 C   0  0  1  0  0  0  0  0  0  0  0  0
   28.7112   71.1578   -4.1006 C   0  0  2  0  0  0  0  0  0  0  0  0
   26.5462   70.9262   -3.1854 C   0  0  1  0  0  0  0  0  0  0  0  0
   28.5399   69.7461   -3.5658 C   0  0  2  0  0  0  0  0  0  0  0  0
   28.9151   72.8045   -2.0123 H   0  0  0  0  0  0  0  0  0  0  0  0
   30.0804   72.5530   -4.2752 H   0  0  0  0  0  0  0  0  0  0  0  0
   31.1198   68.7001   -4.0433 O   0  0  0  0  0  0  0  0  0  0  0  0
   29.5741   65.9164   -7.3754 O   0  0  0  0  0  0  0  0  0  0  0  0
   28.8403   68.7467   -4.5519 N   0  0  0  0  0  0  0  0  0  0  0  0
   30.3480   67.3147   -5.7019 N   0  0  0  0  0  0  0  0  0  0  0  0
   30.1692   68.2899   -4.7124 C   0  0  0  0  0  0  0  0  0  0  0  0
   27.8231   68.2299   -5.3469 C   0  0  0  0  0  0  0  0  0  0  0  0
   28.0104   67.3012   -6.2870 C   0  0  0  0  0  0  0  0  0  0  0  0
   29.3694   66.7705   -6.5185 C   0  0  0  0  0  0  0  0  0  0  0  0
   31.2657   66.9818   -5.8318 H   0  0  0  0  0  0  0  0  0  0  0  0
   23.3858   72.4539   -5.8266 O   0  0  0  0  0  0  0  0  0  0  0  0
   22.0336   71.8008   -5.2284 P   0  0  2  0  0  0  0  0  0  0  0  0
   21.8778   72.5233   -3.7892 O   0  0  0  0  0  0  0  0  0  0  0  0
   22.0483   70.3008   -5.1699 O   0  0  0  0  0  0  0  0  0  0  0  0
   20.8467   72.4235   -6.1276 O   0  0  0  0  0  0  0  0  0  0  0  0
   18.6953   71.9647   -7.0093 O   0  0  0  0  0  0  0  0  0  0  0  0
   20.7625   72.4768  -10.5469 O   0  0  0  0  0  0  0  0  0  0  0  0
   18.9127   74.4956   -9.6806 O   0  0  0  0  0  0  0  0  0  0  0  0
   22.0248   71.1261   -8.3194 O   0  0  0  0  0  0  0  0  0  0  0  0
   20.4441   72.7291   -9.1757 C   0  0  1  0  0  0  0  0  0  0  0  0
   18.9894   73.1969   -9.0994 C   0  0  1  0  0  0  0  0  0  0  0  0
   20.6382   71.4437   -8.3735 C   0  0  2  0  0  0  0  0  0  0  0  0
   18.4939   73.2312   -7.6474 C   0  0  1  0  0  0  0  0  0  0  0  0
   20.0673   71.5684   -6.9598 C   0  0  1  0  0  0  0  0  0  0  0  0
   20.6418   73.2892  -11.0617 H   0  0  0  0  0  0  0  0  0  0  0  0
   19.2288   74.4602  -10.5971 H   0  0  0  0  0  0  0  0  0  0  0  0
   22.3743   71.0496   -9.2205 H   0  0  0  0  0  0  0  0  0  0  0  0
   16.8299   74.9458   -7.6366 O   0  0  0  0  0  0  0  0  0  0  0  0
   17.0014   73.5426   -7.5596 C   0  0  0  0  0  0  0  0  0  0  0  0
   15.8847   75.1589   -7.5823 H   0  0  0  0  0  0  0  0  0  0  0  0
 25 28  1  0
 25 24  1  0
 25 26  1  1
 25 27  2  0
  1  4  1  0
  1 24  1  0
  1  2  1  6
  1  3  2  0
  6 11  1  0
  6 12  1  0
 29 36  1  0
 29 37  1  0
  9  7  1  1
  7 13  1  0
 10  8  1  1
  8 14  1  0
 37 28  1  1
  4  5  1  0
 33 30  1  6
 30 38  1  0
 34 31  1  1
 31 39  1  0
 35 32  1  1
 32 40  1  0
 41 42  1  0
 41 43  1  0
 15 19  2  0
 16 22  2  0
 12 17  1  6
 17 19  1  0
 17 20  1  0
 18 19  1  0
 18 22  1  0
 18 23  1  0
  9 10  1  0
  9 11  1  0
 10 12  1  0
 11  5  1  6
 33 34  1  0
 33 35  1  0
 34 36  1  0
 35 37  1  0
 36 42  1  6
 20 21  2  0
 21 22  1  0
M  CHG  2   2  -1  26  -1
M  END
>  <COMPND>  (148) 
    8629 

>  <AUTHOR>  (148) 
    GENERATED BY OPEN BABEL 3.1.1

>  <MASTER>  (148) 
        0    0    0    0    0    0    0    0   58    0   58    0

>  <minimizedAffinity>  (148) 
-7.54036

>  <CNNscore>  (148) 
0.4967396855

>  <CNNaffinity>  (148) 
4.3410587311

>  <CNN_VS>  (148) 
2.1563761234

>  <CNNaffinity_variance>  (148) 
0.0309362076

$$$$
149
     RDKit          3D

 43 45  0  0  0  0  0  0  0  0999 V2000
   24.4804   73.0910   -5.0034 P   0  0  2  0  0  0  0  0  0  0  0  0
   23.0115   72.6767   -5.5402 O   0  0  0  0  0  0  0  0  0  0  0  0
   25.3324   73.8285   -5.9942 O   0  0  0  0  0  0  0  0  0  0  0  0
   25.0953   71.7029   -4.4439 O   0  0  0  0  0  0  0  0  0  0  0  0
   26.4773   71.4519   -4.6302 C   0  0  0  0  0  0  0  0  0  0  0  0
   27.3841   69.5804   -3.4263 O   0  0  0  0  0  0  0  0  0  0  0  0
   28.5842   71.6000   -1.5630 O   0  0  0  0  0  0  0  0  0  0  0  0
   30.7006   70.9153   -3.1405 O   0  0  0  0  0  0  0  0  0  0  0  0
   28.3969   71.6749   -2.9753 C   0  0  1  0  0  0  0  0  0  0  0  0
   29.4029   70.7942   -3.6865 C   0  0  2  0  0  0  0  0  0  0  0  0
   27.0791   70.9876   -3.3110 C   0  0  1  0  0  0  0  0  0  0  0  0
   28.8098   69.4104   -3.4830 C   0  0  2  0  0  0  0  0  0  0  0  0
   29.4195   72.0328   -1.3244 H   0  0  0  0  0  0  0  0  0  0  0  0
   31.0343   71.8127   -3.2956 H   0  0  0  0  0  0  0  0  0  0  0  0
   31.0622   67.7065   -3.5220 O   0  0  0  0  0  0  0  0  0  0  0  0
   29.9390   66.0142   -7.6591 O   0  0  0  0  0  0  0  0  0  0  0  0
   29.1301   68.5137   -4.5576 N   0  0  0  0  0  0  0  0  0  0  0  0
   30.5010   66.8651   -5.5818 N   0  0  0  0  0  0  0  0  0  0  0  0
   30.2853   67.7015   -4.4791 C   0  0  0  0  0  0  0  0  0  0  0  0
   28.3029   68.4459   -5.6734 C   0  0  0  0  0  0  0  0  0  0  0  0
   28.5233   67.6440   -6.7172 C   0  0  0  0  0  0  0  0  0  0  0  0
   29.7088   66.7628   -6.7144 C   0  0  0  0  0  0  0  0  0  0  0  0
   31.3000   66.2904   -5.5495 H   0  0  0  0  0  0  0  0  0  0  0  0
   24.1543   73.9150   -3.6515 O   0  0  0  0  0  0  0  0  0  0  0  0
   25.1318   74.6493   -2.5941 P   0  0  2  0  0  0  0  0  0  0  0  0
   24.4765   76.1208   -2.4430 O   0  0  0  0  0  0  0  0  0  0  0  0
   26.5788   74.6540   -2.9942 O   0  0  0  0  0  0  0  0  0  0  0  0
   24.8297   73.9220   -1.1853 O   0  0  0  0  0  0  0  0  0  0  0  0
   25.9270   72.0732   -0.1881 O   0  0  0  0  0  0  0  0  0  0  0  0
   22.0721   71.3175    1.0846 O   0  0  0  0  0  0  0  0  0  0  0  0
   24.0285   72.2551    2.9665 O   0  0  0  0  0  0  0  0  0  0  0  0
   22.5367   72.3527   -1.5785 O   0  0  0  0  0  0  0  0  0  0  0  0
   23.1902   72.1355    0.7295 C   0  0  1  0  0  0  0  0  0  0  0  0
   24.3536   71.7877    1.6603 C   0  0  1  0  0  0  0  0  0  0  0  0
   23.5660   71.8630   -0.7258 C   0  0  2  0  0  0  0  0  0  0  0  0
   25.6618   72.4264    1.1745 C   0  0  1  0  0  0  0  0  0  0  0  0
   24.9068   72.5019   -1.0921 C   0  0  1  0  0  0  0  0  0  0  0  0
   21.8281   71.4861    2.0074 H   0  0  0  0  0  0  0  0  0  0  0  0
   23.2003   71.8447    3.2612 H   0  0  0  0  0  0  0  0  0  0  0  0
   21.6932   71.9405   -1.3367 H   0  0  0  0  0  0  0  0  0  0  0  0
   27.7630   71.2896    1.1379 O   0  0  0  0  0  0  0  0  0  0  0  0
   26.8632   71.9655    1.9968 C   0  0  0  0  0  0  0  0  0  0  0  0
   28.5328   70.9907    1.6475 H   0  0  0  0  0  0  0  0  0  0  0  0
 25 28  1  0
 25 24  1  0
 25 26  1  1
 25 27  2  0
  1  4  1  0
  1 24  1  0
  1  2  1  6
  1  3  2  0
  6 11  1  0
  6 12  1  0
 29 36  1  0
 29 37  1  0
  9  7  1  1
  7 13  1  0
 10  8  1  1
  8 14  1  0
 37 28  1  1
  4  5  1  0
 33 30  1  1
 30 38  1  0
 34 31  1  1
 31 39  1  0
 35 32  1  6
 32 40  1  0
 41 42  1  0
 41 43  1  0
 15 19  2  0
 16 22  2  0
 12 17  1  6
 17 19  1  0
 17 20  1  0
 18 19  1  0
 18 22  1  0
 18 23  1  0
  9 10  1  0
  9 11  1  0
 10 12  1  0
 11  5  1  6
 33 34  1  0
 33 35  1  0
 34 36  1  0
 35 37  1  0
 36 42  1  1
 20 21  2  0
 21 22  1  0
M  CHG  2   2  -1  26  -1
M  END
>  <COMPND>  (149) 
    8629 

>  <AUTHOR>  (149) 
    GENERATED BY OPEN BABEL 3.1.1

>  <MASTER>  (149) 
        0    0    0    0    0    0    0    0   58    0   58    0

>  <minimizedAffinity>  (149) 
-6.84090

>  <CNNscore>  (149) 
0.4698601365

>  <CNNaffinity>  (149) 
4.2582097054

>  <CNN_VS>  (149) 
2.0007629395

>  <CNNaffinity_variance>  (149) 
0.0851211846

$$$$
150
     RDKit          3D

 43 45  0  0  0  0  0  0  0  0999 V2000
   24.2464   74.1114   -4.9832 P   0  0  2  0  0  0  0  0  0  0  0  0
   25.1390   74.7964   -6.1457 O   0  0  0  0  0  0  0  0  0  0  0  0
   23.2154   75.0087   -4.3641 O   0  0  0  0  0  0  0  0  0  0  0  0
   25.3421   73.4933   -3.9656 O   0  0  0  0  0  0  0  0  0  0  0  0
   26.0712   72.3481   -4.3713 C   0  0  0  0  0  0  0  0  0  0  0  0
   26.6729   70.3175   -3.2360 O   0  0  0  0  0  0  0  0  0  0  0  0
   28.7078   71.9608   -1.7700 O   0  0  0  0  0  0  0  0  0  0  0  0
   30.2122   70.7053   -3.6666 O   0  0  0  0  0  0  0  0  0  0  0  0
   28.2705   72.0642   -3.1240 C   0  0  1  0  0  0  0  0  0  0  0  0
   28.8469   70.9336   -3.9505 C   0  0  2  0  0  0  0  0  0  0  0  0
   26.7788   71.7561   -3.1601 C   0  0  1  0  0  0  0  0  0  0  0  0
   27.9627   69.7659   -3.5473 C   0  0  2  0  0  0  0  0  0  0  0  0
   29.6578   72.1537   -1.7216 H   0  0  0  0  0  0  0  0  0  0  0  0
   30.7330   71.4761   -3.9411 H   0  0  0  0  0  0  0  0  0  0  0  0
   26.4013   67.4200   -3.3556 O   0  0  0  0  0  0  0  0  0  0  0  0
   27.4724   66.1365   -7.6505 O   0  0  0  0  0  0  0  0  0  0  0  0
   27.8154   68.8012   -4.6004 N   0  0  0  0  0  0  0  0  0  0  0  0
   26.9357   66.7829   -5.4943 N   0  0  0  0  0  0  0  0  0  0  0  0
   27.0089   67.6564   -4.4018 C   0  0  0  0  0  0  0  0  0  0  0  0
   28.4664   68.9951   -5.8138 C   0  0  0  0  0  0  0  0  0  0  0  0
   28.3875   68.1520   -6.8454 C   0  0  0  0  0  0  0  0  0  0  0  0
   27.5651   66.9313   -6.7201 C   0  0  0  0  0  0  0  0  0  0  0  0
   26.3798   65.9783   -5.3789 H   0  0  0  0  0  0  0  0  0  0  0  0
   23.6461   72.7991   -5.7115 O   0  0  0  0  0  0  0  0  0  0  0  0
   22.1302   72.2500   -5.8287 P   0  0  2  0  0  0  0  0  0  0  0  0
   22.3257   70.7269   -6.3380 O   0  0  0  0  0  0  0  0  0  0  0  0
   21.2389   73.0853   -6.7016 O   0  0  0  0  0  0  0  0  0  0  0  0
   21.6280   72.1079   -4.3014 O   0  0  0  0  0  0  0  0  0  0  0  0
   22.9875   71.8600   -2.3761 O   0  0  0  0  0  0  0  0  0  0  0  0
   19.6861   69.7136   -1.1334 O   0  0  0  0  0  0  0  0  0  0  0  0
   20.2150   72.2925    0.0145 O   0  0  0  0  0  0  0  0  0  0  0  0
   20.5666   69.5436   -3.8857 O   0  0  0  0  0  0  0  0  0  0  0  0
   20.3758   70.7632   -1.8175 C   0  0  1  0  0  0  0  0  0  0  0  0
   21.1550   71.5785   -0.7836 C   0  0  1  0  0  0  0  0  0  0  0  0
   21.3254   70.1497   -2.8448 C   0  0  2  0  0  0  0  0  0  0  0  0
   22.1268   72.5520   -1.4639 C   0  0  1  0  0  0  0  0  0  0  0  0
   22.2813   71.1938   -3.4246 C   0  0  1  0  0  0  0  0  0  0  0  0
   19.0811   70.0965   -0.4799 H   0  0  0  0  0  0  0  0  0  0  0  0
   19.6070   71.6663    0.4380 H   0  0  0  0  0  0  0  0  0  0  0  0
   19.9656   68.8845   -3.5058 H   0  0  0  0  0  0  0  0  0  0  0  0
   24.3114   73.4153   -1.0265 O   0  0  0  0  0  0  0  0  0  0  0  0
   23.0257   73.2620   -0.4539 C   0  0  0  0  0  0  0  0  0  0  0  0
   24.8943   73.8660   -0.3950 H   0  0  0  0  0  0  0  0  0  0  0  0
 25 28  1  0
 25 24  1  0
 25 26  1  6
 25 27  2  0
  1  4  1  0
  1 24  1  0
  1  2  1  6
  1  3  2  0
  6 11  1  0
  6 12  1  0
 29 36  1  0
 29 37  1  0
  9  7  1  1
  7 13  1  0
 10  8  1  1
  8 14  1  0
 37 28  1  1
  4  5  1  0
 33 30  1  1
 30 38  1  0
 34 31  1  6
 31 39  1  0
 35 32  1  6
 32 40  1  0
 41 42  1  0
 41 43  1  0
 15 19  2  0
 16 22  2  0
 12 17  1  6
 17 19  1  0
 17 20  1  0
 18 19  1  0
 18 22  1  0
 18 23  1  0
  9 10  1  0
  9 11  1  0
 10 12  1  0
 11  5  1  6
 33 34  1  0
 33 35  1  0
 34 36  1  0
 35 37  1  0
 36 42  1  1
 20 21  2  0
 21 22  1  0
M  CHG  2   2  -1  26  -1
M  END
>  <COMPND>  (150) 
    8629 

>  <AUTHOR>  (150) 
    GENERATED BY OPEN BABEL 3.1.1

>  <MASTER>  (150) 
        0    0    0    0    0    0    0    0   58    0   58    0

>  <minimizedAffinity>  (150) 
-7.24707

>  <CNNscore>  (150) 
0.4672939777

>  <CNNaffinity>  (150) 
4.1137232780

>  <CNN_VS>  (150) 
1.9223181009

>  <CNNaffinity_variance>  (150) 
0.4876318574

$$$$
151
     RDKit          3D

 43 45  0  0  0  0  0  0  0  0999 V2000
   24.5398   72.2074   -3.1742 P   0  0  2  0  0  0  0  0  0  0  0  0
   24.6818   70.6171   -3.4354 O   0  0  0  0  0  0  0  0  0  0  0  0
   23.4055   72.8700   -3.8993 O   0  0  0  0  0  0  0  0  0  0  0  0
   26.0151   72.7875   -3.4980 O   0  0  0  0  0  0  0  0  0  0  0  0
   27.0015   71.8935   -3.9835 C   0  0  0  0  0  0  0  0  0  0  0  0
   28.0529   70.0132   -2.9192 O   0  0  0  0  0  0  0  0  0  0  0  0
   29.8022   72.0147   -1.5318 O   0  0  0  0  0  0  0  0  0  0  0  0
   31.4174   71.0961   -3.5278 O   0  0  0  0  0  0  0  0  0  0  0  0
   29.2790   72.0402   -2.8589 C   0  0  1  0  0  0  0  0  0  0  0  0
   30.0203   71.0523   -3.7354 C   0  0  2  0  0  0  0  0  0  0  0  0
   27.8775   71.4436   -2.8223 C   0  0  1  0  0  0  0  0  0  0  0  0
   29.4069   69.7298   -3.3080 C   0  0  2  0  0  0  0  0  0  0  0  0
   30.6967   72.3911   -1.5298 H   0  0  0  0  0  0  0  0  0  0  0  0
   31.7603   71.9568   -3.8150 H   0  0  0  0  0  0  0  0  0  0  0  0
   31.4749   67.8686   -3.7955 O   0  0  0  0  0  0  0  0  0  0  0  0
   29.2529   66.0700   -7.4106 O   0  0  0  0  0  0  0  0  0  0  0  0
   29.3947   68.7632   -4.3696 N   0  0  0  0  0  0  0  0  0  0  0  0
   30.3667   66.9744   -5.5950 N   0  0  0  0  0  0  0  0  0  0  0  0
   30.4836   67.8747   -4.5283 C   0  0  0  0  0  0  0  0  0  0  0  0
   28.3113   68.7030   -5.2394 C   0  0  0  0  0  0  0  0  0  0  0  0
   28.2158   67.8394   -6.2525 C   0  0  0  0  0  0  0  0  0  0  0  0
   29.3110   66.8765   -6.4875 C   0  0  0  0  0  0  0  0  0  0  0  0
   31.1137   66.3460   -5.7252 H   0  0  0  0  0  0  0  0  0  0  0  0
   24.4567   72.3051   -1.5628 O   0  0  0  0  0  0  0  0  0  0  0  0
   23.1885   72.4623   -0.5729 P   0  0  2  0  0  0  0  0  0  0  0  0
   22.2110   71.2560   -1.0276 O   0  0  0  0  0  0  0  0  0  0  0  0
   22.5502   73.8208   -0.6016 O   0  0  0  0  0  0  0  0  0  0  0  0
   23.7426   72.0141    0.8753 O   0  0  0  0  0  0  0  0  0  0  0  0
   24.2703   73.2600    2.8210 O   0  0  0  0  0  0  0  0  0  0  0  0
   27.3639   70.5270    2.9283 O   0  0  0  0  0  0  0  0  0  0  0  0
   25.2171   70.3137    4.8240 O   0  0  0  0  0  0  0  0  0  0  0  0
   26.4765   71.6046    0.3924 O   0  0  0  0  0  0  0  0  0  0  0  0
   26.0299   70.9757    2.6741 C   0  0  1  0  0  0  0  0  0  0  0  0
   25.4249   71.4541    3.9954 C   0  0  1  0  0  0  0  0  0  0  0  0
   26.0717   72.1154    1.6580 C   0  0  2  0  0  0  0  0  0  0  0  0
   24.1008   72.1940    3.7626 C   0  0  1  0  0  0  0  0  0  0  0  0
   24.7169   72.8155    1.5384 C   0  0  1  0  0  0  0  0  0  0  0  0
   27.3444   69.8029    3.5724 H   0  0  0  0  0  0  0  0  0  0  0  0
   26.0607   69.8553    4.9628 H   0  0  0  0  0  0  0  0  0  0  0  0
   27.3356   71.1642    0.4814 H   0  0  0  0  0  0  0  0  0  0  0  0
   22.6730   71.8943    5.6549 O   0  0  0  0  0  0  0  0  0  0  0  0
   23.5596   72.8162    5.0480 C   0  0  0  0  0  0  0  0  0  0  0  0
   22.3210   72.2767    6.4744 H   0  0  0  0  0  0  0  0  0  0  0  0
 25 28  1  0
 25 24  1  0
 25 26  1  6
 25 27  2  0
  1  4  1  0
  1 24  1  0
  1  2  1  1
  1  3  2  0
  6 11  1  0
  6 12  1  0
 29 36  1  0
 29 37  1  0
  9  7  1  1
  7 13  1  0
 10  8  1  1
  8 14  1  0
 37 28  1  1
  4  5  1  0
 33 30  1  1
 30 38  1  0
 34 31  1  1
 31 39  1  0
 35 32  1  6
 32 40  1  0
 41 42  1  0
 41 43  1  0
 15 19  2  0
 16 22  2  0
 12 17  1  6
 17 19  1  0
 17 20  1  0
 18 19  1  0
 18 22  1  0
 18 23  1  0
  9 10  1  0
  9 11  1  0
 10 12  1  0
 11  5  1  6
 33 34  1  0
 33 35  1  0
 34 36  1  0
 35 37  1  0
 36 42  1  1
 20 21  2  0
 21 22  1  0
M  CHG  2   2  -1  26  -1
M  END
>  <COMPND>  (151) 
    8629 

>  <AUTHOR>  (151) 
    GENERATED BY OPEN BABEL 3.1.1

>  <MASTER>  (151) 
        0    0    0    0    0    0    0    0   58    0   58    0

>  <minimizedAffinity>  (151) 
-6.55011

>  <CNNscore>  (151) 
0.4544618428

>  <CNNaffinity>  (151) 
4.2585973740

>  <CNN_VS>  (151) 
1.9353699684

>  <CNNaffinity_variance>  (151) 
0.0263414048

$$$$
152
     RDKit          3D

 43 45  0  0  0  0  0  0  0  0999 V2000
   25.2593   73.0281   -4.5658 P   0  0  2  0  0  0  0  0  0  0  0  0
   26.2559   73.8251   -3.5713 O   0  0  0  0  0  0  0  0  0  0  0  0
   25.0091   73.6996   -5.8841 O   0  0  0  0  0  0  0  0  0  0  0  0
   23.9483   72.7483   -3.6598 O   0  0  0  0  0  0  0  0  0  0  0  0
   23.9923   73.0864   -2.2844 C   0  0  0  0  0  0  0  0  0  0  0  0
   23.1173   71.5037   -0.7023 O   0  0  0  0  0  0  0  0  0  0  0  0
   20.6658   73.2281   -0.6162 O   0  0  0  0  0  0  0  0  0  0  0  0
   21.9824   73.9528    1.6593 O   0  0  0  0  0  0  0  0  0  0  0  0
   22.0338   73.6108   -0.7473 C   0  0  1  0  0  0  0  0  0  0  0  0
   22.7504   73.4636    0.5787 C   0  0  2  0  0  0  0  0  0  0  0  0
   22.7338   72.5640   -1.6050 C   0  0  1  0  0  0  0  0  0  0  0  0
   22.9727   71.9625    0.6518 C   0  0  2  0  0  0  0  0  0  0  0  0
   20.1980   73.8819   -0.0725 H   0  0  0  0  0  0  0  0  0  0  0  0
   21.8688   74.9117    1.5675 H   0  0  0  0  0  0  0  0  0  0  0  0
   22.9737   70.5694    3.1089 O   0  0  0  0  0  0  0  0  0  0  0  0
   27.5719   70.7019    3.3919 O   0  0  0  0  0  0  0  0  0  0  0  0
   24.1559   71.6193    1.3892 N   0  0  0  0  0  0  0  0  0  0  0  0
   25.2632   70.6363    3.2477 N   0  0  0  0  0  0  0  0  0  0  0  0
   24.0469   70.9194    2.6134 C   0  0  0  0  0  0  0  0  0  0  0  0
   25.4068   71.9759    0.8974 C   0  0  0  0  0  0  0  0  0  0  0  0
   26.5572   71.6996    1.5150 C   0  0  0  0  0  0  0  0  0  0  0  0
   26.5313   70.9707    2.7996 C   0  0  0  0  0  0  0  0  0  0  0  0
   25.2119   70.1497    4.1023 H   0  0  0  0  0  0  0  0  0  0  0  0
   25.9447   71.5681   -4.6739 O   0  0  0  0  0  0  0  0  0  0  0  0
   26.1288   70.3979   -3.5740 P   0  0  2  0  0  0  0  0  0  0  0  0
   24.6689   69.7022   -3.5245 O   0  0  0  0  0  0  0  0  0  0  0  0
   26.6316   70.8777   -2.2433 O   0  0  0  0  0  0  0  0  0  0  0  0
   27.0760   69.3068   -4.2932 O   0  0  0  0  0  0  0  0  0  0  0  0
   29.1338   70.4701   -4.4640 O   0  0  0  0  0  0  0  0  0  0  0  0
   30.3395   66.7847   -5.8836 O   0  0  0  0  0  0  0  0  0  0  0  0
   31.1824   67.6449   -3.2764 O   0  0  0  0  0  0  0  0  0  0  0  0
   27.7258   67.8157   -6.5801 O   0  0  0  0  0  0  0  0  0  0  0  0
   29.5896   67.6822   -5.0604 C   0  0  1  0  0  0  0  0  0  0  0  0
   30.5746   68.5095   -4.2321 C   0  0  1  0  0  0  0  0  0  0  0  0
   28.7432   68.5885   -5.9522 C   0  0  2  0  0  0  0  0  0  0  0  0
   29.8644   69.6720   -3.5254 C   0  0  1  0  0  0  0  0  0  0  0  0
   28.1215   69.7398   -5.1597 C   0  0  1  0  0  0  0  0  0  0  0  0
   30.8787   66.2060   -5.3234 H   0  0  0  0  0  0  0  0  0  0  0  0
   31.6269   66.9150   -3.7356 H   0  0  0  0  0  0  0  0  0  0  0  0
   28.1321   67.0905   -7.0788 H   0  0  0  0  0  0  0  0  0  0  0  0
   32.0591   70.6159   -3.5589 O   0  0  0  0  0  0  0  0  0  0  0  0
   30.8505   70.6018   -2.8217 C   0  0  0  0  0  0  0  0  0  0  0  0
   32.6962   71.2038   -3.1228 H   0  0  0  0  0  0  0  0  0  0  0  0
 25 28  1  0
 25 24  1  0
 25 26  1  1
 25 27  2  0
  1  4  1  0
  1 24  1  0
  1  2  1  1
  1  3  2  0
  6 11  1  0
  6 12  1  0
 29 36  1  0
 29 37  1  0
  9  7  1  1
  7 13  1  0
 10  8  1  1
  8 14  1  0
 37 28  1  1
  4  5  1  0
 33 30  1  6
 30 38  1  0
 34 31  1  1
 31 39  1  0
 35 32  1  1
 32 40  1  0
 41 42  1  0
 41 43  1  0
 15 19  2  0
 16 22  2  0
 12 17  1  1
 17 19  1  0
 17 20  1  0
 18 19  1  0
 18 22  1  0
 18 23  1  0
  9 10  1  0
  9 11  1  0
 10 12  1  0
 11  5  1  1
 33 34  1  0
 33 35  1  0
 34 36  1  0
 35 37  1  0
 36 42  1  6
 20 21  2  0
 21 22  1  0
M  CHG  2   2  -1  26  -1
M  END
>  <COMPND>  (152) 
    8629 

>  <AUTHOR>  (152) 
    GENERATED BY OPEN BABEL 3.1.1

>  <MASTER>  (152) 
        0    0    0    0    0    0    0    0   58    0   58    0

>  <minimizedAffinity>  (152) 
-7.34556

>  <CNNscore>  (152) 
0.4257714748

>  <CNNaffinity>  (152) 
4.0228953362

>  <CNN_VS>  (152) 
1.7128341198

>  <CNNaffinity_variance>  (152) 
0.1588833630

$$$$
153
     RDKit          3D

 43 45  0  0  0  0  0  0  0  0999 V2000
   28.8028   74.0064   -2.5688 P   0  0  2  0  0  0  0  0  0  0  0  0
   28.9294   75.2728   -3.5676 O   0  0  0  0  0  0  0  0  0  0  0  0
   28.9530   74.3311   -1.1116 O   0  0  0  0  0  0  0  0  0  0  0  0
   29.8608   72.9360   -3.1628 O   0  0  0  0  0  0  0  0  0  0  0  0
   29.3693   71.7015   -3.6552 C   0  0  0  0  0  0  0  0  0  0  0  0
   28.7273   69.5221   -2.8730 O   0  0  0  0  0  0  0  0  0  0  0  0
   31.3724   69.4548   -1.4623 O   0  0  0  0  0  0  0  0  0  0  0  0
   31.8385   67.9271   -3.6727 O   0  0  0  0  0  0  0  0  0  0  0  0
   31.0396   70.0206   -2.7290 C   0  0  1  0  0  0  0  0  0  0  0  0
   30.8437   68.9270   -3.7582 C   0  0  2  0  0  0  0  0  0  0  0  0
   29.6400   70.6138   -2.6248 C   0  0  1  0  0  0  0  0  0  0  0  0
   29.4603   68.4070   -3.4061 C   0  0  2  0  0  0  0  0  0  0  0  0
   32.2623   69.0699   -1.5041 H   0  0  0  0  0  0  0  0  0  0  0  0
   32.6999   68.3071   -3.9059 H   0  0  0  0  0  0  0  0  0  0  0  0
   26.7799   67.5170   -3.3701 O   0  0  0  0  0  0  0  0  0  0  0  0
   26.8806   66.4538   -7.8535 O   0  0  0  0  0  0  0  0  0  0  0  0
   28.7608   67.8931   -4.5497 N   0  0  0  0  0  0  0  0  0  0  0  0
   26.8322   66.9885   -5.6025 N   0  0  0  0  0  0  0  0  0  0  0  0
   27.4165   67.4717   -4.4248 C   0  0  0  0  0  0  0  0  0  0  0  0
   29.4073   67.8112   -5.7782 C   0  0  0  0  0  0  0  0  0  0  0  0
   28.8364   67.3467   -6.8916 C   0  0  0  0  0  0  0  0  0  0  0  0
   27.4336   66.8862   -6.8469 C   0  0  0  0  0  0  0  0  0  0  0  0
   25.8962   66.6889   -5.5394 H   0  0  0  0  0  0  0  0  0  0  0  0
   27.3740   73.3670   -2.9718 O   0  0  0  0  0  0  0  0  0  0  0  0
   25.9889   74.0653   -3.4269 P   0  0  2  0  0  0  0  0  0  0  0  0
   26.3092   74.5824   -4.9261 O   0  0  0  0  0  0  0  0  0  0  0  0
   25.5037   75.1360   -2.4930 O   0  0  0  0  0  0  0  0  0  0  0  0
   24.9603   72.8383   -3.6299 O   0  0  0  0  0  0  0  0  0  0  0  0
   23.0072   72.3482   -2.3802 O   0  0  0  0  0  0  0  0  0  0  0  0
   24.1958   68.4983   -3.2836 O   0  0  0  0  0  0  0  0  0  0  0  0
   21.9012   69.6190   -4.5977 O   0  0  0  0  0  0  0  0  0  0  0  0
   26.1779   70.5093   -2.6459 O   0  0  0  0  0  0  0  0  0  0  0  0
   24.0194   69.8973   -3.5222 C   0  0  1  0  0  0  0  0  0  0  0  0
   22.5230   70.2096   -3.4597 C   0  0  1  0  0  0  0  0  0  0  0  0
   24.7781   70.6851   -2.4559 C   0  0  2  0  0  0  0  0  0  0  0  0
   22.2734   71.7237   -3.4400 C   0  0  1  0  0  0  0  0  0  0  0  0
   24.4209   72.1721   -2.4912 C   0  0  1  0  0  0  0  0  0  0  0  0
   23.7169   67.9923   -3.9575 H   0  0  0  0  0  0  0  0  0  0  0  0
   22.0668   68.6631   -4.5985 H   0  0  0  0  0  0  0  0  0  0  0  0
   26.3912   69.5639   -2.6211 H   0  0  0  0  0  0  0  0  0  0  0  0
   20.1254   70.8765   -2.8257 O   0  0  0  0  0  0  0  0  0  0  0  0
   20.7997   72.0575   -3.2193 C   0  0  0  0  0  0  0  0  0  0  0  0
   19.1863   71.0739   -2.6814 H   0  0  0  0  0  0  0  0  0  0  0  0
 25 28  1  0
 25 24  1  0
 25 26  1  6
 25 27  2  0
  1  4  1  0
  1 24  1  0
  1  2  1  6
  1  3  2  0
  6 11  1  0
  6 12  1  0
 29 36  1  0
 29 37  1  0
  9  7  1  1
  7 13  1  0
 10  8  1  1
  8 14  1  0
 37 28  1  6
  4  5  1  0
 33 30  1  1
 30 38  1  0
 34 31  1  6
 31 39  1  0
 35 32  1  6
 32 40  1  0
 41 42  1  0
 41 43  1  0
 15 19  2  0
 16 22  2  0
 12 17  1  6
 17 19  1  0
 17 20  1  0
 18 19  1  0
 18 22  1  0
 18 23  1  0
  9 10  1  0
  9 11  1  0
 10 12  1  0
 11  5  1  6
 33 34  1  0
 33 35  1  0
 34 36  1  0
 35 37  1  0
 36 42  1  1
 20 21  2  0
 21 22  1  0
M  CHG  2   2  -1  26  -1
M  END
>  <COMPND>  (153) 
    8629 

>  <AUTHOR>  (153) 
    GENERATED BY OPEN BABEL 3.1.1

>  <MASTER>  (153) 
        0    0    0    0    0    0    0    0   58    0   58    0

>  <minimizedAffinity>  (153) 
-7.25592

>  <CNNscore>  (153) 
0.3528333604

>  <CNNaffinity>  (153) 
4.1789150238

>  <CNN_VS>  (153) 
1.4744606018

>  <CNNaffinity_variance>  (153) 
0.4204611778

$$$$
154
     RDKit          3D

 43 45  0  0  0  0  0  0  0  0999 V2000
   22.7533   72.6046   -5.2599 P   0  0  2  0  0  0  0  0  0  0  0  0
   22.7128   71.6930   -6.5959 O   0  0  0  0  0  0  0  0  0  0  0  0
   22.9503   74.0725   -5.5001 O   0  0  0  0  0  0  0  0  0  0  0  0
   23.8702   71.8879   -4.3343 O   0  0  0  0  0  0  0  0  0  0  0  0
   25.2365   72.1678   -4.5845 C   0  0  0  0  0  0  0  0  0  0  0  0
   26.2267   70.3650   -3.3423 O   0  0  0  0  0  0  0  0  0  0  0  0
   27.9117   72.4569   -2.0099 O   0  0  0  0  0  0  0  0  0  0  0  0
   29.6212   71.4030   -3.8547 O   0  0  0  0  0  0  0  0  0  0  0  0
   27.4556   72.3911   -3.3601 C   0  0  1  0  0  0  0  0  0  0  0  0
   28.2361   71.3452   -4.1284 C   0  0  2  0  0  0  0  0  0  0  0  0
   26.0519   71.7987   -3.3528 C   0  0  1  0  0  0  0  0  0  0  0  0
   27.5974   70.0553   -3.6424 C   0  0  2  0  0  0  0  0  0  0  0  0
   28.8064   72.8325   -1.9890 H   0  0  0  0  0  0  0  0  0  0  0  0
   29.9811   72.2418   -4.1828 H   0  0  0  0  0  0  0  0  0  0  0  0
   26.3367   67.5423   -3.3718 O   0  0  0  0  0  0  0  0  0  0  0  0
   27.8090   66.1528   -7.5122 O   0  0  0  0  0  0  0  0  0  0  0  0
   27.6347   69.0180   -4.6345 N   0  0  0  0  0  0  0  0  0  0  0  0
   27.0707   66.8525   -5.4337 N   0  0  0  0  0  0  0  0  0  0  0  0
   26.9692   67.7923   -4.3999 C   0  0  0  0  0  0  0  0  0  0  0  0
   28.3253   69.2216   -5.8243 C   0  0  0  0  0  0  0  0  0  0  0  0
   28.4136   68.3148   -6.7995 C   0  0  0  0  0  0  0  0  0  0  0  0
   27.7463   67.0074   -6.6338 C   0  0  0  0  0  0  0  0  0  0  0  0
   26.6152   65.9909   -5.2923 H   0  0  0  0  0  0  0  0  0  0  0  0
   21.3683   72.2241   -4.5183 O   0  0  0  0  0  0  0  0  0  0  0  0
   20.6512   70.7957   -4.2763 P   0  0  2  0  0  0  0  0  0  0  0  0
   19.5269   71.1291   -3.1617 O   0  0  0  0  0  0  0  0  0  0  0  0
   21.5934   69.6911   -3.8944 O   0  0  0  0  0  0  0  0  0  0  0  0
   19.8153   70.5238   -5.6299 O   0  0  0  0  0  0  0  0  0  0  0  0
   19.0218   72.0621   -7.2487 O   0  0  0  0  0  0  0  0  0  0  0  0
   15.9080   69.3513   -7.3325 O   0  0  0  0  0  0  0  0  0  0  0  0
   17.7457   69.4685   -9.5364 O   0  0  0  0  0  0  0  0  0  0  0  0
   17.1781   70.0142   -4.8171 O   0  0  0  0  0  0  0  0  0  0  0  0
   17.2712   69.7665   -7.2111 C   0  0  1  0  0  0  0  0  0  0  0  0
   17.6797   70.4580   -8.5133 C   0  0  1  0  0  0  0  0  0  0  0  0
   17.3973   70.7267   -6.0299 C   0  0  2  0  0  0  0  0  0  0  0  0
   19.0341   71.1640   -8.3645 C   0  0  1  0  0  0  0  0  0  0  0  0
   18.7647   71.4120   -6.0025 C   0  0  1  0  0  0  0  0  0  0  0  0
   15.8212   68.7410   -8.0805 H   0  0  0  0  0  0  0  0  0  0  0  0
   16.8843   69.0300   -9.6199 H   0  0  0  0  0  0  0  0  0  0  0  0
   16.3092   69.5853   -4.8468 H   0  0  0  0  0  0  0  0  0  0  0  0
   19.8910   71.1197  -10.5944 O   0  0  0  0  0  0  0  0  0  0  0  0
   19.3868   71.9909   -9.5989 C   0  0  0  0  0  0  0  0  0  0  0  0
   20.1194   71.6322  -11.3862 H   0  0  0  0  0  0  0  0  0  0  0  0
 25 28  1  0
 25 24  1  0
 25 26  1  1
 25 27  2  0
  1  4  1  0
  1 24  1  0
  1  2  1  6
  1  3  2  0
  6 11  1  0
  6 12  1  0
 29 36  1  0
 29 37  1  0
  9  7  1  1
  7 13  1  0
 10  8  1  1
  8 14  1  0
 37 28  1  6
  4  5  1  0
 33 30  1  6
 30 38  1  0
 34 31  1  6
 31 39  1  0
 35 32  1  1
 32 40  1  0
 41 42  1  0
 41 43  1  0
 15 19  2  0
 16 22  2  0
 12 17  1  6
 17 19  1  0
 17 20  1  0
 18 19  1  0
 18 22  1  0
 18 23  1  0
  9 10  1  0
  9 11  1  0
 10 12  1  0
 11  5  1  6
 33 34  1  0
 33 35  1  0
 34 36  1  0
 35 37  1  0
 36 42  1  6
 20 21  2  0
 21 22  1  0
M  CHG  2   2  -1  26  -1
M  END
>  <COMPND>  (154) 
    8629 

>  <AUTHOR>  (154) 
    GENERATED BY OPEN BABEL 3.1.1

>  <MASTER>  (154) 
        0    0    0    0    0    0    0    0   58    0   58    0

>  <minimizedAffinity>  (154) 
-7.59106

>  <CNNscore>  (154) 
0.3385345638

>  <CNNaffinity>  (154) 
4.3582572937

>  <CNN_VS>  (154) 
1.4754207134

>  <CNNaffinity_variance>  (154) 
0.0421584472

$$$$
155
     RDKit          3D

 43 45  0  0  0  0  0  0  0  0999 V2000
   22.8539   72.9351   -2.5422 P   0  0  2  0  0  0  0  0  0  0  0  0
   22.1164   71.6892   -1.8203 O   0  0  0  0  0  0  0  0  0  0  0  0
   23.2738   74.0430   -1.6215 O   0  0  0  0  0  0  0  0  0  0  0  0
   21.8364   73.3547   -3.7281 O   0  0  0  0  0  0  0  0  0  0  0  0
   20.7726   72.4753   -4.0489 C   0  0  0  0  0  0  0  0  0  0  0  0
   20.1190   70.8240   -5.6675 O   0  0  0  0  0  0  0  0  0  0  0  0
   21.1192   72.7382   -7.7475 O   0  0  0  0  0  0  0  0  0  0  0  0
   18.4198   73.1131   -7.8437 O   0  0  0  0  0  0  0  0  0  0  0  0
   20.4537   73.0114   -6.5155 C   0  0  1  0  0  0  0  0  0  0  0  0
   18.9824   72.6698   -6.6256 C   0  0  2  0  0  0  0  0  0  0  0  0
   20.9390   71.9991   -5.4854 C   0  0  1  0  0  0  0  0  0  0  0  0
   19.0008   71.1553   -6.5071 C   0  0  2  0  0  0  0  0  0  0  0  0
   20.8256   73.3724   -8.4209 H   0  0  0  0  0  0  0  0  0  0  0  0
   18.4307   74.0826   -7.8712 H   0  0  0  0  0  0  0  0  0  0  0  0
   17.2618   69.3164   -7.7609 O   0  0  0  0  0  0  0  0  0  0  0  0
   14.4267   69.2404   -4.1280 O   0  0  0  0  0  0  0  0  0  0  0  0
   17.8012   70.6379   -5.9116 N   0  0  0  0  0  0  0  0  0  0  0  0
   15.8516   69.2799   -5.9509 N   0  0  0  0  0  0  0  0  0  0  0  0
   16.9972   69.7196   -6.6264 C   0  0  0  0  0  0  0  0  0  0  0  0
   17.4327   71.0410   -4.6327 C   0  0  0  0  0  0  0  0  0  0  0  0
   16.3364   70.6133   -4.0030 C   0  0  0  0  0  0  0  0  0  0  0  0
   15.4421   69.6523   -4.6803 C   0  0  0  0  0  0  0  0  0  0  0  0
   15.2761   68.6400   -6.4295 H   0  0  0  0  0  0  0  0  0  0  0  0
   24.0684   72.2262   -3.3394 O   0  0  0  0  0  0  0  0  0  0  0  0
   24.9709   72.7432   -4.5768 P   0  0  2  0  0  0  0  0  0  0  0  0
   25.5826   74.1386   -4.0324 O   0  0  0  0  0  0  0  0  0  0  0  0
   24.2265   72.8582   -5.8755 O   0  0  0  0  0  0  0  0  0  0  0  0
   26.2295   71.7335   -4.6144 O   0  0  0  0  0  0  0  0  0  0  0  0
   26.5709   69.7587   -3.3494 O   0  0  0  0  0  0  0  0  0  0  0  0
   30.4831   71.0509   -3.6242 O   0  0  0  0  0  0  0  0  0  0  0  0
   29.6333   68.7690   -5.1469 O   0  0  0  0  0  0  0  0  0  0  0  0
   28.3500   72.9730   -3.2572 O   0  0  0  0  0  0  0  0  0  0  0  0
   29.1417   70.8518   -4.0786 C   0  0  1  0  0  0  0  0  0  0  0  0
   28.8606   69.3480   -4.0990 C   0  0  1  0  0  0  0  0  0  0  0  0
   28.1818   71.5653   -3.1285 C   0  0  2  0  0  0  0  0  0  0  0  0
   27.3679   69.0664   -4.3175 C   0  0  1  0  0  0  0  0  0  0  0  0
   26.7269   71.1782   -3.3997 C   0  0  1  0  0  0  0  0  0  0  0  0
   31.0977   70.6007   -4.2234 H   0  0  0  0  0  0  0  0  0  0  0  0
   30.5737   68.9545   -4.9972 H   0  0  0  0  0  0  0  0  0  0  0  0
   29.2749   73.2053   -3.0828 H   0  0  0  0  0  0  0  0  0  0  0  0
   26.9179   67.0296   -5.4826 O   0  0  0  0  0  0  0  0  0  0  0  0
   27.0407   67.5807   -4.1844 C   0  0  0  0  0  0  0  0  0  0  0  0
   26.7100   66.0842   -5.4136 H   0  0  0  0  0  0  0  0  0  0  0  0
 25 28  1  0
 25 24  1  0
 25 26  1  1
 25 27  2  0
  1  4  1  0
  1 24  1  0
  1  2  1  1
  1  3  2  0
  6 11  1  0
  6 12  1  0
 29 36  1  0
 29 37  1  0
  9  7  1  6
  7 13  1  0
 10  8  1  6
  8 14  1  0
 37 28  1  6
  4  5  1  0
 33 30  1  1
 30 38  1  0
 34 31  1  6
 31 39  1  0
 35 32  1  6
 32 40  1  0
 41 42  1  0
 41 43  1  0
 15 19  2  0
 16 22  2  0
 12 17  1  1
 17 19  1  0
 17 20  1  0
 18 19  1  0
 18 22  1  0
 18 23  1  0
  9 10  1  0
  9 11  1  0
 10 12  1  0
 11  5  1  1
 33 34  1  0
 33 35  1  0
 34 36  1  0
 35 37  1  0
 36 42  1  1
 20 21  2  0
 21 22  1  0
M  CHG  2   2  -1  26  -1
M  END
>  <COMPND>  (155) 
    8629 

>  <AUTHOR>  (155) 
    GENERATED BY OPEN BABEL 3.1.1

>  <MASTER>  (155) 
        0    0    0    0    0    0    0    0   58    0   58    0

>  <minimizedAffinity>  (155) 
-6.21309

>  <CNNscore>  (155) 
0.3306123912

>  <CNNaffinity>  (155) 
4.1315207481

>  <CNN_VS>  (155) 
1.3659319878

>  <CNNaffinity_variance>  (155) 
0.1287994981

$$$$
156
     RDKit          3D

 43 45  0  0  0  0  0  0  0  0999 V2000
   25.8157   71.6285   -2.5161 P   0  0  2  0  0  0  0  0  0  0  0  0
   24.6591   72.0728   -1.4758 O   0  0  0  0  0  0  0  0  0  0  0  0
   25.5035   70.4047   -3.3261 O   0  0  0  0  0  0  0  0  0  0  0  0
   27.1487   71.5455   -1.6028 O   0  0  0  0  0  0  0  0  0  0  0  0
   28.3211   72.1992   -2.0566 C   0  0  0  0  0  0  0  0  0  0  0  0
   29.4747   70.1113   -1.7676 O   0  0  0  0  0  0  0  0  0  0  0  0
   31.8796   71.7536   -1.0533 O   0  0  0  0  0  0  0  0  0  0  0  0
   32.3857   71.0520   -3.6395 O   0  0  0  0  0  0  0  0  0  0  0  0
   30.8586   72.0193   -2.0136 C   0  0  1  0  0  0  0  0  0  0  0  0
   31.0361   71.1330   -3.2287 C   0  0  2  0  0  0  0  0  0  0  0  0
   29.5372   71.5178   -1.4445 C   0  0  1  0  0  0  0  0  0  0  0  0
   30.4958   69.8033   -2.7306 C   0  0  2  0  0  0  0  0  0  0  0  0
   32.7331   72.0655   -1.3944 H   0  0  0  0  0  0  0  0  0  0  0  0
   32.6829   71.9224   -3.9475 H   0  0  0  0  0  0  0  0  0  0  0  0
   31.9608   68.0616   -4.4033 O   0  0  0  0  0  0  0  0  0  0  0  0
   28.1838   66.8355   -6.7426 O   0  0  0  0  0  0  0  0  0  0  0  0
   29.9206   69.0164   -3.7847 N   0  0  0  0  0  0  0  0  0  0  0  0
   30.0790   67.4524   -5.5666 N   0  0  0  0  0  0  0  0  0  0  0  0
   30.7443   68.1741   -4.5673 C   0  0  0  0  0  0  0  0  0  0  0  0
   28.5540   69.0841   -4.0333 C   0  0  0  0  0  0  0  0  0  0  0  0
   27.9352   68.3904   -4.9909 C   0  0  0  0  0  0  0  0  0  0  0  0
   28.7235   67.4867   -5.8535 C   0  0  0  0  0  0  0  0  0  0  0  0
   30.6326   66.8593   -6.1247 H   0  0  0  0  0  0  0  0  0  0  0  0
   26.0552   72.9688   -3.3875 O   0  0  0  0  0  0  0  0  0  0  0  0
   25.1256   73.6982   -4.4905 P   0  0  2  0  0  0  0  0  0  0  0  0
   25.6310   73.0541   -5.8860 O   0  0  0  0  0  0  0  0  0  0  0  0
   25.1786   75.1978   -4.4455 O   0  0  0  0  0  0  0  0  0  0  0  0
   23.6548   73.0738   -4.2625 O   0  0  0  0  0  0  0  0  0  0  0  0
   22.9201   70.9038   -4.8691 O   0  0  0  0  0  0  0  0  0  0  0  0
   19.3633   72.9533   -5.3150 O   0  0  0  0  0  0  0  0  0  0  0  0
   19.6996   71.1634   -3.0944 O   0  0  0  0  0  0  0  0  0  0  0  0
   21.8558   74.1994   -6.0986 O   0  0  0  0  0  0  0  0  0  0  0  0
   20.6282   72.6532   -4.7190 C   0  0  1  0  0  0  0  0  0  0  0  0
   20.5874   71.2117   -4.2078 C   0  0  1  0  0  0  0  0  0  0  0  0
   21.7264   72.8210   -5.7674 C   0  0  2  0  0  0  0  0  0  0  0  0
   21.9855   70.7296   -3.7977 C   0  0  1  0  0  0  0  0  0  0  0  0
   23.0648   72.2655   -5.2773 C   0  0  1  0  0  0  0  0  0  0  0  0
   18.6616   72.8492   -4.6545 H   0  0  0  0  0  0  0  0  0  0  0  0
   18.8206   71.4707   -3.3667 H   0  0  0  0  0  0  0  0  0  0  0  0
   21.0020   74.5391   -6.4077 H   0  0  0  0  0  0  0  0  0  0  0  0
   21.1931   68.5492   -4.3692 O   0  0  0  0  0  0  0  0  0  0  0  0
   21.9952   69.2465   -3.4340 C   0  0  0  0  0  0  0  0  0  0  0  0
   21.1902   67.6038   -4.1504 H   0  0  0  0  0  0  0  0  0  0  0  0
 25 28  1  0
 25 24  1  0
 25 26  1  6
 25 27  2  0
  1  4  1  0
  1 24  1  0
  1  2  1  1
  1  3  2  0
  6 11  1  0
  6 12  1  0
 29 36  1  0
 29 37  1  0
  9  7  1  1
  7 13  1  0
 10  8  1  1
  8 14  1  0
 37 28  1  1
  4  5  1  0
 33 30  1  6
 30 38  1  0
 34 31  1  1
 31 39  1  0
 35 32  1  1
 32 40  1  0
 41 42  1  0
 41 43  1  0
 15 19  2  0
 16 22  2  0
 12 17  1  6
 17 19  1  0
 17 20  1  0
 18 19  1  0
 18 22  1  0
 18 23  1  0
  9 10  1  0
  9 11  1  0
 10 12  1  0
 11  5  1  6
 33 34  1  0
 33 35  1  0
 34 36  1  0
 35 37  1  0
 36 42  1  6
 20 21  2  0
 21 22  1  0
M  CHG  2   2  -1  26  -1
M  END
>  <COMPND>  (156) 
    8629 

>  <AUTHOR>  (156) 
    GENERATED BY OPEN BABEL 3.1.1

>  <MASTER>  (156) 
        0    0    0    0    0    0    0    0   58    0   58    0

>  <minimizedAffinity>  (156) 
-6.83662

>  <CNNscore>  (156) 
0.3219725192

>  <CNNaffinity>  (156) 
4.1291761398

>  <CNN_VS>  (156) 
1.3294812441

>  <CNNaffinity_variance>  (156) 
0.1670816392

$$$$
157
     RDKit          3D

 43 45  0  0  0  0  0  0  0  0999 V2000
   32.0547   70.3834    0.9734 P   0  0  2  0  0  0  0  0  0  0  0  0
   32.6630   69.0369    1.6323 O   0  0  0  0  0  0  0  0  0  0  0  0
   32.8664   71.6242    1.2037 O   0  0  0  0  0  0  0  0  0  0  0  0
   30.5319   70.4288    1.5182 O   0  0  0  0  0  0  0  0  0  0  0  0
   30.2052   71.3597    2.5353 C   0  0  0  0  0  0  0  0  0  0  0  0
   28.5288   72.5900    1.3312 O   0  0  0  0  0  0  0  0  0  0  0  0
   30.0082   75.0604    2.1676 O   0  0  0  0  0  0  0  0  0  0  0  0
   27.9224   74.9938    3.9229 O   0  0  0  0  0  0  0  0  0  0  0  0
   29.7994   73.8466    2.8876 C   0  0  1  0  0  0  0  0  0  0  0  0
   28.3700   73.7676    3.3818 C   0  0  2  0  0  0  0  0  0  0  0  0
   29.8558   72.6947    1.8919 C   0  0  1  0  0  0  0  0  0  0  0  0
   27.6211   73.3779    2.1187 C   0  0  2  0  0  0  0  0  0  0  0  0
   29.9769   75.8105    2.7827 H   0  0  0  0  0  0  0  0  0  0  0  0
   28.4290   75.1978    4.7244 H   0  0  0  0  0  0  0  0  0  0  0  0
   25.2727   73.4158    0.5497 O   0  0  0  0  0  0  0  0  0  0  0  0
   23.1799   70.3484    3.2797 O   0  0  0  0  0  0  0  0  0  0  0  0
   26.4474   72.5988    2.3962 N   0  0  0  0  0  0  0  0  0  0  0  0
   24.2326   71.8883    1.9102 N   0  0  0  0  0  0  0  0  0  0  0  0
   25.3209   72.6916    1.5461 C   0  0  0  0  0  0  0  0  0  0  0  0
   26.4216   71.7542    3.5007 C   0  0  0  0  0  0  0  0  0  0  0  0
   25.3755   70.9957    3.8349 C   0  0  0  0  0  0  0  0  0  0  0  0
   24.1583   71.0338    2.9988 C   0  0  0  0  0  0  0  0  0  0  0  0
   23.4364   71.9368    1.3328 H   0  0  0  0  0  0  0  0  0  0  0  0
   31.8726   69.9775   -0.5806 O   0  0  0  0  0  0  0  0  0  0  0  0
   31.3057   70.8197   -1.8385 P   0  0  2  0  0  0  0  0  0  0  0  0
   32.5430   71.7880   -2.2246 O   0  0  0  0  0  0  0  0  0  0  0  0
   30.0171   71.5403   -1.5660 O   0  0  0  0  0  0  0  0  0  0  0  0
   31.2321   69.7512   -3.0458 O   0  0  0  0  0  0  0  0  0  0  0  0
   28.9130   69.2690   -3.1230 O   0  0  0  0  0  0  0  0  0  0  0  0
   30.1419   67.1315   -6.4354 O   0  0  0  0  0  0  0  0  0  0  0  0
   28.6600   69.5662   -6.7886 O   0  0  0  0  0  0  0  0  0  0  0  0
   31.7997   67.1982   -4.0633 O   0  0  0  0  0  0  0  0  0  0  0  0
   30.1610   68.2172   -5.5046 C   0  0  1  0  0  0  0  0  0  0  0  0
   28.7921   68.8999   -5.5360 C   0  0  1  0  0  0  0  0  0  0  0  0
   30.4584   67.6729   -4.1087 C   0  0  2  0  0  0  0  0  0  0  0  0
   28.6450   69.8995   -4.3809 C   0  0  1  0  0  0  0  0  0  0  0  0
   30.2345   68.7335   -3.0293 C   0  0  1  0  0  0  0  0  0  0  0  0
   29.9540   67.4705   -7.3238 H   0  0  0  0  0  0  0  0  0  0  0  0
   28.7554   68.9239   -7.5094 H   0  0  0  0  0  0  0  0  0  0  0  0
   31.9286   66.5273   -4.7511 H   0  0  0  0  0  0  0  0  0  0  0  0
   26.5351   69.8093   -3.2631 O   0  0  0  0  0  0  0  0  0  0  0  0
   27.2330   70.4754   -4.2993 C   0  0  0  0  0  0  0  0  0  0  0  0
   25.6348   70.1658   -3.1994 H   0  0  0  0  0  0  0  0  0  0  0  0
 25 28  1  0
 25 24  1  0
 25 26  1  6
 25 27  2  0
  1  4  1  0
  1 24  1  0
  1  2  1  1
  1  3  2  0
  6 11  1  0
  6 12  1  0
 29 36  1  0
 29 37  1  0
  9  7  1  6
  7 13  1  0
 10  8  1  6
  8 14  1  0
 37 28  1  6
  4  5  1  0
 33 30  1  6
 30 38  1  0
 34 31  1  6
 31 39  1  0
 35 32  1  6
 32 40  1  0
 41 42  1  0
 41 43  1  0
 15 19  2  0
 16 22  2  0
 12 17  1  1
 17 19  1  0
 17 20  1  0
 18 19  1  0
 18 22  1  0
 18 23  1  0
  9 10  1  0
  9 11  1  0
 10 12  1  0
 11  5  1  1
 33 34  1  0
 33 35  1  0
 34 36  1  0
 35 37  1  0
 36 42  1  1
 20 21  2  0
 21 22  1  0
M  CHG  2   2  -1  26  -1
M  END
>  <COMPND>  (157) 
    8629 

>  <AUTHOR>  (157) 
    GENERATED BY OPEN BABEL 3.1.1

>  <MASTER>  (157) 
        0    0    0    0    0    0    0    0   58    0   58    0

>  <minimizedAffinity>  (157) 
-7.12105

>  <CNNscore>  (157) 
0.2924772799

>  <CNNaffinity>  (157) 
3.7023692131

>  <CNN_VS>  (157) 
1.0828589201

>  <CNNaffinity_variance>  (157) 
0.3898280859

$$$$
158
     RDKit          3D

 43 45  0  0  0  0  0  0  0  0999 V2000
   21.7768   70.0680   -3.7187 P   0  0  2  0  0  0  0  0  0  0  0  0
   21.7932   68.5246   -3.2341 O   0  0  0  0  0  0  0  0  0  0  0  0
   21.0631   71.0138   -2.7981 O   0  0  0  0  0  0  0  0  0  0  0  0
   21.2059   69.9943   -5.2308 O   0  0  0  0  0  0  0  0  0  0  0  0
   20.3068   71.0003   -5.6639 C   0  0  0  0  0  0  0  0  0  0  0  0
   20.7911   71.6438   -7.9278 O   0  0  0  0  0  0  0  0  0  0  0  0
   21.6451   74.2859   -6.7962 O   0  0  0  0  0  0  0  0  0  0  0  0
   19.1488   74.8273   -7.7511 O   0  0  0  0  0  0  0  0  0  0  0  0
   20.5860   73.4258   -6.3793 C   0  0  1  0  0  0  0  0  0  0  0  0
   19.4324   73.5000   -7.3577 C   0  0  2  0  0  0  0  0  0  0  0  0
   21.0556   71.9865   -6.5498 C   0  0  1  0  0  0  0  0  0  0  0  0
   19.9385   72.6451   -8.5070 C   0  0  2  0  0  0  0  0  0  0  0  0
   21.3687   75.2109   -6.6961 H   0  0  0  0  0  0  0  0  0  0  0  0
   18.8303   75.3305   -6.9855 H   0  0  0  0  0  0  0  0  0  0  0  0
   20.3079   70.5858  -10.4047 O   0  0  0  0  0  0  0  0  0  0  0  0
   15.7773   70.2297  -11.1715 O   0  0  0  0  0  0  0  0  0  0  0  0
   18.8730   71.9960   -9.2174 N   0  0  0  0  0  0  0  0  0  0  0  0
   18.0517   70.4101  -10.7848 N   0  0  0  0  0  0  0  0  0  0  0  0
   19.1659   70.9740  -10.1502 C   0  0  0  0  0  0  0  0  0  0  0  0
   17.5548   72.3740   -8.9861 C   0  0  0  0  0  0  0  0  0  0  0  0
   16.5037   71.8272   -9.6005 C   0  0  0  0  0  0  0  0  0  0  0  0
   16.7230   70.7524  -10.5898 C   0  0  0  0  0  0  0  0  0  0  0  0
   18.2315   69.6963  -11.4391 H   0  0  0  0  0  0  0  0  0  0  0  0
   23.3442   70.3968   -3.9378 O   0  0  0  0  0  0  0  0  0  0  0  0
   24.1523   71.7960   -3.8890 P   0  0  2  0  0  0  0  0  0  0  0  0
   24.0960   72.2026   -2.3241 O   0  0  0  0  0  0  0  0  0  0  0  0
   23.6212   72.8462   -4.8212 O   0  0  0  0  0  0  0  0  0  0  0  0
   25.6920   71.3878   -4.1490 O   0  0  0  0  0  0  0  0  0  0  0  0
   26.6648   69.4794   -3.1349 O   0  0  0  0  0  0  0  0  0  0  0  0
   30.0901   71.6823   -3.8172 O   0  0  0  0  0  0  0  0  0  0  0  0
   29.5559   69.3591   -5.4188 O   0  0  0  0  0  0  0  0  0  0  0  0
   27.6592   73.0140   -2.9826 O   0  0  0  0  0  0  0  0  0  0  0  0
   28.7754   71.1963   -4.1012 C   0  0  1  0  0  0  0  0  0  0  0  0
   28.8437   69.6729   -4.2253 C   0  0  1  0  0  0  0  0  0  0  0  0
   27.8373   71.6018   -2.9659 C   0  0  2  0  0  0  0  0  0  0  0  0
   27.4387   69.0567   -4.2638 C   0  0  1  0  0  0  0  0  0  0  0  0
   26.4845   70.8955   -3.0715 C   0  0  1  0  0  0  0  0  0  0  0  0
   30.6906   71.4287   -4.5345 H   0  0  0  0  0  0  0  0  0  0  0  0
   30.4411   69.7544   -5.3820 H   0  0  0  0  0  0  0  0  0  0  0  0
   28.5227   73.4495   -2.9148 H   0  0  0  0  0  0  0  0  0  0  0  0
   26.6088   67.0329   -5.2253 O   0  0  0  0  0  0  0  0  0  0  0  0
   27.4823   67.5306   -4.2285 C   0  0  0  0  0  0  0  0  0  0  0  0
   26.6265   66.0627   -5.2147 H   0  0  0  0  0  0  0  0  0  0  0  0
 25 28  1  0
 25 24  1  0
 25 26  1  1
 25 27  2  0
  1  4  1  0
  1 24  1  0
  1  2  1  1
  1  3  2  0
  6 11  1  0
  6 12  1  0
 29 36  1  0
 29 37  1  0
  9  7  1  6
  7 13  1  0
 10  8  1  6
  8 14  1  0
 37 28  1  6
  4  5  1  0
 33 30  1  1
 30 38  1  0
 34 31  1  6
 31 39  1  0
 35 32  1  6
 32 40  1  0
 41 42  1  0
 41 43  1  0
 15 19  2  0
 16 22  2  0
 12 17  1  1
 17 19  1  0
 17 20  1  0
 18 19  1  0
 18 22  1  0
 18 23  1  0
  9 10  1  0
  9 11  1  0
 10 12  1  0
 11  5  1  1
 33 34  1  0
 33 35  1  0
 34 36  1  0
 35 37  1  0
 36 42  1  1
 20 21  2  0
 21 22  1  0
M  CHG  2   2  -1  26  -1
M  END
>  <COMPND>  (158) 
    8629 

>  <AUTHOR>  (158) 
    GENERATED BY OPEN BABEL 3.1.1

>  <MASTER>  (158) 
        0    0    0    0    0    0    0    0   58    0   58    0

>  <minimizedAffinity>  (158) 
-7.36630

>  <CNNscore>  (158) 
0.2824598551

>  <CNNaffinity>  (158) 
4.1954102516

>  <CNN_VS>  (158) 
1.1850349903

>  <CNNaffinity_variance>  (158) 
0.0541318133

$$$$
159
     RDKit          3D

 43 45  0  0  0  0  0  0  0  0999 V2000
   29.0831   72.0703    0.2293 P   0  0  2  0  0  0  0  0  0  0  0  0
   30.1367   71.7007    1.4000 O   0  0  0  0  0  0  0  0  0  0  0  0
   29.0953   73.5068   -0.2040 O   0  0  0  0  0  0  0  0  0  0  0  0
   27.6696   71.5175    0.7901 O   0  0  0  0  0  0  0  0  0  0  0  0
   27.6036   71.0696    2.1328 C   0  0  0  0  0  0  0  0  0  0  0  0
   25.8114   72.6571    1.9287 O   0  0  0  0  0  0  0  0  0  0  0  0
   25.1105   71.9473    4.7563 O   0  0  0  0  0  0  0  0  0  0  0  0
   23.2858   70.5217    3.3159 O   0  0  0  0  0  0  0  0  0  0  0  0
   25.6107   71.1116    3.7139 C   0  0  1  0  0  0  0  0  0  0  0  0
   24.5215   70.8252    2.7013 C   0  0  2  0  0  0  0  0  0  0  0  0
   26.6015   71.9276    2.8930 C   0  0  1  0  0  0  0  0  0  0  0  0
   24.4782   72.1214    1.9100 C   0  0  2  0  0  0  0  0  0  0  0  0
   24.4758   71.4478    5.2945 H   0  0  0  0  0  0  0  0  0  0  0  0
   23.3646   69.6889    3.8068 H   0  0  0  0  0  0  0  0  0  0  0  0
   21.8243   71.6135    1.0872 O   0  0  0  0  0  0  0  0  0  0  0  0
   23.0546   71.3541   -3.3468 O   0  0  0  0  0  0  0  0  0  0  0  0
   24.0765   71.9176    0.5467 N   0  0  0  0  0  0  0  0  0  0  0  0
   22.4391   71.4850   -1.1200 N   0  0  0  0  0  0  0  0  0  0  0  0
   22.7184   71.6684    0.2403 C   0  0  0  0  0  0  0  0  0  0  0  0
   25.0245   71.9662   -0.4696 C   0  0  0  0  0  0  0  0  0  0  0  0
   24.7420   71.7878   -1.7617 C   0  0  0  0  0  0  0  0  0  0  0  0
   23.3464   71.5225   -2.1668 C   0  0  0  0  0  0  0  0  0  0  0  0
   21.4995   71.3096   -1.3572 H   0  0  0  0  0  0  0  0  0  0  0  0
   29.4498   71.0127   -0.9369 O   0  0  0  0  0  0  0  0  0  0  0  0
   30.8643   70.3655   -1.3766 P   0  0  2  0  0  0  0  0  0  0  0  0
   30.9556   69.0255   -0.4747 O   0  0  0  0  0  0  0  0  0  0  0  0
   32.0368   71.2917   -1.2301 O   0  0  0  0  0  0  0  0  0  0  0  0
   30.6189   69.8297   -2.8792 O   0  0  0  0  0  0  0  0  0  0  0  0
   28.3241   69.4206   -3.3070 O   0  0  0  0  0  0  0  0  0  0  0  0
   29.9426   67.7120   -6.6999 O   0  0  0  0  0  0  0  0  0  0  0  0
   28.5373   70.2085   -6.9018 O   0  0  0  0  0  0  0  0  0  0  0  0
   31.2889   67.4211   -4.1539 O   0  0  0  0  0  0  0  0  0  0  0  0
   29.8533   68.6635   -5.6360 C   0  0  1  0  0  0  0  0  0  0  0  0
   28.5050   69.3785   -5.7440 C   0  0  1  0  0  0  0  0  0  0  0  0
   29.9680   67.9312   -4.3004 C   0  0  2  0  0  0  0  0  0  0  0  0
   28.2218   70.2192   -4.4917 C   0  0  1  0  0  0  0  0  0  0  0  0
   29.6187   68.8442   -3.1237 C   0  0  1  0  0  0  0  0  0  0  0  0
   29.8709   68.1706   -7.5508 H   0  0  0  0  0  0  0  0  0  0  0  0
   28.7174   69.6655   -7.6854 H   0  0  0  0  0  0  0  0  0  0  0  0
   31.4978   66.8445   -4.9047 H   0  0  0  0  0  0  0  0  0  0  0  0
   26.8031   71.9126   -5.4018 O   0  0  0  0  0  0  0  0  0  0  0  0
   26.8156   70.8145   -4.5084 C   0  0  0  0  0  0  0  0  0  0  0  0
   25.9142   72.3014   -5.4230 H   0  0  0  0  0  0  0  0  0  0  0  0
 25 28  1  0
 25 24  1  0
 25 26  1  1
 25 27  2  0
  1  4  1  0
  1 24  1  0
  1  2  1  1
  1  3  2  0
  6 11  1  0
  6 12  1  0
 29 36  1  0
 29 37  1  0
  9  7  1  1
  7 13  1  0
 10  8  1  1
  8 14  1  0
 37 28  1  6
  4  5  1  0
 33 30  1  6
 30 38  1  0
 34 31  1  6
 31 39  1  0
 35 32  1  1
 32 40  1  0
 41 42  1  0
 41 43  1  0
 15 19  2  0
 16 22  2  0
 12 17  1  6
 17 19  1  0
 17 20  1  0
 18 19  1  0
 18 22  1  0
 18 23  1  0
  9 10  1  0
  9 11  1  0
 10 12  1  0
 11  5  1  6
 33 34  1  0
 33 35  1  0
 34 36  1  0
 35 37  1  0
 36 42  1  6
 20 21  2  0
 21 22  1  0
M  CHG  2   2  -1  26  -1
M  END
>  <COMPND>  (159) 
    8629 

>  <AUTHOR>  (159) 
    GENERATED BY OPEN BABEL 3.1.1

>  <MASTER>  (159) 
        0    0    0    0    0    0    0    0   58    0   58    0

>  <minimizedAffinity>  (159) 
-7.34993

>  <CNNscore>  (159) 
0.2820549309

>  <CNNaffinity>  (159) 
3.7853705883

>  <CNN_VS>  (159) 
1.0676823854

>  <CNNaffinity_variance>  (159) 
0.4645540714

$$$$
160
     RDKit          3D

 43 45  0  0  0  0  0  0  0  0999 V2000
   22.1044   72.9442   -5.4279 P   0  0  2  0  0  0  0  0  0  0  0  0
   22.3740   74.4562   -4.9194 O   0  0  0  0  0  0  0  0  0  0  0  0
   21.2626   72.1074   -4.5099 O   0  0  0  0  0  0  0  0  0  0  0  0
   23.5842   72.3705   -5.7424 O   0  0  0  0  0  0  0  0  0  0  0  0
   24.6370   72.6898   -4.8494 C   0  0  0  0  0  0  0  0  0  0  0  0
   24.8620   70.5019   -3.8818 O   0  0  0  0  0  0  0  0  0  0  0  0
   24.8190   71.8798   -1.2190 O   0  0  0  0  0  0  0  0  0  0  0  0
   27.4759   71.3927   -1.5934 O   0  0  0  0  0  0  0  0  0  0  0  0
   25.3951   72.3134   -2.4500 C   0  0  1  0  0  0  0  0  0  0  0  0
   26.6625   71.5367   -2.7399 C   0  0  2  0  0  0  0  0  0  0  0  0
   24.4797   71.8620   -3.5812 C   0  0  1  0  0  0  0  0  0  0  0  0
   26.1126   70.2105   -3.2369 C   0  0  2  0  0  0  0  0  0  0  0  0
   25.3859   72.1569   -0.4816 H   0  0  0  0  0  0  0  0  0  0  0  0
   27.8012   72.2634   -1.3162 H   0  0  0  0  0  0  0  0  0  0  0  0
   26.5903   67.4289   -3.3469 O   0  0  0  0  0  0  0  0  0  0  0  0
   29.4887   67.8820   -6.9015 O   0  0  0  0  0  0  0  0  0  0  0  0
   26.9872   69.5744   -4.1813 N   0  0  0  0  0  0  0  0  0  0  0  0
   28.0330   67.6567   -5.1168 N   0  0  0  0  0  0  0  0  0  0  0  0
   27.1582   68.1707   -4.1511 C   0  0  0  0  0  0  0  0  0  0  0  0
   27.6640   70.3405   -5.1241 C   0  0  0  0  0  0  0  0  0  0  0  0
   28.4957   69.8352   -6.0374 C   0  0  0  0  0  0  0  0  0  0  0  0
   28.7298   68.3771   -6.0740 C   0  0  0  0  0  0  0  0  0  0  0  0
   28.1680   66.6813   -5.1146 H   0  0  0  0  0  0  0  0  0  0  0  0
   21.4786   73.1627   -6.9022 O   0  0  0  0  0  0  0  0  0  0  0  0
   20.1891   74.0042   -7.3940 P   0  0  2  0  0  0  0  0  0  0  0  0
   20.6903   74.6765   -8.7776 O   0  0  0  0  0  0  0  0  0  0  0  0
   19.6711   74.9842   -6.3815 O   0  0  0  0  0  0  0  0  0  0  0  0
   19.1196   72.8843   -7.8490 O   0  0  0  0  0  0  0  0  0  0  0  0
   18.8637   70.6251   -7.1803 O   0  0  0  0  0  0  0  0  0  0  0  0
   17.9215   70.2395  -11.1821 O   0  0  0  0  0  0  0  0  0  0  0  0
   15.8422   70.0449   -9.2106 O   0  0  0  0  0  0  0  0  0  0  0  0
   20.0356   72.0394  -10.3633 O   0  0  0  0  0  0  0  0  0  0  0  0
   17.9658   70.8937   -9.9111 C   0  0  1  0  0  0  0  0  0  0  0  0
   17.2313   70.0172   -8.8947 C   0  0  1  0  0  0  0  0  0  0  0  0
   19.4241   71.0872   -9.4998 C   0  0  2  0  0  0  0  0  0  0  0  0
   17.4636   70.5167   -7.4623 C   0  0  1  0  0  0  0  0  0  0  0  0
   19.5451   71.5380   -8.0430 C   0  0  1  0  0  0  0  0  0  0  0  0
   16.9983   70.1140  -11.4493 H   0  0  0  0  0  0  0  0  0  0  0  0
   15.7093   69.7277  -10.1178 H   0  0  0  0  0  0  0  0  0  0  0  0
   19.9526   71.7424  -11.2824 H   0  0  0  0  0  0  0  0  0  0  0  0
   17.7577   68.4768   -6.2534 O   0  0  0  0  0  0  0  0  0  0  0  0
   16.8713   69.5677   -6.4226 C   0  0  0  0  0  0  0  0  0  0  0  0
   17.3938   67.8646   -5.5942 H   0  0  0  0  0  0  0  0  0  0  0  0
 25 28  1  0
 25 24  1  0
 25 26  1  6
 25 27  2  0
  1  4  1  0
  1 24  1  0
  1  2  1  1
  1  3  2  0
  6 11  1  0
  6 12  1  0
 29 36  1  0
 29 37  1  0
  9  7  1  1
  7 13  1  0
 10  8  1  1
  8 14  1  0
 37 28  1  6
  4  5  1  0
 33 30  1  6
 30 38  1  0
 34 31  1  6
 31 39  1  0
 35 32  1  6
 32 40  1  0
 41 42  1  0
 41 43  1  0
 15 19  2  0
 16 22  2  0
 12 17  1  6
 17 19  1  0
 17 20  1  0
 18 19  1  0
 18 22  1  0
 18 23  1  0
  9 10  1  0
  9 11  1  0
 10 12  1  0
 11  5  1  6
 33 34  1  0
 33 35  1  0
 34 36  1  0
 35 37  1  0
 36 42  1  1
 20 21  2  0
 21 22  1  0
M  CHG  2   2  -1  26  -1
M  END
>  <COMPND>  (160) 
    8629 

>  <AUTHOR>  (160) 
    GENERATED BY OPEN BABEL 3.1.1

>  <MASTER>  (160) 
        0    0    0    0    0    0    0    0   58    0   58    0

>  <minimizedAffinity>  (160) 
-7.53750

>  <CNNscore>  (160) 
0.2724106312

>  <CNNaffinity>  (160) 
4.1432323456

>  <CNN_VS>  (160) 
1.1286605597

>  <CNNaffinity_variance>  (160) 
0.0964787751

$$$$
161
     RDKit          3D

 43 45  0  0  0  0  0  0  0  0999 V2000
   24.3534   73.1163   -5.0296 P   0  0  2  0  0  0  0  0  0  0  0  0
   25.4884   73.8166   -5.9454 O   0  0  0  0  0  0  0  0  0  0  0  0
   23.7256   74.0124   -4.0028 O   0  0  0  0  0  0  0  0  0  0  0  0
   25.0816   71.7909   -4.4545 O   0  0  0  0  0  0  0  0  0  0  0  0
   26.4967   71.7273   -4.4907 C   0  0  0  0  0  0  0  0  0  0  0  0
   27.2780   69.7893   -3.3043 O   0  0  0  0  0  0  0  0  0  0  0  0
   28.4135   71.7064   -1.2979 O   0  0  0  0  0  0  0  0  0  0  0  0
   30.6045   71.0181   -2.7684 O   0  0  0  0  0  0  0  0  0  0  0  0
   28.3157   71.8367   -2.7152 C   0  0  1  0  0  0  0  0  0  0  0  0
   29.3402   70.9535   -3.3963 C   0  0  2  0  0  0  0  0  0  0  0  0
   27.0036   71.1996   -3.1555 C   0  0  1  0  0  0  0  0  0  0  0  0
   28.6995   69.5808   -3.2807 C   0  0  2  0  0  0  0  0  0  0  0  0
   29.2436   72.1065   -0.9931 H   0  0  0  0  0  0  0  0  0  0  0  0
   30.9706   71.9106   -2.8695 H   0  0  0  0  0  0  0  0  0  0  0  0
   30.9488   67.8724   -3.2765 O   0  0  0  0  0  0  0  0  0  0  0  0
   29.9922   66.3011   -7.5023 O   0  0  0  0  0  0  0  0  0  0  0  0
   29.0618   68.7141   -4.3665 N   0  0  0  0  0  0  0  0  0  0  0  0
   30.4706   67.0913   -5.3806 N   0  0  0  0  0  0  0  0  0  0  0  0
   30.2116   67.8967   -4.2642 C   0  0  0  0  0  0  0  0  0  0  0  0
   28.2806   68.6802   -5.5164 C   0  0  0  0  0  0  0  0  0  0  0  0
   28.5420   67.9075   -6.5728 C   0  0  0  0  0  0  0  0  0  0  0  0
   29.7250   67.0233   -6.5469 C   0  0  0  0  0  0  0  0  0  0  0  0
   31.2667   66.5137   -5.3321 H   0  0  0  0  0  0  0  0  0  0  0  0
   23.3223   72.5193   -6.1221 O   0  0  0  0  0  0  0  0  0  0  0  0
   21.8087   71.9737   -5.9661 P   0  0  2  0  0  0  0  0  0  0  0  0
   21.2694   72.7465   -4.6509 O   0  0  0  0  0  0  0  0  0  0  0  0
   21.6980   70.4782   -5.8945 O   0  0  0  0  0  0  0  0  0  0  0  0
   21.0036   72.6460   -7.1927 O   0  0  0  0  0  0  0  0  0  0  0  0
   19.3698   70.9774   -7.5964 O   0  0  0  0  0  0  0  0  0  0  0  0
   17.9356   73.9260  -10.1063 O   0  0  0  0  0  0  0  0  0  0  0  0
   16.5363   73.3343   -7.6691 O   0  0  0  0  0  0  0  0  0  0  0  0
   20.7885   73.5050   -9.8556 O   0  0  0  0  0  0  0  0  0  0  0  0
   18.5662   73.4077   -8.9320 C   0  0  1  0  0  0  0  0  0  0  0  0
   17.5641   72.5070   -8.2073 C   0  0  1  0  0  0  0  0  0  0  0  0
   19.8056   72.6136   -9.3402 C   0  0  2  0  0  0  0  0  0  0  0  0
   18.2460   71.7067   -7.0894 C   0  0  1  0  0  0  0  0  0  0  0  0
   20.3769   71.8155   -8.1667 C   0  0  1  0  0  0  0  0  0  0  0  0
   17.1481   74.4318   -9.8540 H   0  0  0  0  0  0  0  0  0  0  0  0
   16.1141   73.8345   -8.3851 H   0  0  0  0  0  0  0  0  0  0  0  0
   20.4148   74.0040  -10.5980 H   0  0  0  0  0  0  0  0  0  0  0  0
   17.7940   70.3525   -5.1735 O   0  0  0  0  0  0  0  0  0  0  0  0
   17.3008   70.6871   -6.4577 C   0  0  0  0  0  0  0  0  0  0  0  0
   17.2022   69.7045   -4.7593 H   0  0  0  0  0  0  0  0  0  0  0  0
 25 28  1  0
 25 24  1  0
 25 26  1  1
 25 27  2  0
  1  4  1  0
  1 24  1  0
  1  2  1  6
  1  3  2  0
  6 11  1  0
  6 12  1  0
 29 36  1  0
 29 37  1  0
  9  7  1  1
  7 13  1  0
 10  8  1  1
  8 14  1  0
 37 28  1  1
  4  5  1  0
 33 30  1  6
 30 38  1  0
 34 31  1  1
 31 39  1  0
 35 32  1  1
 32 40  1  0
 41 42  1  0
 41 43  1  0
 15 19  2  0
 16 22  2  0
 12 17  1  6
 17 19  1  0
 17 20  1  0
 18 19  1  0
 18 22  1  0
 18 23  1  0
  9 10  1  0
  9 11  1  0
 10 12  1  0
 11  5  1  6
 33 34  1  0
 33 35  1  0
 34 36  1  0
 35 37  1  0
 36 42  1  6
 20 21  2  0
 21 22  1  0
M  CHG  2   2  -1  26  -1
M  END
>  <COMPND>  (161) 
    8629 

>  <AUTHOR>  (161) 
    GENERATED BY OPEN BABEL 3.1.1

>  <MASTER>  (161) 
        0    0    0    0    0    0    0    0   58    0   58    0

>  <minimizedAffinity>  (161) 
-7.89248

>  <CNNscore>  (161) 
0.6119340062

>  <CNNaffinity>  (161) 
4.4695053101

>  <CNN_VS>  (161) 
2.7350423336

>  <CNNaffinity_variance>  (161) 
0.0431300476

$$$$
162
     RDKit          3D

 43 45  0  0  0  0  0  0  0  0999 V2000
   23.5256   72.2630   -4.6754 P   0  0  2  0  0  0  0  0  0  0  0  0
   23.1434   70.7054   -4.4627 O   0  0  0  0  0  0  0  0  0  0  0  0
   23.8371   72.6515   -6.0908 O   0  0  0  0  0  0  0  0  0  0  0  0
   24.7054   72.5239   -3.5993 O   0  0  0  0  0  0  0  0  0  0  0  0
   26.0497   72.3671   -4.0187 C   0  0  0  0  0  0  0  0  0  0  0  0
   26.7920   70.3119   -3.0192 O   0  0  0  0  0  0  0  0  0  0  0  0
   28.8617   71.9623   -1.6108 O   0  0  0  0  0  0  0  0  0  0  0  0
   30.2808   70.8474   -3.6553 O   0  0  0  0  0  0  0  0  0  0  0  0
   28.3339   72.1091   -2.9281 C   0  0  1  0  0  0  0  0  0  0  0  0
   28.8930   71.0379   -3.8410 C   0  0  2  0  0  0  0  0  0  0  0  0
   26.8542   71.7486   -2.8836 C   0  0  1  0  0  0  0  0  0  0  0  0
   28.0767   69.8220   -3.4369 C   0  0  2  0  0  0  0  0  0  0  0  0
   29.8058   72.1875   -1.6140 H   0  0  0  0  0  0  0  0  0  0  0  0
   30.7564   71.6480   -3.9264 H   0  0  0  0  0  0  0  0  0  0  0  0
   26.4964   67.4852   -3.2961 O   0  0  0  0  0  0  0  0  0  0  0  0
   27.4484   66.3577   -7.6623 O   0  0  0  0  0  0  0  0  0  0  0  0
   27.8937   68.8999   -4.5221 N   0  0  0  0  0  0  0  0  0  0  0  0
   26.9716   66.9258   -5.4703 N   0  0  0  0  0  0  0  0  0  0  0  0
   27.0805   67.7559   -4.3473 C   0  0  0  0  0  0  0  0  0  0  0  0
   28.5166   69.1342   -5.7431 C   0  0  0  0  0  0  0  0  0  0  0  0
   28.4037   68.3321   -6.8038 C   0  0  0  0  0  0  0  0  0  0  0  0
   27.5721   67.1152   -6.7048 C   0  0  0  0  0  0  0  0  0  0  0  0
   26.4104   66.1225   -5.3718 H   0  0  0  0  0  0  0  0  0  0  0  0
   22.2643   73.0386   -4.0269 O   0  0  0  0  0  0  0  0  0  0  0  0
   20.6898   72.9941   -4.3901 P   0  0  2  0  0  0  0  0  0  0  0  0
   20.1749   74.4750   -3.9908 O   0  0  0  0  0  0  0  0  0  0  0  0
   19.9367   71.8771   -3.7273 O   0  0  0  0  0  0  0  0  0  0  0  0
   20.6431   72.9674   -6.0032 O   0  0  0  0  0  0  0  0  0  0  0  0
   18.5716   72.1354   -6.7987 O   0  0  0  0  0  0  0  0  0  0  0  0
   20.6561   72.2318  -10.3619 O   0  0  0  0  0  0  0  0  0  0  0  0
   18.5880   74.1645   -9.8763 O   0  0  0  0  0  0  0  0  0  0  0  0
   21.9993   71.4360   -7.9243 O   0  0  0  0  0  0  0  0  0  0  0  0
   20.2817   72.6866   -9.0587 C   0  0  1  0  0  0  0  0  0  0  0  0
   18.7851   73.0041   -9.0732 C   0  0  1  0  0  0  0  0  0  0  0  0
   20.5889   71.5906   -8.0401 C   0  0  2  0  0  0  0  0  0  0  0  0
   18.2553   73.2411   -7.6526 C   0  0  1  0  0  0  0  0  0  0  0  0
   19.9757   71.9014   -6.6736 C   0  0  1  0  0  0  0  0  0  0  0  0
   20.4640   72.9233  -11.0134 H   0  0  0  0  0  0  0  0  0  0  0  0
   18.9273   74.0017  -10.7705 H   0  0  0  0  0  0  0  0  0  0  0  0
   22.3756   71.2393   -8.7958 H   0  0  0  0  0  0  0  0  0  0  0  0
   16.4287   74.6607   -7.0547 O   0  0  0  0  0  0  0  0  0  0  0  0
   16.7370   73.4035   -7.6281 C   0  0  0  0  0  0  0  0  0  0  0  0
   15.4657   74.7780   -7.0328 H   0  0  0  0  0  0  0  0  0  0  0  0
 25 28  1  0
 25 24  1  0
 25 26  1  1
 25 27  2  0
  1  4  1  0
  1 24  1  0
  1  2  1  6
  1  3  2  0
  6 11  1  0
  6 12  1  0
 29 36  1  0
 29 37  1  0
  9  7  1  1
  7 13  1  0
 10  8  1  1
  8 14  1  0
 37 28  1  6
  4  5  1  0
 33 30  1  6
 30 38  1  0
 34 31  1  6
 31 39  1  0
 35 32  1  1
 32 40  1  0
 41 42  1  0
 41 43  1  0
 15 19  2  0
 16 22  2  0
 12 17  1  6
 17 19  1  0
 17 20  1  0
 18 19  1  0
 18 22  1  0
 18 23  1  0
  9 10  1  0
  9 11  1  0
 10 12  1  0
 11  5  1  6
 33 34  1  0
 33 35  1  0
 34 36  1  0
 35 37  1  0
 36 42  1  6
 20 21  2  0
 21 22  1  0
M  CHG  2   2  -1  26  -1
M  END
>  <COMPND>  (162) 
    8629 

>  <AUTHOR>  (162) 
    GENERATED BY OPEN BABEL 3.1.1

>  <MASTER>  (162) 
        0    0    0    0    0    0    0    0   58    0   58    0

>  <minimizedAffinity>  (162) 
-7.45011

>  <CNNscore>  (162) 
0.6028772593

>  <CNNaffinity>  (162) 
4.4065937996

>  <CNN_VS>  (162) 
2.6566352844

>  <CNNaffinity_variance>  (162) 
0.1316375434

$$$$
163
     RDKit          3D

 43 45  0  0  0  0  0  0  0  0999 V2000
   26.9874   72.4441   -2.6835 P   0  0  2  0  0  0  0  0  0  0  0  0
   26.6767   73.7854   -1.8340 O   0  0  0  0  0  0  0  0  0  0  0  0
   26.4559   71.1760   -2.0826 O   0  0  0  0  0  0  0  0  0  0  0  0
   28.5876   72.4941   -2.9170 O   0  0  0  0  0  0  0  0  0  0  0  0
   29.1959   71.4502   -3.6573 C   0  0  0  0  0  0  0  0  0  0  0  0
   28.7308   69.2025   -2.9464 O   0  0  0  0  0  0  0  0  0  0  0  0
   31.4644   69.2258   -1.7145 O   0  0  0  0  0  0  0  0  0  0  0  0
   31.8653   67.8332   -4.0247 O   0  0  0  0  0  0  0  0  0  0  0  0
   31.0160   69.8295   -2.9269 C   0  0  1  0  0  0  0  0  0  0  0  0
   30.8126   68.7755   -3.9952 C   0  0  2  0  0  0  0  0  0  0  0  0
   29.5957   70.3334   -2.7028 C   0  0  1  0  0  0  0  0  0  0  0  0
   29.4874   68.1588   -3.5812 C   0  0  2  0  0  0  0  0  0  0  0  0
   32.3697   68.8965   -1.8331 H   0  0  0  0  0  0  0  0  0  0  0  0
   32.6864   68.2739   -4.2935 H   0  0  0  0  0  0  0  0  0  0  0  0
   26.7497   67.4688   -3.4974 O   0  0  0  0  0  0  0  0  0  0  0  0
   26.7332   66.2477   -7.9414 O   0  0  0  0  0  0  0  0  0  0  0  0
   28.7423   67.6583   -4.7018 N   0  0  0  0  0  0  0  0  0  0  0  0
   26.7437   66.8615   -5.7103 N   0  0  0  0  0  0  0  0  0  0  0  0
   27.3720   67.3409   -4.5538 C   0  0  0  0  0  0  0  0  0  0  0  0
   29.3702   67.4872   -5.9307 C   0  0  0  0  0  0  0  0  0  0  0  0
   28.7572   67.0277   -7.0236 C   0  0  0  0  0  0  0  0  0  0  0  0
   27.3250   66.6728   -6.9541 C   0  0  0  0  0  0  0  0  0  0  0  0
   25.7889   66.6335   -5.6309 H   0  0  0  0  0  0  0  0  0  0  0  0
   26.3956   72.7950   -4.1462 O   0  0  0  0  0  0  0  0  0  0  0  0
   24.9378   73.3238   -4.6027 P   0  0  2  0  0  0  0  0  0  0  0  0
   25.1321   73.6330   -6.1788 O   0  0  0  0  0  0  0  0  0  0  0  0
   24.4264   74.4862   -3.8020 O   0  0  0  0  0  0  0  0  0  0  0  0
   23.9956   72.0141   -4.5574 O   0  0  0  0  0  0  0  0  0  0  0  0
   22.1441   72.3352   -3.1134 O   0  0  0  0  0  0  0  0  0  0  0  0
   21.7098   68.2963   -3.8550 O   0  0  0  0  0  0  0  0  0  0  0  0
   19.8735   70.1607   -5.0383 O   0  0  0  0  0  0  0  0  0  0  0  0
   24.3539   69.4283   -3.5279 O   0  0  0  0  0  0  0  0  0  0  0  0
   22.0435   69.6506   -4.1712 C   0  0  1  0  0  0  0  0  0  0  0  0
   20.7868   70.5065   -4.0007 C   0  0  1  0  0  0  0  0  0  0  0  0
   23.1489   70.1251   -3.2298 C   0  0  2  0  0  0  0  0  0  0  0  0
   21.1231   72.0026   -4.0614 C   0  0  1  0  0  0  0  0  0  0  0  0
   23.3701   71.6352   -3.3341 C   0  0  1  0  0  0  0  0  0  0  0  0
   21.0088   67.9888   -4.4495 H   0  0  0  0  0  0  0  0  0  0  0  0
   19.6699   69.2135   -4.9891 H   0  0  0  0  0  0  0  0  0  0  0  0
   24.2009   68.4735   -3.4580 H   0  0  0  0  0  0  0  0  0  0  0  0
   19.0557   72.1507   -2.8728 O   0  0  0  0  0  0  0  0  0  0  0  0
   19.9121   72.8746   -3.7371 C   0  0  0  0  0  0  0  0  0  0  0  0
   18.2806   72.6936   -2.6576 H   0  0  0  0  0  0  0  0  0  0  0  0
 25 28  1  0
 25 24  1  0
 25 26  1  6
 25 27  2  0
  1  4  1  0
  1 24  1  0
  1  2  1  1
  1  3  2  0
  6 11  1  0
  6 12  1  0
 29 36  1  0
 29 37  1  0
  9  7  1  1
  7 13  1  0
 10  8  1  1
  8 14  1  0
 37 28  1  6
  4  5  1  0
 33 30  1  1
 30 38  1  0
 34 31  1  6
 31 39  1  0
 35 32  1  6
 32 40  1  0
 41 42  1  0
 41 43  1  0
 15 19  2  0
 16 22  2  0
 12 17  1  6
 17 19  1  0
 17 20  1  0
 18 19  1  0
 18 22  1  0
 18 23  1  0
  9 10  1  0
  9 11  1  0
 10 12  1  0
 11  5  1  6
 33 34  1  0
 33 35  1  0
 34 36  1  0
 35 37  1  0
 36 42  1  1
 20 21  2  0
 21 22  1  0
M  CHG  2   2  -1  26  -1
M  END
>  <COMPND>  (163) 
    8629 

>  <AUTHOR>  (163) 
    GENERATED BY OPEN BABEL 3.1.1

>  <MASTER>  (163) 
        0    0    0    0    0    0    0    0   58    0   58    0

>  <minimizedAffinity>  (163) 
-8.41710

>  <CNNscore>  (163) 
0.5675647855

>  <CNNaffinity>  (163) 
4.5961642265

>  <CNN_VS>  (163) 
2.6086208820

>  <CNNaffinity_variance>  (163) 
0.4745855331

$$$$
164
     RDKit          3D

 43 45  0  0  0  0  0  0  0  0999 V2000
   24.0152   73.1363   -4.6111 P   0  0  2  0  0  0  0  0  0  0  0  0
   24.9811   73.3044   -5.8980 O   0  0  0  0  0  0  0  0  0  0  0  0
   23.8947   74.3559   -3.7454 O   0  0  0  0  0  0  0  0  0  0  0  0
   24.5733   71.8064   -3.8777 O   0  0  0  0  0  0  0  0  0  0  0  0
   25.8259   71.2846   -4.2856 C   0  0  0  0  0  0  0  0  0  0  0  0
   27.3502   69.8637   -3.0891 O   0  0  0  0  0  0  0  0  0  0  0  0
   28.3166   72.3574   -1.7333 O   0  0  0  0  0  0  0  0  0  0  0  0
   30.2407   71.9205   -3.6158 O   0  0  0  0  0  0  0  0  0  0  0  0
   27.8826   72.1728   -3.0797 C   0  0  1  0  0  0  0  0  0  0  0  0
   28.9391   71.4360   -3.8764 C   0  0  2  0  0  0  0  0  0  0  0  0
   26.7352   71.1705   -3.0697 C   0  0  1  0  0  0  0  0  0  0  0  0
   28.7440   70.0036   -3.4092 C   0  0  2  0  0  0  0  0  0  0  0  0
   29.0490   72.9940   -1.7142 H   0  0  0  0  0  0  0  0  0  0  0  0
   30.3147   72.8348   -3.9311 H   0  0  0  0  0  0  0  0  0  0  0  0
   30.7969   68.0804   -3.1542 O   0  0  0  0  0  0  0  0  0  0  0  0
   29.9774   66.3802   -7.3588 O   0  0  0  0  0  0  0  0  0  0  0  0
   29.0884   69.0456   -4.4217 N   0  0  0  0  0  0  0  0  0  0  0  0
   30.3870   67.2353   -5.2479 N   0  0  0  0  0  0  0  0  0  0  0  0
   30.1366   68.1237   -4.1943 C   0  0  0  0  0  0  0  0  0  0  0  0
   28.3897   69.0265   -5.6239 C   0  0  0  0  0  0  0  0  0  0  0  0
   28.6417   68.1738   -6.6192 C   0  0  0  0  0  0  0  0  0  0  0  0
   29.7213   67.1778   -6.4621 C   0  0  0  0  0  0  0  0  0  0  0  0
   31.1132   66.5841   -5.1122 H   0  0  0  0  0  0  0  0  0  0  0  0
   22.6241   72.6345   -5.2638 O   0  0  0  0  0  0  0  0  0  0  0  0
   21.2224   73.4050   -5.4977 P   0  0  2  0  0  0  0  0  0  0  0  0
   21.5453   74.3951   -6.7357 O   0  0  0  0  0  0  0  0  0  0  0  0
   20.6882   74.0949   -4.2760 O   0  0  0  0  0  0  0  0  0  0  0  0
   20.2391   72.2850   -6.1171 O   0  0  0  0  0  0  0  0  0  0  0  0
   18.0989   72.8028   -6.9936 O   0  0  0  0  0  0  0  0  0  0  0  0
   17.4589   68.8510   -5.9815 O   0  0  0  0  0  0  0  0  0  0  0  0
   17.6994   69.5853   -8.7475 O   0  0  0  0  0  0  0  0  0  0  0  0
   19.0603   70.5410   -4.2613 O   0  0  0  0  0  0  0  0  0  0  0  0
   18.2184   69.9708   -6.4447 C   0  0  1  0  0  0  0  0  0  0  0  0
   17.5347   70.5302   -7.6939 C   0  0  1  0  0  0  0  0  0  0  0  0
   18.2728   71.0273   -5.3428 C   0  0  2  0  0  0  0  0  0  0  0  0
   18.1335   71.8856   -8.0932 C   0  0  1  0  0  0  0  0  0  0  0  0
   18.8393   72.3518   -5.8577 C   0  0  1  0  0  0  0  0  0  0  0  0
   17.4209   68.1763   -6.6763 H   0  0  0  0  0  0  0  0  0  0  0  0
   17.3174   68.7338   -8.4824 H   0  0  0  0  0  0  0  0  0  0  0  0
   18.6913   69.7025   -3.9442 H   0  0  0  0  0  0  0  0  0  0  0  0
   18.2511   73.3692   -9.9624 O   0  0  0  0  0  0  0  0  0  0  0  0
   17.3633   72.5355   -9.2406 C   0  0  0  0  0  0  0  0  0  0  0  0
   17.7746   73.7893  -10.6961 H   0  0  0  0  0  0  0  0  0  0  0  0
 25 28  1  0
 25 24  1  0
 25 26  1  6
 25 27  2  0
  1  4  1  0
  1 24  1  0
  1  2  1  6
  1  3  2  0
  6 11  1  0
  6 12  1  0
 29 36  1  0
 29 37  1  0
  9  7  1  1
  7 13  1  0
 10  8  1  1
  8 14  1  0
 37 28  1  6
  4  5  1  0
 33 30  1  1
 30 38  1  0
 34 31  1  6
 31 39  1  0
 35 32  1  1
 32 40  1  0
 41 42  1  0
 41 43  1  0
 15 19  2  0
 16 22  2  0
 12 17  1  6
 17 19  1  0
 17 20  1  0
 18 19  1  0
 18 22  1  0
 18 23  1  0
  9 10  1  0
  9 11  1  0
 10 12  1  0
 11  5  1  6
 33 34  1  0
 33 35  1  0
 34 36  1  0
 35 37  1  0
 36 42  1  6
 20 21  2  0
 21 22  1  0
M  CHG  2   2  -1  26  -1
M  END
>  <COMPND>  (164) 
    8629 

>  <AUTHOR>  (164) 
    GENERATED BY OPEN BABEL 3.1.1

>  <MASTER>  (164) 
        0    0    0    0    0    0    0    0   58    0   58    0

>  <minimizedAffinity>  (164) 
-7.38814

>  <CNNscore>  (164) 
0.5330935717

>  <CNNaffinity>  (164) 
4.4339151382

>  <CNN_VS>  (164) 
2.3636915684

>  <CNNaffinity_variance>  (164) 
0.0776475295

$$$$
165
     RDKit          3D

 43 45  0  0  0  0  0  0  0  0999 V2000
   27.4664   72.4654   -0.6264 P   0  0  2  0  0  0  0  0  0  0  0  0
   27.2418   71.6673    0.7629 O   0  0  0  0  0  0  0  0  0  0  0  0
   28.3340   73.6852   -0.5234 O   0  0  0  0  0  0  0  0  0  0  0  0
   25.9659   72.7149   -1.1780 O   0  0  0  0  0  0  0  0  0  0  0  0
   25.7825   73.6195   -2.2530 C   0  0  0  0  0  0  0  0  0  0  0  0
   25.1043   71.6270   -3.4122 O   0  0  0  0  0  0  0  0  0  0  0  0
   25.7877   73.0894   -5.9391 O   0  0  0  0  0  0  0  0  0  0  0  0
   23.0709   73.3054   -5.8435 O   0  0  0  0  0  0  0  0  0  0  0  0
   25.2148   73.5915   -4.7329 C   0  0  1  0  0  0  0  0  0  0  0  0
   23.7660   73.1645   -4.6213 C   0  0  2  0  0  0  0  0  0  0  0  0
   25.8554   72.8513   -3.5655 C   0  0  1  0  0  0  0  0  0  0  0  0
   23.8975   71.7145   -4.1874 C   0  0  2  0  0  0  0  0  0  0  0  0
   25.3942   73.5475   -6.6989 H   0  0  0  0  0  0  0  0  0  0  0  0
   23.0136   74.2451   -6.0765 H   0  0  0  0  0  0  0  0  0  0  0  0
   21.8585   69.9724   -5.0737 O   0  0  0  0  0  0  0  0  0  0  0  0
   19.7052   70.1253   -1.0017 O   0  0  0  0  0  0  0  0  0  0  0  0
   22.7921   71.2821   -3.3796 N   0  0  0  0  0  0  0  0  0  0  0  0
   20.7881   70.0498   -3.0454 N   0  0  0  0  0  0  0  0  0  0  0  0
   21.8217   70.4070   -3.9207 C   0  0  0  0  0  0  0  0  0  0  0  0
   22.6786   71.7251   -2.0663 C   0  0  0  0  0  0  0  0  0  0  0  0
   21.6861   71.3762   -1.2450 C   0  0  0  0  0  0  0  0  0  0  0  0
   20.6309   70.4646   -1.7324 C   0  0  0  0  0  0  0  0  0  0  0  0
   20.1003   69.4412   -3.4007 H   0  0  0  0  0  0  0  0  0  0  0  0
   28.0316   71.3195   -1.6165 O   0  0  0  0  0  0  0  0  0  0  0  0
   29.5249   71.0325   -2.1650 P   0  0  2  0  0  0  0  0  0  0  0  0
   29.7923   72.2669   -3.1761 O   0  0  0  0  0  0  0  0  0  0  0  0
   29.7034   69.6760   -2.7829 O   0  0  0  0  0  0  0  0  0  0  0  0
   30.4869   71.3242   -0.9023 O   0  0  0  0  0  0  0  0  0  0  0  0
   32.5998   70.4010   -0.3543 O   0  0  0  0  0  0  0  0  0  0  0  0
   31.0302   70.7598    3.4481 O   0  0  0  0  0  0  0  0  0  0  0  0
   33.1140   72.5449    2.6000 O   0  0  0  0  0  0  0  0  0  0  0  0
   29.3253   69.9522    1.2526 O   0  0  0  0  0  0  0  0  0  0  0  0
   31.2470   71.1406    2.0868 C   0  0  1  0  0  0  0  0  0  0  0  0
   32.7465   71.3682    1.8854 C   0  0  1  0  0  0  0  0  0  0  0  0
   30.7445   70.0264    1.1706 C   0  0  2  0  0  0  0  0  0  0  0  0
   33.0892   71.5179    0.3971 C   0  0  1  0  0  0  0  0  0  0  0  0
   31.1812   70.2469   -0.2788 C   0  0  1  0  0  0  0  0  0  0  0  0
   31.3467   71.4632    4.0351 H   0  0  0  0  0  0  0  0  0  0  0  0
   32.8919   72.4374    3.5383 H   0  0  0  0  0  0  0  0  0  0  0  0
   29.0617   69.8122    2.1749 H   0  0  0  0  0  0  0  0  0  0  0  0
   34.9704   72.9486    0.0458 O   0  0  0  0  0  0  0  0  0  0  0  0
   34.5964   71.5880    0.1614 C   0  0  0  0  0  0  0  0  0  0  0  0
   35.9272   73.0087   -0.1041 H   0  0  0  0  0  0  0  0  0  0  0  0
 25 28  1  0
 25 24  1  0
 25 26  1  6
 25 27  2  0
  1  4  1  0
  1 24  1  0
  1  2  1  1
  1  3  2  0
  6 11  1  0
  6 12  1  0
 29 36  1  0
 29 37  1  0
  9  7  1  6
  7 13  1  0
 10  8  1  6
  8 14  1  0
 37 28  1  1
  4  5  1  0
 33 30  1  1
 30 38  1  0
 34 31  1  1
 31 39  1  0
 35 32  1  6
 32 40  1  0
 41 42  1  0
 41 43  1  0
 15 19  2  0
 16 22  2  0
 12 17  1  1
 17 19  1  0
 17 20  1  0
 18 19  1  0
 18 22  1  0
 18 23  1  0
  9 10  1  0
  9 11  1  0
 10 12  1  0
 11  5  1  1
 33 34  1  0
 33 35  1  0
 34 36  1  0
 35 37  1  0
 36 42  1  1
 20 21  2  0
 21 22  1  0
M  CHG  2   2  -1  26  -1
M  END
>  <COMPND>  (165) 
    8629 

>  <AUTHOR>  (165) 
    GENERATED BY OPEN BABEL 3.1.1

>  <MASTER>  (165) 
        0    0    0    0    0    0    0    0   58    0   58    0

>  <minimizedAffinity>  (165) 
-6.19759

>  <CNNscore>  (165) 
0.5242115259

>  <CNNaffinity>  (165) 
4.1125688553

>  <CNN_VS>  (165) 
2.1558558941

>  <CNNaffinity_variance>  (165) 
0.0136590796

$$$$
166
     RDKit          3D

 43 45  0  0  0  0  0  0  0  0999 V2000
   25.5176   73.1068   -4.2661 P   0  0  2  0  0  0  0  0  0  0  0  0
   25.2426   73.1812   -5.8587 O   0  0  0  0  0  0  0  0  0  0  0  0
   25.8141   74.4242   -3.6120 O   0  0  0  0  0  0  0  0  0  0  0  0
   26.6666   71.9767   -4.1227 O   0  0  0  0  0  0  0  0  0  0  0  0
   27.9742   72.3843   -3.7595 C   0  0  0  0  0  0  0  0  0  0  0  0
   27.9238   70.1337   -2.9191 O   0  0  0  0  0  0  0  0  0  0  0  0
   30.4791   70.8050   -1.5012 O   0  0  0  0  0  0  0  0  0  0  0  0
   31.3533   69.3983   -3.6677 O   0  0  0  0  0  0  0  0  0  0  0  0
   30.0206   71.2296   -2.7837 C   0  0  1  0  0  0  0  0  0  0  0  0
   30.1304   70.0968   -3.7829 C   0  0  2  0  0  0  0  0  0  0  0  0
   28.5131   71.4340   -2.6990 C   0  0  1  0  0  0  0  0  0  0  0  0
   28.9304   69.2388   -3.4196 C   0  0  2  0  0  0  0  0  0  0  0  0
   31.4395   70.6683   -1.5304 H   0  0  0  0  0  0  0  0  0  0  0  0
   32.0858   69.9863   -3.9092 H   0  0  0  0  0  0  0  0  0  0  0  0
   26.8260   67.3598   -3.2833 O   0  0  0  0  0  0  0  0  0  0  0  0
   26.9884   66.5744   -7.8218 O   0  0  0  0  0  0  0  0  0  0  0  0
   28.4026   68.5286   -4.5503 N   0  0  0  0  0  0  0  0  0  0  0  0
   26.9084   66.9704   -5.5432 N   0  0  0  0  0  0  0  0  0  0  0  0
   27.3455   67.6056   -4.3738 C   0  0  0  0  0  0  0  0  0  0  0  0
   28.9321   68.7506   -5.8169 C   0  0  0  0  0  0  0  0  0  0  0  0
   28.5049   68.1358   -6.9218 C   0  0  0  0  0  0  0  0  0  0  0  0
   27.4034   67.1563   -6.8243 C   0  0  0  0  0  0  0  0  0  0  0  0
   26.1731   66.3229   -5.4446 H   0  0  0  0  0  0  0  0  0  0  0  0
   24.1997   72.3583   -3.7043 O   0  0  0  0  0  0  0  0  0  0  0  0
   23.3172   72.6174   -2.3750 P   0  0  2  0  0  0  0  0  0  0  0  0
   22.2806   71.3752   -2.3698 O   0  0  0  0  0  0  0  0  0  0  0  0
   22.6649   73.9686   -2.3231 O   0  0  0  0  0  0  0  0  0  0  0  0
   24.3240   72.3133   -1.1506 O   0  0  0  0  0  0  0  0  0  0  0  0
   23.6877   72.9861    1.0309 O   0  0  0  0  0  0  0  0  0  0  0  0
   27.7534   72.5769    1.6260 O   0  0  0  0  0  0  0  0  0  0  0  0
   25.9540   70.6401    2.7483 O   0  0  0  0  0  0  0  0  0  0  0  0
   26.7615   73.6736   -0.8625 O   0  0  0  0  0  0  0  0  0  0  0  0
   26.4800   72.2524    1.0616 C   0  0  1  0  0  0  0  0  0  0  0  0
   25.5290   71.8859    2.2027 C   0  0  1  0  0  0  0  0  0  0  0  0
   25.9534   73.4610    0.2900 C   0  0  2  0  0  0  0  0  0  0  0  0
   24.0805   71.7853    1.7059 C   0  0  1  0  0  0  0  0  0  0  0  0
   24.4896   73.2785   -0.1151 C   0  0  1  0  0  0  0  0  0  0  0  0
   28.0935   71.8135    2.1169 H   0  0  0  0  0  0  0  0  0  0  0  0
   26.8702   70.7171    3.0578 H   0  0  0  0  0  0  0  0  0  0  0  0
   27.6856   73.7880   -0.5927 H   0  0  0  0  0  0  0  0  0  0  0  0
   23.1665   70.2240    3.2666 O   0  0  0  0  0  0  0  0  0  0  0  0
   23.0953   71.5763    2.8539 C   0  0  0  0  0  0  0  0  0  0  0  0
   22.5450   70.0763    3.9971 H   0  0  0  0  0  0  0  0  0  0  0  0
 25 28  1  0
 25 24  1  0
 25 26  1  6
 25 27  2  0
  1  4  1  0
  1 24  1  0
  1  2  1  6
  1  3  2  0
  6 11  1  0
  6 12  1  0
 29 36  1  0
 29 37  1  0
  9  7  1  1
  7 13  1  0
 10  8  1  1
  8 14  1  0
 37 28  1  6
  4  5  1  0
 33 30  1  1
 30 38  1  0
 34 31  1  6
 31 39  1  0
 35 32  1  6
 32 40  1  0
 41 42  1  0
 41 43  1  0
 15 19  2  0
 16 22  2  0
 12 17  1  6
 17 19  1  0
 17 20  1  0
 18 19  1  0
 18 22  1  0
 18 23  1  0
  9 10  1  0
  9 11  1  0
 10 12  1  0
 11  5  1  6
 33 34  1  0
 33 35  1  0
 34 36  1  0
 35 37  1  0
 36 42  1  1
 20 21  2  0
 21 22  1  0
M  CHG  2   2  -1  26  -1
M  END
>  <COMPND>  (166) 
    8629 

>  <AUTHOR>  (166) 
    GENERATED BY OPEN BABEL 3.1.1

>  <MASTER>  (166) 
        0    0    0    0    0    0    0    0   58    0   58    0

>  <minimizedAffinity>  (166) 
-7.03696

>  <CNNscore>  (166) 
0.4973793626

>  <CNNaffinity>  (166) 
4.3205642700

>  <CNN_VS>  (166) 
2.1489593983

>  <CNNaffinity_variance>  (166) 
0.2436674833

$$$$
167
     RDKit          3D

 43 45  0  0  0  0  0  0  0  0999 V2000
   24.3024   73.5744   -4.9232 P   0  0  2  0  0  0  0  0  0  0  0  0
   25.3232   73.9912   -6.1071 O   0  0  0  0  0  0  0  0  0  0  0  0
   23.4074   74.6778   -4.4405 O   0  0  0  0  0  0  0  0  0  0  0  0
   25.2590   72.9049   -3.8031 O   0  0  0  0  0  0  0  0  0  0  0  0
   26.4771   72.3133   -4.2205 C   0  0  0  0  0  0  0  0  0  0  0  0
   26.8736   70.1808   -3.1865 O   0  0  0  0  0  0  0  0  0  0  0  0
   29.0348   71.5507   -1.6234 O   0  0  0  0  0  0  0  0  0  0  0  0
   30.4386   70.2572   -3.5709 O   0  0  0  0  0  0  0  0  0  0  0  0
   28.6253   71.7626   -2.9734 C   0  0  1  0  0  0  0  0  0  0  0  0
   29.1040   70.6262   -3.8526 C   0  0  2  0  0  0  0  0  0  0  0  0
   27.1119   71.5975   -3.0361 C   0  0  1  0  0  0  0  0  0  0  0  0
   28.1102   69.5274   -3.5162 C   0  0  2  0  0  0  0  0  0  0  0  0
   29.9980   71.6513   -1.5583 H   0  0  0  0  0  0  0  0  0  0  0  0
   31.0321   70.9888   -3.8018 H   0  0  0  0  0  0  0  0  0  0  0  0
   26.3897   67.2888   -3.4333 O   0  0  0  0  0  0  0  0  0  0  0  0
   27.3310   66.1733   -7.8048 O   0  0  0  0  0  0  0  0  0  0  0  0
   27.8865   68.6349   -4.6185 N   0  0  0  0  0  0  0  0  0  0  0  0
   26.8597   66.7353   -5.6101 N   0  0  0  0  0  0  0  0  0  0  0  0
   27.0033   67.5399   -4.4725 C   0  0  0  0  0  0  0  0  0  0  0  0
   28.5390   68.8499   -5.8276 C   0  0  0  0  0  0  0  0  0  0  0  0
   28.3921   68.0726   -6.9025 C   0  0  0  0  0  0  0  0  0  0  0  0
   27.4873   66.9070   -6.8337 C   0  0  0  0  0  0  0  0  0  0  0  0
   26.2497   65.9662   -5.5318 H   0  0  0  0  0  0  0  0  0  0  0  0
   23.5249   72.3010   -5.5452 O   0  0  0  0  0  0  0  0  0  0  0  0
   21.9658   72.0854   -5.9137 P   0  0  2  0  0  0  0  0  0  0  0  0
   21.9838   70.7603   -6.8418 O   0  0  0  0  0  0  0  0  0  0  0  0
   21.3133   73.2783   -6.5501 O   0  0  0  0  0  0  0  0  0  0  0  0
   21.2820   71.6064   -4.5324 O   0  0  0  0  0  0  0  0  0  0  0  0
   19.3272   72.5355   -3.5671 O   0  0  0  0  0  0  0  0  0  0  0  0
   21.2408   71.3001   -0.1228 O   0  0  0  0  0  0  0  0  0  0  0  0
   18.9305   69.8695   -1.0523 O   0  0  0  0  0  0  0  0  0  0  0  0
   22.7762   72.4264   -2.3031 O   0  0  0  0  0  0  0  0  0  0  0  0
   20.8523   71.2222   -1.4970 C   0  0  1  0  0  0  0  0  0  0  0  0
   19.3258   71.1409   -1.5600 C   0  0  1  0  0  0  0  0  0  0  0  0
   21.3551   72.4650   -2.2291 C   0  0  2  0  0  0  0  0  0  0  0  0
   18.8201   71.3231   -2.9974 C   0  0  1  0  0  0  0  0  0  0  0  0
   20.7541   72.5763   -3.6314 C   0  0  1  0  0  0  0  0  0  0  0  0
   20.9250   70.5137    0.3476 H   0  0  0  0  0  0  0  0  0  0  0  0
   19.2564   69.7670   -0.1443 H   0  0  0  0  0  0  0  0  0  0  0  0
   23.1446   72.3562   -1.4091 H   0  0  0  0  0  0  0  0  0  0  0  0
   16.7750   70.0877   -3.0133 O   0  0  0  0  0  0  0  0  0  0  0  0
   17.2964   71.4030   -3.0618 C   0  0  0  0  0  0  0  0  0  0  0  0
   15.8060   70.1230   -3.0531 H   0  0  0  0  0  0  0  0  0  0  0  0
 25 28  1  0
 25 24  1  0
 25 26  1  6
 25 27  2  0
  1  4  1  0
  1 24  1  0
  1  2  1  6
  1  3  2  0
  6 11  1  0
  6 12  1  0
 29 36  1  0
 29 37  1  0
  9  7  1  1
  7 13  1  0
 10  8  1  1
  8 14  1  0
 37 28  1  6
  4  5  1  0
 33 30  1  1
 30 38  1  0
 34 31  1  6
 31 39  1  0
 35 32  1  6
 32 40  1  0
 41 42  1  0
 41 43  1  0
 15 19  2  0
 16 22  2  0
 12 17  1  6
 17 19  1  0
 17 20  1  0
 18 19  1  0
 18 22  1  0
 18 23  1  0
  9 10  1  0
  9 11  1  0
 10 12  1  0
 11  5  1  6
 33 34  1  0
 33 35  1  0
 34 36  1  0
 35 37  1  0
 36 42  1  1
 20 21  2  0
 21 22  1  0
M  CHG  2   2  -1  26  -1
M  END
>  <COMPND>  (167) 
    8629 

>  <AUTHOR>  (167) 
    GENERATED BY OPEN BABEL 3.1.1

>  <MASTER>  (167) 
        0    0    0    0    0    0    0    0   58    0   58    0

>  <minimizedAffinity>  (167) 
-7.57494

>  <CNNscore>  (167) 
0.4911479652

>  <CNNaffinity>  (167) 
4.2195453644

>  <CNN_VS>  (167) 
2.0724210739

>  <CNNaffinity_variance>  (167) 
0.3323487043

$$$$
168
     RDKit          3D

 43 45  0  0  0  0  0  0  0  0999 V2000
   24.1584   73.3352   -4.7996 P   0  0  2  0  0  0  0  0  0  0  0  0
   25.0656   73.6719   -6.0961 O   0  0  0  0  0  0  0  0  0  0  0  0
   23.5685   74.5308   -4.1111 O   0  0  0  0  0  0  0  0  0  0  0  0
   25.1145   72.4005   -3.8886 O   0  0  0  0  0  0  0  0  0  0  0  0
   26.5159   72.4720   -4.0853 C   0  0  0  0  0  0  0  0  0  0  0  0
   26.9978   70.3492   -3.0677 O   0  0  0  0  0  0  0  0  0  0  0  0
   29.1985   71.7627   -1.6015 O   0  0  0  0  0  0  0  0  0  0  0  0
   30.5405   70.4928   -3.6072 O   0  0  0  0  0  0  0  0  0  0  0  0
   28.7265   71.9644   -2.9326 C   0  0  1  0  0  0  0  0  0  0  0  0
   29.1881   70.8358   -3.8308 C   0  0  2  0  0  0  0  0  0  0  0  0
   27.2153   71.7704   -2.9291 C   0  0  1  0  0  0  0  0  0  0  0  0
   28.2311   69.7189   -3.4505 C   0  0  2  0  0  0  0  0  0  0  0  0
   30.1614   71.8817   -1.5785 H   0  0  0  0  0  0  0  0  0  0  0  0
   31.1093   71.2351   -3.8644 H   0  0  0  0  0  0  0  0  0  0  0  0
   26.5256   67.4722   -3.3027 O   0  0  0  0  0  0  0  0  0  0  0  0
   27.3317   66.3420   -7.6975 O   0  0  0  0  0  0  0  0  0  0  0  0
   27.9767   68.8205   -4.5411 N   0  0  0  0  0  0  0  0  0  0  0  0
   26.9283   66.9114   -5.4911 N   0  0  0  0  0  0  0  0  0  0  0  0
   27.1043   67.7217   -4.3622 C   0  0  0  0  0  0  0  0  0  0  0  0
   28.5889   69.0333   -5.7715 C   0  0  0  0  0  0  0  0  0  0  0  0
   28.4116   68.2505   -6.8378 C   0  0  0  0  0  0  0  0  0  0  0  0
   27.5154   67.0808   -6.7351 C   0  0  0  0  0  0  0  0  0  0  0  0
   26.3251   66.1396   -5.3900 H   0  0  0  0  0  0  0  0  0  0  0  0
   23.0715   72.2881   -5.3785 O   0  0  0  0  0  0  0  0  0  0  0  0
   22.1202   71.2202   -4.6251 P   0  0  2  0  0  0  0  0  0  0  0  0
   21.4290   72.0992   -3.4558 O   0  0  0  0  0  0  0  0  0  0  0  0
   22.8370   69.9947   -4.1369 O   0  0  0  0  0  0  0  0  0  0  0  0
   20.9279   70.9251   -5.6721 O   0  0  0  0  0  0  0  0  0  0  0  0
   20.1192   72.6705   -7.0563 O   0  0  0  0  0  0  0  0  0  0  0  0
   16.8617   70.1379   -7.2168 O   0  0  0  0  0  0  0  0  0  0  0  0
   18.5592   70.4122   -9.5171 O   0  0  0  0  0  0  0  0  0  0  0  0
   18.3237   70.4547   -4.7386 O   0  0  0  0  0  0  0  0  0  0  0  0
   18.2507   70.4713   -7.1460 C   0  0  1  0  0  0  0  0  0  0  0  0
   18.6130   71.2835   -8.3909 C   0  0  1  0  0  0  0  0  0  0  0  0
   18.5043   71.2867   -5.8795 C   0  0  2  0  0  0  0  0  0  0  0  0
   20.0111   71.9028   -8.2608 C   0  0  1  0  0  0  0  0  0  0  0  0
   19.9064   71.8985   -5.8729 C   0  0  1  0  0  0  0  0  0  0  0  0
   16.6940   69.6196   -8.0186 H   0  0  0  0  0  0  0  0  0  0  0  0
   17.6714   70.0274   -9.5877 H   0  0  0  0  0  0  0  0  0  0  0  0
   17.4323   70.0738   -4.7542 H   0  0  0  0  0  0  0  0  0  0  0  0
   20.5896   72.0655  -10.5733 O   0  0  0  0  0  0  0  0  0  0  0  0
   20.3296   72.8445   -9.4201 C   0  0  0  0  0  0  0  0  0  0  0  0
   20.7936   72.6516  -11.3193 H   0  0  0  0  0  0  0  0  0  0  0  0
 25 28  1  0
 25 24  1  0
 25 26  1  1
 25 27  2  0
  1  4  1  0
  1 24  1  0
  1  2  1  6
  1  3  2  0
  6 11  1  0
  6 12  1  0
 29 36  1  0
 29 37  1  0
  9  7  1  1
  7 13  1  0
 10  8  1  1
  8 14  1  0
 37 28  1  6
  4  5  1  0
 33 30  1  6
 30 38  1  0
 34 31  1  6
 31 39  1  0
 35 32  1  1
 32 40  1  0
 41 42  1  0
 41 43  1  0
 15 19  2  0
 16 22  2  0
 12 17  1  6
 17 19  1  0
 17 20  1  0
 18 19  1  0
 18 22  1  0
 18 23  1  0
  9 10  1  0
  9 11  1  0
 10 12  1  0
 11  5  1  6
 33 34  1  0
 33 35  1  0
 34 36  1  0
 35 37  1  0
 36 42  1  6
 20 21  2  0
 21 22  1  0
M  CHG  2   2  -1  26  -1
M  END
>  <COMPND>  (168) 
    8629 

>  <AUTHOR>  (168) 
    GENERATED BY OPEN BABEL 3.1.1

>  <MASTER>  (168) 
        0    0    0    0    0    0    0    0   58    0   58    0

>  <minimizedAffinity>  (168) 
-7.79147

>  <CNNscore>  (168) 
0.4537757635

>  <CNNaffinity>  (168) 
4.3215856552

>  <CNN_VS>  (168) 
1.9610308409

>  <CNNaffinity_variance>  (168) 
0.2547168136

$$$$
169
     RDKit          3D

 43 45  0  0  0  0  0  0  0  0999 V2000
   29.2904   73.8168   -2.3864 P   0  0  2  0  0  0  0  0  0  0  0  0
   29.2817   75.0507   -3.4328 O   0  0  0  0  0  0  0  0  0  0  0  0
   30.5108   73.7314   -1.5176 O   0  0  0  0  0  0  0  0  0  0  0  0
   28.9935   72.5221   -3.3101 O   0  0  0  0  0  0  0  0  0  0  0  0
   30.0333   71.5801   -3.5083 C   0  0  0  0  0  0  0  0  0  0  0  0
   28.8574   69.6179   -2.7730 O   0  0  0  0  0  0  0  0  0  0  0  0
   31.2391   69.0699   -1.0357 O   0  0  0  0  0  0  0  0  0  0  0  0
   31.6365   67.3805   -3.1391 O   0  0  0  0  0  0  0  0  0  0  0  0
   31.1882   69.6343   -2.3450 C   0  0  1  0  0  0  0  0  0  0  0  0
   30.8921   68.5592   -3.3698 C   0  0  2  0  0  0  0  0  0  0  0  0
   29.9427   70.5077   -2.4314 C   0  0  1  0  0  0  0  0  0  0  0  0
   29.3981   68.3525   -3.1869 C   0  0  2  0  0  0  0  0  0  0  0  0
   32.0266   68.5082   -0.9564 H   0  0  0  0  0  0  0  0  0  0  0  0
   32.5802   67.5635   -3.2678 H   0  0  0  0  0  0  0  0  0  0  0  0
   26.7801   67.3006   -3.3201 O   0  0  0  0  0  0  0  0  0  0  0  0
   27.0123   66.8126   -7.8971 O   0  0  0  0  0  0  0  0  0  0  0  0
   28.7494   67.9427   -4.4004 N   0  0  0  0  0  0  0  0  0  0  0  0
   26.8978   67.0586   -5.5990 N   0  0  0  0  0  0  0  0  0  0  0  0
   27.4332   67.4266   -4.3580 C   0  0  0  0  0  0  0  0  0  0  0  0
   29.4171   68.0546   -5.6151 C   0  0  0  0  0  0  0  0  0  0  0  0
   28.8930   67.6981   -6.7896 C   0  0  0  0  0  0  0  0  0  0  0  0
   27.5221   67.1496   -6.8330 C   0  0  0  0  0  0  0  0  0  0  0  0
   25.9822   66.6961   -5.5940 H   0  0  0  0  0  0  0  0  0  0  0  0
   27.9032   74.0140   -1.5804 O   0  0  0  0  0  0  0  0  0  0  0  0
   26.9174   72.9380   -0.8850 P   0  0  2  0  0  0  0  0  0  0  0  0
   26.2361   73.7811    0.3161 O   0  0  0  0  0  0  0  0  0  0  0  0
   27.5979   71.6739   -0.4458 O   0  0  0  0  0  0  0  0  0  0  0  0
   25.7293   72.7209   -1.9556 O   0  0  0  0  0  0  0  0  0  0  0  0
   25.0691   70.7065   -3.0152 O   0  0  0  0  0  0  0  0  0  0  0  0
   24.2287   73.3617   -6.0638 O   0  0  0  0  0  0  0  0  0  0  0  0
   22.0727   72.1596   -4.5960 O   0  0  0  0  0  0  0  0  0  0  0  0
   26.5843   73.7432   -4.4252 O   0  0  0  0  0  0  0  0  0  0  0  0
   24.3346   72.9296   -4.7046 C   0  0  1  0  0  0  0  0  0  0  0  0
   23.4240   71.7148   -4.5153 C   0  0  1  0  0  0  0  0  0  0  0  0
   25.7878   72.5634   -4.4091 C   0  0  2  0  0  0  0  0  0  0  0  0
   23.6826   71.0337   -3.1647 C   0  0  1  0  0  0  0  0  0  0  0  0
   25.9277   71.8476   -3.0643 C   0  0  1  0  0  0  0  0  0  0  0  0
   23.3084   73.5962   -6.2579 H   0  0  0  0  0  0  0  0  0  0  0  0
   21.9227   72.5881   -5.4533 H   0  0  0  0  0  0  0  0  0  0  0  0
   26.4874   74.1869   -5.2817 H   0  0  0  0  0  0  0  0  0  0  0  0
   22.3173   69.4166   -4.2737 O   0  0  0  0  0  0  0  0  0  0  0  0
   22.8989   69.7308   -3.0218 C   0  0  0  0  0  0  0  0  0  0  0  0
   21.8155   68.5894   -4.1980 H   0  0  0  0  0  0  0  0  0  0  0  0
 25 28  1  0
 25 24  1  0
 25 26  1  1
 25 27  2  0
  1  4  1  0
  1 24  1  0
  1  2  1  6
  1  3  2  0
  6 11  1  0
  6 12  1  0
 29 36  1  0
 29 37  1  0
  9  7  1  1
  7 13  1  0
 10  8  1  1
  8 14  1  0
 37 28  1  1
  4  5  1  0
 33 30  1  6
 30 38  1  0
 34 31  1  1
 31 39  1  0
 35 32  1  1
 32 40  1  0
 41 42  1  0
 41 43  1  0
 15 19  2  0
 16 22  2  0
 12 17  1  6
 17 19  1  0
 17 20  1  0
 18 19  1  0
 18 22  1  0
 18 23  1  0
  9 10  1  0
  9 11  1  0
 10 12  1  0
 11  5  1  6
 33 34  1  0
 33 35  1  0
 34 36  1  0
 35 37  1  0
 36 42  1  6
 20 21  2  0
 21 22  1  0
M  CHG  2   2  -1  26  -1
M  END
>  <COMPND>  (169) 
    8629 

>  <AUTHOR>  (169) 
    GENERATED BY OPEN BABEL 3.1.1

>  <MASTER>  (169) 
        0    0    0    0    0    0    0    0   58    0   58    0

>  <minimizedAffinity>  (169) 
-7.54879

>  <CNNscore>  (169) 
0.4270481169

>  <CNNaffinity>  (169) 
4.0864248276

>  <CNN_VS>  (169) 
1.7451000214

>  <CNNaffinity_variance>  (169) 
0.8702530861

$$$$
170
     RDKit          3D

 43 45  0  0  0  0  0  0  0  0999 V2000
   24.8329   73.6397   -5.1276 P   0  0  2  0  0  0  0  0  0  0  0  0
   23.8011   72.5174   -5.6692 O   0  0  0  0  0  0  0  0  0  0  0  0
   25.0215   74.8185   -6.0366 O   0  0  0  0  0  0  0  0  0  0  0  0
   26.1715   72.8005   -4.7784 O   0  0  0  0  0  0  0  0  0  0  0  0
   26.0777   71.3904   -4.6753 C   0  0  0  0  0  0  0  0  0  0  0  0
   27.0112   69.5701   -3.4147 O   0  0  0  0  0  0  0  0  0  0  0  0
   27.9565   71.6476   -1.4702 O   0  0  0  0  0  0  0  0  0  0  0  0
   30.2136   71.1004   -2.8994 O   0  0  0  0  0  0  0  0  0  0  0  0
   27.8623   71.7191   -2.8919 C   0  0  1  0  0  0  0  0  0  0  0  0
   28.9661   70.9045   -3.5336 C   0  0  2  0  0  0  0  0  0  0  0  0
   26.6146   70.9557   -3.3185 C   0  0  1  0  0  0  0  0  0  0  0  0
   28.4451   69.4864   -3.3734 C   0  0  2  0  0  0  0  0  0  0  0  0
   28.7458   72.1285   -1.1740 H   0  0  0  0  0  0  0  0  0  0  0  0
   30.5024   72.0171   -3.0298 H   0  0  0  0  0  0  0  0  0  0  0  0
   30.8590   68.0211   -3.3146 O   0  0  0  0  0  0  0  0  0  0  0  0
   30.0575   66.1828   -7.4643 O   0  0  0  0  0  0  0  0  0  0  0  0
   28.8919   68.6168   -4.4248 N   0  0  0  0  0  0  0  0  0  0  0  0
   30.4579   67.1068   -5.3808 N   0  0  0  0  0  0  0  0  0  0  0  0
   30.1203   67.9275   -4.2971 C   0  0  0  0  0  0  0  0  0  0  0  0
   28.1150   68.4540   -5.5667 C   0  0  0  0  0  0  0  0  0  0  0  0
   28.4517   67.6686   -6.5918 C   0  0  0  0  0  0  0  0  0  0  0  0
   29.7199   66.9131   -6.5378 C   0  0  0  0  0  0  0  0  0  0  0  0
   31.3096   66.6170   -5.3142 H   0  0  0  0  0  0  0  0  0  0  0  0
   24.2411   74.0036   -3.6681 O   0  0  0  0  0  0  0  0  0  0  0  0
   24.9089   74.7738   -2.4136 P   0  0  2  0  0  0  0  0  0  0  0  0
   24.0735   76.1573   -2.3402 O   0  0  0  0  0  0  0  0  0  0  0  0
   26.3955   74.9530   -2.5221 O   0  0  0  0  0  0  0  0  0  0  0  0
   24.4287   73.9385   -1.1187 O   0  0  0  0  0  0  0  0  0  0  0  0
   25.2438   71.9541   -0.1117 O   0  0  0  0  0  0  0  0  0  0  0  0
   21.1898   71.2834    0.2955 O   0  0  0  0  0  0  0  0  0  0  0  0
   22.7566   71.9472    2.6091 O   0  0  0  0  0  0  0  0  0  0  0  0
   22.2129   72.5294   -2.1087 O   0  0  0  0  0  0  0  0  0  0  0  0
   22.3818   72.0723    0.2501 C   0  0  1  0  0  0  0  0  0  0  0  0
   23.3227   71.5835    1.3531 C   0  0  1  0  0  0  0  0  0  0  0  0
   23.0337   71.9132   -1.1222 C   0  0  2  0  0  0  0  0  0  0  0  0
   24.7214   72.1961    1.1999 C   0  0  1  0  0  0  0  0  0  0  0  0
   24.4403   72.5137   -1.1524 C   0  0  1  0  0  0  0  0  0  0  0  0
   20.7707   71.3803    1.1641 H   0  0  0  0  0  0  0  0  0  0  0  0
   21.8735   71.5544    2.6929 H   0  0  0  0  0  0  0  0  0  0  0  0
   21.3254   72.1405   -2.0797 H   0  0  0  0  0  0  0  0  0  0  0  0
   25.0809   70.5498    2.8938 O   0  0  0  0  0  0  0  0  0  0  0  0
   25.7177   71.6025    2.1934 C   0  0  0  0  0  0  0  0  0  0  0  0
   25.7033   70.1623    3.5295 H   0  0  0  0  0  0  0  0  0  0  0  0
 25 28  1  0
 25 24  1  0
 25 26  1  1
 25 27  2  0
  1  4  1  0
  1 24  1  0
  1  2  1  6
  1  3  2  0
  6 11  1  0
  6 12  1  0
 29 36  1  0
 29 37  1  0
  9  7  1  1
  7 13  1  0
 10  8  1  1
  8 14  1  0
 37 28  1  1
  4  5  1  0
 33 30  1  6
 30 38  1  0
 34 31  1  1
 31 39  1  0
 35 32  1  6
 32 40  1  0
 41 42  1  0
 41 43  1  0
 15 19  2  0
 16 22  2  0
 12 17  1  6
 17 19  1  0
 17 20  1  0
 18 19  1  0
 18 22  1  0
 18 23  1  0
  9 10  1  0
  9 11  1  0
 10 12  1  0
 11  5  1  6
 33 34  1  0
 33 35  1  0
 34 36  1  0
 35 37  1  0
 36 42  1  1
 20 21  2  0
 21 22  1  0
M  CHG  2   2  -1  26  -1
M  END
>  <COMPND>  (170) 
    8629 

>  <AUTHOR>  (170) 
    GENERATED BY OPEN BABEL 3.1.1

>  <MASTER>  (170) 
        0    0    0    0    0    0    0    0   58    0   58    0

>  <minimizedAffinity>  (170) 
-6.73956

>  <CNNscore>  (170) 
0.4136371613

>  <CNNaffinity>  (170) 
4.1779441833

>  <CNN_VS>  (170) 
1.7281529903

>  <CNNaffinity_variance>  (170) 
0.0755870119

$$$$
171
     RDKit          3D

 43 45  0  0  0  0  0  0  0  0999 V2000
   22.4691   72.4514   -4.3822 P   0  0  2  0  0  0  0  0  0  0  0  0
   21.7597   71.3974   -3.3806 O   0  0  0  0  0  0  0  0  0  0  0  0
   22.2243   73.8960   -4.0590 O   0  0  0  0  0  0  0  0  0  0  0  0
   21.9945   71.9700   -5.8522 O   0  0  0  0  0  0  0  0  0  0  0  0
   20.8555   72.5840   -6.4297 C   0  0  0  0  0  0  0  0  0  0  0  0
   20.2372   71.2804   -8.3512 O   0  0  0  0  0  0  0  0  0  0  0  0
   20.8576   73.7235   -9.9751 O   0  0  0  0  0  0  0  0  0  0  0  0
   18.1357   73.7880   -9.8203 O   0  0  0  0  0  0  0  0  0  0  0  0
   20.2751   73.6274   -8.6764 C   0  0  1  0  0  0  0  0  0  0  0  0
   18.8420   73.1482   -8.7770 C   0  0  2  0  0  0  0  0  0  0  0  0
   20.9465   72.4714   -7.9453 C   0  0  1  0  0  0  0  0  0  0  0  0
   19.0239   71.6597   -9.0211 C   0  0  2  0  0  0  0  0  0  0  0  0
   20.4450   74.4553  -10.4610 H   0  0  0  0  0  0  0  0  0  0  0  0
   18.0460   74.7324   -9.6185 H   0  0  0  0  0  0  0  0  0  0  0  0
   16.6565   71.0597  -10.4401 O   0  0  0  0  0  0  0  0  0  0  0  0
   14.9244   68.6676   -6.9018 O   0  0  0  0  0  0  0  0  0  0  0  0
   17.9379   70.8817   -8.4949 N   0  0  0  0  0  0  0  0  0  0  0  0
   15.7961   69.8690   -8.6772 N   0  0  0  0  0  0  0  0  0  0  0  0
   16.7932   70.6390   -9.2894 C   0  0  0  0  0  0  0  0  0  0  0  0
   18.0147   70.3682   -7.2049 C   0  0  0  0  0  0  0  0  0  0  0  0
   17.0545   69.6368   -6.6353 C   0  0  0  0  0  0  0  0  0  0  0  0
   15.8253   69.3373   -7.3977 C   0  0  0  0  0  0  0  0  0  0  0  0
   14.9891   69.6874   -9.2116 H   0  0  0  0  0  0  0  0  0  0  0  0
   24.0224   72.0060   -4.3379 O   0  0  0  0  0  0  0  0  0  0  0  0
   25.3665   72.7989   -4.7592 P   0  0  2  0  0  0  0  0  0  0  0  0
   25.6338   73.7735   -3.4957 O   0  0  0  0  0  0  0  0  0  0  0  0
   25.2746   73.5077   -6.0794 O   0  0  0  0  0  0  0  0  0  0  0  0
   26.5376   71.6915   -4.6747 O   0  0  0  0  0  0  0  0  0  0  0  0
   26.8992   69.8147   -3.2735 O   0  0  0  0  0  0  0  0  0  0  0  0
   30.7531   71.2913   -3.4062 O   0  0  0  0  0  0  0  0  0  0  0  0
   30.1076   68.8829   -4.8312 O   0  0  0  0  0  0  0  0  0  0  0  0
   28.5107   73.1175   -3.2789 O   0  0  0  0  0  0  0  0  0  0  0  0
   29.4524   70.9961   -3.9223 C   0  0  1  0  0  0  0  0  0  0  0  0
   29.2467   69.4811   -3.8661 C   0  0  1  0  0  0  0  0  0  0  0  0
   28.4040   71.7129   -3.0736 C   0  0  2  0  0  0  0  0  0  0  0  0
   27.7852   69.1095   -4.1506 C   0  0  1  0  0  0  0  0  0  0  0  0
   26.9884   71.2350   -3.4021 C   0  0  1  0  0  0  0  0  0  0  0  0
   31.4235   70.8396   -3.9410 H   0  0  0  0  0  0  0  0  0  0  0  0
   31.0273   69.1257   -4.6405 H   0  0  0  0  0  0  0  0  0  0  0  0
   29.4112   73.4076   -3.0673 H   0  0  0  0  0  0  0  0  0  0  0  0
   26.5255   67.2076   -4.8610 O   0  0  0  0  0  0  0  0  0  0  0  0
   27.5235   67.6191   -3.9451 C   0  0  0  0  0  0  0  0  0  0  0  0
   26.3488   66.2608   -4.7420 H   0  0  0  0  0  0  0  0  0  0  0  0
 25 28  1  0
 25 24  1  0
 25 26  1  1
 25 27  2  0
  1  4  1  0
  1 24  1  0
  1  2  1  1
  1  3  2  0
  6 11  1  0
  6 12  1  0
 29 36  1  0
 29 37  1  0
  9  7  1  6
  7 13  1  0
 10  8  1  6
  8 14  1  0
 37 28  1  6
  4  5  1  0
 33 30  1  1
 30 38  1  0
 34 31  1  6
 31 39  1  0
 35 32  1  6
 32 40  1  0
 41 42  1  0
 41 43  1  0
 15 19  2  0
 16 22  2  0
 12 17  1  1
 17 19  1  0
 17 20  1  0
 18 19  1  0
 18 22  1  0
 18 23  1  0
  9 10  1  0
  9 11  1  0
 10 12  1  0
 11  5  1  1
 33 34  1  0
 33 35  1  0
 34 36  1  0
 35 37  1  0
 36 42  1  1
 20 21  2  0
 21 22  1  0
M  CHG  2   2  -1  26  -1
M  END
>  <COMPND>  (171) 
    8629 

>  <AUTHOR>  (171) 
    GENERATED BY OPEN BABEL 3.1.1

>  <MASTER>  (171) 
        0    0    0    0    0    0    0    0   58    0   58    0

>  <minimizedAffinity>  (171) 
-7.50060

>  <CNNscore>  (171) 
0.3942613304

>  <CNNaffinity>  (171) 
4.1358861923

>  <CNN_VS>  (171) 
1.6306200027

>  <CNNaffinity_variance>  (171) 
0.0689410418

$$$$
172
     RDKit          3D

 43 45  0  0  0  0  0  0  0  0999 V2000
   24.7755   73.7554   -4.9414 P   0  0  2  0  0  0  0  0  0  0  0  0
   25.0185   74.7505   -6.1937 O   0  0  0  0  0  0  0  0  0  0  0  0
   24.2168   74.4090   -3.7117 O   0  0  0  0  0  0  0  0  0  0  0  0
   26.1995   73.0101   -4.7556 O   0  0  0  0  0  0  0  0  0  0  0  0
   26.2281   71.5935   -4.7698 C   0  0  0  0  0  0  0  0  0  0  0  0
   26.9702   69.6885   -3.5071 O   0  0  0  0  0  0  0  0  0  0  0  0
   27.9032   71.6545   -1.4443 O   0  0  0  0  0  0  0  0  0  0  0  0
   30.2144   71.0120   -2.7414 O   0  0  0  0  0  0  0  0  0  0  0  0
   27.9072   71.7687   -2.8664 C   0  0  1  0  0  0  0  0  0  0  0  0
   29.0022   70.9073   -3.4600 C   0  0  2  0  0  0  0  0  0  0  0  0
   26.6485   71.0922   -3.3950 C   0  0  1  0  0  0  0  0  0  0  0  0
   28.3911   69.5189   -3.3763 C   0  0  2  0  0  0  0  0  0  0  0  0
   28.6976   72.0798   -1.0838 H   0  0  0  0  0  0  0  0  0  0  0  0
   30.5634   71.9131   -2.8253 H   0  0  0  0  0  0  0  0  0  0  0  0
   30.7409   67.9584   -3.2305 O   0  0  0  0  0  0  0  0  0  0  0  0
   30.0753   66.2315   -7.4514 O   0  0  0  0  0  0  0  0  0  0  0  0
   28.8555   68.6521   -4.4225 N   0  0  0  0  0  0  0  0  0  0  0  0
   30.4075   67.0996   -5.3322 N   0  0  0  0  0  0  0  0  0  0  0  0
   30.0486   67.9125   -4.2494 C   0  0  0  0  0  0  0  0  0  0  0  0
   28.1303   68.5417   -5.6039 C   0  0  0  0  0  0  0  0  0  0  0  0
   28.4868   67.7629   -6.6275 C   0  0  0  0  0  0  0  0  0  0  0  0
   29.7207   66.9571   -6.5275 C   0  0  0  0  0  0  0  0  0  0  0  0
   31.2354   66.5754   -5.2344 H   0  0  0  0  0  0  0  0  0  0  0  0
   23.8395   72.5985   -5.5727 O   0  0  0  0  0  0  0  0  0  0  0  0
   22.2315   72.4383   -5.6132 P   0  0  2  0  0  0  0  0  0  0  0  0
   22.0203   70.9877   -6.2977 O   0  0  0  0  0  0  0  0  0  0  0  0
   21.5186   73.5612   -6.3092 O   0  0  0  0  0  0  0  0  0  0  0  0
   21.8031   72.2277   -4.0714 O   0  0  0  0  0  0  0  0  0  0  0  0
   23.2575   71.1823   -2.5195 O   0  0  0  0  0  0  0  0  0  0  0  0
   19.6552   70.4693   -0.6312 O   0  0  0  0  0  0  0  0  0  0  0  0
   21.4662   72.4144    0.4574 O   0  0  0  0  0  0  0  0  0  0  0  0
   19.8291   70.3119   -3.5164 O   0  0  0  0  0  0  0  0  0  0  0  0
   20.5894   71.2146   -1.4168 C   0  0  1  0  0  0  0  0  0  0  0  0
   21.8280   71.4851   -0.5604 C   0  0  1  0  0  0  0  0  0  0  0  0
   20.9597   70.4020   -2.6561 C   0  0  2  0  0  0  0  0  0  0  0  0
   22.9777   72.0436   -1.4098 C   0  0  1  0  0  0  0  0  0  0  0  0
   22.1454   71.0172   -3.4015 C   0  0  1  0  0  0  0  0  0  0  0  0
   19.4156   70.9800    0.1570 H   0  0  0  0  0  0  0  0  0  0  0  0
   20.7391   72.0499    0.9861 H   0  0  0  0  0  0  0  0  0  0  0  0
   19.0855   69.9206   -3.0330 H   0  0  0  0  0  0  0  0  0  0  0  0
   25.0967   73.1342   -1.2385 O   0  0  0  0  0  0  0  0  0  0  0  0
   24.2709   72.1725   -0.6079 C   0  0  0  0  0  0  0  0  0  0  0  0
   25.9234   73.2270   -0.7389 H   0  0  0  0  0  0  0  0  0  0  0  0
 25 28  1  0
 25 24  1  0
 25 26  1  6
 25 27  2  0
  1  4  1  0
  1 24  1  0
  1  2  1  6
  1  3  2  0
  6 11  1  0
  6 12  1  0
 29 36  1  0
 29 37  1  0
  9  7  1  1
  7 13  1  0
 10  8  1  1
  8 14  1  0
 37 28  1  1
  4  5  1  0
 33 30  1  1
 30 38  1  0
 34 31  1  1
 31 39  1  0
 35 32  1  6
 32 40  1  0
 41 42  1  0
 41 43  1  0
 15 19  2  0
 16 22  2  0
 12 17  1  6
 17 19  1  0
 17 20  1  0
 18 19  1  0
 18 22  1  0
 18 23  1  0
  9 10  1  0
  9 11  1  0
 10 12  1  0
 11  5  1  6
 33 34  1  0
 33 35  1  0
 34 36  1  0
 35 37  1  0
 36 42  1  1
 20 21  2  0
 21 22  1  0
M  CHG  2   2  -1  26  -1
M  END
>  <COMPND>  (172) 
    8629 

>  <AUTHOR>  (172) 
    GENERATED BY OPEN BABEL 3.1.1

>  <MASTER>  (172) 
        0    0    0    0    0    0    0    0   58    0   58    0

>  <minimizedAffinity>  (172) 
-7.07632

>  <CNNscore>  (172) 
0.3905659616

>  <CNNaffinity>  (172) 
4.2364892960

>  <CNN_VS>  (172) 
1.6546285152

>  <CNNaffinity_variance>  (172) 
0.0674368441

$$$$
173
     RDKit          3D

 43 45  0  0  0  0  0  0  0  0999 V2000
   26.8520   72.2990    1.2505 P   0  0  2  0  0  0  0  0  0  0  0  0
   27.3824   73.1384   -0.0268 O   0  0  0  0  0  0  0  0  0  0  0  0
   26.7796   73.0746    2.5329 O   0  0  0  0  0  0  0  0  0  0  0  0
   27.8002   70.9882    1.2747 O   0  0  0  0  0  0  0  0  0  0  0  0
   29.0469   71.0679    1.9433 C   0  0  0  0  0  0  0  0  0  0  0  0
   29.8921   70.5135   -0.2367 O   0  0  0  0  0  0  0  0  0  0  0  0
   32.3524   69.5360    1.1713 O   0  0  0  0  0  0  0  0  0  0  0  0
   33.1266   71.9839    0.2520 O   0  0  0  0  0  0  0  0  0  0  0  0
   31.5140   70.6466    1.4859 C   0  0  1  0  0  0  0  0  0  0  0  0
   31.7523   71.7788    0.5087 C   0  0  2  0  0  0  0  0  0  0  0  0
   30.0761   70.2528    1.1721 C   0  0  1  0  0  0  0  0  0  0  0  0
   30.9934   71.3013   -0.7178 C   0  0  2  0  0  0  0  0  0  0  0  0
   33.2760   69.7636    1.3638 H   0  0  0  0  0  0  0  0  0  0  0  0
   33.5653   72.2869    1.0623 H   0  0  0  0  0  0  0  0  0  0  0  0
   29.6552   70.9962   -3.1864 O   0  0  0  0  0  0  0  0  0  0  0  0
   29.0719   75.5453   -3.6412 O   0  0  0  0  0  0  0  0  0  0  0  0
   30.4809   72.3890   -1.5025 N   0  0  0  0  0  0  0  0  0  0  0  0
   29.3657   73.2615   -3.4107 N   0  0  0  0  0  0  0  0  0  0  0  0
   29.8256   72.1279   -2.7284 C   0  0  0  0  0  0  0  0  0  0  0  0
   30.6300   73.6971   -1.0547 C   0  0  0  0  0  0  0  0  0  0  0  0
   30.1869   74.7672   -1.7179 C   0  0  0  0  0  0  0  0  0  0  0  0
   29.4909   74.5815   -3.0075 C   0  0  0  0  0  0  0  0  0  0  0  0
   28.9063   73.1041   -4.2675 H   0  0  0  0  0  0  0  0  0  0  0  0
   25.4353   71.7133    0.7377 O   0  0  0  0  0  0  0  0  0  0  0  0
   24.1612   72.4503    0.0696 P   0  0  2  0  0  0  0  0  0  0  0  0
   24.2554   73.9562    0.6534 O   0  0  0  0  0  0  0  0  0  0  0  0
   22.8497   71.7669    0.3282 O   0  0  0  0  0  0  0  0  0  0  0  0
   24.5444   72.5935   -1.4917 O   0  0  0  0  0  0  0  0  0  0  0  0
   23.3701   71.6550   -3.3238 O   0  0  0  0  0  0  0  0  0  0  0  0
   27.1891   71.6063   -4.8932 O   0  0  0  0  0  0  0  0  0  0  0  0
   25.2725   73.5011   -5.8853 O   0  0  0  0  0  0  0  0  0  0  0  0
   26.7700   70.9944   -2.0952 O   0  0  0  0  0  0  0  0  0  0  0  0
   26.1065   72.1248   -4.1158 C   0  0  1  0  0  0  0  0  0  0  0  0
   24.9289   72.3958   -5.0543 C   0  0  1  0  0  0  0  0  0  0  0  0
   25.7206   71.0996   -3.0512 C   0  0  2  0  0  0  0  0  0  0  0  0
   23.6490   72.6991   -4.2638 C   0  0  1  0  0  0  0  0  0  0  0  0
   24.4079   71.4709   -2.3590 C   0  0  1  0  0  0  0  0  0  0  0  0
   27.4394   72.2527   -5.5708 H   0  0  0  0  0  0  0  0  0  0  0  0
   26.0825   73.2969   -6.3785 H   0  0  0  0  0  0  0  0  0  0  0  0
   27.5954   70.7586   -2.5458 H   0  0  0  0  0  0  0  0  0  0  0  0
   22.7403   72.2251   -6.4222 O   0  0  0  0  0  0  0  0  0  0  0  0
   22.4288   72.8171   -5.1745 C   0  0  0  0  0  0  0  0  0  0  0  0
   21.9727   72.2925   -7.0120 H   0  0  0  0  0  0  0  0  0  0  0  0
 25 28  1  0
 25 24  1  0
 25 26  1  1
 25 27  2  0
  1  4  1  0
  1 24  1  0
  1  2  1  6
  1  3  2  0
  6 11  1  0
  6 12  1  0
 29 36  1  0
 29 37  1  0
  9  7  1  6
  7 13  1  0
 10  8  1  6
  8 14  1  0
 37 28  1  6
  4  5  1  0
 33 30  1  6
 30 38  1  0
 34 31  1  6
 31 39  1  0
 35 32  1  1
 32 40  1  0
 41 42  1  0
 41 43  1  0
 15 19  2  0
 16 22  2  0
 12 17  1  1
 17 19  1  0
 17 20  1  0
 18 19  1  0
 18 22  1  0
 18 23  1  0
  9 10  1  0
  9 11  1  0
 10 12  1  0
 11  5  1  1
 33 34  1  0
 33 35  1  0
 34 36  1  0
 35 37  1  0
 36 42  1  6
 20 21  2  0
 21 22  1  0
M  CHG  2   2  -1  26  -1
M  END
>  <COMPND>  (173) 
    8629 

>  <AUTHOR>  (173) 
    GENERATED BY OPEN BABEL 3.1.1

>  <MASTER>  (173) 
        0    0    0    0    0    0    0    0   58    0   58    0

>  <minimizedAffinity>  (173) 
-6.04123

>  <CNNscore>  (173) 
0.3617773652

>  <CNNaffinity>  (173) 
3.6493821144

>  <CNN_VS>  (173) 
1.3202638626

>  <CNNaffinity_variance>  (173) 
0.5917293429

$$$$
174
     RDKit          3D

 43 45  0  0  0  0  0  0  0  0999 V2000
   26.5469   71.8497   -3.0311 P   0  0  2  0  0  0  0  0  0  0  0  0
   26.8740   73.4281   -3.1693 O   0  0  0  0  0  0  0  0  0  0  0  0
   26.2588   71.1466   -4.3249 O   0  0  0  0  0  0  0  0  0  0  0  0
   25.3693   71.7926   -1.9230 O   0  0  0  0  0  0  0  0  0  0  0  0
   24.1466   71.1649   -2.2676 C   0  0  0  0  0  0  0  0  0  0  0  0
   23.0077   71.3701   -0.1617 O   0  0  0  0  0  0  0  0  0  0  0  0
   21.8855   73.9367   -1.2314 O   0  0  0  0  0  0  0  0  0  0  0  0
   23.8998   74.7995    0.3918 O   0  0  0  0  0  0  0  0  0  0  0  0
   23.1765   73.3635   -1.4320 C   0  0  1  0  0  0  0  0  0  0  0  0
   24.0184   73.5136   -0.1821 C   0  0  2  0  0  0  0  0  0  0  0  0
   23.0097   71.8518   -1.5234 C   0  0  1  0  0  0  0  0  0  0  0  0
   23.4550   72.4208    0.7104 C   0  0  2  0  0  0  0  0  0  0  0  0
   21.9665   74.9019   -1.1702 H   0  0  0  0  0  0  0  0  0  0  0  0
   24.2721   75.4595   -0.2137 H   0  0  0  0  0  0  0  0  0  0  0  0
   22.8558   70.8210    2.9598 O   0  0  0  0  0  0  0  0  0  0  0  0
   27.3039   70.4443    4.1058 O   0  0  0  0  0  0  0  0  0  0  0  0
   24.4372   71.8907    1.6136 N   0  0  0  0  0  0  0  0  0  0  0  0
   25.0711   70.6346    3.5285 N   0  0  0  0  0  0  0  0  0  0  0  0
   24.0311   71.0994    2.7134 C   0  0  0  0  0  0  0  0  0  0  0  0
   25.7860   72.1566    1.4045 C   0  0  0  0  0  0  0  0  0  0  0  0
   26.7654   71.7069    2.1918 C   0  0  0  0  0  0  0  0  0  0  0  0
   26.4263   70.8728    3.3628 C   0  0  0  0  0  0  0  0  0  0  0  0
   24.8120   70.0815    4.3010 H   0  0  0  0  0  0  0  0  0  0  0  0
   27.8295   71.2817   -2.2278 O   0  0  0  0  0  0  0  0  0  0  0  0
   29.3918   71.2102   -2.6367 P   0  0  2  0  0  0  0  0  0  0  0  0
   30.0636   70.4159   -1.3976 O   0  0  0  0  0  0  0  0  0  0  0  0
   30.0137   72.5455   -2.9265 O   0  0  0  0  0  0  0  0  0  0  0  0
   29.4447   70.1665   -3.8667 O   0  0  0  0  0  0  0  0  0  0  0  0
   28.4471   68.0985   -3.2795 O   0  0  0  0  0  0  0  0  0  0  0  0
   30.0878   67.0308   -6.9153 O   0  0  0  0  0  0  0  0  0  0  0  0
   27.2442   67.3607   -6.6850 O   0  0  0  0  0  0  0  0  0  0  0  0
   31.5381   68.7984   -5.1400 O   0  0  0  0  0  0  0  0  0  0  0  0
   29.4617   67.9088   -5.9759 C   0  0  1  0  0  0  0  0  0  0  0  0
   28.1221   67.2948   -5.5647 C   0  0  1  0  0  0  0  0  0  0  0  0
   30.3735   68.0725   -4.7613 C   0  0  2  0  0  0  0  0  0  0  0  0
   27.5163   68.0383   -4.3666 C   0  0  1  0  0  0  0  0  0  0  0  0
   29.6584   68.7810   -3.6095 C   0  0  1  0  0  0  0  0  0  0  0  0
   29.5141   66.9230   -7.6892 H   0  0  0  0  0  0  0  0  0  0  0  0
   27.6386   66.8879   -7.4347 H   0  0  0  0  0  0  0  0  0  0  0  0
   31.9819   68.3395   -5.8696 H   0  0  0  0  0  0  0  0  0  0  0  0
   25.2744   68.3338   -3.5951 O   0  0  0  0  0  0  0  0  0  0  0  0
   26.2600   67.3476   -3.8405 C   0  0  0  0  0  0  0  0  0  0  0  0
   24.4689   67.9087   -3.2600 H   0  0  0  0  0  0  0  0  0  0  0  0
 25 28  1  0
 25 24  1  0
 25 26  1  1
 25 27  2  0
  1  4  1  0
  1 24  1  0
  1  2  1  6
  1  3  2  0
  6 11  1  0
  6 12  1  0
 29 36  1  0
 29 37  1  0
  9  7  1  1
  7 13  1  0
 10  8  1  1
  8 14  1  0
 37 28  1  6
  4  5  1  0
 33 30  1  6
 30 38  1  0
 34 31  1  6
 31 39  1  0
 35 32  1  6
 32 40  1  0
 41 42  1  0
 41 43  1  0
 15 19  2  0
 16 22  2  0
 12 17  1  1
 17 19  1  0
 17 20  1  0
 18 19  1  0
 18 22  1  0
 18 23  1  0
  9 10  1  0
  9 11  1  0
 10 12  1  0
 11  5  1  6
 33 34  1  0
 33 35  1  0
 34 36  1  0
 35 37  1  0
 36 42  1  1
 20 21  2  0
 21 22  1  0
M  CHG  2   2  -1  26  -1
M  END
>  <COMPND>  (174) 
    8629 

>  <AUTHOR>  (174) 
    GENERATED BY OPEN BABEL 3.1.1

>  <MASTER>  (174) 
        0    0    0    0    0    0    0    0   58    0   58    0

>  <minimizedAffinity>  (174) 
-7.34870

>  <CNNscore>  (174) 
0.3579811454

>  <CNNaffinity>  (174) 
3.9930775166

>  <CNN_VS>  (174) 
1.4294464588

>  <CNNaffinity_variance>  (174) 
0.2092377245

$$$$
175
     RDKit          3D

 43 45  0  0  0  0  0  0  0  0999 V2000
   22.1933   72.8509   -5.6902 P   0  0  2  0  0  0  0  0  0  0  0  0
   22.3293   71.7315   -6.8503 O   0  0  0  0  0  0  0  0  0  0  0  0
   22.0434   74.2600   -6.1835 O   0  0  0  0  0  0  0  0  0  0  0  0
   23.4672   72.5738   -4.7319 O   0  0  0  0  0  0  0  0  0  0  0  0
   23.4676   73.1320   -3.4294 C   0  0  0  0  0  0  0  0  0  0  0  0
   24.9551   73.7906   -1.6610 O   0  0  0  0  0  0  0  0  0  0  0  0
   27.1855   73.2676   -3.5957 O   0  0  0  0  0  0  0  0  0  0  0  0
   27.2073   71.0257   -2.0432 O   0  0  0  0  0  0  0  0  0  0  0  0
   25.9497   72.5732   -3.4343 C   0  0  1  0  0  0  0  0  0  0  0  0
   25.9850   71.7209   -2.1829 C   0  0  2  0  0  0  0  0  0  0  0  0
   24.8767   73.5987   -3.0905 C   0  0  1  0  0  0  0  0  0  0  0  0
   25.7728   72.7556   -1.0909 C   0  0  2  0  0  0  0  0  0  0  0  0
   27.8862   72.6333   -3.8161 H   0  0  0  0  0  0  0  0  0  0  0  0
   27.2957   70.3794   -2.7610 H   0  0  0  0  0  0  0  0  0  0  0  0
   27.0883   71.5976    1.1241 O   0  0  0  0  0  0  0  0  0  0  0  0
   23.1015   70.6985    3.2544 O   0  0  0  0  0  0  0  0  0  0  0  0
   25.1031   72.2113    0.0566 N   0  0  0  0  0  0  0  0  0  0  0  0
   25.1021   71.1510    2.1831 N   0  0  0  0  0  0  0  0  0  0  0  0
   25.8568   71.6519    1.1147 C   0  0  0  0  0  0  0  0  0  0  0  0
   23.7144   72.2360    0.1249 C   0  0  0  0  0  0  0  0  0  0  0  0
   23.0097   71.7530    1.1503 C   0  0  0  0  0  0  0  0  0  0  0  0
   23.7209   71.1513    2.2967 C   0  0  0  0  0  0  0  0  0  0  0  0
   25.6058   70.7561    2.9315 H   0  0  0  0  0  0  0  0  0  0  0  0
   20.9509   72.3112   -4.8081 O   0  0  0  0  0  0  0  0  0  0  0  0
   20.3515   70.8220   -4.6182 P   0  0  2  0  0  0  0  0  0  0  0  0
   19.2264   71.0182   -3.4723 O   0  0  0  0  0  0  0  0  0  0  0  0
   21.3837   69.7791   -4.3004 O   0  0  0  0  0  0  0  0  0  0  0  0
   19.5134   70.5437   -5.9691 O   0  0  0  0  0  0  0  0  0  0  0  0
   18.6791   72.5188   -6.9789 O   0  0  0  0  0  0  0  0  0  0  0  0
   16.5489   69.7207   -9.1432 O   0  0  0  0  0  0  0  0  0  0  0  0
   18.7017   71.1467  -10.4003 O   0  0  0  0  0  0  0  0  0  0  0  0
   17.0177   69.3084   -6.3166 O   0  0  0  0  0  0  0  0  0  0  0  0
   17.6815   70.2359   -8.4380 C   0  0  1  0  0  0  0  0  0  0  0  0
   18.1440   71.5134   -9.1414 C   0  0  1  0  0  0  0  0  0  0  0  0
   17.2783   70.5325   -6.9948 C   0  0  2  0  0  0  0  0  0  0  0  0
   19.1805   72.2667   -8.2968 C   0  0  1  0  0  0  0  0  0  0  0  0
   18.3585   71.3271   -6.2586 C   0  0  1  0  0  0  0  0  0  0  0  0
   16.7983   69.5298  -10.0602 H   0  0  0  0  0  0  0  0  0  0  0  0
   18.0372   70.6714  -10.9236 H   0  0  0  0  0  0  0  0  0  0  0  0
   16.3321   68.8149   -6.7923 H   0  0  0  0  0  0  0  0  0  0  0  0
   18.5820   73.9333   -9.9009 O   0  0  0  0  0  0  0  0  0  0  0  0
   19.5382   73.6212   -8.9046 C   0  0  0  0  0  0  0  0  0  0  0  0
   18.7969   74.7930  -10.2964 H   0  0  0  0  0  0  0  0  0  0  0  0
 25 28  1  0
 25 24  1  0
 25 26  1  1
 25 27  2  0
  1  4  1  0
  1 24  1  0
  1  2  1  6
  1  3  2  0
  6 11  1  0
  6 12  1  0
 29 36  1  0
 29 37  1  0
  9  7  1  1
  7 13  1  0
 10  8  1  1
  8 14  1  0
 37 28  1  6
  4  5  1  0
 33 30  1  6
 30 38  1  0
 34 31  1  6
 31 39  1  0
 35 32  1  1
 32 40  1  0
 41 42  1  0
 41 43  1  0
 15 19  2  0
 16 22  2  0
 12 17  1  1
 17 19  1  0
 17 20  1  0
 18 19  1  0
 18 22  1  0
 18 23  1  0
  9 10  1  0
  9 11  1  0
 10 12  1  0
 11  5  1  1
 33 34  1  0
 33 35  1  0
 34 36  1  0
 35 37  1  0
 36 42  1  6
 20 21  2  0
 21 22  1  0
M  CHG  2   2  -1  26  -1
M  END
>  <COMPND>  (175) 
    8629 

>  <AUTHOR>  (175) 
    GENERATED BY OPEN BABEL 3.1.1

>  <MASTER>  (175) 
        0    0    0    0    0    0    0    0   58    0   58    0

>  <minimizedAffinity>  (175) 
-6.33585

>  <CNNscore>  (175) 
0.3023130298

>  <CNNaffinity>  (175) 
3.8821525574

>  <CNN_VS>  (175) 
1.1736253500

>  <CNNaffinity_variance>  (175) 
0.2356483936

$$$$
176
     RDKit          3D

 43 45  0  0  0  0  0  0  0  0999 V2000
   26.9755   71.5473    1.8760 P   0  0  2  0  0  0  0  0  0  0  0  0
   26.9814   73.1020    2.3236 O   0  0  0  0  0  0  0  0  0  0  0  0
   26.5394   70.5831    2.9398 O   0  0  0  0  0  0  0  0  0  0  0  0
   28.4601   71.3096    1.2782 O   0  0  0  0  0  0  0  0  0  0  0  0
   29.4817   70.8745    2.1583 C   0  0  0  0  0  0  0  0  0  0  0  0
   30.2153   70.2240   -0.0354 O   0  0  0  0  0  0  0  0  0  0  0  0
   32.8094   69.4633    1.2619 O   0  0  0  0  0  0  0  0  0  0  0  0
   33.3901   71.8826    0.1455 O   0  0  0  0  0  0  0  0  0  0  0  0
   31.9339   70.5486    1.5636 C   0  0  1  0  0  0  0  0  0  0  0  0
   32.0480   71.6260    0.5054 C   0  0  2  0  0  0  0  0  0  0  0  0
   30.5023   70.0640    1.3712 C   0  0  1  0  0  0  0  0  0  0  0  0
   31.2395   71.0332   -0.6361 C   0  0  2  0  0  0  0  0  0  0  0  0
   33.7298   69.7487    1.3780 H   0  0  0  0  0  0  0  0  0  0  0  0
   33.8624   72.2587    0.9046 H   0  0  0  0  0  0  0  0  0  0  0  0
   30.3520   70.6221   -3.2859 O   0  0  0  0  0  0  0  0  0  0  0  0
   28.8791   74.9730   -3.6621 O   0  0  0  0  0  0  0  0  0  0  0  0
   30.6201   72.0411   -1.4497 N   0  0  0  0  0  0  0  0  0  0  0  0
   29.6192   72.7888   -3.4710 N   0  0  0  0  0  0  0  0  0  0  0  0
   30.2117   71.7320   -2.7681 C   0  0  0  0  0  0  0  0  0  0  0  0
   30.4230   73.3195   -0.9389 C   0  0  0  0  0  0  0  0  0  0  0  0
   29.8576   74.3165   -1.6226 C   0  0  0  0  0  0  0  0  0  0  0  0
   29.4025   74.0767   -3.0074 C   0  0  0  0  0  0  0  0  0  0  0  0
   29.3270   72.5968   -4.3916 H   0  0  0  0  0  0  0  0  0  0  0  0
   26.0476   71.5536    0.5524 O   0  0  0  0  0  0  0  0  0  0  0  0
   26.2834   72.2092   -0.9062 P   0  0  2  0  0  0  0  0  0  0  0  0
   27.4910   71.3245   -1.5198 O   0  0  0  0  0  0  0  0  0  0  0  0
   26.5488   73.6866   -0.8812 O   0  0  0  0  0  0  0  0  0  0  0  0
   24.9855   71.7772   -1.7629 O   0  0  0  0  0  0  0  0  0  0  0  0
   24.0550   70.0726   -3.1213 O   0  0  0  0  0  0  0  0  0  0  0  0
   24.2837   73.0977   -5.9226 O   0  0  0  0  0  0  0  0  0  0  0  0
   21.7228   72.3214   -4.8800 O   0  0  0  0  0  0  0  0  0  0  0  0
   26.3991   72.7716   -3.9737 O   0  0  0  0  0  0  0  0  0  0  0  0
   24.0904   72.5402   -4.6199 C   0  0  1  0  0  0  0  0  0  0  0  0
   22.9141   71.5641   -4.6857 C   0  0  1  0  0  0  0  0  0  0  0  0
   25.3660   71.8169   -4.1921 C   0  0  2  0  0  0  0  0  0  0  0  0
   22.8137   70.7302   -3.4014 C   0  0  1  0  0  0  0  0  0  0  0  0
   25.1442   70.9781   -2.9323 C   0  0  1  0  0  0  0  0  0  0  0  0
   23.4775   73.5589   -6.2000 H   0  0  0  0  0  0  0  0  0  0  0  0
   21.7994   72.8437   -5.6940 H   0  0  0  0  0  0  0  0  0  0  0  0
   26.5301   73.2959   -4.7786 H   0  0  0  0  0  0  0  0  0  0  0  0
   21.5880   69.3006   -4.8721 O   0  0  0  0  0  0  0  0  0  0  0  0
   21.7468   69.6427   -3.5075 C   0  0  0  0  0  0  0  0  0  0  0  0
   20.9122   68.6092   -4.9550 H   0  0  0  0  0  0  0  0  0  0  0  0
 25 28  1  0
 25 24  1  0
 25 26  1  6
 25 27  2  0
  1  4  1  0
  1 24  1  0
  1  2  1  1
  1  3  2  0
  6 11  1  0
  6 12  1  0
 29 36  1  0
 29 37  1  0
  9  7  1  6
  7 13  1  0
 10  8  1  6
  8 14  1  0
 37 28  1  1
  4  5  1  0
 33 30  1  6
 30 38  1  0
 34 31  1  1
 31 39  1  0
 35 32  1  1
 32 40  1  0
 41 42  1  0
 41 43  1  0
 15 19  2  0
 16 22  2  0
 12 17  1  1
 17 19  1  0
 17 20  1  0
 18 19  1  0
 18 22  1  0
 18 23  1  0
  9 10  1  0
  9 11  1  0
 10 12  1  0
 11  5  1  1
 33 34  1  0
 33 35  1  0
 34 36  1  0
 35 37  1  0
 36 42  1  6
 20 21  2  0
 21 22  1  0
M  CHG  2   2  -1  26  -1
M  END
>  <COMPND>  (176) 
    8629 

>  <AUTHOR>  (176) 
    GENERATED BY OPEN BABEL 3.1.1

>  <MASTER>  (176) 
        0    0    0    0    0    0    0    0   58    0   58    0

>  <minimizedAffinity>  (176) 
-6.12636

>  <CNNscore>  (176) 
0.2867361903

>  <CNNaffinity>  (176) 
3.7122464180

>  <CNN_VS>  (176) 
1.0644353628

>  <CNNaffinity_variance>  (176) 
0.3120137751

$$$$
177
     RDKit          3D

 43 45  0  0  0  0  0  0  0  0999 V2000
   25.9684   73.2403    1.8325 P   0  0  2  0  0  0  0  0  0  0  0  0
   24.6092   73.3943    0.9686 O   0  0  0  0  0  0  0  0  0  0  0  0
   26.4745   74.5109    2.4496 O   0  0  0  0  0  0  0  0  0  0  0  0
   26.9887   72.4951    0.8217 O   0  0  0  0  0  0  0  0  0  0  0  0
   26.6544   72.4354   -0.5540 C   0  0  0  0  0  0  0  0  0  0  0  0
   28.8249   73.4608   -0.6597 O   0  0  0  0  0  0  0  0  0  0  0  0
   28.1730   74.1100   -3.5135 O   0  0  0  0  0  0  0  0  0  0  0  0
   29.7912   71.9284   -3.7550 O   0  0  0  0  0  0  0  0  0  0  0  0
   27.8297   72.9548   -2.7499 C   0  0  1  0  0  0  0  0  0  0  0  0
   29.0429   72.0675   -2.5644 C   0  0  2  0  0  0  0  0  0  0  0  0
   27.5429   73.4040   -1.3226 C   0  0  1  0  0  0  0  0  0  0  0  0
   29.8071   72.8022   -1.4761 C   0  0  2  0  0  0  0  0  0  0  0  0
   28.3602   73.8482   -4.4291 H   0  0  0  0  0  0  0  0  0  0  0  0
   29.2623   71.4550   -4.4160 H   0  0  0  0  0  0  0  0  0  0  0  0
   32.1679   73.5366   -0.1104 O   0  0  0  0  0  0  0  0  0  0  0  0
   32.6815   69.3093    1.6522 O   0  0  0  0  0  0  0  0  0  0  0  0
   30.5778   71.9135   -0.6528 N   0  0  0  0  0  0  0  0  0  0  0  0
   32.4216   71.4312    0.7663 N   0  0  0  0  0  0  0  0  0  0  0  0
   31.7484   72.3817   -0.0117 C   0  0  0  0  0  0  0  0  0  0  0  0
   30.1708   70.5941   -0.4876 C   0  0  0  0  0  0  0  0  0  0  0  0
   30.8248   69.6999    0.2567 C   0  0  0  0  0  0  0  0  0  0  0  0
   32.0577   70.1081    0.9604 C   0  0  0  0  0  0  0  0  0  0  0  0
   33.2401   71.7346    1.2221 H   0  0  0  0  0  0  0  0  0  0  0  0
   25.5952   72.0792    2.8934 O   0  0  0  0  0  0  0  0  0  0  0  0
   26.1300   71.7996    4.3930 P   0  0  2  0  0  0  0  0  0  0  0  0
   25.9085   70.2074    4.5751 O   0  0  0  0  0  0  0  0  0  0  0  0
   25.4718   72.6410    5.4478 O   0  0  0  0  0  0  0  0  0  0  0  0
   27.7309   71.9801    4.2960 O   0  0  0  0  0  0  0  0  0  0  0  0
   29.3818   71.5546    5.9423 O   0  0  0  0  0  0  0  0  0  0  0  0
   31.1143   74.8180    4.0986 O   0  0  0  0  0  0  0  0  0  0  0  0
   32.2305   72.2029    3.6944 O   0  0  0  0  0  0  0  0  0  0  0  0
   28.2469   74.7320    4.4856 O   0  0  0  0  0  0  0  0  0  0  0  0
   30.3528   73.6090    4.1612 C   0  0  1  0  0  0  0  0  0  0  0  0
   31.2597   72.4982    4.6946 C   0  0  1  0  0  0  0  0  0  0  0  0
   29.1577   73.8194    5.0890 C   0  0  2  0  0  0  0  0  0  0  0  0
   30.4505   71.2412    5.0416 C   0  0  1  0  0  0  0  0  0  0  0  0
   28.4524   72.5003    5.4096 C   0  0  1  0  0  0  0  0  0  0  0  0
   31.8744   74.6913    3.5106 H   0  0  0  0  0  0  0  0  0  0  0  0
   32.7342   73.0050    3.4841 H   0  0  0  0  0  0  0  0  0  0  0  0
   28.7053   75.5630    4.2879 H   0  0  0  0  0  0  0  0  0  0  0  0
   32.1342   69.5725    4.7427 O   0  0  0  0  0  0  0  0  0  0  0  0
   31.3097   70.1776    5.7217 C   0  0  0  0  0  0  0  0  0  0  0  0
   32.6869   68.8935    5.1612 H   0  0  0  0  0  0  0  0  0  0  0  0
 25 28  1  0
 25 24  1  0
 25 26  1  1
 25 27  2  0
  1  4  1  0
  1 24  1  0
  1  2  1  6
  1  3  2  0
  6 11  1  0
  6 12  1  0
 29 36  1  0
 29 37  1  0
  9  7  1  6
  7 13  1  0
 10  8  1  6
  8 14  1  0
 37 28  1  6
  4  5  1  0
 33 30  1  1
 30 38  1  0
 34 31  1  6
 31 39  1  0
 35 32  1  6
 32 40  1  0
 41 42  1  0
 41 43  1  0
 15 19  2  0
 16 22  2  0
 12 17  1  1
 17 19  1  0
 17 20  1  0
 18 19  1  0
 18 22  1  0
 18 23  1  0
  9 10  1  0
  9 11  1  0
 10 12  1  0
 11  5  1  1
 33 34  1  0
 33 35  1  0
 34 36  1  0
 35 37  1  0
 36 42  1  1
 20 21  2  0
 21 22  1  0
M  CHG  2   2  -1  26  -1
M  END
>  <COMPND>  (177) 
    8629 

>  <AUTHOR>  (177) 
    GENERATED BY OPEN BABEL 3.1.1

>  <MASTER>  (177) 
        0    0    0    0    0    0    0    0   58    0   58    0

>  <minimizedAffinity>  (177) 
-5.33665

>  <CNNscore>  (177) 
0.2733387351

>  <CNNaffinity>  (177) 
3.5537712574

>  <CNN_VS>  (177) 
0.9713833332

>  <CNNaffinity_variance>  (177) 
0.4101873338

$$$$
178
     RDKit          3D

 43 45  0  0  0  0  0  0  0  0999 V2000
   28.7567   71.6544   -0.3013 P   0  0  2  0  0  0  0  0  0  0  0  0
   29.5923   73.0397   -0.2986 O   0  0  0  0  0  0  0  0  0  0  0  0
   27.2732   71.8094   -0.4639 O   0  0  0  0  0  0  0  0  0  0  0  0
   29.2412   70.9060    1.0489 O   0  0  0  0  0  0  0  0  0  0  0  0
   29.2476   71.6376    2.2624 C   0  0  0  0  0  0  0  0  0  0  0  0
   30.6611   72.8618    3.7714 O   0  0  0  0  0  0  0  0  0  0  0  0
   32.8844   71.0797    2.8378 O   0  0  0  0  0  0  0  0  0  0  0  0
   32.2031   69.9736    5.2355 O   0  0  0  0  0  0  0  0  0  0  0  0
   31.5074   70.7705    3.0463 C   0  0  1  0  0  0  0  0  0  0  0  0
   31.2067   70.6832    4.5281 C   0  0  2  0  0  0  0  0  0  0  0  0
   30.6854   71.9824    2.6258 C   0  0  1  0  0  0  0  0  0  0  0  0
   31.1407   72.1487    4.9231 C   0  0  2  0  0  0  0  0  0  0  0  0
   33.4293   70.3202    3.0990 H   0  0  0  0  0  0  0  0  0  0  0  0
   32.2054   69.0470    4.9490 H   0  0  0  0  0  0  0  0  0  0  0  0
   31.8876   72.0265    7.6443 O   0  0  0  0  0  0  0  0  0  0  0  0
   27.6204   73.0534    9.0509 O   0  0  0  0  0  0  0  0  0  0  0  0
   30.2452   72.3801    6.0212 N   0  0  0  0  0  0  0  0  0  0  0  0
   29.7623   72.5381    8.3424 N   0  0  0  0  0  0  0  0  0  0  0  0
   30.7205   72.2935    7.3505 C   0  0  0  0  0  0  0  0  0  0  0  0
   28.9119   72.6895    5.7748 C   0  0  0  0  0  0  0  0  0  0  0  0
   28.0106   72.9186    6.7320 C   0  0  0  0  0  0  0  0  0  0  0  0
   28.4256   72.8479    8.1479 C   0  0  0  0  0  0  0  0  0  0  0  0
   30.0705   72.4829    9.2761 H   0  0  0  0  0  0  0  0  0  0  0  0
   29.4757   70.7986   -1.4690 O   0  0  0  0  0  0  0  0  0  0  0  0
   30.1079   71.2562   -2.8846 P   0  0  2  0  0  0  0  0  0  0  0  0
   31.6734   70.8777   -2.7315 O   0  0  0  0  0  0  0  0  0  0  0  0
   29.8498   72.6922   -3.2384 O   0  0  0  0  0  0  0  0  0  0  0  0
   29.5335   70.1906   -3.9521 O   0  0  0  0  0  0  0  0  0  0  0  0
   28.4588   68.1461   -3.4215 O   0  0  0  0  0  0  0  0  0  0  0  0
   30.1358   67.0893   -7.0438 O   0  0  0  0  0  0  0  0  0  0  0  0
   27.3003   67.5070   -6.8622 O   0  0  0  0  0  0  0  0  0  0  0  0
   31.6067   68.7779   -5.2095 O   0  0  0  0  0  0  0  0  0  0  0  0
   29.5198   67.9706   -6.1009 C   0  0  1  0  0  0  0  0  0  0  0  0
   28.1533   67.3932   -5.7266 C   0  0  1  0  0  0  0  0  0  0  0  0
   30.4123   68.0836   -4.8663 C   0  0  2  0  0  0  0  0  0  0  0  0
   27.5482   68.1350   -4.5272 C   0  0  1  0  0  0  0  0  0  0  0  0
   29.6975   68.7947   -3.7159 C   0  0  1  0  0  0  0  0  0  0  0  0
   29.5744   67.0135   -7.8303 H   0  0  0  0  0  0  0  0  0  0  0  0
   27.6941   67.0347   -7.6126 H   0  0  0  0  0  0  0  0  0  0  0  0
   32.0499   68.3177   -5.9386 H   0  0  0  0  0  0  0  0  0  0  0  0
   26.4967   66.9250   -2.7554 O   0  0  0  0  0  0  0  0  0  0  0  0
   26.2603   67.4762   -4.0378 C   0  0  0  0  0  0  0  0  0  0  0  0
   25.6854   66.5026   -2.4311 H   0  0  0  0  0  0  0  0  0  0  0  0
 25 28  1  0
 25 24  1  0
 25 26  1  1
 25 27  2  0
  1  4  1  0
  1 24  1  0
  1  2  1  1
  1  3  2  0
  6 11  1  0
  6 12  1  0
 29 36  1  0
 29 37  1  0
  9  7  1  1
  7 13  1  0
 10  8  1  1
  8 14  1  0
 37 28  1  6
  4  5  1  0
 33 30  1  6
 30 38  1  0
 34 31  1  6
 31 39  1  0
 35 32  1  6
 32 40  1  0
 41 42  1  0
 41 43  1  0
 15 19  2  0
 16 22  2  0
 12 17  1  1
 17 19  1  0
 17 20  1  0
 18 19  1  0
 18 22  1  0
 18 23  1  0
  9 10  1  0
  9 11  1  0
 10 12  1  0
 11  5  1  1
 33 34  1  0
 33 35  1  0
 34 36  1  0
 35 37  1  0
 36 42  1  1
 20 21  2  0
 21 22  1  0
M  CHG  2   2  -1  26  -1
M  END
>  <COMPND>  (178) 
    8629 

>  <AUTHOR>  (178) 
    GENERATED BY OPEN BABEL 3.1.1

>  <MASTER>  (178) 
        0    0    0    0    0    0    0    0   58    0   58    0

>  <minimizedAffinity>  (178) 
-7.23721

>  <CNNscore>  (178) 
0.2490062565

>  <CNNaffinity>  (178) 
3.6396598816

>  <CNN_VS>  (178) 
0.9062981009

>  <CNNaffinity_variance>  (178) 
0.2303761691

$$$$
179
     RDKit          3D

 43 45  0  0  0  0  0  0  0  0999 V2000
   28.6785   71.7091   -2.2890 P   0  0  2  0  0  0  0  0  0  0  0  0
   29.4777   71.4326   -3.6683 O   0  0  0  0  0  0  0  0  0  0  0  0
   28.4150   73.1553   -1.9883 O   0  0  0  0  0  0  0  0  0  0  0  0
   29.5343   70.9046   -1.1763 O   0  0  0  0  0  0  0  0  0  0  0  0
   29.6125   71.4396    0.1335 C   0  0  0  0  0  0  0  0  0  0  0  0
   31.6808   70.2168    0.1115 O   0  0  0  0  0  0  0  0  0  0  0  0
   31.5969   70.3874    3.1039 O   0  0  0  0  0  0  0  0  0  0  0  0
   33.3770   72.3459    2.4466 O   0  0  0  0  0  0  0  0  0  0  0  0
   31.1824   71.3475    2.1335 C   0  0  1  0  0  0  0  0  0  0  0  0
   32.3884   72.0053    1.4961 C   0  0  2  0  0  0  0  0  0  0  0  0
   30.5729   70.5936    0.9581 C   0  0  1  0  0  0  0  0  0  0  0  0
   32.8552   70.9341    0.5252 C   0  0  2  0  0  0  0  0  0  0  0  0
   31.9892   70.8453    3.8644 H   0  0  0  0  0  0  0  0  0  0  0  0
   33.0322   73.0306    3.0408 H   0  0  0  0  0  0  0  0  0  0  0  0
   35.5835   71.6544    0.4014 O   0  0  0  0  0  0  0  0  0  0  0  0
   35.2055   73.0493   -3.9750 O   0  0  0  0  0  0  0  0  0  0  0  0
   33.4963   71.4874   -0.6342 N   0  0  0  0  0  0  0  0  0  0  0  0
   35.3931   72.3482   -1.7776 N   0  0  0  0  0  0  0  0  0  0  0  0
   34.8713   71.8159   -0.5917 C   0  0  0  0  0  0  0  0  0  0  0  0
   32.7631   71.6988   -1.7968 C   0  0  0  0  0  0  0  0  0  0  0  0
   33.2753   72.2085   -2.9189 C   0  0  0  0  0  0  0  0  0  0  0  0
   34.7049   72.5783   -2.9583 C   0  0  0  0  0  0  0  0  0  0  0  0
   36.3490   72.5849   -1.7714 H   0  0  0  0  0  0  0  0  0  0  0  0
   27.3499   70.8027   -2.4508 O   0  0  0  0  0  0  0  0  0  0  0  0
   26.4636   70.4412   -3.7534 P   0  0  2  0  0  0  0  0  0  0  0  0
   26.4443   71.8284   -4.5857 O   0  0  0  0  0  0  0  0  0  0  0  0
   25.1035   69.8891   -3.4383 O   0  0  0  0  0  0  0  0  0  0  0  0
   27.3999   69.4563   -4.6241 O   0  0  0  0  0  0  0  0  0  0  0  0
   27.0149   67.2226   -5.3161 O   0  0  0  0  0  0  0  0  0  0  0  0
   31.0849   67.0150   -4.6509 O   0  0  0  0  0  0  0  0  0  0  0  0
   30.0855   66.9962   -7.3432 O   0  0  0  0  0  0  0  0  0  0  0  0
   29.4093   68.5716   -2.8764 O   0  0  0  0  0  0  0  0  0  0  0  0
   29.8599   67.6360   -5.0496 C   0  0  1  0  0  0  0  0  0  0  0  0
   29.2593   66.8197   -6.1958 C   0  0  1  0  0  0  0  0  0  0  0  0
   28.9063   67.6703   -3.8568 C   0  0  2  0  0  0  0  0  0  0  0  0
   27.8221   67.2642   -6.4987 C   0  0  1  0  0  0  0  0  0  0  0  0
   27.4924   68.0775   -4.2755 C   0  0  1  0  0  0  0  0  0  0  0  0
   31.6951   66.9905   -5.4036 H   0  0  0  0  0  0  0  0  0  0  0  0
   30.9903   66.7123   -7.1384 H   0  0  0  0  0  0  0  0  0  0  0  0
   30.3047   68.3029   -2.6194 H   0  0  0  0  0  0  0  0  0  0  0  0
   26.0953   65.6610   -6.8948 O   0  0  0  0  0  0  0  0  0  0  0  0
   27.1493   66.3608   -7.5300 C   0  0  0  0  0  0  0  0  0  0  0  0
   25.6577   65.0822   -7.5392 H   0  0  0  0  0  0  0  0  0  0  0  0
 25 28  1  0
 25 24  1  0
 25 26  1  6
 25 27  2  0
  1  4  1  0
  1 24  1  0
  1  2  1  6
  1  3  2  0
  6 11  1  0
  6 12  1  0
 29 36  1  0
 29 37  1  0
  9  7  1  1
  7 13  1  0
 10  8  1  1
  8 14  1  0
 37 28  1  6
  4  5  1  0
 33 30  1  1
 30 38  1  0
 34 31  1  6
 31 39  1  0
 35 32  1  1
 32 40  1  0
 41 42  1  0
 41 43  1  0
 15 19  2  0
 16 22  2  0
 12 17  1  6
 17 19  1  0
 17 20  1  0
 18 19  1  0
 18 22  1  0
 18 23  1  0
  9 10  1  0
  9 11  1  0
 10 12  1  0
 11  5  1  6
 33 34  1  0
 33 35  1  0
 34 36  1  0
 35 37  1  0
 36 42  1  6
 20 21  2  0
 21 22  1  0
M  CHG  2   2  -1  26  -1
M  END
>  <COMPND>  (179) 
    8629 

>  <AUTHOR>  (179) 
    GENERATED BY OPEN BABEL 3.1.1

>  <MASTER>  (179) 
        0    0    0    0    0    0    0    0   58    0   58    0

>  <minimizedAffinity>  (179) 
-7.71270

>  <CNNscore>  (179) 
0.2241509110

>  <CNNaffinity>  (179) 
3.8577580452

>  <CNN_VS>  (179) 
0.8647199869

>  <CNNaffinity_variance>  (179) 
0.2067658156

$$$$
180
     RDKit          3D

 43 45  0  0  0  0  0  0  0  0999 V2000
   20.9776   71.7357   -6.2503 P   0  0  2  0  0  0  0  0  0  0  0  0
   20.3586   72.8841   -5.2935 O   0  0  0  0  0  0  0  0  0  0  0  0
   22.2948   72.0789   -6.8815 O   0  0  0  0  0  0  0  0  0  0  0  0
   19.7741   71.3950   -7.2766 O   0  0  0  0  0  0  0  0  0  0  0  0
   18.4922   71.1095   -6.7446 C   0  0  0  0  0  0  0  0  0  0  0  0
   16.3204   70.5927   -7.6335 O   0  0  0  0  0  0  0  0  0  0  0  0
   17.7686   69.3704   -9.9572 O   0  0  0  0  0  0  0  0  0  0  0  0
   16.9974   71.7925  -10.9449 O   0  0  0  0  0  0  0  0  0  0  0  0
   18.1056   70.5254   -9.1905 C   0  0  1  0  0  0  0  0  0  0  0  0
   17.1934   71.6797   -9.5500 C   0  0  2  0  0  0  0  0  0  0  0  0
   17.7207   70.2553   -7.7413 C   0  0  1  0  0  0  0  0  0  0  0  0
   15.9184   71.3166   -8.8079 C   0  0  2  0  0  0  0  0  0  0  0  0
   18.0055   69.5190  -10.8866 H   0  0  0  0  0  0  0  0  0  0  0  0
   17.8368   72.0246  -11.3718 H   0  0  0  0  0  0  0  0  0  0  0  0
   14.3788   72.9051  -10.5641 O   0  0  0  0  0  0  0  0  0  0  0  0
   13.0853   75.7349   -7.1640 O   0  0  0  0  0  0  0  0  0  0  0  0
   15.1688   72.4742   -8.4084 N   0  0  0  0  0  0  0  0  0  0  0  0
   13.7359   74.3127   -8.8697 N   0  0  0  0  0  0  0  0  0  0  0  0
   14.4294   73.2028   -9.3689 C   0  0  0  0  0  0  0  0  0  0  0  0
   15.1714   72.8759   -7.0770 C   0  0  0  0  0  0  0  0  0  0  0  0
   14.5058   73.9374   -6.6172 C   0  0  0  0  0  0  0  0  0  0  0  0
   13.7084   74.7529   -7.5558 C   0  0  0  0  0  0  0  0  0  0  0  0
   13.2140   74.8357   -9.5207 H   0  0  0  0  0  0  0  0  0  0  0  0
   21.0111   70.4386   -5.2863 O   0  0  0  0  0  0  0  0  0  0  0  0
   21.7936   70.1677   -3.8980 P   0  0  2  0  0  0  0  0  0  0  0  0
   21.6773   68.5647   -3.7132 O   0  0  0  0  0  0  0  0  0  0  0  0
   21.2771   70.9643   -2.7349 O   0  0  0  0  0  0  0  0  0  0  0  0
   23.3479   70.4260   -4.2480 O   0  0  0  0  0  0  0  0  0  0  0  0
   25.3040   69.8968   -3.0191 O   0  0  0  0  0  0  0  0  0  0  0  0
   26.4912   73.5111   -4.6247 O   0  0  0  0  0  0  0  0  0  0  0  0
   27.6307   71.0722   -5.6255 O   0  0  0  0  0  0  0  0  0  0  0  0
   23.7599   73.1540   -3.7347 O   0  0  0  0  0  0  0  0  0  0  0  0
   25.8143   72.2513   -4.6101 C   0  0  1  0  0  0  0  0  0  0  0  0
   26.8586   71.1478   -4.4303 C   0  0  1  0  0  0  0  0  0  0  0  0
   24.8123   72.2364   -3.4571 C   0  0  2  0  0  0  0  0  0  0  0  0
   26.1921   69.7966   -4.1384 C   0  0  1  0  0  0  0  0  0  0  0  0
   24.2455   70.8356   -3.2195 C   0  0  1  0  0  0  0  0  0  0  0  0
   27.1285   73.5273   -5.3548 H   0  0  0  0  0  0  0  0  0  0  0  0
   28.0457   71.9319   -5.7986 H   0  0  0  0  0  0  0  0  0  0  0  0
   24.1317   74.0370   -3.8829 H   0  0  0  0  0  0  0  0  0  0  0  0
   28.4044   69.3441   -3.3574 O   0  0  0  0  0  0  0  0  0  0  0  0
   27.2158   68.7151   -3.8002 C   0  0  0  0  0  0  0  0  0  0  0  0
   29.0650   68.6679   -3.1382 H   0  0  0  0  0  0  0  0  0  0  0  0
 25 28  1  0
 25 24  1  0
 25 26  1  1
 25 27  2  0
  1  4  1  0
  1 24  1  0
  1  2  1  1
  1  3  2  0
  6 11  1  0
  6 12  1  0
 29 36  1  0
 29 37  1  0
  9  7  1  6
  7 13  1  0
 10  8  1  6
  8 14  1  0
 37 28  1  6
  4  5  1  0
 33 30  1  1
 30 38  1  0
 34 31  1  6
 31 39  1  0
 35 32  1  6
 32 40  1  0
 41 42  1  0
 41 43  1  0
 15 19  2  0
 16 22  2  0
 12 17  1  1
 17 19  1  0
 17 20  1  0
 18 19  1  0
 18 22  1  0
 18 23  1  0
  9 10  1  0
  9 11  1  0
 10 12  1  0
 11  5  1  1
 33 34  1  0
 33 35  1  0
 34 36  1  0
 35 37  1  0
 36 42  1  1
 20 21  2  0
 21 22  1  0
M  CHG  2   2  -1  26  -1
M  END
>  <COMPND>  (180) 
    8629 

>  <AUTHOR>  (180) 
    GENERATED BY OPEN BABEL 3.1.1

>  <MASTER>  (180) 
        0    0    0    0    0    0    0    0   58    0   58    0

>  <minimizedAffinity>  (180) 
-6.30077

>  <CNNscore>  (180) 
0.2206560075

>  <CNNaffinity>  (180) 
3.8954892159

>  <CNN_VS>  (180) 
0.8595631123

>  <CNNaffinity_variance>  (180) 
0.0241702795

$$$$
181
     RDKit          3D

 43 45  0  0  0  0  0  0  0  0999 V2000
   31.4279   70.0938    0.2069 P   0  0  2  0  0  0  0  0  0  0  0  0
   32.0017   71.5489   -0.2068 O   0  0  0  0  0  0  0  0  0  0  0  0
   32.2025   69.3892    1.2816 O   0  0  0  0  0  0  0  0  0  0  0  0
   31.3081   69.3085   -1.2026 O   0  0  0  0  0  0  0  0  0  0  0  0
   30.0844   69.3785   -1.9137 C   0  0  0  0  0  0  0  0  0  0  0  0
   30.1097   69.7723   -4.2840 O   0  0  0  0  0  0  0  0  0  0  0  0
   29.5402   72.6414   -3.6243 O   0  0  0  0  0  0  0  0  0  0  0  0
   27.0870   71.7014   -4.3556 O   0  0  0  0  0  0  0  0  0  0  0  0
   29.0754   71.4576   -2.9779 C   0  0  1  0  0  0  0  0  0  0  0  0
   28.0152   70.7800   -3.8207 C   0  0  2  0  0  0  0  0  0  0  0  0
   30.2043   70.4347   -3.0038 C   0  0  1  0  0  0  0  0  0  0  0  0
   28.8509   70.1025   -4.8934 C   0  0  2  0  0  0  0  0  0  0  0  0
   28.8364   73.3097   -3.6198 H   0  0  0  0  0  0  0  0  0  0  0  0
   26.5800   72.1055   -3.6342 H   0  0  0  0  0  0  0  0  0  0  0  0
   26.9655   68.5677   -3.4555 O   0  0  0  0  0  0  0  0  0  0  0  0
   26.5778   65.5035   -6.8763 O   0  0  0  0  0  0  0  0  0  0  0  0
   28.2408   68.8992   -5.3845 N   0  0  0  0  0  0  0  0  0  0  0  0
   26.7739   67.0433   -5.1600 N   0  0  0  0  0  0  0  0  0  0  0  0
   27.3066   68.2030   -4.5826 C   0  0  0  0  0  0  0  0  0  0  0  0
   28.5698   68.4212   -6.6483 C   0  0  0  0  0  0  0  0  0  0  0  0
   28.0538   67.3130   -7.1839 C   0  0  0  0  0  0  0  0  0  0  0  0
   27.0702   66.5269   -6.4115 C   0  0  0  0  0  0  0  0  0  0  0  0
   26.1212   66.5416   -4.6195 H   0  0  0  0  0  0  0  0  0  0  0  0
   29.8866   70.4043    0.5821 O   0  0  0  0  0  0  0  0  0  0  0  0
   29.1367   71.7947    0.9245 P   0  0  2  0  0  0  0  0  0  0  0  0
   27.5798   71.3641    1.0150 O   0  0  0  0  0  0  0  0  0  0  0  0
   29.4174   72.9015   -0.0503 O   0  0  0  0  0  0  0  0  0  0  0  0
   29.5584   72.1219    2.4476 O   0  0  0  0  0  0  0  0  0  0  0  0
   30.8220   70.7968    3.9522 O   0  0  0  0  0  0  0  0  0  0  0  0
   28.2368   72.5661    6.6424 O   0  0  0  0  0  0  0  0  0  0  0  0
   30.9890   73.3837    6.5730 O   0  0  0  0  0  0  0  0  0  0  0  0
   27.2746   71.7531    4.0362 O   0  0  0  0  0  0  0  0  0  0  0  0
   29.0569   72.5024    5.4725 C   0  0  1  0  0  0  0  0  0  0  0  0
   30.4960   72.2227    5.9103 C   0  0  1  0  0  0  0  0  0  0  0  0
   28.5447   71.3863    4.5640 C   0  0  2  0  0  0  0  0  0  0  0  0
   31.3837   71.8767    4.7072 C   0  0  1  0  0  0  0  0  0  0  0  0
   29.5249   71.0881    3.4281 C   0  0  1  0  0  0  0  0  0  0  0  0
   28.5564   73.2732    7.2233 H   0  0  0  0  0  0  0  0  0  0  0  0
   30.4194   73.5916    7.3303 H   0  0  0  0  0  0  0  0  0  0  0  0
   26.6631   71.9390    4.7651 H   0  0  0  0  0  0  0  0  0  0  0  0
   32.6939   70.8335    6.4114 O   0  0  0  0  0  0  0  0  0  0  0  0
   32.7832   71.4409    5.1357 C   0  0  0  0  0  0  0  0  0  0  0  0
   33.5772   70.5508    6.6968 H   0  0  0  0  0  0  0  0  0  0  0  0
 25 28  1  0
 25 24  1  0
 25 26  1  1
 25 27  2  0
  1  4  1  0
  1 24  1  0
  1  2  1  6
  1  3  2  0
  6 11  1  0
  6 12  1  0
 29 36  1  0
 29 37  1  0
  9  7  1  6
  7 13  1  0
 10  8  1  6
  8 14  1  0
 37 28  1  6
  4  5  1  0
 33 30  1  1
 30 38  1  0
 34 31  1  6
 31 39  1  0
 35 32  1  6
 32 40  1  0
 41 42  1  0
 41 43  1  0
 15 19  2  0
 16 22  2  0
 12 17  1  1
 17 19  1  0
 17 20  1  0
 18 19  1  0
 18 22  1  0
 18 23  1  0
  9 10  1  0
  9 11  1  0
 10 12  1  0
 11  5  1  1
 33 34  1  0
 33 35  1  0
 34 36  1  0
 35 37  1  0
 36 42  1  1
 20 21  2  0
 21 22  1  0
M  CHG  2   2  -1  26  -1
M  END
>  <COMPND>  (181) 
    8629 

>  <AUTHOR>  (181) 
    GENERATED BY OPEN BABEL 3.1.1

>  <MASTER>  (181) 
        0    0    0    0    0    0    0    0   58    0   58    0

>  <minimizedAffinity>  (181) 
-7.28806

>  <CNNscore>  (181) 
0.8413362503

>  <CNNaffinity>  (181) 
4.5359048843

>  <CNN_VS>  (181) 
3.8162212372

>  <CNNaffinity_variance>  (181) 
0.0187207051

$$$$
182
     RDKit          3D

 43 45  0  0  0  0  0  0  0  0999 V2000
   25.8180   71.5182   -2.8063 P   0  0  2  0  0  0  0  0  0  0  0  0
   24.8921   71.8181   -1.5139 O   0  0  0  0  0  0  0  0  0  0  0  0
   25.2586   70.5100   -3.7665 O   0  0  0  0  0  0  0  0  0  0  0  0
   27.2634   71.1596   -2.1738 O   0  0  0  0  0  0  0  0  0  0  0  0
   27.9865   72.1849   -1.5152 C   0  0  0  0  0  0  0  0  0  0  0  0
   30.3020   72.5291   -0.9730 O   0  0  0  0  0  0  0  0  0  0  0  0
   30.9203   71.1329   -3.5536 O   0  0  0  0  0  0  0  0  0  0  0  0
   31.3400   69.1745   -1.7028 O   0  0  0  0  0  0  0  0  0  0  0  0
   29.8711   70.8809   -2.6203 C   0  0  1  0  0  0  0  0  0  0  0  0
   30.4191   70.1981   -1.3847 C   0  0  2  0  0  0  0  0  0  0  0  0
   29.4064   72.2209   -2.0636 C   0  0  1  0  0  0  0  0  0  0  0  0
   31.0656   71.3569   -0.6449 C   0  0  2  0  0  0  0  0  0  0  0  0
   31.2332   70.2917   -3.9229 H   0  0  0  0  0  0  0  0  0  0  0  0
   30.8807   68.4607   -2.1722 H   0  0  0  0  0  0  0  0  0  0  0  0
   33.0686   69.9977    0.8106 O   0  0  0  0  0  0  0  0  0  0  0  0
   30.9031   70.7156    4.8151 O   0  0  0  0  0  0  0  0  0  0  0  0
   31.0507   71.1741    0.7791 N   0  0  0  0  0  0  0  0  0  0  0  0
   31.9888   70.3564    2.8034 N   0  0  0  0  0  0  0  0  0  0  0  0
   32.1048   70.4755    1.4126 C   0  0  0  0  0  0  0  0  0  0  0  0
   29.9994   71.6852    1.5324 C   0  0  0  0  0  0  0  0  0  0  0  0
   29.9030   71.5620    2.8578 C   0  0  0  0  0  0  0  0  0  0  0  0
   30.9630   70.8458    3.5964 C   0  0  0  0  0  0  0  0  0  0  0  0
   32.7114   69.8732    3.2661 H   0  0  0  0  0  0  0  0  0  0  0  0
   26.0515   72.9889   -3.4352 O   0  0  0  0  0  0  0  0  0  0  0  0
   25.1806   73.8389   -4.4992 P   0  0  2  0  0  0  0  0  0  0  0  0
   25.5440   73.1450   -5.9148 O   0  0  0  0  0  0  0  0  0  0  0  0
   25.4275   75.3191   -4.4536 O   0  0  0  0  0  0  0  0  0  0  0  0
   23.6519   73.4067   -4.2138 O   0  0  0  0  0  0  0  0  0  0  0  0
   22.5420   71.6375   -5.3338 O   0  0  0  0  0  0  0  0  0  0  0  0
   19.2729   73.9811   -4.4002 O   0  0  0  0  0  0  0  0  0  0  0  0
   19.7040   71.5200   -2.9842 O   0  0  0  0  0  0  0  0  0  0  0  0
   21.7592   75.2259   -5.2055 O   0  0  0  0  0  0  0  0  0  0  0  0
   20.5624   73.3997   -4.1886 C   0  0  1  0  0  0  0  0  0  0  0  0
   20.4053   71.8779   -4.1717 C   0  0  1  0  0  0  0  0  0  0  0  0
   21.4959   73.8314   -5.3180 C   0  0  2  0  0  0  0  0  0  0  0  0
   21.7711   71.1796   -4.2168 C   0  0  1  0  0  0  0  0  0  0  0  0
   22.8058   73.0415   -5.3010 C   0  0  1  0  0  0  0  0  0  0  0  0
   18.6755   73.7113   -3.6862 H   0  0  0  0  0  0  0  0  0  0  0  0
   18.8436   71.9680   -2.9678 H   0  0  0  0  0  0  0  0  0  0  0  0
   20.9222   75.7148   -5.2178 H   0  0  0  0  0  0  0  0  0  0  0  0
   21.3240   69.1203   -3.0905 O   0  0  0  0  0  0  0  0  0  0  0  0
   21.6347   69.6653   -4.3597 C   0  0  0  0  0  0  0  0  0  0  0  0
   21.2339   68.1570   -3.1662 H   0  0  0  0  0  0  0  0  0  0  0  0
 25 28  1  0
 25 24  1  0
 25 26  1  6
 25 27  2  0
  1  4  1  0
  1 24  1  0
  1  2  1  1
  1  3  2  0
  6 11  1  0
  6 12  1  0
 29 36  1  0
 29 37  1  0
  9  7  1  6
  7 13  1  0
 10  8  1  6
  8 14  1  0
 37 28  1  1
  4  5  1  0
 33 30  1  6
 30 38  1  0
 34 31  1  1
 31 39  1  0
 35 32  1  1
 32 40  1  0
 41 42  1  0
 41 43  1  0
 15 19  2  0
 16 22  2  0
 12 17  1  1
 17 19  1  0
 17 20  1  0
 18 19  1  0
 18 22  1  0
 18 23  1  0
  9 10  1  0
  9 11  1  0
 10 12  1  0
 11  5  1  1
 33 34  1  0
 33 35  1  0
 34 36  1  0
 35 37  1  0
 36 42  1  6
 20 21  2  0
 21 22  1  0
M  CHG  2   2  -1  26  -1
M  END
>  <COMPND>  (182) 
    8629 

>  <AUTHOR>  (182) 
    GENERATED BY OPEN BABEL 3.1.1

>  <MASTER>  (182) 
        0    0    0    0    0    0    0    0   58    0   58    0

>  <minimizedAffinity>  (182) 
-6.17844

>  <CNNscore>  (182) 
0.6306032538

>  <CNNaffinity>  (182) 
4.0991153717

>  <CNN_VS>  (182) 
2.5849153996

>  <CNNaffinity_variance>  (182) 
0.0288489051

$$$$
183
     RDKit          3D

 43 45  0  0  0  0  0  0  0  0999 V2000
   24.8515   72.1425   -3.6568 P   0  0  2  0  0  0  0  0  0  0  0  0
   24.9415   73.7038   -3.2425 O   0  0  0  0  0  0  0  0  0  0  0  0
   24.3701   71.2254   -2.5712 O   0  0  0  0  0  0  0  0  0  0  0  0
   26.3186   71.8140   -4.2548 O   0  0  0  0  0  0  0  0  0  0  0  0
   27.4392   72.4821   -3.7018 C   0  0  0  0  0  0  0  0  0  0  0  0
   27.6218   70.2389   -2.8602 O   0  0  0  0  0  0  0  0  0  0  0  0
   30.0889   71.1740   -1.4355 O   0  0  0  0  0  0  0  0  0  0  0  0
   31.1116   69.8656   -3.5986 O   0  0  0  0  0  0  0  0  0  0  0  0
   29.5922   71.5479   -2.7195 C   0  0  1  0  0  0  0  0  0  0  0  0
   29.8227   70.4325   -3.7177 C   0  0  2  0  0  0  0  0  0  0  0  0
   28.0714   71.5936   -2.6392 C   0  0  1  0  0  0  0  0  0  0  0  0
   28.7180   69.4539   -3.3573 C   0  0  2  0  0  0  0  0  0  0  0  0
   31.0584   71.1384   -1.4619 H   0  0  0  0  0  0  0  0  0  0  0  0
   31.7793   70.5270   -3.8385 H   0  0  0  0  0  0  0  0  0  0  0  0
   26.8123   67.3731   -3.2276 O   0  0  0  0  0  0  0  0  0  0  0  0
   27.0781   66.5993   -7.7632 O   0  0  0  0  0  0  0  0  0  0  0  0
   28.2704   68.6921   -4.4890 N   0  0  0  0  0  0  0  0  0  0  0  0
   26.9461   66.9896   -5.4861 N   0  0  0  0  0  0  0  0  0  0  0  0
   27.3106   67.6678   -4.3159 C   0  0  0  0  0  0  0  0  0  0  0  0
   28.7820   68.9637   -5.7533 C   0  0  0  0  0  0  0  0  0  0  0  0
   28.4250   68.3069   -6.8589 C   0  0  0  0  0  0  0  0  0  0  0  0
   27.4270   67.2219   -6.7649 C   0  0  0  0  0  0  0  0  0  0  0  0
   26.2790   66.2716   -5.3897 H   0  0  0  0  0  0  0  0  0  0  0  0
   23.9189   72.1700   -4.9769 O   0  0  0  0  0  0  0  0  0  0  0  0
   22.3347   71.9080   -5.1631 P   0  0  2  0  0  0  0  0  0  0  0  0
   21.7003   72.4773   -3.7879 O   0  0  0  0  0  0  0  0  0  0  0  0
   21.9782   70.4813   -5.4654 O   0  0  0  0  0  0  0  0  0  0  0  0
   21.8756   72.9659   -6.2923 O   0  0  0  0  0  0  0  0  0  0  0  0
   20.4240   74.8392   -6.3058 O   0  0  0  0  0  0  0  0  0  0  0  0
   19.2958   73.1045   -9.8791 O   0  0  0  0  0  0  0  0  0  0  0  0
   20.8418   75.5247   -9.9036 O   0  0  0  0  0  0  0  0  0  0  0  0
   19.9181   71.4359   -7.5970 O   0  0  0  0  0  0  0  0  0  0  0  0
   20.2077   73.4771   -8.8423 C   0  0  1  0  0  0  0  0  0  0  0  0
   20.2144   75.0033   -8.7353 C   0  0  1  0  0  0  0  0  0  0  0  0
   19.7521   72.8480   -7.5270 C   0  0  2  0  0  0  0  0  0  0  0  0
   20.9596   75.4671   -7.4765 C   0  0  1  0  0  0  0  0  0  0  0  0
   20.5233   73.4140   -6.3332 C   0  0  1  0  0  0  0  0  0  0  0  0
   19.5796   73.5003  -10.7171 H   0  0  0  0  0  0  0  0  0  0  0  0
   20.3619   75.2240  -10.6913 H   0  0  0  0  0  0  0  0  0  0  0  0
   19.4249   71.0898   -8.3565 H   0  0  0  0  0  0  0  0  0  0  0  0
   19.9854   77.5030   -8.2608 O   0  0  0  0  0  0  0  0  0  0  0  0
   20.8438   76.9753   -7.2663 C   0  0  0  0  0  0  0  0  0  0  0  0
   19.9020   78.4621   -8.1393 H   0  0  0  0  0  0  0  0  0  0  0  0
 25 28  1  0
 25 24  1  0
 25 26  1  1
 25 27  2  0
  1  4  1  0
  1 24  1  0
  1  2  1  1
  1  3  2  0
  6 11  1  0
  6 12  1  0
 29 36  1  0
 29 37  1  0
  9  7  1  1
  7 13  1  0
 10  8  1  1
  8 14  1  0
 37 28  1  6
  4  5  1  0
 33 30  1  6
 30 38  1  0
 34 31  1  6
 31 39  1  0
 35 32  1  6
 32 40  1  0
 41 42  1  0
 41 43  1  0
 15 19  2  0
 16 22  2  0
 12 17  1  6
 17 19  1  0
 17 20  1  0
 18 19  1  0
 18 22  1  0
 18 23  1  0
  9 10  1  0
  9 11  1  0
 10 12  1  0
 11  5  1  6
 33 34  1  0
 33 35  1  0
 34 36  1  0
 35 37  1  0
 36 42  1  1
 20 21  2  0
 21 22  1  0
M  CHG  2   2  -1  26  -1
M  END
>  <COMPND>  (183) 
    8629 

>  <AUTHOR>  (183) 
    GENERATED BY OPEN BABEL 3.1.1

>  <MASTER>  (183) 
        0    0    0    0    0    0    0    0   58    0   58    0

>  <minimizedAffinity>  (183) 
-6.76513

>  <CNNscore>  (183) 
0.6272555590

>  <CNNaffinity>  (183) 
4.4933671951

>  <CNN_VS>  (183) 
2.8184895515

>  <CNNaffinity_variance>  (183) 
0.0247303881

$$$$
184
     RDKit          3D

 43 45  0  0  0  0  0  0  0  0999 V2000
   23.9988   73.1100   -5.0473 P   0  0  2  0  0  0  0  0  0  0  0  0
   25.0765   73.6117   -6.1447 O   0  0  0  0  0  0  0  0  0  0  0  0
   23.6011   74.1409   -4.0322 O   0  0  0  0  0  0  0  0  0  0  0  0
   24.6520   71.7542   -4.4531 O   0  0  0  0  0  0  0  0  0  0  0  0
   26.0573   71.5902   -4.5310 C   0  0  0  0  0  0  0  0  0  0  0  0
   26.9631   69.7245   -3.3176 O   0  0  0  0  0  0  0  0  0  0  0  0
   27.9023   71.7333   -1.2993 O   0  0  0  0  0  0  0  0  0  0  0  0
   30.1710   71.2131   -2.7204 O   0  0  0  0  0  0  0  0  0  0  0  0
   27.8244   71.8495   -2.7191 C   0  0  1  0  0  0  0  0  0  0  0  0
   28.9292   71.0467   -3.3738 C   0  0  2  0  0  0  0  0  0  0  0  0
   26.5759   71.1095   -3.1826 C   0  0  1  0  0  0  0  0  0  0  0  0
   28.3958   69.6284   -3.2634 C   0  0  2  0  0  0  0  0  0  0  0  0
   28.6919   72.1986   -0.9798 H   0  0  0  0  0  0  0  0  0  0  0  0
   30.4680   72.1311   -2.8190 H   0  0  0  0  0  0  0  0  0  0  0  0
   30.7508   68.0709   -3.1874 O   0  0  0  0  0  0  0  0  0  0  0  0
   30.0313   66.4445   -7.4392 O   0  0  0  0  0  0  0  0  0  0  0  0
   28.8477   68.7884   -4.3365 N   0  0  0  0  0  0  0  0  0  0  0  0
   30.3906   67.2622   -5.3045 N   0  0  0  0  0  0  0  0  0  0  0  0
   30.0447   68.0479   -4.1976 C   0  0  0  0  0  0  0  0  0  0  0  0
   28.1067   68.7046   -5.5102 C   0  0  0  0  0  0  0  0  0  0  0  0
   28.4508   67.9517   -6.5571 C   0  0  0  0  0  0  0  0  0  0  0  0
   29.6878   67.1468   -6.4933 C   0  0  0  0  0  0  0  0  0  0  0  0
   31.2208   66.7379   -5.2306 H   0  0  0  0  0  0  0  0  0  0  0  0
   22.7825   72.5584   -5.9580 O   0  0  0  0  0  0  0  0  0  0  0  0
   21.5172   71.6237   -5.5863 P   0  0  2  0  0  0  0  0  0  0  0  0
   20.9999   72.2405   -4.1829 O   0  0  0  0  0  0  0  0  0  0  0  0
   21.8290   70.1558   -5.5401 O   0  0  0  0  0  0  0  0  0  0  0  0
   20.3792   72.0325   -6.6553 O   0  0  0  0  0  0  0  0  0  0  0  0
   20.0353   71.0628   -8.7903 O   0  0  0  0  0  0  0  0  0  0  0  0
   18.7362   74.8996   -9.5913 O   0  0  0  0  0  0  0  0  0  0  0  0
   16.8222   72.7682   -9.3874 O   0  0  0  0  0  0  0  0  0  0  0  0
   21.0236   74.4800   -7.8675 O   0  0  0  0  0  0  0  0  0  0  0  0
   18.9296   73.7298   -8.7916 C   0  0  1  0  0  0  0  0  0  0  0  0
   18.2284   72.5571   -9.4798 C   0  0  1  0  0  0  0  0  0  0  0  0
   20.4269   73.4580   -8.6587 C   0  0  2  0  0  0  0  0  0  0  0  0
   18.6123   71.2221   -8.8276 C   0  0  1  0  0  0  0  0  0  0  0  0
   20.6990   72.0842   -8.0433 C   0  0  1  0  0  0  0  0  0  0  0  0
   17.7876   75.0781   -9.6792 H   0  0  0  0  0  0  0  0  0  0  0  0
   16.5932   73.6146   -9.8025 H   0  0  0  0  0  0  0  0  0  0  0  0
   20.8444   75.3446   -8.2678 H   0  0  0  0  0  0  0  0  0  0  0  0
   16.7267   69.7907   -9.1510 O   0  0  0  0  0  0  0  0  0  0  0  0
   18.0498   70.0278   -9.5954 C   0  0  0  0  0  0  0  0  0  0  0  0
   16.3558   69.0334   -9.6312 H   0  0  0  0  0  0  0  0  0  0  0  0
 25 28  1  0
 25 24  1  0
 25 26  1  1
 25 27  2  0
  1  4  1  0
  1 24  1  0
  1  2  1  6
  1  3  2  0
  6 11  1  0
  6 12  1  0
 29 36  1  0
 29 37  1  0
  9  7  1  1
  7 13  1  0
 10  8  1  1
  8 14  1  0
 37 28  1  1
  4  5  1  0
 33 30  1  6
 30 38  1  0
 34 31  1  1
 31 39  1  0
 35 32  1  1
 32 40  1  0
 41 42  1  0
 41 43  1  0
 15 19  2  0
 16 22  2  0
 12 17  1  6
 17 19  1  0
 17 20  1  0
 18 19  1  0
 18 22  1  0
 18 23  1  0
  9 10  1  0
  9 11  1  0
 10 12  1  0
 11  5  1  6
 33 34  1  0
 33 35  1  0
 34 36  1  0
 35 37  1  0
 36 42  1  6
 20 21  2  0
 21 22  1  0
M  CHG  2   2  -1  26  -1
M  END
>  <COMPND>  (184) 
    8629 

>  <AUTHOR>  (184) 
    GENERATED BY OPEN BABEL 3.1.1

>  <MASTER>  (184) 
        0    0    0    0    0    0    0    0   58    0   58    0

>  <minimizedAffinity>  (184) 
-7.66420

>  <CNNscore>  (184) 
0.5994897485

>  <CNNaffinity>  (184) 
4.4608106613

>  <CNN_VS>  (184) 
2.6742103100

>  <CNNaffinity_variance>  (184) 
0.0367638767

$$$$
185
     RDKit          3D

 43 45  0  0  0  0  0  0  0  0999 V2000
   23.4468   72.7509   -4.5421 P   0  0  2  0  0  0  0  0  0  0  0  0
   23.9373   74.2278   -4.0999 O   0  0  0  0  0  0  0  0  0  0  0  0
   22.6851   71.9955   -3.4930 O   0  0  0  0  0  0  0  0  0  0  0  0
   24.7960   72.0384   -5.0805 O   0  0  0  0  0  0  0  0  0  0  0  0
   26.0433   72.6433   -4.7869 C   0  0  0  0  0  0  0  0  0  0  0  0
   26.4251   70.6573   -3.4894 O   0  0  0  0  0  0  0  0  0  0  0  0
   28.2870   72.3236   -1.8319 O   0  0  0  0  0  0  0  0  0  0  0  0
   29.9998   70.9442   -3.4444 O   0  0  0  0  0  0  0  0  0  0  0  0
   28.0422   72.3710   -3.2365 C   0  0  1  0  0  0  0  0  0  0  0  0
   28.6934   71.1891   -3.9240 C   0  0  2  0  0  0  0  0  0  0  0  0
   26.5612   72.0950   -3.4643 C   0  0  1  0  0  0  0  0  0  0  0  0
   27.7289   70.0624   -3.5946 C   0  0  2  0  0  0  0  0  0  0  0  0
   29.2266   72.4972   -1.6616 H   0  0  0  0  0  0  0  0  0  0  0  0
   30.5753   71.6889   -3.6788 H   0  0  0  0  0  0  0  0  0  0  0  0
   26.3231   67.6219   -3.3807 O   0  0  0  0  0  0  0  0  0  0  0  0
   27.6879   66.2578   -7.5661 O   0  0  0  0  0  0  0  0  0  0  0  0
   27.6993   69.0513   -4.6135 N   0  0  0  0  0  0  0  0  0  0  0  0
   27.0036   66.9447   -5.4649 N   0  0  0  0  0  0  0  0  0  0  0  0
   26.9636   67.8612   -4.4064 C   0  0  0  0  0  0  0  0  0  0  0  0
   28.3942   69.2450   -5.8024 C   0  0  0  0  0  0  0  0  0  0  0  0
   28.4233   68.3607   -6.8016 C   0  0  0  0  0  0  0  0  0  0  0  0
   27.6807   67.0911   -6.6653 C   0  0  0  0  0  0  0  0  0  0  0  0
   26.4987   66.1081   -5.3429 H   0  0  0  0  0  0  0  0  0  0  0  0
   22.6187   73.0347   -5.9011 O   0  0  0  0  0  0  0  0  0  0  0  0
   21.3395   73.9806   -6.1868 P   0  0  2  0  0  0  0  0  0  0  0  0
   22.0084   75.3914   -6.6105 O   0  0  0  0  0  0  0  0  0  0  0  0
   20.3739   74.0724   -5.0408 O   0  0  0  0  0  0  0  0  0  0  0  0
   20.7027   73.4047   -7.5535 O   0  0  0  0  0  0  0  0  0  0  0  0
   20.2125   71.2066   -6.8153 O   0  0  0  0  0  0  0  0  0  0  0  0
   18.1513   71.1761  -10.3932 O   0  0  0  0  0  0  0  0  0  0  0  0
   16.6965   71.2895   -7.9197 O   0  0  0  0  0  0  0  0  0  0  0  0
   20.7131   72.5121  -10.2140 O   0  0  0  0  0  0  0  0  0  0  0  0
   18.6676   71.7554   -9.1919 C   0  0  1  0  0  0  0  0  0  0  0  0
   18.0869   70.9890   -8.0019 C   0  0  1  0  0  0  0  0  0  0  0  0
   20.1917   71.6548   -9.2041 C   0  0  2  0  0  0  0  0  0  0  0  0
   18.7949   71.3742   -6.6960 C   0  0  1  0  0  0  0  0  0  0  0  0
   20.7923   72.0121   -7.8433 C   0  0  1  0  0  0  0  0  0  0  0  0
   17.1840   71.2372  -10.3920 H   0  0  0  0  0  0  0  0  0  0  0  0
   16.2612   71.0419   -8.7506 H   0  0  0  0  0  0  0  0  0  0  0  0
   20.3255   72.2755  -11.0705 H   0  0  0  0  0  0  0  0  0  0  0  0
   17.8737   69.2727   -6.0298 O   0  0  0  0  0  0  0  0  0  0  0  0
   18.3407   70.5090   -5.5224 C   0  0  0  0  0  0  0  0  0  0  0  0
   17.5815   68.7115   -5.2940 H   0  0  0  0  0  0  0  0  0  0  0  0
 25 28  1  0
 25 24  1  0
 25 26  1  6
 25 27  2  0
  1  4  1  0
  1 24  1  0
  1  2  1  1
  1  3  2  0
  6 11  1  0
  6 12  1  0
 29 36  1  0
 29 37  1  0
  9  7  1  1
  7 13  1  0
 10  8  1  1
  8 14  1  0
 37 28  1  1
  4  5  1  0
 33 30  1  6
 30 38  1  0
 34 31  1  1
 31 39  1  0
 35 32  1  6
 32 40  1  0
 41 42  1  0
 41 43  1  0
 15 19  2  0
 16 22  2  0
 12 17  1  6
 17 19  1  0
 17 20  1  0
 18 19  1  0
 18 22  1  0
 18 23  1  0
  9 10  1  0
  9 11  1  0
 10 12  1  0
 11  5  1  6
 33 34  1  0
 33 35  1  0
 34 36  1  0
 35 37  1  0
 36 42  1  1
 20 21  2  0
 21 22  1  0
M  CHG  2   2  -1  26  -1
M  END
>  <COMPND>  (185) 
    8629 

>  <AUTHOR>  (185) 
    GENERATED BY OPEN BABEL 3.1.1

>  <MASTER>  (185) 
        0    0    0    0    0    0    0    0   58    0   58    0

>  <minimizedAffinity>  (185) 
-7.31571

>  <CNNscore>  (185) 
0.5687094331

>  <CNNaffinity>  (185) 
4.2766942978

>  <CNN_VS>  (185) 
2.4321963787

>  <CNNaffinity_variance>  (185) 
0.1761518419

$$$$
186
     RDKit          3D

 43 45  0  0  0  0  0  0  0  0999 V2000
   27.0193   72.1854   -1.6460 P   0  0  2  0  0  0  0  0  0  0  0  0
   27.7971   71.7872   -0.2844 O   0  0  0  0  0  0  0  0  0  0  0  0
   27.5338   73.4161   -2.3331 O   0  0  0  0  0  0  0  0  0  0  0  0
   25.4626   72.2247   -1.2068 O   0  0  0  0  0  0  0  0  0  0  0  0
   24.7479   73.4389   -1.3581 C   0  0  0  0  0  0  0  0  0  0  0  0
   23.4565   72.2190    0.2600 O   0  0  0  0  0  0  0  0  0  0  0  0
   21.5380   74.5223    0.1883 O   0  0  0  0  0  0  0  0  0  0  0  0
   22.9484   74.9944    2.4740 O   0  0  0  0  0  0  0  0  0  0  0  0
   22.9610   74.5300    0.0875 C   0  0  1  0  0  0  0  0  0  0  0  0
   23.5856   74.2689    1.4423 C   0  0  2  0  0  0  0  0  0  0  0  0
   23.3823   73.2957   -0.7001 C   0  0  1  0  0  0  0  0  0  0  0  0
   23.4072   72.7672    1.5873 C   0  0  2  0  0  0  0  0  0  0  0  0
   21.2451   75.3016    0.6872 H   0  0  0  0  0  0  0  0  0  0  0  0
   23.0907   75.9440    2.3373 H   0  0  0  0  0  0  0  0  0  0  0  0
   23.0755   70.4362    3.1476 O   0  0  0  0  0  0  0  0  0  0  0  0
   27.4533   70.5536    4.5839 O   0  0  0  0  0  0  0  0  0  0  0  0
   24.4437   72.1665    2.3787 N   0  0  0  0  0  0  0  0  0  0  0  0
   25.2556   70.4965    3.8614 N   0  0  0  0  0  0  0  0  0  0  0  0
   24.1731   70.9969    3.1267 C   0  0  0  0  0  0  0  0  0  0  0  0
   25.7120   72.7363    2.4074 C   0  0  0  0  0  0  0  0  0  0  0  0
   26.7331   72.2474    3.1142 C   0  0  0  0  0  0  0  0  0  0  0  0
   26.5342   71.0276    3.9232 C   0  0  0  0  0  0  0  0  0  0  0  0
   25.0905   69.6825    4.3905 H   0  0  0  0  0  0  0  0  0  0  0  0
   27.1141   70.8336   -2.5273 O   0  0  0  0  0  0  0  0  0  0  0  0
   26.2583   70.3377   -3.8058 P   0  0  2  0  0  0  0  0  0  0  0  0
   26.1238   71.6765   -4.7041 O   0  0  0  0  0  0  0  0  0  0  0  0
   24.9487   69.6920   -3.4567 O   0  0  0  0  0  0  0  0  0  0  0  0
   27.2709   69.3916   -4.6332 O   0  0  0  0  0  0  0  0  0  0  0  0
   27.0158   67.1154   -5.2416 O   0  0  0  0  0  0  0  0  0  0  0  0
   31.0987   67.1807   -4.6278 O   0  0  0  0  0  0  0  0  0  0  0  0
   30.0697   67.0052   -7.3033 O   0  0  0  0  0  0  0  0  0  0  0  0
   29.3521   68.6941   -2.8847 O   0  0  0  0  0  0  0  0  0  0  0  0
   29.8330   67.7111   -5.0303 C   0  0  1  0  0  0  0  0  0  0  0  0
   29.2699   66.8194   -6.1388 C   0  0  1  0  0  0  0  0  0  0  0  0
   28.8936   67.7295   -3.8259 C   0  0  2  0  0  0  0  0  0  0  0  0
   27.8044   67.1642   -6.4364 C   0  0  1  0  0  0  0  0  0  0  0  0
   27.4524   68.0343   -4.2382 C   0  0  1  0  0  0  0  0  0  0  0  0
   31.7000   67.1667   -5.3879 H   0  0  0  0  0  0  0  0  0  0  0  0
   30.9926   66.7845   -7.1018 H   0  0  0  0  0  0  0  0  0  0  0  0
   30.2653   68.4899   -2.6314 H   0  0  0  0  0  0  0  0  0  0  0  0
   26.6057   66.9253   -8.4894 O   0  0  0  0  0  0  0  0  0  0  0  0
   27.1761   66.1852   -7.4258 C   0  0  0  0  0  0  0  0  0  0  0  0
   26.2023   66.3152   -9.1272 H   0  0  0  0  0  0  0  0  0  0  0  0
 25 28  1  0
 25 24  1  0
 25 26  1  6
 25 27  2  0
  1  4  1  0
  1 24  1  0
  1  2  1  1
  1  3  2  0
  6 11  1  0
  6 12  1  0
 29 36  1  0
 29 37  1  0
  9  7  1  1
  7 13  1  0
 10  8  1  1
  8 14  1  0
 37 28  1  6
  4  5  1  0
 33 30  1  1
 30 38  1  0
 34 31  1  6
 31 39  1  0
 35 32  1  1
 32 40  1  0
 41 42  1  0
 41 43  1  0
 15 19  2  0
 16 22  2  0
 12 17  1  1
 17 19  1  0
 17 20  1  0
 18 19  1  0
 18 22  1  0
 18 23  1  0
  9 10  1  0
  9 11  1  0
 10 12  1  0
 11  5  1  1
 33 34  1  0
 33 35  1  0
 34 36  1  0
 35 37  1  0
 36 42  1  6
 20 21  2  0
 21 22  1  0
M  CHG  2   2  -1  26  -1
M  END
>  <COMPND>  (186) 
    8629 

>  <AUTHOR>  (186) 
    GENERATED BY OPEN BABEL 3.1.1

>  <MASTER>  (186) 
        0    0    0    0    0    0    0    0   58    0   58    0

>  <minimizedAffinity>  (186) 
-7.76036

>  <CNNscore>  (186) 
0.5575426817

>  <CNNaffinity>  (186) 
4.3005480766

>  <CNN_VS>  (186) 
2.3977391720

>  <CNNaffinity_variance>  (186) 
0.0381527916

$$$$
187
     RDKit          3D

 43 45  0  0  0  0  0  0  0  0999 V2000
   23.7112   70.8683   -3.6502 P   0  0  2  0  0  0  0  0  0  0  0  0
   23.9694   72.0317   -2.5560 O   0  0  0  0  0  0  0  0  0  0  0  0
   22.9467   69.6805   -3.1440 O   0  0  0  0  0  0  0  0  0  0  0  0
   25.1851   70.5559   -4.2401 O   0  0  0  0  0  0  0  0  0  0  0  0
   26.1722   71.5697   -4.1652 C   0  0  0  0  0  0  0  0  0  0  0  0
   27.5483   69.9584   -3.0322 O   0  0  0  0  0  0  0  0  0  0  0  0
   28.7244   72.2838   -1.5489 O   0  0  0  0  0  0  0  0  0  0  0  0
   30.6195   71.7650   -3.4400 O   0  0  0  0  0  0  0  0  0  0  0  0
   28.2890   72.2058   -2.9053 C   0  0  1  0  0  0  0  0  0  0  0  0
   29.2819   71.4152   -3.7316 C   0  0  2  0  0  0  0  0  0  0  0  0
   27.0549   71.3135   -2.9514 C   0  0  1  0  0  0  0  0  0  0  0  0
   28.9522   69.9855   -3.3372 C   0  0  2  0  0  0  0  0  0  0  0  0
   29.5116   72.8488   -1.4942 H   0  0  0  0  0  0  0  0  0  0  0  0
   30.7798   72.6830   -3.7091 H   0  0  0  0  0  0  0  0  0  0  0  0
   30.9514   67.9925   -3.2395 O   0  0  0  0  0  0  0  0  0  0  0  0
   29.8828   66.4557   -7.4511 O   0  0  0  0  0  0  0  0  0  0  0  0
   29.2180   69.0507   -4.3940 N   0  0  0  0  0  0  0  0  0  0  0  0
   30.4176   67.2288   -5.3365 N   0  0  0  0  0  0  0  0  0  0  0  0
   30.2453   68.0899   -4.2452 C   0  0  0  0  0  0  0  0  0  0  0  0
   28.4640   69.0921   -5.5617 C   0  0  0  0  0  0  0  0  0  0  0  0
   28.6418   68.2647   -6.5937 C   0  0  0  0  0  0  0  0  0  0  0  0
   29.6946   67.2313   -6.5189 C   0  0  0  0  0  0  0  0  0  0  0  0
   31.1278   66.5514   -5.2556 H   0  0  0  0  0  0  0  0  0  0  0  0
   22.9953   71.6622   -4.8627 O   0  0  0  0  0  0  0  0  0  0  0  0
   22.8880   73.2438   -5.1790 P   0  0  2  0  0  0  0  0  0  0  0  0
   24.2906   73.5708   -5.9161 O   0  0  0  0  0  0  0  0  0  0  0  0
   22.6084   74.0947   -3.9741 O   0  0  0  0  0  0  0  0  0  0  0  0
   21.7789   73.3525   -6.3465 O   0  0  0  0  0  0  0  0  0  0  0  0
   19.4601   72.8634   -6.3247 O   0  0  0  0  0  0  0  0  0  0  0  0
   20.3770   71.5436  -10.1284 O   0  0  0  0  0  0  0  0  0  0  0  0
   18.8805   73.9716   -9.7923 O   0  0  0  0  0  0  0  0  0  0  0  0
   22.2413   71.1024   -7.9583 O   0  0  0  0  0  0  0  0  0  0  0  0
   20.4844   72.3929   -8.9827 C   0  0  1  0  0  0  0  0  0  0  0  0
   19.1214   73.0434   -8.7385 C   0  0  1  0  0  0  0  0  0  0  0  0
   20.9035   71.5538   -7.7769 C   0  0  2  0  0  0  0  0  0  0  0  0
   19.0831   73.7558   -7.3797 C   0  0  1  0  0  0  0  0  0  0  0  0
   20.7822   72.3414   -6.4712 C   0  0  1  0  0  0  0  0  0  0  0  0
   20.1117   72.0703  -10.8976 H   0  0  0  0  0  0  0  0  0  0  0  0
   18.9079   73.5092  -10.6447 H   0  0  0  0  0  0  0  0  0  0  0  0
   22.3049   70.6050   -8.7881 H   0  0  0  0  0  0  0  0  0  0  0  0
   17.4784   75.4871   -7.7497 O   0  0  0  0  0  0  0  0  0  0  0  0
   17.6867   74.2763   -7.0461 C   0  0  0  0  0  0  0  0  0  0  0  0
   16.5935   75.8299   -7.5472 H   0  0  0  0  0  0  0  0  0  0  0  0
 25 28  1  0
 25 24  1  0
 25 26  1  6
 25 27  2  0
  1  4  1  0
  1 24  1  0
  1  2  1  1
  1  3  2  0
  6 11  1  0
  6 12  1  0
 29 36  1  0
 29 37  1  0
  9  7  1  1
  7 13  1  0
 10  8  1  1
  8 14  1  0
 37 28  1  6
  4  5  1  0
 33 30  1  6
 30 38  1  0
 34 31  1  6
 31 39  1  0
 35 32  1  6
 32 40  1  0
 41 42  1  0
 41 43  1  0
 15 19  2  0
 16 22  2  0
 12 17  1  6
 17 19  1  0
 17 20  1  0
 18 19  1  0
 18 22  1  0
 18 23  1  0
  9 10  1  0
  9 11  1  0
 10 12  1  0
 11  5  1  6
 33 34  1  0
 33 35  1  0
 34 36  1  0
 35 37  1  0
 36 42  1  1
 20 21  2  0
 21 22  1  0
M  CHG  2   2  -1  26  -1
M  END
>  <COMPND>  (187) 
    8629 

>  <AUTHOR>  (187) 
    GENERATED BY OPEN BABEL 3.1.1

>  <MASTER>  (187) 
        0    0    0    0    0    0    0    0   58    0   58    0

>  <minimizedAffinity>  (187) 
-7.04382

>  <CNNscore>  (187) 
0.5178536177

>  <CNNaffinity>  (187) 
4.3577299118

>  <CNN_VS>  (187) 
2.2566661835

>  <CNNaffinity_variance>  (187) 
0.0214082152

$$$$
188
     RDKit          3D

 43 45  0  0  0  0  0  0  0  0999 V2000
   24.6878   73.7100   -4.9798 P   0  0  2  0  0  0  0  0  0  0  0  0
   24.9609   74.6582   -6.2618 O   0  0  0  0  0  0  0  0  0  0  0  0
   24.0194   74.3886   -3.8204 O   0  0  0  0  0  0  0  0  0  0  0  0
   26.1323   73.0500   -4.6701 O   0  0  0  0  0  0  0  0  0  0  0  0
   26.2082   71.6479   -4.4800 C   0  0  0  0  0  0  0  0  0  0  0  0
   27.3992   69.9876   -3.2157 O   0  0  0  0  0  0  0  0  0  0  0  0
   28.5264   72.2712   -1.6329 O   0  0  0  0  0  0  0  0  0  0  0  0
   30.5700   71.6597   -3.3318 O   0  0  0  0  0  0  0  0  0  0  0  0
   28.2200   72.2024   -3.0245 C   0  0  1  0  0  0  0  0  0  0  0  0
   29.2526   71.3647   -3.7495 C   0  0  2  0  0  0  0  0  0  0  0  0
   26.9589   71.3629   -3.1864 C   0  0  1  0  0  0  0  0  0  0  0  0
   28.8258   69.9531   -3.3846 C   0  0  2  0  0  0  0  0  0  0  0  0
   29.3282   72.8028   -1.5044 H   0  0  0  0  0  0  0  0  0  0  0  0
   30.7944   72.5681   -3.5869 H   0  0  0  0  0  0  0  0  0  0  0  0
   30.8965   68.0424   -3.1865 O   0  0  0  0  0  0  0  0  0  0  0  0
   29.9848   66.3504   -7.3754 O   0  0  0  0  0  0  0  0  0  0  0  0
   29.1513   69.0006   -4.4084 N   0  0  0  0  0  0  0  0  0  0  0  0
   30.4407   67.2013   -5.2724 N   0  0  0  0  0  0  0  0  0  0  0  0
   30.2106   68.0847   -4.2099 C   0  0  0  0  0  0  0  0  0  0  0  0
   28.4234   68.9808   -5.5932 C   0  0  0  0  0  0  0  0  0  0  0  0
   28.6563   68.1329   -6.5972 C   0  0  0  0  0  0  0  0  0  0  0  0
   29.7457   67.1434   -6.4700 C   0  0  0  0  0  0  0  0  0  0  0  0
   31.1741   66.5544   -5.1567 H   0  0  0  0  0  0  0  0  0  0  0  0
   23.8530   72.4777   -5.6104 O   0  0  0  0  0  0  0  0  0  0  0  0
   22.2612   72.2161   -5.7130 P   0  0  2  0  0  0  0  0  0  0  0  0
   22.1638   70.8605   -6.5908 O   0  0  0  0  0  0  0  0  0  0  0  0
   21.4823   73.3722   -6.2706 O   0  0  0  0  0  0  0  0  0  0  0  0
   21.8236   71.7704   -4.2248 O   0  0  0  0  0  0  0  0  0  0  0  0
   19.7807   72.6942   -3.4567 O   0  0  0  0  0  0  0  0  0  0  0  0
   21.2742   71.3157    0.1377 O   0  0  0  0  0  0  0  0  0  0  0  0
   19.0709   69.9506   -1.0993 O   0  0  0  0  0  0  0  0  0  0  0  0
   23.0609   72.4930   -1.8119 O   0  0  0  0  0  0  0  0  0  0  0  0
   21.0450   71.2899   -1.2737 C   0  0  1  0  0  0  0  0  0  0  0  0
   19.5350   71.2326   -1.5133 C   0  0  1  0  0  0  0  0  0  0  0  0
   21.6412   72.5494   -1.8994 C   0  0  2  0  0  0  0  0  0  0  0  0
   19.1992   71.4705   -2.9918 C   0  0  1  0  0  0  0  0  0  0  0  0
   21.2060   72.7168   -3.3563 C   0  0  1  0  0  0  0  0  0  0  0  0
   20.8985   70.5184    0.5410 H   0  0  0  0  0  0  0  0  0  0  0  0
   19.2896   69.8127   -0.1642 H   0  0  0  0  0  0  0  0  0  0  0  0
   23.3237   72.3873   -0.8848 H   0  0  0  0  0  0  0  0  0  0  0  0
   17.1809   70.2717   -3.4369 O   0  0  0  0  0  0  0  0  0  0  0  0
   17.6939   71.5744   -3.2269 C   0  0  0  0  0  0  0  0  0  0  0  0
   16.2236   70.3223   -3.5876 H   0  0  0  0  0  0  0  0  0  0  0  0
 25 28  1  0
 25 24  1  0
 25 26  1  6
 25 27  2  0
  1  4  1  0
  1 24  1  0
  1  2  1  6
  1  3  2  0
  6 11  1  0
  6 12  1  0
 29 36  1  0
 29 37  1  0
  9  7  1  1
  7 13  1  0
 10  8  1  1
  8 14  1  0
 37 28  1  6
  4  5  1  0
 33 30  1  1
 30 38  1  0
 34 31  1  6
 31 39  1  0
 35 32  1  6
 32 40  1  0
 41 42  1  0
 41 43  1  0
 15 19  2  0
 16 22  2  0
 12 17  1  6
 17 19  1  0
 17 20  1  0
 18 19  1  0
 18 22  1  0
 18 23  1  0
  9 10  1  0
  9 11  1  0
 10 12  1  0
 11  5  1  6
 33 34  1  0
 33 35  1  0
 34 36  1  0
 35 37  1  0
 36 42  1  1
 20 21  2  0
 21 22  1  0
M  CHG  2   2  -1  26  -1
M  END
>  <COMPND>  (188) 
    8629 

>  <AUTHOR>  (188) 
    GENERATED BY OPEN BABEL 3.1.1

>  <MASTER>  (188) 
        0    0    0    0    0    0    0    0   58    0   58    0

>  <minimizedAffinity>  (188) 
-7.33521

>  <CNNscore>  (188) 
0.4710520804

>  <CNNaffinity>  (188) 
4.2517662048

>  <CNN_VS>  (188) 
2.0028033257

>  <CNNaffinity_variance>  (188) 
0.0801983029

$$$$
189
     RDKit          3D

 43 45  0  0  0  0  0  0  0  0999 V2000
   29.2024   73.9890   -2.4560 P   0  0  2  0  0  0  0  0  0  0  0  0
   28.4323   75.0858   -3.3623 O   0  0  0  0  0  0  0  0  0  0  0  0
   30.6519   74.2821   -2.2018 O   0  0  0  0  0  0  0  0  0  0  0  0
   28.8887   72.5846   -3.1957 O   0  0  0  0  0  0  0  0  0  0  0  0
   29.9625   71.6913   -3.4339 C   0  0  0  0  0  0  0  0  0  0  0  0
   28.8829   69.6684   -2.7157 O   0  0  0  0  0  0  0  0  0  0  0  0
   31.3219   69.1828   -1.0406 O   0  0  0  0  0  0  0  0  0  0  0  0
   31.7410   67.5538   -3.1870 O   0  0  0  0  0  0  0  0  0  0  0  0
   31.2198   69.7710   -2.3363 C   0  0  1  0  0  0  0  0  0  0  0  0
   30.9450   68.7057   -3.3771 C   0  0  2  0  0  0  0  0  0  0  0  0
   29.9386   70.5945   -2.3782 C   0  0  1  0  0  0  0  0  0  0  0  0
   29.4649   68.4347   -3.1675 C   0  0  2  0  0  0  0  0  0  0  0  0
   32.1328   68.6520   -0.9896 H   0  0  0  0  0  0  0  0  0  0  0  0
   32.6737   67.7776   -3.3315 H   0  0  0  0  0  0  0  0  0  0  0  0
   26.8589   67.3508   -3.2756 O   0  0  0  0  0  0  0  0  0  0  0  0
   27.0426   66.8909   -7.8577 O   0  0  0  0  0  0  0  0  0  0  0  0
   28.8069   68.0235   -4.3755 N   0  0  0  0  0  0  0  0  0  0  0  0
   26.9524   67.1229   -5.5570 N   0  0  0  0  0  0  0  0  0  0  0  0
   27.4979   67.4907   -4.3205 C   0  0  0  0  0  0  0  0  0  0  0  0
   29.4587   68.1505   -5.5973 C   0  0  0  0  0  0  0  0  0  0  0  0
   28.9251   67.7938   -6.7675 C   0  0  0  0  0  0  0  0  0  0  0  0
   27.5608   67.2284   -6.7978 C   0  0  0  0  0  0  0  0  0  0  0  0
   26.0415   66.7489   -5.5432 H   0  0  0  0  0  0  0  0  0  0  0  0
   28.2883   73.9108   -1.1251 O   0  0  0  0  0  0  0  0  0  0  0  0
   26.9991   73.0008   -0.7748 P   0  0  2  0  0  0  0  0  0  0  0  0
   26.2398   73.8577    0.3684 O   0  0  0  0  0  0  0  0  0  0  0  0
   27.3304   71.5921   -0.3752 O   0  0  0  0  0  0  0  0  0  0  0  0
   26.0486   73.1217   -2.0736 O   0  0  0  0  0  0  0  0  0  0  0  0
   24.5223   71.3143   -2.2153 O   0  0  0  0  0  0  0  0  0  0  0  0
   23.8915   73.0033   -5.9301 O   0  0  0  0  0  0  0  0  0  0  0  0
   21.8858   73.2704   -3.8920 O   0  0  0  0  0  0  0  0  0  0  0  0
   26.5646   72.9054   -4.8235 O   0  0  0  0  0  0  0  0  0  0  0  0
   24.1762   73.0068   -4.5286 C   0  0  1  0  0  0  0  0  0  0  0  0
   22.9904   72.3753   -3.7967 C   0  0  1  0  0  0  0  0  0  0  0  0
   25.4521   72.2056   -4.2765 C   0  0  2  0  0  0  0  0  0  0  0  0
   23.3300   72.1004   -2.3256 C   0  0  1  0  0  0  0  0  0  0  0  0
   25.6705   71.9460   -2.7848 C   0  0  1  0  0  0  0  0  0  0  0  0
   23.0827   73.5108   -6.0971 H   0  0  0  0  0  0  0  0  0  0  0  0
   21.6819   73.4361   -4.8259 H   0  0  0  0  0  0  0  0  0  0  0  0
   26.4143   73.0634   -5.7682 H   0  0  0  0  0  0  0  0  0  0  0  0
   21.1818   72.2335   -1.2880 O   0  0  0  0  0  0  0  0  0  0  0  0
   22.2193   71.3282   -1.6169 C   0  0  0  0  0  0  0  0  0  0  0  0
   20.4678   71.7559   -0.8366 H   0  0  0  0  0  0  0  0  0  0  0  0
 25 28  1  0
 25 24  1  0
 25 26  1  1
 25 27  2  0
  1  4  1  0
  1 24  1  0
  1  2  1  6
  1  3  2  0
  6 11  1  0
  6 12  1  0
 29 36  1  0
 29 37  1  0
  9  7  1  1
  7 13  1  0
 10  8  1  1
  8 14  1  0
 37 28  1  1
  4  5  1  0
 33 30  1  6
 30 38  1  0
 34 31  1  1
 31 39  1  0
 35 32  1  1
 32 40  1  0
 41 42  1  0
 41 43  1  0
 15 19  2  0
 16 22  2  0
 12 17  1  6
 17 19  1  0
 17 20  1  0
 18 19  1  0
 18 22  1  0
 18 23  1  0
  9 10  1  0
  9 11  1  0
 10 12  1  0
 11  5  1  6
 33 34  1  0
 33 35  1  0
 34 36  1  0
 35 37  1  0
 36 42  1  6
 20 21  2  0
 21 22  1  0
M  CHG  2   2  -1  26  -1
M  END
>  <COMPND>  (189) 
    8629 

>  <AUTHOR>  (189) 
    GENERATED BY OPEN BABEL 3.1.1

>  <MASTER>  (189) 
        0    0    0    0    0    0    0    0   58    0   58    0

>  <minimizedAffinity>  (189) 
-7.17915

>  <CNNscore>  (189) 
0.4523689449

>  <CNNaffinity>  (189) 
4.2055001259

>  <CNN_VS>  (189) 
1.9024376869

>  <CNNaffinity_variance>  (189) 
0.5782015324

$$$$
190
     RDKit          3D

 43 45  0  0  0  0  0  0  0  0999 V2000
   24.0638   72.3724   -3.1876 P   0  0  2  0  0  0  0  0  0  0  0  0
   22.6157   72.5370   -3.8899 O   0  0  0  0  0  0  0  0  0  0  0  0
   24.8445   73.6451   -3.0391 O   0  0  0  0  0  0  0  0  0  0  0  0
   24.7815   71.2041   -4.0466 O   0  0  0  0  0  0  0  0  0  0  0  0
   26.1631   71.3287   -4.3354 C   0  0  0  0  0  0  0  0  0  0  0  0
   27.3550   69.5804   -3.1967 O   0  0  0  0  0  0  0  0  0  0  0  0
   28.6340   71.7597   -1.5826 O   0  0  0  0  0  0  0  0  0  0  0  0
   30.5723   71.1519   -3.4020 O   0  0  0  0  0  0  0  0  0  0  0  0
   28.2596   71.7577   -2.9593 C   0  0  1  0  0  0  0  0  0  0  0  0
   29.2272   70.9172   -3.7661 C   0  0  2  0  0  0  0  0  0  0  0  0
   26.9641   70.9670   -3.0921 C   0  0  1  0  0  0  0  0  0  0  0  0
   28.7699   69.5065   -3.4363 C   0  0  2  0  0  0  0  0  0  0  0  0
   29.4588   72.2593   -1.4727 H   0  0  0  0  0  0  0  0  0  0  0  0
   30.8155   72.0622   -3.6319 H   0  0  0  0  0  0  0  0  0  0  0  0
   31.1562   68.0316   -3.7648 O   0  0  0  0  0  0  0  0  0  0  0  0
   29.5934   66.0075   -7.5991 O   0  0  0  0  0  0  0  0  0  0  0  0
   29.0134   68.5865   -4.5113 N   0  0  0  0  0  0  0  0  0  0  0  0
   30.3760   67.0248   -5.6736 N   0  0  0  0  0  0  0  0  0  0  0  0
   30.2460   67.8968   -4.5851 C   0  0  0  0  0  0  0  0  0  0  0  0
   28.0358   68.3754   -5.4776 C   0  0  0  0  0  0  0  0  0  0  0  0
   28.1760   67.5414   -6.5101 C   0  0  0  0  0  0  0  0  0  0  0  0
   29.4340   66.7820   -6.6606 C   0  0  0  0  0  0  0  0  0  0  0  0
   31.2266   66.5338   -5.7457 H   0  0  0  0  0  0  0  0  0  0  0  0
   23.7101   71.6337   -1.7940 O   0  0  0  0  0  0  0  0  0  0  0  0
   22.9356   72.1642   -0.4781 P   0  0  2  0  0  0  0  0  0  0  0  0
   21.6003   71.2514   -0.4402 O   0  0  0  0  0  0  0  0  0  0  0  0
   22.6753   73.6428   -0.4715 O   0  0  0  0  0  0  0  0  0  0  0  0
   23.8256   71.6361    0.7605 O   0  0  0  0  0  0  0  0  0  0  0  0
   24.0810   72.8923    2.7538 O   0  0  0  0  0  0  0  0  0  0  0  0
   27.5322   70.6337    2.9505 O   0  0  0  0  0  0  0  0  0  0  0  0
   25.3590   70.0610    4.7386 O   0  0  0  0  0  0  0  0  0  0  0  0
   26.6084   71.6397    0.3982 O   0  0  0  0  0  0  0  0  0  0  0  0
   26.1594   70.8914    2.6432 C   0  0  1  0  0  0  0  0  0  0  0  0
   25.4343   71.2415    3.9441 C   0  0  1  0  0  0  0  0  0  0  0  0
   26.0788   72.0522    1.6535 C   0  0  2  0  0  0  0  0  0  0  0  0
   24.0278   71.7880    3.6645 C   0  0  1  0  0  0  0  0  0  0  0  0
   24.6429   72.5519    1.4848 C   0  0  1  0  0  0  0  0  0  0  0  0
   27.5904   69.8973    3.5781 H   0  0  0  0  0  0  0  0  0  0  0  0
   26.2536   69.7259    4.9075 H   0  0  0  0  0  0  0  0  0  0  0  0
   27.5178   71.3259    0.5184 H   0  0  0  0  0  0  0  0  0  0  0  0
   24.3473   72.6558    5.8677 O   0  0  0  0  0  0  0  0  0  0  0  0
   23.3464   72.2905    4.9355 C   0  0  0  0  0  0  0  0  0  0  0  0
   23.9283   72.9778    6.6816 H   0  0  0  0  0  0  0  0  0  0  0  0
 25 28  1  0
 25 24  1  0
 25 26  1  1
 25 27  2  0
  1  4  1  0
  1 24  1  0
  1  2  1  6
  1  3  2  0
  6 11  1  0
  6 12  1  0
 29 36  1  0
 29 37  1  0
  9  7  1  1
  7 13  1  0
 10  8  1  1
  8 14  1  0
 37 28  1  1
  4  5  1  0
 33 30  1  1
 30 38  1  0
 34 31  1  1
 31 39  1  0
 35 32  1  6
 32 40  1  0
 41 42  1  0
 41 43  1  0
 15 19  2  0
 16 22  2  0
 12 17  1  6
 17 19  1  0
 17 20  1  0
 18 19  1  0
 18 22  1  0
 18 23  1  0
  9 10  1  0
  9 11  1  0
 10 12  1  0
 11  5  1  6
 33 34  1  0
 33 35  1  0
 34 36  1  0
 35 37  1  0
 36 42  1  1
 20 21  2  0
 21 22  1  0
M  CHG  2   2  -1  26  -1
M  END
>  <COMPND>  (190) 
    8629 

>  <AUTHOR>  (190) 
    GENERATED BY OPEN BABEL 3.1.1

>  <MASTER>  (190) 
        0    0    0    0    0    0    0    0   58    0   58    0

>  <minimizedAffinity>  (190) 
-6.77559

>  <CNNscore>  (190) 
0.4300534129

>  <CNNaffinity>  (190) 
4.1704111099

>  <CNN_VS>  (190) 
1.7934995890

>  <CNNaffinity_variance>  (190) 
0.0590990894

$$$$
191
     RDKit          3D

 43 45  0  0  0  0  0  0  0  0999 V2000
   24.3072   73.2427   -4.7855 P   0  0  2  0  0  0  0  0  0  0  0  0
   25.3964   73.4728   -5.9594 O   0  0  0  0  0  0  0  0  0  0  0  0
   23.7876   74.4978   -4.1481 O   0  0  0  0  0  0  0  0  0  0  0  0
   25.0284   72.1939   -3.7865 O   0  0  0  0  0  0  0  0  0  0  0  0
   26.2512   71.6046   -4.1930 C   0  0  0  0  0  0  0  0  0  0  0  0
   27.5883   69.9884   -3.0208 O   0  0  0  0  0  0  0  0  0  0  0  0
   28.7738   72.3152   -1.5473 O   0  0  0  0  0  0  0  0  0  0  0  0
   30.6895   71.7487   -3.4036 O   0  0  0  0  0  0  0  0  0  0  0  0
   28.3576   72.2270   -2.9090 C   0  0  1  0  0  0  0  0  0  0  0  0
   29.3517   71.4134   -3.7111 C   0  0  2  0  0  0  0  0  0  0  0  0
   27.1123   71.3509   -2.9633 C   0  0  1  0  0  0  0  0  0  0  0  0
   28.9968   69.9930   -3.3050 C   0  0  2  0  0  0  0  0  0  0  0  0
   29.5677   72.8703   -1.4874 H   0  0  0  0  0  0  0  0  0  0  0  0
   30.8663   72.6611   -3.6809 H   0  0  0  0  0  0  0  0  0  0  0  0
   31.0037   68.0097   -3.1766 O   0  0  0  0  0  0  0  0  0  0  0  0
   29.9382   66.4007   -7.3620 O   0  0  0  0  0  0  0  0  0  0  0  0
   29.2655   69.0423   -4.3468 N   0  0  0  0  0  0  0  0  0  0  0  0
   30.4714   67.2100   -5.2606 N   0  0  0  0  0  0  0  0  0  0  0  0
   30.2965   68.0880   -4.1833 C   0  0  0  0  0  0  0  0  0  0  0  0
   28.5105   69.0619   -5.5145 C   0  0  0  0  0  0  0  0  0  0  0  0
   28.6907   68.2186   -6.5331 C   0  0  0  0  0  0  0  0  0  0  0  0
   29.7476   67.1906   -6.4423 C   0  0  0  0  0  0  0  0  0  0  0  0
   31.1843   66.5368   -5.1693 H   0  0  0  0  0  0  0  0  0  0  0  0
   23.1790   72.3386   -5.5086 O   0  0  0  0  0  0  0  0  0  0  0  0
   22.0597   71.3467   -4.8952 P   0  0  2  0  0  0  0  0  0  0  0  0
   21.3206   72.2626   -3.7851 O   0  0  0  0  0  0  0  0  0  0  0  0
   22.6076   70.0531   -4.3657 O   0  0  0  0  0  0  0  0  0  0  0  0
   20.9716   71.1790   -6.0754 O   0  0  0  0  0  0  0  0  0  0  0  0
   19.8771   73.1323   -6.8519 O   0  0  0  0  0  0  0  0  0  0  0  0
   17.2546   70.2884   -8.2959 O   0  0  0  0  0  0  0  0  0  0  0  0
   18.9678   71.6946  -10.1222 O   0  0  0  0  0  0  0  0  0  0  0  0
   18.4859   69.9316   -5.7005 O   0  0  0  0  0  0  0  0  0  0  0  0
   18.5336   70.8195   -7.9390 C   0  0  1  0  0  0  0  0  0  0  0  0
   18.7752   72.0843   -8.7653 C   0  0  1  0  0  0  0  0  0  0  0  0
   18.5408   71.1430   -6.4461 C   0  0  2  0  0  0  0  0  0  0  0  0
   19.9984   72.8560   -8.2521 C   0  0  1  0  0  0  0  0  0  0  0  0
   19.7758   71.9540   -6.0499 C   0  0  1  0  0  0  0  0  0  0  0  0
   17.2435   70.0804   -9.2425 H   0  0  0  0  0  0  0  0  0  0  0  0
   18.1886   71.2079  -10.4338 H   0  0  0  0  0  0  0  0  0  0  0  0
   17.6996   69.4275   -5.9603 H   0  0  0  0  0  0  0  0  0  0  0  0
   18.9662   74.4942   -9.6521 O   0  0  0  0  0  0  0  0  0  0  0  0
   20.1650   74.1993   -8.9591 C   0  0  0  0  0  0  0  0  0  0  0  0
   19.0575   75.3467  -10.1066 H   0  0  0  0  0  0  0  0  0  0  0  0
 25 28  1  0
 25 24  1  0
 25 26  1  1
 25 27  2  0
  1  4  1  0
  1 24  1  0
  1  2  1  6
  1  3  2  0
  6 11  1  0
  6 12  1  0
 29 36  1  0
 29 37  1  0
  9  7  1  1
  7 13  1  0
 10  8  1  1
  8 14  1  0
 37 28  1  6
  4  5  1  0
 33 30  1  6
 30 38  1  0
 34 31  1  6
 31 39  1  0
 35 32  1  1
 32 40  1  0
 41 42  1  0
 41 43  1  0
 15 19  2  0
 16 22  2  0
 12 17  1  6
 17 19  1  0
 17 20  1  0
 18 19  1  0
 18 22  1  0
 18 23  1  0
  9 10  1  0
  9 11  1  0
 10 12  1  0
 11  5  1  6
 33 34  1  0
 33 35  1  0
 34 36  1  0
 35 37  1  0
 36 42  1  6
 20 21  2  0
 21 22  1  0
M  CHG  2   2  -1  26  -1
M  END
>  <COMPND>  (191) 
    8629 

>  <AUTHOR>  (191) 
    GENERATED BY OPEN BABEL 3.1.1

>  <MASTER>  (191) 
        0    0    0    0    0    0    0    0   58    0   58    0

>  <minimizedAffinity>  (191) 
-7.49626

>  <CNNscore>  (191) 
0.4277500808

>  <CNNaffinity>  (191) 
4.2811799049

>  <CNN_VS>  (191) 
1.8312751055

>  <CNNaffinity_variance>  (191) 
0.0261540301

$$$$
192
     RDKit          3D

 43 45  0  0  0  0  0  0  0  0999 V2000
   23.8714   71.6688   -3.2301 P   0  0  2  0  0  0  0  0  0  0  0  0
   24.2231   73.2478   -3.2531 O   0  0  0  0  0  0  0  0  0  0  0  0
   23.6437   71.0901   -1.8645 O   0  0  0  0  0  0  0  0  0  0  0  0
   25.0637   70.9927   -4.0898 O   0  0  0  0  0  0  0  0  0  0  0  0
   26.2972   71.6823   -4.1938 C   0  0  0  0  0  0  0  0  0  0  0  0
   27.5884   70.0291   -3.0217 O   0  0  0  0  0  0  0  0  0  0  0  0
   28.7782   72.3155   -1.4896 O   0  0  0  0  0  0  0  0  0  0  0  0
   30.7211   71.7499   -3.3176 O   0  0  0  0  0  0  0  0  0  0  0  0
   28.3871   72.2543   -2.8603 C   0  0  1  0  0  0  0  0  0  0  0  0
   29.3849   71.4388   -3.6558 C   0  0  2  0  0  0  0  0  0  0  0  0
   27.1307   71.3973   -2.9519 C   0  0  1  0  0  0  0  0  0  0  0  0
   29.0021   70.0177   -3.2789 C   0  0  2  0  0  0  0  0  0  0  0  0
   29.5786   72.8580   -1.4058 H   0  0  0  0  0  0  0  0  0  0  0  0
   30.9161   72.6639   -3.5772 H   0  0  0  0  0  0  0  0  0  0  0  0
   30.9027   67.9358   -3.1022 O   0  0  0  0  0  0  0  0  0  0  0  0
   29.9745   66.4783   -7.3748 O   0  0  0  0  0  0  0  0  0  0  0  0
   29.2773   69.0792   -4.3300 N   0  0  0  0  0  0  0  0  0  0  0  0
   30.4389   67.2117   -5.2297 N   0  0  0  0  0  0  0  0  0  0  0  0
   30.2519   68.0720   -4.1403 C   0  0  0  0  0  0  0  0  0  0  0  0
   28.5841   69.1629   -5.5327 C   0  0  0  0  0  0  0  0  0  0  0  0
   28.7751   68.3355   -6.5624 C   0  0  0  0  0  0  0  0  0  0  0  0
   29.7757   67.2551   -6.4459 C   0  0  0  0  0  0  0  0  0  0  0  0
   31.1132   66.5023   -5.1205 H   0  0  0  0  0  0  0  0  0  0  0  0
   22.6018   71.5647   -4.2251 O   0  0  0  0  0  0  0  0  0  0  0  0
   21.7174   72.7127   -4.9413 P   0  0  2  0  0  0  0  0  0  0  0  0
   22.7098   73.2878   -6.0823 O   0  0  0  0  0  0  0  0  0  0  0  0
   21.1845   73.7550   -4.0013 O   0  0  0  0  0  0  0  0  0  0  0  0
   20.5829   71.9050   -5.7571 O   0  0  0  0  0  0  0  0  0  0  0  0
   18.7208   72.7801   -6.9332 O   0  0  0  0  0  0  0  0  0  0  0  0
   17.0584   69.2414   -5.6047 O   0  0  0  0  0  0  0  0  0  0  0  0
   17.7237   69.5406   -8.3824 O   0  0  0  0  0  0  0  0  0  0  0  0
   18.8526   70.7283   -3.8872 O   0  0  0  0  0  0  0  0  0  0  0  0
   18.1044   70.0898   -6.0858 C   0  0  1  0  0  0  0  0  0  0  0  0
   17.6941   70.6253   -7.4590 C   0  0  1  0  0  0  0  0  0  0  0  0
   18.3088   71.2385   -5.0999 C   0  0  2  0  0  0  0  0  0  0  0  0
   18.6357   71.7458   -7.9205 C   0  0  1  0  0  0  0  0  0  0  0  0
   19.2223   72.3217   -5.6762 C   0  0  1  0  0  0  0  0  0  0  0  0
   16.9239   68.5097   -6.2260 H   0  0  0  0  0  0  0  0  0  0  0  0
   17.1254   68.8397   -8.0791 H   0  0  0  0  0  0  0  0  0  0  0  0
   18.2650   70.0437   -3.5323 H   0  0  0  0  0  0  0  0  0  0  0  0
   19.1912   73.2258   -9.7122 O   0  0  0  0  0  0  0  0  0  0  0  0
   18.1541   72.4015   -9.2130 C   0  0  0  0  0  0  0  0  0  0  0  0
   18.8989   73.6495  -10.5349 H   0  0  0  0  0  0  0  0  0  0  0  0
 25 28  1  0
 25 24  1  0
 25 26  1  6
 25 27  2  0
  1  4  1  0
  1 24  1  0
  1  2  1  1
  1  3  2  0
  6 11  1  0
  6 12  1  0
 29 36  1  0
 29 37  1  0
  9  7  1  1
  7 13  1  0
 10  8  1  1
  8 14  1  0
 37 28  1  6
  4  5  1  0
 33 30  1  1
 30 38  1  0
 34 31  1  6
 31 39  1  0
 35 32  1  1
 32 40  1  0
 41 42  1  0
 41 43  1  0
 15 19  2  0
 16 22  2  0
 12 17  1  6
 17 19  1  0
 17 20  1  0
 18 19  1  0
 18 22  1  0
 18 23  1  0
  9 10  1  0
  9 11  1  0
 10 12  1  0
 11  5  1  6
 33 34  1  0
 33 35  1  0
 34 36  1  0
 35 37  1  0
 36 42  1  6
 20 21  2  0
 21 22  1  0
M  CHG  2   2  -1  26  -1
M  END
>  <COMPND>  (192) 
    8629 

>  <AUTHOR>  (192) 
    GENERATED BY OPEN BABEL 3.1.1

>  <MASTER>  (192) 
        0    0    0    0    0    0    0    0   58    0   58    0

>  <minimizedAffinity>  (192) 
-7.05799

>  <CNNscore>  (192) 
0.4230293036

>  <CNNaffinity>  (192) 
4.3347687721

>  <CNN_VS>  (192) 
1.8337342739

>  <CNNaffinity_variance>  (192) 
0.0565298982

$$$$
193
     RDKit          3D

 43 45  0  0  0  0  0  0  0  0999 V2000
   21.7021   71.5911   -6.5294 P   0  0  2  0  0  0  0  0  0  0  0  0
   22.7338   72.6936   -5.9483 O   0  0  0  0  0  0  0  0  0  0  0  0
   21.9838   71.1365   -7.9314 O   0  0  0  0  0  0  0  0  0  0  0  0
   20.2467   72.2542   -6.2849 O   0  0  0  0  0  0  0  0  0  0  0  0
   19.2014   71.4303   -5.7988 C   0  0  0  0  0  0  0  0  0  0  0  0
   17.8329   69.5844   -6.5015 O   0  0  0  0  0  0  0  0  0  0  0  0
   17.2042   71.2197   -8.9349 O   0  0  0  0  0  0  0  0  0  0  0  0
   14.9840   71.5731   -7.3914 O   0  0  0  0  0  0  0  0  0  0  0  0
   17.4062   71.6464   -7.5887 C   0  0  1  0  0  0  0  0  0  0  0  0
   16.2047   71.2902   -6.7382 C   0  0  2  0  0  0  0  0  0  0  0  0
   18.4971   70.7749   -6.9789 C   0  0  1  0  0  0  0  0  0  0  0  0
   16.4127   69.8033   -6.5061 C   0  0  2  0  0  0  0  0  0  0  0  0
   16.5119   71.7621   -9.3454 H   0  0  0  0  0  0  0  0  0  0  0  0
   14.8983   72.5312   -7.5160 H   0  0  0  0  0  0  0  0  0  0  0  0
   14.9363   67.4211   -6.1547 O   0  0  0  0  0  0  0  0  0  0  0  0
   14.3746   68.2176   -1.6501 O   0  0  0  0  0  0  0  0  0  0  0  0
   15.8690   69.3634   -5.2522 N   0  0  0  0  0  0  0  0  0  0  0  0
   14.6579   67.8195   -3.9120 N   0  0  0  0  0  0  0  0  0  0  0  0
   15.1422   68.1520   -5.1836 C   0  0  0  0  0  0  0  0  0  0  0  0
   16.0590   70.1299   -4.1075 C   0  0  0  0  0  0  0  0  0  0  0  0
   15.5896   69.7995   -2.9026 C   0  0  0  0  0  0  0  0  0  0  0  0
   14.8194   68.5489   -2.7447 C   0  0  0  0  0  0  0  0  0  0  0  0
   14.1482   66.9800   -3.8402 H   0  0  0  0  0  0  0  0  0  0  0  0
   21.7588   70.4189   -5.4179 O   0  0  0  0  0  0  0  0  0  0  0  0
   22.4309   70.3810   -3.9483 P   0  0  2  0  0  0  0  0  0  0  0  0
   22.0229   68.9179   -3.3913 O   0  0  0  0  0  0  0  0  0  0  0  0
   22.0248   71.5185   -3.0565 O   0  0  0  0  0  0  0  0  0  0  0  0
   24.0176   70.2832   -4.2271 O   0  0  0  0  0  0  0  0  0  0  0  0
   25.7493   68.9906   -3.2541 O   0  0  0  0  0  0  0  0  0  0  0  0
   27.7464   72.5840   -3.6419 O   0  0  0  0  0  0  0  0  0  0  0  0
   28.4126   70.3968   -5.3798 O   0  0  0  0  0  0  0  0  0  0  0  0
   24.9543   72.5589   -2.8784 O   0  0  0  0  0  0  0  0  0  0  0  0
   26.8242   71.5584   -4.0203 C   0  0  1  0  0  0  0  0  0  0  0  0
   27.6062   70.2577   -4.2133 C   0  0  1  0  0  0  0  0  0  0  0  0
   25.7771   71.3979   -2.9197 C   0  0  2  0  0  0  0  0  0  0  0  0
   26.6596   69.0584   -4.3579 C   0  0  1  0  0  0  0  0  0  0  0  0
   24.9207   70.1484   -3.1328 C   0  0  1  0  0  0  0  0  0  0  0  0
   28.4137   72.6913   -4.3367 H   0  0  0  0  0  0  0  0  0  0  0  0
   29.0053   71.1577   -5.2758 H   0  0  0  0  0  0  0  0  0  0  0  0
   25.5081   73.3429   -2.7428 H   0  0  0  0  0  0  0  0  0  0  0  0
   28.5052   67.8128   -3.4912 O   0  0  0  0  0  0  0  0  0  0  0  0
   27.4172   67.7329   -4.3935 C   0  0  0  0  0  0  0  0  0  0  0  0
   28.9964   66.9759   -3.5030 H   0  0  0  0  0  0  0  0  0  0  0  0
 25 28  1  0
 25 24  1  0
 25 26  1  1
 25 27  2  0
  1  4  1  0
  1 24  1  0
  1  2  1  1
  1  3  2  0
  6 11  1  0
  6 12  1  0
 29 36  1  0
 29 37  1  0
  9  7  1  6
  7 13  1  0
 10  8  1  6
  8 14  1  0
 37 28  1  6
  4  5  1  0
 33 30  1  1
 30 38  1  0
 34 31  1  6
 31 39  1  0
 35 32  1  6
 32 40  1  0
 41 42  1  0
 41 43  1  0
 15 19  2  0
 16 22  2  0
 12 17  1  1
 17 19  1  0
 17 20  1  0
 18 19  1  0
 18 22  1  0
 18 23  1  0
  9 10  1  0
  9 11  1  0
 10 12  1  0
 11  5  1  1
 33 34  1  0
 33 35  1  0
 34 36  1  0
 35 37  1  0
 36 42  1  1
 20 21  2  0
 21 22  1  0
M  CHG  2   2  -1  26  -1
M  END
>  <COMPND>  (193) 
    8629 

>  <AUTHOR>  (193) 
    GENERATED BY OPEN BABEL 3.1.1

>  <MASTER>  (193) 
        0    0    0    0    0    0    0    0   58    0   58    0

>  <minimizedAffinity>  (193) 
-6.84737

>  <CNNscore>  (193) 
0.3908200562

>  <CNNaffinity>  (193) 
4.2187623978

>  <CNN_VS>  (193) 
1.6487770081

>  <CNNaffinity_variance>  (193) 
0.0095153274

$$$$
194
     RDKit          3D

 43 45  0  0  0  0  0  0  0  0999 V2000
   26.7233   71.9852   -2.9635 P   0  0  2  0  0  0  0  0  0  0  0  0
   26.8863   70.8568   -4.1113 O   0  0  0  0  0  0  0  0  0  0  0  0
   26.4977   73.3787   -3.4721 O   0  0  0  0  0  0  0  0  0  0  0  0
   28.0288   71.7808   -2.0298 O   0  0  0  0  0  0  0  0  0  0  0  0
   28.9034   72.8795   -1.8405 C   0  0  0  0  0  0  0  0  0  0  0  0
   31.1630   72.6082   -1.0695 O   0  0  0  0  0  0  0  0  0  0  0  0
   31.5727   70.8558   -3.4679 O   0  0  0  0  0  0  0  0  0  0  0  0
   31.2448   69.0436   -1.4566 O   0  0  0  0  0  0  0  0  0  0  0  0
   30.4184   70.9991   -2.6418 C   0  0  1  0  0  0  0  0  0  0  0  0
   30.6357   70.3103   -1.3106 C   0  0  2  0  0  0  0  0  0  0  0  0
   30.3150   72.4622   -2.2297 C   0  0  1  0  0  0  0  0  0  0  0  0
   31.5231   71.3052   -0.5822 C   0  0  2  0  0  0  0  0  0  0  0  0
   31.6595   69.9294   -3.7439 H   0  0  0  0  0  0  0  0  0  0  0  0
   30.6412   68.4466   -1.9257 H   0  0  0  0  0  0  0  0  0  0  0  0
   32.9124   69.5823    1.1726 O   0  0  0  0  0  0  0  0  0  0  0  0
   30.7077   71.2577    4.8568 O   0  0  0  0  0  0  0  0  0  0  0  0
   31.3321   71.2703    0.8404 N   0  0  0  0  0  0  0  0  0  0  0  0
   31.8136   70.4180    3.0056 N   0  0  0  0  0  0  0  0  0  0  0  0
   32.0796   70.3669    1.6313 C   0  0  0  0  0  0  0  0  0  0  0  0
   30.4124   72.1256    1.4373 C   0  0  0  0  0  0  0  0  0  0  0  0
   30.1695   72.1611    2.7492 C   0  0  0  0  0  0  0  0  0  0  0  0
   30.9084   71.2492    3.6462 C   0  0  0  0  0  0  0  0  0  0  0  0
   32.3223   69.7973    3.5764 H   0  0  0  0  0  0  0  0  0  0  0  0
   25.5264   71.4014   -2.0473 O   0  0  0  0  0  0  0  0  0  0  0  0
   24.2543   72.1335   -1.3699 P   0  0  2  0  0  0  0  0  0  0  0  0
   23.0045   71.2249   -1.8495 O   0  0  0  0  0  0  0  0  0  0  0  0
   24.1283   73.5899   -1.7119 O   0  0  0  0  0  0  0  0  0  0  0  0
   24.3992   71.8271    0.2081 O   0  0  0  0  0  0  0  0  0  0  0  0
   24.3403   73.3359    2.0348 O   0  0  0  0  0  0  0  0  0  0  0  0
   27.1109   70.6432    3.4921 O   0  0  0  0  0  0  0  0  0  0  0  0
   24.4667   70.7027    4.6114 O   0  0  0  0  0  0  0  0  0  0  0  0
   27.1233   71.3510    0.6853 O   0  0  0  0  0  0  0  0  0  0  0  0
   25.9484   71.0524    2.7666 C   0  0  1  0  0  0  0  0  0  0  0  0
   24.9788   71.7139    3.7480 C   0  0  1  0  0  0  0  0  0  0  0  0
   26.3625   72.0365    1.6742 C   0  0  2  0  0  0  0  0  0  0  0  0
   23.8322   72.4144    3.0066 C   0  0  1  0  0  0  0  0  0  0  0  0
   25.1491   72.7137    1.0345 C   0  0  1  0  0  0  0  0  0  0  0  0
   26.8550   70.0178    4.1871 H   0  0  0  0  0  0  0  0  0  0  0  0
   25.2009   70.2679    5.0731 H   0  0  0  0  0  0  0  0  0  0  0  0
   27.8886   70.9269    1.1028 H   0  0  0  0  0  0  0  0  0  0  0  0
   22.2906   72.3086    4.8290 O   0  0  0  0  0  0  0  0  0  0  0  0
   22.9411   73.2131    3.9554 C   0  0  0  0  0  0  0  0  0  0  0  0
   21.7202   72.8029    5.4389 H   0  0  0  0  0  0  0  0  0  0  0  0
 25 28  1  0
 25 24  1  0
 25 26  1  6
 25 27  2  0
  1  4  1  0
  1 24  1  0
  1  2  1  6
  1  3  2  0
  6 11  1  0
  6 12  1  0
 29 36  1  0
 29 37  1  0
  9  7  1  6
  7 13  1  0
 10  8  1  6
  8 14  1  0
 37 28  1  1
  4  5  1  0
 33 30  1  1
 30 38  1  0
 34 31  1  1
 31 39  1  0
 35 32  1  6
 32 40  1  0
 41 42  1  0
 41 43  1  0
 15 19  2  0
 16 22  2  0
 12 17  1  1
 17 19  1  0
 17 20  1  0
 18 19  1  0
 18 22  1  0
 18 23  1  0
  9 10  1  0
  9 11  1  0
 10 12  1  0
 11  5  1  1
 33 34  1  0
 33 35  1  0
 34 36  1  0
 35 37  1  0
 36 42  1  1
 20 21  2  0
 21 22  1  0
M  CHG  2   2  -1  26  -1
M  END
>  <COMPND>  (194) 
    8629 

>  <AUTHOR>  (194) 
    GENERATED BY OPEN BABEL 3.1.1

>  <MASTER>  (194) 
        0    0    0    0    0    0    0    0   58    0   58    0

>  <minimizedAffinity>  (194) 
-6.15236

>  <CNNscore>  (194) 
0.3852355182

>  <CNNaffinity>  (194) 
3.6639449596

>  <CNN_VS>  (194) 
1.4114817381

>  <CNNaffinity_variance>  (194) 
0.7610105872

$$$$
195
     RDKit          3D

 43 45  0  0  0  0  0  0  0  0999 V2000
   15.2442   69.4895   -4.7455 P   0  0  2  0  0  0  0  0  0  0  0  0
   14.3861   70.8317   -5.0274 O   0  0  0  0  0  0  0  0  0  0  0  0
   15.2151   68.4748   -5.8505 O   0  0  0  0  0  0  0  0  0  0  0  0
   14.7051   68.9785   -3.3081 O   0  0  0  0  0  0  0  0  0  0  0  0
   13.3291   68.6682   -3.1735 C   0  0  0  0  0  0  0  0  0  0  0  0
   14.0132   66.8181   -1.8013 O   0  0  0  0  0  0  0  0  0  0  0  0
   11.6029   65.3832   -2.8607 O   0  0  0  0  0  0  0  0  0  0  0  0
   10.7719   66.2010   -0.3955 O   0  0  0  0  0  0  0  0  0  0  0  0
   11.7631   66.7647   -2.5429 C   0  0  1  0  0  0  0  0  0  0  0  0
   11.7730   66.9610   -1.0412 C   0  0  2  0  0  0  0  0  0  0  0  0
   13.1799   67.1732   -2.9264 C   0  0  1  0  0  0  0  0  0  0  0  0
   13.1768   66.5111   -0.6739 C   0  0  2  0  0  0  0  0  0  0  0  0
   10.7052   65.0993   -2.6249 H   0  0  0  0  0  0  0  0  0  0  0  0
    9.8974   66.5255   -0.6615 H   0  0  0  0  0  0  0  0  0  0  0  0
   12.5917   65.7836    1.9919 O   0  0  0  0  0  0  0  0  0  0  0  0
   15.1820   69.1986    3.6856 O   0  0  0  0  0  0  0  0  0  0  0  0
   13.6851   67.1925    0.4831 N   0  0  0  0  0  0  0  0  0  0  0  0
   13.8821   67.4845    2.8331 N   0  0  0  0  0  0  0  0  0  0  0  0
   13.3297   66.7475    1.7778 C   0  0  0  0  0  0  0  0  0  0  0  0
   14.5265   68.2888    0.3277 C   0  0  0  0  0  0  0  0  0  0  0  0
   15.0439   68.9815    1.3444 C   0  0  0  0  0  0  0  0  0  0  0  0
   14.7221   68.5819    2.7296 C   0  0  0  0  0  0  0  0  0  0  0  0
   13.6481   67.1930    3.7441 H   0  0  0  0  0  0  0  0  0  0  0  0
   16.7147   70.0643   -4.3986 O   0  0  0  0  0  0  0  0  0  0  0  0
   17.6358   71.1527   -5.1600 P   0  0  2  0  0  0  0  0  0  0  0  0
   19.1298   70.7938   -4.6534 O   0  0  0  0  0  0  0  0  0  0  0  0
   17.2273   72.5779   -4.9234 O   0  0  0  0  0  0  0  0  0  0  0  0
   17.6102   70.6978   -6.7084 O   0  0  0  0  0  0  0  0  0  0  0  0
   18.0196   72.5587   -8.1177 O   0  0  0  0  0  0  0  0  0  0  0  0
   17.0477   69.7564  -10.9906 O   0  0  0  0  0  0  0  0  0  0  0  0
   19.7764   70.6044  -10.7030 O   0  0  0  0  0  0  0  0  0  0  0  0
   15.6219   69.7961   -8.4716 O   0  0  0  0  0  0  0  0  0  0  0  0
   17.6118   70.2199   -9.7609 C   0  0  1  0  0  0  0  0  0  0  0  0
   18.6767   71.2689  -10.0871 C   0  0  1  0  0  0  0  0  0  0  0  0
   16.5046   70.8270   -8.9013 C   0  0  2  0  0  0  0  0  0  0  0  0
   19.1372   72.0032   -8.8207 C   0  0  1  0  0  0  0  0  0  0  0  0
   17.0729   71.5756   -7.6943 C   0  0  1  0  0  0  0  0  0  0  0  0
   17.7454   69.3693  -11.5409 H   0  0  0  0  0  0  0  0  0  0  0  0
   19.4720   70.1444  -11.5010 H   0  0  0  0  0  0  0  0  0  0  0  0
   15.2687   69.3300   -9.2448 H   0  0  0  0  0  0  0  0  0  0  0  0
   20.9530   73.3466   -8.0414 O   0  0  0  0  0  0  0  0  0  0  0  0
   20.0818   73.1595   -9.1415 C   0  0  0  0  0  0  0  0  0  0  0  0
   21.5602   74.0793   -8.2316 H   0  0  0  0  0  0  0  0  0  0  0  0
 25 28  1  0
 25 24  1  0
 25 26  1  1
 25 27  2  0
  1  4  1  0
  1 24  1  0
  1  2  1  6
  1  3  2  0
  6 11  1  0
  6 12  1  0
 29 36  1  0
 29 37  1  0
  9  7  1  1
  7 13  1  0
 10  8  1  1
  8 14  1  0
 37 28  1  1
  4  5  1  0
 33 30  1  6
 30 38  1  0
 34 31  1  1
 31 39  1  0
 35 32  1  1
 32 40  1  0
 41 42  1  0
 41 43  1  0
 15 19  2  0
 16 22  2  0
 12 17  1  1
 17 19  1  0
 17 20  1  0
 18 19  1  0
 18 22  1  0
 18 23  1  0
  9 10  1  0
  9 11  1  0
 10 12  1  0
 11  5  1  1
 33 34  1  0
 33 35  1  0
 34 36  1  0
 35 37  1  0
 36 42  1  6
 20 21  2  0
 21 22  1  0
M  CHG  2   2  -1  26  -1
M  END
>  <COMPND>  (195) 
    8629 

>  <AUTHOR>  (195) 
    GENERATED BY OPEN BABEL 3.1.1

>  <MASTER>  (195) 
        0    0    0    0    0    0    0    0   58    0   58    0

>  <minimizedAffinity>  (195) 
-6.29007

>  <CNNscore>  (195) 
0.3835445046

>  <CNNaffinity>  (195) 
3.8221879005

>  <CNN_VS>  (195) 
1.4659792185

>  <CNNaffinity_variance>  (195) 
0.1957167685

$$$$
196
     RDKit          3D

 43 45  0  0  0  0  0  0  0  0999 V2000
   24.8000   73.5296   -4.8351 P   0  0  2  0  0  0  0  0  0  0  0  0
   25.0762   74.2076   -6.2778 O   0  0  0  0  0  0  0  0  0  0  0  0
   24.1759   74.4380   -3.8169 O   0  0  0  0  0  0  0  0  0  0  0  0
   26.2295   72.8920   -4.4255 O   0  0  0  0  0  0  0  0  0  0  0  0
   26.3827   71.4844   -4.4807 C   0  0  0  0  0  0  0  0  0  0  0  0
   27.2788   69.5950   -3.2970 O   0  0  0  0  0  0  0  0  0  0  0  0
   28.4044   71.5829   -1.3547 O   0  0  0  0  0  0  0  0  0  0  0  0
   30.5704   70.9598   -2.8898 O   0  0  0  0  0  0  0  0  0  0  0  0
   28.2543   71.6893   -2.7695 C   0  0  1  0  0  0  0  0  0  0  0  0
   29.2895   70.8372   -3.4736 C   0  0  2  0  0  0  0  0  0  0  0  0
   26.9543   70.9955   -3.1569 C   0  0  1  0  0  0  0  0  0  0  0  0
   28.7075   69.4424   -3.3189 C   0  0  2  0  0  0  0  0  0  0  0  0
   29.2278   72.0192   -1.0834 H   0  0  0  0  0  0  0  0  0  0  0  0
   30.8976   71.8643   -3.0146 H   0  0  0  0  0  0  0  0  0  0  0  0
   31.0091   67.8056   -3.3594 O   0  0  0  0  0  0  0  0  0  0  0  0
   29.9873   66.1574   -7.5403 O   0  0  0  0  0  0  0  0  0  0  0  0
   29.0672   68.5752   -4.4052 N   0  0  0  0  0  0  0  0  0  0  0  0
   30.4983   66.9861   -5.4411 N   0  0  0  0  0  0  0  0  0  0  0  0
   30.2446   67.7956   -4.3264 C   0  0  0  0  0  0  0  0  0  0  0  0
   28.2562   68.5038   -5.5326 C   0  0  0  0  0  0  0  0  0  0  0  0
   28.5129   67.7279   -6.5877 C   0  0  0  0  0  0  0  0  0  0  0  0
   29.7236   66.8816   -6.5854 C   0  0  0  0  0  0  0  0  0  0  0  0
   31.3134   66.4344   -5.4087 H   0  0  0  0  0  0  0  0  0  0  0  0
   23.9155   72.2290   -5.2082 O   0  0  0  0  0  0  0  0  0  0  0  0
   22.3402   72.0750   -5.5363 P   0  0  2  0  0  0  0  0  0  0  0  0
   22.2148   70.5439   -6.0437 O   0  0  0  0  0  0  0  0  0  0  0  0
   21.8108   73.0934   -6.5040 O   0  0  0  0  0  0  0  0  0  0  0  0
   21.6192   72.0862   -4.0923 O   0  0  0  0  0  0  0  0  0  0  0  0
   22.6026   72.2296   -1.9408 O   0  0  0  0  0  0  0  0  0  0  0  0
   19.4149   69.7621   -1.0461 O   0  0  0  0  0  0  0  0  0  0  0  0
   19.3900   72.4912   -0.1522 O   0  0  0  0  0  0  0  0  0  0  0  0
   20.8230   69.4493   -3.5559 O   0  0  0  0  0  0  0  0  0  0  0  0
   20.0883   70.8273   -1.7221 C   0  0  1  0  0  0  0  0  0  0  0  0
   20.5470   71.8452   -0.6760 C   0  0  1  0  0  0  0  0  0  0  0  0
   21.2863   70.2589   -2.4805 C   0  0  2  0  0  0  0  0  0  0  0  0
   21.5036   72.8768   -1.2889 C   0  0  1  0  0  0  0  0  0  0  0  0
   22.1994   71.3676   -3.0068 C   0  0  1  0  0  0  0  0  0  0  0  0
   18.6529   70.1162   -0.5629 H   0  0  0  0  0  0  0  0  0  0  0  0
   18.7940   71.8288    0.2313 H   0  0  0  0  0  0  0  0  0  0  0  0
   20.2463   68.7511   -3.2096 H   0  0  0  0  0  0  0  0  0  0  0  0
   22.0249   73.1594    1.0257 O   0  0  0  0  0  0  0  0  0  0  0  0
   22.0965   73.8059   -0.2318 C   0  0  0  0  0  0  0  0  0  0  0  0
   22.3990   73.7389    1.7083 H   0  0  0  0  0  0  0  0  0  0  0  0
 25 28  1  0
 25 24  1  0
 25 26  1  6
 25 27  2  0
  1  4  1  0
  1 24  1  0
  1  2  1  6
  1  3  2  0
  6 11  1  0
  6 12  1  0
 29 36  1  0
 29 37  1  0
  9  7  1  1
  7 13  1  0
 10  8  1  1
  8 14  1  0
 37 28  1  6
  4  5  1  0
 33 30  1  1
 30 38  1  0
 34 31  1  6
 31 39  1  0
 35 32  1  6
 32 40  1  0
 41 42  1  0
 41 43  1  0
 15 19  2  0
 16 22  2  0
 12 17  1  6
 17 19  1  0
 17 20  1  0
 18 19  1  0
 18 22  1  0
 18 23  1  0
  9 10  1  0
  9 11  1  0
 10 12  1  0
 11  5  1  6
 33 34  1  0
 33 35  1  0
 34 36  1  0
 35 37  1  0
 36 42  1  1
 20 21  2  0
 21 22  1  0
M  CHG  2   2  -1  26  -1
M  END
>  <COMPND>  (196) 
    8629 

>  <AUTHOR>  (196) 
    GENERATED BY OPEN BABEL 3.1.1

>  <MASTER>  (196) 
        0    0    0    0    0    0    0    0   58    0   58    0

>  <minimizedAffinity>  (196) 
-7.34229

>  <CNNscore>  (196) 
0.3667384982

>  <CNNaffinity>  (196) 
4.2015924454

>  <CNN_VS>  (196) 
1.5408856869

>  <CNNaffinity_variance>  (196) 
0.0642870516

$$$$
197
     RDKit          3D

 43 45  0  0  0  0  0  0  0  0999 V2000
   21.9687   73.1720   -5.7017 P   0  0  2  0  0  0  0  0  0  0  0  0
   22.6174   74.6518   -5.7848 O   0  0  0  0  0  0  0  0  0  0  0  0
   21.0719   72.9385   -4.5216 O   0  0  0  0  0  0  0  0  0  0  0  0
   23.2428   72.1821   -5.8227 O   0  0  0  0  0  0  0  0  0  0  0  0
   24.3788   72.4406   -5.0162 C   0  0  0  0  0  0  0  0  0  0  0  0
   24.7399   70.3155   -3.9544 O   0  0  0  0  0  0  0  0  0  0  0  0
   24.5404   71.7925   -1.3525 O   0  0  0  0  0  0  0  0  0  0  0  0
   27.2329   71.4855   -1.6569 O   0  0  0  0  0  0  0  0  0  0  0  0
   25.1102   72.2171   -2.5896 C   0  0  1  0  0  0  0  0  0  0  0  0
   26.4362   71.5237   -2.8233 C   0  0  2  0  0  0  0  0  0  0  0  0
   24.2542   71.6551   -3.7179 C   0  0  1  0  0  0  0  0  0  0  0  0
   25.9941   70.1422   -3.2748 C   0  0  2  0  0  0  0  0  0  0  0  0
   25.0698   72.1395   -0.6169 H   0  0  0  0  0  0  0  0  0  0  0  0
   27.4887   72.3880   -1.4101 H   0  0  0  0  0  0  0  0  0  0  0  0
   26.5589   67.3761   -3.3625 O   0  0  0  0  0  0  0  0  0  0  0  0
   29.6132   67.9216   -6.7706 O   0  0  0  0  0  0  0  0  0  0  0  0
   26.9323   69.5340   -4.1755 N   0  0  0  0  0  0  0  0  0  0  0  0
   28.0791   67.6499   -5.0595 N   0  0  0  0  0  0  0  0  0  0  0  0
   27.1432   68.1360   -4.1376 C   0  0  0  0  0  0  0  0  0  0  0  0
   27.6315   70.3216   -5.0836 C   0  0  0  0  0  0  0  0  0  0  0  0
   28.5215   69.8428   -5.9553 C   0  0  0  0  0  0  0  0  0  0  0  0
   28.8003   68.3925   -5.9810 C   0  0  0  0  0  0  0  0  0  0  0  0
   28.2427   66.6789   -5.0511 H   0  0  0  0  0  0  0  0  0  0  0  0
   21.2457   73.0109   -7.1385 O   0  0  0  0  0  0  0  0  0  0  0  0
   20.0913   73.8904   -7.8505 P   0  0  2  0  0  0  0  0  0  0  0  0
   20.9261   74.8961   -8.8039 O   0  0  0  0  0  0  0  0  0  0  0  0
   19.1604   74.5753   -6.8922 O   0  0  0  0  0  0  0  0  0  0  0  0
   19.3691   72.8681   -8.8695 O   0  0  0  0  0  0  0  0  0  0  0  0
   18.2916   71.2623   -7.4994 O   0  0  0  0  0  0  0  0  0  0  0  0
   17.2414   69.7777  -11.2067 O   0  0  0  0  0  0  0  0  0  0  0  0
   15.2563   71.0696   -9.5824 O   0  0  0  0  0  0  0  0  0  0  0  0
   19.8820   70.8886  -10.7913 O   0  0  0  0  0  0  0  0  0  0  0  0
   17.5376   70.7960  -10.2471 C   0  0  1  0  0  0  0  0  0  0  0  0
   16.5366   70.6761   -9.0963 C   0  0  1  0  0  0  0  0  0  0  0  0
   18.9655   70.6038   -9.7399 C   0  0  2  0  0  0  0  0  0  0  0  0
   16.9504   71.5551   -7.9083 C   0  0  1  0  0  0  0  0  0  0  0  0
   19.2581   71.4891   -8.5271 C   0  0  1  0  0  0  0  0  0  0  0  0
   16.3362   69.8944  -11.5331 H   0  0  0  0  0  0  0  0  0  0  0  0
   15.0070   70.5071  -10.3325 H   0  0  0  0  0  0  0  0  0  0  0  0
   19.6865   70.3216  -11.5529 H   0  0  0  0  0  0  0  0  0  0  0  0
   15.3089   70.1454   -6.8949 O   0  0  0  0  0  0  0  0  0  0  0  0
   16.0544   71.3317   -6.6920 C   0  0  0  0  0  0  0  0  0  0  0  0
   14.7343   69.9903   -6.1285 H   0  0  0  0  0  0  0  0  0  0  0  0
 25 28  1  0
 25 24  1  0
 25 26  1  6
 25 27  2  0
  1  4  1  0
  1 24  1  0
  1  2  1  1
  1  3  2  0
  6 11  1  0
  6 12  1  0
 29 36  1  0
 29 37  1  0
  9  7  1  1
  7 13  1  0
 10  8  1  1
  8 14  1  0
 37 28  1  6
  4  5  1  0
 33 30  1  6
 30 38  1  0
 34 31  1  6
 31 39  1  0
 35 32  1  6
 32 40  1  0
 41 42  1  0
 41 43  1  0
 15 19  2  0
 16 22  2  0
 12 17  1  6
 17 19  1  0
 17 20  1  0
 18 19  1  0
 18 22  1  0
 18 23  1  0
  9 10  1  0
  9 11  1  0
 10 12  1  0
 11  5  1  6
 33 34  1  0
 33 35  1  0
 34 36  1  0
 35 37  1  0
 36 42  1  1
 20 21  2  0
 21 22  1  0
M  CHG  2   2  -1  26  -1
M  END
>  <COMPND>  (197) 
    8629 

>  <AUTHOR>  (197) 
    GENERATED BY OPEN BABEL 3.1.1

>  <MASTER>  (197) 
        0    0    0    0    0    0    0    0   58    0   58    0

>  <minimizedAffinity>  (197) 
-7.26584

>  <CNNscore>  (197) 
0.3558389843

>  <CNNaffinity>  (197) 
4.1603350639

>  <CNN_VS>  (197) 
1.4804093838

>  <CNNaffinity_variance>  (197) 
0.1356280595

$$$$
198
     RDKit          3D

 43 45  0  0  0  0  0  0  0  0999 V2000
   26.9390   72.5736   -2.2983 P   0  0  2  0  0  0  0  0  0  0  0  0
   26.9964   73.6850   -1.1241 O   0  0  0  0  0  0  0  0  0  0  0  0
   26.5966   71.1860   -1.8414 O   0  0  0  0  0  0  0  0  0  0  0  0
   28.3605   72.7336   -3.0544 O   0  0  0  0  0  0  0  0  0  0  0  0
   29.5095   73.0275   -2.2789 C   0  0  0  0  0  0  0  0  0  0  0  0
   31.5292   71.9352   -1.5708 O   0  0  0  0  0  0  0  0  0  0  0  0
   31.1463   70.1136   -3.9215 O   0  0  0  0  0  0  0  0  0  0  0  0
   30.2422   68.5986   -1.8421 O   0  0  0  0  0  0  0  0  0  0  0  0
   30.1671   70.6988   -3.0647 C   0  0  1  0  0  0  0  0  0  0  0  0
   30.1634   70.0041   -1.7190 C   0  0  2  0  0  0  0  0  0  0  0  0
   30.6414   72.0996   -2.6982 C   0  0  1  0  0  0  0  0  0  0  0  0
   31.3904   70.6023   -1.0521 C   0  0  2  0  0  0  0  0  0  0  0  0
   30.8652   69.2183   -4.1693 H   0  0  0  0  0  0  0  0  0  0  0  0
   29.4389   68.2660   -2.2719 H   0  0  0  0  0  0  0  0  0  0  0  0
   33.5372   70.3203    0.7615 O   0  0  0  0  0  0  0  0  0  0  0  0
   30.7712   70.8746    4.4061 O   0  0  0  0  0  0  0  0  0  0  0  0
   31.2597   70.6690    0.3761 N   0  0  0  0  0  0  0  0  0  0  0  0
   32.1582   70.5967    2.5747 N   0  0  0  0  0  0  0  0  0  0  0  0
   32.4005   70.5135    1.1976 C   0  0  0  0  0  0  0  0  0  0  0  0
   30.0112   70.8867    0.9484 C   0  0  0  0  0  0  0  0  0  0  0  0
   29.7967   70.9621    2.2635 C   0  0  0  0  0  0  0  0  0  0  0  0
   30.9358   70.8104    3.1917 C   0  0  0  0  0  0  0  0  0  0  0  0
   32.9381   70.4910    3.1666 H   0  0  0  0  0  0  0  0  0  0  0  0
   25.8930   73.2122   -3.3524 O   0  0  0  0  0  0  0  0  0  0  0  0
   25.4617   72.7415   -4.8374 P   0  0  2  0  0  0  0  0  0  0  0  0
   26.4269   71.4742   -5.1200 O   0  0  0  0  0  0  0  0  0  0  0  0
   25.5423   73.8246   -5.8739 O   0  0  0  0  0  0  0  0  0  0  0  0
   23.9918   72.1010   -4.6522 O   0  0  0  0  0  0  0  0  0  0  0  0
   22.3042   72.4049   -3.0163 O   0  0  0  0  0  0  0  0  0  0  0  0
   21.9979   68.3191   -3.5291 O   0  0  0  0  0  0  0  0  0  0  0  0
   19.9436   70.0364   -4.5677 O   0  0  0  0  0  0  0  0  0  0  0  0
   24.5997   69.5875   -3.5624 O   0  0  0  0  0  0  0  0  0  0  0  0
   22.2223   69.6706   -3.9396 C   0  0  1  0  0  0  0  0  0  0  0  0
   20.9508   70.4742   -3.6598 C   0  0  1  0  0  0  0  0  0  0  0  0
   23.4024   70.2411   -3.1552 C   0  0  2  0  0  0  0  0  0  0  0  0
   21.1998   71.9796   -3.8232 C   0  0  1  0  0  0  0  0  0  0  0  0
   23.5315   71.7530   -3.3490 C   0  0  1  0  0  0  0  0  0  0  0  0
   21.2501   67.9508   -4.0238 H   0  0  0  0  0  0  0  0  0  0  0  0
   19.7964   69.0842   -4.4546 H   0  0  0  0  0  0  0  0  0  0  0  0
   24.5055   68.6311   -3.4345 H   0  0  0  0  0  0  0  0  0  0  0  0
   20.3072   74.1796   -3.5544 O   0  0  0  0  0  0  0  0  0  0  0  0
   19.9904   72.8089   -3.3967 C   0  0  0  0  0  0  0  0  0  0  0  0
   19.5465   74.7196   -3.2870 H   0  0  0  0  0  0  0  0  0  0  0  0
 25 28  1  0
 25 24  1  0
 25 26  1  6
 25 27  2  0
  1  4  1  0
  1 24  1  0
  1  2  1  1
  1  3  2  0
  6 11  1  0
  6 12  1  0
 29 36  1  0
 29 37  1  0
  9  7  1  6
  7 13  1  0
 10  8  1  6
  8 14  1  0
 37 28  1  6
  4  5  1  0
 33 30  1  1
 30 38  1  0
 34 31  1  6
 31 39  1  0
 35 32  1  6
 32 40  1  0
 41 42  1  0
 41 43  1  0
 15 19  2  0
 16 22  2  0
 12 17  1  1
 17 19  1  0
 17 20  1  0
 18 19  1  0
 18 22  1  0
 18 23  1  0
  9 10  1  0
  9 11  1  0
 10 12  1  0
 11  5  1  1
 33 34  1  0
 33 35  1  0
 34 36  1  0
 35 37  1  0
 36 42  1  1
 20 21  2  0
 21 22  1  0
M  CHG  2   2  -1  26  -1
M  END
>  <COMPND>  (198) 
    8629 

>  <AUTHOR>  (198) 
    GENERATED BY OPEN BABEL 3.1.1

>  <MASTER>  (198) 
        0    0    0    0    0    0    0    0   58    0   58    0

>  <minimizedAffinity>  (198) 
-6.85583

>  <CNNscore>  (198) 
0.3475779295

>  <CNNaffinity>  (198) 
3.9071516991

>  <CNN_VS>  (198) 
1.3580397367

>  <CNNaffinity_variance>  (198) 
0.1020550355

$$$$
199
     RDKit          3D

 43 45  0  0  0  0  0  0  0  0999 V2000
   29.2165   72.1882    0.2859 P   0  0  2  0  0  0  0  0  0  0  0  0
   30.5541   72.0095    1.1782 O   0  0  0  0  0  0  0  0  0  0  0  0
   29.0983   73.5058   -0.4221 O   0  0  0  0  0  0  0  0  0  0  0  0
   28.0158   71.8307    1.3099 O   0  0  0  0  0  0  0  0  0  0  0  0
   26.8539   72.6416    1.2990 C   0  0  0  0  0  0  0  0  0  0  0  0
   25.3756   71.2732    2.6089 O   0  0  0  0  0  0  0  0  0  0  0  0
   23.4419   71.5073    0.3293 O   0  0  0  0  0  0  0  0  0  0  0  0
   22.4712   73.3199    2.1205 O   0  0  0  0  0  0  0  0  0  0  0  0
   24.3571   72.4757    0.8391 C   0  0  1  0  0  0  0  0  0  0  0  0
   23.8544   73.0328    2.1546 C   0  0  2  0  0  0  0  0  0  0  0  0
   25.6238   71.7449    1.2665 C   0  0  1  0  0  0  0  0  0  0  0  0
   24.1953   71.9122    3.1222 C   0  0  2  0  0  0  0  0  0  0  0  0
   22.6250   71.9504    0.0495 H   0  0  0  0  0  0  0  0  0  0  0  0
   22.3054   74.0389    1.4910 H   0  0  0  0  0  0  0  0  0  0  0  0
   22.2231   72.3345    5.0996 O   0  0  0  0  0  0  0  0  0  0  0  0
   25.3469   73.7710    8.1687 O   0  0  0  0  0  0  0  0  0  0  0  0
   24.4653   72.3957    4.4468 N   0  0  0  0  0  0  0  0  0  0  0  0
   23.7801   73.0492    6.6262 N   0  0  0  0  0  0  0  0  0  0  0  0
   23.4032   72.5739    5.3637 C   0  0  0  0  0  0  0  0  0  0  0  0
   25.7713   72.6873    4.8253 C   0  0  0  0  0  0  0  0  0  0  0  0
   26.1139   73.1411    6.0328 C   0  0  0  0  0  0  0  0  0  0  0  0
   25.0639   73.3547    7.0496 C   0  0  0  0  0  0  0  0  0  0  0  0
   23.0569   73.1814    7.2814 H   0  0  0  0  0  0  0  0  0  0  0  0
   29.2564   70.9008   -0.6908 O   0  0  0  0  0  0  0  0  0  0  0  0
   30.2842   70.4949   -1.8705 P   0  0  2  0  0  0  0  0  0  0  0  0
   31.2945   69.4615   -1.1431 O   0  0  0  0  0  0  0  0  0  0  0  0
   30.9605   71.6636   -2.5267 O   0  0  0  0  0  0  0  0  0  0  0  0
   29.4138   69.5767   -2.8727 O   0  0  0  0  0  0  0  0  0  0  0  0
   28.9451   69.5422   -5.1955 O   0  0  0  0  0  0  0  0  0  0  0  0
   25.1125   69.0442   -3.7415 O   0  0  0  0  0  0  0  0  0  0  0  0
   26.4635   66.8259   -4.9671 O   0  0  0  0  0  0  0  0  0  0  0  0
   26.9488   70.8283   -2.3908 O   0  0  0  0  0  0  0  0  0  0  0  0
   26.5336   68.8841   -3.7506 C   0  0  1  0  0  0  0  0  0  0  0  0
   26.9276   68.1708   -5.0455 C   0  0  1  0  0  0  0  0  0  0  0  0
   27.1915   70.2606   -3.6734 C   0  0  2  0  0  0  0  0  0  0  0  0
   28.4477   68.2002   -5.2538 C   0  0  1  0  0  0  0  0  0  0  0  0
   28.6953   70.1838   -3.9434 C   0  0  1  0  0  0  0  0  0  0  0  0
   24.6887   68.1739   -3.7898 H   0  0  0  0  0  0  0  0  0  0  0  0
   25.5024   66.8214   -4.8351 H   0  0  0  0  0  0  0  0  0  0  0  0
   25.9934   70.8717   -2.2320 H   0  0  0  0  0  0  0  0  0  0  0  0
   30.2613   67.5364   -6.6606 O   0  0  0  0  0  0  0  0  0  0  0  0
   28.8497   67.6342   -6.6140 C   0  0  0  0  0  0  0  0  0  0  0  0
   30.5317   67.1773   -7.5207 H   0  0  0  0  0  0  0  0  0  0  0  0
 25 28  1  0
 25 24  1  0
 25 26  1  1
 25 27  2  0
  1  4  1  0
  1 24  1  0
  1  2  1  1
  1  3  2  0
  6 11  1  0
  6 12  1  0
 29 36  1  0
 29 37  1  0
  9  7  1  1
  7 13  1  0
 10  8  1  6
  8 14  1  0
 37 28  1  1
  4  5  1  0
 33 30  1  6
 30 38  1  0
 34 31  1  1
 31 39  1  0
 35 32  1  1
 32 40  1  0
 41 42  1  0
 41 43  1  0
 15 19  2  0
 16 22  2  0
 12 17  1  1
 17 19  1  0
 17 20  1  0
 18 19  1  0
 18 22  1  0
 18 23  1  0
  9 10  1  0
  9 11  1  0
 10 12  1  0
 11  5  1  1
 33 34  1  0
 33 35  1  0
 34 36  1  0
 35 37  1  0
 36 42  1  6
 20 21  2  0
 21 22  1  0
M  CHG  2   2  -1  26  -1
M  END
>  <COMPND>  (199) 
    8629 

>  <AUTHOR>  (199) 
    GENERATED BY OPEN BABEL 3.1.1

>  <MASTER>  (199) 
        0    0    0    0    0    0    0    0   58    0   58    0

>  <minimizedAffinity>  (199) 
-6.43904

>  <CNNscore>  (199) 
0.3217579424

>  <CNNaffinity>  (199) 
3.8343639374

>  <CNN_VS>  (199) 
1.2337369919

>  <CNNaffinity_variance>  (199) 
0.0988017768

$$$$
200
     RDKit          3D

 43 45  0  0  0  0  0  0  0  0999 V2000
   25.9760   72.0912   -0.9958 P   0  0  2  0  0  0  0  0  0  0  0  0
   26.0249   73.6280   -1.4989 O   0  0  0  0  0  0  0  0  0  0  0  0
   25.6604   71.9107    0.4600 O   0  0  0  0  0  0  0  0  0  0  0  0
   27.3883   71.4756   -1.4901 O   0  0  0  0  0  0  0  0  0  0  0  0
   28.5212   72.3259   -1.5255 C   0  0  0  0  0  0  0  0  0  0  0  0
   29.6265   70.1934   -1.5926 O   0  0  0  0  0  0  0  0  0  0  0  0
   32.1112   71.6659   -0.7870 O   0  0  0  0  0  0  0  0  0  0  0  0
   32.4660   71.3241   -3.4692 O   0  0  0  0  0  0  0  0  0  0  0  0
   31.0513   72.0863   -1.6446 C   0  0  1  0  0  0  0  0  0  0  0  0
   31.1417   71.3760   -2.9791 C   0  0  2  0  0  0  0  0  0  0  0  0
   29.7462   71.5387   -1.0806 C   0  0  1  0  0  0  0  0  0  0  0  0
   30.5885   70.0016   -2.6427 C   0  0  2  0  0  0  0  0  0  0  0  0
   32.9551   72.0039   -1.1267 H   0  0  0  0  0  0  0  0  0  0  0  0
   32.7726   72.2225   -3.6685 H   0  0  0  0  0  0  0  0  0  0  0  0
   31.0887   67.3648   -3.5228 O   0  0  0  0  0  0  0  0  0  0  0  0
   28.0359   67.7361   -6.9556 O   0  0  0  0  0  0  0  0  0  0  0  0
   29.9383   69.3836   -3.7636 N   0  0  0  0  0  0  0  0  0  0  0  0
   29.5681   67.5517   -5.2312 N   0  0  0  0  0  0  0  0  0  0  0  0
   30.2621   68.0546   -4.1233 C   0  0  0  0  0  0  0  0  0  0  0  0
   28.9908   70.0936   -4.4931 C   0  0  0  0  0  0  0  0  0  0  0  0
   28.3388   69.6000   -5.5479 C   0  0  0  0  0  0  0  0  0  0  0  0
   28.6187   68.2185   -5.9894 C   0  0  0  0  0  0  0  0  0  0  0  0
   29.7777   66.6279   -5.5004 H   0  0  0  0  0  0  0  0  0  0  0  0
   24.9108   71.4122   -2.0044 O   0  0  0  0  0  0  0  0  0  0  0  0
   25.0797   70.8662   -3.5164 P   0  0  2  0  0  0  0  0  0  0  0  0
   25.7655   69.4151   -3.3125 O   0  0  0  0  0  0  0  0  0  0  0  0
   25.8415   71.7894   -4.4226 O   0  0  0  0  0  0  0  0  0  0  0  0
   23.5757   70.5413   -4.0037 O   0  0  0  0  0  0  0  0  0  0  0  0
   22.2879   72.5041   -3.6788 O   0  0  0  0  0  0  0  0  0  0  0  0
   19.3098   69.9746   -5.0143 O   0  0  0  0  0  0  0  0  0  0  0  0
   20.2763   72.0603   -6.7359 O   0  0  0  0  0  0  0  0  0  0  0  0
   21.3754   68.9698   -3.2527 O   0  0  0  0  0  0  0  0  0  0  0  0
   20.6353   70.5081   -4.9519 C   0  0  1  0  0  0  0  0  0  0  0  0
   20.5766   71.9855   -5.3450 C   0  0  1  0  0  0  0  0  0  0  0  0
   21.1701   70.3510   -3.5297 C   0  0  2  0  0  0  0  0  0  0  0  0
   21.9062   72.6914   -5.0467 C   0  0  1  0  0  0  0  0  0  0  0  0
   22.4698   71.1315   -3.3256 C   0  0  1  0  0  0  0  0  0  0  0  0
   18.9646   70.0708   -5.9149 H   0  0  0  0  0  0  0  0  0  0  0  0
   19.4347   71.6105   -6.9108 H   0  0  0  0  0  0  0  0  0  0  0  0
   20.5454   68.4867   -3.3852 H   0  0  0  0  0  0  0  0  0  0  0  0
   21.6994   74.4275   -6.6752 O   0  0  0  0  0  0  0  0  0  0  0  0
   21.8198   74.1976   -5.2835 C   0  0  0  0  0  0  0  0  0  0  0  0
   21.6431   75.3820   -6.8410 H   0  0  0  0  0  0  0  0  0  0  0  0
 25 28  1  0
 25 24  1  0
 25 26  1  1
 25 27  2  0
  1  4  1  0
  1 24  1  0
  1  2  1  6
  1  3  2  0
  6 11  1  0
  6 12  1  0
 29 36  1  0
 29 37  1  0
  9  7  1  1
  7 13  1  0
 10  8  1  1
  8 14  1  0
 37 28  1  6
  4  5  1  0
 33 30  1  1
 30 38  1  0
 34 31  1  6
 31 39  1  0
 35 32  1  6
 32 40  1  0
 41 42  1  0
 41 43  1  0
 15 19  2  0
 16 22  2  0
 12 17  1  6
 17 19  1  0
 17 20  1  0
 18 19  1  0
 18 22  1  0
 18 23  1  0
  9 10  1  0
  9 11  1  0
 10 12  1  0
 11  5  1  6
 33 34  1  0
 33 35  1  0
 34 36  1  0
 35 37  1  0
 36 42  1  1
 20 21  2  0
 21 22  1  0
M  CHG  2   2  -1  26  -1
M  END
