1
     RDKit          3D

 43 45  0  0  0  0  0  0  0  0999 V2000
   21.0116   71.8607   -1.1194 P   0  0  2  0  0  0  0  0  0  0  0  0
   20.3287   70.4232   -0.8283 O   0  0  0  0  0  0  0  0  0  0  0  0
   20.9158   72.8476    0.0068 O   0  0  0  0  0  0  0  0  0  0  0  0
   20.3514   72.3276   -2.5208 O   0  0  0  0  0  0  0  0  0  0  0  0
   20.0247   71.3353   -3.4781 C   0  0  0  0  0  0  0  0  0  0  0  0
   20.5610   70.5330   -5.6787 O   0  0  0  0  0  0  0  0  0  0  0  0
   22.4149   72.8811   -5.8794 O   0  0  0  0  0  0  0  0  0  0  0  0
   20.2438   73.7145   -7.3036 O   0  0  0  0  0  0  0  0  0  0  0  0
   21.1416   72.7888   -5.2425 C   0  0  1  0  0  0  0  0  0  0  0  0
   20.0364   72.7652   -6.2777 C   0  0  2  0  0  0  0  0  0  0  0  0
   21.0265   71.4017   -4.6227 C   0  0  1  0  0  0  0  0  0  0  0  0
   20.1077   71.3340   -6.7823 C   0  0  2  0  0  0  0  0  0  0  0  0
   22.5117   73.7587   -6.2824 H   0  0  0  0  0  0  0  0  0  0  0  0
   20.1888   74.6090   -6.9326 H   0  0  0  0  0  0  0  0  0  0  0  0
   19.4501   70.7811   -9.4729 O   0  0  0  0  0  0  0  0  0  0  0  0
   15.1806   69.4584   -8.3491 O   0  0  0  0  0  0  0  0  0  0  0  0
   18.8316   70.8438   -7.2211 N   0  0  0  0  0  0  0  0  0  0  0  0
   17.3248   70.1228   -8.9111 N   0  0  0  0  0  0  0  0  0  0  0  0
   18.6036   70.5993   -8.5954 C   0  0  0  0  0  0  0  0  0  0  0  0
   17.8226   70.6100   -6.2932 C   0  0  0  0  0  0  0  0  0  0  0  0
   16.6081   70.1567   -6.6106 C   0  0  0  0  0  0  0  0  0  0  0  0
   16.2881   69.8759   -8.0251 C   0  0  0  0  0  0  0  0  0  0  0  0
   17.1429   69.9457   -9.8626 H   0  0  0  0  0  0  0  0  0  0  0  0
   22.5212   71.4669   -1.5423 O   0  0  0  0  0  0  0  0  0  0  0  0
   23.8369   72.3817   -1.7550 P   0  0  2  0  0  0  0  0  0  0  0  0
   23.2284   73.8690   -1.9422 O   0  0  0  0  0  0  0  0  0  0  0  0
   24.7253   71.9302   -2.8778 O   0  0  0  0  0  0  0  0  0  0  0  0
   24.5511   72.4127   -0.3079 O   0  0  0  0  0  0  0  0  0  0  0  0
   23.6819   72.8540    1.8522 O   0  0  0  0  0  0  0  0  0  0  0  0
   27.3414   74.7316    2.2173 O   0  0  0  0  0  0  0  0  0  0  0  0
   26.8745   72.2555    3.5953 O   0  0  0  0  0  0  0  0  0  0  0  0
   25.8841   74.8820   -0.2793 O   0  0  0  0  0  0  0  0  0  0  0  0
   26.4328   73.7258    1.7611 C   0  0  1  0  0  0  0  0  0  0  0  0
   25.8411   73.0235    2.9848 C   0  0  1  0  0  0  0  0  0  0  0  0
   25.3307   74.3862    0.9350 C   0  0  2  0  0  0  0  0  0  0  0  0
   24.6656   72.1194    2.5901 C   0  0  1  0  0  0  0  0  0  0  0  0
   24.1874   73.4141    0.6387 C   0  0  1  0  0  0  0  0  0  0  0  0
   28.0440   74.3188    2.7421 H   0  0  0  0  0  0  0  0  0  0  0  0
   27.6108   72.8382    3.8393 H   0  0  0  0  0  0  0  0  0  0  0  0
   26.6065   75.4964   -0.0782 H   0  0  0  0  0  0  0  0  0  0  0  0
   24.6949   70.4061    4.2553 O   0  0  0  0  0  0  0  0  0  0  0  0
   23.9607   71.5321    3.8109 C   0  0  0  0  0  0  0  0  0  0  0  0
   24.2581   70.0221    5.0321 H   0  0  0  0  0  0  0  0  0  0  0  0
 25 28  1  0
 25 24  1  0
 25 26  1  6
 25 27  2  0
  1  4  1  0
  1 24  1  0
  1  2  1  1
  1  3  2  0
  6 11  1  0
  6 12  1  0
 29 36  1  0
 29 37  1  0
  9  7  1  6
  7 13  1  0
 10  8  1  6
  8 14  1  0
 37 28  1  6
  4  5  1  0
 33 30  1  1
 30 38  1  0
 34 31  1  6
 31 39  1  0
 35 32  1  6
 32 40  1  0
 41 42  1  0
 41 43  1  0
 15 19  2  0
 16 22  2  0
 12 17  1  1
 17 19  1  0
 17 20  1  0
 18 19  1  0
 18 22  1  0
 18 23  1  0
  9 10  1  0
  9 11  1  0
 10 12  1  0
 11  5  1  1
 33 34  1  0
 33 35  1  0
 34 36  1  0
 35 37  1  0
 36 42  1  1
 20 21  2  0
 21 22  1  0
M  CHG  2   2  -1  26  -1
M  END
>  <COMPND>  (1) 
    8629 

>  <AUTHOR>  (1) 
    GENERATED BY OPEN BABEL 3.1.1

>  <MASTER>  (1) 
        0    0    0    0    0    0    0    0   58    0   58    0

>  <minimizedAffinity>  (1) 
-7.15849

>  <CNNscore>  (1) 
0.7178850770

>  <CNNaffinity>  (1) 
4.4901223183

>  <CNN_VS>  (1) 
3.2233917713

>  <CNNaffinity_variance>  (1) 
0.0697888881

$$$$
2
     RDKit          3D

 43 45  0  0  0  0  0  0  0  0999 V2000
   21.0260   71.9870   -1.0154 P   0  0  2  0  0  0  0  0  0  0  0  0
   20.4639   70.5026   -0.7025 O   0  0  0  0  0  0  0  0  0  0  0  0
   20.7464   73.0078    0.0482 O   0  0  0  0  0  0  0  0  0  0  0  0
   20.4374   72.3236   -2.4845 O   0  0  0  0  0  0  0  0  0  0  0  0
   20.2239   71.2537   -3.3887 C   0  0  0  0  0  0  0  0  0  0  0  0
   20.7198   70.5540   -5.6333 O   0  0  0  0  0  0  0  0  0  0  0  0
   22.5205   72.9470   -5.7818 O   0  0  0  0  0  0  0  0  0  0  0  0
   20.2974   73.7922   -7.1161 O   0  0  0  0  0  0  0  0  0  0  0  0
   21.2660   72.8017   -5.1181 C   0  0  1  0  0  0  0  0  0  0  0  0
   20.1354   72.7974   -6.1257 C   0  0  2  0  0  0  0  0  0  0  0  0
   21.1946   71.3882   -4.5539 C   0  0  1  0  0  0  0  0  0  0  0  0
   20.2225   71.3899   -6.6911 C   0  0  2  0  0  0  0  0  0  0  0  0
   22.5894   73.8422   -6.1502 H   0  0  0  0  0  0  0  0  0  0  0  0
   20.2340   74.6693   -6.7070 H   0  0  0  0  0  0  0  0  0  0  0  0
   19.5444   70.8315   -9.3755 O   0  0  0  0  0  0  0  0  0  0  0  0
   15.2937   69.4821   -8.2130 O   0  0  0  0  0  0  0  0  0  0  0  0
   18.9457   70.8913   -7.1183 N   0  0  0  0  0  0  0  0  0  0  0  0
   17.4285   70.1599   -8.7945 N   0  0  0  0  0  0  0  0  0  0  0  0
   18.7070   70.6448   -8.4904 C   0  0  0  0  0  0  0  0  0  0  0  0
   17.9465   70.6516   -6.1813 C   0  0  0  0  0  0  0  0  0  0  0  0
   16.7322   70.1904   -6.4877 C   0  0  0  0  0  0  0  0  0  0  0  0
   16.4014   69.9068   -7.8991 C   0  0  0  0  0  0  0  0  0  0  0  0
   17.2393   69.9812   -9.7442 H   0  0  0  0  0  0  0  0  0  0  0  0
   22.5954   71.7281   -1.3034 O   0  0  0  0  0  0  0  0  0  0  0  0
   23.8963   72.6336   -0.9863 P   0  0  2  0  0  0  0  0  0  0  0  0
   23.4516   74.1083   -1.4813 O   0  0  0  0  0  0  0  0  0  0  0  0
   25.1650   72.1276   -1.6095 O   0  0  0  0  0  0  0  0  0  0  0  0
   23.9379   72.7393    0.6237 O   0  0  0  0  0  0  0  0  0  0  0  0
   25.6755   71.9610    2.0350 O   0  0  0  0  0  0  0  0  0  0  0  0
   22.4755   71.4756    4.5992 O   0  0  0  0  0  0  0  0  0  0  0  0
   24.3601   73.5914    5.0682 O   0  0  0  0  0  0  0  0  0  0  0  0
   22.1680   70.8940    1.7803 O   0  0  0  0  0  0  0  0  0  0  0  0
   23.2319   72.1116    3.5654 C   0  0  1  0  0  0  0  0  0  0  0  0
   24.5844   72.5274    4.1474 C   0  0  1  0  0  0  0  0  0  0  0  0
   23.4224   71.1301    2.4105 C   0  0  2  0  0  0  0  0  0  0  0  0
   25.5502   72.9728    3.0411 C   0  0  1  0  0  0  0  0  0  0  0  0
   24.4388   71.6478    1.3912 C   0  0  1  0  0  0  0  0  0  0  0  0
   22.3505   72.0936    5.3354 H   0  0  0  0  0  0  0  0  0  0  0  0
   23.7483   73.2972    5.7613 H   0  0  0  0  0  0  0  0  0  0  0  0
   21.5335   70.5663    2.4359 H   0  0  0  0  0  0  0  0  0  0  0  0
   27.8595   72.3701    2.9298 O   0  0  0  0  0  0  0  0  0  0  0  0
   26.9533   73.2415    3.5808 C   0  0  0  0  0  0  0  0  0  0  0  0
   28.7568   72.5300    3.2631 H   0  0  0  0  0  0  0  0  0  0  0  0
 25 28  1  0
 25 24  1  0
 25 26  1  6
 25 27  2  0
  1  4  1  0
  1 24  1  0
  1  2  1  1
  1  3  2  0
  6 11  1  0
  6 12  1  0
 29 36  1  0
 29 37  1  0
  9  7  1  6
  7 13  1  0
 10  8  1  6
  8 14  1  0
 37 28  1  1
  4  5  1  0
 33 30  1  1
 30 38  1  0
 34 31  1  1
 31 39  1  0
 35 32  1  6
 32 40  1  0
 41 42  1  0
 41 43  1  0
 15 19  2  0
 16 22  2  0
 12 17  1  1
 17 19  1  0
 17 20  1  0
 18 19  1  0
 18 22  1  0
 18 23  1  0
  9 10  1  0
  9 11  1  0
 10 12  1  0
 11  5  1  1
 33 34  1  0
 33 35  1  0
 34 36  1  0
 35 37  1  0
 36 42  1  1
 20 21  2  0
 21 22  1  0
M  CHG  2   2  -1  26  -1
M  END
>  <COMPND>  (2) 
    8629 

>  <AUTHOR>  (2) 
    GENERATED BY OPEN BABEL 3.1.1

>  <MASTER>  (2) 
        0    0    0    0    0    0    0    0   58    0   58    0

>  <minimizedAffinity>  (2) 
-7.12880

>  <CNNscore>  (2) 
0.7045012712

>  <CNNaffinity>  (2) 
4.5138487816

>  <CNN_VS>  (2) 
3.1800122261

>  <CNNaffinity_variance>  (2) 
0.0747440159

$$$$
3
     RDKit          3D

 43 45  0  0  0  0  0  0  0  0999 V2000
   16.6601   71.9863   -2.4875 P   0  0  2  0  0  0  0  0  0  0  0  0
   17.9364   71.0410   -2.1794 O   0  0  0  0  0  0  0  0  0  0  0  0
   16.9370   73.4602   -2.4402 O   0  0  0  0  0  0  0  0  0  0  0  0
   15.5250   71.4515   -1.4661 O   0  0  0  0  0  0  0  0  0  0  0  0
   15.8682   70.4254   -0.5511 C   0  0  0  0  0  0  0  0  0  0  0  0
   15.2044   68.1645   -0.0805 O   0  0  0  0  0  0  0  0  0  0  0  0
   14.3099   68.0303   -2.9393 O   0  0  0  0  0  0  0  0  0  0  0  0
   11.9663   68.4213   -1.6010 O   0  0  0  0  0  0  0  0  0  0  0  0
   14.2541   69.1256   -2.0270 C   0  0  1  0  0  0  0  0  0  0  0  0
   13.1542   68.9066   -1.0092 C   0  0  2  0  0  0  0  0  0  0  0  0
   15.5051   69.0774   -1.1587 C   0  0  1  0  0  0  0  0  0  0  0  0
   13.7922   67.8994   -0.0677 C   0  0  2  0  0  0  0  0  0  0  0  0
   13.5213   68.0403   -3.5050 H   0  0  0  0  0  0  0  0  0  0  0  0
   11.5989   69.0980   -2.1907 H   0  0  0  0  0  0  0  0  0  0  0  0
   12.9383   65.7302    1.5272 O   0  0  0  0  0  0  0  0  0  0  0  0
   11.9478   68.4944    5.0795 O   0  0  0  0  0  0  0  0  0  0  0  0
   13.3067   68.0235    1.2778 N   0  0  0  0  0  0  0  0  0  0  0  0
   12.4460   67.1083    3.2947 N   0  0  0  0  0  0  0  0  0  0  0  0
   12.9017   66.8715    1.9916 C   0  0  0  0  0  0  0  0  0  0  0  0
   13.2362   69.2768    1.8763 C   0  0  0  0  0  0  0  0  0  0  0  0
   12.7980   69.4858    3.1194 C   0  0  0  0  0  0  0  0  0  0  0  0
   12.3559   68.3350    3.9333 C   0  0  0  0  0  0  0  0  0  0  0  0
   12.1582   66.3206    3.8109 H   0  0  0  0  0  0  0  0  0  0  0  0
   16.1440   71.4445   -3.9204 O   0  0  0  0  0  0  0  0  0  0  0  0
   16.1177   72.1490   -5.3750 P   0  0  2  0  0  0  0  0  0  0  0  0
   15.5281   73.6229   -5.0627 O   0  0  0  0  0  0  0  0  0  0  0  0
   15.3528   71.3837   -6.4157 O   0  0  0  0  0  0  0  0  0  0  0  0
   17.6709   72.3993   -5.7357 O   0  0  0  0  0  0  0  0  0  0  0  0
   18.5967   70.5954   -6.9626 O   0  0  0  0  0  0  0  0  0  0  0  0
   22.0633   72.6838   -6.1427 O   0  0  0  0  0  0  0  0  0  0  0  0
   21.0041   72.6864   -8.8122 O   0  0  0  0  0  0  0  0  0  0  0  0
   19.9786   72.5039   -4.1424 O   0  0  0  0  0  0  0  0  0  0  0  0
   20.6743   72.5331   -6.4481 C   0  0  1  0  0  0  0  0  0  0  0  0
   20.5542   71.8040   -7.7878 C   0  0  1  0  0  0  0  0  0  0  0  0
   20.0030   71.7290   -5.3363 C   0  0  2  0  0  0  0  0  0  0  0  0
   19.1066   71.3698   -8.0544 C   0  0  1  0  0  0  0  0  0  0  0  0
   18.5847   71.3057   -5.7228 C   0  0  1  0  0  0  0  0  0  0  0  0
   22.4953   73.1939   -6.8445 H   0  0  0  0  0  0  0  0  0  0  0  0
   21.9192   72.9534   -8.6317 H   0  0  0  0  0  0  0  0  0  0  0  0
   20.8822   72.7654   -3.9082 H   0  0  0  0  0  0  0  0  0  0  0  0
   18.8861   71.3564  -10.4335 O   0  0  0  0  0  0  0  0  0  0  0  0
   18.9906   70.5047   -9.3075 C   0  0  0  0  0  0  0  0  0  0  0  0
   18.8118   70.8195  -11.2385 H   0  0  0  0  0  0  0  0  0  0  0  0
 25 28  1  0
 25 24  1  0
 25 26  1  1
 25 27  2  0
  1  4  1  0
  1 24  1  0
  1  2  1  1
  1  3  2  0
  6 11  1  0
  6 12  1  0
 29 36  1  0
 29 37  1  0
  9  7  1  6
  7 13  1  0
 10  8  1  6
  8 14  1  0
 37 28  1  6
  4  5  1  0
 33 30  1  1
 30 38  1  0
 34 31  1  6
 31 39  1  0
 35 32  1  1
 32 40  1  0
 41 42  1  0
 41 43  1  0
 15 19  2  0
 16 22  2  0
 12 17  1  1
 17 19  1  0
 17 20  1  0
 18 19  1  0
 18 22  1  0
 18 23  1  0
  9 10  1  0
  9 11  1  0
 10 12  1  0
 11  5  1  1
 33 34  1  0
 33 35  1  0
 34 36  1  0
 35 37  1  0
 36 42  1  6
 20 21  2  0
 21 22  1  0
M  CHG  2   2  -1  26  -1
M  END
>  <COMPND>  (3) 
    8629 

>  <AUTHOR>  (3) 
    GENERATED BY OPEN BABEL 3.1.1

>  <MASTER>  (3) 
        0    0    0    0    0    0    0    0   58    0   58    0

>  <minimizedAffinity>  (3) 
-6.47410

>  <CNNscore>  (3) 
0.6905421615

>  <CNNaffinity>  (3) 
4.2415533066

>  <CNN_VS>  (3) 
2.9289712906

>  <CNNaffinity_variance>  (3) 
0.1303340644

$$$$
4
     RDKit          3D

 43 45  0  0  0  0  0  0  0  0999 V2000
   23.5481   72.6873   -3.5472 P   0  0  2  0  0  0  0  0  0  0  0  0
   23.8489   74.1505   -4.1687 O   0  0  0  0  0  0  0  0  0  0  0  0
   24.7588   71.9404   -3.0698 O   0  0  0  0  0  0  0  0  0  0  0  0
   22.6747   71.9508   -4.6929 O   0  0  0  0  0  0  0  0  0  0  0  0
   21.4389   72.5280   -5.0767 C   0  0  0  0  0  0  0  0  0  0  0  0
   20.9469   71.9749   -7.3627 O   0  0  0  0  0  0  0  0  0  0  0  0
   21.3195   74.8911   -7.9526 O   0  0  0  0  0  0  0  0  0  0  0  0
   18.6050   74.6421   -7.8772 O   0  0  0  0  0  0  0  0  0  0  0  0
   20.7528   74.2688   -6.8007 C   0  0  1  0  0  0  0  0  0  0  0  0
   19.3735   73.7304   -7.1189 C   0  0  2  0  0  0  0  0  0  0  0  0
   21.5365   72.9920   -6.5236 C   0  0  1  0  0  0  0  0  0  0  0  0
   19.7003   72.4609   -7.8869 C   0  0  2  0  0  0  0  0  0  0  0  0
   20.8356   75.7091   -8.1490 H   0  0  0  0  0  0  0  0  0  0  0  0
   18.4233   75.4326   -7.3455 H   0  0  0  0  0  0  0  0  0  0  0  0
   18.7630   70.7888   -9.9613 O   0  0  0  0  0  0  0  0  0  0  0  0
   15.8498   68.6065   -7.1343 O   0  0  0  0  0  0  0  0  0  0  0  0
   18.6976   71.4469   -7.7209 N   0  0  0  0  0  0  0  0  0  0  0  0
   17.3134   69.7034   -8.5519 N   0  0  0  0  0  0  0  0  0  0  0  0
   18.2968   70.6621   -8.8272 C   0  0  0  0  0  0  0  0  0  0  0  0
   18.1229   71.2385   -6.4718 C   0  0  0  0  0  0  0  0  0  0  0  0
   17.1853   70.3210   -6.2262 C   0  0  0  0  0  0  0  0  0  0  0  0
   16.7108   69.4592   -7.3280 C   0  0  0  0  0  0  0  0  0  0  0  0
   17.0183   69.1452   -9.3076 H   0  0  0  0  0  0  0  0  0  0  0  0
   22.4533   72.9981   -2.3993 O   0  0  0  0  0  0  0  0  0  0  0  0
   21.9093   72.0901   -1.1776 P   0  0  2  0  0  0  0  0  0  0  0  0
   21.7476   70.6260   -1.8467 O   0  0  0  0  0  0  0  0  0  0  0  0
   20.6616   72.6155   -0.5285 O   0  0  0  0  0  0  0  0  0  0  0  0
   23.1715   71.9462   -0.1820 O   0  0  0  0  0  0  0  0  0  0  0  0
   23.0259   73.4556    1.6393 O   0  0  0  0  0  0  0  0  0  0  0  0
   26.8855   72.1034    2.2099 O   0  0  0  0  0  0  0  0  0  0  0  0
   24.8071   71.2574    4.0022 O   0  0  0  0  0  0  0  0  0  0  0  0
   25.8955   72.5549   -0.4726 O   0  0  0  0  0  0  0  0  0  0  0  0
   25.5087   71.9956    1.8381 C   0  0  1  0  0  0  0  0  0  0  0  0
   24.6539   72.3195    3.0649 C   0  0  1  0  0  0  0  0  0  0  0  0
   25.2189   72.9792    0.7059 C   0  0  2  0  0  0  0  0  0  0  0  0
   23.1770   72.4859    2.6827 C   0  0  1  0  0  0  0  0  0  0  0  0
   23.7181   73.1068    0.4388 C   0  0  1  0  0  0  0  0  0  0  0  0
   27.0763   71.4811    2.9281 H   0  0  0  0  0  0  0  0  0  0  0  0
   25.7442   71.1625    4.2349 H   0  0  0  0  0  0  0  0  0  0  0  0
   26.8446   72.4782   -0.2905 H   0  0  0  0  0  0  0  0  0  0  0  0
   21.9994   71.8425    4.6596 O   0  0  0  0  0  0  0  0  0  0  0  0
   22.3315   72.9635    3.8613 C   0  0  0  0  0  0  0  0  0  0  0  0
   21.4615   72.1314    5.4139 H   0  0  0  0  0  0  0  0  0  0  0  0
 25 28  1  0
 25 24  1  0
 25 26  1  6
 25 27  2  0
  1  4  1  0
  1 24  1  0
  1  2  1  6
  1  3  2  0
  6 11  1  0
  6 12  1  0
 29 36  1  0
 29 37  1  0
  9  7  1  6
  7 13  1  0
 10  8  1  6
  8 14  1  0
 37 28  1  1
  4  5  1  0
 33 30  1  1
 30 38  1  0
 34 31  1  1
 31 39  1  0
 35 32  1  6
 32 40  1  0
 41 42  1  0
 41 43  1  0
 15 19  2  0
 16 22  2  0
 12 17  1  1
 17 19  1  0
 17 20  1  0
 18 19  1  0
 18 22  1  0
 18 23  1  0
  9 10  1  0
  9 11  1  0
 10 12  1  0
 11  5  1  1
 33 34  1  0
 33 35  1  0
 34 36  1  0
 35 37  1  0
 36 42  1  1
 20 21  2  0
 21 22  1  0
M  CHG  2   2  -1  26  -1
M  END
>  <COMPND>  (4) 
    8629 

>  <AUTHOR>  (4) 
    GENERATED BY OPEN BABEL 3.1.1

>  <MASTER>  (4) 
        0    0    0    0    0    0    0    0   58    0   58    0

>  <minimizedAffinity>  (4) 
-7.23122

>  <CNNscore>  (4) 
0.6220633984

>  <CNNaffinity>  (4) 
4.2780275345

>  <CNN_VS>  (4) 
2.6612043381

>  <CNNaffinity_variance>  (4) 
0.1100646630

$$$$
5
     RDKit          3D

 43 45  0  0  0  0  0  0  0  0999 V2000
   19.9088   72.2819   -2.4183 P   0  0  2  0  0  0  0  0  0  0  0  0
   20.7505   73.2397   -1.4226 O   0  0  0  0  0  0  0  0  0  0  0  0
   19.8661   70.8357   -2.0208 O   0  0  0  0  0  0  0  0  0  0  0  0
   20.5360   72.5913   -3.8773 O   0  0  0  0  0  0  0  0  0  0  0  0
   20.8508   71.4991   -4.7234 C   0  0  0  0  0  0  0  0  0  0  0  0
   20.6220   71.2002   -7.0966 O   0  0  0  0  0  0  0  0  0  0  0  0
   21.5843   74.0282   -7.3567 O   0  0  0  0  0  0  0  0  0  0  0  0
   18.8885   74.2857   -7.6776 O   0  0  0  0  0  0  0  0  0  0  0  0
   20.7493   73.4477   -6.3561 C   0  0  1  0  0  0  0  0  0  0  0  0
   19.3616   73.1984   -6.9089 C   0  0  2  0  0  0  0  0  0  0  0  0
   21.2464   72.0315   -6.0938 C   0  0  1  0  0  0  0  0  0  0  0  0
   19.5739   71.9440   -7.7393 C   0  0  2  0  0  0  0  0  0  0  0  0
   21.2864   74.9333   -7.5409 H   0  0  0  0  0  0  0  0  0  0  0  0
   18.7694   75.0592   -7.1047 H   0  0  0  0  0  0  0  0  0  0  0  0
   18.7385   70.5365  -10.0413 O   0  0  0  0  0  0  0  0  0  0  0  0
   15.0367   68.8388   -7.8837 O   0  0  0  0  0  0  0  0  0  0  0  0
   18.3958   71.1261   -7.8070 N   0  0  0  0  0  0  0  0  0  0  0  0
   16.8961   69.6922   -8.9651 N   0  0  0  0  0  0  0  0  0  0  0  0
   18.0650   70.4626   -9.0114 C   0  0  0  0  0  0  0  0  0  0  0  0
   17.5827   70.9882   -6.6873 C   0  0  0  0  0  0  0  0  0  0  0  0
   16.4705   70.2509   -6.6599 C   0  0  0  0  0  0  0  0  0  0  0  0
   16.0541   69.5249   -7.8771 C   0  0  0  0  0  0  0  0  0  0  0  0
   16.6456   69.2211   -9.7927 H   0  0  0  0  0  0  0  0  0  0  0  0
   18.4644   73.0047   -2.4831 O   0  0  0  0  0  0  0  0  0  0  0  0
   17.3717   73.2987   -1.3287 P   0  0  2  0  0  0  0  0  0  0  0  0
   16.6996   74.6927   -1.8003 O   0  0  0  0  0  0  0  0  0  0  0  0
   17.9371   73.3230    0.0619 O   0  0  0  0  0  0  0  0  0  0  0  0
   16.2212   72.1914   -1.5637 O   0  0  0  0  0  0  0  0  0  0  0  0
   15.4741   70.5839    0.0094 O   0  0  0  0  0  0  0  0  0  0  0  0
   14.8222   68.4560   -3.4687 O   0  0  0  0  0  0  0  0  0  0  0  0
   12.5833   69.5031   -2.0063 O   0  0  0  0  0  0  0  0  0  0  0  0
   17.1679   70.1341   -3.2208 O   0  0  0  0  0  0  0  0  0  0  0  0
   14.8836   69.6268   -2.6497 C   0  0  1  0  0  0  0  0  0  0  0  0
   13.9081   69.4487   -1.4846 C   0  0  1  0  0  0  0  0  0  0  0  0
   16.3109   69.8010   -2.1341 C   0  0  2  0  0  0  0  0  0  0  0  0
   14.1092   70.5378   -0.4223 C   0  0  1  0  0  0  0  0  0  0  0  0
   16.3916   70.8742   -1.0469 C   0  0  1  0  0  0  0  0  0  0  0  0
   13.9187   68.3399   -3.7998 H   0  0  0  0  0  0  0  0  0  0  0  0
   12.4696   68.8106   -2.6763 H   0  0  0  0  0  0  0  0  0  0  0  0
   17.1079   69.4470   -3.9021 H   0  0  0  0  0  0  0  0  0  0  0  0
   12.9270   68.9135    0.8711 O   0  0  0  0  0  0  0  0  0  0  0  0
   13.2565   70.2894    0.8200 C   0  0  0  0  0  0  0  0  0  0  0  0
   12.3846   68.7405    1.6569 H   0  0  0  0  0  0  0  0  0  0  0  0
 25 28  1  0
 25 24  1  0
 25 26  1  6
 25 27  2  0
  1  4  1  0
  1 24  1  0
  1  2  1  1
  1  3  2  0
  6 11  1  0
  6 12  1  0
 29 36  1  0
 29 37  1  0
  9  7  1  6
  7 13  1  0
 10  8  1  6
  8 14  1  0
 37 28  1  6
  4  5  1  0
 33 30  1  6
 30 38  1  0
 34 31  1  6
 31 39  1  0
 35 32  1  6
 32 40  1  0
 41 42  1  0
 41 43  1  0
 15 19  2  0
 16 22  2  0
 12 17  1  1
 17 19  1  0
 17 20  1  0
 18 19  1  0
 18 22  1  0
 18 23  1  0
  9 10  1  0
  9 11  1  0
 10 12  1  0
 11  5  1  1
 33 34  1  0
 33 35  1  0
 34 36  1  0
 35 37  1  0
 36 42  1  1
 20 21  2  0
 21 22  1  0
M  CHG  2   2  -1  26  -1
M  END
>  <COMPND>  (5) 
    8629 

>  <AUTHOR>  (5) 
    GENERATED BY OPEN BABEL 3.1.1

>  <MASTER>  (5) 
        0    0    0    0    0    0    0    0   58    0   58    0

>  <minimizedAffinity>  (5) 
-6.14899

>  <CNNscore>  (5) 
0.6213804483

>  <CNNaffinity>  (5) 
4.3714408875

>  <CNN_VS>  (5) 
2.7163279057

>  <CNNaffinity_variance>  (5) 
0.1406999379

$$$$
6
     RDKit          3D

 43 45  0  0  0  0  0  0  0  0999 V2000
   22.1362   72.8722   -2.9865 P   0  0  2  0  0  0  0  0  0  0  0  0
   22.8716   74.2695   -3.3387 O   0  0  0  0  0  0  0  0  0  0  0  0
   23.0589   71.7160   -2.7356 O   0  0  0  0  0  0  0  0  0  0  0  0
   21.0762   72.6762   -4.1931 O   0  0  0  0  0  0  0  0  0  0  0  0
   21.2876   71.6202   -5.1139 C   0  0  0  0  0  0  0  0  0  0  0  0
   20.7191   71.3602   -7.4341 O   0  0  0  0  0  0  0  0  0  0  0  0
   21.4757   74.2444   -7.7496 O   0  0  0  0  0  0  0  0  0  0  0  0
   18.7524   74.3511   -7.6552 O   0  0  0  0  0  0  0  0  0  0  0  0
   20.8345   73.5946   -6.6533 C   0  0  1  0  0  0  0  0  0  0  0  0
   19.3948   73.2768   -6.9994 C   0  0  2  0  0  0  0  0  0  0  0  0
   21.4418   72.2045   -6.5114 C   0  0  1  0  0  0  0  0  0  0  0  0
   19.5470   72.0553   -7.8897 C   0  0  2  0  0  0  0  0  0  0  0  0
   21.1046   75.1344   -7.8597 H   0  0  0  0  0  0  0  0  0  0  0  0
   18.6794   75.1038   -7.0478 H   0  0  0  0  0  0  0  0  0  0  0  0
   18.6085   70.4564  -10.0207 O   0  0  0  0  0  0  0  0  0  0  0  0
   15.2077   68.7046   -7.4503 O   0  0  0  0  0  0  0  0  0  0  0  0
   18.4184   71.1717   -7.8050 N   0  0  0  0  0  0  0  0  0  0  0  0
   16.9160   69.5853   -8.7391 N   0  0  0  0  0  0  0  0  0  0  0  0
   18.0288   70.4135   -8.9336 C   0  0  0  0  0  0  0  0  0  0  0  0
   17.7112   71.0634   -6.6126 C   0  0  0  0  0  0  0  0  0  0  0  0
   16.6514   70.2699   -6.4438 C   0  0  0  0  0  0  0  0  0  0  0  0
   16.1792   69.4441   -7.5738 C   0  0  0  0  0  0  0  0  0  0  0  0
   16.6261   69.0480   -9.5117 H   0  0  0  0  0  0  0  0  0  0  0  0
   21.1925   73.2639   -1.7339 O   0  0  0  0  0  0  0  0  0  0  0  0
   20.5539   72.3538   -0.5605 P   0  0  2  0  0  0  0  0  0  0  0  0
   20.5884   73.3317    0.7279 O   0  0  0  0  0  0  0  0  0  0  0  0
   21.2461   71.0372   -0.3573 O   0  0  0  0  0  0  0  0  0  0  0  0
   18.9898   72.2355   -0.9407 O   0  0  0  0  0  0  0  0  0  0  0  0
   17.8312   70.2498   -1.5162 O   0  0  0  0  0  0  0  0  0  0  0  0
   15.6548   72.9550   -3.7514 O   0  0  0  0  0  0  0  0  0  0  0  0
   14.4886   71.7993   -1.3951 O   0  0  0  0  0  0  0  0  0  0  0  0
   18.5239   73.2564   -3.5128 O   0  0  0  0  0  0  0  0  0  0  0  0
   16.4139   72.5077   -2.6249 C   0  0  1  0  0  0  0  0  0  0  0  0
   15.6858   71.3167   -1.9984 C   0  0  1  0  0  0  0  0  0  0  0  0
   17.8091   72.0989   -3.0936 C   0  0  2  0  0  0  0  0  0  0  0  0
   16.5657   70.6165   -0.9542 C   0  0  1  0  0  0  0  0  0  0  0  0
   18.5822   71.3673   -1.9949 C   0  0  1  0  0  0  0  0  0  0  0  0
   14.7679   73.2165   -3.4606 H   0  0  0  0  0  0  0  0  0  0  0  0
   13.9422   72.2397   -2.0650 H   0  0  0  0  0  0  0  0  0  0  0  0
   18.0243   73.7104   -4.2086 H   0  0  0  0  0  0  0  0  0  0  0  0
   16.3422   69.1337    0.9060 O   0  0  0  0  0  0  0  0  0  0  0  0
   15.9218   69.3344   -0.4309 C   0  0  0  0  0  0  0  0  0  0  0  0
   15.9399   68.3213    1.2523 H   0  0  0  0  0  0  0  0  0  0  0  0
 25 28  1  0
 25 24  1  0
 25 26  1  1
 25 27  2  0
  1  4  1  0
  1 24  1  0
  1  2  1  6
  1  3  2  0
  6 11  1  0
  6 12  1  0
 29 36  1  0
 29 37  1  0
  9  7  1  6
  7 13  1  0
 10  8  1  6
  8 14  1  0
 37 28  1  1
  4  5  1  0
 33 30  1  6
 30 38  1  0
 34 31  1  1
 31 39  1  0
 35 32  1  1
 32 40  1  0
 41 42  1  0
 41 43  1  0
 15 19  2  0
 16 22  2  0
 12 17  1  1
 17 19  1  0
 17 20  1  0
 18 19  1  0
 18 22  1  0
 18 23  1  0
  9 10  1  0
  9 11  1  0
 10 12  1  0
 11  5  1  1
 33 34  1  0
 33 35  1  0
 34 36  1  0
 35 37  1  0
 36 42  1  6
 20 21  2  0
 21 22  1  0
M  CHG  2   2  -1  26  -1
M  END
>  <COMPND>  (6) 
    8629 

>  <AUTHOR>  (6) 
    GENERATED BY OPEN BABEL 3.1.1

>  <MASTER>  (6) 
        0    0    0    0    0    0    0    0   58    0   58    0

>  <minimizedAffinity>  (6) 
-5.94110

>  <CNNscore>  (6) 
0.6049048305

>  <CNNaffinity>  (6) 
4.2374849319

>  <CNN_VS>  (6) 
2.5632750988

>  <CNNaffinity_variance>  (6) 
0.1700225770

$$$$
7
     RDKit          3D

 43 45  0  0  0  0  0  0  0  0999 V2000
   15.7307   70.3321   -2.8310 P   0  0  2  0  0  0  0  0  0  0  0  0
   15.2037   71.8409   -3.0823 O   0  0  0  0  0  0  0  0  0  0  0  0
   15.4455   69.3675   -3.9444 O   0  0  0  0  0  0  0  0  0  0  0  0
   15.1141   69.9408   -1.3872 O   0  0  0  0  0  0  0  0  0  0  0  0
   13.7851   70.3328   -1.0908 C   0  0  0  0  0  0  0  0  0  0  0  0
   13.0262   68.1778   -0.3467 O   0  0  0  0  0  0  0  0  0  0  0  0
   10.6494   68.6092   -2.1231 O   0  0  0  0  0  0  0  0  0  0  0  0
    9.6613   69.2064    0.3474 O   0  0  0  0  0  0  0  0  0  0  0  0
   11.3751   69.5564   -1.3412 C   0  0  1  0  0  0  0  0  0  0  0  0
   11.0451   69.3890    0.1273 C   0  0  2  0  0  0  0  0  0  0  0  0
   12.8480   69.1687   -1.3824 C   0  0  1  0  0  0  0  0  0  0  0  0
   11.8625   68.1627    0.4962 C   0  0  2  0  0  0  0  0  0  0  0  0
    9.7059   68.8363   -2.1122 H   0  0  0  0  0  0  0  0  0  0  0  0
    9.1848   70.0135    0.0979 H   0  0  0  0  0  0  0  0  0  0  0  0
   12.7266   65.8837    1.9237 O   0  0  0  0  0  0  0  0  0  0  0  0
   13.4441   68.3335    5.7610 O   0  0  0  0  0  0  0  0  0  0  0  0
   12.2813   68.1763    1.8694 N   0  0  0  0  0  0  0  0  0  0  0  0
   13.0833   67.1054    3.8332 N   0  0  0  0  0  0  0  0  0  0  0  0
   12.6959   66.9766    2.4933 C   0  0  0  0  0  0  0  0  0  0  0  0
   12.2784   69.3699    2.5830 C   0  0  0  0  0  0  0  0  0  0  0  0
   12.6496   69.4757    3.8606 C   0  0  0  0  0  0  0  0  0  0  0  0
   13.0967   68.2690    4.5859 C   0  0  0  0  0  0  0  0  0  0  0  0
   13.3757   66.2826    4.2885 H   0  0  0  0  0  0  0  0  0  0  0  0
   17.3007   70.5441   -2.5102 O   0  0  0  0  0  0  0  0  0  0  0  0
   18.3615   71.6280   -3.0695 P   0  0  2  0  0  0  0  0  0  0  0  0
   19.7874   70.8916   -2.8644 O   0  0  0  0  0  0  0  0  0  0  0  0
   18.2626   72.9778   -2.4198 O   0  0  0  0  0  0  0  0  0  0  0  0
   18.1331   71.6363   -4.6672 O   0  0  0  0  0  0  0  0  0  0  0  0
   17.6895   69.8898   -6.2066 O   0  0  0  0  0  0  0  0  0  0  0  0
   20.2550   72.1630   -8.5092 O   0  0  0  0  0  0  0  0  0  0  0  0
   17.4525   72.1156   -9.1354 O   0  0  0  0  0  0  0  0  0  0  0  0
   20.7436   71.8626   -5.6718 O   0  0  0  0  0  0  0  0  0  0  0  0
   19.2267   71.9372   -7.5412 C   0  0  1  0  0  0  0  0  0  0  0  0
   18.0720   71.2067   -8.2297 C   0  0  1  0  0  0  0  0  0  0  0  0
   19.7920   71.0940   -6.3998 C   0  0  2  0  0  0  0  0  0  0  0  0
   17.0510   70.6944   -7.2049 C   0  0  1  0  0  0  0  0  0  0  0  0
   18.6880   70.5945   -5.4661 C   0  0  1  0  0  0  0  0  0  0  0  0
   19.9027   72.6983   -9.2364 H   0  0  0  0  0  0  0  0  0  0  0  0
   18.1081   72.4320   -9.7768 H   0  0  0  0  0  0  0  0  0  0  0  0
   21.4373   72.1727   -6.2739 H   0  0  0  0  0  0  0  0  0  0  0  0
   15.0700   70.6743   -8.5405 O   0  0  0  0  0  0  0  0  0  0  0  0
   15.9741   69.8281   -7.8544 C   0  0  0  0  0  0  0  0  0  0  0  0
   14.3791   70.1365   -8.9592 H   0  0  0  0  0  0  0  0  0  0  0  0
 25 28  1  0
 25 24  1  0
 25 26  1  6
 25 27  2  0
  1  4  1  0
  1 24  1  0
  1  2  1  6
  1  3  2  0
  6 11  1  0
  6 12  1  0
 29 36  1  0
 29 37  1  0
  9  7  1  6
  7 13  1  0
 10  8  1  6
  8 14  1  0
 37 28  1  6
  4  5  1  0
 33 30  1  6
 30 38  1  0
 34 31  1  6
 31 39  1  0
 35 32  1  1
 32 40  1  0
 41 42  1  0
 41 43  1  0
 15 19  2  0
 16 22  2  0
 12 17  1  1
 17 19  1  0
 17 20  1  0
 18 19  1  0
 18 22  1  0
 18 23  1  0
  9 10  1  0
  9 11  1  0
 10 12  1  0
 11  5  1  1
 33 34  1  0
 33 35  1  0
 34 36  1  0
 35 37  1  0
 36 42  1  6
 20 21  2  0
 21 22  1  0
M  CHG  2   2  -1  26  -1
M  END
>  <COMPND>  (7) 
    8629 

>  <AUTHOR>  (7) 
    GENERATED BY OPEN BABEL 3.1.1

>  <MASTER>  (7) 
        0    0    0    0    0    0    0    0   58    0   58    0

>  <minimizedAffinity>  (7) 
-6.32885

>  <CNNscore>  (7) 
0.5835626125

>  <CNNaffinity>  (7) 
4.1394596100

>  <CNN_VS>  (7) 
2.4156339169

>  <CNNaffinity_variance>  (7) 
0.1065820456

$$$$
8
     RDKit          3D

 43 45  0  0  0  0  0  0  0  0999 V2000
   18.2709   70.9940   -1.6868 P   0  0  2  0  0  0  0  0  0  0  0  0
   17.6839   72.3075   -0.9468 O   0  0  0  0  0  0  0  0  0  0  0  0
   19.5585   70.4704   -1.1217 O   0  0  0  0  0  0  0  0  0  0  0  0
   18.3081   71.4125   -3.2493 O   0  0  0  0  0  0  0  0  0  0  0  0
   19.1026   72.5211   -3.6336 C   0  0  0  0  0  0  0  0  0  0  0  0
   19.8293   70.8799   -5.2311 O   0  0  0  0  0  0  0  0  0  0  0  0
   22.1094   72.7359   -5.8202 O   0  0  0  0  0  0  0  0  0  0  0  0
   20.4059   73.2096   -7.8962 O   0  0  0  0  0  0  0  0  0  0  0  0
   20.7551   73.0452   -5.4957 C   0  0  1  0  0  0  0  0  0  0  0  0
   19.8524   72.7574   -6.6773 C   0  0  2  0  0  0  0  0  0  0  0  0
   20.2732   72.0254   -4.4715 C   0  0  1  0  0  0  0  0  0  0  0  0
   19.7279   71.2444   -6.6174 C   0  0  2  0  0  0  0  0  0  0  0  0
   22.4393   73.3741   -6.4727 H   0  0  0  0  0  0  0  0  0  0  0  0
   20.4645   74.1777   -7.8855 H   0  0  0  0  0  0  0  0  0  0  0  0
   19.2499   70.6090   -9.3277 O   0  0  0  0  0  0  0  0  0  0  0  0
   14.8675   69.4638   -8.4763 O   0  0  0  0  0  0  0  0  0  0  0  0
   18.4713   70.7775   -7.1317 N   0  0  0  0  0  0  0  0  0  0  0  0
   17.0682   70.0391   -8.9015 N   0  0  0  0  0  0  0  0  0  0  0  0
   18.3360   70.4876   -8.5093 C   0  0  0  0  0  0  0  0  0  0  0  0
   17.3900   70.6112   -6.2732 C   0  0  0  0  0  0  0  0  0  0  0  0
   16.1873   70.1839   -6.6632 C   0  0  0  0  0  0  0  0  0  0  0  0
   15.9620   69.8589   -8.0865 C   0  0  0  0  0  0  0  0  0  0  0  0
   16.9503   69.8313   -9.8569 H   0  0  0  0  0  0  0  0  0  0  0  0
   17.0344   69.9551   -1.6183 O   0  0  0  0  0  0  0  0  0  0  0  0
   15.5172   70.0732   -2.1634 P   0  0  2  0  0  0  0  0  0  0  0  0
   15.5504   69.2240   -3.5401 O   0  0  0  0  0  0  0  0  0  0  0  0
   15.0268   71.4837   -2.3175 O   0  0  0  0  0  0  0  0  0  0  0  0
   14.6468   69.1697   -1.1480 O   0  0  0  0  0  0  0  0  0  0  0  0
   12.9227   69.9935    0.2539 O   0  0  0  0  0  0  0  0  0  0  0  0
   14.1474   66.7769    2.5351 O   0  0  0  0  0  0  0  0  0  0  0  0
   11.6350   66.6574    1.1489 O   0  0  0  0  0  0  0  0  0  0  0  0
   16.1040   68.3659    1.1116 O   0  0  0  0  0  0  0  0  0  0  0  0
   13.8721   67.4856    1.3238 C   0  0  1  0  0  0  0  0  0  0  0  0
   12.3878   67.8562    1.3118 C   0  0  1  0  0  0  0  0  0  0  0  0
   14.7403   68.7414    1.2718 C   0  0  2  0  0  0  0  0  0  0  0  0
   12.0723   68.8433    0.1799 C   0  0  1  0  0  0  0  0  0  0  0  0
   14.3117   69.6779    0.1407 C   0  0  1  0  0  0  0  0  0  0  0  0
   13.5997   65.9781    2.5741 H   0  0  0  0  0  0  0  0  0  0  0  0
   11.8438   66.0426    1.8697 H   0  0  0  0  0  0  0  0  0  0  0  0
   16.3631   67.7734    1.8339 H   0  0  0  0  0  0  0  0  0  0  0  0
    9.7867   68.3699   -0.3308 O   0  0  0  0  0  0  0  0  0  0  0  0
   10.6325   69.3479    0.2457 C   0  0  0  0  0  0  0  0  0  0  0  0
    8.8670   68.6774   -0.2955 H   0  0  0  0  0  0  0  0  0  0  0  0
 25 28  1  0
 25 24  1  0
 25 26  1  6
 25 27  2  0
  1  4  1  0
  1 24  1  0
  1  2  1  1
  1  3  2  0
  6 11  1  0
  6 12  1  0
 29 36  1  0
 29 37  1  0
  9  7  1  6
  7 13  1  0
 10  8  1  6
  8 14  1  0
 37 28  1  6
  4  5  1  0
 33 30  1  1
 30 38  1  0
 34 31  1  6
 31 39  1  0
 35 32  1  6
 32 40  1  0
 41 42  1  0
 41 43  1  0
 15 19  2  0
 16 22  2  0
 12 17  1  1
 17 19  1  0
 17 20  1  0
 18 19  1  0
 18 22  1  0
 18 23  1  0
  9 10  1  0
  9 11  1  0
 10 12  1  0
 11  5  1  6
 33 34  1  0
 33 35  1  0
 34 36  1  0
 35 37  1  0
 36 42  1  1
 20 21  2  0
 21 22  1  0
M  CHG  2   2  -1  26  -1
M  END
>  <COMPND>  (8) 
    8629 

>  <AUTHOR>  (8) 
    GENERATED BY OPEN BABEL 3.1.1

>  <MASTER>  (8) 
        0    0    0    0    0    0    0    0   58    0   58    0

>  <minimizedAffinity>  (8) 
-7.09427

>  <CNNscore>  (8) 
0.5445186496

>  <CNNaffinity>  (8) 
4.3857359886

>  <CNN_VS>  (8) 
2.3881149292

>  <CNNaffinity_variance>  (8) 
0.1013666242

$$$$
9
     RDKit          3D

 43 45  0  0  0  0  0  0  0  0999 V2000
   27.2427   72.8176    2.2635 P   0  0  2  0  0  0  0  0  0  0  0  0
   27.3199   74.3360    1.7103 O   0  0  0  0  0  0  0  0  0  0  0  0
   27.2558   71.7555    1.2037 O   0  0  0  0  0  0  0  0  0  0  0  0
   25.9496   72.8239    3.2360 O   0  0  0  0  0  0  0  0  0  0  0  0
   25.0377   73.9044    3.1415 C   0  0  0  0  0  0  0  0  0  0  0  0
   22.9323   73.4490    2.0769 O   0  0  0  0  0  0  0  0  0  0  0  0
   22.3380   71.6848    4.4275 O   0  0  0  0  0  0  0  0  0  0  0  0
   23.0771   69.8918    2.5104 O   0  0  0  0  0  0  0  0  0  0  0  0
   23.5792   71.9144    3.7627 C   0  0  1  0  0  0  0  0  0  0  0  0
   23.5997   71.2020    2.4264 C   0  0  2  0  0  0  0  0  0  0  0  0
   23.6232   73.3785    3.3434 C   0  0  1  0  0  0  0  0  0  0  0  0
   22.7448   72.1184    1.5677 C   0  0  2  0  0  0  0  0  0  0  0  0
   22.2869   70.7562    4.7051 H   0  0  0  0  0  0  0  0  0  0  0  0
   23.6560   69.3477    3.0669 H   0  0  0  0  0  0  0  0  0  0  0  0
   21.2249   70.9165   -0.4873 O   0  0  0  0  0  0  0  0  0  0  0  0
   24.3210   72.0680   -3.7013 O   0  0  0  0  0  0  0  0  0  0  0  0
   23.1298   72.0898    0.1848 N   0  0  0  0  0  0  0  0  0  0  0  0
   22.7676   71.4910   -2.0860 N   0  0  0  0  0  0  0  0  0  0  0  0
   22.2955   71.4596   -0.7676 C   0  0  0  0  0  0  0  0  0  0  0  0
   24.3227   72.6824   -0.2148 C   0  0  0  0  0  0  0  0  0  0  0  0
   24.7593   72.7027   -1.4758 C   0  0  0  0  0  0  0  0  0  0  0  0
   23.9467   72.0663   -2.5326 C   0  0  0  0  0  0  0  0  0  0  0  0
   22.2031   71.0578   -2.7668 H   0  0  0  0  0  0  0  0  0  0  0  0
   28.4786   72.7462    3.3029 O   0  0  0  0  0  0  0  0  0  0  0  0
   29.3765   73.9152    3.9664 P   0  0  2  0  0  0  0  0  0  0  0  0
   28.4744   74.4133    5.2137 O   0  0  0  0  0  0  0  0  0  0  0  0
   29.7699   75.0055    3.0123 O   0  0  0  0  0  0  0  0  0  0  0  0
   30.6188   73.1404    4.6456 O   0  0  0  0  0  0  0  0  0  0  0  0
   32.5774   74.4431    4.3567 O   0  0  0  0  0  0  0  0  0  0  0  0
   34.2632   71.0901    6.0790 O   0  0  0  0  0  0  0  0  0  0  0  0
   34.0467   73.5122    7.6069 O   0  0  0  0  0  0  0  0  0  0  0  0
   32.1003   70.8037    4.1765 O   0  0  0  0  0  0  0  0  0  0  0  0
   33.2495   72.0765    5.8679 C   0  0  1  0  0  0  0  0  0  0  0  0
   33.8394   73.4489    6.1986 C   0  0  1  0  0  0  0  0  0  0  0  0
   32.7968   72.0230    4.4099 C   0  0  2  0  0  0  0  0  0  0  0  0
   32.9042   74.5779    5.7448 C   0  0  1  0  0  0  0  0  0  0  0  0
   31.9110   73.2170    4.0493 C   0  0  1  0  0  0  0  0  0  0  0  0
   34.5547   71.1185    7.0030 H   0  0  0  0  0  0  0  0  0  0  0  0
   34.6385   72.7937    7.8804 H   0  0  0  0  0  0  0  0  0  0  0  0
   32.6718   70.0556    4.4083 H   0  0  0  0  0  0  0  0  0  0  0  0
   33.4900   76.3008    7.2931 O   0  0  0  0  0  0  0  0  0  0  0  0
   33.5416   75.9543    5.9214 C   0  0  0  0  0  0  0  0  0  0  0  0
   33.8925   77.1745    7.4207 H   0  0  0  0  0  0  0  0  0  0  0  0
 25 28  1  0
 25 24  1  0
 25 26  1  1
 25 27  2  0
  1  4  1  0
  1 24  1  0
  1  2  1  6
  1  3  2  0
  6 11  1  0
  6 12  1  0
 29 36  1  0
 29 37  1  0
  9  7  1  6
  7 13  1  0
 10  8  1  1
  8 14  1  0
 37 28  1  1
  4  5  1  0
 33 30  1  6
 30 38  1  0
 34 31  1  1
 31 39  1  0
 35 32  1  1
 32 40  1  0
 41 42  1  0
 41 43  1  0
 15 19  2  0
 16 22  2  0
 12 17  1  6
 17 19  1  0
 17 20  1  0
 18 19  1  0
 18 22  1  0
 18 23  1  0
  9 10  1  0
  9 11  1  0
 10 12  1  0
 11  5  1  6
 33 34  1  0
 33 35  1  0
 34 36  1  0
 35 37  1  0
 36 42  1  6
 20 21  2  0
 21 22  1  0
M  CHG  2   2  -1  26  -1
M  END
>  <COMPND>  (9) 
    8629 

>  <AUTHOR>  (9) 
    GENERATED BY OPEN BABEL 3.1.1

>  <MASTER>  (9) 
        0    0    0    0    0    0    0    0   58    0   58    0

>  <minimizedAffinity>  (9) 
-6.73458

>  <CNNscore>  (9) 
0.5179210901

>  <CNNaffinity>  (9) 
4.0699367523

>  <CNN_VS>  (9) 
2.1079061031

>  <CNNaffinity_variance>  (9) 
0.4234653115

$$$$
10
     RDKit          3D

 43 45  0  0  0  0  0  0  0  0999 V2000
   23.8353   71.2559    3.0834 P   0  0  2  0  0  0  0  0  0  0  0  0
   23.0664   70.0352    2.3510 O   0  0  0  0  0  0  0  0  0  0  0  0
   24.4392   70.9168    4.4144 O   0  0  0  0  0  0  0  0  0  0  0  0
   22.7463   72.4525    3.0902 O   0  0  0  0  0  0  0  0  0  0  0  0
   22.7304   73.3459    4.1899 C   0  0  0  0  0  0  0  0  0  0  0  0
   22.3861   72.7661    6.4962 O   0  0  0  0  0  0  0  0  0  0  0  0
   19.4541   73.0487    5.9353 O   0  0  0  0  0  0  0  0  0  0  0  0
   20.0507   75.4007    7.1799 O   0  0  0  0  0  0  0  0  0  0  0  0
   20.5487   73.8025    5.4166 C   0  0  1  0  0  0  0  0  0  0  0  0
   21.0845   74.7465    6.4728 C   0  0  2  0  0  0  0  0  0  0  0  0
   21.7213   72.8504    5.2167 C   0  0  1  0  0  0  0  0  0  0  0  0
   21.8921   73.8082    7.3534 C   0  0  2  0  0  0  0  0  0  0  0  0
   18.6931   73.6355    6.0710 H   0  0  0  0  0  0  0  0  0  0  0  0
   19.5662   75.9858    6.5767 H   0  0  0  0  0  0  0  0  0  0  0  0
   22.5977   73.5167   10.0728 O   0  0  0  0  0  0  0  0  0  0  0  0
   26.1831   76.3800    9.6389 O   0  0  0  0  0  0  0  0  0  0  0  0
   23.0056   74.4656    7.9775 N   0  0  0  0  0  0  0  0  0  0  0  0
   24.3825   74.9425    9.8545 N   0  0  0  0  0  0  0  0  0  0  0  0
   23.2730   74.2523    9.3499 C   0  0  0  0  0  0  0  0  0  0  0  0
   23.8190   75.3106    7.2304 C   0  0  0  0  0  0  0  0  0  0  0  0
   24.8725   75.9624    7.7269 C   0  0  0  0  0  0  0  0  0  0  0  0
   25.2206   75.7943    9.1526 C   0  0  0  0  0  0  0  0  0  0  0  0
   24.5878   74.8095   10.8084 H   0  0  0  0  0  0  0  0  0  0  0  0
   24.8985   71.7385    1.9655 O   0  0  0  0  0  0  0  0  0  0  0  0
   24.7366   72.7448    0.7109 P   0  0  2  0  0  0  0  0  0  0  0  0
   26.1323   72.5692   -0.0882 O   0  0  0  0  0  0  0  0  0  0  0  0
   24.4166   74.1605    1.0948 O   0  0  0  0  0  0  0  0  0  0  0  0
   23.6338   72.0431   -0.2359 O   0  0  0  0  0  0  0  0  0  0  0  0
   22.5918   73.1705   -2.0414 O   0  0  0  0  0  0  0  0  0  0  0  0
   19.6662   70.3701   -1.2356 O   0  0  0  0  0  0  0  0  0  0  0  0
   21.2741   70.1008   -3.6000 O   0  0  0  0  0  0  0  0  0  0  0  0
   21.1245   71.6018    0.9405 O   0  0  0  0  0  0  0  0  0  0  0  0
   21.0050   70.8603   -1.3480 C   0  0  1  0  0  0  0  0  0  0  0  0
   21.2420   71.2795   -2.8002 C   0  0  1  0  0  0  0  0  0  0  0  0
   21.1807   72.0521   -0.4088 C   0  0  2  0  0  0  0  0  0  0  0  0
   22.5559   72.0591   -2.9443 C   0  0  1  0  0  0  0  0  0  0  0  0
   22.4973   72.7865   -0.6683 C   0  0  1  0  0  0  0  0  0  0  0  0
   19.5482   69.6129   -1.8291 H   0  0  0  0  0  0  0  0  0  0  0  0
   20.4389   69.6175   -3.4995 H   0  0  0  0  0  0  0  0  0  0  0  0
   20.2863   71.1389    1.0922 H   0  0  0  0  0  0  0  0  0  0  0  0
   24.0217   73.2065   -4.4423 O   0  0  0  0  0  0  0  0  0  0  0  0
   22.7352   72.6224   -4.3524 C   0  0  0  0  0  0  0  0  0  0  0  0
   24.1500   73.5689   -5.3333 H   0  0  0  0  0  0  0  0  0  0  0  0
 25 28  1  0
 25 24  1  0
 25 26  1  6
 25 27  2  0
  1  4  1  0
  1 24  1  0
  1  2  1  6
  1  3  2  0
  6 11  1  0
  6 12  1  0
 29 36  1  0
 29 37  1  0
  9  7  1  1
  7 13  1  0
 10  8  1  1
  8 14  1  0
 37 28  1  6
  4  5  1  0
 33 30  1  6
 30 38  1  0
 34 31  1  6
 31 39  1  0
 35 32  1  1
 32 40  1  0
 41 42  1  0
 41 43  1  0
 15 19  2  0
 16 22  2  0
 12 17  1  6
 17 19  1  0
 17 20  1  0
 18 19  1  0
 18 22  1  0
 18 23  1  0
  9 10  1  0
  9 11  1  0
 10 12  1  0
 11  5  1  6
 33 34  1  0
 33 35  1  0
 34 36  1  0
 35 37  1  0
 36 42  1  6
 20 21  2  0
 21 22  1  0
M  CHG  2   2  -1  26  -1
M  END
>  <COMPND>  (10) 
    8629 

>  <AUTHOR>  (10) 
    GENERATED BY OPEN BABEL 3.1.1

>  <MASTER>  (10) 
        0    0    0    0    0    0    0    0   58    0   58    0

>  <minimizedAffinity>  (10) 
-5.90619

>  <CNNscore>  (10) 
0.5107562542

>  <CNNaffinity>  (10) 
3.9242928028

>  <CNN_VS>  (10) 
2.0043570995

>  <CNNaffinity_variance>  (10) 
0.1455636919

$$$$
11
     RDKit          3D

 43 45  0  0  0  0  0  0  0  0999 V2000
   21.2505   73.7667   -3.2244 P   0  0  2  0  0  0  0  0  0  0  0  0
   20.1072   74.6097   -2.4500 O   0  0  0  0  0  0  0  0  0  0  0  0
   22.2375   74.5952   -3.9931 O   0  0  0  0  0  0  0  0  0  0  0  0
   20.4156   72.6850   -4.0908 O   0  0  0  0  0  0  0  0  0  0  0  0
   19.5922   71.7589   -3.4037 C   0  0  0  0  0  0  0  0  0  0  0  0
   17.9477   72.6981   -4.8827 O   0  0  0  0  0  0  0  0  0  0  0  0
   15.8938   71.5847   -3.0031 O   0  0  0  0  0  0  0  0  0  0  0  0
   15.8896   69.7648   -5.0340 O   0  0  0  0  0  0  0  0  0  0  0  0
   17.1526   71.0369   -3.3914 C   0  0  1  0  0  0  0  0  0  0  0  0
   17.0771   70.4953   -4.8037 C   0  0  2  0  0  0  0  0  0  0  0  0
   18.1383   72.1885   -3.5446 C   0  0  1  0  0  0  0  0  0  0  0  0
   17.1519   71.7661   -5.6329 C   0  0  2  0  0  0  0  0  0  0  0  0
   15.2478   70.8679   -2.8987 H   0  0  0  0  0  0  0  0  0  0  0  0
   15.8894   68.9660   -4.4839 H   0  0  0  0  0  0  0  0  0  0  0  0
   15.9072   72.2912   -8.1134 O   0  0  0  0  0  0  0  0  0  0  0  0
   19.6118   70.8984  -10.4750 O   0  0  0  0  0  0  0  0  0  0  0  0
   17.7683   71.5502   -6.9116 N   0  0  0  0  0  0  0  0  0  0  0  0
   17.7529   71.5974   -9.2873 N   0  0  0  0  0  0  0  0  0  0  0  0
   17.0564   71.8454   -8.0975 C   0  0  0  0  0  0  0  0  0  0  0  0
   19.0645   71.0515   -6.9806 C   0  0  0  0  0  0  0  0  0  0  0  0
   19.7142   70.8194   -8.1232 C   0  0  0  0  0  0  0  0  0  0  0  0
   19.0413   71.1012   -9.4076 C   0  0  0  0  0  0  0  0  0  0  0  0
   17.2766   71.7953  -10.1262 H   0  0  0  0  0  0  0  0  0  0  0  0
   21.8987   72.8675   -2.0479 O   0  0  0  0  0  0  0  0  0  0  0  0
   23.1448   71.8380   -2.0629 P   0  0  2  0  0  0  0  0  0  0  0  0
   24.3044   72.6700   -2.8248 O   0  0  0  0  0  0  0  0  0  0  0  0
   22.8337   70.5042   -2.6780 O   0  0  0  0  0  0  0  0  0  0  0  0
   23.6355   71.7680   -0.5269 O   0  0  0  0  0  0  0  0  0  0  0  0
   23.1336   73.2427    1.2592 O   0  0  0  0  0  0  0  0  0  0  0  0
   26.9958   72.2261    2.3083 O   0  0  0  0  0  0  0  0  0  0  0  0
   24.7929   71.1866    3.8297 O   0  0  0  0  0  0  0  0  0  0  0  0
   26.3108   72.6138   -0.4774 O   0  0  0  0  0  0  0  0  0  0  0  0
   25.6906   72.0023    1.7682 C   0  0  1  0  0  0  0  0  0  0  0  0
   24.6650   72.2397    2.8785 C   0  0  1  0  0  0  0  0  0  0  0  0
   25.4587   72.9672    0.6069 C   0  0  2  0  0  0  0  0  0  0  0  0
   23.2381   72.2806    2.3151 C   0  0  1  0  0  0  0  0  0  0  0  0
   23.9973   72.9662    0.1549 C   0  0  1  0  0  0  0  0  0  0  0  0
   27.1495   71.6163    3.0459 H   0  0  0  0  0  0  0  0  0  0  0  0
   25.6985   71.1714    4.1773 H   0  0  0  0  0  0  0  0  0  0  0  0
   27.2330   72.6184   -0.1785 H   0  0  0  0  0  0  0  0  0  0  0  0
   21.3208   73.6154    2.8161 O   0  0  0  0  0  0  0  0  0  0  0  0
   22.2144   72.6723    3.3785 C   0  0  0  0  0  0  0  0  0  0  0  0
   20.6633   73.8736    3.4815 H   0  0  0  0  0  0  0  0  0  0  0  0
 25 28  1  0
 25 24  1  0
 25 26  1  6
 25 27  2  0
  1  4  1  0
  1 24  1  0
  1  2  1  1
  1  3  2  0
  6 11  1  0
  6 12  1  0
 29 36  1  0
 29 37  1  0
  9  7  1  6
  7 13  1  0
 10  8  1  1
  8 14  1  0
 37 28  1  1
  4  5  1  0
 33 30  1  1
 30 38  1  0
 34 31  1  1
 31 39  1  0
 35 32  1  6
 32 40  1  0
 41 42  1  0
 41 43  1  0
 15 19  2  0
 16 22  2  0
 12 17  1  6
 17 19  1  0
 17 20  1  0
 18 19  1  0
 18 22  1  0
 18 23  1  0
  9 10  1  0
  9 11  1  0
 10 12  1  0
 11  5  1  6
 33 34  1  0
 33 35  1  0
 34 36  1  0
 35 37  1  0
 36 42  1  1
 20 21  2  0
 21 22  1  0
M  CHG  2   2  -1  26  -1
M  END
>  <COMPND>  (11) 
    8629 

>  <AUTHOR>  (11) 
    GENERATED BY OPEN BABEL 3.1.1

>  <MASTER>  (11) 
        0    0    0    0    0    0    0    0   58    0   58    0

>  <minimizedAffinity>  (11) 
-6.16130

>  <CNNscore>  (11) 
0.4865916669

>  <CNNaffinity>  (11) 
4.2879166603

>  <CNN_VS>  (11) 
2.0864644051

>  <CNNaffinity_variance>  (11) 
0.0232708491

$$$$
12
     RDKit          3D

 43 45  0  0  0  0  0  0  0  0999 V2000
   24.2426   72.5489   -0.8357 P   0  0  2  0  0  0  0  0  0  0  0  0
   23.6404   74.0051   -1.2021 O   0  0  0  0  0  0  0  0  0  0  0  0
   25.5918   72.2550   -1.4227 O   0  0  0  0  0  0  0  0  0  0  0  0
   23.0593   71.5247   -1.2468 O   0  0  0  0  0  0  0  0  0  0  0  0
   21.9370   72.0339   -1.9461 C   0  0  0  0  0  0  0  0  0  0  0  0
   21.0649   70.7175   -3.7572 O   0  0  0  0  0  0  0  0  0  0  0  0
   22.4880   72.6248   -5.5815 O   0  0  0  0  0  0  0  0  0  0  0  0
   19.9091   73.5039   -5.6970 O   0  0  0  0  0  0  0  0  0  0  0  0
   21.8300   72.8827   -4.3422 C   0  0  1  0  0  0  0  0  0  0  0  0
   20.3273   72.8349   -4.5247 C   0  0  2  0  0  0  0  0  0  0  0  0
   22.0767   71.6926   -3.4233 C   0  0  1  0  0  0  0  0  0  0  0  0
   20.0639   71.3397   -4.5793 C   0  0  2  0  0  0  0  0  0  0  0  0
   22.3449   73.3714   -6.1848 H   0  0  0  0  0  0  0  0  0  0  0  0
   20.0980   74.4516   -5.6135 H   0  0  0  0  0  0  0  0  0  0  0  0
   17.8761   70.5763   -6.1944 O   0  0  0  0  0  0  0  0  0  0  0  0
   15.1276   70.0354   -2.5346 O   0  0  0  0  0  0  0  0  0  0  0  0
   18.7650   70.9936   -4.0748 N   0  0  0  0  0  0  0  0  0  0  0  0
   16.5094   70.3074   -4.3708 N   0  0  0  0  0  0  0  0  0  0  0  0
   17.7345   70.6252   -4.9708 C   0  0  0  0  0  0  0  0  0  0  0  0
   18.5235   71.0212   -2.7056 C   0  0  0  0  0  0  0  0  0  0  0  0
   17.3491   70.7166   -2.1494 C   0  0  0  0  0  0  0  0  0  0  0  0
   16.2198   70.3212   -3.0155 C   0  0  0  0  0  0  0  0  0  0  0  0
   15.7766   70.0482   -4.9754 H   0  0  0  0  0  0  0  0  0  0  0  0
   24.1934   72.5313    0.7799 O   0  0  0  0  0  0  0  0  0  0  0  0
   25.3009   72.9504    1.8803 P   0  0  2  0  0  0  0  0  0  0  0  0
   25.8888   74.3428    1.3032 O   0  0  0  0  0  0  0  0  0  0  0  0
   26.3407   71.8987    2.1382 O   0  0  0  0  0  0  0  0  0  0  0  0
   24.4443   73.3771    3.1800 O   0  0  0  0  0  0  0  0  0  0  0  0
   24.7928   73.2402    5.5201 O   0  0  0  0  0  0  0  0  0  0  0  0
   20.8567   72.0016    5.3658 O   0  0  0  0  0  0  0  0  0  0  0  0
   21.4843   74.6052    6.4030 O   0  0  0  0  0  0  0  0  0  0  0  0
   22.7135   71.1717    3.3058 O   0  0  0  0  0  0  0  0  0  0  0  0
   21.9996   72.7633    4.9668 C   0  0  1  0  0  0  0  0  0  0  0  0
   22.4621   73.5967    6.1636 C   0  0  1  0  0  0  0  0  0  0  0  0
   23.1040   71.8082    4.5178 C   0  0  2  0  0  0  0  0  0  0  0  0
   23.8328   74.2337    5.8984 C   0  0  1  0  0  0  0  0  0  0  0  0
   24.4370   72.5347    4.3296 C   0  0  1  0  0  0  0  0  0  0  0  0
   20.1516   72.6022    5.6516 H   0  0  0  0  0  0  0  0  0  0  0  0
   20.6234   74.1897    6.5685 H   0  0  0  0  0  0  0  0  0  0  0  0
   21.8685   70.7152    3.4382 H   0  0  0  0  0  0  0  0  0  0  0  0
   23.7222   74.4277    8.2773 O   0  0  0  0  0  0  0  0  0  0  0  0
   24.3846   74.9391    7.1354 C   0  0  0  0  0  0  0  0  0  0  0  0
   24.0635   74.8673    9.0723 H   0  0  0  0  0  0  0  0  0  0  0  0
 25 28  1  0
 25 24  1  0
 25 26  1  6
 25 27  2  0
  1  4  1  0
  1 24  1  0
  1  2  1  6
  1  3  2  0
  6 11  1  0
  6 12  1  0
 29 36  1  0
 29 37  1  0
  9  7  1  6
  7 13  1  0
 10  8  1  6
  8 14  1  0
 37 28  1  6
  4  5  1  0
 33 30  1  1
 30 38  1  0
 34 31  1  6
 31 39  1  0
 35 32  1  6
 32 40  1  0
 41 42  1  0
 41 43  1  0
 15 19  2  0
 16 22  2  0
 12 17  1  1
 17 19  1  0
 17 20  1  0
 18 19  1  0
 18 22  1  0
 18 23  1  0
  9 10  1  0
  9 11  1  0
 10 12  1  0
 11  5  1  1
 33 34  1  0
 33 35  1  0
 34 36  1  0
 35 37  1  0
 36 42  1  1
 20 21  2  0
 21 22  1  0
M  CHG  2   2  -1  26  -1
M  END
>  <COMPND>  (12) 
    8629 

>  <AUTHOR>  (12) 
    GENERATED BY OPEN BABEL 3.1.1

>  <MASTER>  (12) 
        0    0    0    0    0    0    0    0   58    0   58    0

>  <minimizedAffinity>  (12) 
-6.18711

>  <CNNscore>  (12) 
0.4120706320

>  <CNNaffinity>  (12) 
4.0094285011

>  <CNN_VS>  (12) 
1.6521676779

>  <CNNaffinity_variance>  (12) 
0.0909150466

$$$$
13
     RDKit          3D

 43 45  0  0  0  0  0  0  0  0999 V2000
   18.2881   71.7867   -1.7777 P   0  0  2  0  0  0  0  0  0  0  0  0
   17.7611   70.9406   -3.0520 O   0  0  0  0  0  0  0  0  0  0  0  0
   18.3638   73.2702   -1.9893 O   0  0  0  0  0  0  0  0  0  0  0  0
   19.6786   71.0620   -1.3785 O   0  0  0  0  0  0  0  0  0  0  0  0
   20.8706   71.8279   -1.3998 C   0  0  0  0  0  0  0  0  0  0  0  0
   21.3664   70.7217   -3.4745 O   0  0  0  0  0  0  0  0  0  0  0  0
   24.2549   71.0216   -2.7282 O   0  0  0  0  0  0  0  0  0  0  0  0
   23.8911   73.0442   -4.5208 O   0  0  0  0  0  0  0  0  0  0  0  0
   23.1656   71.9128   -2.4947 C   0  0  1  0  0  0  0  0  0  0  0  0
   22.7693   72.6071   -3.7810 C   0  0  2  0  0  0  0  0  0  0  0  0
   21.9300   71.0742   -2.1922 C   0  0  1  0  0  0  0  0  0  0  0  0
   21.9843   71.5208   -4.4965 C   0  0  2  0  0  0  0  0  0  0  0  0
   25.0557   71.5342   -2.9233 H   0  0  0  0  0  0  0  0  0  0  0  0
   24.3571   73.7347   -4.0240 H   0  0  0  0  0  0  0  0  0  0  0  0
   21.5382   70.6951   -7.1606 O   0  0  0  0  0  0  0  0  0  0  0  0
   18.0365   73.6459   -7.6821 O   0  0  0  0  0  0  0  0  0  0  0  0
   20.9626   72.0562   -5.3514 N   0  0  0  0  0  0  0  0  0  0  0  0
   19.7949   72.1649   -7.4180 N   0  0  0  0  0  0  0  0  0  0  0  0
   20.8232   71.5732   -6.6734 C   0  0  0  0  0  0  0  0  0  0  0  0
   20.1119   73.0486   -4.8768 C   0  0  0  0  0  0  0  0  0  0  0  0
   19.1370   73.6035   -5.6001 C   0  0  0  0  0  0  0  0  0  0  0  0
   18.9243   73.1552   -6.9914 C   0  0  0  0  0  0  0  0  0  0  0  0
   19.6792   71.8445   -8.3420 H   0  0  0  0  0  0  0  0  0  0  0  0
   17.2860   71.3259   -0.5960 O   0  0  0  0  0  0  0  0  0  0  0  0
   15.8242   71.8700   -0.1714 P   0  0  2  0  0  0  0  0  0  0  0  0
   15.1569   72.2835   -1.5861 O   0  0  0  0  0  0  0  0  0  0  0  0
   15.8500   72.9727    0.8470 O   0  0  0  0  0  0  0  0  0  0  0  0
   15.0160   70.5515    0.2906 O   0  0  0  0  0  0  0  0  0  0  0  0
   15.3772   68.3999    1.2163 O   0  0  0  0  0  0  0  0  0  0  0  0
   13.3637   67.3103   -2.2202 O   0  0  0  0  0  0  0  0  0  0  0  0
   12.0394   67.1168    0.3208 O   0  0  0  0  0  0  0  0  0  0  0  0
   15.2715   69.4862   -2.2929 O   0  0  0  0  0  0  0  0  0  0  0  0
   13.6698   68.1418   -1.0976 C   0  0  1  0  0  0  0  0  0  0  0  0
   13.4412   67.3287    0.1780 C   0  0  1  0  0  0  0  0  0  0  0  0
   15.1259   68.5937   -1.1935 C   0  0  2  0  0  0  0  0  0  0  0  0
   13.9994   68.0581    1.4074 C   0  0  1  0  0  0  0  0  0  0  0  0
   15.5956   69.2636    0.0990 C   0  0  1  0  0  0  0  0  0  0  0  0
   12.4404   67.0203   -2.1657 H   0  0  0  0  0  0  0  0  0  0  0  0
   11.6994   66.6559   -0.4622 H   0  0  0  0  0  0  0  0  0  0  0  0
   14.9711   69.0503   -3.1051 H   0  0  0  0  0  0  0  0  0  0  0  0
   12.5833   67.1825    3.1212 O   0  0  0  0  0  0  0  0  0  0  0  0
   13.9239   67.1972    2.6665 C   0  0  0  0  0  0  0  0  0  0  0  0
   12.5200   66.6380    3.9219 H   0  0  0  0  0  0  0  0  0  0  0  0
 25 28  1  0
 25 24  1  0
 25 26  1  6
 25 27  2  0
  1  4  1  0
  1 24  1  0
  1  2  1  6
  1  3  2  0
  6 11  1  0
  6 12  1  0
 29 36  1  0
 29 37  1  0
  9  7  1  6
  7 13  1  0
 10  8  1  6
  8 14  1  0
 37 28  1  1
  4  5  1  0
 33 30  1  6
 30 38  1  0
 34 31  1  1
 31 39  1  0
 35 32  1  6
 32 40  1  0
 41 42  1  0
 41 43  1  0
 15 19  2  0
 16 22  2  0
 12 17  1  6
 17 19  1  0
 17 20  1  0
 18 19  1  0
 18 22  1  0
 18 23  1  0
  9 10  1  0
  9 11  1  0
 10 12  1  0
 11  5  1  1
 33 34  1  0
 33 35  1  0
 34 36  1  0
 35 37  1  0
 36 42  1  1
 20 21  2  0
 21 22  1  0
M  CHG  2   2  -1  26  -1
M  END
>  <COMPND>  (13) 
    8629 

>  <AUTHOR>  (13) 
    GENERATED BY OPEN BABEL 3.1.1

>  <MASTER>  (13) 
        0    0    0    0    0    0    0    0   58    0   58    0

>  <minimizedAffinity>  (13) 
-6.25263

>  <CNNscore>  (13) 
0.4084723592

>  <CNNaffinity>  (13) 
4.1592602730

>  <CNN_VS>  (13) 
1.6989428997

>  <CNNaffinity_variance>  (13) 
0.0277623124

$$$$
14
     RDKit          3D

 43 45  0  0  0  0  0  0  0  0999 V2000
   20.9569   73.6481   -1.7581 P   0  0  2  0  0  0  0  0  0  0  0  0
   20.9257   73.1193   -0.2294 O   0  0  0  0  0  0  0  0  0  0  0  0
   20.5431   75.0786   -1.9424 O   0  0  0  0  0  0  0  0  0  0  0  0
   20.0807   72.5536   -2.5656 O   0  0  0  0  0  0  0  0  0  0  0  0
   19.5498   72.9117   -3.8297 C   0  0  0  0  0  0  0  0  0  0  0  0
   19.4318   71.4674   -5.7464 O   0  0  0  0  0  0  0  0  0  0  0  0
   22.1609   72.4901   -6.4514 O   0  0  0  0  0  0  0  0  0  0  0  0
   20.5414   73.9246   -8.1115 O   0  0  0  0  0  0  0  0  0  0  0  0
   21.0642   73.1817   -5.8562 C   0  0  1  0  0  0  0  0  0  0  0  0
   19.9960   73.4639   -6.8921 C   0  0  2  0  0  0  0  0  0  0  0  0
   20.3515   72.2139   -4.9199 C   0  0  1  0  0  0  0  0  0  0  0  0
   19.3229   72.1086   -7.0277 C   0  0  2  0  0  0  0  0  0  0  0  0
   22.6317   73.0881   -7.0535 H   0  0  0  0  0  0  0  0  0  0  0  0
   20.9581   74.7895   -7.9732 H   0  0  0  0  0  0  0  0  0  0  0  0
   17.8622   70.1238   -8.4078 O   0  0  0  0  0  0  0  0  0  0  0  0
   14.0029   72.6415   -8.3171 O   0  0  0  0  0  0  0  0  0  0  0  0
   17.9348   72.2191   -7.3775 N   0  0  0  0  0  0  0  0  0  0  0  0
   15.9417   71.3789   -8.3614 N   0  0  0  0  0  0  0  0  0  0  0  0
   17.2954   71.1656   -8.0716 C   0  0  0  0  0  0  0  0  0  0  0  0
   17.2220   73.3622   -7.0323 C   0  0  0  0  0  0  0  0  0  0  0  0
   15.9318   73.5507   -7.3170 C   0  0  0  0  0  0  0  0  0  0  0  0
   15.1898   72.4981   -8.0406 C   0  0  0  0  0  0  0  0  0  0  0  0
   15.4756   70.6586   -8.8448 H   0  0  0  0  0  0  0  0  0  0  0  0
   22.4690   73.3196   -2.2255 O   0  0  0  0  0  0  0  0  0  0  0  0
   23.3163   71.9435   -2.1885 P   0  0  2  0  0  0  0  0  0  0  0  0
   24.5007   72.2082   -3.2584 O   0  0  0  0  0  0  0  0  0  0  0  0
   22.5016   70.7118   -2.4587 O   0  0  0  0  0  0  0  0  0  0  0  0
   24.0535   71.9562   -0.7528 O   0  0  0  0  0  0  0  0  0  0  0  0
   23.8885   73.7389    0.8000 O   0  0  0  0  0  0  0  0  0  0  0  0
   27.5786   72.2465    1.8985 O   0  0  0  0  0  0  0  0  0  0  0  0
   25.3126   71.8283    3.6125 O   0  0  0  0  0  0  0  0  0  0  0  0
   26.8305   72.3344   -0.8965 O   0  0  0  0  0  0  0  0  0  0  0  0
   26.2295   72.1708    1.4301 C   0  0  1  0  0  0  0  0  0  0  0  0
   25.3125   72.7378    2.5157 C   0  0  1  0  0  0  0  0  0  0  0  0
   26.1022   72.9813    0.1416 C   0  0  2  0  0  0  0  0  0  0  0  0
   23.8857   72.9373    1.9870 C   0  0  1  0  0  0  0  0  0  0  0  0
   24.6399   73.1621   -0.2699 C   0  0  1  0  0  0  0  0  0  0  0  0
   27.6664   71.7336    2.7162 H   0  0  0  0  0  0  0  0  0  0  0  0
   26.2194   71.7108    3.9366 H   0  0  0  0  0  0  0  0  0  0  0  0
   27.7545   72.2262   -0.6240 H   0  0  0  0  0  0  0  0  0  0  0  0
   22.3670   72.6694    3.8121 O   0  0  0  0  0  0  0  0  0  0  0  0
   22.9935   73.6476    3.0028 C   0  0  0  0  0  0  0  0  0  0  0  0
   21.7962   73.1069    4.4636 H   0  0  0  0  0  0  0  0  0  0  0  0
 25 28  1  0
 25 24  1  0
 25 26  1  6
 25 27  2  0
  1  4  1  0
  1 24  1  0
  1  2  1  1
  1  3  2  0
  6 11  1  0
  6 12  1  0
 29 36  1  0
 29 37  1  0
  9  7  1  6
  7 13  1  0
 10  8  1  6
  8 14  1  0
 37 28  1  1
  4  5  1  0
 33 30  1  1
 30 38  1  0
 34 31  1  1
 31 39  1  0
 35 32  1  6
 32 40  1  0
 41 42  1  0
 41 43  1  0
 15 19  2  0
 16 22  2  0
 12 17  1  1
 17 19  1  0
 17 20  1  0
 18 19  1  0
 18 22  1  0
 18 23  1  0
  9 10  1  0
  9 11  1  0
 10 12  1  0
 11  5  1  1
 33 34  1  0
 33 35  1  0
 34 36  1  0
 35 37  1  0
 36 42  1  1
 20 21  2  0
 21 22  1  0
M  CHG  2   2  -1  26  -1
M  END
>  <COMPND>  (14) 
    8629 

>  <AUTHOR>  (14) 
    GENERATED BY OPEN BABEL 3.1.1

>  <MASTER>  (14) 
        0    0    0    0    0    0    0    0   58    0   58    0

>  <minimizedAffinity>  (14) 
-6.31113

>  <CNNscore>  (14) 
0.4028142691

>  <CNNaffinity>  (14) 
4.2806077003

>  <CNN_VS>  (14) 
1.7242898941

>  <CNNaffinity_variance>  (14) 
0.1099630743

$$$$
15
     RDKit          3D

 43 45  0  0  0  0  0  0  0  0999 V2000
   21.2630   72.6629   -1.2274 P   0  0  2  0  0  0  0  0  0  0  0  0
   20.2769   73.8829   -1.6232 O   0  0  0  0  0  0  0  0  0  0  0  0
   20.6274   71.3038   -1.2424 O   0  0  0  0  0  0  0  0  0  0  0  0
   21.9032   73.1236    0.1854 O   0  0  0  0  0  0  0  0  0  0  0  0
   23.3128   73.1007    0.3284 C   0  0  0  0  0  0  0  0  0  0  0  0
   25.0049   72.0740    1.6909 O   0  0  0  0  0  0  0  0  0  0  0  0
   22.8920   70.1083    2.5049 O   0  0  0  0  0  0  0  0  0  0  0  0
   22.9758   71.8074    4.6362 O   0  0  0  0  0  0  0  0  0  0  0  0
   22.7696   71.5034    2.2328 C   0  0  1  0  0  0  0  0  0  0  0  0
   23.3515   72.3143    3.3718 C   0  0  2  0  0  0  0  0  0  0  0  0
   23.7138   71.8424    1.0861 C   0  0  1  0  0  0  0  0  0  0  0  0
   24.8439   72.1942    3.1138 C   0  0  2  0  0  0  0  0  0  0  0  0
   22.2980   69.8678    3.2338 H   0  0  0  0  0  0  0  0  0  0  0  0
   22.0180   71.9064    4.7528 H   0  0  0  0  0  0  0  0  0  0  0  0
   27.5149   72.1299    4.0300 O   0  0  0  0  0  0  0  0  0  0  0  0
   27.5387   76.6666    4.8414 O   0  0  0  0  0  0  0  0  0  0  0  0
   25.5728   73.3439    3.5700 N   0  0  0  0  0  0  0  0  0  0  0  0
   27.5246   74.3889    4.4331 N   0  0  0  0  0  0  0  0  0  0  0  0
   26.9095   73.2036    4.0105 C   0  0  0  0  0  0  0  0  0  0  0  0
   24.9624   74.5934    3.5774 C   0  0  0  0  0  0  0  0  0  0  0  0
   25.5624   75.7139    3.9847 C   0  0  0  0  0  0  0  0  0  0  0  0
   26.9596   75.6541    4.4604 C   0  0  0  0  0  0  0  0  0  0  0  0
   28.4559   74.3154    4.7446 H   0  0  0  0  0  0  0  0  0  0  0  0
   22.4942   72.8412   -2.2595 O   0  0  0  0  0  0  0  0  0  0  0  0
   22.5913   73.6228   -3.6711 P   0  0  2  0  0  0  0  0  0  0  0  0
   23.7922   72.8561   -4.4379 O   0  0  0  0  0  0  0  0  0  0  0  0
   22.7866   75.1056   -3.5413 O   0  0  0  0  0  0  0  0  0  0  0  0
   21.2568   73.1912   -4.4697 O   0  0  0  0  0  0  0  0  0  0  0  0
   20.0614   71.1483   -4.3498 O   0  0  0  0  0  0  0  0  0  0  0  0
   19.4503   72.0375   -8.3356 O   0  0  0  0  0  0  0  0  0  0  0  0
   17.2775   72.2971   -6.4756 O   0  0  0  0  0  0  0  0  0  0  0  0
   22.0106   72.5988   -7.1071 O   0  0  0  0  0  0  0  0  0  0  0  0
   19.6222   72.3314   -6.9466 C   0  0  1  0  0  0  0  0  0  0  0  0
   18.5027   71.6382   -6.1675 C   0  0  1  0  0  0  0  0  0  0  0  0
   20.9887   71.8204   -6.4937 C   0  0  2  0  0  0  0  0  0  0  0  0
   18.7688   71.6837   -4.6568 C   0  0  1  0  0  0  0  0  0  0  0  0
   21.1314   71.8630   -4.9712 C   0  0  1  0  0  0  0  0  0  0  0  0
   18.5847   72.3598   -8.6297 H   0  0  0  0  0  0  0  0  0  0  0  0
   17.1216   72.2617   -7.4325 H   0  0  0  0  0  0  0  0  0  0  0  0
   21.9094   72.5634   -8.0706 H   0  0  0  0  0  0  0  0  0  0  0  0
   17.1717   69.9087   -4.7438 O   0  0  0  0  0  0  0  0  0  0  0  0
   17.7481   70.8631   -3.8714 C   0  0  0  0  0  0  0  0  0  0  0  0
   16.5202   69.3789   -4.2574 H   0  0  0  0  0  0  0  0  0  0  0  0
 25 28  1  0
 25 24  1  0
 25 26  1  6
 25 27  2  0
  1  4  1  0
  1 24  1  0
  1  2  1  6
  1  3  2  0
  6 11  1  0
  6 12  1  0
 29 36  1  0
 29 37  1  0
  9  7  1  1
  7 13  1  0
 10  8  1  1
  8 14  1  0
 37 28  1  1
  4  5  1  0
 33 30  1  6
 30 38  1  0
 34 31  1  1
 31 39  1  0
 35 32  1  6
 32 40  1  0
 41 42  1  0
 41 43  1  0
 15 19  2  0
 16 22  2  0
 12 17  1  6
 17 19  1  0
 17 20  1  0
 18 19  1  0
 18 22  1  0
 18 23  1  0
  9 10  1  0
  9 11  1  0
 10 12  1  0
 11  5  1  1
 33 34  1  0
 33 35  1  0
 34 36  1  0
 35 37  1  0
 36 42  1  1
 20 21  2  0
 21 22  1  0
M  CHG  2   2  -1  26  -1
M  END
>  <COMPND>  (15) 
    8629 

>  <AUTHOR>  (15) 
    GENERATED BY OPEN BABEL 3.1.1

>  <MASTER>  (15) 
        0    0    0    0    0    0    0    0   58    0   58    0

>  <minimizedAffinity>  (15) 
-6.24276

>  <CNNscore>  (15) 
0.3953977227

>  <CNNaffinity>  (15) 
3.9918949604

>  <CNN_VS>  (15) 
1.5783861876

>  <CNNaffinity_variance>  (15) 
0.2552432120

$$$$
16
     RDKit          3D

 43 45  0  0  0  0  0  0  0  0999 V2000
   22.1548   72.9286   -4.7089 P   0  0  2  0  0  0  0  0  0  0  0  0
   23.7610   72.8458   -4.5342 O   0  0  0  0  0  0  0  0  0  0  0  0
   21.5359   74.2244   -4.2738 O   0  0  0  0  0  0  0  0  0  0  0  0
   21.6132   71.6033   -3.9550 O   0  0  0  0  0  0  0  0  0  0  0  0
   22.2194   71.2265   -2.7309 C   0  0  0  0  0  0  0  0  0  0  0  0
   21.7833   70.7505   -0.4163 O   0  0  0  0  0  0  0  0  0  0  0  0
   19.2395   72.2979   -0.7709 O   0  0  0  0  0  0  0  0  0  0  0  0
   20.8652   74.1027    0.4686 O   0  0  0  0  0  0  0  0  0  0  0  0
   20.5229   72.5265   -1.3507 C   0  0  1  0  0  0  0  0  0  0  0  0
   21.4720   73.0979   -0.3181 C   0  0  2  0  0  0  0  0  0  0  0  0
   21.1526   71.1709   -1.6459 C   0  0  1  0  0  0  0  0  0  0  0  0
   21.8385   71.8645    0.4897 C   0  0  2  0  0  0  0  0  0  0  0  0
   18.8176   73.1494   -0.5739 H   0  0  0  0  0  0  0  0  0  0  0  0
   20.6510   74.8659   -0.0903 H   0  0  0  0  0  0  0  0  0  0  0  0
   22.7469   70.3253    2.6769 O   0  0  0  0  0  0  0  0  0  0  0  0
   26.9246   72.2671    2.5437 O   0  0  0  0  0  0  0  0  0  0  0  0
   23.1591   71.9473    1.0470 N   0  0  0  0  0  0  0  0  0  0  0  0
   24.8264   71.2933    2.6087 N   0  0  0  0  0  0  0  0  0  0  0  0
   23.5143   71.1310    2.1461 C   0  0  0  0  0  0  0  0  0  0  0  0
   24.0863   72.8301    0.5041 C   0  0  0  0  0  0  0  0  0  0  0  0
   25.3333   72.9738    0.9576 C   0  0  0  0  0  0  0  0  0  0  0  0
   25.7844   72.1581    2.1035 C   0  0  0  0  0  0  0  0  0  0  0  0
   25.0961   70.7353    3.3740 H   0  0  0  0  0  0  0  0  0  0  0  0
   21.9401   72.5714   -6.2707 O   0  0  0  0  0  0  0  0  0  0  0  0
   21.0208   73.2690   -7.4025 P   0  0  2  0  0  0  0  0  0  0  0  0
   21.4282   72.4756   -8.7524 O   0  0  0  0  0  0  0  0  0  0  0  0
   21.1768   74.7597   -7.4894 O   0  0  0  0  0  0  0  0  0  0  0  0
   19.5209   72.7715   -7.0742 O   0  0  0  0  0  0  0  0  0  0  0  0
   18.9071   70.8978   -5.7593 O   0  0  0  0  0  0  0  0  0  0  0  0
   15.7325   70.9192   -8.3998 O   0  0  0  0  0  0  0  0  0  0  0  0
   15.3195   71.7416   -5.6793 O   0  0  0  0  0  0  0  0  0  0  0  0
   18.3960   71.5545   -9.3389 O   0  0  0  0  0  0  0  0  0  0  0  0
   16.7502   71.5018   -7.5811 C   0  0  1  0  0  0  0  0  0  0  0  0
   16.4985   71.0815   -6.1316 C   0  0  1  0  0  0  0  0  0  0  0  0
   18.1157   71.0075   -8.0548 C   0  0  2  0  0  0  0  0  0  0  0  0
   17.6905   71.4428   -5.2352 C   0  0  1  0  0  0  0  0  0  0  0  0
   19.2240   71.3776   -7.0675 C   0  0  1  0  0  0  0  0  0  0  0  0
   14.8629   71.2294   -8.1046 H   0  0  0  0  0  0  0  0  0  0  0  0
   14.5745   71.5054   -6.2541 H   0  0  0  0  0  0  0  0  0  0  0  0
   17.6874   71.3129   -9.9548 H   0  0  0  0  0  0  0  0  0  0  0  0
   16.5736   69.8487   -3.8495 O   0  0  0  0  0  0  0  0  0  0  0  0
   17.5289   70.8931   -3.8196 C   0  0  0  0  0  0  0  0  0  0  0  0
   16.4606   69.4890   -2.9553 H   0  0  0  0  0  0  0  0  0  0  0  0
 25 28  1  0
 25 24  1  0
 25 26  1  6
 25 27  2  0
  1  4  1  0
  1 24  1  0
  1  2  1  6
  1  3  2  0
  6 11  1  0
  6 12  1  0
 29 36  1  0
 29 37  1  0
  9  7  1  1
  7 13  1  0
 10  8  1  1
  8 14  1  0
 37 28  1  1
  4  5  1  0
 33 30  1  6
 30 38  1  0
 34 31  1  1
 31 39  1  0
 35 32  1  6
 32 40  1  0
 41 42  1  0
 41 43  1  0
 15 19  2  0
 16 22  2  0
 12 17  1  6
 17 19  1  0
 17 20  1  0
 18 19  1  0
 18 22  1  0
 18 23  1  0
  9 10  1  0
  9 11  1  0
 10 12  1  0
 11  5  1  6
 33 34  1  0
 33 35  1  0
 34 36  1  0
 35 37  1  0
 36 42  1  1
 20 21  2  0
 21 22  1  0
M  CHG  2   2  -1  26  -1
M  END
>  <COMPND>  (16) 
    8629 

>  <AUTHOR>  (16) 
    GENERATED BY OPEN BABEL 3.1.1

>  <MASTER>  (16) 
        0    0    0    0    0    0    0    0   58    0   58    0

>  <minimizedAffinity>  (16) 
-7.68684

>  <CNNscore>  (16) 
0.3782720268

>  <CNNaffinity>  (16) 
4.1579694748

>  <CNN_VS>  (16) 
1.5728435516

>  <CNNaffinity_variance>  (16) 
0.0857514516

$$$$
17
     RDKit          3D

 43 45  0  0  0  0  0  0  0  0999 V2000
   18.6171   71.5269   -1.9115 P   0  0  2  0  0  0  0  0  0  0  0  0
   17.8297   70.3288   -1.1618 O   0  0  0  0  0  0  0  0  0  0  0  0
   17.8144   72.7765   -2.1252 O   0  0  0  0  0  0  0  0  0  0  0  0
   19.2019   70.8299   -3.2494 O   0  0  0  0  0  0  0  0  0  0  0  0
   19.6945   71.6620   -4.2852 C   0  0  0  0  0  0  0  0  0  0  0  0
   18.9219   70.3014   -6.1088 O   0  0  0  0  0  0  0  0  0  0  0  0
   21.6706   70.6180   -7.2641 O   0  0  0  0  0  0  0  0  0  0  0  0
   20.2107   72.4176   -8.7017 O   0  0  0  0  0  0  0  0  0  0  0  0
   20.8866   71.5574   -6.5304 C   0  0  1  0  0  0  0  0  0  0  0  0
   19.7699   72.1008   -7.3971 C   0  0  2  0  0  0  0  0  0  0  0  0
   20.1162   70.7923   -5.4616 C   0  0  1  0  0  0  0  0  0  0  0  0
   18.7716   70.9557   -7.3793 C   0  0  2  0  0  0  0  0  0  0  0  0
   22.1721   71.0834   -7.9525 H   0  0  0  0  0  0  0  0  0  0  0  0
   20.8437   73.1514   -8.6600 H   0  0  0  0  0  0  0  0  0  0  0  0
   16.6915   69.4438   -8.5478 O   0  0  0  0  0  0  0  0  0  0  0  0
   13.6093   72.7964   -7.8396 O   0  0  0  0  0  0  0  0  0  0  0  0
   17.4158   71.4089   -7.5129 N   0  0  0  0  0  0  0  0  0  0  0  0
   15.1585   71.1143   -8.1941 N   0  0  0  0  0  0  0  0  0  0  0  0
   16.4477   70.5724   -8.1159 C   0  0  0  0  0  0  0  0  0  0  0  0
   17.0577   72.6698   -7.0486 C   0  0  0  0  0  0  0  0  0  0  0  0
   15.8241   73.1724   -7.1318 C   0  0  0  0  0  0  0  0  0  0  0  0
   14.7535   72.3625   -7.7482 C   0  0  0  0  0  0  0  0  0  0  0  0
   14.4676   70.5496   -8.6107 H   0  0  0  0  0  0  0  0  0  0  0  0
   19.9360   71.7226   -0.9976 O   0  0  0  0  0  0  0  0  0  0  0  0
   20.7223   73.0591   -0.5410 P   0  0  2  0  0  0  0  0  0  0  0  0
   19.6556   73.8080    0.4176 O   0  0  0  0  0  0  0  0  0  0  0  0
   21.2254   73.8968   -1.6808 O   0  0  0  0  0  0  0  0  0  0  0  0
   21.8728   72.5338    0.4617 O   0  0  0  0  0  0  0  0  0  0  0  0
   22.1969   73.7632    2.4617 O   0  0  0  0  0  0  0  0  0  0  0  0
   25.7545   71.6682    2.3911 O   0  0  0  0  0  0  0  0  0  0  0  0
   23.7292   70.9594    4.3000 O   0  0  0  0  0  0  0  0  0  0  0  0
   24.6235   72.6765   -0.0753 O   0  0  0  0  0  0  0  0  0  0  0  0
   24.3544   71.8659    2.1767 C   0  0  1  0  0  0  0  0  0  0  0  0
   23.6987   72.1567    3.5281 C   0  0  1  0  0  0  0  0  0  0  0  0
   24.1569   73.0399    1.2196 C   0  0  2  0  0  0  0  0  0  0  0  0
   22.2534   72.6408    3.3498 C   0  0  1  0  0  0  0  0  0  0  0  0
   22.6915   73.4737    1.1527 C   0  0  1  0  0  0  0  0  0  0  0  0
   25.8869   70.9238    2.9977 H   0  0  0  0  0  0  0  0  0  0  0  0
   24.6474   70.6641    4.4048 H   0  0  0  0  0  0  0  0  0  0  0  0
   25.5522   72.4042   -0.0196 H   0  0  0  0  0  0  0  0  0  0  0  0
   21.1116   71.9466    5.3305 O   0  0  0  0  0  0  0  0  0  0  0  0
   21.6323   73.0864    4.6718 C   0  0  0  0  0  0  0  0  0  0  0  0
   20.7133   72.2149    6.1738 H   0  0  0  0  0  0  0  0  0  0  0  0
 25 28  1  0
 25 24  1  0
 25 26  1  1
 25 27  2  0
  1  4  1  0
  1 24  1  0
  1  2  1  1
  1  3  2  0
  6 11  1  0
  6 12  1  0
 29 36  1  0
 29 37  1  0
  9  7  1  6
  7 13  1  0
 10  8  1  6
  8 14  1  0
 37 28  1  1
  4  5  1  0
 33 30  1  1
 30 38  1  0
 34 31  1  1
 31 39  1  0
 35 32  1  6
 32 40  1  0
 41 42  1  0
 41 43  1  0
 15 19  2  0
 16 22  2  0
 12 17  1  1
 17 19  1  0
 17 20  1  0
 18 19  1  0
 18 22  1  0
 18 23  1  0
  9 10  1  0
  9 11  1  0
 10 12  1  0
 11  5  1  1
 33 34  1  0
 33 35  1  0
 34 36  1  0
 35 37  1  0
 36 42  1  1
 20 21  2  0
 21 22  1  0
M  CHG  2   2  -1  26  -1
M  END
>  <COMPND>  (17) 
    8629 

>  <AUTHOR>  (17) 
    GENERATED BY OPEN BABEL 3.1.1

>  <MASTER>  (17) 
        0    0    0    0    0    0    0    0   58    0   58    0

>  <minimizedAffinity>  (17) 
-6.47600

>  <CNNscore>  (17) 
0.3387260735

>  <CNNaffinity>  (17) 
4.1274046898

>  <CNN_VS>  (17) 
1.3980596066

>  <CNNaffinity_variance>  (17) 
0.0705427527

$$$$
18
     RDKit          3D

 43 45  0  0  0  0  0  0  0  0999 V2000
   21.3095   70.9843   -2.5364 P   0  0  2  0  0  0  0  0  0  0  0  0
   20.2950   69.9409   -1.8296 O   0  0  0  0  0  0  0  0  0  0  0  0
   22.6566   70.4221   -2.8835 O   0  0  0  0  0  0  0  0  0  0  0  0
   21.3155   72.2573   -1.5377 O   0  0  0  0  0  0  0  0  0  0  0  0
   22.5528   72.6862   -0.9965 C   0  0  0  0  0  0  0  0  0  0  0  0
   24.4020   71.8267    0.2746 O   0  0  0  0  0  0  0  0  0  0  0  0
   22.3586   70.8775    2.2531 O   0  0  0  0  0  0  0  0  0  0  0  0
   23.3115   73.1478    3.4255 O   0  0  0  0  0  0  0  0  0  0  0  0
   22.3664   72.0660    1.4639 C   0  0  1  0  0  0  0  0  0  0  0  0
   23.3689   73.0576    2.0165 C   0  0  2  0  0  0  0  0  0  0  0  0
   22.9709   71.7248    0.1077 C   0  0  1  0  0  0  0  0  0  0  0  0
   24.6854   72.4841    1.5205 C   0  0  2  0  0  0  0  0  0  0  0  0
   21.9765   71.0705    3.1241 H   0  0  0  0  0  0  0  0  0  0  0  0
   22.4554   73.5180    3.6914 H   0  0  0  0  0  0  0  0  0  0  0  0
   27.3498   72.3460    2.4479 O   0  0  0  0  0  0  0  0  0  0  0  0
   28.3964   76.4391    0.6060 O   0  0  0  0  0  0  0  0  0  0  0  0
   25.6757   73.4995    1.2973 N   0  0  0  0  0  0  0  0  0  0  0  0
   27.8688   74.3841    1.5299 N   0  0  0  0  0  0  0  0  0  0  0  0
   26.9847   73.3334    1.8064 C   0  0  0  0  0  0  0  0  0  0  0  0
   25.3450   74.6442    0.5802 C   0  0  0  0  0  0  0  0  0  0  0  0
   26.1993   75.6376    0.3262 C   0  0  0  0  0  0  0  0  0  0  0  0
   27.5872   75.5424    0.8229 C   0  0  0  0  0  0  0  0  0  0  0  0
   28.7863   74.2905    1.8750 H   0  0  0  0  0  0  0  0  0  0  0  0
   20.4574   71.5192   -3.8017 O   0  0  0  0  0  0  0  0  0  0  0  0
   19.0110   72.2365   -3.8806 P   0  0  2  0  0  0  0  0  0  0  0  0
   19.3722   73.7541   -4.3094 O   0  0  0  0  0  0  0  0  0  0  0  0
   18.1994   72.1250   -2.6225 O   0  0  0  0  0  0  0  0  0  0  0  0
   18.3099   71.5995   -5.1874 O   0  0  0  0  0  0  0  0  0  0  0  0
   18.7389   72.2033   -7.4387 O   0  0  0  0  0  0  0  0  0  0  0  0
   14.7804   71.0842   -7.7984 O   0  0  0  0  0  0  0  0  0  0  0  0
   16.8357   69.3932   -8.8775 O   0  0  0  0  0  0  0  0  0  0  0  0
   15.6687   72.5128   -5.4427 O   0  0  0  0  0  0  0  0  0  0  0  0
   16.1111   71.0178   -7.2786 C   0  0  1  0  0  0  0  0  0  0  0  0
   17.0655   70.7293   -8.4391 C   0  0  1  0  0  0  0  0  0  0  0  0
   16.4559   72.3511   -6.6177 C   0  0  2  0  0  0  0  0  0  0  0  0
   18.5283   70.9070   -8.0106 C   0  0  1  0  0  0  0  0  0  0  0  0
   17.9441   72.4439   -6.2758 C   0  0  1  0  0  0  0  0  0  0  0  0
   14.5551   70.2405   -8.2190 H   0  0  0  0  0  0  0  0  0  0  0  0
   15.9083   69.2942   -9.1447 H   0  0  0  0  0  0  0  0  0  0  0  0
   14.7288   72.4524   -5.6725 H   0  0  0  0  0  0  0  0  0  0  0  0
   18.7887   71.0992  -10.3779 O   0  0  0  0  0  0  0  0  0  0  0  0
   19.4895   70.7785   -9.1904 C   0  0  0  0  0  0  0  0  0  0  0  0
   19.3881   71.0220  -11.1372 H   0  0  0  0  0  0  0  0  0  0  0  0
 25 28  1  0
 25 24  1  0
 25 26  1  6
 25 27  2  0
  1  4  1  0
  1 24  1  0
  1  2  1  1
  1  3  2  0
  6 11  1  0
  6 12  1  0
 29 36  1  0
 29 37  1  0
  9  7  1  1
  7 13  1  0
 10  8  1  1
  8 14  1  0
 37 28  1  1
  4  5  1  0
 33 30  1  6
 30 38  1  0
 34 31  1  1
 31 39  1  0
 35 32  1  1
 32 40  1  0
 41 42  1  0
 41 43  1  0
 15 19  2  0
 16 22  2  0
 12 17  1  6
 17 19  1  0
 17 20  1  0
 18 19  1  0
 18 22  1  0
 18 23  1  0
  9 10  1  0
  9 11  1  0
 10 12  1  0
 11  5  1  6
 33 34  1  0
 33 35  1  0
 34 36  1  0
 35 37  1  0
 36 42  1  6
 20 21  2  0
 21 22  1  0
M  CHG  2   2  -1  26  -1
M  END
>  <COMPND>  (18) 
    8629 

>  <AUTHOR>  (18) 
    GENERATED BY OPEN BABEL 3.1.1

>  <MASTER>  (18) 
        0    0    0    0    0    0    0    0   58    0   58    0

>  <minimizedAffinity>  (18) 
-6.27306

>  <CNNscore>  (18) 
0.3381689489

>  <CNNaffinity>  (18) 
4.0812673569

>  <CNN_VS>  (18) 
1.3801579475

>  <CNNaffinity_variance>  (18) 
0.2398633212

$$$$
19
     RDKit          3D

 43 45  0  0  0  0  0  0  0  0999 V2000
   21.4465   71.2908   -2.2611 P   0  0  2  0  0  0  0  0  0  0  0  0
   20.7308   69.8704   -1.9650 O   0  0  0  0  0  0  0  0  0  0  0  0
   22.8863   71.2011   -2.6738 O   0  0  0  0  0  0  0  0  0  0  0  0
   21.1501   72.1602   -0.9291 O   0  0  0  0  0  0  0  0  0  0  0  0
   22.2484   72.7086   -0.2214 C   0  0  0  0  0  0  0  0  0  0  0  0
   24.3547   71.8959    0.6013 O   0  0  0  0  0  0  0  0  0  0  0  0
   22.7516   70.1781    2.4641 O   0  0  0  0  0  0  0  0  0  0  0  0
   23.5331   72.2342    4.0760 O   0  0  0  0  0  0  0  0  0  0  0  0
   22.4873   71.5032    2.0064 C   0  0  1  0  0  0  0  0  0  0  0  0
   23.4093   72.4899    2.6918 C   0  0  2  0  0  0  0  0  0  0  0  0
   22.9421   71.5979    0.5553 C   0  0  1  0  0  0  0  0  0  0  0  0
   24.7122   72.2787    1.9394 C   0  0  2  0  0  0  0  0  0  0  0  0
   22.4691   70.0932    3.3887 H   0  0  0  0  0  0  0  0  0  0  0  0
   22.6784   72.3824    4.5100 H   0  0  0  0  0  0  0  0  0  0  0  0
   27.4990   72.3495    2.3943 O   0  0  0  0  0  0  0  0  0  0  0  0
   27.6800   76.9035    1.7086 O   0  0  0  0  0  0  0  0  0  0  0  0
   25.5128   73.4693    1.8857 N   0  0  0  0  0  0  0  0  0  0  0  0
   27.5869   74.6169    2.0523 N   0  0  0  0  0  0  0  0  0  0  0  0
   26.9039   73.3965    2.1308 C   0  0  0  0  0  0  0  0  0  0  0  0
   24.9182   74.6917    1.5923 C   0  0  0  0  0  0  0  0  0  0  0  0
   25.5833   75.8466    1.5225 C   0  0  0  0  0  0  0  0  0  0  0  0
   27.0403   75.8578    1.7654 C   0  0  0  0  0  0  0  0  0  0  0  0
   28.5569   74.5907    2.2198 H   0  0  0  0  0  0  0  0  0  0  0  0
   20.4725   71.9664   -3.3601 O   0  0  0  0  0  0  0  0  0  0  0  0
   18.8901   72.2939   -3.3178 P   0  0  2  0  0  0  0  0  0  0  0  0
   18.8480   73.8832   -3.0177 O   0  0  0  0  0  0  0  0  0  0  0  0
   18.1147   71.4585   -2.3407 O   0  0  0  0  0  0  0  0  0  0  0  0
   18.4032   72.1555   -4.8503 O   0  0  0  0  0  0  0  0  0  0  0  0
   17.4136   70.3901   -6.0836 O   0  0  0  0  0  0  0  0  0  0  0  0
   20.0626   71.7795   -8.9301 O   0  0  0  0  0  0  0  0  0  0  0  0
   17.2520   72.2783   -9.2455 O   0  0  0  0  0  0  0  0  0  0  0  0
   20.8493   71.6931   -6.1457 O   0  0  0  0  0  0  0  0  0  0  0  0
   19.1466   71.8921   -7.8376 C   0  0  1  0  0  0  0  0  0  0  0  0
   17.7868   71.3609   -8.2953 C   0  0  1  0  0  0  0  0  0  0  0  0
   19.6733   71.0762   -6.6585 C   0  0  2  0  0  0  0  0  0  0  0  0
   16.8268   71.2003   -7.1088 C   0  0  1  0  0  0  0  0  0  0  0  0
   18.6235   70.9362   -5.5547 C   0  0  1  0  0  0  0  0  0  0  0  0
   19.7343   72.2957   -9.6820 H   0  0  0  0  0  0  0  0  0  0  0  0
   17.8679   72.3710   -9.9893 H   0  0  0  0  0  0  0  0  0  0  0  0
   21.5061   71.7757   -6.8539 H   0  0  0  0  0  0  0  0  0  0  0  0
   15.7424   69.8037   -8.7157 O   0  0  0  0  0  0  0  0  0  0  0  0
   15.5198   70.5247   -7.5179 C   0  0  0  0  0  0  0  0  0  0  0  0
   14.9191   69.3681   -8.9880 H   0  0  0  0  0  0  0  0  0  0  0  0
 25 28  1  0
 25 24  1  0
 25 26  1  1
 25 27  2  0
  1  4  1  0
  1 24  1  0
  1  2  1  1
  1  3  2  0
  6 11  1  0
  6 12  1  0
 29 36  1  0
 29 37  1  0
  9  7  1  1
  7 13  1  0
 10  8  1  1
  8 14  1  0
 37 28  1  6
  4  5  1  0
 33 30  1  6
 30 38  1  0
 34 31  1  6
 31 39  1  0
 35 32  1  1
 32 40  1  0
 41 42  1  0
 41 43  1  0
 15 19  2  0
 16 22  2  0
 12 17  1  6
 17 19  1  0
 17 20  1  0
 18 19  1  0
 18 22  1  0
 18 23  1  0
  9 10  1  0
  9 11  1  0
 10 12  1  0
 11  5  1  6
 33 34  1  0
 33 35  1  0
 34 36  1  0
 35 37  1  0
 36 42  1  6
 20 21  2  0
 21 22  1  0
M  CHG  2   2  -1  26  -1
M  END
>  <COMPND>  (19) 
    8629 

>  <AUTHOR>  (19) 
    GENERATED BY OPEN BABEL 3.1.1

>  <MASTER>  (19) 
        0    0    0    0    0    0    0    0   58    0   58    0

>  <minimizedAffinity>  (19) 
-6.28607

>  <CNNscore>  (19) 
0.3288039565

>  <CNNaffinity>  (19) 
4.1397261620

>  <CNN_VS>  (19) 
1.3611583710

>  <CNNaffinity_variance>  (19) 
0.2470545322

$$$$
20
     RDKit          3D

 43 45  0  0  0  0  0  0  0  0999 V2000
   22.2079   73.0354   -4.6297 P   0  0  2  0  0  0  0  0  0  0  0  0
   23.7930   72.8604   -4.3569 O   0  0  0  0  0  0  0  0  0  0  0  0
   21.6367   74.3607   -4.2188 O   0  0  0  0  0  0  0  0  0  0  0  0
   21.5470   71.7369   -3.9261 O   0  0  0  0  0  0  0  0  0  0  0  0
   22.1550   71.2192   -2.7556 C   0  0  0  0  0  0  0  0  0  0  0  0
   21.7738   70.7137   -0.4376 O   0  0  0  0  0  0  0  0  0  0  0  0
   19.2060   72.2359   -0.7212 O   0  0  0  0  0  0  0  0  0  0  0  0
   20.8377   74.0456    0.5031 O   0  0  0  0  0  0  0  0  0  0  0  0
   20.4741   72.4852   -1.3256 C   0  0  1  0  0  0  0  0  0  0  0  0
   21.4387   73.0562   -0.3072 C   0  0  2  0  0  0  0  0  0  0  0  0
   21.1124   71.1400   -1.6489 C   0  0  1  0  0  0  0  0  0  0  0  0
   21.8360   71.8185    0.4791 C   0  0  2  0  0  0  0  0  0  0  0  0
   18.7790   73.0804   -0.5060 H   0  0  0  0  0  0  0  0  0  0  0  0
   20.6032   74.8123   -0.0428 H   0  0  0  0  0  0  0  0  0  0  0  0
   22.7563   70.3931    2.7372 O   0  0  0  0  0  0  0  0  0  0  0  0
   26.9627   72.2502    2.4233 O   0  0  0  0  0  0  0  0  0  0  0  0
   23.1672   71.9103    1.0091 N   0  0  0  0  0  0  0  0  0  0  0  0
   24.8501   71.3188    2.5790 N   0  0  0  0  0  0  0  0  0  0  0  0
   23.5276   71.1530    2.1480 C   0  0  0  0  0  0  0  0  0  0  0  0
   24.0994   72.7438    0.4007 C   0  0  0  0  0  0  0  0  0  0  0  0
   25.3562   72.8916    0.8248 C   0  0  0  0  0  0  0  0  0  0  0  0
   25.8134   72.1359    2.0088 C   0  0  0  0  0  0  0  0  0  0  0  0
   25.1236   70.8014    3.3710 H   0  0  0  0  0  0  0  0  0  0  0  0
   22.0715   72.7036   -6.2058 O   0  0  0  0  0  0  0  0  0  0  0  0
   20.9181   73.0801   -7.2740 P   0  0  2  0  0  0  0  0  0  0  0  0
   21.5601   72.6272   -8.6883 O   0  0  0  0  0  0  0  0  0  0  0  0
   20.4782   74.5146   -7.2246 O   0  0  0  0  0  0  0  0  0  0  0  0
   19.7417   72.0098   -6.9990 O   0  0  0  0  0  0  0  0  0  0  0  0
   17.6982   73.1903   -6.7817 O   0  0  0  0  0  0  0  0  0  0  0  0
   16.3576   69.3839   -5.9067 O   0  0  0  0  0  0  0  0  0  0  0  0
   15.6653   70.5882   -8.4204 O   0  0  0  0  0  0  0  0  0  0  0  0
   18.9492   70.2561   -4.9566 O   0  0  0  0  0  0  0  0  0  0  0  0
   17.1643   70.3608   -6.5704 C   0  0  1  0  0  0  0  0  0  0  0  0
   16.2377   71.3097   -7.3332 C   0  0  1  0  0  0  0  0  0  0  0  0
   17.9790   71.1262   -5.5294 C   0  0  2  0  0  0  0  0  0  0  0  0
   17.0034   72.5354   -7.8495 C   0  0  1  0  0  0  0  0  0  0  0  0
   18.6604   72.3538   -6.1365 C   0  0  1  0  0  0  0  0  0  0  0  0
   15.8381   68.8941   -6.5621 H   0  0  0  0  0  0  0  0  0  0  0  0
   15.1852   69.8165   -8.0808 H   0  0  0  0  0  0  0  0  0  0  0  0
   18.5053   69.4831   -4.5754 H   0  0  0  0  0  0  0  0  0  0  0  0
   15.6760   73.1043   -9.7529 O   0  0  0  0  0  0  0  0  0  0  0  0
   16.0710   73.5701   -8.4757 C   0  0  0  0  0  0  0  0  0  0  0  0
   15.0819   73.7527  -10.1634 H   0  0  0  0  0  0  0  0  0  0  0  0
 25 28  1  0
 25 24  1  0
 25 26  1  6
 25 27  2  0
  1  4  1  0
  1 24  1  0
  1  2  1  1
  1  3  2  0
  6 11  1  0
  6 12  1  0
 29 36  1  0
 29 37  1  0
  9  7  1  1
  7 13  1  0
 10  8  1  1
  8 14  1  0
 37 28  1  6
  4  5  1  0
 33 30  1  1
 30 38  1  0
 34 31  1  6
 31 39  1  0
 35 32  1  6
 32 40  1  0
 41 42  1  0
 41 43  1  0
 15 19  2  0
 16 22  2  0
 12 17  1  6
 17 19  1  0
 17 20  1  0
 18 19  1  0
 18 22  1  0
 18 23  1  0
  9 10  1  0
  9 11  1  0
 10 12  1  0
 11  5  1  6
 33 34  1  0
 33 35  1  0
 34 36  1  0
 35 37  1  0
 36 42  1  1
 20 21  2  0
 21 22  1  0
M  CHG  2   2  -1  26  -1
M  END
>  <COMPND>  (20) 
    8629 

>  <AUTHOR>  (20) 
    GENERATED BY OPEN BABEL 3.1.1

>  <MASTER>  (20) 
        0    0    0    0    0    0    0    0   58    0   58    0

>  <minimizedAffinity>  (20) 
-7.58305

>  <CNNscore>  (20) 
0.3099001944

>  <CNNaffinity>  (20) 
4.0236043930

>  <CNN_VS>  (20) 
1.2469158173

>  <CNNaffinity_variance>  (20) 
0.0788440332

$$$$
21
     RDKit          3D

 43 45  0  0  0  0  0  0  0  0999 V2000
   22.8979   71.9044   -3.0971 P   0  0  2  0  0  0  0  0  0  0  0  0
   24.0829   72.5230   -4.0085 O   0  0  0  0  0  0  0  0  0  0  0  0
   22.9395   70.4138   -2.9297 O   0  0  0  0  0  0  0  0  0  0  0  0
   21.5472   72.4996   -3.7597 O   0  0  0  0  0  0  0  0  0  0  0  0
   20.8938   71.7397   -4.7614 C   0  0  0  0  0  0  0  0  0  0  0  0
   20.6505   71.4655   -7.1361 O   0  0  0  0  0  0  0  0  0  0  0  0
   21.5449   74.3180   -7.3685 O   0  0  0  0  0  0  0  0  0  0  0  0
   18.8411   74.5171   -7.6623 O   0  0  0  0  0  0  0  0  0  0  0  0
   20.7327   73.7058   -6.3680 C   0  0  1  0  0  0  0  0  0  0  0  0
   19.3461   73.4315   -6.9119 C   0  0  2  0  0  0  0  0  0  0  0  0
   21.2645   72.2983   -6.1283 C   0  0  1  0  0  0  0  0  0  0  0  0
   19.5797   72.1928   -7.7600 C   0  0  2  0  0  0  0  0  0  0  0  0
   21.2246   75.2183   -7.5384 H   0  0  0  0  0  0  0  0  0  0  0  0
   18.7094   75.2804   -7.0786 H   0  0  0  0  0  0  0  0  0  0  0  0
   18.9187   70.5640   -9.9709 O   0  0  0  0  0  0  0  0  0  0  0  0
   15.1057   68.9975   -7.9098 O   0  0  0  0  0  0  0  0  0  0  0  0
   18.4202   71.3489   -7.8279 N   0  0  0  0  0  0  0  0  0  0  0  0
   17.0208   69.7852   -8.9428 N   0  0  0  0  0  0  0  0  0  0  0  0
   18.1794   70.5712   -8.9845 C   0  0  0  0  0  0  0  0  0  0  0  0
   17.5365   71.2979   -6.7553 C   0  0  0  0  0  0  0  0  0  0  0  0
   16.4353   70.5441   -6.7318 C   0  0  0  0  0  0  0  0  0  0  0  0
   16.1108   69.7015   -7.9009 C   0  0  0  0  0  0  0  0  0  0  0  0
   16.8324   69.2353   -9.7377 H   0  0  0  0  0  0  0  0  0  0  0  0
   23.0254   72.7398   -1.7191 O   0  0  0  0  0  0  0  0  0  0  0  0
   22.0045   72.8991   -0.4760 P   0  0  2  0  0  0  0  0  0  0  0  0
   21.2811   71.4538   -0.4024 O   0  0  0  0  0  0  0  0  0  0  0  0
   21.0594   74.0590   -0.6005 O   0  0  0  0  0  0  0  0  0  0  0  0
   22.9536   72.9468    0.8286 O   0  0  0  0  0  0  0  0  0  0  0  0
   25.2959   72.6299    1.0012 O   0  0  0  0  0  0  0  0  0  0  0  0
   24.1317   70.9004    4.5655 O   0  0  0  0  0  0  0  0  0  0  0  0
   25.4524   73.4505    4.5916 O   0  0  0  0  0  0  0  0  0  0  0  0
   22.5235   70.5294    2.1873 O   0  0  0  0  0  0  0  0  0  0  0  0
   24.0653   71.8423    3.4914 C   0  0  1  0  0  0  0  0  0  0  0  0
   25.3883   72.6091    3.4434 C   0  0  1  0  0  0  0  0  0  0  0  0
   23.8316   71.0908    2.1822 C   0  0  2  0  0  0  0  0  0  0  0  0
   25.4978   73.4454    2.1613 C   0  0  1  0  0  0  0  0  0  0  0  0
   24.0124   72.0028    0.9674 C   0  0  1  0  0  0  0  0  0  0  0  0
   24.2794   71.3712    5.3998 H   0  0  0  0  0  0  0  0  0  0  0  0
   25.3817   72.9102    5.3942 H   0  0  0  0  0  0  0  0  0  0  0  0
   22.4218   69.9540    2.9609 H   0  0  0  0  0  0  0  0  0  0  0  0
   27.8490   73.1895    2.5007 O   0  0  0  0  0  0  0  0  0  0  0  0
   26.8729   74.0937    2.0170 C   0  0  0  0  0  0  0  0  0  0  0  0
   28.7294   73.5887    2.4149 H   0  0  0  0  0  0  0  0  0  0  0  0
 25 28  1  0
 25 24  1  0
 25 26  1  1
 25 27  2  0
  1  4  1  0
  1 24  1  0
  1  2  1  6
  1  3  2  0
  6 11  1  0
  6 12  1  0
 29 36  1  0
 29 37  1  0
  9  7  1  6
  7 13  1  0
 10  8  1  6
  8 14  1  0
 37 28  1  1
  4  5  1  0
 33 30  1  1
 30 38  1  0
 34 31  1  1
 31 39  1  0
 35 32  1  1
 32 40  1  0
 41 42  1  0
 41 43  1  0
 15 19  2  0
 16 22  2  0
 12 17  1  1
 17 19  1  0
 17 20  1  0
 18 19  1  0
 18 22  1  0
 18 23  1  0
  9 10  1  0
  9 11  1  0
 10 12  1  0
 11  5  1  1
 33 34  1  0
 33 35  1  0
 34 36  1  0
 35 37  1  0
 36 42  1  6
 20 21  2  0
 21 22  1  0
M  CHG  2   2  -1  26  -1
M  END
>  <COMPND>  (21) 
    8629 

>  <AUTHOR>  (21) 
    GENERATED BY OPEN BABEL 3.1.1

>  <MASTER>  (21) 
        0    0    0    0    0    0    0    0   58    0   58    0

>  <minimizedAffinity>  (21) 
-7.07866

>  <CNNscore>  (21) 
0.7863039970

>  <CNNaffinity>  (21) 
4.4651832581

>  <CNN_VS>  (21) 
3.5109913349

>  <CNNaffinity_variance>  (21) 
0.0794611126

$$$$
22
     RDKit          3D

 43 45  0  0  0  0  0  0  0  0999 V2000
   23.3707   73.4525   -3.4805 P   0  0  2  0  0  0  0  0  0  0  0  0
   23.7692   74.9489   -3.9491 O   0  0  0  0  0  0  0  0  0  0  0  0
   24.1860   72.3560   -4.1006 O   0  0  0  0  0  0  0  0  0  0  0  0
   21.7757   73.3756   -3.7412 O   0  0  0  0  0  0  0  0  0  0  0  0
   21.2826   72.3871   -4.6286 C   0  0  0  0  0  0  0  0  0  0  0  0
   20.9937   71.8339   -6.9490 O   0  0  0  0  0  0  0  0  0  0  0  0
   21.5244   74.7307   -7.5126 O   0  0  0  0  0  0  0  0  0  0  0  0
   18.8081   74.5769   -7.6985 O   0  0  0  0  0  0  0  0  0  0  0  0
   20.8277   74.1374   -6.4181 C   0  0  1  0  0  0  0  0  0  0  0  0
   19.4673   73.6449   -6.8657 C   0  0  2  0  0  0  0  0  0  0  0  0
   21.5354   72.8362   -6.0612 C   0  0  1  0  0  0  0  0  0  0  0  0
   19.8214   72.3589   -7.5931 C   0  0  2  0  0  0  0  0  0  0  0  0
   21.0909   75.5635   -7.7583 H   0  0  0  0  0  0  0  0  0  0  0  0
   18.6041   75.3773   -7.1901 H   0  0  0  0  0  0  0  0  0  0  0  0
   18.9393   70.7989   -9.7762 O   0  0  0  0  0  0  0  0  0  0  0  0
   15.7871   68.6419   -7.1971 O   0  0  0  0  0  0  0  0  0  0  0  0
   18.7721   71.3817   -7.5202 N   0  0  0  0  0  0  0  0  0  0  0  0
   17.3706   69.7260   -8.4902 N   0  0  0  0  0  0  0  0  0  0  0  0
   18.4047   70.6525   -8.6751 C   0  0  0  0  0  0  0  0  0  0  0  0
   18.1196   71.1542   -6.3135 C   0  0  0  0  0  0  0  0  0  0  0  0
   17.1345   70.2680   -6.1541 C   0  0  0  0  0  0  0  0  0  0  0  0
   16.6902   69.4647   -7.3114 C   0  0  0  0  0  0  0  0  0  0  0  0
   17.0975   69.2067   -9.2811 H   0  0  0  0  0  0  0  0  0  0  0  0
   23.4718   73.5371   -1.8694 O   0  0  0  0  0  0  0  0  0  0  0  0
   24.7250   73.3206   -0.8716 P   0  0  2  0  0  0  0  0  0  0  0  0
   25.3110   74.8166   -0.6818 O   0  0  0  0  0  0  0  0  0  0  0  0
   25.7318   72.3181   -1.3567 O   0  0  0  0  0  0  0  0  0  0  0  0
   24.0559   72.9611    0.5525 O   0  0  0  0  0  0  0  0  0  0  0  0
   23.6781   74.3560    2.4308 O   0  0  0  0  0  0  0  0  0  0  0  0
   24.5444   70.8275    4.3930 O   0  0  0  0  0  0  0  0  0  0  0  0
   21.8419   71.7982    4.3477 O   0  0  0  0  0  0  0  0  0  0  0  0
   25.9998   71.5409    1.9945 O   0  0  0  0  0  0  0  0  0  0  0  0
   24.0067   71.6367    3.3435 C   0  0  1  0  0  0  0  0  0  0  0  0
   22.9654   72.5792    3.9502 C   0  0  1  0  0  0  0  0  0  0  0  0
   25.1390   72.4316    2.6960 C   0  0  2  0  0  0  0  0  0  0  0  0
   22.5385   73.6553    2.9428 C   0  0  1  0  0  0  0  0  0  0  0  0
   24.6041   73.5076    1.7492 C   0  0  1  0  0  0  0  0  0  0  0  0
   23.8307   70.3198    4.8080 H   0  0  0  0  0  0  0  0  0  0  0  0
   22.1251   71.1222    4.9834 H   0  0  0  0  0  0  0  0  0  0  0  0
   26.3320   70.8648    2.6048 H   0  0  0  0  0  0  0  0  0  0  0  0
   20.5477   74.0277    4.2105 O   0  0  0  0  0  0  0  0  0  0  0  0
   21.6203   74.6989    3.5753 C   0  0  0  0  0  0  0  0  0  0  0  0
   19.9552   74.6794    4.6178 H   0  0  0  0  0  0  0  0  0  0  0  0
 25 28  1  0
 25 24  1  0
 25 26  1  1
 25 27  2  0
  1  4  1  0
  1 24  1  0
  1  2  1  6
  1  3  2  0
  6 11  1  0
  6 12  1  0
 29 36  1  0
 29 37  1  0
  9  7  1  6
  7 13  1  0
 10  8  1  6
  8 14  1  0
 37 28  1  6
  4  5  1  0
 33 30  1  1
 30 38  1  0
 34 31  1  6
 31 39  1  0
 35 32  1  6
 32 40  1  0
 41 42  1  0
 41 43  1  0
 15 19  2  0
 16 22  2  0
 12 17  1  1
 17 19  1  0
 17 20  1  0
 18 19  1  0
 18 22  1  0
 18 23  1  0
  9 10  1  0
  9 11  1  0
 10 12  1  0
 11  5  1  1
 33 34  1  0
 33 35  1  0
 34 36  1  0
 35 37  1  0
 36 42  1  1
 20 21  2  0
 21 22  1  0
M  CHG  2   2  -1  26  -1
M  END
>  <COMPND>  (22) 
    8629 

>  <AUTHOR>  (22) 
    GENERATED BY OPEN BABEL 3.1.1

>  <MASTER>  (22) 
        0    0    0    0    0    0    0    0   58    0   58    0

>  <minimizedAffinity>  (22) 
-7.20117

>  <CNNscore>  (22) 
0.7613630295

>  <CNNaffinity>  (22) 
4.2872037888

>  <CNN_VS>  (22) 
3.2641184330

>  <CNNaffinity_variance>  (22) 
0.1207016930

$$$$
23
     RDKit          3D

 43 45  0  0  0  0  0  0  0  0999 V2000
   22.4820   73.7943   -3.8735 P   0  0  2  0  0  0  0  0  0  0  0  0
   20.9903   73.4713   -3.3371 O   0  0  0  0  0  0  0  0  0  0  0  0
   22.7269   75.2285   -4.2405 O   0  0  0  0  0  0  0  0  0  0  0  0
   22.7103   72.7169   -5.0588 O   0  0  0  0  0  0  0  0  0  0  0  0
   21.5730   72.1358   -5.6726 C   0  0  0  0  0  0  0  0  0  0  0  0
   20.6686   71.7510   -7.8652 O   0  0  0  0  0  0  0  0  0  0  0  0
   21.0261   74.6924   -8.3246 O   0  0  0  0  0  0  0  0  0  0  0  0
   18.3606   74.4950   -7.7839 O   0  0  0  0  0  0  0  0  0  0  0  0
   20.6510   74.0045   -7.1324 C   0  0  1  0  0  0  0  0  0  0  0  0
   19.2205   73.5178   -7.2341 C   0  0  2  0  0  0  0  0  0  0  0  0
   21.4295   72.6958   -7.0812 C   0  0  1  0  0  0  0  0  0  0  0  0
   19.3657   72.2975   -8.1273 C   0  0  2  0  0  0  0  0  0  0  0  0
   20.5420   75.5318   -8.3793 H   0  0  0  0  0  0  0  0  0  0  0  0
   18.3011   75.2508   -7.1789 H   0  0  0  0  0  0  0  0  0  0  0  0
   18.4682   70.3815   -9.9985 O   0  0  0  0  0  0  0  0  0  0  0  0
   15.5616   68.5021   -6.9554 O   0  0  0  0  0  0  0  0  0  0  0  0
   18.3754   71.2954   -7.8507 N   0  0  0  0  0  0  0  0  0  0  0  0
   17.0218   69.4471   -8.4817 N   0  0  0  0  0  0  0  0  0  0  0  0
   17.9944   70.3813   -8.8605 C   0  0  0  0  0  0  0  0  0  0  0  0
   17.7933   71.2258   -6.5896 C   0  0  0  0  0  0  0  0  0  0  0  0
   16.8663   70.3298   -6.2448 C   0  0  0  0  0  0  0  0  0  0  0  0
   16.4125   69.3386   -7.2416 C   0  0  0  0  0  0  0  0  0  0  0  0
   16.7405   68.8004   -9.1690 H   0  0  0  0  0  0  0  0  0  0  0  0
   23.4246   73.2334   -2.6861 O   0  0  0  0  0  0  0  0  0  0  0  0
   23.7572   71.7221   -2.2190 P   0  0  2  0  0  0  0  0  0  0  0  0
   25.1604   71.4052   -2.9593 O   0  0  0  0  0  0  0  0  0  0  0  0
   22.6658   70.7334   -2.5111 O   0  0  0  0  0  0  0  0  0  0  0  0
   24.1409   71.8525   -0.6567 O   0  0  0  0  0  0  0  0  0  0  0  0
   23.7734   73.6145    0.8850 O   0  0  0  0  0  0  0  0  0  0  0  0
   27.5035   72.3874    2.1624 O   0  0  0  0  0  0  0  0  0  0  0  0
   25.1928   71.8030    3.7647 O   0  0  0  0  0  0  0  0  0  0  0  0
   26.8873   72.4293   -0.6657 O   0  0  0  0  0  0  0  0  0  0  0  0
   26.1875   72.2165    1.6292 C   0  0  1  0  0  0  0  0  0  0  0  0
   25.1807   72.7133    2.6686 C   0  0  1  0  0  0  0  0  0  0  0  0
   26.0650   73.0193    0.3354 C   0  0  2  0  0  0  0  0  0  0  0  0
   23.7705   72.8114    2.0711 C   0  0  1  0  0  0  0  0  0  0  0  0
   24.6152   73.0960   -0.1466 C   0  0  1  0  0  0  0  0  0  0  0  0
   27.5880   71.8798    2.9838 H   0  0  0  0  0  0  0  0  0  0  0  0
   26.0890   71.7499    4.1325 H   0  0  0  0  0  0  0  0  0  0  0  0
   27.8024   72.3868   -0.3485 H   0  0  0  0  0  0  0  0  0  0  0  0
   22.1046   74.4982    2.3683 O   0  0  0  0  0  0  0  0  0  0  0  0
   22.7815   73.4531    3.0418 C   0  0  0  0  0  0  0  0  0  0  0  0
   21.4715   74.9156    2.9739 H   0  0  0  0  0  0  0  0  0  0  0  0
 25 28  1  0
 25 24  1  0
 25 26  1  6
 25 27  2  0
  1  4  1  0
  1 24  1  0
  1  2  1  1
  1  3  2  0
  6 11  1  0
  6 12  1  0
 29 36  1  0
 29 37  1  0
  9  7  1  6
  7 13  1  0
 10  8  1  6
  8 14  1  0
 37 28  1  1
  4  5  1  0
 33 30  1  1
 30 38  1  0
 34 31  1  1
 31 39  1  0
 35 32  1  6
 32 40  1  0
 41 42  1  0
 41 43  1  0
 15 19  2  0
 16 22  2  0
 12 17  1  1
 17 19  1  0
 17 20  1  0
 18 19  1  0
 18 22  1  0
 18 23  1  0
  9 10  1  0
  9 11  1  0
 10 12  1  0
 11  5  1  1
 33 34  1  0
 33 35  1  0
 34 36  1  0
 35 37  1  0
 36 42  1  1
 20 21  2  0
 21 22  1  0
M  CHG  2   2  -1  26  -1
M  END
>  <COMPND>  (23) 
    8629 

>  <AUTHOR>  (23) 
    GENERATED BY OPEN BABEL 3.1.1

>  <MASTER>  (23) 
        0    0    0    0    0    0    0    0   58    0   58    0

>  <minimizedAffinity>  (23) 
-7.05888

>  <CNNscore>  (23) 
0.7227930427

>  <CNNaffinity>  (23) 
4.3913807869

>  <CNN_VS>  (23) 
3.1740593910

>  <CNNaffinity_variance>  (23) 
0.0701867938

$$$$
24
     RDKit          3D

 43 45  0  0  0  0  0  0  0  0999 V2000
   22.7106   71.5412   -2.9506 P   0  0  2  0  0  0  0  0  0  0  0  0
   23.5775   72.6838   -3.6991 O   0  0  0  0  0  0  0  0  0  0  0  0
   23.5174   70.4420   -2.3243 O   0  0  0  0  0  0  0  0  0  0  0  0
   21.6358   71.0755   -4.0668 O   0  0  0  0  0  0  0  0  0  0  0  0
   20.7201   72.0350   -4.5654 C   0  0  0  0  0  0  0  0  0  0  0  0
   20.6488   71.6025   -6.9280 O   0  0  0  0  0  0  0  0  0  0  0  0
   21.5613   74.4364   -7.2846 O   0  0  0  0  0  0  0  0  0  0  0  0
   18.8861   74.6059   -7.7857 O   0  0  0  0  0  0  0  0  0  0  0  0
   20.6781   73.8893   -6.3069 C   0  0  1  0  0  0  0  0  0  0  0  0
   19.3341   73.5744   -6.9301 C   0  0  2  0  0  0  0  0  0  0  0  0
   21.1894   72.5028   -5.9362 C   0  0  1  0  0  0  0  0  0  0  0  0
   19.6269   72.2829   -7.6747 C   0  0  2  0  0  0  0  0  0  0  0  0
   21.2553   75.3223   -7.5368 H   0  0  0  0  0  0  0  0  0  0  0  0
   18.7135   75.4059   -7.2651 H   0  0  0  0  0  0  0  0  0  0  0  0
   18.9595   70.7484   -9.9502 O   0  0  0  0  0  0  0  0  0  0  0  0
   15.1800   69.0564   -7.9270 O   0  0  0  0  0  0  0  0  0  0  0  0
   18.4743   71.4322   -7.7698 N   0  0  0  0  0  0  0  0  0  0  0  0
   17.0782   69.9070   -8.9409 N   0  0  0  0  0  0  0  0  0  0  0  0
   18.2295   70.7048   -8.9579 C   0  0  0  0  0  0  0  0  0  0  0  0
   17.6012   71.3252   -6.6927 C   0  0  0  0  0  0  0  0  0  0  0  0
   16.5070   70.5610   -6.6930 C   0  0  0  0  0  0  0  0  0  0  0  0
   16.1789   69.7685   -7.8956 C   0  0  0  0  0  0  0  0  0  0  0  0
   16.8872   69.3915   -9.7579 H   0  0  0  0  0  0  0  0  0  0  0  0
   21.8100   72.3906   -1.9112 O   0  0  0  0  0  0  0  0  0  0  0  0
   20.9405   71.9228   -0.6313 P   0  0  2  0  0  0  0  0  0  0  0  0
   20.4663   70.4286   -1.0310 O   0  0  0  0  0  0  0  0  0  0  0  0
   19.8181   72.8545   -0.2761 O   0  0  0  0  0  0  0  0  0  0  0  0
   22.0264   71.7055    0.5428 O   0  0  0  0  0  0  0  0  0  0  0  0
   22.1864   73.0467    2.4901 O   0  0  0  0  0  0  0  0  0  0  0  0
   26.1266   71.8492    2.1882 O   0  0  0  0  0  0  0  0  0  0  0  0
   24.4654   70.7506    4.2573 O   0  0  0  0  0  0  0  0  0  0  0  0
   24.6201   72.4742   -0.2033 O   0  0  0  0  0  0  0  0  0  0  0  0
   24.7083   71.7032    2.0769 C   0  0  1  0  0  0  0  0  0  0  0  0
   24.0974   71.8788    3.4686 C   0  0  1  0  0  0  0  0  0  0  0  0
   24.1713   72.7628    1.1164 C   0  0  2  0  0  0  0  0  0  0  0  0
   22.5697   72.0015    3.3915 C   0  0  1  0  0  0  0  0  0  0  0  0
   22.6438   72.8359    1.1529 C   0  0  1  0  0  0  0  0  0  0  0  0
   26.4740   71.1791    2.7963 H   0  0  0  0  0  0  0  0  0  0  0  0
   25.4324   70.6842    4.2976 H   0  0  0  0  0  0  0  0  0  0  0  0
   25.5886   72.4308   -0.2131 H   0  0  0  0  0  0  0  0  0  0  0  0
   22.8720   73.1288    5.4764 O   0  0  0  0  0  0  0  0  0  0  0  0
   21.9535   72.3345    4.7485 C   0  0  0  0  0  0  0  0  0  0  0  0
   22.4930   73.3487    6.3423 H   0  0  0  0  0  0  0  0  0  0  0  0
 25 28  1  0
 25 24  1  0
 25 26  1  6
 25 27  2  0
  1  4  1  0
  1 24  1  0
  1  2  1  6
  1  3  2  0
  6 11  1  0
  6 12  1  0
 29 36  1  0
 29 37  1  0
  9  7  1  6
  7 13  1  0
 10  8  1  6
  8 14  1  0
 37 28  1  1
  4  5  1  0
 33 30  1  1
 30 38  1  0
 34 31  1  1
 31 39  1  0
 35 32  1  6
 32 40  1  0
 41 42  1  0
 41 43  1  0
 15 19  2  0
 16 22  2  0
 12 17  1  1
 17 19  1  0
 17 20  1  0
 18 19  1  0
 18 22  1  0
 18 23  1  0
  9 10  1  0
  9 11  1  0
 10 12  1  0
 11  5  1  1
 33 34  1  0
 33 35  1  0
 34 36  1  0
 35 37  1  0
 36 42  1  1
 20 21  2  0
 21 22  1  0
M  CHG  2   2  -1  26  -1
M  END
>  <COMPND>  (24) 
    8629 

>  <AUTHOR>  (24) 
    GENERATED BY OPEN BABEL 3.1.1

>  <MASTER>  (24) 
        0    0    0    0    0    0    0    0   58    0   58    0

>  <minimizedAffinity>  (24) 
-7.13309

>  <CNNscore>  (24) 
0.6626864076

>  <CNNaffinity>  (24) 
4.3184461594

>  <CNN_VS>  (24) 
2.8617756367

>  <CNNaffinity_variance>  (24) 
0.0353612974

$$$$
25
     RDKit          3D

 43 45  0  0  0  0  0  0  0  0999 V2000
   16.7297   71.2781   -1.2487 P   0  0  2  0  0  0  0  0  0  0  0  0
   17.7376   70.0218   -1.4013 O   0  0  0  0  0  0  0  0  0  0  0  0
   17.2217   72.3807   -0.3580 O   0  0  0  0  0  0  0  0  0  0  0  0
   15.3258   70.5995   -0.8169 O   0  0  0  0  0  0  0  0  0  0  0  0
   15.3486   69.5359    0.1191 C   0  0  0  0  0  0  0  0  0  0  0  0
   14.2544   67.4306    0.4988 O   0  0  0  0  0  0  0  0  0  0  0  0
   13.5328   67.4937   -2.4109 O   0  0  0  0  0  0  0  0  0  0  0  0
   11.2204   68.2945   -1.2075 O   0  0  0  0  0  0  0  0  0  0  0  0
   13.6206   68.5708   -1.4796 C   0  0  1  0  0  0  0  0  0  0  0  0
   12.4372   68.5469   -0.5348 C   0  0  2  0  0  0  0  0  0  0  0  0
   14.7844   68.2842   -0.5389 C   0  0  1  0  0  0  0  0  0  0  0  0
   12.8195   67.4295    0.4209 C   0  0  2  0  0  0  0  0  0  0  0  0
   12.7966   67.6545   -3.0225 H   0  0  0  0  0  0  0  0  0  0  0  0
   11.0208   69.0334   -1.8032 H   0  0  0  0  0  0  0  0  0  0  0  0
   10.1786   66.7746    1.1788 O   0  0  0  0  0  0  0  0  0  0  0  0
   10.8621   68.2300    5.4980 O   0  0  0  0  0  0  0  0  0  0  0  0
   12.2809   67.6263    1.7372 N   0  0  0  0  0  0  0  0  0  0  0  0
   10.5211   67.4996    3.3289 N   0  0  0  0  0  0  0  0  0  0  0  0
   10.9418   67.2647    2.0136 C   0  0  0  0  0  0  0  0  0  0  0  0
   13.0779   68.1721    2.7376 C   0  0  0  0  0  0  0  0  0  0  0  0
   12.6613   68.3910    3.9864 C   0  0  0  0  0  0  0  0  0  0  0  0
   11.2751   68.0409    4.3580 C   0  0  0  0  0  0  0  0  0  0  0  0
    9.5917   67.2558    3.5445 H   0  0  0  0  0  0  0  0  0  0  0  0
   16.4639   71.7190   -2.7810 O   0  0  0  0  0  0  0  0  0  0  0  0
   16.2175   70.8358   -4.1123 P   0  0  2  0  0  0  0  0  0  0  0  0
   15.2223   71.7598   -4.9916 O   0  0  0  0  0  0  0  0  0  0  0  0
   15.7028   69.4510   -3.8455 O   0  0  0  0  0  0  0  0  0  0  0  0
   17.6243   70.8860   -4.9019 O   0  0  0  0  0  0  0  0  0  0  0  0
   19.4096   72.4433   -4.8370 O   0  0  0  0  0  0  0  0  0  0  0  0
   19.3980   71.6211   -8.8836 O   0  0  0  0  0  0  0  0  0  0  0  0
   21.5144   70.5966   -7.2346 O   0  0  0  0  0  0  0  0  0  0  0  0
   16.8947   71.8239   -7.4442 O   0  0  0  0  0  0  0  0  0  0  0  0
   19.2500   71.3222   -7.4928 C   0  0  1  0  0  0  0  0  0  0  0  0
   20.5879   71.5882   -6.8001 C   0  0  1  0  0  0  0  0  0  0  0  0
   18.1545   72.2100   -6.9053 C   0  0  2  0  0  0  0  0  0  0  0  0
   20.4389   71.5478   -5.2733 C   0  0  1  0  0  0  0  0  0  0  0  0
   18.1238   72.1331   -5.3778 C   0  0  1  0  0  0  0  0  0  0  0  0
   20.0918   71.0605   -9.2628 H   0  0  0  0  0  0  0  0  0  0  0  0
   21.5990   70.6324   -8.2004 H   0  0  0  0  0  0  0  0  0  0  0  0
   16.9270   71.8771   -8.4116 H   0  0  0  0  0  0  0  0  0  0  0  0
   22.5027   72.7377   -5.4571 O   0  0  0  0  0  0  0  0  0  0  0  0
   21.7242   71.9651   -4.5619 C   0  0  0  0  0  0  0  0  0  0  0  0
   23.3238   73.0107   -5.0178 H   0  0  0  0  0  0  0  0  0  0  0  0
 25 28  1  0
 25 24  1  0
 25 26  1  6
 25 27  2  0
  1  4  1  0
  1 24  1  0
  1  2  1  6
  1  3  2  0
  6 11  1  0
  6 12  1  0
 29 36  1  0
 29 37  1  0
  9  7  1  6
  7 13  1  0
 10  8  1  6
  8 14  1  0
 37 28  1  6
  4  5  1  0
 33 30  1  6
 30 38  1  0
 34 31  1  6
 31 39  1  0
 35 32  1  6
 32 40  1  0
 41 42  1  0
 41 43  1  0
 15 19  2  0
 16 22  2  0
 12 17  1  1
 17 19  1  0
 17 20  1  0
 18 19  1  0
 18 22  1  0
 18 23  1  0
  9 10  1  0
  9 11  1  0
 10 12  1  0
 11  5  1  1
 33 34  1  0
 33 35  1  0
 34 36  1  0
 35 37  1  0
 36 42  1  1
 20 21  2  0
 21 22  1  0
M  CHG  2   2  -1  26  -1
M  END
>  <COMPND>  (25) 
    8629 

>  <AUTHOR>  (25) 
    GENERATED BY OPEN BABEL 3.1.1

>  <MASTER>  (25) 
        0    0    0    0    0    0    0    0   58    0   58    0

>  <minimizedAffinity>  (25) 
-6.31125

>  <CNNscore>  (25) 
0.6471434236

>  <CNNaffinity>  (25) 
4.1715154648

>  <CNN_VS>  (25) 
2.6995687485

>  <CNNaffinity_variance>  (25) 
0.0987767130

$$$$
26
     RDKit          3D

 43 45  0  0  0  0  0  0  0  0999 V2000
   21.1040   73.3569   -2.5989 P   0  0  2  0  0  0  0  0  0  0  0  0
   20.2208   72.2473   -1.8204 O   0  0  0  0  0  0  0  0  0  0  0  0
   20.7129   74.7805   -2.3306 O   0  0  0  0  0  0  0  0  0  0  0  0
   21.0382   72.8899   -4.1466 O   0  0  0  0  0  0  0  0  0  0  0  0
   19.8399   72.3046   -4.6258 C   0  0  0  0  0  0  0  0  0  0  0  0
   18.9559   70.6149   -6.0877 O   0  0  0  0  0  0  0  0  0  0  0  0
   21.6773   70.5437   -7.3446 O   0  0  0  0  0  0  0  0  0  0  0  0
   20.2461   72.0503   -9.1106 O   0  0  0  0  0  0  0  0  0  0  0  0
   20.9553   71.6561   -6.8186 C   0  0  1  0  0  0  0  0  0  0  0  0
   19.8344   72.0475   -7.7588 C   0  0  2  0  0  0  0  0  0  0  0  0
   20.1889   71.1799   -5.5909 C   0  0  1  0  0  0  0  0  0  0  0  0
   18.7920   70.9814   -7.4674 C   0  0  2  0  0  0  0  0  0  0  0  0
   22.1750   70.8234   -8.1294 H   0  0  0  0  0  0  0  0  0  0  0  0
   20.9090   72.7453   -9.2454 H   0  0  0  0  0  0  0  0  0  0  0  0
   16.6034   69.3372   -8.1635 O   0  0  0  0  0  0  0  0  0  0  0  0
   13.6965   72.9134   -8.2112 O   0  0  0  0  0  0  0  0  0  0  0  0
   17.4519   71.4564   -7.6677 N   0  0  0  0  0  0  0  0  0  0  0  0
   15.1577   71.1191   -8.1865 N   0  0  0  0  0  0  0  0  0  0  0  0
   16.4253   70.5480   -8.0161 C   0  0  0  0  0  0  0  0  0  0  0  0
   17.1666   72.8092   -7.5180 C   0  0  0  0  0  0  0  0  0  0  0  0
   15.9528   73.3381   -7.6853 C   0  0  0  0  0  0  0  0  0  0  0  0
   14.8244   72.4574   -8.0503 C   0  0  0  0  0  0  0  0  0  0  0  0
   14.4270   70.5055   -8.4299 H   0  0  0  0  0  0  0  0  0  0  0  0
   22.6172   72.9828   -2.1706 O   0  0  0  0  0  0  0  0  0  0  0  0
   23.2713   71.5821   -1.6984 P   0  0  2  0  0  0  0  0  0  0  0  0
   24.8569   71.9025   -1.6741 O   0  0  0  0  0  0  0  0  0  0  0  0
   22.8901   70.4066   -2.5509 O   0  0  0  0  0  0  0  0  0  0  0  0
   22.8597   71.4425   -0.1440 O   0  0  0  0  0  0  0  0  0  0  0  0
   23.7181   73.4481    0.7819 O   0  0  0  0  0  0  0  0  0  0  0  0
   21.7969   71.9512    4.1165 O   0  0  0  0  0  0  0  0  0  0  0  0
   20.6839   74.2081    2.7326 O   0  0  0  0  0  0  0  0  0  0  0  0
   23.1940   70.1551    2.3271 O   0  0  0  0  0  0  0  0  0  0  0  0
   21.9807   72.1984    2.7199 C   0  0  1  0  0  0  0  0  0  0  0  0
   21.9992   73.7123    2.4992 C   0  0  1  0  0  0  0  0  0  0  0  0
   23.3006   71.5736    2.2718 C   0  0  2  0  0  0  0  0  0  0  0  0
   22.4563   74.0591    1.0759 C   0  0  1  0  0  0  0  0  0  0  0  0
   23.6875   72.0217    0.8612 C   0  0  1  0  0  0  0  0  0  0  0  0
   20.9603   72.3449    4.4073 H   0  0  0  0  0  0  0  0  0  0  0  0
   20.4071   73.9821    3.6345 H   0  0  0  0  0  0  0  0  0  0  0  0
   22.9489   69.8842    3.2251 H   0  0  0  0  0  0  0  0  0  0  0  0
   21.4521   76.0842    0.3017 O   0  0  0  0  0  0  0  0  0  0  0  0
   22.6335   75.5635    0.8828 C   0  0  0  0  0  0  0  0  0  0  0  0
   21.5503   77.0410    0.1732 H   0  0  0  0  0  0  0  0  0  0  0  0
 25 28  1  0
 25 24  1  0
 25 26  1  1
 25 27  2  0
  1  4  1  0
  1 24  1  0
  1  2  1  1
  1  3  2  0
  6 11  1  0
  6 12  1  0
 29 36  1  0
 29 37  1  0
  9  7  1  6
  7 13  1  0
 10  8  1  6
  8 14  1  0
 37 28  1  6
  4  5  1  0
 33 30  1  1
 30 38  1  0
 34 31  1  6
 31 39  1  0
 35 32  1  6
 32 40  1  0
 41 42  1  0
 41 43  1  0
 15 19  2  0
 16 22  2  0
 12 17  1  1
 17 19  1  0
 17 20  1  0
 18 19  1  0
 18 22  1  0
 18 23  1  0
  9 10  1  0
  9 11  1  0
 10 12  1  0
 11  5  1  1
 33 34  1  0
 33 35  1  0
 34 36  1  0
 35 37  1  0
 36 42  1  1
 20 21  2  0
 21 22  1  0
M  CHG  2   2  -1  26  -1
M  END
>  <COMPND>  (26) 
    8629 

>  <AUTHOR>  (26) 
    GENERATED BY OPEN BABEL 3.1.1

>  <MASTER>  (26) 
        0    0    0    0    0    0    0    0   58    0   58    0

>  <minimizedAffinity>  (26) 
-6.49317

>  <CNNscore>  (26) 
0.5613403916

>  <CNNaffinity>  (26) 
4.2437987328

>  <CNN_VS>  (26) 
2.3822157383

>  <CNNaffinity_variance>  (26) 
0.0160933919

$$$$
27
     RDKit          3D

 43 45  0  0  0  0  0  0  0  0999 V2000
   22.5118   72.6974   -1.6343 P   0  0  2  0  0  0  0  0  0  0  0  0
   21.9447   71.2302   -1.2557 O   0  0  0  0  0  0  0  0  0  0  0  0
   21.9558   73.8232   -0.8129 O   0  0  0  0  0  0  0  0  0  0  0  0
   22.2711   72.8068   -3.2306 O   0  0  0  0  0  0  0  0  0  0  0  0
   21.3520   71.9159   -3.8384 C   0  0  0  0  0  0  0  0  0  0  0  0
   19.4221   72.9002   -4.8777 O   0  0  0  0  0  0  0  0  0  0  0  0
   17.8923   71.9955   -2.4627 O   0  0  0  0  0  0  0  0  0  0  0  0
   17.2505   70.1015   -4.3167 O   0  0  0  0  0  0  0  0  0  0  0  0
   18.9711   71.3532   -3.1401 C   0  0  1  0  0  0  0  0  0  0  0  0
   18.4923   70.7626   -4.4499 C   0  0  2  0  0  0  0  0  0  0  0  0
   19.9377   72.4322   -3.6122 C   0  0  1  0  0  0  0  0  0  0  0  0
   18.4075   71.9925   -5.3378 C   0  0  2  0  0  0  0  0  0  0  0  0
   17.2619   71.3264   -2.1516 H   0  0  0  0  0  0  0  0  0  0  0  0
   17.3566   69.3265   -3.7432 H   0  0  0  0  0  0  0  0  0  0  0  0
   16.5170   72.3611   -7.4037 O   0  0  0  0  0  0  0  0  0  0  0  0
   19.4353   70.7865  -10.6045 O   0  0  0  0  0  0  0  0  0  0  0  0
   18.6469   71.6875   -6.7202 N   0  0  0  0  0  0  0  0  0  0  0  0
   17.9717   71.5769   -8.9958 N   0  0  0  0  0  0  0  0  0  0  0  0
   17.6303   71.9086   -7.6784 C   0  0  0  0  0  0  0  0  0  0  0  0
   19.8785   71.1755   -7.1138 C   0  0  0  0  0  0  0  0  0  0  0  0
   20.1878   70.8632   -8.3739 C   0  0  0  0  0  0  0  0  0  0  0  0
   19.1815   71.0641   -9.4365 C   0  0  0  0  0  0  0  0  0  0  0  0
   17.2790   71.7222   -9.6805 H   0  0  0  0  0  0  0  0  0  0  0  0
   24.1132   72.5086   -1.5205 O   0  0  0  0  0  0  0  0  0  0  0  0
   25.1860   73.1409   -0.4898 P   0  0  2  0  0  0  0  0  0  0  0  0
   25.0935   74.7288   -0.7859 O   0  0  0  0  0  0  0  0  0  0  0  0
   26.5682   72.5677   -0.6117 O   0  0  0  0  0  0  0  0  0  0  0  0
   24.5118   72.9576    0.9651 O   0  0  0  0  0  0  0  0  0  0  0  0
   25.9416   72.1176    2.6582 O   0  0  0  0  0  0  0  0  0  0  0  0
   22.3010   71.5211    4.5132 O   0  0  0  0  0  0  0  0  0  0  0  0
   24.0374   73.6136    5.4375 O   0  0  0  0  0  0  0  0  0  0  0  0
   22.5634   71.0638    1.6669 O   0  0  0  0  0  0  0  0  0  0  0  0
   23.2420   72.2016    3.6784 C   0  0  1  0  0  0  0  0  0  0  0  0
   24.4488   72.5910    4.5345 C   0  0  1  0  0  0  0  0  0  0  0  0
   23.6659   71.2717    2.5431 C   0  0  2  0  0  0  0  0  0  0  0  0
   25.6109   73.0843    3.6621 C   0  0  1  0  0  0  0  0  0  0  0  0
   24.8598   71.8333    1.7689 C   0  0  1  0  0  0  0  0  0  0  0  0
   22.0275   72.1062    5.2359 H   0  0  0  0  0  0  0  0  0  0  0  0
   23.3029   73.2895    5.9821 H   0  0  0  0  0  0  0  0  0  0  0  0
   21.8142   70.7079    2.1688 H   0  0  0  0  0  0  0  0  0  0  0  0
   27.1660   74.7142    4.4583 O   0  0  0  0  0  0  0  0  0  0  0  0
   26.8769   73.3285    4.4805 C   0  0  0  0  0  0  0  0  0  0  0  0
   27.9692   74.8846    4.9755 H   0  0  0  0  0  0  0  0  0  0  0  0
 25 28  1  0
 25 24  1  0
 25 26  1  6
 25 27  2  0
  1  4  1  0
  1 24  1  0
  1  2  1  1
  1  3  2  0
  6 11  1  0
  6 12  1  0
 29 36  1  0
 29 37  1  0
  9  7  1  6
  7 13  1  0
 10  8  1  1
  8 14  1  0
 37 28  1  1
  4  5  1  0
 33 30  1  1
 30 38  1  0
 34 31  1  1
 31 39  1  0
 35 32  1  6
 32 40  1  0
 41 42  1  0
 41 43  1  0
 15 19  2  0
 16 22  2  0
 12 17  1  6
 17 19  1  0
 17 20  1  0
 18 19  1  0
 18 22  1  0
 18 23  1  0
  9 10  1  0
  9 11  1  0
 10 12  1  0
 11  5  1  6
 33 34  1  0
 33 35  1  0
 34 36  1  0
 35 37  1  0
 36 42  1  1
 20 21  2  0
 21 22  1  0
M  CHG  2   2  -1  26  -1
M  END
>  <COMPND>  (27) 
    8629 

>  <AUTHOR>  (27) 
    GENERATED BY OPEN BABEL 3.1.1

>  <MASTER>  (27) 
        0    0    0    0    0    0    0    0   58    0   58    0

>  <minimizedAffinity>  (27) 
-6.54038

>  <CNNscore>  (27) 
0.5606562495

>  <CNNaffinity>  (27) 
4.1762228012

>  <CNN_VS>  (27) 
2.3414254189

>  <CNNaffinity_variance>  (27) 
0.0877294391

$$$$
28
     RDKit          3D

 43 45  0  0  0  0  0  0  0  0999 V2000
   19.2115   73.4403   -1.5658 P   0  0  2  0  0  0  0  0  0  0  0  0
   18.7491   74.3528   -2.8192 O   0  0  0  0  0  0  0  0  0  0  0  0
   19.7490   74.2030   -0.3907 O   0  0  0  0  0  0  0  0  0  0  0  0
   20.2207   72.3599   -2.2233 O   0  0  0  0  0  0  0  0  0  0  0  0
   19.7505   71.5597   -3.2940 C   0  0  0  0  0  0  0  0  0  0  0  0
   20.4098   70.4942   -5.3444 O   0  0  0  0  0  0  0  0  0  0  0  0
   22.4661   72.6626   -5.5914 O   0  0  0  0  0  0  0  0  0  0  0  0
   20.5079   73.5037   -7.2928 O   0  0  0  0  0  0  0  0  0  0  0  0
   21.1382   72.7331   -5.0747 C   0  0  1  0  0  0  0  0  0  0  0  0
   20.1310   72.6849   -6.2046 C   0  0  2  0  0  0  0  0  0  0  0  0
   20.8518   71.4308   -4.3375 C   0  0  1  0  0  0  0  0  0  0  0  0
   20.1254   71.2075   -6.5589 C   0  0  2  0  0  0  0  0  0  0  0  0
   22.6721   73.4835   -6.0663 H   0  0  0  0  0  0  0  0  0  0  0  0
   20.4961   74.4336   -7.0173 H   0  0  0  0  0  0  0  0  0  0  0  0
   19.4978   70.9951   -9.3046 O   0  0  0  0  0  0  0  0  0  0  0  0
   15.2241   69.5250   -8.4015 O   0  0  0  0  0  0  0  0  0  0  0  0
   18.8564   70.7715   -7.0695 N   0  0  0  0  0  0  0  0  0  0  0  0
   17.3704   70.2631   -8.8527 N   0  0  0  0  0  0  0  0  0  0  0  0
   18.6434   70.7011   -8.4660 C   0  0  0  0  0  0  0  0  0  0  0  0
   17.8393   70.4190   -6.1891 C   0  0  0  0  0  0  0  0  0  0  0  0
   16.6304   70.0045   -6.5739 C   0  0  0  0  0  0  0  0  0  0  0  0
   16.3261   69.9027   -8.0158 C   0  0  0  0  0  0  0  0  0  0  0  0
   17.1990   70.2065   -9.8208 H   0  0  0  0  0  0  0  0  0  0  0  0
   17.8926   72.5605   -1.2506 O   0  0  0  0  0  0  0  0  0  0  0  0
   16.5329   72.9320   -0.4593 P   0  0  2  0  0  0  0  0  0  0  0  0
   15.7386   73.8735   -1.5082 O   0  0  0  0  0  0  0  0  0  0  0  0
   16.7558   73.5565    0.8876 O   0  0  0  0  0  0  0  0  0  0  0  0
   15.6899   71.5560   -0.4274 O   0  0  0  0  0  0  0  0  0  0  0  0
   16.0380   69.4237    0.5465 O   0  0  0  0  0  0  0  0  0  0  0  0
   14.6430   68.2388   -3.1550 O   0  0  0  0  0  0  0  0  0  0  0  0
   12.9614   67.9452   -0.8454 O   0  0  0  0  0  0  0  0  0  0  0  0
   16.4015   70.5281   -2.9397 O   0  0  0  0  0  0  0  0  0  0  0  0
   14.7225   69.0790   -2.0004 C   0  0  1  0  0  0  0  0  0  0  0  0
   14.3528   68.2437   -0.7730 C   0  0  1  0  0  0  0  0  0  0  0  0
   16.1454   69.6200   -1.8738 C   0  0  2  0  0  0  0  0  0  0  0  0
   14.6709   68.9966    0.5258 C   0  0  1  0  0  0  0  0  0  0  0  0
   16.3703   70.3076   -0.5259 C   0  0  1  0  0  0  0  0  0  0  0  0
   13.7419   67.8923   -3.2414 H   0  0  0  0  0  0  0  0  0  0  0  0
   12.7738   67.4702   -1.6703 H   0  0  0  0  0  0  0  0  0  0  0  0
   16.2559   70.0807   -3.7874 H   0  0  0  0  0  0  0  0  0  0  0  0
   14.3276   66.7770    1.3411 O   0  0  0  0  0  0  0  0  0  0  0  0
   14.4578   68.1230    1.7601 C   0  0  0  0  0  0  0  0  0  0  0  0
   14.1917   66.2094    2.1163 H   0  0  0  0  0  0  0  0  0  0  0  0
 25 28  1  0
 25 24  1  0
 25 26  1  6
 25 27  2  0
  1  4  1  0
  1 24  1  0
  1  2  1  6
  1  3  2  0
  6 11  1  0
  6 12  1  0
 29 36  1  0
 29 37  1  0
  9  7  1  6
  7 13  1  0
 10  8  1  6
  8 14  1  0
 37 28  1  6
  4  5  1  0
 33 30  1  6
 30 38  1  0
 34 31  1  6
 31 39  1  0
 35 32  1  6
 32 40  1  0
 41 42  1  0
 41 43  1  0
 15 19  2  0
 16 22  2  0
 12 17  1  1
 17 19  1  0
 17 20  1  0
 18 19  1  0
 18 22  1  0
 18 23  1  0
  9 10  1  0
  9 11  1  0
 10 12  1  0
 11  5  1  1
 33 34  1  0
 33 35  1  0
 34 36  1  0
 35 37  1  0
 36 42  1  1
 20 21  2  0
 21 22  1  0
M  CHG  2   2  -1  26  -1
M  END
>  <COMPND>  (28) 
    8629 

>  <AUTHOR>  (28) 
    GENERATED BY OPEN BABEL 3.1.1

>  <MASTER>  (28) 
        0    0    0    0    0    0    0    0   58    0   58    0

>  <minimizedAffinity>  (28) 
-6.61532

>  <CNNscore>  (28) 
0.5411382318

>  <CNNaffinity>  (28) 
4.3225326538

>  <CNN_VS>  (28) 
2.3390877247

>  <CNNaffinity_variance>  (28) 
0.1136967391

$$$$
29
     RDKit          3D

 43 45  0  0  0  0  0  0  0  0999 V2000
   21.9469   72.7458    0.7849 P   0  0  2  0  0  0  0  0  0  0  0  0
   20.9219   73.9153    0.3388 O   0  0  0  0  0  0  0  0  0  0  0  0
   23.3952   73.0388    0.5239 O   0  0  0  0  0  0  0  0  0  0  0  0
   21.3582   71.4195    0.0691 O   0  0  0  0  0  0  0  0  0  0  0  0
   21.0012   71.4922   -1.3002 C   0  0  0  0  0  0  0  0  0  0  0  0
   21.7095   70.2946   -3.2592 O   0  0  0  0  0  0  0  0  0  0  0  0
   24.2722   71.8368   -3.0467 O   0  0  0  0  0  0  0  0  0  0  0  0
   22.9351   73.1738   -5.0117 O   0  0  0  0  0  0  0  0  0  0  0  0
   22.9396   72.2576   -2.7596 C   0  0  1  0  0  0  0  0  0  0  0  0
   22.1708   72.4825   -4.0449 C   0  0  2  0  0  0  0  0  0  0  0  0
   22.1964   71.0770   -2.1470 C   0  0  1  0  0  0  0  0  0  0  0  0
   21.8410   71.0610   -4.4677 C   0  0  2  0  0  0  0  0  0  0  0  0
   24.7666   72.5743   -3.4386 H   0  0  0  0  0  0  0  0  0  0  0  0
   23.1189   74.0725   -4.6965 H   0  0  0  0  0  0  0  0  0  0  0  0
   21.6293   71.4482   -7.2575 O   0  0  0  0  0  0  0  0  0  0  0  0
   17.0773   70.7292   -7.1965 O   0  0  0  0  0  0  0  0  0  0  0  0
   20.6128   70.9804   -5.2069 N   0  0  0  0  0  0  0  0  0  0  0  0
   19.3629   71.0897   -7.2249 N   0  0  0  0  0  0  0  0  0  0  0  0
   20.6149   71.1924   -6.6053 C   0  0  0  0  0  0  0  0  0  0  0  0
   19.4235   70.6936   -4.5456 C   0  0  0  0  0  0  0  0  0  0  0  0
   18.2377   70.6004   -5.1509 C   0  0  0  0  0  0  0  0  0  0  0  0
   18.1528   70.8081   -6.6109 C   0  0  0  0  0  0  0  0  0  0  0  0
   19.3400   71.2339   -8.1988 H   0  0  0  0  0  0  0  0  0  0  0  0
   21.5775   72.5130    2.3413 O   0  0  0  0  0  0  0  0  0  0  0  0
   22.4762   71.9897    3.5788 P   0  0  2  0  0  0  0  0  0  0  0  0
   22.9862   70.5379    3.0792 O   0  0  0  0  0  0  0  0  0  0  0  0
   21.7582   71.9739    4.8973 O   0  0  0  0  0  0  0  0  0  0  0  0
   23.7957   72.9186    3.5469 O   0  0  0  0  0  0  0  0  0  0  0  0
   25.9193   71.9692    3.0931 O   0  0  0  0  0  0  0  0  0  0  0  0
   27.1334   75.3968    5.0497 O   0  0  0  0  0  0  0  0  0  0  0  0
   27.5067   75.1770    2.2106 O   0  0  0  0  0  0  0  0  0  0  0  0
   24.7792   73.9754    5.9534 O   0  0  0  0  0  0  0  0  0  0  0  0
   26.2982   74.6106    4.1954 C   0  0  1  0  0  0  0  0  0  0  0  0
   27.1551   74.0773    3.0456 C   0  0  1  0  0  0  0  0  0  0  0  0
   25.7033   73.4580    5.0022 C   0  0  2  0  0  0  0  0  0  0  0  0
   26.3988   73.0137    2.2382 C   0  0  1  0  0  0  0  0  0  0  0  0
   25.0162   72.4320    4.0992 C   0  0  1  0  0  0  0  0  0  0  0  0
   27.5139   76.1308    4.5436 H   0  0  0  0  0  0  0  0  0  0  0  0
   27.9832   75.8415    2.7326 H   0  0  0  0  0  0  0  0  0  0  0  0
   25.2264   74.6234    6.5191 H   0  0  0  0  0  0  0  0  0  0  0  0
   27.3528   73.2069    0.0562 O   0  0  0  0  0  0  0  0  0  0  0  0
   27.2879   72.3555    1.1854 C   0  0  0  0  0  0  0  0  0  0  0  0
   27.9157   72.8010   -0.6222 H   0  0  0  0  0  0  0  0  0  0  0  0
 25 28  1  0
 25 24  1  0
 25 26  1  6
 25 27  2  0
  1  4  1  0
  1 24  1  0
  1  2  1  6
  1  3  2  0
  6 11  1  0
  6 12  1  0
 29 36  1  0
 29 37  1  0
  9  7  1  6
  7 13  1  0
 10  8  1  6
  8 14  1  0
 37 28  1  6
  4  5  1  0
 33 30  1  1
 30 38  1  0
 34 31  1  6
 31 39  1  0
 35 32  1  1
 32 40  1  0
 41 42  1  0
 41 43  1  0
 15 19  2  0
 16 22  2  0
 12 17  1  1
 17 19  1  0
 17 20  1  0
 18 19  1  0
 18 22  1  0
 18 23  1  0
  9 10  1  0
  9 11  1  0
 10 12  1  0
 11  5  1  6
 33 34  1  0
 33 35  1  0
 34 36  1  0
 35 37  1  0
 36 42  1  6
 20 21  2  0
 21 22  1  0
M  CHG  2   2  -1  26  -1
M  END
>  <COMPND>  (29) 
    8629 

>  <AUTHOR>  (29) 
    GENERATED BY OPEN BABEL 3.1.1

>  <MASTER>  (29) 
        0    0    0    0    0    0    0    0   58    0   58    0

>  <minimizedAffinity>  (29) 
-6.36700

>  <CNNscore>  (29) 
0.5124060512

>  <CNNaffinity>  (29) 
4.0096001625

>  <CNN_VS>  (29) 
2.0545434952

>  <CNNaffinity_variance>  (29) 
0.2044030130

$$$$
30
     RDKit          3D

 43 45  0  0  0  0  0  0  0  0999 V2000
   21.1965   72.6663   -4.9529 P   0  0  2  0  0  0  0  0  0  0  0  0
   20.1017   73.0726   -3.8332 O   0  0  0  0  0  0  0  0  0  0  0  0
   21.7945   73.8202   -5.7028 O   0  0  0  0  0  0  0  0  0  0  0  0
   20.4362   71.5598   -5.8561 O   0  0  0  0  0  0  0  0  0  0  0  0
   19.0447   71.3720   -5.6657 C   0  0  0  0  0  0  0  0  0  0  0  0
   17.0485   70.5014   -6.6811 O   0  0  0  0  0  0  0  0  0  0  0  0
   18.4887   70.7654   -9.2978 O   0  0  0  0  0  0  0  0  0  0  0  0
   16.8723   72.9617   -9.2847 O   0  0  0  0  0  0  0  0  0  0  0  0
   18.5432   71.6093   -8.1488 C   0  0  1  0  0  0  0  0  0  0  0  0
   17.2755   72.4305   -8.0389 C   0  0  2  0  0  0  0  0  0  0  0  0
   18.4569   70.7239   -6.9118 C   0  0  1  0  0  0  0  0  0  0  0  0
   16.2886   71.4145   -7.4895 C   0  0  2  0  0  0  0  0  0  0  0  0
   18.5425   71.3084  -10.1004 H   0  0  0  0  0  0  0  0  0  0  0  0
   17.5324   73.6025   -9.5920 H   0  0  0  0  0  0  0  0  0  0  0  0
   14.0111   72.7388   -8.5080 O   0  0  0  0  0  0  0  0  0  0  0  0
   12.4573   73.7083   -4.2787 O   0  0  0  0  0  0  0  0  0  0  0  0
   15.2725   72.0219   -6.6771 N   0  0  0  0  0  0  0  0  0  0  0  0
   13.2392   73.2203   -6.4013 N   0  0  0  0  0  0  0  0  0  0  0  0
   14.1695   72.6629   -7.2878 C   0  0  0  0  0  0  0  0  0  0  0  0
   15.3753   71.9780   -5.2910 C   0  0  0  0  0  0  0  0  0  0  0  0
   14.4803   72.5156   -4.4596 C   0  0  0  0  0  0  0  0  0  0  0  0
   13.2980   73.2039   -5.0167 C   0  0  0  0  0  0  0  0  0  0  0  0
   12.4626   73.6724   -6.8041 H   0  0  0  0  0  0  0  0  0  0  0  0
   22.2613   71.7832   -4.1166 O   0  0  0  0  0  0  0  0  0  0  0  0
   22.0842   70.8937   -2.7786 P   0  0  2  0  0  0  0  0  0  0  0  0
   23.4971   70.1144   -2.6614 O   0  0  0  0  0  0  0  0  0  0  0  0
   20.8810   69.9959   -2.7913 O   0  0  0  0  0  0  0  0  0  0  0  0
   22.1075   71.9638   -1.5706 O   0  0  0  0  0  0  0  0  0  0  0  0
   21.9820   71.1320    0.6451 O   0  0  0  0  0  0  0  0  0  0  0  0
   20.9080   75.0561    1.3516 O   0  0  0  0  0  0  0  0  0  0  0  0
   23.4942   74.1224    2.1811 O   0  0  0  0  0  0  0  0  0  0  0  0
   19.9782   73.7124   -1.0378 O   0  0  0  0  0  0  0  0  0  0  0  0
   21.6166   73.9954    0.7049 C   0  0  1  0  0  0  0  0  0  0  0  0
   22.4430   73.2575    1.7600 C   0  0  1  0  0  0  0  0  0  0  0  0
   20.6111   73.0493    0.0513 C   0  0  2  0  0  0  0  0  0  0  0  0
   23.0190   71.9507    1.1983 C   0  0  1  0  0  0  0  0  0  0  0  0
   21.2789   71.7595   -0.4291 C   0  0  1  0  0  0  0  0  0  0  0  0
   21.5407   75.6607    1.7683 H   0  0  0  0  0  0  0  0  0  0  0  0
   23.1171   74.9440    2.5332 H   0  0  0  0  0  0  0  0  0  0  0  0
   19.5591   74.5270   -0.7207 H   0  0  0  0  0  0  0  0  0  0  0  0
   22.9068   69.9963    2.5682 O   0  0  0  0  0  0  0  0  0  0  0  0
   23.7141   71.1221    2.2764 C   0  0  0  0  0  0  0  0  0  0  0  0
   23.3369   69.4594    3.2527 H   0  0  0  0  0  0  0  0  0  0  0  0
 25 28  1  0
 25 24  1  0
 25 26  1  1
 25 27  2  0
  1  4  1  0
  1 24  1  0
  1  2  1  1
  1  3  2  0
  6 11  1  0
  6 12  1  0
 29 36  1  0
 29 37  1  0
  9  7  1  6
  7 13  1  0
 10  8  1  6
  8 14  1  0
 37 28  1  6
  4  5  1  0
 33 30  1  1
 30 38  1  0
 34 31  1  6
 31 39  1  0
 35 32  1  6
 32 40  1  0
 41 42  1  0
 41 43  1  0
 15 19  2  0
 16 22  2  0
 12 17  1  1
 17 19  1  0
 17 20  1  0
 18 19  1  0
 18 22  1  0
 18 23  1  0
  9 10  1  0
  9 11  1  0
 10 12  1  0
 11  5  1  1
 33 34  1  0
 33 35  1  0
 34 36  1  0
 35 37  1  0
 36 42  1  1
 20 21  2  0
 21 22  1  0
M  CHG  2   2  -1  26  -1
M  END
>  <COMPND>  (30) 
    8629 

>  <AUTHOR>  (30) 
    GENERATED BY OPEN BABEL 3.1.1

>  <MASTER>  (30) 
        0    0    0    0    0    0    0    0   58    0   58    0

>  <minimizedAffinity>  (30) 
-6.52995

>  <CNNscore>  (30) 
0.4785507023

>  <CNNaffinity>  (30) 
4.1543369293

>  <CNN_VS>  (30) 
1.9880608320

>  <CNNaffinity_variance>  (30) 
0.0075175115

$$$$
31
     RDKit          3D

 43 45  0  0  0  0  0  0  0  0999 V2000
   23.2477   72.4683   -0.3080 P   0  0  2  0  0  0  0  0  0  0  0  0
   22.2662   71.1991   -0.5166 O   0  0  0  0  0  0  0  0  0  0  0  0
   22.5651   73.7334    0.1220 O   0  0  0  0  0  0  0  0  0  0  0  0
   24.0738   72.5527   -1.6966 O   0  0  0  0  0  0  0  0  0  0  0  0
   23.4732   72.0395   -2.8730 C   0  0  0  0  0  0  0  0  0  0  0  0
   22.7522   72.6266   -5.0886 O   0  0  0  0  0  0  0  0  0  0  0  0
   23.3401   75.4661   -4.3254 O   0  0  0  0  0  0  0  0  0  0  0  0
   20.6288   75.3301   -4.0664 O   0  0  0  0  0  0  0  0  0  0  0  0
   22.8128   74.4079   -3.5269 C   0  0  1  0  0  0  0  0  0  0  0  0
   21.3693   74.1385   -3.8976 C   0  0  2  0  0  0  0  0  0  0  0  0
   23.4969   73.1143   -3.9511 C   0  0  1  0  0  0  0  0  0  0  0  0
   21.5171   73.3540   -5.1903 C   0  0  2  0  0  0  0  0  0  0  0  0
   22.9184   76.3028   -4.0724 H   0  0  0  0  0  0  0  0  0  0  0  0
   20.5627   75.7930   -3.2166 H   0  0  0  0  0  0  0  0  0  0  0  0
   20.4892   72.6265   -7.7185 O   0  0  0  0  0  0  0  0  0  0  0  0
   17.3932   69.7739   -5.8427 O   0  0  0  0  0  0  0  0  0  0  0  0
   20.4428   72.4231   -5.3918 N   0  0  0  0  0  0  0  0  0  0  0  0
   18.9486   71.2066   -6.7825 N   0  0  0  0  0  0  0  0  0  0  0  0
   20.0011   72.1274   -6.7025 C   0  0  0  0  0  0  0  0  0  0  0  0
   19.8393   71.8139   -4.2971 C   0  0  0  0  0  0  0  0  0  0  0  0
   18.8358   70.9388   -4.3903 C   0  0  0  0  0  0  0  0  0  0  0  0
   18.3150   70.5752   -5.7239 C   0  0  0  0  0  0  0  0  0  0  0  0
   18.6240   70.9856   -7.6856 H   0  0  0  0  0  0  0  0  0  0  0  0
   24.3479   71.9092    0.7359 O   0  0  0  0  0  0  0  0  0  0  0  0
   25.3755   72.6858    1.7125 P   0  0  2  0  0  0  0  0  0  0  0  0
   25.6929   74.0521    0.9062 O   0  0  0  0  0  0  0  0  0  0  0  0
   26.5925   71.8891    2.0842 O   0  0  0  0  0  0  0  0  0  0  0  0
   24.4732   73.1529    2.9666 O   0  0  0  0  0  0  0  0  0  0  0  0
   24.9098   73.2225    5.2949 O   0  0  0  0  0  0  0  0  0  0  0  0
   20.9851   71.9429    5.3976 O   0  0  0  0  0  0  0  0  0  0  0  0
   21.6208   74.6317    6.1814 O   0  0  0  0  0  0  0  0  0  0  0  0
   22.7737   70.9526    3.3482 O   0  0  0  0  0  0  0  0  0  0  0  0
   22.1036   72.6764    4.8912 C   0  0  1  0  0  0  0  0  0  0  0  0
   22.6005   73.6144    5.9931 C   0  0  1  0  0  0  0  0  0  0  0  0
   23.2015   71.6951    4.4849 C   0  0  2  0  0  0  0  0  0  0  0  0
   23.9532   74.2372    5.6221 C   0  0  1  0  0  0  0  0  0  0  0  0
   24.5182   72.4134    4.1842 C   0  0  1  0  0  0  0  0  0  0  0  0
   20.2842   72.5602    5.6569 H   0  0  0  0  0  0  0  0  0  0  0  0
   20.7715   74.2251    6.4147 H   0  0  0  0  0  0  0  0  0  0  0  0
   21.9395   70.5024    3.5514 H   0  0  0  0  0  0  0  0  0  0  0  0
   23.9209   74.6434    7.9764 O   0  0  0  0  0  0  0  0  0  0  0  0
   24.5423   75.0517    6.7717 C   0  0  0  0  0  0  0  0  0  0  0  0
   24.2862   75.1532    8.7169 H   0  0  0  0  0  0  0  0  0  0  0  0
 25 28  1  0
 25 24  1  0
 25 26  1  6
 25 27  2  0
  1  4  1  0
  1 24  1  0
  1  2  1  6
  1  3  2  0
  6 11  1  0
  6 12  1  0
 29 36  1  0
 29 37  1  0
  9  7  1  6
  7 13  1  0
 10  8  1  6
  8 14  1  0
 37 28  1  6
  4  5  1  0
 33 30  1  1
 30 38  1  0
 34 31  1  6
 31 39  1  0
 35 32  1  6
 32 40  1  0
 41 42  1  0
 41 43  1  0
 15 19  2  0
 16 22  2  0
 12 17  1  1
 17 19  1  0
 17 20  1  0
 18 19  1  0
 18 22  1  0
 18 23  1  0
  9 10  1  0
  9 11  1  0
 10 12  1  0
 11  5  1  1
 33 34  1  0
 33 35  1  0
 34 36  1  0
 35 37  1  0
 36 42  1  1
 20 21  2  0
 21 22  1  0
M  CHG  2   2  -1  26  -1
M  END
>  <COMPND>  (31) 
    8629 

>  <AUTHOR>  (31) 
    GENERATED BY OPEN BABEL 3.1.1

>  <MASTER>  (31) 
        0    0    0    0    0    0    0    0   58    0   58    0

>  <minimizedAffinity>  (31) 
-6.28354

>  <CNNscore>  (31) 
0.4733636975

>  <CNNaffinity>  (31) 
3.8920104504

>  <CNN_VS>  (31) 
1.8423364162

>  <CNNaffinity_variance>  (31) 
0.0721654594

$$$$
32
     RDKit          3D

 43 45  0  0  0  0  0  0  0  0999 V2000
   23.2964   72.2579    1.4912 P   0  0  2  0  0  0  0  0  0  0  0  0
   22.6932   70.7949    1.8278 O   0  0  0  0  0  0  0  0  0  0  0  0
   22.9675   73.3249    2.4935 O   0  0  0  0  0  0  0  0  0  0  0  0
   22.8046   72.5416   -0.0239 O   0  0  0  0  0  0  0  0  0  0  0  0
   22.1680   71.4945   -0.7354 C   0  0  0  0  0  0  0  0  0  0  0  0
   22.3163   70.5321   -2.9321 O   0  0  0  0  0  0  0  0  0  0  0  0
   25.1818   71.4151   -2.9215 O   0  0  0  0  0  0  0  0  0  0  0  0
   23.9740   73.3343   -4.4363 O   0  0  0  0  0  0  0  0  0  0  0  0
   24.0369   72.0603   -2.3664 C   0  0  1  0  0  0  0  0  0  0  0  0
   23.1916   72.6688   -3.4658 C   0  0  2  0  0  0  0  0  0  0  0  0
   23.1125   70.9824   -1.8142 C   0  0  1  0  0  0  0  0  0  0  0  0
   22.4778   71.4501   -4.0257 C   0  0  2  0  0  0  0  0  0  0  0  0
   25.7872   72.0835   -3.2804 H   0  0  0  0  0  0  0  0  0  0  0  0
   24.4074   74.1018   -4.0316 H   0  0  0  0  0  0  0  0  0  0  0  0
   22.0252   72.3962   -6.6483 O   0  0  0  0  0  0  0  0  0  0  0  0
   17.4738   72.6478   -5.9683 O   0  0  0  0  0  0  0  0  0  0  0  0
   21.1845   71.7704   -4.5605 N   0  0  0  0  0  0  0  0  0  0  0  0
   19.7593   72.5205   -6.3076 N   0  0  0  0  0  0  0  0  0  0  0  0
   21.0663   72.2392   -5.8897 C   0  0  0  0  0  0  0  0  0  0  0  0
   20.0506   71.6186   -3.7698 C   0  0  0  0  0  0  0  0  0  0  0  0
   18.8115   71.8925   -4.1830 C   0  0  0  0  0  0  0  0  0  0  0  0
   18.6008   72.3870   -5.5588 C   0  0  0  0  0  0  0  0  0  0  0  0
   19.6525   72.8488   -7.2299 H   0  0  0  0  0  0  0  0  0  0  0  0
   24.8763   71.9673    1.3119 O   0  0  0  0  0  0  0  0  0  0  0  0
   26.1080   72.9613    0.9832 P   0  0  2  0  0  0  0  0  0  0  0  0
   25.4045   74.1648    0.1622 O   0  0  0  0  0  0  0  0  0  0  0  0
   27.2518   72.3068    0.2640 O   0  0  0  0  0  0  0  0  0  0  0  0
   26.4983   73.6129    2.4073 O   0  0  0  0  0  0  0  0  0  0  0  0
   27.7526   72.1733    3.8111 O   0  0  0  0  0  0  0  0  0  0  0  0
   26.7514   75.0778    6.5702 O   0  0  0  0  0  0  0  0  0  0  0  0
   29.4527   74.9048    5.6105 O   0  0  0  0  0  0  0  0  0  0  0  0
   24.8275   74.2664    4.5652 O   0  0  0  0  0  0  0  0  0  0  0  0
   27.1070   74.5737    5.2800 C   0  0  1  0  0  0  0  0  0  0  0  0
   28.4731   73.8937    5.3906 C   0  0  1  0  0  0  0  0  0  0  0  0
   26.0448   73.5751    4.8240 C   0  0  2  0  0  0  0  0  0  0  0  0
   28.8011   73.0993    4.1192 C   0  0  1  0  0  0  0  0  0  0  0  0
   26.4912   72.8039    3.5806 C   0  0  1  0  0  0  0  0  0  0  0  0
   27.4216   75.7128    6.8654 H   0  0  0  0  0  0  0  0  0  0  0  0
   29.2336   75.3993    6.4159 H   0  0  0  0  0  0  0  0  0  0  0  0
   24.5554   74.7503    5.3600 H   0  0  0  0  0  0  0  0  0  0  0  0
   31.1897   73.1559    4.1035 O   0  0  0  0  0  0  0  0  0  0  0  0
   30.0850   72.2860    4.2683 C   0  0  0  0  0  0  0  0  0  0  0  0
   32.0139   72.6520    4.1961 H   0  0  0  0  0  0  0  0  0  0  0  0
 25 28  1  0
 25 24  1  0
 25 26  1  6
 25 27  2  0
  1  4  1  0
  1 24  1  0
  1  2  1  1
  1  3  2  0
  6 11  1  0
  6 12  1  0
 29 36  1  0
 29 37  1  0
  9  7  1  6
  7 13  1  0
 10  8  1  6
  8 14  1  0
 37 28  1  6
  4  5  1  0
 33 30  1  1
 30 38  1  0
 34 31  1  6
 31 39  1  0
 35 32  1  6
 32 40  1  0
 41 42  1  0
 41 43  1  0
 15 19  2  0
 16 22  2  0
 12 17  1  1
 17 19  1  0
 17 20  1  0
 18 19  1  0
 18 22  1  0
 18 23  1  0
  9 10  1  0
  9 11  1  0
 10 12  1  0
 11  5  1  1
 33 34  1  0
 33 35  1  0
 34 36  1  0
 35 37  1  0
 36 42  1  1
 20 21  2  0
 21 22  1  0
M  CHG  2   2  -1  26  -1
M  END
>  <COMPND>  (32) 
    8629 

>  <AUTHOR>  (32) 
    GENERATED BY OPEN BABEL 3.1.1

>  <MASTER>  (32) 
        0    0    0    0    0    0    0    0   58    0   58    0

>  <minimizedAffinity>  (32) 
-6.48263

>  <CNNscore>  (32) 
0.4712485373

>  <CNNaffinity>  (32) 
4.1834921837

>  <CNN_VS>  (32) 
1.9714645147

>  <CNNaffinity_variance>  (32) 
0.1049649119

$$$$
33
     RDKit          3D

 43 45  0  0  0  0  0  0  0  0999 V2000
   21.1372   72.0368   -6.4331 P   0  0  2  0  0  0  0  0  0  0  0  0
   21.6318   71.7271   -7.9421 O   0  0  0  0  0  0  0  0  0  0  0  0
   21.0436   70.8362   -5.5380 O   0  0  0  0  0  0  0  0  0  0  0  0
   19.7651   72.8696   -6.6373 O   0  0  0  0  0  0  0  0  0  0  0  0
   18.7762   72.3415   -7.5039 C   0  0  0  0  0  0  0  0  0  0  0  0
   16.5421   72.5821   -6.6528 O   0  0  0  0  0  0  0  0  0  0  0  0
   16.5991   69.6199   -6.1918 O   0  0  0  0  0  0  0  0  0  0  0  0
   15.1610   69.8348   -8.4988 O   0  0  0  0  0  0  0  0  0  0  0  0
   17.1765   70.3791   -7.2527 C   0  0  1  0  0  0  0  0  0  0  0  0
   16.1003   70.8498   -8.2086 C   0  0  2  0  0  0  0  0  0  0  0  0
   17.6804   71.6932   -6.6690 C   0  0  1  0  0  0  0  0  0  0  0  0
   15.4880   72.0124   -7.4460 C   0  0  2  0  0  0  0  0  0  0  0  0
   16.2704   68.7757   -6.5402 H   0  0  0  0  0  0  0  0  0  0  0  0
   15.5987   69.1182   -8.9843 H   0  0  0  0  0  0  0  0  0  0  0  0
   13.0115   73.3169   -7.0679 O   0  0  0  0  0  0  0  0  0  0  0  0
   13.5725   75.8759  -10.8598 O   0  0  0  0  0  0  0  0  0  0  0  0
   14.9624   73.0239   -8.3189 N   0  0  0  0  0  0  0  0  0  0  0  0
   13.2929   74.5901   -8.9562 N   0  0  0  0  0  0  0  0  0  0  0  0
   13.7084   73.6155   -8.0399 C   0  0  0  0  0  0  0  0  0  0  0  0
   15.6883   73.4197   -9.4370 C   0  0  0  0  0  0  0  0  0  0  0  0
   15.2775   74.3497  -10.3017 C   0  0  0  0  0  0  0  0  0  0  0  0
   13.9780   75.0170  -10.0827 C   0  0  0  0  0  0  0  0  0  0  0  0
   12.4221   75.0158   -8.7823 H   0  0  0  0  0  0  0  0  0  0  0  0
   22.1782   73.1683   -5.9343 O   0  0  0  0  0  0  0  0  0  0  0  0
   22.2814   73.9737   -4.5366 P   0  0  2  0  0  0  0  0  0  0  0  0
   21.0822   75.0546   -4.6419 O   0  0  0  0  0  0  0  0  0  0  0  0
   23.6323   74.5716   -4.2692 O   0  0  0  0  0  0  0  0  0  0  0  0
   21.7835   72.9199   -3.4202 O   0  0  0  0  0  0  0  0  0  0  0  0
   19.5723   73.0130   -2.5725 O   0  0  0  0  0  0  0  0  0  0  0  0
   21.3893   71.0026    0.5433 O   0  0  0  0  0  0  0  0  0  0  0  0
   19.6187   69.5848   -1.2182 O   0  0  0  0  0  0  0  0  0  0  0  0
   22.7957   73.1391   -0.8120 O   0  0  0  0  0  0  0  0  0  0  0  0
   21.1697   71.3622   -0.8234 C   0  0  1  0  0  0  0  0  0  0  0  0
   19.7272   71.0052   -1.1875 C   0  0  1  0  0  0  0  0  0  0  0  0
   21.4109   72.8614   -0.9900 C   0  0  2  0  0  0  0  0  0  0  0  0
   19.3352   71.6006   -2.5465 C   0  0  1  0  0  0  0  0  0  0  0  0
   20.9416   73.3604   -2.3578 C   0  0  1  0  0  0  0  0  0  0  0  0
   21.2382   70.0518    0.6558 H   0  0  0  0  0  0  0  0  0  0  0  0
   19.8694   69.2214   -0.3543 H   0  0  0  0  0  0  0  0  0  0  0  0
   23.0805   72.8187    0.0575 H   0  0  0  0  0  0  0  0  0  0  0  0
   17.7075   70.1536   -3.5292 O   0  0  0  0  0  0  0  0  0  0  0  0
   17.8548   71.3910   -2.8572 C   0  0  0  0  0  0  0  0  0  0  0  0
   16.7702   70.0067   -3.7330 H   0  0  0  0  0  0  0  0  0  0  0  0
 25 28  1  0
 25 24  1  0
 25 26  1  6
 25 27  2  0
  1  4  1  0
  1 24  1  0
  1  2  1  6
  1  3  2  0
  6 11  1  0
  6 12  1  0
 29 36  1  0
 29 37  1  0
  9  7  1  1
  7 13  1  0
 10  8  1  1
  8 14  1  0
 37 28  1  6
  4  5  1  0
 33 30  1  1
 30 38  1  0
 34 31  1  6
 31 39  1  0
 35 32  1  6
 32 40  1  0
 41 42  1  0
 41 43  1  0
 15 19  2  0
 16 22  2  0
 12 17  1  6
 17 19  1  0
 17 20  1  0
 18 19  1  0
 18 22  1  0
 18 23  1  0
  9 10  1  0
  9 11  1  0
 10 12  1  0
 11  5  1  6
 33 34  1  0
 33 35  1  0
 34 36  1  0
 35 37  1  0
 36 42  1  1
 20 21  2  0
 21 22  1  0
M  CHG  2   2  -1  26  -1
M  END
>  <COMPND>  (33) 
    8629 

>  <AUTHOR>  (33) 
    GENERATED BY OPEN BABEL 3.1.1

>  <MASTER>  (33) 
        0    0    0    0    0    0    0    0   58    0   58    0

>  <minimizedAffinity>  (33) 
-6.39601

>  <CNNscore>  (33) 
0.4476136863

>  <CNNaffinity>  (33) 
4.0446729660

>  <CNN_VS>  (33) 
1.8104510307

>  <CNNaffinity_variance>  (33) 
0.0816155821

$$$$
34
     RDKit          3D

 43 45  0  0  0  0  0  0  0  0999 V2000
   22.7745   73.1379   -4.2072 P   0  0  2  0  0  0  0  0  0  0  0  0
   24.1816   72.3666   -4.0012 O   0  0  0  0  0  0  0  0  0  0  0  0
   22.8943   74.5859   -4.5819 O   0  0  0  0  0  0  0  0  0  0  0  0
   21.9596   72.8301   -2.8437 O   0  0  0  0  0  0  0  0  0  0  0  0
   22.4742   73.3288   -1.6212 C   0  0  0  0  0  0  0  0  0  0  0  0
   24.2569   72.1565   -0.5160 O   0  0  0  0  0  0  0  0  0  0  0  0
   22.1329   70.9455    1.2199 O   0  0  0  0  0  0  0  0  0  0  0  0
   23.1606   72.9032    2.8162 O   0  0  0  0  0  0  0  0  0  0  0  0
   22.2095   72.2609    0.6728 C   0  0  1  0  0  0  0  0  0  0  0  0
   23.2432   73.0804    1.4167 C   0  0  2  0  0  0  0  0  0  0  0  0
   22.8264   72.1560   -0.7164 C   0  0  1  0  0  0  0  0  0  0  0  0
   24.5431   72.5503    0.8360 C   0  0  2  0  0  0  0  0  0  0  0  0
   21.7417   70.9869    2.1071 H   0  0  0  0  0  0  0  0  0  0  0  0
   22.3163   73.2561    3.1377 H   0  0  0  0  0  0  0  0  0  0  0  0
   27.1864   72.1041    1.7259 O   0  0  0  0  0  0  0  0  0  0  0  0
   28.4428   76.4275    0.7405 O   0  0  0  0  0  0  0  0  0  0  0  0
   25.5816   73.5416    0.8229 N   0  0  0  0  0  0  0  0  0  0  0  0
   27.8099   74.2571    1.2343 N   0  0  0  0  0  0  0  0  0  0  0  0
   26.8751   73.2156    1.2930 C   0  0  0  0  0  0  0  0  0  0  0  0
   25.3129   74.8206    0.3475 C   0  0  0  0  0  0  0  0  0  0  0  0
   26.2150   75.8029    0.2994 C   0  0  0  0  0  0  0  0  0  0  0  0
   27.5907   75.5450    0.7717 C   0  0  0  0  0  0  0  0  0  0  0  0
   28.7177   74.0532    1.5569 H   0  0  0  0  0  0  0  0  0  0  0  0
   22.0140   72.2210   -5.2998 O   0  0  0  0  0  0  0  0  0  0  0  0
   21.0434   72.6198   -6.5294 P   0  0  2  0  0  0  0  0  0  0  0  0
   21.8493   72.0857   -7.8266 O   0  0  0  0  0  0  0  0  0  0  0  0
   20.6823   74.0761   -6.5810 O   0  0  0  0  0  0  0  0  0  0  0  0
   19.7817   71.6223   -6.3941 O   0  0  0  0  0  0  0  0  0  0  0  0
   17.8200   72.9185   -6.6910 O   0  0  0  0  0  0  0  0  0  0  0  0
   16.0791   69.2678   -5.8589 O   0  0  0  0  0  0  0  0  0  0  0  0
   15.9988   70.2992   -8.5381 O   0  0  0  0  0  0  0  0  0  0  0  0
   18.4725   70.0811   -4.4484 O   0  0  0  0  0  0  0  0  0  0  0  0
   17.0677   70.1458   -6.4039 C   0  0  1  0  0  0  0  0  0  0  0  0
   16.3825   71.0760   -7.4068 C   0  0  1  0  0  0  0  0  0  0  0  0
   17.7003   70.9503   -5.2698 C   0  0  2  0  0  0  0  0  0  0  0  0
   17.3173   72.2158   -7.8335 C   0  0  1  0  0  0  0  0  0  0  0  0
   18.5718   72.0890   -5.8029 C   0  0  1  0  0  0  0  0  0  0  0  0
   15.6738   68.7537   -6.5738 H   0  0  0  0  0  0  0  0  0  0  0  0
   15.4091   69.5828   -8.2549 H   0  0  0  0  0  0  0  0  0  0  0  0
   17.9095   69.3648   -4.1170 H   0  0  0  0  0  0  0  0  0  0  0  0
   16.5299   74.4654   -8.0008 O   0  0  0  0  0  0  0  0  0  0  0  0
   16.6040   73.2426   -8.7104 C   0  0  0  0  0  0  0  0  0  0  0  0
   16.0786   75.1286   -8.5469 H   0  0  0  0  0  0  0  0  0  0  0  0
 25 28  1  0
 25 24  1  0
 25 26  1  6
 25 27  2  0
  1  4  1  0
  1 24  1  0
  1  2  1  1
  1  3  2  0
  6 11  1  0
  6 12  1  0
 29 36  1  0
 29 37  1  0
  9  7  1  1
  7 13  1  0
 10  8  1  1
  8 14  1  0
 37 28  1  6
  4  5  1  0
 33 30  1  1
 30 38  1  0
 34 31  1  6
 31 39  1  0
 35 32  1  6
 32 40  1  0
 41 42  1  0
 41 43  1  0
 15 19  2  0
 16 22  2  0
 12 17  1  6
 17 19  1  0
 17 20  1  0
 18 19  1  0
 18 22  1  0
 18 23  1  0
  9 10  1  0
  9 11  1  0
 10 12  1  0
 11  5  1  6
 33 34  1  0
 33 35  1  0
 34 36  1  0
 35 37  1  0
 36 42  1  6
 20 21  2  0
 21 22  1  0
M  CHG  2   2  -1  26  -1
M  END
>  <COMPND>  (34) 
    8629 

>  <AUTHOR>  (34) 
    GENERATED BY OPEN BABEL 3.1.1

>  <MASTER>  (34) 
        0    0    0    0    0    0    0    0   58    0   58    0

>  <minimizedAffinity>  (34) 
-6.63847

>  <CNNscore>  (34) 
0.4330418706

>  <CNNaffinity>  (34) 
4.1260237694

>  <CNN_VS>  (34) 
1.7867410183

>  <CNNaffinity_variance>  (34) 
0.1339728832

$$$$
35
     RDKit          3D

 43 45  0  0  0  0  0  0  0  0999 V2000
   19.1672   73.4280   -1.1739 P   0  0  2  0  0  0  0  0  0  0  0  0
   18.9182   73.5673    0.4186 O   0  0  0  0  0  0  0  0  0  0  0  0
   19.0078   74.6998   -1.9539 O   0  0  0  0  0  0  0  0  0  0  0  0
   18.1992   72.2082   -1.6132 O   0  0  0  0  0  0  0  0  0  0  0  0
   17.7652   72.1410   -2.9603 C   0  0  0  0  0  0  0  0  0  0  0  0
   17.2972   70.3999   -4.5489 O   0  0  0  0  0  0  0  0  0  0  0  0
   20.2195   69.7434   -4.4083 O   0  0  0  0  0  0  0  0  0  0  0  0
   20.0401   71.1625   -6.7300 O   0  0  0  0  0  0  0  0  0  0  0  0
   19.5767   71.0156   -4.3478 C   0  0  1  0  0  0  0  0  0  0  0  0
   19.0852   71.4222   -5.7214 C   0  0  2  0  0  0  0  0  0  0  0  0
   18.2715   70.8458   -3.5803 C   0  0  1  0  0  0  0  0  0  0  0  0
   17.8322   70.5761   -5.8708 C   0  0  2  0  0  0  0  0  0  0  0  0
   21.0558   69.8266   -4.8937 H   0  0  0  0  0  0  0  0  0  0  0  0
   20.8182   71.7249   -6.5913 H   0  0  0  0  0  0  0  0  0  0  0  0
   16.4985   69.3103   -8.0149 O   0  0  0  0  0  0  0  0  0  0  0  0
   14.0465   73.0954   -8.9646 O   0  0  0  0  0  0  0  0  0  0  0  0
   16.8403   71.2072   -6.6950 N   0  0  0  0  0  0  0  0  0  0  0  0
   15.2786   71.1960   -8.4859 N   0  0  0  0  0  0  0  0  0  0  0  0
   16.2315   70.4836   -7.7468 C   0  0  0  0  0  0  0  0  0  0  0  0
   16.4802   72.5291   -6.4566 C   0  0  0  0  0  0  0  0  0  0  0  0
   15.5706   73.1945   -7.1715 C   0  0  0  0  0  0  0  0  0  0  0  0
   14.8875   72.5108   -8.2886 C   0  0  0  0  0  0  0  0  0  0  0  0
   14.8416   70.7122   -9.2240 H   0  0  0  0  0  0  0  0  0  0  0  0
   20.6412   72.7693   -1.2550 O   0  0  0  0  0  0  0  0  0  0  0  0
   21.1613   71.2829   -0.8900 P   0  0  2  0  0  0  0  0  0  0  0  0
   22.3945   71.0597   -1.9132 O   0  0  0  0  0  0  0  0  0  0  0  0
   20.0987   70.2246   -0.9607 O   0  0  0  0  0  0  0  0  0  0  0  0
   21.8562   71.4374    0.5585 O   0  0  0  0  0  0  0  0  0  0  0  0
   21.8671   73.1787    2.1661 O   0  0  0  0  0  0  0  0  0  0  0  0
   25.8289   72.0389    2.4011 O   0  0  0  0  0  0  0  0  0  0  0  0
   24.0355   71.3844    4.5467 O   0  0  0  0  0  0  0  0  0  0  0  0
   24.4893   72.0845   -0.1646 O   0  0  0  0  0  0  0  0  0  0  0  0
   24.4233   71.8380    2.2305 C   0  0  1  0  0  0  0  0  0  0  0  0
   23.7144   72.3016    3.5046 C   0  0  1  0  0  0  0  0  0  0  0  0
   23.9462   72.6463    1.0253 C   0  0  2  0  0  0  0  0  0  0  0  0
   22.1949   72.3677    3.3003 C   0  0  1  0  0  0  0  0  0  0  0  0
   22.4193   72.6891    0.9425 C   0  0  1  0  0  0  0  0  0  0  0  0
   26.1383   71.5279    3.1645 H   0  0  0  0  0  0  0  0  0  0  0  0
   24.9978   71.3517    4.6651 H   0  0  0  0  0  0  0  0  0  0  0  0
   25.4564   72.0633   -0.0998 H   0  0  0  0  0  0  0  0  0  0  0  0
   21.2096   71.9450    5.4356 O   0  0  0  0  0  0  0  0  0  0  0  0
   21.4818   72.9770    4.5054 C   0  0  0  0  0  0  0  0  0  0  0  0
   20.7560   72.3182    6.2081 H   0  0  0  0  0  0  0  0  0  0  0  0
 25 28  1  0
 25 24  1  0
 25 26  1  6
 25 27  2  0
  1  4  1  0
  1 24  1  0
  1  2  1  1
  1  3  2  0
  6 11  1  0
  6 12  1  0
 29 36  1  0
 29 37  1  0
  9  7  1  6
  7 13  1  0
 10  8  1  6
  8 14  1  0
 37 28  1  1
  4  5  1  0
 33 30  1  1
 30 38  1  0
 34 31  1  1
 31 39  1  0
 35 32  1  6
 32 40  1  0
 41 42  1  0
 41 43  1  0
 15 19  2  0
 16 22  2  0
 12 17  1  6
 17 19  1  0
 17 20  1  0
 18 19  1  0
 18 22  1  0
 18 23  1  0
  9 10  1  0
  9 11  1  0
 10 12  1  0
 11  5  1  6
 33 34  1  0
 33 35  1  0
 34 36  1  0
 35 37  1  0
 36 42  1  1
 20 21  2  0
 21 22  1  0
M  CHG  2   2  -1  26  -1
M  END
>  <COMPND>  (35) 
    8629 

>  <AUTHOR>  (35) 
    GENERATED BY OPEN BABEL 3.1.1

>  <MASTER>  (35) 
        0    0    0    0    0    0    0    0   58    0   58    0

>  <minimizedAffinity>  (35) 
-6.67446

>  <CNNscore>  (35) 
0.4247938097

>  <CNNaffinity>  (35) 
4.1291809082

>  <CNN_VS>  (35) 
1.7540504932

>  <CNNaffinity_variance>  (35) 
0.0076574469

$$$$
36
     RDKit          3D

 43 45  0  0  0  0  0  0  0  0999 V2000
   23.3103   72.2564   -3.1273 P   0  0  2  0  0  0  0  0  0  0  0  0
   23.2514   73.7721   -2.5647 O   0  0  0  0  0  0  0  0  0  0  0  0
   24.6539   71.8199   -3.6330 O   0  0  0  0  0  0  0  0  0  0  0  0
   22.1011   72.1932   -4.2005 O   0  0  0  0  0  0  0  0  0  0  0  0
   21.5180   73.4095   -4.6345 C   0  0  0  0  0  0  0  0  0  0  0  0
   20.8840   72.3228   -6.6817 O   0  0  0  0  0  0  0  0  0  0  0  0
   21.4240   74.9490   -8.0242 O   0  0  0  0  0  0  0  0  0  0  0  0
   18.7053   74.9380   -7.8119 O   0  0  0  0  0  0  0  0  0  0  0  0
   20.8710   74.6920   -6.7345 C   0  0  1  0  0  0  0  0  0  0  0  0
   19.4453   74.1974   -6.8628 C   0  0  2  0  0  0  0  0  0  0  0  0
   21.5791   73.4740   -6.1545 C   0  0  1  0  0  0  0  0  0  0  0  0
   19.6499   72.7511   -7.2804 C   0  0  2  0  0  0  0  0  0  0  0  0
   20.9876   75.7230   -8.4145 H   0  0  0  0  0  0  0  0  0  0  0  0
   18.6022   75.8509   -7.5007 H   0  0  0  0  0  0  0  0  0  0  0  0
   17.1900   72.4083   -8.6255 O   0  0  0  0  0  0  0  0  0  0  0  0
   15.6567   69.4422   -5.4485 O   0  0  0  0  0  0  0  0  0  0  0  0
   18.5900   71.8951   -6.8273 N   0  0  0  0  0  0  0  0  0  0  0  0
   16.4286   70.9316   -7.0426 N   0  0  0  0  0  0  0  0  0  0  0  0
   17.3942   71.7948   -7.5760 C   0  0  0  0  0  0  0  0  0  0  0  0
   18.7422   71.1660   -5.6529 C   0  0  0  0  0  0  0  0  0  0  0  0
   17.8113   70.3482   -5.1571 C   0  0  0  0  0  0  0  0  0  0  0  0
   16.5325   70.1866   -5.8786 C   0  0  0  0  0  0  0  0  0  0  0  0
   15.5871   70.8461   -7.5470 H   0  0  0  0  0  0  0  0  0  0  0  0
   22.7426   71.3867   -1.8887 O   0  0  0  0  0  0  0  0  0  0  0  0
   21.3542   71.4897   -1.0673 P   0  0  2  0  0  0  0  0  0  0  0  0
   20.5730   70.1368   -1.4878 O   0  0  0  0  0  0  0  0  0  0  0  0
   20.5833   72.7534   -1.3179 O   0  0  0  0  0  0  0  0  0  0  0  0
   21.7731   71.2562    0.4739 O   0  0  0  0  0  0  0  0  0  0  0  0
   23.2729   73.0685    0.7612 O   0  0  0  0  0  0  0  0  0  0  0  0
   22.9853   71.8213    4.6871 O   0  0  0  0  0  0  0  0  0  0  0  0
   21.7130   74.2659    3.8792 O   0  0  0  0  0  0  0  0  0  0  0  0
   23.0484   69.8673    2.5522 O   0  0  0  0  0  0  0  0  0  0  0  0
   22.5108   72.0713    3.3613 C   0  0  1  0  0  0  0  0  0  0  0  0
   22.6576   73.5668    3.0735 C   0  0  1  0  0  0  0  0  0  0  0  0
   23.3360   71.2499    2.3725 C   0  0  2  0  0  0  0  0  0  0  0  0
   22.4217   73.8708    1.5879 C   0  0  1  0  0  0  0  0  0  0  0  0
   23.0614   71.6650    0.9260 C   0  0  1  0  0  0  0  0  0  0  0  0
   22.4652   72.3395    5.3199 H   0  0  0  0  0  0  0  0  0  0  0  0
   21.8726   74.0649    4.8147 H   0  0  0  0  0  0  0  0  0  0  0  0
   23.2265   69.6170    3.4717 H   0  0  0  0  0  0  0  0  0  0  0  0
   22.6433   75.4890   -0.1560 O   0  0  0  0  0  0  0  0  0  0  0  0
   22.7172   75.3302    1.2488 C   0  0  0  0  0  0  0  0  0  0  0  0
   22.8289   76.4131   -0.3866 H   0  0  0  0  0  0  0  0  0  0  0  0
 25 28  1  0
 25 24  1  0
 25 26  1  6
 25 27  2  0
  1  4  1  0
  1 24  1  0
  1  2  1  1
  1  3  2  0
  6 11  1  0
  6 12  1  0
 29 36  1  0
 29 37  1  0
  9  7  1  6
  7 13  1  0
 10  8  1  6
  8 14  1  0
 37 28  1  1
  4  5  1  0
 33 30  1  1
 30 38  1  0
 34 31  1  1
 31 39  1  0
 35 32  1  6
 32 40  1  0
 41 42  1  0
 41 43  1  0
 15 19  2  0
 16 22  2  0
 12 17  1  1
 17 19  1  0
 17 20  1  0
 18 19  1  0
 18 22  1  0
 18 23  1  0
  9 10  1  0
  9 11  1  0
 10 12  1  0
 11  5  1  1
 33 34  1  0
 33 35  1  0
 34 36  1  0
 35 37  1  0
 36 42  1  1
 20 21  2  0
 21 22  1  0
M  CHG  2   2  -1  26  -1
M  END
>  <COMPND>  (36) 
    8629 

>  <AUTHOR>  (36) 
    GENERATED BY OPEN BABEL 3.1.1

>  <MASTER>  (36) 
        0    0    0    0    0    0    0    0   58    0   58    0

>  <minimizedAffinity>  (36) 
-6.41696

>  <CNNscore>  (36) 
0.4133239090

>  <CNNaffinity>  (36) 
4.0675878525

>  <CNN_VS>  (36) 
1.6812312603

>  <CNNaffinity_variance>  (36) 
0.0319205262

$$$$
37
     RDKit          3D

 43 45  0  0  0  0  0  0  0  0999 V2000
   21.8376   75.4382   -3.5977 P   0  0  2  0  0  0  0  0  0  0  0  0
   23.2641   75.3693   -4.3577 O   0  0  0  0  0  0  0  0  0  0  0  0
   21.2238   76.8054   -3.5245 O   0  0  0  0  0  0  0  0  0  0  0  0
   22.1194   74.7176   -2.1767 O   0  0  0  0  0  0  0  0  0  0  0  0
   23.4498   74.3487   -1.8577 C   0  0  0  0  0  0  0  0  0  0  0  0
   24.3262   72.3645   -0.8240 O   0  0  0  0  0  0  0  0  0  0  0  0
   22.4212   70.8406   -2.5674 O   0  0  0  0  0  0  0  0  0  0  0  0
   21.1341   70.8688   -0.1634 O   0  0  0  0  0  0  0  0  0  0  0  0
   22.2484   72.1073   -1.9342 C   0  0  1  0  0  0  0  0  0  0  0  0
   22.0279   71.9260   -0.4469 C   0  0  2  0  0  0  0  0  0  0  0  0
   23.5857   72.8365   -1.9708 C   0  0  1  0  0  0  0  0  0  0  0  0
   23.4369   71.6492    0.0492 C   0  0  2  0  0  0  0  0  0  0  0  0
   21.5801   70.3565   -2.5565 H   0  0  0  0  0  0  0  0  0  0  0  0
   20.2518   71.0926   -0.4984 H   0  0  0  0  0  0  0  0  0  0  0  0
   22.8725   70.1136    2.3517 O   0  0  0  0  0  0  0  0  0  0  0  0
   24.2624   73.4880    5.1665 O   0  0  0  0  0  0  0  0  0  0  0  0
   23.6421   72.1016    1.3962 N   0  0  0  0  0  0  0  0  0  0  0  0
   23.5652   71.7950    3.7513 N   0  0  0  0  0  0  0  0  0  0  0  0
   23.3254   71.2527    2.4823 C   0  0  0  0  0  0  0  0  0  0  0  0
   24.1524   73.3740    1.6298 C   0  0  0  0  0  0  0  0  0  0  0  0
   24.3740   73.8767    2.8461 C   0  0  0  0  0  0  0  0  0  0  0  0
   24.0698   73.0543    4.0348 C   0  0  0  0  0  0  0  0  0  0  0  0
   23.3516   71.2218    4.5231 H   0  0  0  0  0  0  0  0  0  0  0  0
   20.9502   74.3439   -4.3903 O   0  0  0  0  0  0  0  0  0  0  0  0
   21.0620   73.7792   -5.9007 P   0  0  2  0  0  0  0  0  0  0  0  0
   22.2173   72.6519   -5.7908 O   0  0  0  0  0  0  0  0  0  0  0  0
   21.3240   74.8355   -6.9349 O   0  0  0  0  0  0  0  0  0  0  0  0
   19.6989   72.9451   -6.1270 O   0  0  0  0  0  0  0  0  0  0  0  0
   18.7192   70.7997   -5.8943 O   0  0  0  0  0  0  0  0  0  0  0  0
   18.4169   71.2223   -9.9907 O   0  0  0  0  0  0  0  0  0  0  0  0
   16.0549   71.4096   -8.3678 O   0  0  0  0  0  0  0  0  0  0  0  0
   20.7691   72.1904   -8.6089 O   0  0  0  0  0  0  0  0  0  0  0  0
   18.4182   71.6673   -8.6315 C   0  0  1  0  0  0  0  0  0  0  0  0
   17.3060   70.9288   -7.8842 C   0  0  1  0  0  0  0  0  0  0  0  0
   19.7790   71.3629   -8.0079 C   0  0  2  0  0  0  0  0  0  0  0  0
   17.4143   71.1508   -6.3696 C   0  0  1  0  0  0  0  0  0  0  0  0
   19.7645   71.5690   -6.4922 C   0  0  1  0  0  0  0  0  0  0  0  0
   17.5558   71.4130  -10.3927 H   0  0  0  0  0  0  0  0  0  0  0  0
   15.9995   71.2639   -9.3254 H   0  0  0  0  0  0  0  0  0  0  0  0
   20.7685   72.0504   -9.5682 H   0  0  0  0  0  0  0  0  0  0  0  0
   15.9954   69.2291   -6.4222 O   0  0  0  0  0  0  0  0  0  0  0  0
   16.4127   70.2984   -5.5935 C   0  0  0  0  0  0  0  0  0  0  0  0
   15.3578   68.6779   -5.9413 H   0  0  0  0  0  0  0  0  0  0  0  0
 25 28  1  0
 25 24  1  0
 25 26  1  1
 25 27  2  0
  1  4  1  0
  1 24  1  0
  1  2  1  6
  1  3  2  0
  6 11  1  0
  6 12  1  0
 29 36  1  0
 29 37  1  0
  9  7  1  6
  7 13  1  0
 10  8  1  6
  8 14  1  0
 37 28  1  6
  4  5  1  0
 33 30  1  6
 30 38  1  0
 34 31  1  6
 31 39  1  0
 35 32  1  6
 32 40  1  0
 41 42  1  0
 41 43  1  0
 15 19  2  0
 16 22  2  0
 12 17  1  1
 17 19  1  0
 17 20  1  0
 18 19  1  0
 18 22  1  0
 18 23  1  0
  9 10  1  0
  9 11  1  0
 10 12  1  0
 11  5  1  1
 33 34  1  0
 33 35  1  0
 34 36  1  0
 35 37  1  0
 36 42  1  1
 20 21  2  0
 21 22  1  0
M  CHG  2   2  -1  26  -1
M  END
>  <COMPND>  (37) 
    8629 

>  <AUTHOR>  (37) 
    GENERATED BY OPEN BABEL 3.1.1

>  <MASTER>  (37) 
        0    0    0    0    0    0    0    0   58    0   58    0

>  <minimizedAffinity>  (37) 
-6.95526

>  <CNNscore>  (37) 
0.4116105139

>  <CNNaffinity>  (37) 
4.0099577904

>  <CNN_VS>  (37) 
1.6505408287

>  <CNNaffinity_variance>  (37) 
0.0627073646

$$$$
38
     RDKit          3D

 43 45  0  0  0  0  0  0  0  0999 V2000
   19.7746   73.7198   -2.0940 P   0  0  2  0  0  0  0  0  0  0  0  0
   20.7216   72.6861   -2.9015 O   0  0  0  0  0  0  0  0  0  0  0  0
   20.1465   75.1662   -2.2395 O   0  0  0  0  0  0  0  0  0  0  0  0
   19.7715   73.1439   -0.5820 O   0  0  0  0  0  0  0  0  0  0  0  0
   20.6425   73.7331    0.3677 C   0  0  0  0  0  0  0  0  0  0  0  0
   22.9083   73.7603    1.1673 O   0  0  0  0  0  0  0  0  0  0  0  0
   23.2297   71.1183   -0.2138 O   0  0  0  0  0  0  0  0  0  0  0  0
   22.8930   70.3895    2.3923 O   0  0  0  0  0  0  0  0  0  0  0  0
   22.0947   71.6465    0.4703 C   0  0  1  0  0  0  0  0  0  0  0  0
   22.3189   71.6088    1.9677 C   0  0  2  0  0  0  0  0  0  0  0  0
   22.0358   73.1439    0.1951 C   0  0  1  0  0  0  0  0  0  0  0  0
   23.2442   72.7953    2.1777 C   0  0  2  0  0  0  0  0  0  0  0  0
   23.2881   70.1629   -0.0533 H   0  0  0  0  0  0  0  0  0  0  0  0
   22.2661   69.6657    2.2380 H   0  0  0  0  0  0  0  0  0  0  0  0
   24.5660   71.9332    4.5202 O   0  0  0  0  0  0  0  0  0  0  0  0
   22.5303   75.1781    7.0829 O   0  0  0  0  0  0  0  0  0  0  0  0
   23.0785   73.3970    3.4707 N   0  0  0  0  0  0  0  0  0  0  0  0
   23.5514   73.5497    5.7943 N   0  0  0  0  0  0  0  0  0  0  0  0
   23.7881   72.8874    4.5830 C   0  0  0  0  0  0  0  0  0  0  0  0
   22.2204   74.4802    3.6260 C   0  0  0  0  0  0  0  0  0  0  0  0
   22.0048   75.0998    4.7883 C   0  0  0  0  0  0  0  0  0  0  0  0
   22.7073   74.6295    5.9996 C   0  0  0  0  0  0  0  0  0  0  0  0
   24.0346   73.2118    6.5831 H   0  0  0  0  0  0  0  0  0  0  0  0
   18.2943   73.3490   -2.6271 O   0  0  0  0  0  0  0  0  0  0  0  0
   17.6852   71.9611   -3.1890 P   0  0  2  0  0  0  0  0  0  0  0  0
   16.0867   72.1943   -3.0997 O   0  0  0  0  0  0  0  0  0  0  0  0
   18.1738   70.7381   -2.4683 O   0  0  0  0  0  0  0  0  0  0  0  0
   18.0124   71.9816   -4.7693 O   0  0  0  0  0  0  0  0  0  0  0  0
   17.7359   70.0108   -6.0563 O   0  0  0  0  0  0  0  0  0  0  0  0
   20.3520   72.0457   -8.5193 O   0  0  0  0  0  0  0  0  0  0  0  0
   17.5990   71.7738   -9.2908 O   0  0  0  0  0  0  0  0  0  0  0  0
   20.6706   72.1843   -5.6455 O   0  0  0  0  0  0  0  0  0  0  0  0
   19.2738   71.9139   -7.5890 C   0  0  1  0  0  0  0  0  0  0  0  0
   18.1946   71.0368   -8.2267 C   0  0  1  0  0  0  0  0  0  0  0  0
   19.7979   71.2734   -6.3050 C   0  0  2  0  0  0  0  0  0  0  0  0
   17.1313   70.6305   -7.1975 C   0  0  1  0  0  0  0  0  0  0  0  0
   18.6571   70.8626   -5.3723 C   0  0  1  0  0  0  0  0  0  0  0  0
   20.0260   72.4522   -9.3366 H   0  0  0  0  0  0  0  0  0  0  0  0
   18.2811   72.0247   -9.9334 H   0  0  0  0  0  0  0  0  0  0  0  0
   21.3886   72.4365   -6.2462 H   0  0  0  0  0  0  0  0  0  0  0  0
   15.1802   70.3360   -8.5450 O   0  0  0  0  0  0  0  0  0  0  0  0
   16.1324   69.6284   -7.7722 C   0  0  0  0  0  0  0  0  0  0  0  0
   14.5382   69.7109   -8.9174 H   0  0  0  0  0  0  0  0  0  0  0  0
 25 28  1  0
 25 24  1  0
 25 26  1  6
 25 27  2  0
  1  4  1  0
  1 24  1  0
  1  2  1  6
  1  3  2  0
  6 11  1  0
  6 12  1  0
 29 36  1  0
 29 37  1  0
  9  7  1  6
  7 13  1  0
 10  8  1  6
  8 14  1  0
 37 28  1  6
  4  5  1  0
 33 30  1  6
 30 38  1  0
 34 31  1  6
 31 39  1  0
 35 32  1  1
 32 40  1  0
 41 42  1  0
 41 43  1  0
 15 19  2  0
 16 22  2  0
 12 17  1  1
 17 19  1  0
 17 20  1  0
 18 19  1  0
 18 22  1  0
 18 23  1  0
  9 10  1  0
  9 11  1  0
 10 12  1  0
 11  5  1  1
 33 34  1  0
 33 35  1  0
 34 36  1  0
 35 37  1  0
 36 42  1  6
 20 21  2  0
 21 22  1  0
M  CHG  2   2  -1  26  -1
M  END
>  <COMPND>  (38) 
    8629 

>  <AUTHOR>  (38) 
    GENERATED BY OPEN BABEL 3.1.1

>  <MASTER>  (38) 
        0    0    0    0    0    0    0    0   58    0   58    0

>  <minimizedAffinity>  (38) 
-5.94714

>  <CNNscore>  (38) 
0.4040857852

>  <CNNaffinity>  (38) 
3.8585250378

>  <CNN_VS>  (38) 
1.5591751337

>  <CNNaffinity_variance>  (38) 
0.0781982392

$$$$
39
     RDKit          3D

 43 45  0  0  0  0  0  0  0  0999 V2000
   22.1107   74.2326   -4.1351 P   0  0  2  0  0  0  0  0  0  0  0  0
   20.7812   75.0490   -3.7068 O   0  0  0  0  0  0  0  0  0  0  0  0
   23.3717   75.0453   -4.1636 O   0  0  0  0  0  0  0  0  0  0  0  0
   21.6992   73.5249   -5.5307 O   0  0  0  0  0  0  0  0  0  0  0  0
   20.4160   72.9333   -5.6361 C   0  0  0  0  0  0  0  0  0  0  0  0
   19.2466   70.9413   -6.2983 O   0  0  0  0  0  0  0  0  0  0  0  0
   21.7320   70.2087   -7.8073 O   0  0  0  0  0  0  0  0  0  0  0  0
   20.1029   71.1655   -9.7738 O   0  0  0  0  0  0  0  0  0  0  0  0
   21.1466   71.4935   -7.6025 C   0  0  1  0  0  0  0  0  0  0  0  0
   19.9086   71.6501   -8.4607 C   0  0  2  0  0  0  0  0  0  0  0  0
   20.5639   71.5247   -6.1950 C   0  0  1  0  0  0  0  0  0  0  0  0
   18.8830   70.8412   -7.6848 C   0  0  2  0  0  0  0  0  0  0  0  0
   22.1112   70.1649   -8.6996 H   0  0  0  0  0  0  0  0  0  0  0  0
   20.7637   71.7128  -10.2261 H   0  0  0  0  0  0  0  0  0  0  0  0
   16.5911   69.2142   -7.9648 O   0  0  0  0  0  0  0  0  0  0  0  0
   13.8133   72.8736   -8.3303 O   0  0  0  0  0  0  0  0  0  0  0  0
   17.5483   71.3423   -7.8542 N   0  0  0  0  0  0  0  0  0  0  0  0
   15.2098   71.0376   -8.1464 N   0  0  0  0  0  0  0  0  0  0  0  0
   16.4668   70.4405   -7.9868 C   0  0  0  0  0  0  0  0  0  0  0  0
   17.3221   72.7140   -7.8872 C   0  0  0  0  0  0  0  0  0  0  0  0
   16.1174   73.2675   -8.0415 C   0  0  0  0  0  0  0  0  0  0  0  0
   14.9342   72.3952   -8.1869 C   0  0  0  0  0  0  0  0  0  0  0  0
   14.4415   70.4289   -8.2411 H   0  0  0  0  0  0  0  0  0  0  0  0
   22.1300   72.9970   -3.0930 O   0  0  0  0  0  0  0  0  0  0  0  0
   23.2222   71.8304   -2.8498 P   0  0  2  0  0  0  0  0  0  0  0  0
   24.3583   72.1492   -3.9567 O   0  0  0  0  0  0  0  0  0  0  0  0
   22.6624   70.4391   -2.9200 O   0  0  0  0  0  0  0  0  0  0  0  0
   23.9115   72.2038   -1.4390 O   0  0  0  0  0  0  0  0  0  0  0  0
   22.8090   72.3509    0.6537 O   0  0  0  0  0  0  0  0  0  0  0  0
   25.7918   75.1364    1.2820 O   0  0  0  0  0  0  0  0  0  0  0  0
   25.9169   72.5986    2.6206 O   0  0  0  0  0  0  0  0  0  0  0  0
   24.5231   74.9396   -1.3125 O   0  0  0  0  0  0  0  0  0  0  0  0
   25.2220   73.9326    0.7609 C   0  0  1  0  0  0  0  0  0  0  0  0
   24.7591   73.0723    1.9383 C   0  0  1  0  0  0  0  0  0  0  0  0
   24.0420   74.2887   -0.1414 C   0  0  2  0  0  0  0  0  0  0  0  0
   23.9013   71.8933    1.4595 C   0  0  1  0  0  0  0  0  0  0  0  0
   23.2267   73.0509   -0.5199 C   0  0  1  0  0  0  0  0  0  0  0  0
   26.5419   74.9174    1.8555 H   0  0  0  0  0  0  0  0  0  0  0  0
   26.4501   73.3529    2.9173 H   0  0  0  0  0  0  0  0  0  0  0  0
   25.0373   75.7216   -1.0595 H   0  0  0  0  0  0  0  0  0  0  0  0
   24.2023   70.0875    2.9948 O   0  0  0  0  0  0  0  0  0  0  0  0
   23.2990   71.1133    2.6261 C   0  0  0  0  0  0  0  0  0  0  0  0
   23.8322   69.5829    3.7365 H   0  0  0  0  0  0  0  0  0  0  0  0
 25 28  1  0
 25 24  1  0
 25 26  1  6
 25 27  2  0
  1  4  1  0
  1 24  1  0
  1  2  1  1
  1  3  2  0
  6 11  1  0
  6 12  1  0
 29 36  1  0
 29 37  1  0
  9  7  1  6
  7 13  1  0
 10  8  1  6
  8 14  1  0
 37 28  1  6
  4  5  1  0
 33 30  1  1
 30 38  1  0
 34 31  1  6
 31 39  1  0
 35 32  1  6
 32 40  1  0
 41 42  1  0
 41 43  1  0
 15 19  2  0
 16 22  2  0
 12 17  1  1
 17 19  1  0
 17 20  1  0
 18 19  1  0
 18 22  1  0
 18 23  1  0
  9 10  1  0
  9 11  1  0
 10 12  1  0
 11  5  1  6
 33 34  1  0
 33 35  1  0
 34 36  1  0
 35 37  1  0
 36 42  1  1
 20 21  2  0
 21 22  1  0
M  CHG  2   2  -1  26  -1
M  END
>  <COMPND>  (39) 
    8629 

>  <AUTHOR>  (39) 
    GENERATED BY OPEN BABEL 3.1.1

>  <MASTER>  (39) 
        0    0    0    0    0    0    0    0   58    0   58    0

>  <minimizedAffinity>  (39) 
-6.75374

>  <CNNscore>  (39) 
0.3982457817

>  <CNNaffinity>  (39) 
4.2693719864

>  <CNN_VS>  (39) 
1.7002593279

>  <CNNaffinity_variance>  (39) 
0.0653835982

$$$$
40
     RDKit          3D

 43 45  0  0  0  0  0  0  0  0999 V2000
   22.1110   72.9621   -4.6687 P   0  0  2  0  0  0  0  0  0  0  0  0
   23.7116   72.8391   -4.4681 O   0  0  0  0  0  0  0  0  0  0  0  0
   21.5229   74.2855   -4.2759 O   0  0  0  0  0  0  0  0  0  0  0  0
   21.5216   71.6723   -3.8897 O   0  0  0  0  0  0  0  0  0  0  0  0
   22.1402   71.2726   -2.6792 C   0  0  0  0  0  0  0  0  0  0  0  0
   21.7369   70.8036   -0.3573 O   0  0  0  0  0  0  0  0  0  0  0  0
   19.2043   72.3777   -0.6721 O   0  0  0  0  0  0  0  0  0  0  0  0
   20.8692   74.1662    0.5388 O   0  0  0  0  0  0  0  0  0  0  0  0
   20.4804   72.5920   -1.2729 C   0  0  1  0  0  0  0  0  0  0  0  0
   21.4524   73.1542   -0.2566 C   0  0  2  0  0  0  0  0  0  0  0  0
   21.0908   71.2295   -1.5769 C   0  0  1  0  0  0  0  0  0  0  0  0
   21.8188   71.9178    0.5465 C   0  0  2  0  0  0  0  0  0  0  0  0
   18.7948   73.2338   -0.4691 H   0  0  0  0  0  0  0  0  0  0  0  0
   20.6541   74.9311   -0.0174 H   0  0  0  0  0  0  0  0  0  0  0  0
   22.7704   70.3139    2.6678 O   0  0  0  0  0  0  0  0  0  0  0  0
   26.9405   72.2709    2.5196 O   0  0  0  0  0  0  0  0  0  0  0  0
   23.1491   71.9869    1.0821 N   0  0  0  0  0  0  0  0  0  0  0  0
   24.8460   71.2895    2.5922 N   0  0  0  0  0  0  0  0  0  0  0  0
   23.5261   71.1379    2.1486 C   0  0  0  0  0  0  0  0  0  0  0  0
   24.0642   72.8889    0.5502 C   0  0  0  0  0  0  0  0  0  0  0  0
   25.3189   73.0220    0.9854 C   0  0  0  0  0  0  0  0  0  0  0  0
   25.7927   72.1723    2.0969 C   0  0  0  0  0  0  0  0  0  0  0  0
   25.1309   70.7087    3.3347 H   0  0  0  0  0  0  0  0  0  0  0  0
   21.9086   72.5710   -6.2241 O   0  0  0  0  0  0  0  0  0  0  0  0
   21.0008   73.2459   -7.3789 P   0  0  2  0  0  0  0  0  0  0  0  0
   21.3992   72.4053   -8.7026 O   0  0  0  0  0  0  0  0  0  0  0  0
   21.1779   74.7308   -7.5117 O   0  0  0  0  0  0  0  0  0  0  0  0
   19.4936   72.7798   -7.0383 O   0  0  0  0  0  0  0  0  0  0  0  0
   18.8260   70.8947   -5.7665 O   0  0  0  0  0  0  0  0  0  0  0  0
   15.6604   71.0600   -8.4128 O   0  0  0  0  0  0  0  0  0  0  0  0
   15.2623   71.8328   -5.6756 O   0  0  0  0  0  0  0  0  0  0  0  0
   18.3426   71.6438   -9.3317 O   0  0  0  0  0  0  0  0  0  0  0  0
   16.6911   71.5966   -7.5791 C   0  0  1  0  0  0  0  0  0  0  0  0
   16.4243   71.1514   -6.1399 C   0  0  1  0  0  0  0  0  0  0  0  0
   18.0442   71.0764   -8.0607 C   0  0  2  0  0  0  0  0  0  0  0  0
   17.6231   71.4605   -5.2331 C   0  0  1  0  0  0  0  0  0  0  0  0
   19.1593   71.3945   -7.0630 C   0  0  1  0  0  0  0  0  0  0  0  0
   14.7987   71.3868   -8.1126 H   0  0  0  0  0  0  0  0  0  0  0  0
   14.5128   71.6295   -6.2571 H   0  0  0  0  0  0  0  0  0  0  0  0
   17.6294   71.4351   -9.9544 H   0  0  0  0  0  0  0  0  0  0  0  0
   16.5173   69.8152   -3.8993 O   0  0  0  0  0  0  0  0  0  0  0  0
   17.4429   70.8842   -3.8304 C   0  0  0  0  0  0  0  0  0  0  0  0
   16.3929   69.4384   -3.0137 H   0  0  0  0  0  0  0  0  0  0  0  0
 25 28  1  0
 25 24  1  0
 25 26  1  6
 25 27  2  0
  1  4  1  0
  1 24  1  0
  1  2  1  6
  1  3  2  0
  6 11  1  0
  6 12  1  0
 29 36  1  0
 29 37  1  0
  9  7  1  1
  7 13  1  0
 10  8  1  1
  8 14  1  0
 37 28  1  1
  4  5  1  0
 33 30  1  6
 30 38  1  0
 34 31  1  1
 31 39  1  0
 35 32  1  6
 32 40  1  0
 41 42  1  0
 41 43  1  0
 15 19  2  0
 16 22  2  0
 12 17  1  6
 17 19  1  0
 17 20  1  0
 18 19  1  0
 18 22  1  0
 18 23  1  0
  9 10  1  0
  9 11  1  0
 10 12  1  0
 11  5  1  6
 33 34  1  0
 33 35  1  0
 34 36  1  0
 35 37  1  0
 36 42  1  1
 20 21  2  0
 21 22  1  0
M  CHG  2   2  -1  26  -1
M  END
>  <COMPND>  (40) 
    8629 

>  <AUTHOR>  (40) 
    GENERATED BY OPEN BABEL 3.1.1

>  <MASTER>  (40) 
        0    0    0    0    0    0    0    0   58    0   58    0

>  <minimizedAffinity>  (40) 
-7.65062

>  <CNNscore>  (40) 
0.3850328028

>  <CNNaffinity>  (40) 
4.1578717232

>  <CNN_VS>  (40) 
1.6009169817

>  <CNNaffinity_variance>  (40) 
0.0812811852

$$$$
41
     RDKit          3D

 43 45  0  0  0  0  0  0  0  0999 V2000
   21.0516   71.8772   -1.1487 P   0  0  2  0  0  0  0  0  0  0  0  0
   21.6120   70.9529    0.0550 O   0  0  0  0  0  0  0  0  0  0  0  0
   20.1279   72.9805   -0.7232 O   0  0  0  0  0  0  0  0  0  0  0  0
   20.4372   70.8134   -2.2017 O   0  0  0  0  0  0  0  0  0  0  0  0
   19.8258   71.3058   -3.3813 C   0  0  0  0  0  0  0  0  0  0  0  0
   20.3824   70.4756   -5.5665 O   0  0  0  0  0  0  0  0  0  0  0  0
   22.3325   72.7476   -5.7279 O   0  0  0  0  0  0  0  0  0  0  0  0
   20.2310   73.6619   -7.2059 O   0  0  0  0  0  0  0  0  0  0  0  0
   21.0417   72.7079   -5.1217 C   0  0  1  0  0  0  0  0  0  0  0  0
   19.9615   72.7249   -6.1831 C   0  0  2  0  0  0  0  0  0  0  0  0
   20.8566   71.3286   -4.5016 C   0  0  1  0  0  0  0  0  0  0  0  0
   19.9879   71.2904   -6.6825 C   0  0  2  0  0  0  0  0  0  0  0  0
   22.4738   73.6193   -6.1305 H   0  0  0  0  0  0  0  0  0  0  0  0
   20.2028   74.5591   -6.8385 H   0  0  0  0  0  0  0  0  0  0  0  0
   19.4007   70.6605   -9.3725 O   0  0  0  0  0  0  0  0  0  0  0  0
   15.0276   69.6117   -8.3639 O   0  0  0  0  0  0  0  0  0  0  0  0
   18.7042   70.8498   -7.1508 N   0  0  0  0  0  0  0  0  0  0  0  0
   17.2238   70.1386   -8.8681 N   0  0  0  0  0  0  0  0  0  0  0  0
   18.5139   70.5603   -8.5221 C   0  0  0  0  0  0  0  0  0  0  0  0
   17.6506   70.7084   -6.2542 C   0  0  0  0  0  0  0  0  0  0  0  0
   16.4259   70.3064   -6.6004 C   0  0  0  0  0  0  0  0  0  0  0  0
   16.1434   69.9838   -8.0140 C   0  0  0  0  0  0  0  0  0  0  0  0
   17.0677   69.9317   -9.8181 H   0  0  0  0  0  0  0  0  0  0  0  0
   22.4025   72.3764   -1.8828 O   0  0  0  0  0  0  0  0  0  0  0  0
   23.7587   71.5835   -2.2637 P   0  0  2  0  0  0  0  0  0  0  0  0
   24.4485   72.5394   -3.3718 O   0  0  0  0  0  0  0  0  0  0  0  0
   23.5381   70.1693   -2.7168 O   0  0  0  0  0  0  0  0  0  0  0  0
   24.6971   71.7291   -0.9587 O   0  0  0  0  0  0  0  0  0  0  0  0
   24.1848   73.6307    0.3596 O   0  0  0  0  0  0  0  0  0  0  0  0
   27.7803   72.5748    2.0940 O   0  0  0  0  0  0  0  0  0  0  0  0
   25.3304   72.1273    3.5244 O   0  0  0  0  0  0  0  0  0  0  0  0
   27.4316   72.3309   -0.7693 O   0  0  0  0  0  0  0  0  0  0  0  0
   26.5202   72.3384    1.4602 C   0  0  1  0  0  0  0  0  0  0  0  0
   25.4199   72.9247    2.3470 C   0  0  1  0  0  0  0  0  0  0  0  0
   26.5184   73.0082    0.0874 C   0  0  2  0  0  0  0  0  0  0  0  0
   24.0718   72.9486    1.6141 C   0  0  1  0  0  0  0  0  0  0  0  0
   25.1201   73.0217   -0.5327 C   0  0  1  0  0  0  0  0  0  0  0  0
   27.7882   72.1517    2.9660 H   0  0  0  0  0  0  0  0  0  0  0  0
   26.1883   72.1201    3.9775 H   0  0  0  0  0  0  0  0  0  0  0  0
   28.3130   72.3295   -0.3657 H   0  0  0  0  0  0  0  0  0  0  0  0
   21.7291   73.1785    2.0241 O   0  0  0  0  0  0  0  0  0  0  0  0
   22.9954   73.6725    2.4200 C   0  0  0  0  0  0  0  0  0  0  0  0
   21.0343   73.6301    2.5291 H   0  0  0  0  0  0  0  0  0  0  0  0
 25 28  1  0
 25 24  1  0
 25 26  1  6
 25 27  2  0
  1  4  1  0
  1 24  1  0
  1  2  1  1
  1  3  2  0
  6 11  1  0
  6 12  1  0
 29 36  1  0
 29 37  1  0
  9  7  1  6
  7 13  1  0
 10  8  1  6
  8 14  1  0
 37 28  1  1
  4  5  1  0
 33 30  1  1
 30 38  1  0
 34 31  1  1
 31 39  1  0
 35 32  1  6
 32 40  1  0
 41 42  1  0
 41 43  1  0
 15 19  2  0
 16 22  2  0
 12 17  1  1
 17 19  1  0
 17 20  1  0
 18 19  1  0
 18 22  1  0
 18 23  1  0
  9 10  1  0
  9 11  1  0
 10 12  1  0
 11  5  1  1
 33 34  1  0
 33 35  1  0
 34 36  1  0
 35 37  1  0
 36 42  1  1
 20 21  2  0
 21 22  1  0
M  CHG  2   2  -1  26  -1
M  END
>  <COMPND>  (41) 
    8629 

>  <AUTHOR>  (41) 
    GENERATED BY OPEN BABEL 3.1.1

>  <MASTER>  (41) 
        0    0    0    0    0    0    0    0   58    0   58    0

>  <minimizedAffinity>  (41) 
-7.27010

>  <CNNscore>  (41) 
0.7778602839

>  <CNNaffinity>  (41) 
4.5619668961

>  <CNN_VS>  (41) 
3.5485727787

>  <CNNaffinity_variance>  (41) 
0.0495654680

$$$$
42
     RDKit          3D

 43 45  0  0  0  0  0  0  0  0999 V2000
   22.9037   72.0492   -3.4348 P   0  0  2  0  0  0  0  0  0  0  0  0
   23.7722   72.9492   -4.4610 O   0  0  0  0  0  0  0  0  0  0  0  0
   23.6917   71.0369   -2.6565 O   0  0  0  0  0  0  0  0  0  0  0  0
   21.7103   71.4562   -4.3524 O   0  0  0  0  0  0  0  0  0  0  0  0
   20.6709   70.7280   -3.7222 C   0  0  0  0  0  0  0  0  0  0  0  0
   19.2602   72.3141   -4.8483 O   0  0  0  0  0  0  0  0  0  0  0  0
   17.2261   71.7308   -2.7238 O   0  0  0  0  0  0  0  0  0  0  0  0
   16.3249   70.2534   -4.8313 O   0  0  0  0  0  0  0  0  0  0  0  0
   18.1572   70.8483   -3.3480 C   0  0  1  0  0  0  0  0  0  0  0  0
   17.7099   70.5238   -4.7581 C   0  0  2  0  0  0  0  0  0  0  0  0
   19.4459   71.6231   -3.5936 C   0  0  1  0  0  0  0  0  0  0  0  0
   18.0999   71.7847   -5.5104 C   0  0  2  0  0  0  0  0  0  0  0  0
   16.3951   71.2583   -2.5567 H   0  0  0  0  0  0  0  0  0  0  0  0
   16.1271   69.4422   -4.3377 H   0  0  0  0  0  0  0  0  0  0  0  0
   16.2431   71.8833   -7.6366 O   0  0  0  0  0  0  0  0  0  0  0  0
   19.4610   70.7652  -10.7409 O   0  0  0  0  0  0  0  0  0  0  0  0
   18.4254   71.5242   -6.8843 N   0  0  0  0  0  0  0  0  0  0  0  0
   17.8470   71.3267   -9.1806 N   0  0  0  0  0  0  0  0  0  0  0  0
   17.4188   71.5991   -7.8750 C   0  0  0  0  0  0  0  0  0  0  0  0
   19.7305   71.1989   -7.2376 C   0  0  0  0  0  0  0  0  0  0  0  0
   20.1223   70.9406   -8.4871 C   0  0  0  0  0  0  0  0  0  0  0  0
   19.1321   70.9976   -9.5817 C   0  0  0  0  0  0  0  0  0  0  0  0
   17.1628   71.3726   -9.8874 H   0  0  0  0  0  0  0  0  0  0  0  0
   22.1500   73.1559   -2.5291 O   0  0  0  0  0  0  0  0  0  0  0  0
   22.7334   74.3333   -1.5876 P   0  0  2  0  0  0  0  0  0  0  0  0
   21.4112   74.9154   -0.8593 O   0  0  0  0  0  0  0  0  0  0  0  0
   23.5411   75.3645   -2.3212 O   0  0  0  0  0  0  0  0  0  0  0  0
   23.5363   73.5619   -0.4191 O   0  0  0  0  0  0  0  0  0  0  0  0
   23.2368   72.9316    1.8457 O   0  0  0  0  0  0  0  0  0  0  0  0
   26.8837   74.8411    2.1690 O   0  0  0  0  0  0  0  0  0  0  0  0
   26.7594   71.9787    2.3670 O   0  0  0  0  0  0  0  0  0  0  0  0
   24.8502   75.9014    0.4026 O   0  0  0  0  0  0  0  0  0  0  0  0
   25.8835   74.0417    1.5319 C   0  0  1  0  0  0  0  0  0  0  0  0
   25.6114   72.8214    2.4137 C   0  0  1  0  0  0  0  0  0  0  0  0
   24.6143   74.8742    1.3595 C   0  0  2  0  0  0  0  0  0  0  0  0
   24.3687   72.0584    1.9355 C   0  0  1  0  0  0  0  0  0  0  0  0
   23.4269   74.0111    0.9290 C   0  0  1  0  0  0  0  0  0  0  0  0
   27.6924   74.3186    2.2810 H   0  0  0  0  0  0  0  0  0  0  0  0
   27.5371   72.4726    2.6709 H   0  0  0  0  0  0  0  0  0  0  0  0
   25.6040   76.4409    0.6867 H   0  0  0  0  0  0  0  0  0  0  0  0
   22.8740   70.2415    2.3523 O   0  0  0  0  0  0  0  0  0  0  0  0
   23.9871   70.9304    2.8915 C   0  0  0  0  0  0  0  0  0  0  0  0
   22.6202   69.5204    2.9501 H   0  0  0  0  0  0  0  0  0  0  0  0
 25 28  1  0
 25 24  1  0
 25 26  1  1
 25 27  2  0
  1  4  1  0
  1 24  1  0
  1  2  1  6
  1  3  2  0
  6 11  1  0
  6 12  1  0
 29 36  1  0
 29 37  1  0
  9  7  1  6
  7 13  1  0
 10  8  1  1
  8 14  1  0
 37 28  1  6
  4  5  1  0
 33 30  1  1
 30 38  1  0
 34 31  1  6
 31 39  1  0
 35 32  1  6
 32 40  1  0
 41 42  1  0
 41 43  1  0
 15 19  2  0
 16 22  2  0
 12 17  1  6
 17 19  1  0
 17 20  1  0
 18 19  1  0
 18 22  1  0
 18 23  1  0
  9 10  1  0
  9 11  1  0
 10 12  1  0
 11  5  1  6
 33 34  1  0
 33 35  1  0
 34 36  1  0
 35 37  1  0
 36 42  1  1
 20 21  2  0
 21 22  1  0
M  CHG  2   2  -1  26  -1
M  END
>  <COMPND>  (42) 
    8629 

>  <AUTHOR>  (42) 
    GENERATED BY OPEN BABEL 3.1.1

>  <MASTER>  (42) 
        0    0    0    0    0    0    0    0   58    0   58    0

>  <minimizedAffinity>  (42) 
-6.67331

>  <CNNscore>  (42) 
0.7256683707

>  <CNNaffinity>  (42) 
4.4706783295

>  <CNN_VS>  (42) 
3.2442297935

>  <CNNaffinity_variance>  (42) 
0.0557635501

$$$$
43
     RDKit          3D

 43 45  0  0  0  0  0  0  0  0999 V2000
   19.4044   72.6435   -1.7886 P   0  0  2  0  0  0  0  0  0  0  0  0
   18.5237   71.6039   -0.9162 O   0  0  0  0  0  0  0  0  0  0  0  0
   18.6253   73.4598   -2.7776 O   0  0  0  0  0  0  0  0  0  0  0  0
   20.5851   71.7274   -2.4087 O   0  0  0  0  0  0  0  0  0  0  0  0
   20.2751   70.8658   -3.4900 C   0  0  0  0  0  0  0  0  0  0  0  0
   20.7089   70.4767   -5.8212 O   0  0  0  0  0  0  0  0  0  0  0  0
   22.3899   72.9580   -5.7304 O   0  0  0  0  0  0  0  0  0  0  0  0
   20.0768   73.8483   -6.8676 O   0  0  0  0  0  0  0  0  0  0  0  0
   21.1722   72.6677   -5.0462 C   0  0  1  0  0  0  0  0  0  0  0  0
   20.0020   72.7312   -6.0056 C   0  0  2  0  0  0  0  0  0  0  0  0
   21.1894   71.1932   -4.6627 C   0  0  1  0  0  0  0  0  0  0  0  0
   20.1302   71.4112   -6.7467 C   0  0  2  0  0  0  0  0  0  0  0  0
   22.4022   73.8944   -5.9851 H   0  0  0  0  0  0  0  0  0  0  0  0
   19.9902   74.6634   -6.3491 H   0  0  0  0  0  0  0  0  0  0  0  0
   19.5155   70.7607   -9.4257 O   0  0  0  0  0  0  0  0  0  0  0  0
   15.2278   69.4797   -8.3231 O   0  0  0  0  0  0  0  0  0  0  0  0
   18.8610   70.9053   -7.1878 N   0  0  0  0  0  0  0  0  0  0  0  0
   17.3811   70.1232   -8.8744 N   0  0  0  0  0  0  0  0  0  0  0  0
   18.6549   70.6110   -8.5558 C   0  0  0  0  0  0  0  0  0  0  0  0
   17.8371   70.7055   -6.2683 C   0  0  0  0  0  0  0  0  0  0  0  0
   16.6276   70.2409   -6.5885 C   0  0  0  0  0  0  0  0  0  0  0  0
   16.3302   69.9088   -7.9968 C   0  0  0  0  0  0  0  0  0  0  0  0
   17.2144   69.9117   -9.8217 H   0  0  0  0  0  0  0  0  0  0  0  0
   20.1710   73.5081   -0.6582 O   0  0  0  0  0  0  0  0  0  0  0  0
   21.5071   74.4143   -0.7395 P   0  0  2  0  0  0  0  0  0  0  0  0
   21.0569   75.8026   -0.0411 O   0  0  0  0  0  0  0  0  0  0  0  0
   22.0617   74.5699   -2.1259 O   0  0  0  0  0  0  0  0  0  0  0  0
   22.5241   73.7382    0.3158 O   0  0  0  0  0  0  0  0  0  0  0  0
   24.7268   72.8787    0.1547 O   0  0  0  0  0  0  0  0  0  0  0  0
   23.0406   69.9353    2.5093 O   0  0  0  0  0  0  0  0  0  0  0  0
   24.8916   71.7964    3.6747 O   0  0  0  0  0  0  0  0  0  0  0  0
   21.5044   71.1242    0.3631 O   0  0  0  0  0  0  0  0  0  0  0  0
   23.2357   71.2691    2.0313 C   0  0  1  0  0  0  0  0  0  0  0  0
   24.6967   71.6552    2.2703 C   0  0  1  0  0  0  0  0  0  0  0  0
   22.9033   71.3189    0.5412 C   0  0  2  0  0  0  0  0  0  0  0  0
   25.0495   72.9623    1.5477 C   0  0  1  0  0  0  0  0  0  0  0  0
   23.3391   72.6420   -0.0908 C   0  0  1  0  0  0  0  0  0  0  0  0
   23.2495   69.8969    3.4550 H   0  0  0  0  0  0  0  0  0  0  0  0
   24.6648   70.9644    4.1191 H   0  0  0  0  0  0  0  0  0  0  0  0
   21.2411   70.2832    0.7672 H   0  0  0  0  0  0  0  0  0  0  0  0
   27.2288   72.1094    2.0295 O   0  0  0  0  0  0  0  0  0  0  0  0
   26.5395   73.2837    1.6419 C   0  0  0  0  0  0  0  0  0  0  0  0
   28.1785   72.2988    2.0932 H   0  0  0  0  0  0  0  0  0  0  0  0
 25 28  1  0
 25 24  1  0
 25 26  1  1
 25 27  2  0
  1  4  1  0
  1 24  1  0
  1  2  1  1
  1  3  2  0
  6 11  1  0
  6 12  1  0
 29 36  1  0
 29 37  1  0
  9  7  1  6
  7 13  1  0
 10  8  1  6
  8 14  1  0
 37 28  1  1
  4  5  1  0
 33 30  1  6
 30 38  1  0
 34 31  1  1
 31 39  1  0
 35 32  1  1
 32 40  1  0
 41 42  1  0
 41 43  1  0
 15 19  2  0
 16 22  2  0
 12 17  1  1
 17 19  1  0
 17 20  1  0
 18 19  1  0
 18 22  1  0
 18 23  1  0
  9 10  1  0
  9 11  1  0
 10 12  1  0
 11  5  1  1
 33 34  1  0
 33 35  1  0
 34 36  1  0
 35 37  1  0
 36 42  1  6
 20 21  2  0
 21 22  1  0
M  CHG  2   2  -1  26  -1
M  END
>  <COMPND>  (43) 
    8629 

>  <AUTHOR>  (43) 
    GENERATED BY OPEN BABEL 3.1.1

>  <MASTER>  (43) 
        0    0    0    0    0    0    0    0   58    0   58    0

>  <minimizedAffinity>  (43) 
-7.02530

>  <CNNscore>  (43) 
0.6103677154

>  <CNNaffinity>  (43) 
4.3098917007

>  <CNN_VS>  (43) 
2.6306188107

>  <CNNaffinity_variance>  (43) 
0.0218574125

$$$$
44
     RDKit          3D

 43 45  0  0  0  0  0  0  0  0999 V2000
   21.0972   73.6193   -3.2682 P   0  0  2  0  0  0  0  0  0  0  0  0
   19.5554   73.6953   -3.7526 O   0  0  0  0  0  0  0  0  0  0  0  0
   21.5701   74.7998   -2.4717 O   0  0  0  0  0  0  0  0  0  0  0  0
   21.9175   73.3159   -4.6294 O   0  0  0  0  0  0  0  0  0  0  0  0
   21.4853   72.2490   -5.4557 C   0  0  0  0  0  0  0  0  0  0  0  0
   20.7428   71.7343   -7.6822 O   0  0  0  0  0  0  0  0  0  0  0  0
   21.1278   74.6467   -8.2827 O   0  0  0  0  0  0  0  0  0  0  0  0
   18.4304   74.4650   -7.9255 O   0  0  0  0  0  0  0  0  0  0  0  0
   20.6685   74.0259   -7.0832 C   0  0  1  0  0  0  0  0  0  0  0  0
   19.2499   73.5258   -7.2598 C   0  0  2  0  0  0  0  0  0  0  0  0
   21.4433   72.7267   -6.9007 C   0  0  1  0  0  0  0  0  0  0  0  0
   19.4614   72.2573   -8.0687 C   0  0  2  0  0  0  0  0  0  0  0  0
   20.6476   75.4787   -8.4203 H   0  0  0  0  0  0  0  0  0  0  0  0
   18.3260   75.2538   -7.3709 H   0  0  0  0  0  0  0  0  0  0  0  0
   18.4667   70.4461   -9.9943 O   0  0  0  0  0  0  0  0  0  0  0  0
   15.6010   68.5021   -6.9530 O   0  0  0  0  0  0  0  0  0  0  0  0
   18.4553   71.2669   -7.8073 N   0  0  0  0  0  0  0  0  0  0  0  0
   17.0407   69.4795   -8.4783 N   0  0  0  0  0  0  0  0  0  0  0  0
   18.0247   70.4068   -8.8442 C   0  0  0  0  0  0  0  0  0  0  0  0
   17.9068   71.1556   -6.5342 C   0  0  0  0  0  0  0  0  0  0  0  0
   16.9683   70.2667   -6.2019 C   0  0  0  0  0  0  0  0  0  0  0  0
   16.4635   69.3307   -7.2272 C   0  0  0  0  0  0  0  0  0  0  0  0
   16.7251   68.8701   -9.1846 H   0  0  0  0  0  0  0  0  0  0  0  0
   21.1622   72.2081   -2.4826 O   0  0  0  0  0  0  0  0  0  0  0  0
   20.5506   71.7585   -1.0554 P   0  0  2  0  0  0  0  0  0  0  0  0
   20.2448   70.1833   -1.2625 O   0  0  0  0  0  0  0  0  0  0  0  0
   19.3656   72.5663   -0.6117 O   0  0  0  0  0  0  0  0  0  0  0  0
   21.8059   71.8001   -0.0417 O   0  0  0  0  0  0  0  0  0  0  0  0
   22.0169   73.0833    1.9396 O   0  0  0  0  0  0  0  0  0  0  0  0
   25.9736   73.0362    0.7596 O   0  0  0  0  0  0  0  0  0  0  0  0
   25.1491   71.4672    3.0193 O   0  0  0  0  0  0  0  0  0  0  0  0
   23.8784   73.2781   -1.2231 O   0  0  0  0  0  0  0  0  0  0  0  0
   24.6558   72.5046    0.9214 C   0  0  1  0  0  0  0  0  0  0  0  0
   24.3337   72.4682    2.4166 C   0  0  1  0  0  0  0  0  0  0  0  0
   23.6629   73.3971    0.1791 C   0  0  2  0  0  0  0  0  0  0  0  0
   22.8488   72.1634    2.6561 C   0  0  1  0  0  0  0  0  0  0  0  0
   22.2159   73.0418    0.5252 C   0  0  1  0  0  0  0  0  0  0  0  0
   26.6090   72.4739    1.2282 H   0  0  0  0  0  0  0  0  0  0  0  0
   26.0842   71.6712    2.8603 H   0  0  0  0  0  0  0  0  0  0  0  0
   24.7978   73.5059   -1.4293 H   0  0  0  0  0  0  0  0  0  0  0  0
   22.9520   71.1300    4.8079 O   0  0  0  0  0  0  0  0  0  0  0  0
   22.4723   72.2775    4.1317 C   0  0  0  0  0  0  0  0  0  0  0  0
   22.7199   71.1890    5.7483 H   0  0  0  0  0  0  0  0  0  0  0  0
 25 28  1  0
 25 24  1  0
 25 26  1  6
 25 27  2  0
  1  4  1  0
  1 24  1  0
  1  2  1  6
  1  3  2  0
  6 11  1  0
  6 12  1  0
 29 36  1  0
 29 37  1  0
  9  7  1  6
  7 13  1  0
 10  8  1  6
  8 14  1  0
 37 28  1  1
  4  5  1  0
 33 30  1  1
 30 38  1  0
 34 31  1  1
 31 39  1  0
 35 32  1  6
 32 40  1  0
 41 42  1  0
 41 43  1  0
 15 19  2  0
 16 22  2  0
 12 17  1  1
 17 19  1  0
 17 20  1  0
 18 19  1  0
 18 22  1  0
 18 23  1  0
  9 10  1  0
  9 11  1  0
 10 12  1  0
 11  5  1  1
 33 34  1  0
 33 35  1  0
 34 36  1  0
 35 37  1  0
 36 42  1  1
 20 21  2  0
 21 22  1  0
M  CHG  2   2  -1  26  -1
M  END
>  <COMPND>  (44) 
    8629 

>  <AUTHOR>  (44) 
    GENERATED BY OPEN BABEL 3.1.1

>  <MASTER>  (44) 
        0    0    0    0    0    0    0    0   58    0   58    0

>  <minimizedAffinity>  (44) 
-6.21424

>  <CNNscore>  (44) 
0.5915959477

>  <CNNaffinity>  (44) 
4.2294411659

>  <CNN_VS>  (44) 
2.5021202564

>  <CNNaffinity_variance>  (44) 
0.0352881886

$$$$
45
     RDKit          3D

 43 45  0  0  0  0  0  0  0  0999 V2000
   19.1765   73.6616   -1.0941 P   0  0  2  0  0  0  0  0  0  0  0  0
   18.3420   74.5564   -0.0357 O   0  0  0  0  0  0  0  0  0  0  0  0
   19.7090   74.4133   -2.2785 O   0  0  0  0  0  0  0  0  0  0  0  0
   18.1814   72.4313   -1.4322 O   0  0  0  0  0  0  0  0  0  0  0  0
   17.7692   72.2446   -2.7750 C   0  0  0  0  0  0  0  0  0  0  0  0
   17.3782   70.3923   -4.2548 O   0  0  0  0  0  0  0  0  0  0  0  0
   20.2930   69.7650   -3.9371 O   0  0  0  0  0  0  0  0  0  0  0  0
   20.2146   71.0145   -6.3597 O   0  0  0  0  0  0  0  0  0  0  0  0
   19.6446   71.0344   -3.9962 C   0  0  1  0  0  0  0  0  0  0  0  0
   19.2144   71.3394   -5.4159 C   0  0  2  0  0  0  0  0  0  0  0  0
   18.3066   70.9117   -3.2778 C   0  0  1  0  0  0  0  0  0  0  0  0
   17.9718   70.4773   -5.5607 C   0  0  2  0  0  0  0  0  0  0  0  0
   21.1501   69.8186   -4.3892 H   0  0  0  0  0  0  0  0  0  0  0  0
   20.9840   71.5899   -6.2267 H   0  0  0  0  0  0  0  0  0  0  0  0
   16.3120   68.9645   -7.2737 O   0  0  0  0  0  0  0  0  0  0  0  0
   14.3446   72.7520   -9.0130 O   0  0  0  0  0  0  0  0  0  0  0  0
   17.0163   71.0423   -6.4713 N   0  0  0  0  0  0  0  0  0  0  0  0
   15.3336   70.8516   -8.1382 N   0  0  0  0  0  0  0  0  0  0  0  0
   16.2327   70.1946   -7.2885 C   0  0  0  0  0  0  0  0  0  0  0  0
   16.8635   72.4224   -6.5473 C   0  0  0  0  0  0  0  0  0  0  0  0
   16.0025   73.0334   -7.3638 C   0  0  0  0  0  0  0  0  0  0  0  0
   15.1460   72.2201   -8.2509 C   0  0  0  0  0  0  0  0  0  0  0  0
   14.7773   70.2813   -8.7171 H   0  0  0  0  0  0  0  0  0  0  0  0
   20.3093   72.9697   -0.1716 O   0  0  0  0  0  0  0  0  0  0  0  0
   21.2963   71.7222   -0.4592 P   0  0  2  0  0  0  0  0  0  0  0  0
   22.2899   72.2911   -1.6022 O   0  0  0  0  0  0  0  0  0  0  0  0
   20.5892   70.4509   -0.8301 O   0  0  0  0  0  0  0  0  0  0  0  0
   22.2152   71.6151    0.8633 O   0  0  0  0  0  0  0  0  0  0  0  0
   22.4192   73.0487    2.7395 O   0  0  0  0  0  0  0  0  0  0  0  0
   26.3733   71.9319    2.3295 O   0  0  0  0  0  0  0  0  0  0  0  0
   24.8252   70.8914    4.5133 O   0  0  0  0  0  0  0  0  0  0  0  0
   24.7564   72.4095   -0.0235 O   0  0  0  0  0  0  0  0  0  0  0  0
   24.9559   71.7474    2.2837 C   0  0  1  0  0  0  0  0  0  0  0  0
   24.3972   71.9728    3.6900 C   0  0  1  0  0  0  0  0  0  0  0  0
   24.3538   72.7483    1.2992 C   0  0  2  0  0  0  0  0  0  0  0  0
   22.8649   72.0557    3.6707 C   0  0  1  0  0  0  0  0  0  0  0  0
   22.8276   72.7869    1.3954 C   0  0  1  0  0  0  0  0  0  0  0  0
   26.7618   71.2990    2.9525 H   0  0  0  0  0  0  0  0  0  0  0  0
   25.7944   70.8498    4.5165 H   0  0  0  0  0  0  0  0  0  0  0  0
   25.7245   72.3886   -0.0714 H   0  0  0  0  0  0  0  0  0  0  0  0
   21.0056   71.8665    5.1594 O   0  0  0  0  0  0  0  0  0  0  0  0
   22.2955   72.4366    5.0356 C   0  0  0  0  0  0  0  0  0  0  0  0
   20.6310   72.1003    6.0235 H   0  0  0  0  0  0  0  0  0  0  0  0
 25 28  1  0
 25 24  1  0
 25 26  1  6
 25 27  2  0
  1  4  1  0
  1 24  1  0
  1  2  1  1
  1  3  2  0
  6 11  1  0
  6 12  1  0
 29 36  1  0
 29 37  1  0
  9  7  1  6
  7 13  1  0
 10  8  1  6
  8 14  1  0
 37 28  1  1
  4  5  1  0
 33 30  1  1
 30 38  1  0
 34 31  1  1
 31 39  1  0
 35 32  1  6
 32 40  1  0
 41 42  1  0
 41 43  1  0
 15 19  2  0
 16 22  2  0
 12 17  1  6
 17 19  1  0
 17 20  1  0
 18 19  1  0
 18 22  1  0
 18 23  1  0
  9 10  1  0
  9 11  1  0
 10 12  1  0
 11  5  1  6
 33 34  1  0
 33 35  1  0
 34 36  1  0
 35 37  1  0
 36 42  1  1
 20 21  2  0
 21 22  1  0
M  CHG  2   2  -1  26  -1
M  END
>  <COMPND>  (45) 
    8629 

>  <AUTHOR>  (45) 
    GENERATED BY OPEN BABEL 3.1.1

>  <MASTER>  (45) 
        0    0    0    0    0    0    0    0   58    0   58    0

>  <minimizedAffinity>  (45) 
-6.64625

>  <CNNscore>  (45) 
0.5696503520

>  <CNNaffinity>  (45) 
4.2832050323

>  <CNN_VS>  (45) 
2.4399292469

>  <CNNaffinity_variance>  (45) 
0.0379825868

$$$$
46
     RDKit          3D

 43 45  0  0  0  0  0  0  0  0999 V2000
   16.6702   73.0546   -3.0141 P   0  0  2  0  0  0  0  0  0  0  0  0
   15.7431   72.9992   -4.3388 O   0  0  0  0  0  0  0  0  0  0  0  0
   16.6886   74.3786   -2.3083 O   0  0  0  0  0  0  0  0  0  0  0  0
   18.1063   72.5091   -3.5220 O   0  0  0  0  0  0  0  0  0  0  0  0
   18.9916   73.4196   -4.1505 C   0  0  0  0  0  0  0  0  0  0  0  0
   19.6939   71.3728   -5.1950 O   0  0  0  0  0  0  0  0  0  0  0  0
   22.1606   72.8618   -6.0252 O   0  0  0  0  0  0  0  0  0  0  0  0
   20.6630   72.8751   -8.3042 O   0  0  0  0  0  0  0  0  0  0  0  0
   20.8169   73.3294   -5.9206 C   0  0  1  0  0  0  0  0  0  0  0  0
   19.9838   72.7963   -7.0676 C   0  0  2  0  0  0  0  0  0  0  0  0
   20.1753   72.6484   -4.7181 C   0  0  1  0  0  0  0  0  0  0  0  0
   19.7275   71.3637   -6.6316 C   0  0  2  0  0  0  0  0  0  0  0  0
   22.5911   73.2832   -6.7862 H   0  0  0  0  0  0  0  0  0  0  0  0
   20.8023   73.8061   -8.5379 H   0  0  0  0  0  0  0  0  0  0  0  0
   19.2666   70.5780   -9.3052 O   0  0  0  0  0  0  0  0  0  0  0  0
   14.8931   69.4344   -8.4078 O   0  0  0  0  0  0  0  0  0  0  0  0
   18.4779   70.8566   -7.1240 N   0  0  0  0  0  0  0  0  0  0  0  0
   17.0893   70.0091   -8.8561 N   0  0  0  0  0  0  0  0  0  0  0  0
   18.3508   70.4913   -8.4845 C   0  0  0  0  0  0  0  0  0  0  0  0
   17.3950   70.7254   -6.2614 C   0  0  0  0  0  0  0  0  0  0  0  0
   16.1983   70.2650   -6.6318 C   0  0  0  0  0  0  0  0  0  0  0  0
   15.9818   69.8614   -8.0362 C   0  0  0  0  0  0  0  0  0  0  0  0
   16.9773   69.7488   -9.7993 H   0  0  0  0  0  0  0  0  0  0  0  0
   16.1085   71.8265   -2.1258 O   0  0  0  0  0  0  0  0  0  0  0  0
   16.6410   71.1887   -0.7392 P   0  0  2  0  0  0  0  0  0  0  0  0
   16.6552   72.4535    0.2696 O   0  0  0  0  0  0  0  0  0  0  0  0
   17.9564   70.4745   -0.8554 O   0  0  0  0  0  0  0  0  0  0  0  0
   15.4228   70.2663   -0.2194 O   0  0  0  0  0  0  0  0  0  0  0  0
   15.3053   68.0681    0.6584 O   0  0  0  0  0  0  0  0  0  0  0  0
   11.9919   67.9733   -1.8040 O   0  0  0  0  0  0  0  0  0  0  0  0
   11.6392   68.0876    1.0439 O   0  0  0  0  0  0  0  0  0  0  0  0
   14.3897   69.3494   -2.6621 O   0  0  0  0  0  0  0  0  0  0  0  0
   12.9332   68.5714   -0.9087 C   0  0  1  0  0  0  0  0  0  0  0  0
   12.8872   67.8073    0.4160 C   0  0  1  0  0  0  0  0  0  0  0  0
   14.3282   68.4937   -1.5261 C   0  0  2  0  0  0  0  0  0  0  0  0
   14.0495   68.2153    1.3314 C   0  0  1  0  0  0  0  0  0  0  0  0
   15.4142   68.8727   -0.5175 C   0  0  1  0  0  0  0  0  0  0  0  0
   11.1039   68.0198   -1.4182 H   0  0  0  0  0  0  0  0  0  0  0  0
   10.9138   67.8258    0.4553 H   0  0  0  0  0  0  0  0  0  0  0  0
   13.6976   69.0991   -3.2931 H   0  0  0  0  0  0  0  0  0  0  0  0
   13.5104   66.1046    2.3129 O   0  0  0  0  0  0  0  0  0  0  0  0
   14.1148   67.3543    2.5910 C   0  0  0  0  0  0  0  0  0  0  0  0
   13.5450   65.5459    3.1056 H   0  0  0  0  0  0  0  0  0  0  0  0
 25 28  1  0
 25 24  1  0
 25 26  1  1
 25 27  2  0
  1  4  1  0
  1 24  1  0
  1  2  1  6
  1  3  2  0
  6 11  1  0
  6 12  1  0
 29 36  1  0
 29 37  1  0
  9  7  1  6
  7 13  1  0
 10  8  1  6
  8 14  1  0
 37 28  1  1
  4  5  1  0
 33 30  1  6
 30 38  1  0
 34 31  1  1
 31 39  1  0
 35 32  1  6
 32 40  1  0
 41 42  1  0
 41 43  1  0
 15 19  2  0
 16 22  2  0
 12 17  1  6
 17 19  1  0
 17 20  1  0
 18 19  1  0
 18 22  1  0
 18 23  1  0
  9 10  1  0
  9 11  1  0
 10 12  1  0
 11  5  1  6
 33 34  1  0
 33 35  1  0
 34 36  1  0
 35 37  1  0
 36 42  1  1
 20 21  2  0
 21 22  1  0
M  CHG  2   2  -1  26  -1
M  END
>  <COMPND>  (46) 
    8629 

>  <AUTHOR>  (46) 
    GENERATED BY OPEN BABEL 3.1.1

>  <MASTER>  (46) 
        0    0    0    0    0    0    0    0   58    0   58    0

>  <minimizedAffinity>  (46) 
-6.89140

>  <CNNscore>  (46) 
0.5231531858

>  <CNNaffinity>  (46) 
4.2606801987

>  <CNN_VS>  (46) 
2.2289884090

>  <CNNaffinity_variance>  (46) 
0.1156654507

$$$$
47
     RDKit          3D

 43 45  0  0  0  0  0  0  0  0999 V2000
   20.8712   72.1999   -3.0039 P   0  0  2  0  0  0  0  0  0  0  0  0
   21.8294   70.9758   -3.4519 O   0  0  0  0  0  0  0  0  0  0  0  0
   20.2276   72.0411   -1.6578 O   0  0  0  0  0  0  0  0  0  0  0  0
   19.8562   72.3755   -4.2516 O   0  0  0  0  0  0  0  0  0  0  0  0
   19.5320   73.6866   -4.6801 C   0  0  0  0  0  0  0  0  0  0  0  0
   19.7260   72.5591   -6.7931 O   0  0  0  0  0  0  0  0  0  0  0  0
   19.7542   75.2882   -8.0349 O   0  0  0  0  0  0  0  0  0  0  0  0
   17.1856   74.4723   -8.4511 O   0  0  0  0  0  0  0  0  0  0  0  0
   19.0258   74.8205   -6.9008 C   0  0  1  0  0  0  0  0  0  0  0  0
   17.8773   73.9370   -7.3413 C   0  0  2  0  0  0  0  0  0  0  0  0
   19.9124   73.8372   -6.1467 C   0  0  1  0  0  0  0  0  0  0  0  0
   18.5887   72.6350   -7.6682 C   0  0  2  0  0  0  0  0  0  0  0  0
   19.2083   75.9180   -8.5322 H   0  0  0  0  0  0  0  0  0  0  0  0
   16.7499   75.2994   -8.1925 H   0  0  0  0  0  0  0  0  0  0  0  0
   18.5635   70.3462   -9.3231 O   0  0  0  0  0  0  0  0  0  0  0  0
   15.3501   68.2880   -6.7386 O   0  0  0  0  0  0  0  0  0  0  0  0
   17.7556   71.4861   -7.4509 N   0  0  0  0  0  0  0  0  0  0  0  0
   16.9636   69.3232   -8.0348 N   0  0  0  0  0  0  0  0  0  0  0  0
   17.8187   70.3894   -8.3417 C   0  0  0  0  0  0  0  0  0  0  0  0
   16.8884   71.4545   -6.3642 C   0  0  0  0  0  0  0  0  0  0  0  0
   16.0786   70.4308   -6.0862 C   0  0  0  0  0  0  0  0  0  0  0  0
   16.0830   69.2453   -6.9674 C   0  0  0  0  0  0  0  0  0  0  0  0
   16.9901   68.5482   -8.6417 H   0  0  0  0  0  0  0  0  0  0  0  0
   21.8392   73.4874   -3.1390 O   0  0  0  0  0  0  0  0  0  0  0  0
   23.4512   73.6065   -3.1556 P   0  0  2  0  0  0  0  0  0  0  0  0
   23.7047   75.2033   -3.2133 O   0  0  0  0  0  0  0  0  0  0  0  0
   24.1139   72.8340   -4.2593 O   0  0  0  0  0  0  0  0  0  0  0  0
   23.9081   73.1746   -1.6691 O   0  0  0  0  0  0  0  0  0  0  0  0
   22.7231   73.2037    0.3831 O   0  0  0  0  0  0  0  0  0  0  0  0
   26.4536   74.3176    1.7593 O   0  0  0  0  0  0  0  0  0  0  0  0
   25.4566   71.6869    2.3367 O   0  0  0  0  0  0  0  0  0  0  0  0
   25.4971   75.3122   -0.7854 O   0  0  0  0  0  0  0  0  0  0  0  0
   25.5292   73.6155    0.9239 C   0  0  1  0  0  0  0  0  0  0  0  0
   24.6481   72.7380    1.8153 C   0  0  1  0  0  0  0  0  0  0  0  0
   24.6797   74.6282    0.1583 C   0  0  2  0  0  0  0  0  0  0  0  0
   23.4641   72.1610    1.0278 C   0  0  1  0  0  0  0  0  0  0  0  0
   23.5013   73.9567   -0.5493 C   0  0  1  0  0  0  0  0  0  0  0  0
   26.9964   73.6803    2.2479 H   0  0  0  0  0  0  0  0  0  0  0  0
   26.2008   72.0647    2.8313 H   0  0  0  0  0  0  0  0  0  0  0  0
   26.2391   75.7332   -0.3250 H   0  0  0  0  0  0  0  0  0  0  0  0
   23.0508   70.1562    2.2602 O   0  0  0  0  0  0  0  0  0  0  0  0
   22.4867   71.4124    1.9313 C   0  0  0  0  0  0  0  0  0  0  0  0
   22.4398   69.6687    2.8352 H   0  0  0  0  0  0  0  0  0  0  0  0
 25 28  1  0
 25 24  1  0
 25 26  1  6
 25 27  2  0
  1  4  1  0
  1 24  1  0
  1  2  1  6
  1  3  2  0
  6 11  1  0
  6 12  1  0
 29 36  1  0
 29 37  1  0
  9  7  1  6
  7 13  1  0
 10  8  1  6
  8 14  1  0
 37 28  1  6
  4  5  1  0
 33 30  1  1
 30 38  1  0
 34 31  1  6
 31 39  1  0
 35 32  1  6
 32 40  1  0
 41 42  1  0
 41 43  1  0
 15 19  2  0
 16 22  2  0
 12 17  1  1
 17 19  1  0
 17 20  1  0
 18 19  1  0
 18 22  1  0
 18 23  1  0
  9 10  1  0
  9 11  1  0
 10 12  1  0
 11  5  1  1
 33 34  1  0
 33 35  1  0
 34 36  1  0
 35 37  1  0
 36 42  1  1
 20 21  2  0
 21 22  1  0
M  CHG  2   2  -1  26  -1
M  END
>  <COMPND>  (47) 
    8629 

>  <AUTHOR>  (47) 
    GENERATED BY OPEN BABEL 3.1.1

>  <MASTER>  (47) 
        0    0    0    0    0    0    0    0   58    0   58    0

>  <minimizedAffinity>  (47) 
-6.66144

>  <CNNscore>  (47) 
0.5026788116

>  <CNNaffinity>  (47) 
4.2084760666

>  <CNN_VS>  (47) 
2.1155116558

>  <CNNaffinity_variance>  (47) 
0.0471276119

$$$$
48
     RDKit          3D

 43 45  0  0  0  0  0  0  0  0999 V2000
   15.9905   72.8100   -1.7126 P   0  0  2  0  0  0  0  0  0  0  0  0
   16.8929   73.7909   -0.7955 O   0  0  0  0  0  0  0  0  0  0  0  0
   14.5083   72.9656   -1.5385 O   0  0  0  0  0  0  0  0  0  0  0  0
   16.5832   71.3363   -1.4048 O   0  0  0  0  0  0  0  0  0  0  0  0
   15.9287   70.5325   -0.4386 C   0  0  0  0  0  0  0  0  0  0  0  0
   15.2648   68.2661    0.0045 O   0  0  0  0  0  0  0  0  0  0  0  0
   14.4556   68.1369   -2.8798 O   0  0  0  0  0  0  0  0  0  0  0  0
   12.0714   68.5095   -1.6097 O   0  0  0  0  0  0  0  0  0  0  0  0
   14.3664   69.2287   -1.9658 C   0  0  1  0  0  0  0  0  0  0  0  0
   13.2384   68.9997   -0.9816 C   0  0  2  0  0  0  0  0  0  0  0  0
   15.5917   69.1846   -1.0613 C   0  0  1  0  0  0  0  0  0  0  0  0
   13.8544   67.9928   -0.0250 C   0  0  2  0  0  0  0  0  0  0  0  0
   13.6839   68.1443   -3.4683 H   0  0  0  0  0  0  0  0  0  0  0  0
   11.7174   69.1861   -2.2077 H   0  0  0  0  0  0  0  0  0  0  0  0
   12.9365   65.8168    1.5244 O   0  0  0  0  0  0  0  0  0  0  0  0
   11.8575   68.5587    5.0682 O   0  0  0  0  0  0  0  0  0  0  0  0
   13.3288   68.1093    1.3060 N   0  0  0  0  0  0  0  0  0  0  0  0
   12.4002   67.1838    3.2877 N   0  0  0  0  0  0  0  0  0  0  0  0
   12.8939   66.9545    1.9971 C   0  0  0  0  0  0  0  0  0  0  0  0
   13.2490   69.3581    1.9126 C   0  0  0  0  0  0  0  0  0  0  0  0
   12.7745   69.5600    3.1436 C   0  0  0  0  0  0  0  0  0  0  0  0
   12.2994   68.4058    3.9337 C   0  0  0  0  0  0  0  0  0  0  0  0
   12.0911   66.3940    3.7882 H   0  0  0  0  0  0  0  0  0  0  0  0
   16.5279   73.1130   -3.2067 O   0  0  0  0  0  0  0  0  0  0  0  0
   16.0523   72.5416   -4.6420 P   0  0  2  0  0  0  0  0  0  0  0  0
   15.4314   73.8447   -5.3729 O   0  0  0  0  0  0  0  0  0  0  0  0
   15.1142   71.3724   -4.5588 O   0  0  0  0  0  0  0  0  0  0  0  0
   17.4244   72.2430   -5.4378 O   0  0  0  0  0  0  0  0  0  0  0  0
   18.2020   70.6868   -7.0473 O   0  0  0  0  0  0  0  0  0  0  0  0
   21.2978   70.4255   -4.3273 O   0  0  0  0  0  0  0  0  0  0  0  0
   21.7223   71.7596   -6.8348 O   0  0  0  0  0  0  0  0  0  0  0  0
   18.5729   70.7045   -3.3911 O   0  0  0  0  0  0  0  0  0  0  0  0
   20.2633   71.0822   -5.0647 C   0  0  1  0  0  0  0  0  0  0  0  0
   20.5812   70.9532   -6.5557 C   0  0  1  0  0  0  0  0  0  0  0  0
   18.9240   70.4225   -4.7415 C   0  0  2  0  0  0  0  0  0  0  0  0
   19.3904   71.3961   -7.4165 C   0  0  1  0  0  0  0  0  0  0  0  0
   17.8184   70.8961   -5.6868 C   0  0  1  0  0  0  0  0  0  0  0  0
   22.1508   70.8399   -4.5276 H   0  0  0  0  0  0  0  0  0  0  0  0
   22.4669   71.4699   -6.2845 H   0  0  0  0  0  0  0  0  0  0  0  0
   19.2805   70.3997   -2.8027 H   0  0  0  0  0  0  0  0  0  0  0  0
   18.4102   71.3360   -9.5946 O   0  0  0  0  0  0  0  0  0  0  0  0
   19.6268   71.1280   -8.9012 C   0  0  0  0  0  0  0  0  0  0  0  0
   18.5456   71.1693  -10.5410 H   0  0  0  0  0  0  0  0  0  0  0  0
 25 28  1  0
 25 24  1  0
 25 26  1  6
 25 27  2  0
  1  4  1  0
  1 24  1  0
  1  2  1  1
  1  3  2  0
  6 11  1  0
  6 12  1  0
 29 36  1  0
 29 37  1  0
  9  7  1  6
  7 13  1  0
 10  8  1  6
  8 14  1  0
 37 28  1  6
  4  5  1  0
 33 30  1  1
 30 38  1  0
 34 31  1  6
 31 39  1  0
 35 32  1  1
 32 40  1  0
 41 42  1  0
 41 43  1  0
 15 19  2  0
 16 22  2  0
 12 17  1  1
 17 19  1  0
 17 20  1  0
 18 19  1  0
 18 22  1  0
 18 23  1  0
  9 10  1  0
  9 11  1  0
 10 12  1  0
 11  5  1  1
 33 34  1  0
 33 35  1  0
 34 36  1  0
 35 37  1  0
 36 42  1  6
 20 21  2  0
 21 22  1  0
M  CHG  2   2  -1  26  -1
M  END
>  <COMPND>  (48) 
    8629 

>  <AUTHOR>  (48) 
    GENERATED BY OPEN BABEL 3.1.1

>  <MASTER>  (48) 
        0    0    0    0    0    0    0    0   58    0   58    0

>  <minimizedAffinity>  (48) 
-6.26806

>  <CNNscore>  (48) 
0.5026559234

>  <CNNaffinity>  (48) 
3.9833157063

>  <CNN_VS>  (48) 
2.0022373199

>  <CNNaffinity_variance>  (48) 
0.1600222439

$$$$
49
     RDKit          3D

 43 45  0  0  0  0  0  0  0  0999 V2000
   21.1874   74.9162   -5.2610 P   0  0  2  0  0  0  0  0  0  0  0  0
   19.6522   75.2487   -4.8738 O   0  0  0  0  0  0  0  0  0  0  0  0
   21.8744   75.9649   -6.0855 O   0  0  0  0  0  0  0  0  0  0  0  0
   21.1105   73.4415   -5.9222 O   0  0  0  0  0  0  0  0  0  0  0  0
   20.1867   72.5087   -5.3888 C   0  0  0  0  0  0  0  0  0  0  0  0
   19.0017   70.6665   -6.3765 O   0  0  0  0  0  0  0  0  0  0  0  0
   21.5348   70.0809   -7.8701 O   0  0  0  0  0  0  0  0  0  0  0  0
   20.0197   71.3548   -9.7458 O   0  0  0  0  0  0  0  0  0  0  0  0
   20.9713   71.3407   -7.5085 C   0  0  1  0  0  0  0  0  0  0  0  0
   19.7776   71.6541   -8.3862 C   0  0  2  0  0  0  0  0  0  0  0  0
   20.3264   71.1898   -6.1364 C   0  0  1  0  0  0  0  0  0  0  0  0
   18.6990   70.7746   -7.7770 C   0  0  2  0  0  0  0  0  0  0  0  0
   21.9529   70.1525   -8.7431 H   0  0  0  0  0  0  0  0  0  0  0  0
   20.7132   71.9405  -10.0875 H   0  0  0  0  0  0  0  0  0  0  0  0
   16.3216   69.2548   -7.9047 O   0  0  0  0  0  0  0  0  0  0  0  0
   13.7165   73.0294   -8.3603 O   0  0  0  0  0  0  0  0  0  0  0  0
   17.3856   71.3344   -7.9284 N   0  0  0  0  0  0  0  0  0  0  0  0
   15.0264   71.1355   -8.1313 N   0  0  0  0  0  0  0  0  0  0  0  0
   16.2571   70.4834   -7.9825 C   0  0  0  0  0  0  0  0  0  0  0  0
   17.2262   72.7127   -8.0211 C   0  0  0  0  0  0  0  0  0  0  0  0
   16.0458   73.3188   -8.1640 C   0  0  0  0  0  0  0  0  0  0  0  0
   14.8168   72.5019   -8.2292 C   0  0  0  0  0  0  0  0  0  0  0  0
   14.2263   70.5628   -8.1718 H   0  0  0  0  0  0  0  0  0  0  0  0
   21.8720   74.6350   -3.8240 O   0  0  0  0  0  0  0  0  0  0  0  0
   23.3619   74.1422   -3.4362 P   0  0  2  0  0  0  0  0  0  0  0  0
   24.1513   75.5275   -3.1622 O   0  0  0  0  0  0  0  0  0  0  0  0
   24.0041   73.2563   -4.4641 O   0  0  0  0  0  0  0  0  0  0  0  0
   23.2028   73.4685   -1.9782 O   0  0  0  0  0  0  0  0  0  0  0  0
   25.1713   72.3430   -1.2893 O   0  0  0  0  0  0  0  0  0  0  0  0
   22.5858   71.0011    1.6373 O   0  0  0  0  0  0  0  0  0  0  0  0
   24.6126   72.9221    2.3081 O   0  0  0  0  0  0  0  0  0  0  0  0
   21.6512   71.3074   -1.0853 O   0  0  0  0  0  0  0  0  0  0  0  0
   23.1257   71.9457    0.7091 C   0  0  1  0  0  0  0  0  0  0  0  0
   24.5881   72.2002    1.0798 C   0  0  1  0  0  0  0  0  0  0  0  0
   23.0209   71.3734   -0.7033 C   0  0  2  0  0  0  0  0  0  0  0  0
   25.3087   72.9918   -0.0197 C   0  0  1  0  0  0  0  0  0  0  0  0
   23.8128   72.2084   -1.7113 C   0  0  1  0  0  0  0  0  0  0  0  0
   22.6488   71.3586    2.5360 H   0  0  0  0  0  0  0  0  0  0  0  0
   24.1539   72.4116    2.9938 H   0  0  0  0  0  0  0  0  0  0  0  0
   21.1608   70.7759   -0.4395 H   0  0  0  0  0  0  0  0  0  0  0  0
   27.2202   72.0016    1.0169 O   0  0  0  0  0  0  0  0  0  0  0  0
   26.8052   73.1208    0.2557 C   0  0  0  0  0  0  0  0  0  0  0  0
   28.1708   72.0700    1.1995 H   0  0  0  0  0  0  0  0  0  0  0  0
 25 28  1  0
 25 24  1  0
 25 26  1  1
 25 27  2  0
  1  4  1  0
  1 24  1  0
  1  2  1  1
  1  3  2  0
  6 11  1  0
  6 12  1  0
 29 36  1  0
 29 37  1  0
  9  7  1  6
  7 13  1  0
 10  8  1  6
  8 14  1  0
 37 28  1  1
  4  5  1  0
 33 30  1  1
 30 38  1  0
 34 31  1  1
 31 39  1  0
 35 32  1  6
 32 40  1  0
 41 42  1  0
 41 43  1  0
 15 19  2  0
 16 22  2  0
 12 17  1  1
 17 19  1  0
 17 20  1  0
 18 19  1  0
 18 22  1  0
 18 23  1  0
  9 10  1  0
  9 11  1  0
 10 12  1  0
 11  5  1  6
 33 34  1  0
 33 35  1  0
 34 36  1  0
 35 37  1  0
 36 42  1  1
 20 21  2  0
 21 22  1  0
M  CHG  2   2  -1  26  -1
M  END
>  <COMPND>  (49) 
    8629 

>  <AUTHOR>  (49) 
    GENERATED BY OPEN BABEL 3.1.1

>  <MASTER>  (49) 
        0    0    0    0    0    0    0    0   58    0   58    0

>  <minimizedAffinity>  (49) 
-6.89691

>  <CNNscore>  (49) 
0.4540766776

>  <CNNaffinity>  (49) 
4.1848802567

>  <CNN_VS>  (49) 
1.9002565145

>  <CNNaffinity_variance>  (49) 
0.0344622061

$$$$
50
     RDKit          3D

 43 45  0  0  0  0  0  0  0  0999 V2000
   21.6770   71.8645    0.1013 P   0  0  2  0  0  0  0  0  0  0  0  0
   20.6985   70.8201   -0.6531 O   0  0  0  0  0  0  0  0  0  0  0  0
   20.9783   72.9771    0.8262 O   0  0  0  0  0  0  0  0  0  0  0  0
   22.7191   72.3210   -1.0491 O   0  0  0  0  0  0  0  0  0  0  0  0
   22.7101   73.6735   -1.4716 C   0  0  0  0  0  0  0  0  0  0  0  0
   23.1430   72.6850   -3.6185 O   0  0  0  0  0  0  0  0  0  0  0  0
   24.2876   75.3431   -4.4028 O   0  0  0  0  0  0  0  0  0  0  0  0
   21.8087   75.4053   -5.5374 O   0  0  0  0  0  0  0  0  0  0  0  0
   23.1754   75.0538   -3.5576 C   0  0  1  0  0  0  0  0  0  0  0  0
   21.9882   74.6073   -4.3852 C   0  0  2  0  0  0  0  0  0  0  0  0
   23.5029   73.7940   -2.7658 C   0  0  1  0  0  0  0  0  0  0  0  0
   22.3590   73.1725   -4.7196 C   0  0  2  0  0  0  0  0  0  0  0  0
   24.1020   76.1442   -4.9184 H   0  0  0  0  0  0  0  0  0  0  0  0
   21.5742   76.3083   -5.2722 H   0  0  0  0  0  0  0  0  0  0  0  0
   21.7423   71.7404   -7.0748 O   0  0  0  0  0  0  0  0  0  0  0  0
   17.9084   69.9801   -5.2191 O   0  0  0  0  0  0  0  0  0  0  0  0
   21.2061   72.3319   -4.8794 N   0  0  0  0  0  0  0  0  0  0  0  0
   19.8339   70.8649   -6.1488 N   0  0  0  0  0  0  0  0  0  0  0  0
   20.9879   71.6574   -6.1033 C   0  0  0  0  0  0  0  0  0  0  0  0
   20.3065   72.1826   -3.8295 C   0  0  0  0  0  0  0  0  0  0  0  0
   19.2100   71.4241   -3.8894 C   0  0  0  0  0  0  0  0  0  0  0  0
   18.9086   70.6856   -5.1327 C   0  0  0  0  0  0  0  0  0  0  0  0
   19.6612   70.3858   -6.9917 H   0  0  0  0  0  0  0  0  0  0  0  0
   22.5739   70.9060    1.0445 O   0  0  0  0  0  0  0  0  0  0  0  0
   23.3224   71.1966    2.4474 P   0  0  2  0  0  0  0  0  0  0  0  0
   24.1785   69.8469    2.6979 O   0  0  0  0  0  0  0  0  0  0  0  0
   22.3990   71.5621    3.5734 O   0  0  0  0  0  0  0  0  0  0  0  0
   24.4265   72.3203    2.0963 O   0  0  0  0  0  0  0  0  0  0  0  0
   26.0073   73.2150    3.6185 O   0  0  0  0  0  0  0  0  0  0  0  0
   25.5751   76.4765    1.1232 O   0  0  0  0  0  0  0  0  0  0  0  0
   27.9921   74.9283    1.0273 O   0  0  0  0  0  0  0  0  0  0  0  0
   23.2707   74.8602    1.7992 O   0  0  0  0  0  0  0  0  0  0  0  0
   25.6431   75.0858    1.4498 C   0  0  1  0  0  0  0  0  0  0  0  0
   27.0176   74.8030    2.0593 C   0  0  1  0  0  0  0  0  0  0  0  0
   24.5342   74.7522    2.4460 C   0  0  2  0  0  0  0  0  0  0  0  0
   27.0714   73.3994    2.6774 C   0  0  1  0  0  0  0  0  0  0  0  0
   24.7090   73.3524    3.0377 C   0  0  1  0  0  0  0  0  0  0  0  0
   26.2763   76.6948    0.4906 H   0  0  0  0  0  0  0  0  0  0  0  0
   27.9473   75.8188    0.6450 H   0  0  0  0  0  0  0  0  0  0  0  0
   23.1722   75.7509    1.4291 H   0  0  0  0  0  0  0  0  0  0  0  0
   28.2206   72.0080    4.2434 O   0  0  0  0  0  0  0  0  0  0  0  0
   28.3784   73.1548    3.4284 C   0  0  0  0  0  0  0  0  0  0  0  0
   29.0449   71.8400    4.7272 H   0  0  0  0  0  0  0  0  0  0  0  0
 25 28  1  0
 25 24  1  0
 25 26  1  1
 25 27  2  0
  1  4  1  0
  1 24  1  0
  1  2  1  6
  1  3  2  0
  6 11  1  0
  6 12  1  0
 29 36  1  0
 29 37  1  0
  9  7  1  6
  7 13  1  0
 10  8  1  6
  8 14  1  0
 37 28  1  6
  4  5  1  0
 33 30  1  1
 30 38  1  0
 34 31  1  6
 31 39  1  0
 35 32  1  6
 32 40  1  0
 41 42  1  0
 41 43  1  0
 15 19  2  0
 16 22  2  0
 12 17  1  1
 17 19  1  0
 17 20  1  0
 18 19  1  0
 18 22  1  0
 18 23  1  0
  9 10  1  0
  9 11  1  0
 10 12  1  0
 11  5  1  1
 33 34  1  0
 33 35  1  0
 34 36  1  0
 35 37  1  0
 36 42  1  1
 20 21  2  0
 21 22  1  0
M  CHG  2   2  -1  26  -1
M  END
>  <COMPND>  (50) 
    8629 

>  <AUTHOR>  (50) 
    GENERATED BY OPEN BABEL 3.1.1

>  <MASTER>  (50) 
        0    0    0    0    0    0    0    0   58    0   58    0

>  <minimizedAffinity>  (50) 
-6.19063

>  <CNNscore>  (50) 
0.3983201385

>  <CNNaffinity>  (50) 
3.9605934620

>  <CNN_VS>  (50) 
1.5775841475

>  <CNNaffinity_variance>  (50) 
0.0665256754

$$$$
51
     RDKit          3D

 43 45  0  0  0  0  0  0  0  0999 V2000
   22.1921   73.0043   -4.6487 P   0  0  2  0  0  0  0  0  0  0  0  0
   23.7735   72.7605   -4.4098 O   0  0  0  0  0  0  0  0  0  0  0  0
   21.6890   74.3551   -4.2318 O   0  0  0  0  0  0  0  0  0  0  0  0
   21.4903   71.7390   -3.9246 O   0  0  0  0  0  0  0  0  0  0  0  0
   22.0914   71.2100   -2.7555 C   0  0  0  0  0  0  0  0  0  0  0  0
   21.7136   70.7406   -0.4295 O   0  0  0  0  0  0  0  0  0  0  0  0
   19.1624   72.2884   -0.7241 O   0  0  0  0  0  0  0  0  0  0  0  0
   20.8197   74.0956    0.4693 O   0  0  0  0  0  0  0  0  0  0  0  0
   20.4309   72.5147   -1.3366 C   0  0  1  0  0  0  0  0  0  0  0  0
   21.4060   73.0884   -0.3298 C   0  0  2  0  0  0  0  0  0  0  0  0
   21.0523   71.1580   -1.6439 C   0  0  1  0  0  0  0  0  0  0  0  0
   21.7921   71.8569    0.4719 C   0  0  2  0  0  0  0  0  0  0  0  0
   18.7460   73.1406   -0.5188 H   0  0  0  0  0  0  0  0  0  0  0  0
   20.5919   74.8574   -0.0861 H   0  0  0  0  0  0  0  0  0  0  0  0
   22.7448   70.3471    2.6607 O   0  0  0  0  0  0  0  0  0  0  0  0
   26.9290   72.2610    2.3951 O   0  0  0  0  0  0  0  0  0  0  0  0
   23.1264   71.9405    0.9955 N   0  0  0  0  0  0  0  0  0  0  0  0
   24.8274   71.3012    2.5265 N   0  0  0  0  0  0  0  0  0  0  0  0
   23.5035   71.1396    2.0986 C   0  0  0  0  0  0  0  0  0  0  0  0
   24.0451   72.8089    0.4162 C   0  0  0  0  0  0  0  0  0  0  0  0
   25.3035   72.9522    0.8370 C   0  0  0  0  0  0  0  0  0  0  0  0
   25.7777   72.1520    1.9845 C   0  0  0  0  0  0  0  0  0  0  0  0
   25.1126   70.7537    3.2939 H   0  0  0  0  0  0  0  0  0  0  0  0
   22.0065   72.6728   -6.2199 O   0  0  0  0  0  0  0  0  0  0  0  0
   20.8897   73.1588   -7.2826 P   0  0  2  0  0  0  0  0  0  0  0  0
   21.5493   72.7839   -8.7116 O   0  0  0  0  0  0  0  0  0  0  0  0
   20.4930   74.6000   -7.1427 O   0  0  0  0  0  0  0  0  0  0  0  0
   19.6750   72.1106   -7.1068 O   0  0  0  0  0  0  0  0  0  0  0  0
   17.5467   73.1491   -7.2004 O   0  0  0  0  0  0  0  0  0  0  0  0
   16.4020   69.4190   -5.8488 O   0  0  0  0  0  0  0  0  0  0  0  0
   15.8198   70.1870   -8.5542 O   0  0  0  0  0  0  0  0  0  0  0  0
   18.8516   70.6175   -4.8780 O   0  0  0  0  0  0  0  0  0  0  0  0
   17.1887   70.3479   -6.5995 C   0  0  1  0  0  0  0  0  0  0  0  0
   16.2602   71.1013   -7.5540 C   0  0  1  0  0  0  0  0  0  0  0  0
   17.8708   71.3174   -5.6360 C   0  0  2  0  0  0  0  0  0  0  0  0
   16.9786   72.2940   -8.1993 C   0  0  1  0  0  0  0  0  0  0  0  0
   18.5120   72.4923   -6.3766 C   0  0  1  0  0  0  0  0  0  0  0  0
   15.9666   68.8002   -6.4546 H   0  0  0  0  0  0  0  0  0  0  0  0
   15.3683   69.4384   -8.1334 H   0  0  0  0  0  0  0  0  0  0  0  0
   18.4331   69.8764   -4.4137 H   0  0  0  0  0  0  0  0  0  0  0  0
   14.7208   72.6229   -8.9087 O   0  0  0  0  0  0  0  0  0  0  0  0
   16.0284   73.1513   -9.0325 C   0  0  0  0  0  0  0  0  0  0  0  0
   14.1052   73.1588   -9.4335 H   0  0  0  0  0  0  0  0  0  0  0  0
 25 28  1  0
 25 24  1  0
 25 26  1  6
 25 27  2  0
  1  4  1  0
  1 24  1  0
  1  2  1  6
  1  3  2  0
  6 11  1  0
  6 12  1  0
 29 36  1  0
 29 37  1  0
  9  7  1  1
  7 13  1  0
 10  8  1  1
  8 14  1  0
 37 28  1  6
  4  5  1  0
 33 30  1  1
 30 38  1  0
 34 31  1  6
 31 39  1  0
 35 32  1  6
 32 40  1  0
 41 42  1  0
 41 43  1  0
 15 19  2  0
 16 22  2  0
 12 17  1  6
 17 19  1  0
 17 20  1  0
 18 19  1  0
 18 22  1  0
 18 23  1  0
  9 10  1  0
  9 11  1  0
 10 12  1  0
 11  5  1  6
 33 34  1  0
 33 35  1  0
 34 36  1  0
 35 37  1  0
 36 42  1  1
 20 21  2  0
 21 22  1  0
M  CHG  2   2  -1  26  -1
M  END
>  <COMPND>  (51) 
    8629 

>  <AUTHOR>  (51) 
    GENERATED BY OPEN BABEL 3.1.1

>  <MASTER>  (51) 
        0    0    0    0    0    0    0    0   58    0   58    0

>  <minimizedAffinity>  (51) 
-7.61517

>  <CNNscore>  (51) 
0.3903147578

>  <CNNaffinity>  (51) 
4.1063032150

>  <CNN_VS>  (51) 
1.6027507782

>  <CNNaffinity_variance>  (51) 
0.0627464503

$$$$
52
     RDKit          3D

 43 45  0  0  0  0  0  0  0  0999 V2000
   23.8956   71.9020   -2.6964 P   0  0  2  0  0  0  0  0  0  0  0  0
   25.2524   71.0865   -3.0303 O   0  0  0  0  0  0  0  0  0  0  0  0
   22.8266   71.1010   -2.0129 O   0  0  0  0  0  0  0  0  0  0  0  0
   23.4806   72.5626   -4.1139 O   0  0  0  0  0  0  0  0  0  0  0  0
   22.1273   72.9295   -4.3184 C   0  0  0  0  0  0  0  0  0  0  0  0
   20.8508   70.9888   -4.9332 O   0  0  0  0  0  0  0  0  0  0  0  0
   20.5042   72.2954   -7.6097 O   0  0  0  0  0  0  0  0  0  0  0  0
   18.1209   72.8051   -6.3863 O   0  0  0  0  0  0  0  0  0  0  0  0
   20.5496   72.8910   -6.3141 C   0  0  1  0  0  0  0  0  0  0  0  0
   19.2587   72.6256   -5.5679 C   0  0  2  0  0  0  0  0  0  0  0  0
   21.5641   72.1202   -5.4786 C   0  0  1  0  0  0  0  0  0  0  0  0
   19.4403   71.1831   -5.1272 C   0  0  2  0  0  0  0  0  0  0  0  0
   19.8631   72.7711   -8.1617 H   0  0  0  0  0  0  0  0  0  0  0  0
   18.0490   73.7384   -6.6402 H   0  0  0  0  0  0  0  0  0  0  0  0
   16.7576   70.3155   -4.9584 O   0  0  0  0  0  0  0  0  0  0  0  0
   16.9209   70.1123   -0.3570 O   0  0  0  0  0  0  0  0  0  0  0  0
   18.7566   70.8957   -3.8979 N   0  0  0  0  0  0  0  0  0  0  0  0
   16.8412   70.2149   -2.6674 N   0  0  0  0  0  0  0  0  0  0  0  0
   17.4089   70.4671   -3.9228 C   0  0  0  0  0  0  0  0  0  0  0  0
   19.4217   71.0393   -2.6851 C   0  0  0  0  0  0  0  0  0  0  0  0
   18.8656   70.7960   -1.4965 C   0  0  0  0  0  0  0  0  0  0  0  0
   17.4606   70.3442   -1.4344 C   0  0  0  0  0  0  0  0  0  0  0  0
   15.9030   69.9155   -2.6600 H   0  0  0  0  0  0  0  0  0  0  0  0
   24.4325   73.1692   -1.8484 O   0  0  0  0  0  0  0  0  0  0  0  0
   25.3259   73.2447   -0.5033 P   0  0  2  0  0  0  0  0  0  0  0  0
   25.5101   74.8349   -0.2691 O   0  0  0  0  0  0  0  0  0  0  0  0
   26.6135   72.4761   -0.5758 O   0  0  0  0  0  0  0  0  0  0  0  0
   24.3301   72.7717    0.6755 O   0  0  0  0  0  0  0  0  0  0  0  0
   25.8269   72.0202    2.3522 O   0  0  0  0  0  0  0  0  0  0  0  0
   22.2665   71.5634    4.3933 O   0  0  0  0  0  0  0  0  0  0  0  0
   24.0533   73.6919    5.1178 O   0  0  0  0  0  0  0  0  0  0  0  0
   22.4029   70.9384    1.5701 O   0  0  0  0  0  0  0  0  0  0  0  0
   23.1744   72.1861    3.4804 C   0  0  1  0  0  0  0  0  0  0  0  0
   24.4193   72.6149    4.2597 C   0  0  1  0  0  0  0  0  0  0  0  0
   23.5435   71.1880    2.3845 C   0  0  2  0  0  0  0  0  0  0  0  0
   25.5454   73.0467    3.3108 C   0  0  1  0  0  0  0  0  0  0  0  0
   24.7060   71.6935    1.5284 C   0  0  1  0  0  0  0  0  0  0  0  0
   22.0278   72.1920    5.0914 H   0  0  0  0  0  0  0  0  0  0  0  0
   23.3411   73.4062    5.7115 H   0  0  0  0  0  0  0  0  0  0  0  0
   21.6741   70.6187    2.1237 H   0  0  0  0  0  0  0  0  0  0  0  0
   27.5812   72.1209    4.1520 O   0  0  0  0  0  0  0  0  0  0  0  0
   26.8470   73.3278    4.0585 C   0  0  0  0  0  0  0  0  0  0  0  0
   28.4124   72.2847    4.6253 H   0  0  0  0  0  0  0  0  0  0  0  0
 25 28  1  0
 25 24  1  0
 25 26  1  1
 25 27  2  0
  1  4  1  0
  1 24  1  0
  1  2  1  6
  1  3  2  0
  6 11  1  0
  6 12  1  0
 29 36  1  0
 29 37  1  0
  9  7  1  6
  7 13  1  0
 10  8  1  6
  8 14  1  0
 37 28  1  1
  4  5  1  0
 33 30  1  1
 30 38  1  0
 34 31  1  1
 31 39  1  0
 35 32  1  6
 32 40  1  0
 41 42  1  0
 41 43  1  0
 15 19  2  0
 16 22  2  0
 12 17  1  1
 17 19  1  0
 17 20  1  0
 18 19  1  0
 18 22  1  0
 18 23  1  0
  9 10  1  0
  9 11  1  0
 10 12  1  0
 11  5  1  1
 33 34  1  0
 33 35  1  0
 34 36  1  0
 35 37  1  0
 36 42  1  1
 20 21  2  0
 21 22  1  0
M  CHG  2   2  -1  26  -1
M  END
>  <COMPND>  (52) 
    8629 

>  <AUTHOR>  (52) 
    GENERATED BY OPEN BABEL 3.1.1

>  <MASTER>  (52) 
        0    0    0    0    0    0    0    0   58    0   58    0

>  <minimizedAffinity>  (52) 
-6.79148

>  <CNNscore>  (52) 
0.3875618577

>  <CNNaffinity>  (52) 
3.9914207458

>  <CNN_VS>  (52) 
1.5469224453

>  <CNNaffinity_variance>  (52) 
0.2996347845

$$$$
53
     RDKit          3D

 43 45  0  0  0  0  0  0  0  0999 V2000
   22.1387   72.9547   -4.7259 P   0  0  2  0  0  0  0  0  0  0  0  0
   23.7401   72.8371   -4.5280 O   0  0  0  0  0  0  0  0  0  0  0  0
   21.5433   74.2675   -4.3097 O   0  0  0  0  0  0  0  0  0  0  0  0
   21.5569   71.6480   -3.9696 O   0  0  0  0  0  0  0  0  0  0  0  0
   22.1750   71.2336   -2.7637 C   0  0  0  0  0  0  0  0  0  0  0  0
   21.7695   70.7279   -0.4499 O   0  0  0  0  0  0  0  0  0  0  0  0
   19.2052   72.2507   -0.7602 O   0  0  0  0  0  0  0  0  0  0  0  0
   20.8244   74.0599    0.4814 O   0  0  0  0  0  0  0  0  0  0  0  0
   20.4795   72.4998   -1.3512 C   0  0  1  0  0  0  0  0  0  0  0  0
   21.4336   73.0705   -0.3228 C   0  0  2  0  0  0  0  0  0  0  0  0
   21.1208   71.1545   -1.6680 C   0  0  1  0  0  0  0  0  0  0  0  0
   21.8223   71.8326    0.4675 C   0  0  2  0  0  0  0  0  0  0  0  0
   18.7761   73.0953   -0.5493 H   0  0  0  0  0  0  0  0  0  0  0  0
   20.5958   74.8267   -0.0668 H   0  0  0  0  0  0  0  0  0  0  0  0
   22.7371   70.3605    2.6978 O   0  0  0  0  0  0  0  0  0  0  0  0
   26.9276   72.2652    2.4672 O   0  0  0  0  0  0  0  0  0  0  0  0
   23.1479   71.9239    1.0114 N   0  0  0  0  0  0  0  0  0  0  0  0
   24.8229   71.3099    2.5811 N   0  0  0  0  0  0  0  0  0  0  0  0
   23.5060   71.1422    2.1344 C   0  0  0  0  0  0  0  0  0  0  0  0
   24.0771   72.7812    0.4321 C   0  0  0  0  0  0  0  0  0  0  0  0
   25.3287   72.9305    0.8708 C   0  0  0  0  0  0  0  0  0  0  0  0
   25.7831   72.1501    2.0398 C   0  0  0  0  0  0  0  0  0  0  0  0
   25.0947   70.7758    3.3625 H   0  0  0  0  0  0  0  0  0  0  0  0
   21.9378   72.5899   -6.2878 O   0  0  0  0  0  0  0  0  0  0  0  0
   21.0014   73.2598   -7.4224 P   0  0  2  0  0  0  0  0  0  0  0  0
   21.3739   72.4202   -8.7543 O   0  0  0  0  0  0  0  0  0  0  0  0
   21.1687   74.7454   -7.5600 O   0  0  0  0  0  0  0  0  0  0  0  0
   19.5043   72.7871   -7.0480 O   0  0  0  0  0  0  0  0  0  0  0  0
   18.8593   70.9169   -5.7431 O   0  0  0  0  0  0  0  0  0  0  0  0
   15.6746   71.0188   -8.3695 O   0  0  0  0  0  0  0  0  0  0  0  0
   15.2894   71.8305   -5.6418 O   0  0  0  0  0  0  0  0  0  0  0  0
   18.3461   71.6079   -9.3159 O   0  0  0  0  0  0  0  0  0  0  0  0
   16.7070   71.5756   -7.5513 C   0  0  1  0  0  0  0  0  0  0  0  0
   16.4532   71.1505   -6.1037 C   0  0  1  0  0  0  0  0  0  0  0  0
   18.0605   71.0578   -8.0343 C   0  0  2  0  0  0  0  0  0  0  0  0
   17.6559   71.4822   -5.2100 C   0  0  1  0  0  0  0  0  0  0  0  0
   19.1800   71.3993   -7.0493 C   0  0  1  0  0  0  0  0  0  0  0  0
   14.8126   71.3440   -8.0684 H   0  0  0  0  0  0  0  0  0  0  0  0
   14.5375   71.6130   -6.2149 H   0  0  0  0  0  0  0  0  0  0  0  0
   17.6302   71.3846   -9.9303 H   0  0  0  0  0  0  0  0  0  0  0  0
   16.5694   69.8511   -3.8433 O   0  0  0  0  0  0  0  0  0  0  0  0
   17.4895   70.9261   -3.7975 C   0  0  0  0  0  0  0  0  0  0  0  0
   16.4538   69.4870   -2.9512 H   0  0  0  0  0  0  0  0  0  0  0  0
 25 28  1  0
 25 24  1  0
 25 26  1  6
 25 27  2  0
  1  4  1  0
  1 24  1  0
  1  2  1  6
  1  3  2  0
  6 11  1  0
  6 12  1  0
 29 36  1  0
 29 37  1  0
  9  7  1  1
  7 13  1  0
 10  8  1  1
  8 14  1  0
 37 28  1  1
  4  5  1  0
 33 30  1  6
 30 38  1  0
 34 31  1  1
 31 39  1  0
 35 32  1  6
 32 40  1  0
 41 42  1  0
 41 43  1  0
 15 19  2  0
 16 22  2  0
 12 17  1  6
 17 19  1  0
 17 20  1  0
 18 19  1  0
 18 22  1  0
 18 23  1  0
  9 10  1  0
  9 11  1  0
 10 12  1  0
 11  5  1  6
 33 34  1  0
 33 35  1  0
 34 36  1  0
 35 37  1  0
 36 42  1  1
 20 21  2  0
 21 22  1  0
M  CHG  2   2  -1  26  -1
M  END
>  <COMPND>  (53) 
    8629 

>  <AUTHOR>  (53) 
    GENERATED BY OPEN BABEL 3.1.1

>  <MASTER>  (53) 
        0    0    0    0    0    0    0    0   58    0   58    0

>  <minimizedAffinity>  (53) 
-7.64375

>  <CNNscore>  (53) 
0.3694671392

>  <CNNaffinity>  (53) 
4.1457848549

>  <CNN_VS>  (53) 
1.5317312479

>  <CNNaffinity_variance>  (53) 
0.0903194249

$$$$
54
     RDKit          3D

 43 45  0  0  0  0  0  0  0  0999 V2000
   23.6147   72.4190   -3.2641 P   0  0  2  0  0  0  0  0  0  0  0  0
   23.6711   73.8799   -2.5712 O   0  0  0  0  0  0  0  0  0  0  0  0
   24.8840   71.6242   -3.1716 O   0  0  0  0  0  0  0  0  0  0  0  0
   23.0816   72.7198   -4.7618 O   0  0  0  0  0  0  0  0  0  0  0  0
   21.6867   72.6694   -5.0058 C   0  0  0  0  0  0  0  0  0  0  0  0
   20.5266   71.0350   -6.3313 O   0  0  0  0  0  0  0  0  0  0  0  0
   21.1022   72.8063   -8.6812 O   0  0  0  0  0  0  0  0  0  0  0  0
   18.5009   73.3971   -8.1146 O   0  0  0  0  0  0  0  0  0  0  0  0
   20.7923   73.1650   -7.3356 C   0  0  1  0  0  0  0  0  0  0  0  0
   19.3205   72.9415   -7.0574 C   0  0  2  0  0  0  0  0  0  0  0  0
   21.4486   72.1438   -6.4148 C   0  0  1  0  0  0  0  0  0  0  0  0
   19.2590   71.4342   -6.8779 C   0  0  2  0  0  0  0  0  0  0  0  0
   20.6939   73.4445   -9.2879 H   0  0  0  0  0  0  0  0  0  0  0  0
   18.5745   74.3615   -8.1884 H   0  0  0  0  0  0  0  0  0  0  0  0
   16.7559   70.4097   -7.6921 O   0  0  0  0  0  0  0  0  0  0  0  0
   15.3315   69.9251   -3.3358 O   0  0  0  0  0  0  0  0  0  0  0  0
   18.2155   71.0320   -5.9776 N   0  0  0  0  0  0  0  0  0  0  0  0
   16.0488   70.1691   -5.5224 N   0  0  0  0  0  0  0  0  0  0  0  0
   16.9955   70.5314   -6.4890 C   0  0  0  0  0  0  0  0  0  0  0  0
   18.4072   71.1353   -4.6041 C   0  0  0  0  0  0  0  0  0  0  0  0
   17.4939   70.7867   -3.6955 C   0  0  0  0  0  0  0  0  0  0  0  0
   16.1919   70.2543   -4.1465 C   0  0  0  0  0  0  0  0  0  0  0  0
   15.1910   69.8181   -5.8553 H   0  0  0  0  0  0  0  0  0  0  0  0
   22.3361   71.7296   -2.5550 O   0  0  0  0  0  0  0  0  0  0  0  0
   21.6631   71.9786   -1.1065 P   0  0  2  0  0  0  0  0  0  0  0  0
   20.7643   70.6522   -0.8820 O   0  0  0  0  0  0  0  0  0  0  0  0
   20.9025   73.2681   -0.9949 O   0  0  0  0  0  0  0  0  0  0  0  0
   22.8813   71.8277   -0.0586 O   0  0  0  0  0  0  0  0  0  0  0  0
   22.6058   73.1183    1.9099 O   0  0  0  0  0  0  0  0  0  0  0  0
   26.5775   72.0790    2.3528 O   0  0  0  0  0  0  0  0  0  0  0  0
   24.5966   70.8605    4.0377 O   0  0  0  0  0  0  0  0  0  0  0  0
   25.5353   72.7143   -0.2720 O   0  0  0  0  0  0  0  0  0  0  0  0
   25.2148   71.8830    1.9657 C   0  0  1  0  0  0  0  0  0  0  0  0
   24.3401   71.9959    3.2159 C   0  0  1  0  0  0  0  0  0  0  0  0
   24.8286   72.9483    0.9414 C   0  0  2  0  0  0  0  0  0  0  0  0
   22.8521   72.0632    2.8468 C   0  0  1  0  0  0  0  0  0  0  0  0
   23.3210   72.9628    0.6826 C   0  0  1  0  0  0  0  0  0  0  0  0
   26.8292   71.4055    3.0028 H   0  0  0  0  0  0  0  0  0  0  0  0
   25.5397   70.8295    4.2633 H   0  0  0  0  0  0  0  0  0  0  0  0
   26.4884   72.7077   -0.0949 H   0  0  0  0  0  0  0  0  0  0  0  0
   21.5232   73.6755    4.0058 O   0  0  0  0  0  0  0  0  0  0  0  0
   21.9723   72.3342    4.0652 C   0  0  0  0  0  0  0  0  0  0  0  0
   20.9617   73.8622    4.7750 H   0  0  0  0  0  0  0  0  0  0  0  0
 25 28  1  0
 25 24  1  0
 25 26  1  1
 25 27  2  0
  1  4  1  0
  1 24  1  0
  1  2  1  1
  1  3  2  0
  6 11  1  0
  6 12  1  0
 29 36  1  0
 29 37  1  0
  9  7  1  6
  7 13  1  0
 10  8  1  6
  8 14  1  0
 37 28  1  1
  4  5  1  0
 33 30  1  1
 30 38  1  0
 34 31  1  1
 31 39  1  0
 35 32  1  6
 32 40  1  0
 41 42  1  0
 41 43  1  0
 15 19  2  0
 16 22  2  0
 12 17  1  1
 17 19  1  0
 17 20  1  0
 18 19  1  0
 18 22  1  0
 18 23  1  0
  9 10  1  0
  9 11  1  0
 10 12  1  0
 11  5  1  1
 33 34  1  0
 33 35  1  0
 34 36  1  0
 35 37  1  0
 36 42  1  1
 20 21  2  0
 21 22  1  0
M  CHG  2   2  -1  26  -1
M  END
>  <COMPND>  (54) 
    8629 

>  <AUTHOR>  (54) 
    GENERATED BY OPEN BABEL 3.1.1

>  <MASTER>  (54) 
        0    0    0    0    0    0    0    0   58    0   58    0

>  <minimizedAffinity>  (54) 
-7.00674

>  <CNNscore>  (54) 
0.3105216026

>  <CNNaffinity>  (54) 
3.9965343475

>  <CNN_VS>  (54) 
1.2410103083

>  <CNNaffinity_variance>  (54) 
0.1087961644

$$$$
55
     RDKit          3D

 43 45  0  0  0  0  0  0  0  0999 V2000
   21.4584   72.3166   -4.0474 P   0  0  2  0  0  0  0  0  0  0  0  0
   20.9734   70.9011   -3.4323 O   0  0  0  0  0  0  0  0  0  0  0  0
   22.8944   72.3608   -4.4802 O   0  0  0  0  0  0  0  0  0  0  0  0
   21.0304   73.3966   -2.9212 O   0  0  0  0  0  0  0  0  0  0  0  0
   21.4596   73.1881   -1.5869 C   0  0  0  0  0  0  0  0  0  0  0  0
   20.4167   73.0315    0.5722 O   0  0  0  0  0  0  0  0  0  0  0  0
   19.6416   75.9039    0.1987 O   0  0  0  0  0  0  0  0  0  0  0  0
   21.7996   76.0812    1.8566 O   0  0  0  0  0  0  0  0  0  0  0  0
   20.8327   75.2309   -0.2058 C   0  0  1  0  0  0  0  0  0  0  0  0
   21.7198   74.9658    0.9927 C   0  0  2  0  0  0  0  0  0  0  0  0
   20.4512   73.8203   -0.6373 C   0  0  1  0  0  0  0  0  0  0  0  0
   21.0310   73.7750    1.6374 C   0  0  2  0  0  0  0  0  0  0  0  0
   19.8600   76.8072    0.4785 H   0  0  0  0  0  0  0  0  0  0  0  0
   22.2455   76.8121    1.4009 H   0  0  0  0  0  0  0  0  0  0  0  0
   21.9010   74.1903    4.2923 O   0  0  0  0  0  0  0  0  0  0  0  0
   24.5653   70.4307    4.2013 O   0  0  0  0  0  0  0  0  0  0  0  0
   21.9514   72.9201    2.3324 N   0  0  0  0  0  0  0  0  0  0  0  0
   23.2267   72.3179    4.2449 N   0  0  0  0  0  0  0  0  0  0  0  0
   22.3245   73.2181    3.6638 C   0  0  0  0  0  0  0  0  0  0  0  0
   22.4739   71.8002    1.6945 C   0  0  0  0  0  0  0  0  0  0  0  0
   23.3343   70.9524    2.2622 C   0  0  0  0  0  0  0  0  0  0  0  0
   23.7751   71.1918    3.6516 C   0  0  0  0  0  0  0  0  0  0  0  0
   23.5012   72.5056    5.1718 H   0  0  0  0  0  0  0  0  0  0  0  0
   20.3905   72.5836   -5.2312 O   0  0  0  0  0  0  0  0  0  0  0  0
   20.5056   72.3796   -6.8306 P   0  0  2  0  0  0  0  0  0  0  0  0
   21.4779   71.0943   -6.9717 O   0  0  0  0  0  0  0  0  0  0  0  0
   20.9758   73.5964   -7.5738 O   0  0  0  0  0  0  0  0  0  0  0  0
   19.0515   71.8420   -7.2795 O   0  0  0  0  0  0  0  0  0  0  0  0
   16.8922   72.7915   -7.0500 O   0  0  0  0  0  0  0  0  0  0  0  0
   15.9517   68.8341   -6.3392 O   0  0  0  0  0  0  0  0  0  0  0  0
   15.1651   70.0556   -8.8165 O   0  0  0  0  0  0  0  0  0  0  0  0
   18.4254   69.9366   -5.3168 O   0  0  0  0  0  0  0  0  0  0  0  0
   16.6582   69.9155   -6.9532 C   0  0  1  0  0  0  0  0  0  0  0  0
   15.6454   70.7906   -7.6943 C   0  0  1  0  0  0  0  0  0  0  0  0
   17.3753   70.7213   -5.8717 C   0  0  2  0  0  0  0  0  0  0  0  0
   16.2830   72.1092   -8.1523 C   0  0  1  0  0  0  0  0  0  0  0  0
   17.9300   72.0365   -6.4217 C   0  0  1  0  0  0  0  0  0  0  0  0
   15.4946   68.3182   -7.0205 H   0  0  0  0  0  0  0  0  0  0  0  0
   14.7653   69.2251   -8.5136 H   0  0  0  0  0  0  0  0  0  0  0  0
   18.0612   69.1070   -4.9718 H   0  0  0  0  0  0  0  0  0  0  0  0
   13.9695   72.6903   -8.2895 O   0  0  0  0  0  0  0  0  0  0  0  0
   15.2537   73.0636   -8.7539 C   0  0  0  0  0  0  0  0  0  0  0  0
   13.3042   73.2893   -8.6641 H   0  0  0  0  0  0  0  0  0  0  0  0
 25 28  1  0
 25 24  1  0
 25 26  1  1
 25 27  2  0
  1  4  1  0
  1 24  1  0
  1  2  1  1
  1  3  2  0
  6 11  1  0
  6 12  1  0
 29 36  1  0
 29 37  1  0
  9  7  1  1
  7 13  1  0
 10  8  1  1
  8 14  1  0
 37 28  1  6
  4  5  1  0
 33 30  1  1
 30 38  1  0
 34 31  1  6
 31 39  1  0
 35 32  1  6
 32 40  1  0
 41 42  1  0
 41 43  1  0
 15 19  2  0
 16 22  2  0
 12 17  1  6
 17 19  1  0
 17 20  1  0
 18 19  1  0
 18 22  1  0
 18 23  1  0
  9 10  1  0
  9 11  1  0
 10 12  1  0
 11  5  1  6
 33 34  1  0
 33 35  1  0
 34 36  1  0
 35 37  1  0
 36 42  1  1
 20 21  2  0
 21 22  1  0
M  CHG  2   2  -1  26  -1
M  END
>  <COMPND>  (55) 
    8629 

>  <AUTHOR>  (55) 
    GENERATED BY OPEN BABEL 3.1.1

>  <MASTER>  (55) 
        0    0    0    0    0    0    0    0   58    0   58    0

>  <minimizedAffinity>  (55) 
-6.54189

>  <CNNscore>  (55) 
0.2567987740

>  <CNNaffinity>  (55) 
3.8023834229

>  <CNN_VS>  (55) 
0.9764474034

>  <CNNaffinity_variance>  (55) 
0.0330804475

$$$$
56
     RDKit          3D

 43 45  0  0  0  0  0  0  0  0999 V2000
   22.4048   73.4299   -2.1018 P   0  0  2  0  0  0  0  0  0  0  0  0
   23.2703   72.2125   -2.7234 O   0  0  0  0  0  0  0  0  0  0  0  0
   22.2709   74.6310   -2.9911 O   0  0  0  0  0  0  0  0  0  0  0  0
   23.0887   73.6960   -0.6598 O   0  0  0  0  0  0  0  0  0  0  0  0
   22.4335   73.2109    0.4991 C   0  0  0  0  0  0  0  0  0  0  0  0
   24.4995   72.0165    0.7801 O   0  0  0  0  0  0  0  0  0  0  0  0
   22.9473   70.1104    2.4971 O   0  0  0  0  0  0  0  0  0  0  0  0
   24.2248   71.6639    4.3386 O   0  0  0  0  0  0  0  0  0  0  0  0
   22.8094   71.5244    2.3666 C   0  0  1  0  0  0  0  0  0  0  0  0
   23.9465   72.2311    3.0746 C   0  0  2  0  0  0  0  0  0  0  0  0
   23.0666   71.8885    0.9097 C   0  0  1  0  0  0  0  0  0  0  0  0
   25.0896   72.0536    2.0897 C   0  0  2  0  0  0  0  0  0  0  0  0
   22.7872   69.8538    3.4193 H   0  0  0  0  0  0  0  0  0  0  0  0
   23.4680   71.8028    4.9291 H   0  0  0  0  0  0  0  0  0  0  0  0
   27.2930   72.1586    3.8538 O   0  0  0  0  0  0  0  0  0  0  0  0
   28.6430   76.2497    2.2162 O   0  0  0  0  0  0  0  0  0  0  0  0
   26.0333   73.1343    2.1455 N   0  0  0  0  0  0  0  0  0  0  0  0
   27.9635   74.1955    3.0368 N   0  0  0  0  0  0  0  0  0  0  0  0
   27.1040   73.0899    3.0686 C   0  0  0  0  0  0  0  0  0  0  0  0
   25.8922   74.2223    1.2909 C   0  0  0  0  0  0  0  0  0  0  0  0
   26.7198   75.2692    1.2741 C   0  0  0  0  0  0  0  0  0  0  0  0
   27.8644   75.3012    2.2072 C   0  0  0  0  0  0  0  0  0  0  0  0
   28.7165   74.1867    3.6714 H   0  0  0  0  0  0  0  0  0  0  0  0
   21.0051   72.7201   -1.7146 O   0  0  0  0  0  0  0  0  0  0  0  0
   20.0897   71.6643   -2.5272 P   0  0  2  0  0  0  0  0  0  0  0  0
   18.5931   71.9948   -2.0091 O   0  0  0  0  0  0  0  0  0  0  0  0
   20.5025   70.2312   -2.3544 O   0  0  0  0  0  0  0  0  0  0  0  0
   20.1179   72.1890   -4.0533 O   0  0  0  0  0  0  0  0  0  0  0  0
   19.5111   70.5455   -5.6493 O   0  0  0  0  0  0  0  0  0  0  0  0
   21.0873   73.3881   -8.1961 O   0  0  0  0  0  0  0  0  0  0  0  0
   18.2468   72.9706   -8.1210 O   0  0  0  0  0  0  0  0  0  0  0  0
   22.3290   72.9044   -5.6263 O   0  0  0  0  0  0  0  0  0  0  0  0
   20.3818   72.9188   -7.0439 C   0  0  1  0  0  0  0  0  0  0  0  0
   19.1883   72.0872   -7.5181 C   0  0  1  0  0  0  0  0  0  0  0  0
   21.3244   72.0699   -6.1929 C   0  0  2  0  0  0  0  0  0  0  0  0
   18.5403   71.3319   -6.3499 C   0  0  1  0  0  0  0  0  0  0  0  0
   20.5717   71.3230   -5.0904 C   0  0  1  0  0  0  0  0  0  0  0  0
   20.4945   73.9282   -8.7405 H   0  0  0  0  0  0  0  0  0  0  0  0
   18.6687   73.4416   -8.8567 H   0  0  0  0  0  0  0  0  0  0  0  0
   22.7985   73.3714   -6.3344 H   0  0  0  0  0  0  0  0  0  0  0  0
   17.7001   70.0391   -8.1751 O   0  0  0  0  0  0  0  0  0  0  0  0
   17.4484   70.3749   -6.8230 C   0  0  0  0  0  0  0  0  0  0  0  0
   17.0131   69.4302   -8.4897 H   0  0  0  0  0  0  0  0  0  0  0  0
 25 28  1  0
 25 24  1  0
 25 26  1  1
 25 27  2  0
  1  4  1  0
  1 24  1  0
  1  2  1  6
  1  3  2  0
  6 11  1  0
  6 12  1  0
 29 36  1  0
 29 37  1  0
  9  7  1  6
  7 13  1  0
 10  8  1  1
  8 14  1  0
 37 28  1  1
  4  5  1  0
 33 30  1  6
 30 38  1  0
 34 31  1  1
 31 39  1  0
 35 32  1  1
 32 40  1  0
 41 42  1  0
 41 43  1  0
 15 19  2  0
 16 22  2  0
 12 17  1  6
 17 19  1  0
 17 20  1  0
 18 19  1  0
 18 22  1  0
 18 23  1  0
  9 10  1  0
  9 11  1  0
 10 12  1  0
 11  5  1  1
 33 34  1  0
 33 35  1  0
 34 36  1  0
 35 37  1  0
 36 42  1  6
 20 21  2  0
 21 22  1  0
M  CHG  2   2  -1  26  -1
M  END
>  <COMPND>  (56) 
    8629 

>  <AUTHOR>  (56) 
    GENERATED BY OPEN BABEL 3.1.1

>  <MASTER>  (56) 
        0    0    0    0    0    0    0    0   58    0   58    0

>  <minimizedAffinity>  (56) 
-6.21630

>  <CNNscore>  (56) 
0.2441445440

>  <CNNaffinity>  (56) 
3.7320017815

>  <CNN_VS>  (56) 
0.9111478925

>  <CNNaffinity_variance>  (56) 
0.2934902310

$$$$
57
     RDKit          3D

 43 45  0  0  0  0  0  0  0  0999 V2000
   19.0700   73.7348   -3.6040 P   0  0  2  0  0  0  0  0  0  0  0  0
   19.6756   75.0378   -4.3474 O   0  0  0  0  0  0  0  0  0  0  0  0
   17.5863   73.7641   -3.3822 O   0  0  0  0  0  0  0  0  0  0  0  0
   19.9769   73.5909   -2.2719 O   0  0  0  0  0  0  0  0  0  0  0  0
   21.0345   72.6479   -2.2725 C   0  0  0  0  0  0  0  0  0  0  0  0
   23.0552   73.6849   -1.4883 O   0  0  0  0  0  0  0  0  0  0  0  0
   24.1050   73.3123   -4.2722 O   0  0  0  0  0  0  0  0  0  0  0  0
   25.2768   71.2576   -2.9151 O   0  0  0  0  0  0  0  0  0  0  0  0
   23.2503   72.4625   -3.5090 C   0  0  1  0  0  0  0  0  0  0  0  0
   24.0424   71.7488   -2.4335 C   0  0  2  0  0  0  0  0  0  0  0  0
   22.3221   73.3472   -2.6862 C   0  0  1  0  0  0  0  0  0  0  0  0
   24.2142   72.8410   -1.3916 C   0  0  2  0  0  0  0  0  0  0  0  0
   24.7069   72.7698   -4.8063 H   0  0  0  0  0  0  0  0  0  0  0  0
   25.1143   70.5655   -3.5748 H   0  0  0  0  0  0  0  0  0  0  0  0
   26.4297   73.1963    0.3240 O   0  0  0  0  0  0  0  0  0  0  0  0
   24.4312   70.7839    3.7045 O   0  0  0  0  0  0  0  0  0  0  0  0
   24.2994   72.3169   -0.0577 N   0  0  0  0  0  0  0  0  0  0  0  0
   25.4328   71.9950    2.0059 N   0  0  0  0  0  0  0  0  0  0  0  0
   25.4569   72.5514    0.7207 C   0  0  0  0  0  0  0  0  0  0  0  0
   23.2428   71.5799    0.4661 C   0  0  0  0  0  0  0  0  0  0  0  0
   23.2360   71.0551    1.6932 C   0  0  0  0  0  0  0  0  0  0  0  0
   24.4071   71.2539    2.5712 C   0  0  0  0  0  0  0  0  0  0  0  0
   26.2286   72.1451    2.5662 H   0  0  0  0  0  0  0  0  0  0  0  0
   19.5878   72.5148   -4.5295 O   0  0  0  0  0  0  0  0  0  0  0  0
   19.9267   72.4502   -6.1087 P   0  0  2  0  0  0  0  0  0  0  0  0
   20.8265   71.1121   -6.2406 O   0  0  0  0  0  0  0  0  0  0  0  0
   20.5779   73.6901   -6.6496 O   0  0  0  0  0  0  0  0  0  0  0  0
   18.5248   72.0698   -6.8122 O   0  0  0  0  0  0  0  0  0  0  0  0
   16.2287   72.6078   -6.5775 O   0  0  0  0  0  0  0  0  0  0  0  0
   15.9388   68.4892   -6.6340 O   0  0  0  0  0  0  0  0  0  0  0  0
   15.0636   70.0036   -8.9119 O   0  0  0  0  0  0  0  0  0  0  0  0
   18.1458   69.7626   -5.2603 O   0  0  0  0  0  0  0  0  0  0  0  0
   16.4784   69.7625   -6.9985 C   0  0  1  0  0  0  0  0  0  0  0  0
   15.3651   70.5872   -7.6475 C   0  0  1  0  0  0  0  0  0  0  0  0
   17.0030   70.4597   -5.7447 C   0  0  2  0  0  0  0  0  0  0  0  0
   15.7904   72.0513   -7.8225 C   0  0  1  0  0  0  0  0  0  0  0  0
   17.3512   71.9242   -6.0167 C   0  0  1  0  0  0  0  0  0  0  0  0
   15.6044   68.0410   -7.4258 H   0  0  0  0  0  0  0  0  0  0  0  0
   14.7969   69.0792   -8.7873 H   0  0  0  0  0  0  0  0  0  0  0  0
   17.9122   68.8369   -5.0917 H   0  0  0  0  0  0  0  0  0  0  0  0
   14.7400   73.0350   -9.7298 O   0  0  0  0  0  0  0  0  0  0  0  0
   14.6416   72.9248   -8.3218 C   0  0  0  0  0  0  0  0  0  0  0  0
   14.0150   73.5881  -10.0617 H   0  0  0  0  0  0  0  0  0  0  0  0
 25 28  1  0
 25 24  1  0
 25 26  1  1
 25 27  2  0
  1  4  1  0
  1 24  1  0
  1  2  1  6
  1  3  2  0
  6 11  1  0
  6 12  1  0
 29 36  1  0
 29 37  1  0
  9  7  1  6
  7 13  1  0
 10  8  1  6
  8 14  1  0
 37 28  1  6
  4  5  1  0
 33 30  1  1
 30 38  1  0
 34 31  1  6
 31 39  1  0
 35 32  1  6
 32 40  1  0
 41 42  1  0
 41 43  1  0
 15 19  2  0
 16 22  2  0
 12 17  1  1
 17 19  1  0
 17 20  1  0
 18 19  1  0
 18 22  1  0
 18 23  1  0
  9 10  1  0
  9 11  1  0
 10 12  1  0
 11  5  1  1
 33 34  1  0
 33 35  1  0
 34 36  1  0
 35 37  1  0
 36 42  1  1
 20 21  2  0
 21 22  1  0
M  CHG  2   2  -1  26  -1
M  END
>  <COMPND>  (57) 
    8629 

>  <AUTHOR>  (57) 
    GENERATED BY OPEN BABEL 3.1.1

>  <MASTER>  (57) 
        0    0    0    0    0    0    0    0   58    0   58    0

>  <minimizedAffinity>  (57) 
-7.49881

>  <CNNscore>  (57) 
0.2338417172

>  <CNNaffinity>  (57) 
3.7076287270

>  <CNN_VS>  (57) 
0.8669982553

>  <CNNaffinity_variance>  (57) 
0.2000951320

$$$$
58
     RDKit          3D

 43 45  0  0  0  0  0  0  0  0999 V2000
   19.1019   73.1142   -4.0839 P   0  0  2  0  0  0  0  0  0  0  0  0
   19.6458   71.7408   -4.7436 O   0  0  0  0  0  0  0  0  0  0  0  0
   19.2748   74.3379   -4.9348 O   0  0  0  0  0  0  0  0  0  0  0  0
   19.8189   73.1594   -2.6341 O   0  0  0  0  0  0  0  0  0  0  0  0
   20.9668   72.3561   -2.4222 C   0  0  0  0  0  0  0  0  0  0  0  0
   22.8783   73.5667   -1.6134 O   0  0  0  0  0  0  0  0  0  0  0  0
   24.0264   73.2199   -4.3615 O   0  0  0  0  0  0  0  0  0  0  0  0
   25.3208   71.2939   -2.9292 O   0  0  0  0  0  0  0  0  0  0  0  0
   23.2217   72.3212   -3.5999 C   0  0  1  0  0  0  0  0  0  0  0  0
   24.0394   71.6956   -2.4893 C   0  0  2  0  0  0  0  0  0  0  0  0
   22.2055   73.1466   -2.8205 C   0  0  1  0  0  0  0  0  0  0  0  0
   24.0973   72.8198   -1.4690 C   0  0  2  0  0  0  0  0  0  0  0  0
   24.6829   72.7158   -4.8682 H   0  0  0  0  0  0  0  0  0  0  0  0
   25.2307   70.5773   -3.5765 H   0  0  0  0  0  0  0  0  0  0  0  0
   26.2977   73.2681    0.2442 O   0  0  0  0  0  0  0  0  0  0  0  0
   24.3396   70.9006    3.6795 O   0  0  0  0  0  0  0  0  0  0  0  0
   24.1888   72.3324   -0.1216 N   0  0  0  0  0  0  0  0  0  0  0  0
   25.3208   72.0891    1.9534 N   0  0  0  0  0  0  0  0  0  0  0  0
   25.3378   72.6124    0.6542 C   0  0  0  0  0  0  0  0  0  0  0  0
   23.1466   71.5861    0.4176 C   0  0  0  0  0  0  0  0  0  0  0  0
   23.1465   71.0931    1.6579 C   0  0  0  0  0  0  0  0  0  0  0  0
   24.3095   71.3404    2.5343 C   0  0  0  0  0  0  0  0  0  0  0  0
   26.1110   72.2712    2.5122 H   0  0  0  0  0  0  0  0  0  0  0  0
   17.5675   72.7596   -3.7194 O   0  0  0  0  0  0  0  0  0  0  0  0
   16.8026   71.3395   -3.6130 P   0  0  2  0  0  0  0  0  0  0  0  0
   15.2449   71.7640   -3.5085 O   0  0  0  0  0  0  0  0  0  0  0  0
   17.2826   70.4647   -2.4913 O   0  0  0  0  0  0  0  0  0  0  0  0
   16.9493   70.6855   -5.0812 O   0  0  0  0  0  0  0  0  0  0  0  0
   16.0951   72.2860   -6.6061 O   0  0  0  0  0  0  0  0  0  0  0  0
   17.0462   69.2781   -9.2705 O   0  0  0  0  0  0  0  0  0  0  0  0
   18.6568   71.6542   -9.1804 O   0  0  0  0  0  0  0  0  0  0  0  0
   15.9347   68.6152   -6.6811 O   0  0  0  0  0  0  0  0  0  0  0  0
   17.2132   70.0828   -8.1000 C   0  0  1  0  0  0  0  0  0  0  0  0
   17.3896   71.5376   -8.5394 C   0  0  1  0  0  0  0  0  0  0  0  0
   15.9787   69.9351   -7.2125 C   0  0  2  0  0  0  0  0  0  0  0  0
   17.3074   72.4922   -7.3406 C   0  0  1  0  0  0  0  0  0  0  0  0
   15.9711   70.9632   -6.0798 C   0  0  1  0  0  0  0  0  0  0  0  0
   17.8269   69.3670   -9.8380 H   0  0  0  0  0  0  0  0  0  0  0  0
   18.6959   71.0460   -9.9352 H   0  0  0  0  0  0  0  0  0  0  0  0
   15.9397   67.9738   -7.4080 H   0  0  0  0  0  0  0  0  0  0  0  0
   18.6699   74.3785   -7.8833 O   0  0  0  0  0  0  0  0  0  0  0  0
   17.3229   73.9566   -7.7735 C   0  0  0  0  0  0  0  0  0  0  0  0
   18.6953   75.3087   -8.1585 H   0  0  0  0  0  0  0  0  0  0  0  0
 25 28  1  0
 25 24  1  0
 25 26  1  1
 25 27  2  0
  1  4  1  0
  1 24  1  0
  1  2  1  6
  1  3  2  0
  6 11  1  0
  6 12  1  0
 29 36  1  0
 29 37  1  0
  9  7  1  6
  7 13  1  0
 10  8  1  6
  8 14  1  0
 37 28  1  1
  4  5  1  0
 33 30  1  6
 30 38  1  0
 34 31  1  1
 31 39  1  0
 35 32  1  1
 32 40  1  0
 41 42  1  0
 41 43  1  0
 15 19  2  0
 16 22  2  0
 12 17  1  1
 17 19  1  0
 17 20  1  0
 18 19  1  0
 18 22  1  0
 18 23  1  0
  9 10  1  0
  9 11  1  0
 10 12  1  0
 11  5  1  1
 33 34  1  0
 33 35  1  0
 34 36  1  0
 35 37  1  0
 36 42  1  6
 20 21  2  0
 21 22  1  0
M  CHG  2   2  -1  26  -1
M  END
>  <COMPND>  (58) 
    8629 

>  <AUTHOR>  (58) 
    GENERATED BY OPEN BABEL 3.1.1

>  <MASTER>  (58) 
        0    0    0    0    0    0    0    0   58    0   58    0

>  <minimizedAffinity>  (58) 
-7.41225

>  <CNNscore>  (58) 
0.2326555550

>  <CNNaffinity>  (58) 
3.7625164986

>  <CNN_VS>  (58) 
0.8753703833

>  <CNNaffinity_variance>  (58) 
0.2040519714

$$$$
59
     RDKit          3D

 43 45  0  0  0  0  0  0  0  0999 V2000
   19.2896   73.6033   -2.6191 P   0  0  2  0  0  0  0  0  0  0  0  0
   19.5386   74.5682   -3.8936 O   0  0  0  0  0  0  0  0  0  0  0  0
   17.9073   73.6641   -2.0386 O   0  0  0  0  0  0  0  0  0  0  0  0
   20.4942   73.9791   -1.6063 O   0  0  0  0  0  0  0  0  0  0  0  0
   21.5786   73.0757   -1.4808 C   0  0  0  0  0  0  0  0  0  0  0  0
   23.7557   74.0879   -1.3836 O   0  0  0  0  0  0  0  0  0  0  0  0
   24.1138   73.1461   -4.2077 O   0  0  0  0  0  0  0  0  0  0  0  0
   25.5110   71.2895   -2.7803 O   0  0  0  0  0  0  0  0  0  0  0  0
   23.4372   72.5113   -3.1239 C   0  0  1  0  0  0  0  0  0  0  0  0
   24.4382   71.9472   -2.1373 C   0  0  2  0  0  0  0  0  0  0  0  0
   22.7532   73.5943   -2.2989 C   0  0  1  0  0  0  0  0  0  0  0  0
   24.8804   73.1935   -1.3896 C   0  0  2  0  0  0  0  0  0  0  0  0
   24.5581   72.4743   -4.7492 H   0  0  0  0  0  0  0  0  0  0  0  0
   25.1788   70.5036   -3.2416 H   0  0  0  0  0  0  0  0  0  0  0  0
   27.4874   72.4679   -0.5803 O   0  0  0  0  0  0  0  0  0  0  0  0
   26.2216   72.1389    3.8390 O   0  0  0  0  0  0  0  0  0  0  0  0
   25.2602   72.9129   -0.0337 N   0  0  0  0  0  0  0  0  0  0  0  0
   26.8551   72.3049    1.6195 N   0  0  0  0  0  0  0  0  0  0  0  0
   26.5957   72.5564    0.2662 C   0  0  0  0  0  0  0  0  0  0  0  0
   24.3136   72.9928    0.9818 C   0  0  0  0  0  0  0  0  0  0  0  0
   24.5768   72.7486    2.2673 C   0  0  0  0  0  0  0  0  0  0  0  0
   25.9479   72.3698    2.6653 C   0  0  0  0  0  0  0  0  0  0  0  0
   27.7786   72.0544    1.8521 H   0  0  0  0  0  0  0  0  0  0  0  0
   19.7226   72.1484   -3.1747 O   0  0  0  0  0  0  0  0  0  0  0  0
   19.9733   71.6189   -4.6812 P   0  0  2  0  0  0  0  0  0  0  0  0
   19.7252   70.0247   -4.5603 O   0  0  0  0  0  0  0  0  0  0  0  0
   21.3098   71.9961   -5.2516 O   0  0  0  0  0  0  0  0  0  0  0  0
   18.7088   72.1656   -5.5221 O   0  0  0  0  0  0  0  0  0  0  0  0
   17.5757   71.5994   -7.5251 O   0  0  0  0  0  0  0  0  0  0  0  0
   18.0163   75.6586   -8.1412 O   0  0  0  0  0  0  0  0  0  0  0  0
   15.4238   74.5925   -7.5164 O   0  0  0  0  0  0  0  0  0  0  0  0
   20.1466   74.1480   -6.8925 O   0  0  0  0  0  0  0  0  0  0  0  0
   17.8081   74.4730   -7.3690 C   0  0  1  0  0  0  0  0  0  0  0  0
   16.5404   73.7849   -7.8790 C   0  0  1  0  0  0  0  0  0  0  0  0
   19.0188   73.5551   -7.5273 C   0  0  2  0  0  0  0  0  0  0  0  0
   16.3970   72.3771   -7.2852 C   0  0  1  0  0  0  0  0  0  0  0  0
   18.7535   72.1650   -6.9466 C   0  0  1  0  0  0  0  0  0  0  0  0
   17.2513   76.2459   -8.0446 H   0  0  0  0  0  0  0  0  0  0  0  0
   15.5270   75.4788   -7.8972 H   0  0  0  0  0  0  0  0  0  0  0  0
   20.3043   75.0273   -7.2690 H   0  0  0  0  0  0  0  0  0  0  0  0
   14.6801   72.3949   -8.9468 O   0  0  0  0  0  0  0  0  0  0  0  0
   15.2260   71.6136   -7.8999 C   0  0  0  0  0  0  0  0  0  0  0  0
   13.9339   71.9213   -9.3476 H   0  0  0  0  0  0  0  0  0  0  0  0
 25 28  1  0
 25 24  1  0
 25 26  1  1
 25 27  2  0
  1  4  1  0
  1 24  1  0
  1  2  1  6
  1  3  2  0
  6 11  1  0
  6 12  1  0
 29 36  1  0
 29 37  1  0
  9  7  1  6
  7 13  1  0
 10  8  1  6
  8 14  1  0
 37 28  1  1
  4  5  1  0
 33 30  1  6
 30 38  1  0
 34 31  1  1
 31 39  1  0
 35 32  1  1
 32 40  1  0
 41 42  1  0
 41 43  1  0
 15 19  2  0
 16 22  2  0
 12 17  1  1
 17 19  1  0
 17 20  1  0
 18 19  1  0
 18 22  1  0
 18 23  1  0
  9 10  1  0
  9 11  1  0
 10 12  1  0
 11  5  1  1
 33 34  1  0
 33 35  1  0
 34 36  1  0
 35 37  1  0
 36 42  1  6
 20 21  2  0
 21 22  1  0
M  CHG  2   2  -1  26  -1
M  END
>  <COMPND>  (59) 
    8629 

>  <AUTHOR>  (59) 
    GENERATED BY OPEN BABEL 3.1.1

>  <MASTER>  (59) 
        0    0    0    0    0    0    0    0   58    0   58    0

>  <minimizedAffinity>  (59) 
-6.29989

>  <CNNscore>  (59) 
0.2189527899

>  <CNNaffinity>  (59) 
3.7554841042

>  <CNN_VS>  (59) 
0.8222737312

>  <CNNaffinity_variance>  (59) 
0.0787175372

$$$$
60
     RDKit          3D

 43 45  0  0  0  0  0  0  0  0999 V2000
   22.3778   72.6900   -0.6376 P   0  0  2  0  0  0  0  0  0  0  0  0
   21.1527   73.7168   -0.3889 O   0  0  0  0  0  0  0  0  0  0  0  0
   22.0066   71.2369   -0.5895 O   0  0  0  0  0  0  0  0  0  0  0  0
   23.5030   73.1632    0.4244 O   0  0  0  0  0  0  0  0  0  0  0  0
   24.8132   72.6381    0.3004 C   0  0  0  0  0  0  0  0  0  0  0  0
   25.0958   74.3002    2.0125 O   0  0  0  0  0  0  0  0  0  0  0  0
   28.0412   73.8083    1.7423 O   0  0  0  0  0  0  0  0  0  0  0  0
   27.4050   72.3908    3.9834 O   0  0  0  0  0  0  0  0  0  0  0  0
   26.9594   72.8834    1.6446 C   0  0  1  0  0  0  0  0  0  0  0  0
   26.3925   72.5903    3.0181 C   0  0  2  0  0  0  0  0  0  0  0  0
   25.7951   73.5933    0.9649 C   0  0  1  0  0  0  0  0  0  0  0  0
   25.5634   73.8343    3.2888 C   0  0  2  0  0  0  0  0  0  0  0  0
   28.7968   73.3775    2.1730 H   0  0  0  0  0  0  0  0  0  0  0  0
   27.9042   71.5878    3.7674 H   0  0  0  0  0  0  0  0  0  0  0  0
   24.7671   75.4580    5.4585 O   0  0  0  0  0  0  0  0  0  0  0  0
   21.2060   72.7051    6.4491 O   0  0  0  0  0  0  0  0  0  0  0  0
   24.4317   73.5656    4.1305 N   0  0  0  0  0  0  0  0  0  0  0  0
   22.9945   74.0860    5.9498 N   0  0  0  0  0  0  0  0  0  0  0  0
   24.1183   74.4437    5.1940 C   0  0  0  0  0  0  0  0  0  0  0  0
   23.6459   72.4422    3.8974 C   0  0  0  0  0  0  0  0  0  0  0  0
   22.5782   72.1145    4.6281 C   0  0  0  0  0  0  0  0  0  0  0  0
   22.1825   72.9794    5.7584 C   0  0  0  0  0  0  0  0  0  0  0  0
   22.7573   74.6829    6.6964 H   0  0  0  0  0  0  0  0  0  0  0  0
   22.9838   73.1831   -2.0528 O   0  0  0  0  0  0  0  0  0  0  0  0
   23.4097   72.3523   -3.3724 P   0  0  2  0  0  0  0  0  0  0  0  0
   24.3486   71.1743   -2.7822 O   0  0  0  0  0  0  0  0  0  0  0  0
   24.0581   73.1843   -4.4407 O   0  0  0  0  0  0  0  0  0  0  0  0
   22.0582   71.6023   -3.8369 O   0  0  0  0  0  0  0  0  0  0  0  0
   20.6716   73.1987   -4.9073 O   0  0  0  0  0  0  0  0  0  0  0  0
   18.1241   69.9500   -4.9915 O   0  0  0  0  0  0  0  0  0  0  0  0
   19.3708   70.8377   -7.4217 O   0  0  0  0  0  0  0  0  0  0  0  0
   19.7973   70.4132   -2.6752 O   0  0  0  0  0  0  0  0  0  0  0  0
   19.3891   70.6154   -5.0403 C   0  0  1  0  0  0  0  0  0  0  0  0
   19.3705   71.5954   -6.2150 C   0  0  1  0  0  0  0  0  0  0  0  0
   19.6138   71.3577   -3.7243 C   0  0  2  0  0  0  0  0  0  0  0  0
   20.5841   72.5337   -6.1730 C   0  0  1  0  0  0  0  0  0  0  0  0
   20.8159   72.3002   -3.8055 C   0  0  1  0  0  0  0  0  0  0  0  0
   17.9756   69.4762   -5.8240 H   0  0  0  0  0  0  0  0  0  0  0  0
   18.5997   70.2490   -7.4355 H   0  0  0  0  0  0  0  0  0  0  0  0
   19.0296   69.8227   -2.6339 H   0  0  0  0  0  0  0  0  0  0  0  0
   19.1682   73.6994   -7.7045 O   0  0  0  0  0  0  0  0  0  0  0  0
   20.5043   73.6203   -7.2431 C   0  0  0  0  0  0  0  0  0  0  0  0
   19.1023   74.3871   -8.3859 H   0  0  0  0  0  0  0  0  0  0  0  0
 25 28  1  0
 25 24  1  0
 25 26  1  1
 25 27  2  0
  1  4  1  0
  1 24  1  0
  1  2  1  1
  1  3  2  0
  6 11  1  0
  6 12  1  0
 29 36  1  0
 29 37  1  0
  9  7  1  1
  7 13  1  0
 10  8  1  1
  8 14  1  0
 37 28  1  6
  4  5  1  0
 33 30  1  1
 30 38  1  0
 34 31  1  6
 31 39  1  0
 35 32  1  1
 32 40  1  0
 41 42  1  0
 41 43  1  0
 15 19  2  0
 16 22  2  0
 12 17  1  1
 17 19  1  0
 17 20  1  0
 18 19  1  0
 18 22  1  0
 18 23  1  0
  9 10  1  0
  9 11  1  0
 10 12  1  0
 11  5  1  1
 33 34  1  0
 33 35  1  0
 34 36  1  0
 35 37  1  0
 36 42  1  6
 20 21  2  0
 21 22  1  0
M  CHG  2   2  -1  26  -1
M  END
>  <COMPND>  (60) 
    8629 

>  <AUTHOR>  (60) 
    GENERATED BY OPEN BABEL 3.1.1

>  <MASTER>  (60) 
        0    0    0    0    0    0    0    0   58    0   58    0

>  <minimizedAffinity>  (60) 
-6.04549

>  <CNNscore>  (60) 
0.2180562615

>  <CNNaffinity>  (60) 
3.6716446877

>  <CNN_VS>  (60) 
0.8006250858

>  <CNNaffinity_variance>  (60) 
0.2940762639

$$$$
61
     RDKit          3D

 43 45  0  0  0  0  0  0  0  0999 V2000
   21.4008   71.7092   -1.4504 P   0  0  2  0  0  0  0  0  0  0  0  0
   21.5494   70.9384   -0.0358 O   0  0  0  0  0  0  0  0  0  0  0  0
   21.1846   73.1903   -1.3454 O   0  0  0  0  0  0  0  0  0  0  0  0
   20.2439   70.8833   -2.2232 O   0  0  0  0  0  0  0  0  0  0  0  0
   19.6882   71.4399   -3.4018 C   0  0  0  0  0  0  0  0  0  0  0  0
   20.2735   70.5194   -5.5428 O   0  0  0  0  0  0  0  0  0  0  0  0
   22.2408   72.7714   -5.7640 O   0  0  0  0  0  0  0  0  0  0  0  0
   20.1689   73.6380   -7.3109 O   0  0  0  0  0  0  0  0  0  0  0  0
   20.9404   72.7638   -5.1773 C   0  0  1  0  0  0  0  0  0  0  0  0
   19.8772   72.7445   -6.2557 C   0  0  2  0  0  0  0  0  0  0  0  0
   20.7366   71.4116   -4.5055 C   0  0  1  0  0  0  0  0  0  0  0  0
   19.9020   71.2909   -6.6967 C   0  0  2  0  0  0  0  0  0  0  0  0
   22.3941   73.6254   -6.1989 H   0  0  0  0  0  0  0  0  0  0  0  0
   20.1407   74.5493   -6.9801 H   0  0  0  0  0  0  0  0  0  0  0  0
   19.3297   70.6402   -9.3850 O   0  0  0  0  0  0  0  0  0  0  0  0
   14.9590   69.5711   -8.3875 O   0  0  0  0  0  0  0  0  0  0  0  0
   18.6229   70.8395   -7.1674 N   0  0  0  0  0  0  0  0  0  0  0  0
   17.1540   70.1083   -8.8861 N   0  0  0  0  0  0  0  0  0  0  0  0
   18.4401   70.5400   -8.5376 C   0  0  0  0  0  0  0  0  0  0  0  0
   17.5665   70.6973   -6.2742 C   0  0  0  0  0  0  0  0  0  0  0  0
   16.3458   70.2857   -6.6228 C   0  0  0  0  0  0  0  0  0  0  0  0
   16.0711   69.9523   -8.0354 C   0  0  0  0  0  0  0  0  0  0  0  0
   17.0031   69.8943   -9.8354 H   0  0  0  0  0  0  0  0  0  0  0  0
   22.7437   71.2798   -2.2411 O   0  0  0  0  0  0  0  0  0  0  0  0
   24.1520   72.0487   -2.4371 P   0  0  2  0  0  0  0  0  0  0  0  0
   23.7109   73.5978   -2.5898 O   0  0  0  0  0  0  0  0  0  0  0  0
   24.9850   71.5273   -3.5720 O   0  0  0  0  0  0  0  0  0  0  0  0
   24.8657   71.9687   -0.9917 O   0  0  0  0  0  0  0  0  0  0  0  0
   24.0884   73.5173    0.6252 O   0  0  0  0  0  0  0  0  0  0  0  0
   27.5967   72.3494    2.4632 O   0  0  0  0  0  0  0  0  0  0  0  0
   25.0784   71.4608    3.5199 O   0  0  0  0  0  0  0  0  0  0  0  0
   27.5154   72.6874   -0.4106 O   0  0  0  0  0  0  0  0  0  0  0  0
   26.4191   72.1722    1.6713 C   0  0  1  0  0  0  0  0  0  0  0  0
   25.2027   72.4905    2.5429 C   0  0  1  0  0  0  0  0  0  0  0  0
   26.4799   73.1125    0.4690 C   0  0  2  0  0  0  0  0  0  0  0  0
   23.9247   72.5826    1.6982 C   0  0  1  0  0  0  0  0  0  0  0  0
   25.1433   73.1677   -0.2730 C   0  0  1  0  0  0  0  0  0  0  0  0
   27.5646   71.7548    3.2281 H   0  0  0  0  0  0  0  0  0  0  0  0
   25.8921   71.4128    4.0461 H   0  0  0  0  0  0  0  0  0  0  0  0
   28.3562   72.6569    0.0710 H   0  0  0  0  0  0  0  0  0  0  0  0
   22.1594   71.9312    3.1706 O   0  0  0  0  0  0  0  0  0  0  0  0
   22.7278   73.0535    2.5213 C   0  0  0  0  0  0  0  0  0  0  0  0
   21.3966   72.2159    3.6986 H   0  0  0  0  0  0  0  0  0  0  0  0
 25 28  1  0
 25 24  1  0
 25 26  1  6
 25 27  2  0
  1  4  1  0
  1 24  1  0
  1  2  1  1
  1  3  2  0
  6 11  1  0
  6 12  1  0
 29 36  1  0
 29 37  1  0
  9  7  1  6
  7 13  1  0
 10  8  1  6
  8 14  1  0
 37 28  1  1
  4  5  1  0
 33 30  1  1
 30 38  1  0
 34 31  1  1
 31 39  1  0
 35 32  1  6
 32 40  1  0
 41 42  1  0
 41 43  1  0
 15 19  2  0
 16 22  2  0
 12 17  1  1
 17 19  1  0
 17 20  1  0
 18 19  1  0
 18 22  1  0
 18 23  1  0
  9 10  1  0
  9 11  1  0
 10 12  1  0
 11  5  1  1
 33 34  1  0
 33 35  1  0
 34 36  1  0
 35 37  1  0
 36 42  1  1
 20 21  2  0
 21 22  1  0
M  CHG  2   2  -1  26  -1
M  END
>  <COMPND>  (61) 
    8629 

>  <AUTHOR>  (61) 
    GENERATED BY OPEN BABEL 3.1.1

>  <MASTER>  (61) 
        0    0    0    0    0    0    0    0   58    0   58    0

>  <minimizedAffinity>  (61) 
-7.58595

>  <CNNscore>  (61) 
0.8185354471

>  <CNNaffinity>  (61) 
4.6474566460

>  <CNN_VS>  (61) 
3.8041079044

>  <CNNaffinity_variance>  (61) 
0.0827599913

$$$$
62
     RDKit          3D

 43 45  0  0  0  0  0  0  0  0999 V2000
   23.2495   73.3821   -3.5227 P   0  0  2  0  0  0  0  0  0  0  0  0
   23.7408   74.9179   -3.6549 O   0  0  0  0  0  0  0  0  0  0  0  0
   24.2228   72.3594   -4.0306 O   0  0  0  0  0  0  0  0  0  0  0  0
   21.7936   73.3780   -4.2287 O   0  0  0  0  0  0  0  0  0  0  0  0
   21.4622   72.3016   -5.0885 C   0  0  0  0  0  0  0  0  0  0  0  0
   20.9266   71.7826   -7.3727 O   0  0  0  0  0  0  0  0  0  0  0  0
   21.3921   74.6887   -7.9460 O   0  0  0  0  0  0  0  0  0  0  0  0
   18.6716   74.5318   -7.8421 O   0  0  0  0  0  0  0  0  0  0  0  0
   20.8171   74.0776   -6.7923 C   0  0  1  0  0  0  0  0  0  0  0  0
   19.4168   73.5888   -7.0989 C   0  0  2  0  0  0  0  0  0  0  0  0
   21.5598   72.7728   -6.5330 C   0  0  1  0  0  0  0  0  0  0  0  0
   19.6917   72.3147   -7.8795 C   0  0  2  0  0  0  0  0  0  0  0  0
   20.9343   75.5242   -8.1312 H   0  0  0  0  0  0  0  0  0  0  0  0
   18.5228   75.3240   -7.3027 H   0  0  0  0  0  0  0  0  0  0  0  0
   18.7005   70.6658   -9.9474 O   0  0  0  0  0  0  0  0  0  0  0  0
   15.7190   68.5895   -7.1116 O   0  0  0  0  0  0  0  0  0  0  0  0
   18.6568   71.3342   -7.7094 N   0  0  0  0  0  0  0  0  0  0  0  0
   17.2169   69.6332   -8.5337 N   0  0  0  0  0  0  0  0  0  0  0  0
   18.2307   70.5586   -8.8127 C   0  0  0  0  0  0  0  0  0  0  0  0
   18.0760   71.1493   -6.4595 C   0  0  0  0  0  0  0  0  0  0  0  0
   17.1094   70.2635   -6.2103 C   0  0  0  0  0  0  0  0  0  0  0  0
   16.6070   69.4132   -7.3088 C   0  0  0  0  0  0  0  0  0  0  0  0
   16.9037   69.0819   -9.2872 H   0  0  0  0  0  0  0  0  0  0  0  0
   22.8920   73.2488   -1.9520 O   0  0  0  0  0  0  0  0  0  0  0  0
   21.7095   73.9129   -1.0723 P   0  0  2  0  0  0  0  0  0  0  0  0
   20.5394   72.7966   -1.1207 O   0  0  0  0  0  0  0  0  0  0  0  0
   21.2855   75.2751   -1.5398 O   0  0  0  0  0  0  0  0  0  0  0  0
   22.2546   73.8665    0.4461 O   0  0  0  0  0  0  0  0  0  0  0  0
   22.3047   71.9174    1.7933 O   0  0  0  0  0  0  0  0  0  0  0  0
   21.9696   74.7649    4.7649 O   0  0  0  0  0  0  0  0  0  0  0  0
   24.4654   73.3946    4.3892 O   0  0  0  0  0  0  0  0  0  0  0  0
   20.5208   75.0932    2.2804 O   0  0  0  0  0  0  0  0  0  0  0  0
   22.4067   74.2367    3.5098 C   0  0  1  0  0  0  0  0  0  0  0  0
   23.2434   72.9850    3.7815 C   0  0  1  0  0  0  0  0  0  0  0  0
   21.1847   73.8926    2.6602 C   0  0  2  0  0  0  0  0  0  0  0  0
   23.5237   72.2138    2.4846 C   0  0  1  0  0  0  0  0  0  0  0  0
   21.5686   73.0838    1.4199 C   0  0  1  0  0  0  0  0  0  0  0  0
   22.7407   74.9859    5.3090 H   0  0  0  0  0  0  0  0  0  0  0  0
   24.2743   73.8808    5.2067 H   0  0  0  0  0  0  0  0  0  0  0  0
   20.2827   75.5960    3.0743 H   0  0  0  0  0  0  0  0  0  0  0  0
   24.3183   70.6971    4.1512 O   0  0  0  0  0  0  0  0  0  0  0  0
   24.2209   70.8814    2.7509 C   0  0  0  0  0  0  0  0  0  0  0  0
   24.7598   69.8528    4.3356 H   0  0  0  0  0  0  0  0  0  0  0  0
 25 28  1  0
 25 24  1  0
 25 26  1  1
 25 27  2  0
  1  4  1  0
  1 24  1  0
  1  2  1  1
  1  3  2  0
  6 11  1  0
  6 12  1  0
 29 36  1  0
 29 37  1  0
  9  7  1  6
  7 13  1  0
 10  8  1  6
  8 14  1  0
 37 28  1  6
  4  5  1  0
 33 30  1  1
 30 38  1  0
 34 31  1  6
 31 39  1  0
 35 32  1  6
 32 40  1  0
 41 42  1  0
 41 43  1  0
 15 19  2  0
 16 22  2  0
 12 17  1  1
 17 19  1  0
 17 20  1  0
 18 19  1  0
 18 22  1  0
 18 23  1  0
  9 10  1  0
  9 11  1  0
 10 12  1  0
 11  5  1  1
 33 34  1  0
 33 35  1  0
 34 36  1  0
 35 37  1  0
 36 42  1  1
 20 21  2  0
 21 22  1  0
M  CHG  2   2  -1  26  -1
M  END
>  <COMPND>  (62) 
    8629 

>  <AUTHOR>  (62) 
    GENERATED BY OPEN BABEL 3.1.1

>  <MASTER>  (62) 
        0    0    0    0    0    0    0    0   58    0   58    0

>  <minimizedAffinity>  (62) 
-6.30260

>  <CNNscore>  (62) 
0.8114756346

>  <CNNaffinity>  (62) 
4.3728289604

>  <CNN_VS>  (62) 
3.5484442711

>  <CNNaffinity_variance>  (62) 
0.0502261408

$$$$
63
     RDKit          3D

 43 45  0  0  0  0  0  0  0  0999 V2000
   23.0326   73.3329   -3.3211 P   0  0  2  0  0  0  0  0  0  0  0  0
   23.1836   74.8968   -2.9351 O   0  0  0  0  0  0  0  0  0  0  0  0
   24.1198   72.7894   -4.2009 O   0  0  0  0  0  0  0  0  0  0  0  0
   21.5300   73.2218   -3.9109 O   0  0  0  0  0  0  0  0  0  0  0  0
   21.2328   72.1676   -4.8099 C   0  0  0  0  0  0  0  0  0  0  0  0
   20.8623   71.6988   -7.1372 O   0  0  0  0  0  0  0  0  0  0  0  0
   21.5019   74.5868   -7.6283 O   0  0  0  0  0  0  0  0  0  0  0  0
   18.7777   74.5529   -7.7468 O   0  0  0  0  0  0  0  0  0  0  0  0
   20.8082   73.9898   -6.5339 C   0  0  1  0  0  0  0  0  0  0  0  0
   19.4172   73.5688   -6.9598 C   0  0  2  0  0  0  0  0  0  0  0  0
   21.4685   72.6497   -6.2347 C   0  0  1  0  0  0  0  0  0  0  0  0
   19.6976   72.2922   -7.7342 C   0  0  2  0  0  0  0  0  0  0  0  0
   21.0984   75.4443   -7.8376 H   0  0  0  0  0  0  0  0  0  0  0  0
   18.6210   75.3451   -7.2097 H   0  0  0  0  0  0  0  0  0  0  0  0
   18.7693   70.7540   -9.9137 O   0  0  0  0  0  0  0  0  0  0  0  0
   15.5155   68.7416   -7.3438 O   0  0  0  0  0  0  0  0  0  0  0  0
   18.6097   71.3580   -7.6627 N   0  0  0  0  0  0  0  0  0  0  0  0
   17.1500   69.7531   -8.6322 N   0  0  0  0  0  0  0  0  0  0  0  0
   18.2216   70.6364   -8.8156 C   0  0  0  0  0  0  0  0  0  0  0  0
   17.9401   71.1649   -6.4593 C   0  0  0  0  0  0  0  0  0  0  0  0
   16.9193   70.3197   -6.3014 C   0  0  0  0  0  0  0  0  0  0  0  0
   16.4515   69.5270   -7.4568 C   0  0  0  0  0  0  0  0  0  0  0  0
   16.8619   69.2398   -9.4217 H   0  0  0  0  0  0  0  0  0  0  0  0
   22.9110   72.6127   -1.8791 O   0  0  0  0  0  0  0  0  0  0  0  0
   21.9426   72.9138   -0.6204 P   0  0  2  0  0  0  0  0  0  0  0  0
   21.0911   71.5462   -0.4717 O   0  0  0  0  0  0  0  0  0  0  0  0
   21.1057   74.1512   -0.7701 O   0  0  0  0  0  0  0  0  0  0  0  0
   22.9265   72.9226    0.6591 O   0  0  0  0  0  0  0  0  0  0  0  0
   25.2806   72.6515    0.6932 O   0  0  0  0  0  0  0  0  0  0  0  0
   24.3571   70.8534    4.2939 O   0  0  0  0  0  0  0  0  0  0  0  0
   25.6266   73.4295    4.2798 O   0  0  0  0  0  0  0  0  0  0  0  0
   22.6227   70.4798    2.0066 O   0  0  0  0  0  0  0  0  0  0  0  0
   24.2106   71.8074    3.2385 C   0  0  1  0  0  0  0  0  0  0  0  0
   25.5134   72.6017    3.1257 C   0  0  1  0  0  0  0  0  0  0  0  0
   23.9171   71.0679    1.9345 C   0  0  2  0  0  0  0  0  0  0  0  0
   25.5326   73.4562    1.8511 C   0  0  1  0  0  0  0  0  0  0  0  0
   24.0098   71.9988    0.7241 C   0  0  1  0  0  0  0  0  0  0  0  0
   24.5432   71.3165    5.1248 H   0  0  0  0  0  0  0  0  0  0  0  0
   25.6127   72.8777    5.0777 H   0  0  0  0  0  0  0  0  0  0  0  0
   22.5770   69.8926    2.7766 H   0  0  0  0  0  0  0  0  0  0  0  0
   27.3793   73.7588    0.3655 O   0  0  0  0  0  0  0  0  0  0  0  0
   26.8841   74.1343    1.6376 C   0  0  0  0  0  0  0  0  0  0  0  0
   28.2390   74.1833    0.2157 H   0  0  0  0  0  0  0  0  0  0  0  0
 25 28  1  0
 25 24  1  0
 25 26  1  1
 25 27  2  0
  1  4  1  0
  1 24  1  0
  1  2  1  1
  1  3  2  0
  6 11  1  0
  6 12  1  0
 29 36  1  0
 29 37  1  0
  9  7  1  6
  7 13  1  0
 10  8  1  6
  8 14  1  0
 37 28  1  1
  4  5  1  0
 33 30  1  1
 30 38  1  0
 34 31  1  1
 31 39  1  0
 35 32  1  1
 32 40  1  0
 41 42  1  0
 41 43  1  0
 15 19  2  0
 16 22  2  0
 12 17  1  1
 17 19  1  0
 17 20  1  0
 18 19  1  0
 18 22  1  0
 18 23  1  0
  9 10  1  0
  9 11  1  0
 10 12  1  0
 11  5  1  1
 33 34  1  0
 33 35  1  0
 34 36  1  0
 35 37  1  0
 36 42  1  6
 20 21  2  0
 21 22  1  0
M  CHG  2   2  -1  26  -1
M  END
>  <COMPND>  (63) 
    8629 

>  <AUTHOR>  (63) 
    GENERATED BY OPEN BABEL 3.1.1

>  <MASTER>  (63) 
        0    0    0    0    0    0    0    0   58    0   58    0

>  <minimizedAffinity>  (63) 
-6.99491

>  <CNNscore>  (63) 
0.7762712836

>  <CNNaffinity>  (63) 
4.4831709862

>  <CNN_VS>  (63) 
3.4801568985

>  <CNNaffinity_variance>  (63) 
0.0629687980

$$$$
64
     RDKit          3D

 43 45  0  0  0  0  0  0  0  0999 V2000
   23.9310   71.9148   -2.4877 P   0  0  2  0  0  0  0  0  0  0  0  0
   23.7735   73.4341   -3.0211 O   0  0  0  0  0  0  0  0  0  0  0  0
   25.1739   71.2087   -2.9436 O   0  0  0  0  0  0  0  0  0  0  0  0
   22.5328   71.2119   -2.8987 O   0  0  0  0  0  0  0  0  0  0  0  0
   21.8714   71.6564   -4.0705 C   0  0  0  0  0  0  0  0  0  0  0  0
   19.9157   72.7943   -4.8792 O   0  0  0  0  0  0  0  0  0  0  0  0
   18.6252   72.0275   -2.2836 O   0  0  0  0  0  0  0  0  0  0  0  0
   17.6073   70.1875   -4.0198 O   0  0  0  0  0  0  0  0  0  0  0  0
   19.5562   71.2956   -3.0791 C   0  0  1  0  0  0  0  0  0  0  0  0
   18.8733   70.7427   -4.3126 C   0  0  2  0  0  0  0  0  0  0  0  0
   20.5427   72.2891   -3.6801 C   0  0  1  0  0  0  0  0  0  0  0  0
   18.7813   71.9726   -5.1998 C   0  0  2  0  0  0  0  0  0  0  0  0
   17.9850   71.4141   -1.8888 H   0  0  0  0  0  0  0  0  0  0  0  0
   17.7190   69.4082   -3.4533 H   0  0  0  0  0  0  0  0  0  0  0  0
   16.5129   71.3376   -6.7584 O   0  0  0  0  0  0  0  0  0  0  0  0
   19.0616   70.7283  -10.5498 O   0  0  0  0  0  0  0  0  0  0  0  0
   18.8231   71.6444   -6.5969 N   0  0  0  0  0  0  0  0  0  0  0  0
   17.7838   71.0349   -8.6450 N   0  0  0  0  0  0  0  0  0  0  0  0
   17.6266   71.3400   -7.2870 C   0  0  0  0  0  0  0  0  0  0  0  0
   20.0407   71.6271   -7.2685 C   0  0  0  0  0  0  0  0  0  0  0  0
   20.1737   71.3329   -8.5635 C   0  0  0  0  0  0  0  0  0  0  0  0
   18.9723   71.0032   -9.3572 C   0  0  0  0  0  0  0  0  0  0  0  0
   16.9639   70.8192   -9.1460 H   0  0  0  0  0  0  0  0  0  0  0  0
   23.7988   72.0768   -0.8848 O   0  0  0  0  0  0  0  0  0  0  0  0
   22.5155   72.3838    0.0488 P   0  0  2  0  0  0  0  0  0  0  0  0
   21.8727   70.9187    0.2895 O   0  0  0  0  0  0  0  0  0  0  0  0
   21.5626   73.3911   -0.5268 O   0  0  0  0  0  0  0  0  0  0  0  0
   23.1399   72.7950    1.4792 O   0  0  0  0  0  0  0  0  0  0  0  0
   25.1270   71.7115    2.1822 O   0  0  0  0  0  0  0  0  0  0  0  0
   23.8251   73.1357    5.8329 O   0  0  0  0  0  0  0  0  0  0  0  0
   26.0927   74.3562    4.5616 O   0  0  0  0  0  0  0  0  0  0  0  0
   21.9106   72.1249    3.9112 O   0  0  0  0  0  0  0  0  0  0  0  0
   24.0219   73.1681    4.4167 C   0  0  1  0  0  0  0  0  0  0  0  0
   25.5259   73.1187    4.1403 C   0  0  1  0  0  0  0  0  0  0  0  0
   23.3199   71.9662    3.7875 C   0  0  2  0  0  0  0  0  0  0  0  0
   25.8079   72.8814    2.6506 C   0  0  1  0  0  0  0  0  0  0  0  0
   23.7068   71.7917    2.3178 C   0  0  1  0  0  0  0  0  0  0  0  0
   24.2680   73.8965    6.2385 H   0  0  0  0  0  0  0  0  0  0  0  0
   25.9071   74.4942    5.5038 H   0  0  0  0  0  0  0  0  0  0  0  0
   21.6785   72.2341    4.8462 H   0  0  0  0  0  0  0  0  0  0  0  0
   27.9257   72.2898    3.5853 O   0  0  0  0  0  0  0  0  0  0  0  0
   27.2955   72.6716    2.3765 C   0  0  0  0  0  0  0  0  0  0  0  0
   28.8731   72.1525    3.4260 H   0  0  0  0  0  0  0  0  0  0  0  0
 25 28  1  0
 25 24  1  0
 25 26  1  1
 25 27  2  0
  1  4  1  0
  1 24  1  0
  1  2  1  6
  1  3  2  0
  6 11  1  0
  6 12  1  0
 29 36  1  0
 29 37  1  0
  9  7  1  1
  7 13  1  0
 10  8  1  1
  8 14  1  0
 37 28  1  6
  4  5  1  0
 33 30  1  1
 30 38  1  0
 34 31  1  6
 31 39  1  0
 35 32  1  6
 32 40  1  0
 41 42  1  0
 41 43  1  0
 15 19  2  0
 16 22  2  0
 12 17  1  6
 17 19  1  0
 17 20  1  0
 18 19  1  0
 18 22  1  0
 18 23  1  0
  9 10  1  0
  9 11  1  0
 10 12  1  0
 11  5  1  6
 33 34  1  0
 33 35  1  0
 34 36  1  0
 35 37  1  0
 36 42  1  1
 20 21  2  0
 21 22  1  0
M  CHG  2   2  -1  26  -1
M  END
>  <COMPND>  (64) 
    8629 

>  <AUTHOR>  (64) 
    GENERATED BY OPEN BABEL 3.1.1

>  <MASTER>  (64) 
        0    0    0    0    0    0    0    0   58    0   58    0

>  <minimizedAffinity>  (64) 
-6.63611

>  <CNNscore>  (64) 
0.7371977568

>  <CNNaffinity>  (64) 
4.3697052002

>  <CNN_VS>  (64) 
3.2213368416

>  <CNNaffinity_variance>  (64) 
0.0645271316

$$$$
65
     RDKit          3D

 43 45  0  0  0  0  0  0  0  0999 V2000
   23.0224   71.9667   -3.3109 P   0  0  2  0  0  0  0  0  0  0  0  0
   23.9790   72.7260   -4.3719 O   0  0  0  0  0  0  0  0  0  0  0  0
   23.5335   70.6391   -2.8338 O   0  0  0  0  0  0  0  0  0  0  0  0
   21.5773   71.9431   -4.0384 O   0  0  0  0  0  0  0  0  0  0  0  0
   20.5791   71.0748   -3.5310 C   0  0  0  0  0  0  0  0  0  0  0  0
   19.0344   72.4775   -4.7227 O   0  0  0  0  0  0  0  0  0  0  0  0
   17.0169   71.7021   -2.6444 O   0  0  0  0  0  0  0  0  0  0  0  0
   16.3465   70.1032   -4.7493 O   0  0  0  0  0  0  0  0  0  0  0  0
   18.0578   70.9198   -3.2275 C   0  0  1  0  0  0  0  0  0  0  0  0
   17.6902   70.5272   -4.6432 C   0  0  2  0  0  0  0  0  0  0  0  0
   19.2592   71.8296   -3.4515 C   0  0  1  0  0  0  0  0  0  0  0  0
   17.9597   71.8127   -5.4068 C   0  0  2  0  0  0  0  0  0  0  0  0
   16.2389   71.1424   -2.4916 H   0  0  0  0  0  0  0  0  0  0  0  0
   16.2257   69.2822   -4.2470 H   0  0  0  0  0  0  0  0  0  0  0  0
   16.2561   72.1233   -7.6382 O   0  0  0  0  0  0  0  0  0  0  0  0
   19.5713   70.8525  -10.5768 O   0  0  0  0  0  0  0  0  0  0  0  0
   18.3517   71.5702   -6.7665 N   0  0  0  0  0  0  0  0  0  0  0  0
   17.9083   71.4904   -9.0996 N   0  0  0  0  0  0  0  0  0  0  0  0
   17.4194   71.7550   -7.8139 C   0  0  0  0  0  0  0  0  0  0  0  0
   19.6479   71.1543   -7.0503 C   0  0  0  0  0  0  0  0  0  0  0  0
   20.0981   70.9050   -8.2818 C   0  0  0  0  0  0  0  0  0  0  0  0
   19.1875   71.0738   -9.4325 C   0  0  0  0  0  0  0  0  0  0  0  0
   17.2764   71.6120   -9.8451 H   0  0  0  0  0  0  0  0  0  0  0  0
   22.8245   73.0695   -2.1457 O   0  0  0  0  0  0  0  0  0  0  0  0
   22.4235   72.9080   -0.5881 P   0  0  2  0  0  0  0  0  0  0  0  0
   22.7515   71.3540   -0.2798 O   0  0  0  0  0  0  0  0  0  0  0  0
   21.0151   73.3186   -0.2696 O   0  0  0  0  0  0  0  0  0  0  0  0
   23.5576   73.7307    0.2131 O   0  0  0  0  0  0  0  0  0  0  0  0
   23.0433   73.0353    2.4196 O   0  0  0  0  0  0  0  0  0  0  0  0
   26.6346   74.9387    3.1478 O   0  0  0  0  0  0  0  0  0  0  0  0
   26.5029   72.0717    3.2513 O   0  0  0  0  0  0  0  0  0  0  0  0
   24.7770   76.0471    1.2243 O   0  0  0  0  0  0  0  0  0  0  0  0
   25.7036   74.1569    2.3946 C   0  0  1  0  0  0  0  0  0  0  0  0
   25.3525   72.9114    3.2108 C   0  0  1  0  0  0  0  0  0  0  0  0
   24.4539   74.9925    2.1242 C   0  0  2  0  0  0  0  0  0  0  0  0
   24.1647   72.1611    2.5933 C   0  0  1  0  0  0  0  0  0  0  0  0
   23.3169   74.1409    1.5566 C   0  0  1  0  0  0  0  0  0  0  0  0
   27.4307   74.4141    3.3225 H   0  0  0  0  0  0  0  0  0  0  0  0
   27.2458   72.5575    3.6428 H   0  0  0  0  0  0  0  0  0  0  0  0
   25.4977   76.5790    1.5951 H   0  0  0  0  0  0  0  0  0  0  0  0
   22.9435   70.1093    2.6799 O   0  0  0  0  0  0  0  0  0  0  0  0
   23.6970   71.0056    3.4755 C   0  0  0  0  0  0  0  0  0  0  0  0
   22.6395   69.3685    3.2281 H   0  0  0  0  0  0  0  0  0  0  0  0
 25 28  1  0
 25 24  1  0
 25 26  1  1
 25 27  2  0
  1  4  1  0
  1 24  1  0
  1  2  1  6
  1  3  2  0
  6 11  1  0
  6 12  1  0
 29 36  1  0
 29 37  1  0
  9  7  1  6
  7 13  1  0
 10  8  1  1
  8 14  1  0
 37 28  1  6
  4  5  1  0
 33 30  1  1
 30 38  1  0
 34 31  1  6
 31 39  1  0
 35 32  1  6
 32 40  1  0
 41 42  1  0
 41 43  1  0
 15 19  2  0
 16 22  2  0
 12 17  1  6
 17 19  1  0
 17 20  1  0
 18 19  1  0
 18 22  1  0
 18 23  1  0
  9 10  1  0
  9 11  1  0
 10 12  1  0
 11  5  1  6
 33 34  1  0
 33 35  1  0
 34 36  1  0
 35 37  1  0
 36 42  1  1
 20 21  2  0
 21 22  1  0
M  CHG  2   2  -1  26  -1
M  END
>  <COMPND>  (65) 
    8629 

>  <AUTHOR>  (65) 
    GENERATED BY OPEN BABEL 3.1.1

>  <MASTER>  (65) 
        0    0    0    0    0    0    0    0   58    0   58    0

>  <minimizedAffinity>  (65) 
-6.73919

>  <CNNscore>  (65) 
0.7123072147

>  <CNNaffinity>  (65) 
4.4535899162

>  <CNN_VS>  (65) 
3.1723241806

>  <CNNaffinity_variance>  (65) 
0.0739912838

$$$$
66
     RDKit          3D

 43 45  0  0  0  0  0  0  0  0999 V2000
   23.0304   73.8070   -3.5207 P   0  0  2  0  0  0  0  0  0  0  0  0
   23.3161   75.3783   -3.2623 O   0  0  0  0  0  0  0  0  0  0  0  0
   23.9967   73.1314   -4.4487 O   0  0  0  0  0  0  0  0  0  0  0  0
   21.4768   73.7636   -3.9707 O   0  0  0  0  0  0  0  0  0  0  0  0
   20.7894   72.5262   -3.9090 C   0  0  0  0  0  0  0  0  0  0  0  0
   18.7727   73.1089   -5.0782 O   0  0  0  0  0  0  0  0  0  0  0  0
   17.3034   72.0543   -2.6865 O   0  0  0  0  0  0  0  0  0  0  0  0
   17.0957   69.9983   -4.4659 O   0  0  0  0  0  0  0  0  0  0  0  0
   18.5104   71.5834   -3.2838 C   0  0  1  0  0  0  0  0  0  0  0  0
   18.2086   70.8615   -4.5805 C   0  0  2  0  0  0  0  0  0  0  0  0
   19.2971   72.7944   -3.7696 C   0  0  1  0  0  0  0  0  0  0  0  0
   17.9562   72.0176   -5.5333 C   0  0  2  0  0  0  0  0  0  0  0  0
   16.7842   71.2987   -2.3682 H   0  0  0  0  0  0  0  0  0  0  0  0
   17.3059   69.2797   -3.8492 H   0  0  0  0  0  0  0  0  0  0  0  0
   16.2788   72.4328   -7.7676 O   0  0  0  0  0  0  0  0  0  0  0  0
   19.4358   70.7600  -10.6791 O   0  0  0  0  0  0  0  0  0  0  0  0
   18.3146   71.6999   -6.8869 N   0  0  0  0  0  0  0  0  0  0  0  0
   17.8522   71.5997   -9.2155 N   0  0  0  0  0  0  0  0  0  0  0  0
   17.3991   71.9468   -7.9363 C   0  0  0  0  0  0  0  0  0  0  0  0
   19.5619   71.1504   -7.1627 C   0  0  0  0  0  0  0  0  0  0  0  0
   19.9783   70.8238   -8.3879 C   0  0  0  0  0  0  0  0  0  0  0  0
   19.0822   71.0498   -9.5403 C   0  0  0  0  0  0  0  0  0  0  0  0
   17.2311   71.7624   -9.9622 H   0  0  0  0  0  0  0  0  0  0  0  0
   22.9928   73.1938   -2.0255 O   0  0  0  0  0  0  0  0  0  0  0  0
   23.5980   71.8200   -1.4261 P   0  0  2  0  0  0  0  0  0  0  0  0
   25.1710   72.1540   -1.2480 O   0  0  0  0  0  0  0  0  0  0  0  0
   23.3136   70.6059   -2.2622 O   0  0  0  0  0  0  0  0  0  0  0  0
   23.0243   71.7439    0.0805 O   0  0  0  0  0  0  0  0  0  0  0  0
   24.1046   73.4814    1.2766 O   0  0  0  0  0  0  0  0  0  0  0  0
   21.8258   71.8945    4.3327 O   0  0  0  0  0  0  0  0  0  0  0  0
   21.1098   74.4358    3.2025 O   0  0  0  0  0  0  0  0  0  0  0  0
   23.0493   70.1395    2.3827 O   0  0  0  0  0  0  0  0  0  0  0  0
   22.1134   72.2757    2.9846 C   0  0  1  0  0  0  0  0  0  0  0  0
   22.3535   73.7864    2.9542 C   0  0  1  0  0  0  0  0  0  0  0  0
   23.3549   71.5242    2.5075 C   0  0  2  0  0  0  0  0  0  0  0  0
   22.9267   74.2290    1.6012 C   0  0  1  0  0  0  0  0  0  0  0  0
   23.8720   72.0750    1.1773 C   0  0  1  0  0  0  0  0  0  0  0  0
   21.0383   72.3678    4.6416 H   0  0  0  0  0  0  0  0  0  0  0  0
   20.7584   74.1472    4.0595 H   0  0  0  0  0  0  0  0  0  0  0  0
   22.7233   69.8027    3.2314 H   0  0  0  0  0  0  0  0  0  0  0  0
   23.4009   76.1492    0.2606 O   0  0  0  0  0  0  0  0  0  0  0  0
   23.3210   75.7044    1.6023 C   0  0  0  0  0  0  0  0  0  0  0  0
   23.6507   77.0868    0.2457 H   0  0  0  0  0  0  0  0  0  0  0  0
 25 28  1  0
 25 24  1  0
 25 26  1  1
 25 27  2  0
  1  4  1  0
  1 24  1  0
  1  2  1  1
  1  3  2  0
  6 11  1  0
  6 12  1  0
 29 36  1  0
 29 37  1  0
  9  7  1  6
  7 13  1  0
 10  8  1  1
  8 14  1  0
 37 28  1  6
  4  5  1  0
 33 30  1  1
 30 38  1  0
 34 31  1  6
 31 39  1  0
 35 32  1  6
 32 40  1  0
 41 42  1  0
 41 43  1  0
 15 19  2  0
 16 22  2  0
 12 17  1  6
 17 19  1  0
 17 20  1  0
 18 19  1  0
 18 22  1  0
 18 23  1  0
  9 10  1  0
  9 11  1  0
 10 12  1  0
 11  5  1  6
 33 34  1  0
 33 35  1  0
 34 36  1  0
 35 37  1  0
 36 42  1  1
 20 21  2  0
 21 22  1  0
M  CHG  2   2  -1  26  -1
M  END
>  <COMPND>  (66) 
    8629 

>  <AUTHOR>  (66) 
    GENERATED BY OPEN BABEL 3.1.1

>  <MASTER>  (66) 
        0    0    0    0    0    0    0    0   58    0   58    0

>  <minimizedAffinity>  (66) 
-6.89868

>  <CNNscore>  (66) 
0.6413221359

>  <CNNaffinity>  (66) 
4.2589540482

>  <CNN_VS>  (66) 
2.7313613892

>  <CNNaffinity_variance>  (66) 
0.0362114683

$$$$
67
     RDKit          3D

 43 45  0  0  0  0  0  0  0  0999 V2000
   22.3835   71.4370   -2.0059 P   0  0  2  0  0  0  0  0  0  0  0  0
   21.4337   70.8350   -0.8428 O   0  0  0  0  0  0  0  0  0  0  0  0
   23.4506   70.5043   -2.4988 O   0  0  0  0  0  0  0  0  0  0  0  0
   22.9054   72.8407   -1.3935 O   0  0  0  0  0  0  0  0  0  0  0  0
   24.2860   73.1464   -1.4844 C   0  0  0  0  0  0  0  0  0  0  0  0
   26.2630   73.3153   -0.1292 O   0  0  0  0  0  0  0  0  0  0  0  0
   24.6498   72.0394    2.0526 O   0  0  0  0  0  0  0  0  0  0  0  0
   24.6071   74.6763    2.7463 O   0  0  0  0  0  0  0  0  0  0  0  0
   24.2385   72.9707    1.0533 C   0  0  1  0  0  0  0  0  0  0  0  0
   24.7591   74.3552    1.3787 C   0  0  2  0  0  0  0  0  0  0  0  0
   24.9890   72.6425   -0.2314 C   0  0  1  0  0  0  0  0  0  0  0  0
   26.2161   74.2501    0.9612 C   0  0  2  0  0  0  0  0  0  0  0  0
   24.1835   72.2288    2.8825 H   0  0  0  0  0  0  0  0  0  0  0  0
   23.6633   74.7317    2.9627 H   0  0  0  0  0  0  0  0  0  0  0  0
   28.8701   75.1018    1.4182 O   0  0  0  0  0  0  0  0  0  0  0  0
   28.1604   79.0940   -0.7726 O   0  0  0  0  0  0  0  0  0  0  0  0
   26.7517   75.5073    0.5209 N   0  0  0  0  0  0  0  0  0  0  0  0
   28.5146   77.0888    0.3269 N   0  0  0  0  0  0  0  0  0  0  0  0
   28.0974   75.8393    0.8029 C   0  0  0  0  0  0  0  0  0  0  0  0
   25.9456   76.3959   -0.1823 C   0  0  0  0  0  0  0  0  0  0  0  0
   26.3583   77.5842   -0.6282 C   0  0  0  0  0  0  0  0  0  0  0  0
   27.7508   78.0075   -0.3756 C   0  0  0  0  0  0  0  0  0  0  0  0
   29.4482   77.3416    0.5118 H   0  0  0  0  0  0  0  0  0  0  0  0
   21.3246   71.9042   -3.1344 O   0  0  0  0  0  0  0  0  0  0  0  0
   21.4243   73.0434   -4.2769 P   0  0  2  0  0  0  0  0  0  0  0  0
   22.8771   72.7794   -4.9382 O   0  0  0  0  0  0  0  0  0  0  0  0
   21.2190   74.4419   -3.7710 O   0  0  0  0  0  0  0  0  0  0  0  0
   20.3710   72.5801   -5.4086 O   0  0  0  0  0  0  0  0  0  0  0  0
   19.1270   70.5663   -5.5254 O   0  0  0  0  0  0  0  0  0  0  0  0
   19.7353   71.2009   -9.5600 O   0  0  0  0  0  0  0  0  0  0  0  0
   17.1238   71.6120   -8.4378 O   0  0  0  0  0  0  0  0  0  0  0  0
   21.8422   71.8058   -7.6694 O   0  0  0  0  0  0  0  0  0  0  0  0
   19.5037   71.5828   -8.2013 C   0  0  1  0  0  0  0  0  0  0  0  0
   18.1836   70.9577   -7.7458 C   0  0  1  0  0  0  0  0  0  0  0  0
   20.6610   71.0835   -7.3383 C   0  0  2  0  0  0  0  0  0  0  0  0
   17.9984   71.0983   -6.2289 C   0  0  1  0  0  0  0  0  0  0  0  0
   20.3544   71.2238   -5.8462 C   0  0  1  0  0  0  0  0  0  0  0  0
   19.0042   71.5153  -10.1134 H   0  0  0  0  0  0  0  0  0  0  0  0
   17.2530   71.5161   -9.3946 H   0  0  0  0  0  0  0  0  0  0  0  0
   22.0257   71.7088   -8.6164 H   0  0  0  0  0  0  0  0  0  0  0  0
   16.9734   69.9925   -4.3754 O   0  0  0  0  0  0  0  0  0  0  0  0
   16.7668   70.3452   -5.7309 C   0  0  0  0  0  0  0  0  0  0  0  0
   16.1973   69.5128   -4.0449 H   0  0  0  0  0  0  0  0  0  0  0  0
 25 28  1  0
 25 24  1  0
 25 26  1  6
 25 27  2  0
  1  4  1  0
  1 24  1  0
  1  2  1  1
  1  3  2  0
  6 11  1  0
  6 12  1  0
 29 36  1  0
 29 37  1  0
  9  7  1  1
  7 13  1  0
 10  8  1  1
  8 14  1  0
 37 28  1  6
  4  5  1  0
 33 30  1  6
 30 38  1  0
 34 31  1  6
 31 39  1  0
 35 32  1  6
 32 40  1  0
 41 42  1  0
 41 43  1  0
 15 19  2  0
 16 22  2  0
 12 17  1  6
 17 19  1  0
 17 20  1  0
 18 19  1  0
 18 22  1  0
 18 23  1  0
  9 10  1  0
  9 11  1  0
 10 12  1  0
 11  5  1  6
 33 34  1  0
 33 35  1  0
 34 36  1  0
 35 37  1  0
 36 42  1  1
 20 21  2  0
 21 22  1  0
M  CHG  2   2  -1  26  -1
M  END
>  <COMPND>  (67) 
    8629 

>  <AUTHOR>  (67) 
    GENERATED BY OPEN BABEL 3.1.1

>  <MASTER>  (67) 
        0    0    0    0    0    0    0    0   58    0   58    0

>  <minimizedAffinity>  (67) 
-5.93405

>  <CNNscore>  (67) 
0.6134864688

>  <CNNaffinity>  (67) 
4.1773099899

>  <CNN_VS>  (67) 
2.5627231598

>  <CNNaffinity_variance>  (67) 
0.0163744632

$$$$
68
     RDKit          3D

 43 45  0  0  0  0  0  0  0  0999 V2000
   19.5180   71.4570   -1.2590 P   0  0  2  0  0  0  0  0  0  0  0  0
   20.8117   70.4893   -1.1736 O   0  0  0  0  0  0  0  0  0  0  0  0
   19.5881   72.6859   -0.4009 O   0  0  0  0  0  0  0  0  0  0  0  0
   18.2722   70.4666   -0.9674 O   0  0  0  0  0  0  0  0  0  0  0  0
   16.9572   70.9791   -1.0936 C   0  0  0  0  0  0  0  0  0  0  0  0
   15.8352   68.9994   -1.8653 O   0  0  0  0  0  0  0  0  0  0  0  0
   14.7934   70.6915   -4.1108 O   0  0  0  0  0  0  0  0  0  0  0  0
   12.6626   70.5798   -2.4127 O   0  0  0  0  0  0  0  0  0  0  0  0
   15.0255   71.0441   -2.7481 C   0  0  1  0  0  0  0  0  0  0  0  0
   13.9559   70.4433   -1.8600 C   0  0  2  0  0  0  0  0  0  0  0  0
   16.2763   70.3108   -2.2801 C   0  0  1  0  0  0  0  0  0  0  0  0
   14.4017   68.9939   -1.7664 C   0  0  2  0  0  0  0  0  0  0  0  0
   13.9995   71.1481   -4.4321 H   0  0  0  0  0  0  0  0  0  0  0  0
   12.4248   71.5193   -2.4512 H   0  0  0  0  0  0  0  0  0  0  0  0
   11.8951   67.7857   -1.2813 O   0  0  0  0  0  0  0  0  0  0  0  0
   13.0567   66.6849    3.0408 O   0  0  0  0  0  0  0  0  0  0  0  0
   14.0224   68.3835   -0.5234 N   0  0  0  0  0  0  0  0  0  0  0  0
   12.4756   67.2384    0.8703 N   0  0  0  0  0  0  0  0  0  0  0  0
   12.7392   67.8056   -0.3830 C   0  0  0  0  0  0  0  0  0  0  0  0
   14.9185   68.3617    0.5398 C   0  0  0  0  0  0  0  0  0  0  0  0
   14.6513   67.8181    1.7290 C   0  0  0  0  0  0  0  0  0  0  0  0
   13.3327   67.1931    1.9585 C   0  0  0  0  0  0  0  0  0  0  0  0
   11.5876   66.8302    0.9914 H   0  0  0  0  0  0  0  0  0  0  0  0
   19.3867   71.7494   -2.8433 O   0  0  0  0  0  0  0  0  0  0  0  0
   18.8877   73.0628   -3.6427 P   0  0  2  0  0  0  0  0  0  0  0  0
   20.2386   73.9398   -3.7952 O   0  0  0  0  0  0  0  0  0  0  0  0
   17.7495   73.7880   -2.9850 O   0  0  0  0  0  0  0  0  0  0  0  0
   18.5723   72.5371   -5.1357 O   0  0  0  0  0  0  0  0  0  0  0  0
   18.2316   70.3948   -6.0903 O   0  0  0  0  0  0  0  0  0  0  0  0
   20.6416   72.0428   -9.0104 O   0  0  0  0  0  0  0  0  0  0  0  0
   17.8450   71.6519   -9.5340 O   0  0  0  0  0  0  0  0  0  0  0  0
   21.1595   72.6121   -6.2199 O   0  0  0  0  0  0  0  0  0  0  0  0
   19.6333   72.0497   -7.9962 C   0  0  1  0  0  0  0  0  0  0  0  0
   18.5234   71.0843   -8.4169 C   0  0  1  0  0  0  0  0  0  0  0  0
   20.2545   71.6105   -6.6717 C   0  0  2  0  0  0  0  0  0  0  0  0
   17.5404   70.8347   -7.2652 C   0  0  1  0  0  0  0  0  0  0  0  0
   19.1874   71.3417   -5.6090 C   0  0  1  0  0  0  0  0  0  0  0  0
   20.2538   72.3212   -9.8540 H   0  0  0  0  0  0  0  0  0  0  0  0
   18.4770   71.8050  -10.2540 H   0  0  0  0  0  0  0  0  0  0  0  0
   21.8302   72.7728   -6.9012 H   0  0  0  0  0  0  0  0  0  0  0  0
   15.5247   70.3272   -8.4435 O   0  0  0  0  0  0  0  0  0  0  0  0
   16.5167   69.7555   -7.6108 C   0  0  0  0  0  0  0  0  0  0  0  0
   14.8664   69.6517   -8.6718 H   0  0  0  0  0  0  0  0  0  0  0  0
 25 28  1  0
 25 24  1  0
 25 26  1  6
 25 27  2  0
  1  4  1  0
  1 24  1  0
  1  2  1  6
  1  3  2  0
  6 11  1  0
  6 12  1  0
 29 36  1  0
 29 37  1  0
  9  7  1  6
  7 13  1  0
 10  8  1  6
  8 14  1  0
 37 28  1  6
  4  5  1  0
 33 30  1  6
 30 38  1  0
 34 31  1  6
 31 39  1  0
 35 32  1  1
 32 40  1  0
 41 42  1  0
 41 43  1  0
 15 19  2  0
 16 22  2  0
 12 17  1  1
 17 19  1  0
 17 20  1  0
 18 19  1  0
 18 22  1  0
 18 23  1  0
  9 10  1  0
  9 11  1  0
 10 12  1  0
 11  5  1  1
 33 34  1  0
 33 35  1  0
 34 36  1  0
 35 37  1  0
 36 42  1  6
 20 21  2  0
 21 22  1  0
M  CHG  2   2  -1  26  -1
M  END
>  <COMPND>  (68) 
    8629 

>  <AUTHOR>  (68) 
    GENERATED BY OPEN BABEL 3.1.1

>  <MASTER>  (68) 
        0    0    0    0    0    0    0    0   58    0   58    0

>  <minimizedAffinity>  (68) 
-6.38229

>  <CNNscore>  (68) 
0.6036215425

>  <CNNaffinity>  (68) 
4.2212667465

>  <CNN_VS>  (68) 
2.5480475426

>  <CNNaffinity_variance>  (68) 
0.1125160605

$$$$
69
     RDKit          3D

 43 45  0  0  0  0  0  0  0  0999 V2000
   16.2756   73.3327   -1.8170 P   0  0  2  0  0  0  0  0  0  0  0  0
   17.7751   73.5335   -2.3903 O   0  0  0  0  0  0  0  0  0  0  0  0
   15.6441   74.5688   -1.2473 O   0  0  0  0  0  0  0  0  0  0  0  0
   16.4126   72.0813   -0.8006 O   0  0  0  0  0  0  0  0  0  0  0  0
   15.2744   71.2694   -0.5704 C   0  0  0  0  0  0  0  0  0  0  0  0
   15.5127   68.9082   -0.1941 O   0  0  0  0  0  0  0  0  0  0  0  0
   14.8813   68.5702   -3.1058 O   0  0  0  0  0  0  0  0  0  0  0  0
   12.5057   67.9700   -1.9089 O   0  0  0  0  0  0  0  0  0  0  0  0
   14.3620   69.5176   -2.1741 C   0  0  1  0  0  0  0  0  0  0  0  0
   13.3833   68.8471   -1.2327 C   0  0  2  0  0  0  0  0  0  0  0  0
   15.4903   69.9144   -1.2302 C   0  0  1  0  0  0  0  0  0  0  0  0
   14.3136   68.1207   -0.2761 C   0  0  2  0  0  0  0  0  0  0  0  0
   14.1789   68.3020   -3.7195 H   0  0  0  0  0  0  0  0  0  0  0  0
   11.9350   68.4795   -2.5050 H   0  0  0  0  0  0  0  0  0  0  0  0
   13.3635   65.6952    0.8158 O   0  0  0  0  0  0  0  0  0  0  0  0
   12.1792   67.7301    4.7778 O   0  0  0  0  0  0  0  0  0  0  0  0
   13.7522   67.9878    1.0387 N   0  0  0  0  0  0  0  0  0  0  0  0
   12.7748   66.7104    2.7877 N   0  0  0  0  0  0  0  0  0  0  0  0
   13.3037   66.7249    1.4908 C   0  0  0  0  0  0  0  0  0  0  0  0
   13.6512   69.1019    1.8649 C   0  0  0  0  0  0  0  0  0  0  0  0
   13.1431   69.0714    3.0987 C   0  0  0  0  0  0  0  0  0  0  0  0
   12.6519   67.7908    3.6469 C   0  0  0  0  0  0  0  0  0  0  0  0
   12.4556   65.8415    3.1238 H   0  0  0  0  0  0  0  0  0  0  0  0
   15.4878   72.6938   -3.0757 O   0  0  0  0  0  0  0  0  0  0  0  0
   14.8541   73.3842   -4.3928 P   0  0  2  0  0  0  0  0  0  0  0  0
   14.8643   74.9601   -4.0271 O   0  0  0  0  0  0  0  0  0  0  0  0
   13.5069   72.8473   -4.7812 O   0  0  0  0  0  0  0  0  0  0  0  0
   15.9912   73.2215   -5.5266 O   0  0  0  0  0  0  0  0  0  0  0  0
   16.6549   70.9885   -5.9625 O   0  0  0  0  0  0  0  0  0  0  0  0
   19.7397   72.9754   -7.8564 O   0  0  0  0  0  0  0  0  0  0  0  0
   17.7270   71.6581   -9.4254 O   0  0  0  0  0  0  0  0  0  0  0  0
   18.6843   73.9926   -5.3602 O   0  0  0  0  0  0  0  0  0  0  0  0
   18.3930   72.7760   -7.4185 C   0  0  1  0  0  0  0  0  0  0  0  0
   17.8814   71.4665   -8.0219 C   0  0  1  0  0  0  0  0  0  0  0  0
   18.3688   72.7106   -5.8926 C   0  0  2  0  0  0  0  0  0  0  0  0
   16.5468   71.0493   -7.3895 C   0  0  1  0  0  0  0  0  0  0  0  0
   17.0112   72.2385   -5.3689 C   0  0  1  0  0  0  0  0  0  0  0  0
   19.7620   73.0184   -8.8245 H   0  0  0  0  0  0  0  0  0  0  0  0
   18.5767   71.9216   -9.8123 H   0  0  0  0  0  0  0  0  0  0  0  0
   19.5460   74.2800   -5.6989 H   0  0  0  0  0  0  0  0  0  0  0  0
   15.2189   69.8333   -8.9602 O   0  0  0  0  0  0  0  0  0  0  0  0
   16.0969   69.6685   -7.8620 C   0  0  0  0  0  0  0  0  0  0  0  0
   14.9247   68.9626   -9.2717 H   0  0  0  0  0  0  0  0  0  0  0  0
 25 28  1  0
 25 24  1  0
 25 26  1  1
 25 27  2  0
  1  4  1  0
  1 24  1  0
  1  2  1  6
  1  3  2  0
  6 11  1  0
  6 12  1  0
 29 36  1  0
 29 37  1  0
  9  7  1  6
  7 13  1  0
 10  8  1  6
  8 14  1  0
 37 28  1  6
  4  5  1  0
 33 30  1  6
 30 38  1  0
 34 31  1  6
 31 39  1  0
 35 32  1  1
 32 40  1  0
 41 42  1  0
 41 43  1  0
 15 19  2  0
 16 22  2  0
 12 17  1  1
 17 19  1  0
 17 20  1  0
 18 19  1  0
 18 22  1  0
 18 23  1  0
  9 10  1  0
  9 11  1  0
 10 12  1  0
 11  5  1  1
 33 34  1  0
 33 35  1  0
 34 36  1  0
 35 37  1  0
 36 42  1  6
 20 21  2  0
 21 22  1  0
M  CHG  2   2  -1  26  -1
M  END
>  <COMPND>  (69) 
    8629 

>  <AUTHOR>  (69) 
    GENERATED BY OPEN BABEL 3.1.1

>  <MASTER>  (69) 
        0    0    0    0    0    0    0    0   58    0   58    0

>  <minimizedAffinity>  (69) 
-6.17947

>  <CNNscore>  (69) 
0.5139221549

>  <CNNaffinity>  (69) 
3.9055423737

>  <CNN_VS>  (69) 
2.0071446896

>  <CNNaffinity_variance>  (69) 
0.1735986918

$$$$
70
     RDKit          3D

 43 45  0  0  0  0  0  0  0  0999 V2000
   22.2571   72.6562   -4.0363 P   0  0  2  0  0  0  0  0  0  0  0  0
   23.7370   73.0208   -4.5790 O   0  0  0  0  0  0  0  0  0  0  0  0
   21.6731   71.3899   -4.5903 O   0  0  0  0  0  0  0  0  0  0  0  0
   21.4013   74.0022   -4.3078 O   0  0  0  0  0  0  0  0  0  0  0  0
   20.1406   73.8851   -4.9439 C   0  0  0  0  0  0  0  0  0  0  0  0
   20.0458   72.8749   -7.1221 O   0  0  0  0  0  0  0  0  0  0  0  0
   19.8957   75.6671   -8.2047 O   0  0  0  0  0  0  0  0  0  0  0  0
   17.2966   74.8485   -8.3094 O   0  0  0  0  0  0  0  0  0  0  0  0
   19.3313   75.1316   -7.0089 C   0  0  1  0  0  0  0  0  0  0  0  0
   18.1356   74.2614   -7.3357 C   0  0  2  0  0  0  0  0  0  0  0  0
   20.3156   74.1183   -6.4383 C   0  0  1  0  0  0  0  0  0  0  0  0
   18.7990   72.9863   -7.8277 C   0  0  2  0  0  0  0  0  0  0  0  0
   19.2851   76.3172   -8.5874 H   0  0  0  0  0  0  0  0  0  0  0  0
   16.8983   75.6560   -7.9487 H   0  0  0  0  0  0  0  0  0  0  0  0
   18.7331   70.6928   -9.4751 O   0  0  0  0  0  0  0  0  0  0  0  0
   15.7213   68.5676   -6.7086 O   0  0  0  0  0  0  0  0  0  0  0  0
   18.0067   71.8189   -7.5616 N   0  0  0  0  0  0  0  0  0  0  0  0
   17.2336   69.6364   -8.0961 N   0  0  0  0  0  0  0  0  0  0  0  0
   18.0446   70.7214   -8.4529 C   0  0  0  0  0  0  0  0  0  0  0  0
   17.2038   71.7701   -6.4272 C   0  0  0  0  0  0  0  0  0  0  0  0
   16.4353   70.7285   -6.1019 C   0  0  0  0  0  0  0  0  0  0  0  0
   16.4173   69.5410   -6.9802 C   0  0  0  0  0  0  0  0  0  0  0  0
   17.2436   68.8605   -8.7025 H   0  0  0  0  0  0  0  0  0  0  0  0
   22.4466   72.6637   -2.4310 O   0  0  0  0  0  0  0  0  0  0  0  0
   22.7461   71.4623   -1.3919 P   0  0  2  0  0  0  0  0  0  0  0  0
   23.5025   70.3617   -2.3052 O   0  0  0  0  0  0  0  0  0  0  0  0
   21.5290   70.9459   -0.6807 O   0  0  0  0  0  0  0  0  0  0  0  0
   23.8946   72.0420   -0.4173 O   0  0  0  0  0  0  0  0  0  0  0  0
   23.2390   72.6223    1.7850 O   0  0  0  0  0  0  0  0  0  0  0  0
   26.8274   74.6576    1.6071 O   0  0  0  0  0  0  0  0  0  0  0  0
   26.6215   72.2841    3.2109 O   0  0  0  0  0  0  0  0  0  0  0  0
   25.1095   74.5535   -0.7205 O   0  0  0  0  0  0  0  0  0  0  0  0
   25.9224   73.5854    1.3297 C   0  0  1  0  0  0  0  0  0  0  0  0
   25.4956   72.9618    2.6601 C   0  0  1  0  0  0  0  0  0  0  0  0
   24.7104   74.1363    0.5808 C   0  0  2  0  0  0  0  0  0  0  0  0
   24.3274   71.9860    2.4650 C   0  0  1  0  0  0  0  0  0  0  0  0
   23.5876   73.1018    0.4849 C   0  0  1  0  0  0  0  0  0  0  0  0
   27.5995   74.3144    2.0821 H   0  0  0  0  0  0  0  0  0  0  0  0
   27.3522   72.9113    3.3286 H   0  0  0  0  0  0  0  0  0  0  0  0
   25.8204   75.2084   -0.6461 H   0  0  0  0  0  0  0  0  0  0  0  0
   24.6279   70.4346    4.2570 O   0  0  0  0  0  0  0  0  0  0  0  0
   23.7827   71.4726    3.7961 C   0  0  0  0  0  0  0  0  0  0  0  0
   24.2936   70.0983    5.1037 H   0  0  0  0  0  0  0  0  0  0  0  0
 25 28  1  0
 25 24  1  0
 25 26  1  6
 25 27  2  0
  1  4  1  0
  1 24  1  0
  1  2  1  6
  1  3  2  0
  6 11  1  0
  6 12  1  0
 29 36  1  0
 29 37  1  0
  9  7  1  6
  7 13  1  0
 10  8  1  6
  8 14  1  0
 37 28  1  6
  4  5  1  0
 33 30  1  1
 30 38  1  0
 34 31  1  6
 31 39  1  0
 35 32  1  6
 32 40  1  0
 41 42  1  0
 41 43  1  0
 15 19  2  0
 16 22  2  0
 12 17  1  1
 17 19  1  0
 17 20  1  0
 18 19  1  0
 18 22  1  0
 18 23  1  0
  9 10  1  0
  9 11  1  0
 10 12  1  0
 11  5  1  1
 33 34  1  0
 33 35  1  0
 34 36  1  0
 35 37  1  0
 36 42  1  1
 20 21  2  0
 21 22  1  0
M  CHG  2   2  -1  26  -1
M  END
>  <COMPND>  (70) 
    8629 

>  <AUTHOR>  (70) 
    GENERATED BY OPEN BABEL 3.1.1

>  <MASTER>  (70) 
        0    0    0    0    0    0    0    0   58    0   58    0

>  <minimizedAffinity>  (70) 
-6.89204

>  <CNNscore>  (70) 
0.4647187293

>  <CNNaffinity>  (70) 
4.1674709320

>  <CNN_VS>  (70) 
1.9367017746

>  <CNNaffinity_variance>  (70) 
0.1487275362

$$$$
71
     RDKit          3D

 43 45  0  0  0  0  0  0  0  0999 V2000
   16.6962   73.1373   -1.6596 P   0  0  2  0  0  0  0  0  0  0  0  0
   18.2753   73.2439   -1.9950 O   0  0  0  0  0  0  0  0  0  0  0  0
   16.0815   74.3862   -1.0994 O   0  0  0  0  0  0  0  0  0  0  0  0
   16.5853   71.8201   -0.7266 O   0  0  0  0  0  0  0  0  0  0  0  0
   15.3409   71.1464   -0.6531 C   0  0  0  0  0  0  0  0  0  0  0  0
   15.4764   68.7820   -0.2470 O   0  0  0  0  0  0  0  0  0  0  0  0
   14.7755   68.4342   -3.1416 O   0  0  0  0  0  0  0  0  0  0  0  0
   12.3974   67.9619   -1.8933 O   0  0  0  0  0  0  0  0  0  0  0  0
   14.3183   69.4174   -2.2144 C   0  0  1  0  0  0  0  0  0  0  0  0
   13.3274   68.8062   -1.2459 C   0  0  2  0  0  0  0  0  0  0  0  0
   15.4813   69.7739   -1.2970 C   0  0  1  0  0  0  0  0  0  0  0  0
   14.2407   68.0503   -0.2958 C   0  0  2  0  0  0  0  0  0  0  0  0
   14.0500   68.1908   -3.7385 H   0  0  0  0  0  0  0  0  0  0  0  0
   11.8399   68.4893   -2.4863 H   0  0  0  0  0  0  0  0  0  0  0  0
   13.3192   65.6606    0.8950 O   0  0  0  0  0  0  0  0  0  0  0  0
   12.1795   67.8298    4.7985 O   0  0  0  0  0  0  0  0  0  0  0  0
   13.6985   67.9616    1.0307 N   0  0  0  0  0  0  0  0  0  0  0  0
   12.7526   66.7426    2.8377 N   0  0  0  0  0  0  0  0  0  0  0  0
   13.2632   66.7135    1.5337 C   0  0  0  0  0  0  0  0  0  0  0  0
   13.6031   69.1039    1.8180 C   0  0  0  0  0  0  0  0  0  0  0  0
   13.1125   69.1151    3.0592 C   0  0  0  0  0  0  0  0  0  0  0  0
   12.6359   67.8524    3.6596 C   0  0  0  0  0  0  0  0  0  0  0  0
   12.4429   65.8847    3.2090 H   0  0  0  0  0  0  0  0  0  0  0  0
   16.0594   72.6443   -3.0612 O   0  0  0  0  0  0  0  0  0  0  0  0
   16.2236   73.2203   -4.5627 P   0  0  2  0  0  0  0  0  0  0  0  0
   16.2052   74.8239   -4.3490 O   0  0  0  0  0  0  0  0  0  0  0  0
   15.1958   72.7129   -5.5322 O   0  0  0  0  0  0  0  0  0  0  0  0
   17.7490   72.8803   -4.9661 O   0  0  0  0  0  0  0  0  0  0  0  0
   18.8203   71.9383   -6.8585 O   0  0  0  0  0  0  0  0  0  0  0  0
   20.7999   69.8707   -3.8825 O   0  0  0  0  0  0  0  0  0  0  0  0
   22.1778   71.9285   -5.3367 O   0  0  0  0  0  0  0  0  0  0  0  0
   17.9722   70.4300   -3.6164 O   0  0  0  0  0  0  0  0  0  0  0  0
   20.1499   70.9989   -4.4741 C   0  0  1  0  0  0  0  0  0  0  0  0
   20.9211   71.3891   -5.7365 C   0  0  1  0  0  0  0  0  0  0  0  0
   18.7103   70.6216   -4.8185 C   0  0  2  0  0  0  0  0  0  0  0  0
   20.1395   72.4151   -6.5682 C   0  0  1  0  0  0  0  0  0  0  0  0
   18.0399   71.6866   -5.6883 C   0  0  1  0  0  0  0  0  0  0  0  0
   21.7143   70.1037   -3.6609 H   0  0  0  0  0  0  0  0  0  0  0  0
   22.6610   71.2710   -4.8120 H   0  0  0  0  0  0  0  0  0  0  0  0
   18.4065   69.7534   -3.0748 H   0  0  0  0  0  0  0  0  0  0  0  0
   20.8838   74.1027   -8.0870 O   0  0  0  0  0  0  0  0  0  0  0  0
   20.8157   72.7001   -7.9075 C   0  0  0  0  0  0  0  0  0  0  0  0
   21.3121   74.2990   -8.9354 H   0  0  0  0  0  0  0  0  0  0  0  0
 25 28  1  0
 25 24  1  0
 25 26  1  1
 25 27  2  0
  1  4  1  0
  1 24  1  0
  1  2  1  6
  1  3  2  0
  6 11  1  0
  6 12  1  0
 29 36  1  0
 29 37  1  0
  9  7  1  6
  7 13  1  0
 10  8  1  6
  8 14  1  0
 37 28  1  1
  4  5  1  0
 33 30  1  6
 30 38  1  0
 34 31  1  1
 31 39  1  0
 35 32  1  1
 32 40  1  0
 41 42  1  0
 41 43  1  0
 15 19  2  0
 16 22  2  0
 12 17  1  1
 17 19  1  0
 17 20  1  0
 18 19  1  0
 18 22  1  0
 18 23  1  0
  9 10  1  0
  9 11  1  0
 10 12  1  0
 11  5  1  1
 33 34  1  0
 33 35  1  0
 34 36  1  0
 35 37  1  0
 36 42  1  6
 20 21  2  0
 21 22  1  0
M  CHG  2   2  -1  26  -1
M  END
>  <COMPND>  (71) 
    8629 

>  <AUTHOR>  (71) 
    GENERATED BY OPEN BABEL 3.1.1

>  <MASTER>  (71) 
        0    0    0    0    0    0    0    0   58    0   58    0

>  <minimizedAffinity>  (71) 
-6.03809

>  <CNNscore>  (71) 
0.4533497393

>  <CNNaffinity>  (71) 
3.9146225452

>  <CNN_VS>  (71) 
1.7746931314

>  <CNNaffinity_variance>  (71) 
0.2138870060

$$$$
72
     RDKit          3D

 43 45  0  0  0  0  0  0  0  0999 V2000
   15.7288   73.5802   -3.3192 P   0  0  2  0  0  0  0  0  0  0  0  0
   16.8921   74.7045   -3.3096 O   0  0  0  0  0  0  0  0  0  0  0  0
   14.5131   73.9190   -2.5076 O   0  0  0  0  0  0  0  0  0  0  0  0
   16.4987   72.2210   -2.8976 O   0  0  0  0  0  0  0  0  0  0  0  0
   16.1951   71.6329   -1.6447 C   0  0  0  0  0  0  0  0  0  0  0  0
   15.7018   69.5526   -0.5480 O   0  0  0  0  0  0  0  0  0  0  0  0
   14.8841   68.5381   -3.2485 O   0  0  0  0  0  0  0  0  0  0  0  0
   12.4879   69.1000   -2.0741 O   0  0  0  0  0  0  0  0  0  0  0  0
   14.7217   69.8393   -2.6864 C   0  0  1  0  0  0  0  0  0  0  0  0
   13.6203   69.8293   -1.6470 C   0  0  2  0  0  0  0  0  0  0  0  0
   15.9532   70.1427   -1.8421 C   0  0  1  0  0  0  0  0  0  0  0  0
   14.3149   69.1872   -0.4581 C   0  0  2  0  0  0  0  0  0  0  0  0
   14.1098   68.3221   -3.7924 H   0  0  0  0  0  0  0  0  0  0  0  0
   12.0813   69.5485   -2.8319 H   0  0  0  0  0  0  0  0  0  0  0  0
   13.9590   67.5550    1.8194 O   0  0  0  0  0  0  0  0  0  0  0  0
   12.2974   71.0649    4.3014 O   0  0  0  0  0  0  0  0  0  0  0  0
   13.7915   69.6486    0.7967 N   0  0  0  0  0  0  0  0  0  0  0  0
   13.1321   69.3040    3.0535 N   0  0  0  0  0  0  0  0  0  0  0  0
   13.6519   68.7474    1.8779 C   0  0  0  0  0  0  0  0  0  0  0  0
   13.4234   70.9813    0.9461 C   0  0  0  0  0  0  0  0  0  0  0  0
   12.9280   71.4960    2.0734 C   0  0  0  0  0  0  0  0  0  0  0  0
   12.7503   70.6216    3.2506 C   0  0  0  0  0  0  0  0  0  0  0  0
   13.0255   68.6949    3.8199 H   0  0  0  0  0  0  0  0  0  0  0  0
   15.4460   73.3633   -4.8959 O   0  0  0  0  0  0  0  0  0  0  0  0
   16.1067   72.3442   -5.9626 P   0  0  2  0  0  0  0  0  0  0  0  0
   15.6660   72.9643   -7.3904 O   0  0  0  0  0  0  0  0  0  0  0  0
   15.7168   70.9080   -5.7643 O   0  0  0  0  0  0  0  0  0  0  0  0
   17.6931   72.6257   -5.8680 O   0  0  0  0  0  0  0  0  0  0  0  0
   18.6743   70.7755   -6.9773 O   0  0  0  0  0  0  0  0  0  0  0  0
   22.1019   72.8852   -6.0548 O   0  0  0  0  0  0  0  0  0  0  0  0
   21.1837   72.7912   -8.7743 O   0  0  0  0  0  0  0  0  0  0  0  0
   19.9149   72.7843   -4.1611 O   0  0  0  0  0  0  0  0  0  0  0  0
   20.7302   72.7264   -6.4268 C   0  0  1  0  0  0  0  0  0  0  0  0
   20.6772   71.9484   -7.7431 C   0  0  1  0  0  0  0  0  0  0  0  0
   19.9984   71.9656   -5.3227 C   0  0  2  0  0  0  0  0  0  0  0  0
   19.2437   71.5077   -8.0688 C   0  0  1  0  0  0  0  0  0  0  0  0
   18.6005   71.5313   -5.7669 C   0  0  1  0  0  0  0  0  0  0  0  0
   22.5721   73.3681   -6.7514 H   0  0  0  0  0  0  0  0  0  0  0  0
   22.0891   73.0627   -8.5562 H   0  0  0  0  0  0  0  0  0  0  0  0
   20.8062   73.0523   -3.8898 H   0  0  0  0  0  0  0  0  0  0  0  0
   18.7958   71.3706  -10.4118 O   0  0  0  0  0  0  0  0  0  0  0  0
   19.1897   70.5970   -9.2934 C   0  0  0  0  0  0  0  0  0  0  0  0
   18.7574   70.8040  -11.1987 H   0  0  0  0  0  0  0  0  0  0  0  0
 25 28  1  0
 25 24  1  0
 25 26  1  6
 25 27  2  0
  1  4  1  0
  1 24  1  0
  1  2  1  6
  1  3  2  0
  6 11  1  0
  6 12  1  0
 29 36  1  0
 29 37  1  0
  9  7  1  1
  7 13  1  0
 10  8  1  6
  8 14  1  0
 37 28  1  6
  4  5  1  0
 33 30  1  1
 30 38  1  0
 34 31  1  6
 31 39  1  0
 35 32  1  1
 32 40  1  0
 41 42  1  0
 41 43  1  0
 15 19  2  0
 16 22  2  0
 12 17  1  1
 17 19  1  0
 17 20  1  0
 18 19  1  0
 18 22  1  0
 18 23  1  0
  9 10  1  0
  9 11  1  0
 10 12  1  0
 11  5  1  1
 33 34  1  0
 33 35  1  0
 34 36  1  0
 35 37  1  0
 36 42  1  6
 20 21  2  0
 21 22  1  0
M  CHG  2   2  -1  26  -1
M  END
>  <COMPND>  (72) 
    8629 

>  <AUTHOR>  (72) 
    GENERATED BY OPEN BABEL 3.1.1

>  <MASTER>  (72) 
        0    0    0    0    0    0    0    0   58    0   58    0

>  <minimizedAffinity>  (72) 
-5.92450

>  <CNNscore>  (72) 
0.4523129463

>  <CNNaffinity>  (72) 
4.0414457321

>  <CNN_VS>  (72) 
1.8279982805

>  <CNNaffinity_variance>  (72) 
0.1318532974

$$$$
73
     RDKit          3D

 43 45  0  0  0  0  0  0  0  0999 V2000
   21.8383   73.9508   -3.5794 P   0  0  2  0  0  0  0  0  0  0  0  0
   20.3304   74.4959   -3.7951 O   0  0  0  0  0  0  0  0  0  0  0  0
   22.8112   74.9673   -3.0582 O   0  0  0  0  0  0  0  0  0  0  0  0
   22.2166   73.2814   -5.0030 O   0  0  0  0  0  0  0  0  0  0  0  0
   21.7933   71.9538   -5.2597 C   0  0  0  0  0  0  0  0  0  0  0  0
   20.3019   70.8827   -6.8098 O   0  0  0  0  0  0  0  0  0  0  0  0
   20.9949   73.0925   -8.7144 O   0  0  0  0  0  0  0  0  0  0  0  0
   18.5646   73.8743   -7.7557 O   0  0  0  0  0  0  0  0  0  0  0  0
   20.8364   73.1394   -7.2973 C   0  0  1  0  0  0  0  0  0  0  0  0
   19.3695   73.0583   -6.9294 C   0  0  2  0  0  0  0  0  0  0  0  0
   21.3813   71.8385   -6.7209 C   0  0  1  0  0  0  0  0  0  0  0  0
   19.0807   71.5778   -7.1103 C   0  0  2  0  0  0  0  0  0  0  0  0
   20.6542   73.9131   -9.1050 H   0  0  0  0  0  0  0  0  0  0  0  0
   18.7859   74.8064   -7.6040 H   0  0  0  0  0  0  0  0  0  0  0  0
   16.6899   70.3418   -7.9673 O   0  0  0  0  0  0  0  0  0  0  0  0
   15.1917   69.8225   -3.6398 O   0  0  0  0  0  0  0  0  0  0  0  0
   18.0486   71.1094   -6.2289 N   0  0  0  0  0  0  0  0  0  0  0  0
   15.9459   70.0841   -5.8118 N   0  0  0  0  0  0  0  0  0  0  0  0
   16.8865   70.5038   -6.7611 C   0  0  0  0  0  0  0  0  0  0  0  0
   18.1944   71.2523   -4.8534 C   0  0  0  0  0  0  0  0  0  0  0  0
   17.2876   70.8479   -3.9615 C   0  0  0  0  0  0  0  0  0  0  0  0
   16.0447   70.2050   -4.4347 C   0  0  0  0  0  0  0  0  0  0  0  0
   15.1281   69.6596   -6.1594 H   0  0  0  0  0  0  0  0  0  0  0  0
   21.6270   72.6676   -2.6193 O   0  0  0  0  0  0  0  0  0  0  0  0
   21.5309   72.5503   -1.0100 P   0  0  2  0  0  0  0  0  0  0  0  0
   21.2414   70.9768   -0.7693 O   0  0  0  0  0  0  0  0  0  0  0  0
   20.5207   73.4685   -0.3853 O   0  0  0  0  0  0  0  0  0  0  0  0
   23.0441   72.7701   -0.4933 O   0  0  0  0  0  0  0  0  0  0  0  0
   23.2966   73.0693    1.8441 O   0  0  0  0  0  0  0  0  0  0  0  0
   27.0015   74.4058    0.6038 O   0  0  0  0  0  0  0  0  0  0  0  0
   26.7809   71.8690    1.9321 O   0  0  0  0  0  0  0  0  0  0  0  0
   24.6450   75.0275   -0.9582 O   0  0  0  0  0  0  0  0  0  0  0  0
   25.8316   73.5842    0.5618 C   0  0  1  0  0  0  0  0  0  0  0  0
   25.7284   72.8285    1.8880 C   0  0  1  0  0  0  0  0  0  0  0  0
   24.6060   74.4714    0.3517 C   0  0  2  0  0  0  0  0  0  0  0  0
   24.3666   72.1345    2.0256 C   0  0  1  0  0  0  0  0  0  0  0  0
   23.3044   73.6949    0.5594 C   0  0  1  0  0  0  0  0  0  0  0  0
   27.7834   73.8486    0.7365 H   0  0  0  0  0  0  0  0  0  0  0  0
   27.6352   72.3202    1.8437 H   0  0  0  0  0  0  0  0  0  0  0  0
   25.4735   75.5167   -1.0771 H   0  0  0  0  0  0  0  0  0  0  0  0
   23.0397   70.6704    3.3690 O   0  0  0  0  0  0  0  0  0  0  0  0
   24.1813   71.5069    3.4054 C   0  0  0  0  0  0  0  0  0  0  0  0
   22.9096   70.2638    4.2405 H   0  0  0  0  0  0  0  0  0  0  0  0
 25 28  1  0
 25 24  1  0
 25 26  1  6
 25 27  2  0
  1  4  1  0
  1 24  1  0
  1  2  1  6
  1  3  2  0
  6 11  1  0
  6 12  1  0
 29 36  1  0
 29 37  1  0
  9  7  1  6
  7 13  1  0
 10  8  1  6
  8 14  1  0
 37 28  1  6
  4  5  1  0
 33 30  1  1
 30 38  1  0
 34 31  1  6
 31 39  1  0
 35 32  1  6
 32 40  1  0
 41 42  1  0
 41 43  1  0
 15 19  2  0
 16 22  2  0
 12 17  1  1
 17 19  1  0
 17 20  1  0
 18 19  1  0
 18 22  1  0
 18 23  1  0
  9 10  1  0
  9 11  1  0
 10 12  1  0
 11  5  1  1
 33 34  1  0
 33 35  1  0
 34 36  1  0
 35 37  1  0
 36 42  1  1
 20 21  2  0
 21 22  1  0
M  CHG  2   2  -1  26  -1
M  END
>  <COMPND>  (73) 
    8629 

>  <AUTHOR>  (73) 
    GENERATED BY OPEN BABEL 3.1.1

>  <MASTER>  (73) 
        0    0    0    0    0    0    0    0   58    0   58    0

>  <minimizedAffinity>  (73) 
-6.00037

>  <CNNscore>  (73) 
0.4225219786

>  <CNNaffinity>  (73) 
4.0756616592

>  <CNN_VS>  (73) 
1.7220566273

>  <CNNaffinity_variance>  (73) 
0.0300206393

$$$$
74
     RDKit          3D

 43 45  0  0  0  0  0  0  0  0999 V2000
   26.9041   73.2639    2.3643 P   0  0  2  0  0  0  0  0  0  0  0  0
   26.6672   74.5407    1.3994 O   0  0  0  0  0  0  0  0  0  0  0  0
   27.2199   71.9814    1.6524 O   0  0  0  0  0  0  0  0  0  0  0  0
   25.5886   73.2393    3.3060 O   0  0  0  0  0  0  0  0  0  0  0  0
   24.5611   74.1827    3.0569 C   0  0  0  0  0  0  0  0  0  0  0  0
   22.5778   73.4295    1.9287 O   0  0  0  0  0  0  0  0  0  0  0  0
   22.0829   71.7164    4.3393 O   0  0  0  0  0  0  0  0  0  0  0  0
   23.1198   69.9391    2.5497 O   0  0  0  0  0  0  0  0  0  0  0  0
   23.3191   72.0626    3.7169 C   0  0  1  0  0  0  0  0  0  0  0  0
   23.4877   71.2973    2.4209 C   0  0  2  0  0  0  0  0  0  0  0  0
   23.2104   73.5006    3.2253 C   0  0  1  0  0  0  0  0  0  0  0  0
   22.5732   72.0641    1.4809 C   0  0  2  0  0  0  0  0  0  0  0  0
   22.1284   70.8021    4.6617 H   0  0  0  0  0  0  0  0  0  0  0  0
   23.7312   69.4945    3.1575 H   0  0  0  0  0  0  0  0  0  0  0  0
   21.1346   70.8744   -0.6388 O   0  0  0  0  0  0  0  0  0  0  0  0
   24.4052   71.9472   -3.7036 O   0  0  0  0  0  0  0  0  0  0  0  0
   23.0251   72.0185    0.1189 N   0  0  0  0  0  0  0  0  0  0  0  0
   22.7642   71.4097   -2.1631 N   0  0  0  0  0  0  0  0  0  0  0  0
   22.2273   71.3963   -0.8695 C   0  0  0  0  0  0  0  0  0  0  0  0
   24.2467   72.5870   -0.2253 C   0  0  0  0  0  0  0  0  0  0  0  0
   24.7450   72.5903   -1.4634 C   0  0  0  0  0  0  0  0  0  0  0  0
   23.9741   71.9607   -2.5548 C   0  0  0  0  0  0  0  0  0  0  0  0
   22.2261   70.9816   -2.8681 H   0  0  0  0  0  0  0  0  0  0  0  0
   28.0610   73.7778    3.3696 O   0  0  0  0  0  0  0  0  0  0  0  0
   28.5965   73.1728    4.7696 P   0  0  2  0  0  0  0  0  0  0  0  0
   28.2308   71.6007    4.6585 O   0  0  0  0  0  0  0  0  0  0  0  0
   28.0405   73.8533    5.9868 O   0  0  0  0  0  0  0  0  0  0  0  0
   30.2051   73.2267    4.6493 O   0  0  0  0  0  0  0  0  0  0  0  0
   31.7882   74.2819    6.0624 O   0  0  0  0  0  0  0  0  0  0  0  0
   33.6480   74.8811    2.4246 O   0  0  0  0  0  0  0  0  0  0  0  0
   34.7266   72.9625    4.2695 O   0  0  0  0  0  0  0  0  0  0  0  0
   30.7675   75.0870    2.6250 O   0  0  0  0  0  0  0  0  0  0  0  0
   32.8613   74.1701    3.3844 C   0  0  1  0  0  0  0  0  0  0  0  0
   33.7270   73.9156    4.6199 C   0  0  1  0  0  0  0  0  0  0  0  0
   31.6386   75.0102    3.7483 C   0  0  2  0  0  0  0  0  0  0  0  0
   32.8817   73.3973    5.7913 C   0  0  1  0  0  0  0  0  0  0  0  0
   30.8969   74.4344    4.9560 C   0  0  1  0  0  0  0  0  0  0  0  0
   34.4258   74.3529    2.1889 H   0  0  0  0  0  0  0  0  0  0  0  0
   35.2529   73.3017    3.5285 H   0  0  0  0  0  0  0  0  0  0  0  0
   31.2488   75.4532    1.8673 H   0  0  0  0  0  0  0  0  0  0  0  0
   34.8577   74.0839    6.9459 O   0  0  0  0  0  0  0  0  0  0  0  0
   33.6955   73.2864    7.0788 C   0  0  0  0  0  0  0  0  0  0  0  0
   35.3853   74.0233    7.7581 H   0  0  0  0  0  0  0  0  0  0  0  0
 25 28  1  0
 25 24  1  0
 25 26  1  1
 25 27  2  0
  1  4  1  0
  1 24  1  0
  1  2  1  6
  1  3  2  0
  6 11  1  0
  6 12  1  0
 29 36  1  0
 29 37  1  0
  9  7  1  6
  7 13  1  0
 10  8  1  1
  8 14  1  0
 37 28  1  6
  4  5  1  0
 33 30  1  6
 30 38  1  0
 34 31  1  6
 31 39  1  0
 35 32  1  6
 32 40  1  0
 41 42  1  0
 41 43  1  0
 15 19  2  0
 16 22  2  0
 12 17  1  6
 17 19  1  0
 17 20  1  0
 18 19  1  0
 18 22  1  0
 18 23  1  0
  9 10  1  0
  9 11  1  0
 10 12  1  0
 11  5  1  6
 33 34  1  0
 33 35  1  0
 34 36  1  0
 35 37  1  0
 36 42  1  1
 20 21  2  0
 21 22  1  0
M  CHG  2   2  -1  26  -1
M  END
>  <COMPND>  (74) 
    8629 

>  <AUTHOR>  (74) 
    GENERATED BY OPEN BABEL 3.1.1

>  <MASTER>  (74) 
        0    0    0    0    0    0    0    0   58    0   58    0

>  <minimizedAffinity>  (74) 
-6.19868

>  <CNNscore>  (74) 
0.4143029451

>  <CNNaffinity>  (74) 
3.7408027649

>  <CNN_VS>  (74) 
1.5498255491

>  <CNNaffinity_variance>  (74) 
0.5202554464

$$$$
75
     RDKit          3D

 43 45  0  0  0  0  0  0  0  0999 V2000
   22.1266   73.3347   -3.8330 P   0  0  2  0  0  0  0  0  0  0  0  0
   21.6112   74.8223   -3.4605 O   0  0  0  0  0  0  0  0  0  0  0  0
   22.9726   73.2481   -5.0693 O   0  0  0  0  0  0  0  0  0  0  0  0
   20.7744   72.4463   -3.8434 O   0  0  0  0  0  0  0  0  0  0  0  0
   19.9428   72.4941   -4.9896 C   0  0  0  0  0  0  0  0  0  0  0  0
   18.8647   70.6888   -6.1526 O   0  0  0  0  0  0  0  0  0  0  0  0
   21.4848   70.2724   -7.5499 O   0  0  0  0  0  0  0  0  0  0  0  0
   20.0250   71.6246   -9.4146 O   0  0  0  0  0  0  0  0  0  0  0  0
   20.8658   71.4897   -7.1373 C   0  0  1  0  0  0  0  0  0  0  0  0
   19.7075   71.8272   -8.0527 C   0  0  2  0  0  0  0  0  0  0  0  0
   20.1594   71.2314   -5.8123 C   0  0  1  0  0  0  0  0  0  0  0  0
   18.6278   70.8803   -7.5569 C   0  0  2  0  0  0  0  0  0  0  0  0
   21.9428   70.4126   -8.3940 H   0  0  0  0  0  0  0  0  0  0  0  0
   20.7160   72.2503   -9.6822 H   0  0  0  0  0  0  0  0  0  0  0  0
   16.3729   69.3411   -8.2808 O   0  0  0  0  0  0  0  0  0  0  0  0
   13.6097   73.0293   -8.2274 O   0  0  0  0  0  0  0  0  0  0  0  0
   17.3068   71.4125   -7.7386 N   0  0  0  0  0  0  0  0  0  0  0  0
   14.9989   71.1788   -8.2535 N   0  0  0  0  0  0  0  0  0  0  0  0
   16.2436   70.5541   -8.1035 C   0  0  0  0  0  0  0  0  0  0  0  0
   17.0760   72.7715   -7.5551 C   0  0  0  0  0  0  0  0  0  0  0  0
   15.8833   73.3518   -7.7033 C   0  0  0  0  0  0  0  0  0  0  0  0
   14.7194   72.5255   -8.0834 C   0  0  0  0  0  0  0  0  0  0  0  0
   14.2434   70.6005   -8.5077 H   0  0  0  0  0  0  0  0  0  0  0  0
   22.8655   72.8559   -2.4774 O   0  0  0  0  0  0  0  0  0  0  0  0
   23.6127   71.4709   -2.1079 P   0  0  2  0  0  0  0  0  0  0  0  0
   25.0721   71.6448   -2.7843 O   0  0  0  0  0  0  0  0  0  0  0  0
   22.8728   70.2382   -2.5402 O   0  0  0  0  0  0  0  0  0  0  0  0
   23.8855   71.5649   -0.5200 O   0  0  0  0  0  0  0  0  0  0  0  0
   23.2531   73.1609    1.1139 O   0  0  0  0  0  0  0  0  0  0  0  0
   27.0963   72.3805    2.4068 O   0  0  0  0  0  0  0  0  0  0  0  0
   24.8636   71.3865    3.9151 O   0  0  0  0  0  0  0  0  0  0  0  0
   26.5254   72.5125   -0.4280 O   0  0  0  0  0  0  0  0  0  0  0  0
   25.8253   72.0640    1.8325 C   0  0  1  0  0  0  0  0  0  0  0  0
   24.7430   72.3526    2.8747 C   0  0  1  0  0  0  0  0  0  0  0  0
   25.6135   72.9210    0.5859 C   0  0  2  0  0  0  0  0  0  0  0  0
   23.3425   72.2931    2.2500 C   0  0  1  0  0  0  0  0  0  0  0  0
   24.1749   72.8277    0.0741 C   0  0  1  0  0  0  0  0  0  0  0  0
   27.2373   71.8394    3.1985 H   0  0  0  0  0  0  0  0  0  0  0  0
   25.7525   71.4341    4.3008 H   0  0  0  0  0  0  0  0  0  0  0  0
   27.4324   72.5764   -0.0918 H   0  0  0  0  0  0  0  0  0  0  0  0
   22.0435   71.6844    4.1608 O   0  0  0  0  0  0  0  0  0  0  0  0
   22.2589   72.7316    3.2326 C   0  0  0  0  0  0  0  0  0  0  0  0
   21.3564   71.9495    4.7927 H   0  0  0  0  0  0  0  0  0  0  0  0
 25 28  1  0
 25 24  1  0
 25 26  1  6
 25 27  2  0
  1  4  1  0
  1 24  1  0
  1  2  1  1
  1  3  2  0
  6 11  1  0
  6 12  1  0
 29 36  1  0
 29 37  1  0
  9  7  1  6
  7 13  1  0
 10  8  1  6
  8 14  1  0
 37 28  1  1
  4  5  1  0
 33 30  1  1
 30 38  1  0
 34 31  1  1
 31 39  1  0
 35 32  1  6
 32 40  1  0
 41 42  1  0
 41 43  1  0
 15 19  2  0
 16 22  2  0
 12 17  1  1
 17 19  1  0
 17 20  1  0
 18 19  1  0
 18 22  1  0
 18 23  1  0
  9 10  1  0
  9 11  1  0
 10 12  1  0
 11  5  1  6
 33 34  1  0
 33 35  1  0
 34 36  1  0
 35 37  1  0
 36 42  1  1
 20 21  2  0
 21 22  1  0
M  CHG  2   2  -1  26  -1
M  END
>  <COMPND>  (75) 
    8629 

>  <AUTHOR>  (75) 
    GENERATED BY OPEN BABEL 3.1.1

>  <MASTER>  (75) 
        0    0    0    0    0    0    0    0   58    0   58    0

>  <minimizedAffinity>  (75) 
-7.22094

>  <CNNscore>  (75) 
0.3931418061

>  <CNNaffinity>  (75) 
4.1348738670

>  <CNN_VS>  (75) 
1.6255917549

>  <CNNaffinity_variance>  (75) 
0.0272690151

$$$$
76
     RDKit          3D

 43 45  0  0  0  0  0  0  0  0999 V2000
   21.0418   75.3979   -4.7122 P   0  0  2  0  0  0  0  0  0  0  0  0
   19.5064   74.9145   -4.5499 O   0  0  0  0  0  0  0  0  0  0  0  0
   21.2565   76.8779   -4.5907 O   0  0  0  0  0  0  0  0  0  0  0  0
   21.5130   74.7319   -6.1095 O   0  0  0  0  0  0  0  0  0  0  0  0
   20.5538   74.0313   -6.8820 C   0  0  0  0  0  0  0  0  0  0  0  0
   19.3735   72.0566   -6.1882 O   0  0  0  0  0  0  0  0  0  0  0  0
   21.6644   70.5072   -7.3465 O   0  0  0  0  0  0  0  0  0  0  0  0
   19.7637   70.3010   -9.2912 O   0  0  0  0  0  0  0  0  0  0  0  0
   21.0692   71.7186   -7.8087 C   0  0  1  0  0  0  0  0  0  0  0  0
   19.7259   71.4341   -8.4476 C   0  0  2  0  0  0  0  0  0  0  0  0
   20.6734   72.5420   -6.5893 C   0  0  1  0  0  0  0  0  0  0  0  0
   18.8364   71.2292   -7.2331 C   0  0  2  0  0  0  0  0  0  0  0  0
   21.9258   69.9647   -8.1076 H   0  0  0  0  0  0  0  0  0  0  0  0
   20.3422   70.4809  -10.0486 H   0  0  0  0  0  0  0  0  0  0  0  0
   16.5814   69.8132   -6.2908 O   0  0  0  0  0  0  0  0  0  0  0  0
   13.6627   72.7989   -8.2422 O   0  0  0  0  0  0  0  0  0  0  0  0
   17.4754   71.6144   -7.4798 N   0  0  0  0  0  0  0  0  0  0  0  0
   15.1300   71.3011   -7.2630 N   0  0  0  0  0  0  0  0  0  0  0  0
   16.4157   70.8336   -6.9623 C   0  0  0  0  0  0  0  0  0  0  0  0
   17.2026   72.7550   -8.2271 C   0  0  0  0  0  0  0  0  0  0  0  0
   15.9709   73.1865   -8.5060 C   0  0  0  0  0  0  0  0  0  0  0  0
   14.8076   72.4279   -8.0026 C   0  0  0  0  0  0  0  0  0  0  0  0
   14.3760   70.7729   -6.9133 H   0  0  0  0  0  0  0  0  0  0  0  0
   21.8205   74.5122   -3.6067 O   0  0  0  0  0  0  0  0  0  0  0  0
   23.3856   74.1361   -3.4582 P   0  0  2  0  0  0  0  0  0  0  0  0
   24.1199   75.5769   -3.5103 O   0  0  0  0  0  0  0  0  0  0  0  0
   23.8812   73.1513   -4.4772 O   0  0  0  0  0  0  0  0  0  0  0  0
   23.5458   73.6521   -1.9269 O   0  0  0  0  0  0  0  0  0  0  0  0
   25.3456   72.4093   -1.0141 O   0  0  0  0  0  0  0  0  0  0  0  0
   22.2946   71.0196    1.3965 O   0  0  0  0  0  0  0  0  0  0  0  0
   24.2550   72.8147    2.4838 O   0  0  0  0  0  0  0  0  0  0  0  0
   21.8042   71.5123   -1.4136 O   0  0  0  0  0  0  0  0  0  0  0  0
   23.0028   71.9898    0.6203 C   0  0  1  0  0  0  0  0  0  0  0  0
   24.3976   72.1624    1.2251 C   0  0  1  0  0  0  0  0  0  0  0  0
   23.0996   71.5001   -0.8234 C   0  0  2  0  0  0  0  0  0  0  0  0
   25.3057   72.9818    0.2983 C   0  0  1  0  0  0  0  0  0  0  0  0
   24.0652   72.3549   -1.6462 C   0  0  1  0  0  0  0  0  0  0  0  0
   22.2292   71.3247    2.3142 H   0  0  0  0  0  0  0  0  0  0  0  0
   23.6790   72.2873    3.0593 H   0  0  0  0  0  0  0  0  0  0  0  0
   21.2024   70.9675   -0.8836 H   0  0  0  0  0  0  0  0  0  0  0  0
   26.9473   71.9474    1.6926 O   0  0  0  0  0  0  0  0  0  0  0  0
   26.7448   73.0329    0.8066 C   0  0  0  0  0  0  0  0  0  0  0  0
   27.8592   71.9670    2.0239 H   0  0  0  0  0  0  0  0  0  0  0  0
 25 28  1  0
 25 24  1  0
 25 26  1  1
 25 27  2  0
  1  4  1  0
  1 24  1  0
  1  2  1  1
  1  3  2  0
  6 11  1  0
  6 12  1  0
 29 36  1  0
 29 37  1  0
  9  7  1  1
  7 13  1  0
 10  8  1  6
  8 14  1  0
 37 28  1  1
  4  5  1  0
 33 30  1  1
 30 38  1  0
 34 31  1  1
 31 39  1  0
 35 32  1  6
 32 40  1  0
 41 42  1  0
 41 43  1  0
 15 19  2  0
 16 22  2  0
 12 17  1  6
 17 19  1  0
 17 20  1  0
 18 19  1  0
 18 22  1  0
 18 23  1  0
  9 10  1  0
  9 11  1  0
 10 12  1  0
 11  5  1  6
 33 34  1  0
 33 35  1  0
 34 36  1  0
 35 37  1  0
 36 42  1  1
 20 21  2  0
 21 22  1  0
M  CHG  2   2  -1  26  -1
M  END
>  <COMPND>  (76) 
    8629 

>  <AUTHOR>  (76) 
    GENERATED BY OPEN BABEL 3.1.1

>  <MASTER>  (76) 
        0    0    0    0    0    0    0    0   58    0   58    0

>  <minimizedAffinity>  (76) 
-6.77539

>  <CNNscore>  (76) 
0.3906500936

>  <CNNaffinity>  (76) 
4.1654558182

>  <CNN_VS>  (76) 
1.6272356510

>  <CNNaffinity_variance>  (76) 
0.0273301750

$$$$
77
     RDKit          3D

 43 45  0  0  0  0  0  0  0  0999 V2000
   20.1348   75.9206   -1.9639 P   0  0  2  0  0  0  0  0  0  0  0  0
   18.6602   75.5361   -1.4205 O   0  0  0  0  0  0  0  0  0  0  0  0
   20.5543   77.3385   -1.7091 O   0  0  0  0  0  0  0  0  0  0  0  0
   20.1081   75.4638   -3.5158 O   0  0  0  0  0  0  0  0  0  0  0  0
   19.2973   74.3609   -3.8822 C   0  0  0  0  0  0  0  0  0  0  0  0
   19.3119   72.3156   -5.1432 O   0  0  0  0  0  0  0  0  0  0  0  0
   22.1811   72.9337   -5.7572 O   0  0  0  0  0  0  0  0  0  0  0  0
   20.9060   73.6979   -8.0434 O   0  0  0  0  0  0  0  0  0  0  0  0
   21.0753   73.8248   -5.6213 C   0  0  1  0  0  0  0  0  0  0  0  0
   20.1742   73.7336   -6.8351 C   0  0  2  0  0  0  0  0  0  0  0  0
   20.1744   73.2895   -4.5154 C   0  0  1  0  0  0  0  0  0  0  0  0
   19.4191   72.4421   -6.5706 C   0  0  2  0  0  0  0  0  0  0  0  0
   22.7709   73.2550   -6.4577 H   0  0  0  0  0  0  0  0  0  0  0  0
   21.3685   74.5416   -8.1665 H   0  0  0  0  0  0  0  0  0  0  0  0
   18.5031   70.6079   -8.5134 O   0  0  0  0  0  0  0  0  0  0  0  0
   14.3404   72.5793   -8.6770 O   0  0  0  0  0  0  0  0  0  0  0  0
   18.1003   72.4527   -7.1381 N   0  0  0  0  0  0  0  0  0  0  0  0
   16.4311   71.5909   -8.5932 N   0  0  0  0  0  0  0  0  0  0  0  0
   17.7410   71.4879   -8.1078 C   0  0  0  0  0  0  0  0  0  0  0  0
   17.1789   73.4120   -6.7322 C   0  0  0  0  0  0  0  0  0  0  0  0
   15.9340   73.4975   -7.2057 C   0  0  0  0  0  0  0  0  0  0  0  0
   15.4789   72.5270   -8.2221 C   0  0  0  0  0  0  0  0  0  0  0  0
   16.1585   70.9295   -9.2700 H   0  0  0  0  0  0  0  0  0  0  0  0
   21.0790   74.8052   -1.2730 O   0  0  0  0  0  0  0  0  0  0  0  0
   22.6625   74.5161   -1.4202 P   0  0  2  0  0  0  0  0  0  0  0  0
   23.3329   75.9556   -1.1103 O   0  0  0  0  0  0  0  0  0  0  0  0
   23.0591   73.9194   -2.7396 O   0  0  0  0  0  0  0  0  0  0  0  0
   23.0332   73.6092   -0.1376 O   0  0  0  0  0  0  0  0  0  0  0  0
   25.0701   72.4013   -0.0445 O   0  0  0  0  0  0  0  0  0  0  0  0
   22.8625   70.1805    2.6471 O   0  0  0  0  0  0  0  0  0  0  0  0
   24.9589   71.8938    3.6050 O   0  0  0  0  0  0  0  0  0  0  0  0
   21.6005   71.2296    0.2626 O   0  0  0  0  0  0  0  0  0  0  0  0
   23.2854   71.3715    1.9779 C   0  0  1  0  0  0  0  0  0  0  0  0
   24.7826   71.5582    2.2315 C   0  0  1  0  0  0  0  0  0  0  0  0
   23.0069   71.2296    0.4827 C   0  0  2  0  0  0  0  0  0  0  0  0
   25.3635   72.6590    1.3336 C   0  0  1  0  0  0  0  0  0  0  0  0
   23.6698   72.3477   -0.3239 C   0  0  1  0  0  0  0  0  0  0  0  0
   23.0361   70.2642    3.5970 H   0  0  0  0  0  0  0  0  0  0  0  0
   24.5875   71.1910    4.1611 H   0  0  0  0  0  0  0  0  0  0  0  0
   21.1926   70.5173    0.7784 H   0  0  0  0  0  0  0  0  0  0  0  0
   27.2632   72.2590    2.7265 O   0  0  0  0  0  0  0  0  0  0  0  0
   26.8827   72.7544    1.4560 C   0  0  0  0  0  0  0  0  0  0  0  0
   28.2277   72.3133    2.8184 H   0  0  0  0  0  0  0  0  0  0  0  0
 25 28  1  0
 25 24  1  0
 25 26  1  1
 25 27  2  0
  1  4  1  0
  1 24  1  0
  1  2  1  1
  1  3  2  0
  6 11  1  0
  6 12  1  0
 29 36  1  0
 29 37  1  0
  9  7  1  6
  7 13  1  0
 10  8  1  6
  8 14  1  0
 37 28  1  1
  4  5  1  0
 33 30  1  1
 30 38  1  0
 34 31  1  1
 31 39  1  0
 35 32  1  1
 32 40  1  0
 41 42  1  0
 41 43  1  0
 15 19  2  0
 16 22  2  0
 12 17  1  6
 17 19  1  0
 17 20  1  0
 18 19  1  0
 18 22  1  0
 18 23  1  0
  9 10  1  0
  9 11  1  0
 10 12  1  0
 11  5  1  6
 33 34  1  0
 33 35  1  0
 34 36  1  0
 35 37  1  0
 36 42  1  6
 20 21  2  0
 21 22  1  0
M  CHG  2   2  -1  26  -1
M  END
>  <COMPND>  (77) 
    8629 

>  <AUTHOR>  (77) 
    GENERATED BY OPEN BABEL 3.1.1

>  <MASTER>  (77) 
        0    0    0    0    0    0    0    0   58    0   58    0

>  <minimizedAffinity>  (77) 
-6.09727

>  <CNNscore>  (77) 
0.3780175447

>  <CNNaffinity>  (77) 
4.2203450203

>  <CNN_VS>  (77) 
1.5953644514

>  <CNNaffinity_variance>  (77) 
0.0884535760

$$$$
78
     RDKit          3D

 43 45  0  0  0  0  0  0  0  0999 V2000
   21.8793   74.2085   -4.7444 P   0  0  2  0  0  0  0  0  0  0  0  0
   23.2290   73.3179   -4.6943 O   0  0  0  0  0  0  0  0  0  0  0  0
   21.8892   75.3179   -5.7545 O   0  0  0  0  0  0  0  0  0  0  0  0
   21.6546   74.6600   -3.2070 O   0  0  0  0  0  0  0  0  0  0  0  0
   22.3252   73.9414   -2.1864 C   0  0  0  0  0  0  0  0  0  0  0  0
   22.0741   72.0486   -0.7276 O   0  0  0  0  0  0  0  0  0  0  0  0
   19.2539   72.9788   -0.3132 O   0  0  0  0  0  0  0  0  0  0  0  0
   20.5085   73.8624    1.9411 O   0  0  0  0  0  0  0  0  0  0  0  0
   20.4418   73.7496   -0.4867 C   0  0  1  0  0  0  0  0  0  0  0  0
   21.2848   73.7066    0.7707 C   0  0  2  0  0  0  0  0  0  0  0  0
   21.3297   73.0239   -1.4899 C   0  0  1  0  0  0  0  0  0  0  0  0
   21.9262   72.3328    0.6732 C   0  0  2  0  0  0  0  0  0  0  0  0
   18.6708   73.4226    0.3232 H   0  0  0  0  0  0  0  0  0  0  0  0
   20.1220   74.7518    1.9569 H   0  0  0  0  0  0  0  0  0  0  0  0
   22.7719   70.2983    2.4406 O   0  0  0  0  0  0  0  0  0  0  0  0
   26.9047   72.2573    3.0095 O   0  0  0  0  0  0  0  0  0  0  0  0
   23.2183   72.2860    1.2975 N   0  0  0  0  0  0  0  0  0  0  0  0
   24.8291   71.2753    2.7223 N   0  0  0  0  0  0  0  0  0  0  0  0
   23.5431   71.2211    2.1698 C   0  0  0  0  0  0  0  0  0  0  0  0
   24.1478   73.2884    1.0424 C   0  0  0  0  0  0  0  0  0  0  0  0
   25.3696   73.3262    1.5782 C   0  0  0  0  0  0  0  0  0  0  0  0
   25.7881   72.2509    2.5006 C   0  0  0  0  0  0  0  0  0  0  0  0
   25.0774   70.5441    3.3334 H   0  0  0  0  0  0  0  0  0  0  0  0
   20.7223   73.1026   -4.9711 O   0  0  0  0  0  0  0  0  0  0  0  0
   20.7311   71.7101   -5.7921 P   0  0  2  0  0  0  0  0  0  0  0  0
   21.0388   70.6074   -4.6489 O   0  0  0  0  0  0  0  0  0  0  0  0
   21.6860   71.6846   -6.9502 O   0  0  0  0  0  0  0  0  0  0  0  0
   19.1873   71.4623   -6.1925 O   0  0  0  0  0  0  0  0  0  0  0  0
   17.8914   70.4998   -7.9277 O   0  0  0  0  0  0  0  0  0  0  0  0
   16.1971   74.2647   -7.8496 O   0  0  0  0  0  0  0  0  0  0  0  0
   14.7215   72.0242   -6.8244 O   0  0  0  0  0  0  0  0  0  0  0  0
   19.0503   73.9571   -7.4701 O   0  0  0  0  0  0  0  0  0  0  0  0
   16.8072   73.0986   -7.2898 C   0  0  1  0  0  0  0  0  0  0  0  0
   15.9127   71.8956   -7.5957 C   0  0  1  0  0  0  0  0  0  0  0  0
   18.1903   72.9119   -7.9108 C   0  0  2  0  0  0  0  0  0  0  0  0
   16.6246   70.5773   -7.2635 C   0  0  1  0  0  0  0  0  0  0  0  0
   18.7885   71.5489   -7.5580 C   0  0  1  0  0  0  0  0  0  0  0  0
   15.3187   74.3892   -7.4591 H   0  0  0  0  0  0  0  0  0  0  0  0
   14.2819   72.8609   -7.0433 H   0  0  0  0  0  0  0  0  0  0  0  0
   18.6607   74.8147   -7.6996 H   0  0  0  0  0  0  0  0  0  0  0  0
   15.0198   69.7325   -8.8192 O   0  0  0  0  0  0  0  0  0  0  0  0
   15.8134   69.3618   -7.7070 C   0  0  0  0  0  0  0  0  0  0  0  0
   14.4982   68.9686   -9.1125 H   0  0  0  0  0  0  0  0  0  0  0  0
 25 28  1  0
 25 24  1  0
 25 26  1  1
 25 27  2  0
  1  4  1  0
  1 24  1  0
  1  2  1  1
  1  3  2  0
  6 11  1  0
  6 12  1  0
 29 36  1  0
 29 37  1  0
  9  7  1  1
  7 13  1  0
 10  8  1  1
  8 14  1  0
 37 28  1  1
  4  5  1  0
 33 30  1  6
 30 38  1  0
 34 31  1  1
 31 39  1  0
 35 32  1  1
 32 40  1  0
 41 42  1  0
 41 43  1  0
 15 19  2  0
 16 22  2  0
 12 17  1  1
 17 19  1  0
 17 20  1  0
 18 19  1  0
 18 22  1  0
 18 23  1  0
  9 10  1  0
  9 11  1  0
 10 12  1  0
 11  5  1  1
 33 34  1  0
 33 35  1  0
 34 36  1  0
 35 37  1  0
 36 42  1  6
 20 21  2  0
 21 22  1  0
M  CHG  2   2  -1  26  -1
M  END
>  <COMPND>  (78) 
    8629 

>  <AUTHOR>  (78) 
    GENERATED BY OPEN BABEL 3.1.1

>  <MASTER>  (78) 
        0    0    0    0    0    0    0    0   58    0   58    0

>  <minimizedAffinity>  (78) 
-6.76902

>  <CNNscore>  (78) 
0.3744042218

>  <CNNaffinity>  (78) 
4.1776371002

>  <CNN_VS>  (78) 
1.5641249418

>  <CNNaffinity_variance>  (78) 
0.1169555783

$$$$
79
     RDKit          3D

 43 45  0  0  0  0  0  0  0  0999 V2000
   22.1444   72.9448   -4.7238 P   0  0  2  0  0  0  0  0  0  0  0  0
   23.7469   72.8172   -4.5422 O   0  0  0  0  0  0  0  0  0  0  0  0
   21.5614   74.2608   -4.2999 O   0  0  0  0  0  0  0  0  0  0  0  0
   21.5623   71.6408   -3.9631 O   0  0  0  0  0  0  0  0  0  0  0  0
   22.1745   71.2356   -2.7512 C   0  0  0  0  0  0  0  0  0  0  0  0
   21.7581   70.7494   -0.4351 O   0  0  0  0  0  0  0  0  0  0  0  0
   19.2106   72.2969   -0.7617 O   0  0  0  0  0  0  0  0  0  0  0  0
   20.8457   74.0972    0.4720 O   0  0  0  0  0  0  0  0  0  0  0  0
   20.4890   72.5287   -1.3512 C   0  0  1  0  0  0  0  0  0  0  0  0
   21.4465   73.0962   -0.3242 C   0  0  2  0  0  0  0  0  0  0  0  0
   21.1169   71.1748   -1.6575 C   0  0  1  0  0  0  0  0  0  0  0  0
   21.8203   71.8595    0.4752 C   0  0  2  0  0  0  0  0  0  0  0  0
   18.7899   73.1474   -0.5575 H   0  0  0  0  0  0  0  0  0  0  0  0
   20.6265   74.8627   -0.0818 H   0  0  0  0  0  0  0  0  0  0  0  0
   22.7273   70.3602    2.6905 O   0  0  0  0  0  0  0  0  0  0  0  0
   26.9243   72.2535    2.4862 O   0  0  0  0  0  0  0  0  0  0  0  0
   23.1455   71.9406    1.0218 N   0  0  0  0  0  0  0  0  0  0  0  0
   24.8163   71.3040    2.5868 N   0  0  0  0  0  0  0  0  0  0  0  0
   23.4994   71.1454    2.1367 C   0  0  0  0  0  0  0  0  0  0  0  0
   24.0782   72.8010    0.4531 C   0  0  0  0  0  0  0  0  0  0  0  0
   25.3297   72.9415    0.8951 C   0  0  0  0  0  0  0  0  0  0  0  0
   25.7799   72.1468    2.0560 C   0  0  0  0  0  0  0  0  0  0  0  0
   25.0854   70.7604    3.3627 H   0  0  0  0  0  0  0  0  0  0  0  0
   21.9254   72.5832   -6.2840 O   0  0  0  0  0  0  0  0  0  0  0  0
   21.0194   73.2906   -7.4206 P   0  0  2  0  0  0  0  0  0  0  0  0
   21.4183   72.4865   -8.7666 O   0  0  0  0  0  0  0  0  0  0  0  0
   21.1980   74.7784   -7.5121 O   0  0  0  0  0  0  0  0  0  0  0  0
   19.5114   72.8167   -7.0944 O   0  0  0  0  0  0  0  0  0  0  0  0
   18.8738   70.9607   -5.7659 O   0  0  0  0  0  0  0  0  0  0  0  0
   15.6951   71.0089   -8.4011 O   0  0  0  0  0  0  0  0  0  0  0  0
   15.2985   71.8552   -5.6855 O   0  0  0  0  0  0  0  0  0  0  0  0
   18.3656   71.6004   -9.3489 O   0  0  0  0  0  0  0  0  0  0  0  0
   16.7223   71.5826   -7.5880 C   0  0  1  0  0  0  0  0  0  0  0  0
   16.4674   71.1757   -6.1354 C   0  0  1  0  0  0  0  0  0  0  0  0
   18.0799   71.0661   -8.0607 C   0  0  2  0  0  0  0  0  0  0  0  0
   17.6659   71.5262   -5.2434 C   0  0  1  0  0  0  0  0  0  0  0  0
   19.1950   71.4272   -7.0778 C   0  0  1  0  0  0  0  0  0  0  0  0
   14.8305   71.3332   -8.1065 H   0  0  0  0  0  0  0  0  0  0  0  0
   14.5493   71.6256   -6.2575 H   0  0  0  0  0  0  0  0  0  0  0  0
   17.6525   71.3647   -9.9620 H   0  0  0  0  0  0  0  0  0  0  0  0
   16.6450   69.8601   -3.8683 O   0  0  0  0  0  0  0  0  0  0  0  0
   17.4991   70.9883   -3.8239 C   0  0  0  0  0  0  0  0  0  0  0  0
   16.5299   69.5070   -2.9718 H   0  0  0  0  0  0  0  0  0  0  0  0
 25 28  1  0
 25 24  1  0
 25 26  1  6
 25 27  2  0
  1  4  1  0
  1 24  1  0
  1  2  1  6
  1  3  2  0
  6 11  1  0
  6 12  1  0
 29 36  1  0
 29 37  1  0
  9  7  1  1
  7 13  1  0
 10  8  1  1
  8 14  1  0
 37 28  1  1
  4  5  1  0
 33 30  1  6
 30 38  1  0
 34 31  1  1
 31 39  1  0
 35 32  1  6
 32 40  1  0
 41 42  1  0
 41 43  1  0
 15 19  2  0
 16 22  2  0
 12 17  1  6
 17 19  1  0
 17 20  1  0
 18 19  1  0
 18 22  1  0
 18 23  1  0
  9 10  1  0
  9 11  1  0
 10 12  1  0
 11  5  1  6
 33 34  1  0
 33 35  1  0
 34 36  1  0
 35 37  1  0
 36 42  1  1
 20 21  2  0
 21 22  1  0
M  CHG  2   2  -1  26  -1
M  END
>  <COMPND>  (79) 
    8629 

>  <AUTHOR>  (79) 
    GENERATED BY OPEN BABEL 3.1.1

>  <MASTER>  (79) 
        0    0    0    0    0    0    0    0   58    0   58    0

>  <minimizedAffinity>  (79) 
-7.64395

>  <CNNscore>  (79) 
0.3679783344

>  <CNNaffinity>  (79) 
4.1450223923

>  <CNN_VS>  (79) 
1.5252784491

>  <CNNaffinity_variance>  (79) 
0.0861508101

$$$$
80
     RDKit          3D

 43 45  0  0  0  0  0  0  0  0999 V2000
   13.1258   72.8498   -3.4447 P   0  0  2  0  0  0  0  0  0  0  0  0
   13.5049   73.9107   -2.2835 O   0  0  0  0  0  0  0  0  0  0  0  0
   12.0600   73.3065   -4.3970 O   0  0  0  0  0  0  0  0  0  0  0  0
   12.8073   71.4855   -2.6354 O   0  0  0  0  0  0  0  0  0  0  0  0
   13.1324   71.4250   -1.2576 C   0  0  0  0  0  0  0  0  0  0  0  0
   14.1417   69.6821    0.0530 O   0  0  0  0  0  0  0  0  0  0  0  0
   16.0203   69.2942   -2.2516 O   0  0  0  0  0  0  0  0  0  0  0  0
   14.2361   67.2598   -2.5902 O   0  0  0  0  0  0  0  0  0  0  0  0
   14.6353   69.6359   -2.2643 C   0  0  1  0  0  0  0  0  0  0  0  0
   13.7917   68.4247   -1.9252 C   0  0  2  0  0  0  0  0  0  0  0  0
   14.3672   70.5527   -1.0773 C   0  0  1  0  0  0  0  0  0  0  0  0
   13.9582   68.3369   -0.4177 C   0  0  2  0  0  0  0  0  0  0  0  0
   16.2158   68.7092   -3.0009 H   0  0  0  0  0  0  0  0  0  0  0  0
   14.1094   67.3647   -3.5461 H   0  0  0  0  0  0  0  0  0  0  0  0
   14.0191   67.0176    2.0791 O   0  0  0  0  0  0  0  0  0  0  0  0
    9.4851   66.1987    1.9632 O   0  0  0  0  0  0  0  0  0  0  0  0
   12.8083   67.7696    0.2282 N   0  0  0  0  0  0  0  0  0  0  0  0
   11.7614   66.6111    2.0194 N   0  0  0  0  0  0  0  0  0  0  0  0
   12.9469   67.1275    1.4808 C   0  0  0  0  0  0  0  0  0  0  0  0
   11.5604   67.8533   -0.3797 C   0  0  0  0  0  0  0  0  0  0  0  0
   10.4398   67.3545    0.1465 C   0  0  0  0  0  0  0  0  0  0  0  0
   10.4978   66.6680    1.4532 C   0  0  0  0  0  0  0  0  0  0  0  0
   11.8337   66.1590    2.8913 H   0  0  0  0  0  0  0  0  0  0  0  0
   14.5548   72.5387   -4.1333 O   0  0  0  0  0  0  0  0  0  0  0  0
   15.9993   73.2392   -3.9442 P   0  0  2  0  0  0  0  0  0  0  0  0
   16.5947   72.5122   -2.6273 O   0  0  0  0  0  0  0  0  0  0  0  0
   15.9499   74.7371   -3.8557 O   0  0  0  0  0  0  0  0  0  0  0  0
   16.8918   72.6703   -5.1627 O   0  0  0  0  0  0  0  0  0  0  0  0
   16.6031   70.3851   -5.7206 O   0  0  0  0  0  0  0  0  0  0  0  0
   20.1943   71.0830   -7.6355 O   0  0  0  0  0  0  0  0  0  0  0  0
   17.7989   70.7625   -9.1870 O   0  0  0  0  0  0  0  0  0  0  0  0
   19.6713   72.2970   -5.0602 O   0  0  0  0  0  0  0  0  0  0  0  0
   18.8867   71.4116   -7.1582 C   0  0  1  0  0  0  0  0  0  0  0  0
   17.8860   70.4485   -7.7999 C   0  0  1  0  0  0  0  0  0  0  0  0
   18.8623   71.2774   -5.6368 C   0  0  2  0  0  0  0  0  0  0  0  0
   16.5058   70.5621   -7.1386 C   0  0  1  0  0  0  0  0  0  0  0  0
   17.4375   71.3559   -5.0856 C   0  0  1  0  0  0  0  0  0  0  0  0
   20.2167   71.1667   -8.6009 H   0  0  0  0  0  0  0  0  0  0  0  0
   18.6770   70.6874   -9.5925 H   0  0  0  0  0  0  0  0  0  0  0  0
   20.5707   72.2365   -5.4169 H   0  0  0  0  0  0  0  0  0  0  0  0
   15.1334   69.8604   -8.9643 O   0  0  0  0  0  0  0  0  0  0  0  0
   15.5353   69.5021   -7.6549 C   0  0  0  0  0  0  0  0  0  0  0  0
   14.5157   69.1945   -9.3059 H   0  0  0  0  0  0  0  0  0  0  0  0
 25 28  1  0
 25 24  1  0
 25 26  1  1
 25 27  2  0
  1  4  1  0
  1 24  1  0
  1  2  1  1
  1  3  2  0
  6 11  1  0
  6 12  1  0
 29 36  1  0
 29 37  1  0
  9  7  1  1
  7 13  1  0
 10  8  1  6
  8 14  1  0
 37 28  1  6
  4  5  1  0
 33 30  1  6
 30 38  1  0
 34 31  1  6
 31 39  1  0
 35 32  1  1
 32 40  1  0
 41 42  1  0
 41 43  1  0
 15 19  2  0
 16 22  2  0
 12 17  1  1
 17 19  1  0
 17 20  1  0
 18 19  1  0
 18 22  1  0
 18 23  1  0
  9 10  1  0
  9 11  1  0
 10 12  1  0
 11  5  1  6
 33 34  1  0
 33 35  1  0
 34 36  1  0
 35 37  1  0
 36 42  1  6
 20 21  2  0
 21 22  1  0
M  CHG  2   2  -1  26  -1
M  END
>  <COMPND>  (80) 
    8629 

>  <AUTHOR>  (80) 
    GENERATED BY OPEN BABEL 3.1.1

>  <MASTER>  (80) 
        0    0    0    0    0    0    0    0   58    0   58    0

>  <minimizedAffinity>  (80) 
-5.66105

>  <CNNscore>  (80) 
0.3652994037

>  <CNNaffinity>  (80) 
4.0028190613

>  <CNN_VS>  (80) 
1.4622274637

>  <CNNaffinity_variance>  (80) 
0.1057085022

$$$$
81
     RDKit          3D

 43 45  0  0  0  0  0  0  0  0999 V2000
   23.0018   73.6817   -3.6609 P   0  0  2  0  0  0  0  0  0  0  0  0
   23.0308   75.2930   -3.8026 O   0  0  0  0  0  0  0  0  0  0  0  0
   24.0781   72.9595   -4.4167 O   0  0  0  0  0  0  0  0  0  0  0  0
   21.4824   73.2848   -4.0504 O   0  0  0  0  0  0  0  0  0  0  0  0
   21.2733   72.2007   -4.9387 C   0  0  0  0  0  0  0  0  0  0  0  0
   20.8507   71.7312   -7.2570 O   0  0  0  0  0  0  0  0  0  0  0  0
   21.4568   74.6243   -7.7602 O   0  0  0  0  0  0  0  0  0  0  0  0
   18.7309   74.5702   -7.8135 O   0  0  0  0  0  0  0  0  0  0  0  0
   20.7940   74.0212   -6.6501 C   0  0  1  0  0  0  0  0  0  0  0  0
   19.3964   73.5902   -7.0430 C   0  0  2  0  0  0  0  0  0  0  0  0
   21.4712   72.6859   -6.3682 C   0  0  1  0  0  0  0  0  0  0  0  0
   19.6677   72.3164   -7.8253 C   0  0  2  0  0  0  0  0  0  0  0  0
   21.0420   75.4790   -7.9589 H   0  0  0  0  0  0  0  0  0  0  0  0
   18.5811   75.3607   -7.2719 H   0  0  0  0  0  0  0  0  0  0  0  0
   18.7698   70.6948   -9.9565 O   0  0  0  0  0  0  0  0  0  0  0  0
   15.5190   68.7384   -7.3400 O   0  0  0  0  0  0  0  0  0  0  0  0
   18.5888   71.3741   -7.7288 N   0  0  0  0  0  0  0  0  0  0  0  0
   17.1520   69.7219   -8.6519 N   0  0  0  0  0  0  0  0  0  0  0  0
   18.2158   70.6094   -8.8586 C   0  0  0  0  0  0  0  0  0  0  0  0
   17.9130   71.2154   -6.5238 C   0  0  0  0  0  0  0  0  0  0  0  0
   16.8998   70.3656   -6.3435 C   0  0  0  0  0  0  0  0  0  0  0  0
   16.4479   69.5290   -7.4739 C   0  0  0  0  0  0  0  0  0  0  0  0
   16.8745   69.1788   -9.4252 H   0  0  0  0  0  0  0  0  0  0  0  0
   23.0371   73.4569   -2.0605 O   0  0  0  0  0  0  0  0  0  0  0  0
   22.5647   72.2049   -1.1537 P   0  0  2  0  0  0  0  0  0  0  0  0
   23.1067   70.9234   -1.9793 O   0  0  0  0  0  0  0  0  0  0  0  0
   21.0921   72.1766   -0.8629 O   0  0  0  0  0  0  0  0  0  0  0  0
   23.5041   72.2724    0.1570 O   0  0  0  0  0  0  0  0  0  0  0  0
   23.1106   73.2888    2.2615 O   0  0  0  0  0  0  0  0  0  0  0  0
   27.1552   74.0431    1.9105 O   0  0  0  0  0  0  0  0  0  0  0  0
   26.2385   72.0666    3.7818 O   0  0  0  0  0  0  0  0  0  0  0  0
   25.4470   74.2133   -0.4203 O   0  0  0  0  0  0  0  0  0  0  0  0
   25.9513   73.2887    1.7459 C   0  0  1  0  0  0  0  0  0  0  0  0
   25.3753   72.9960    3.1327 C   0  0  1  0  0  0  0  0  0  0  0  0
   24.9622   74.1025    0.9136 C   0  0  2  0  0  0  0  0  0  0  0  0
   23.9540   72.4257    3.0331 C   0  0  1  0  0  0  0  0  0  0  0  0
   23.5674   73.4744    0.9203 C   0  0  1  0  0  0  0  0  0  0  0  0
   27.7877   73.5317    2.4378 H   0  0  0  0  0  0  0  0  0  0  0  0
   27.1327   72.4387    3.8378 H   0  0  0  0  0  0  0  0  0  0  0  0
   26.3304   74.6126   -0.4110 H   0  0  0  0  0  0  0  0  0  0  0  0
   22.0175   71.7029    4.2316 O   0  0  0  0  0  0  0  0  0  0  0  0
   23.3012   72.2742    4.4053 C   0  0  0  0  0  0  0  0  0  0  0  0
   21.5902   71.6003    5.0968 H   0  0  0  0  0  0  0  0  0  0  0  0
 25 28  1  0
 25 24  1  0
 25 26  1  6
 25 27  2  0
  1  4  1  0
  1 24  1  0
  1  2  1  1
  1  3  2  0
  6 11  1  0
  6 12  1  0
 29 36  1  0
 29 37  1  0
  9  7  1  6
  7 13  1  0
 10  8  1  6
  8 14  1  0
 37 28  1  1
  4  5  1  0
 33 30  1  1
 30 38  1  0
 34 31  1  6
 31 39  1  0
 35 32  1  6
 32 40  1  0
 41 42  1  0
 41 43  1  0
 15 19  2  0
 16 22  2  0
 12 17  1  1
 17 19  1  0
 17 20  1  0
 18 19  1  0
 18 22  1  0
 18 23  1  0
  9 10  1  0
  9 11  1  0
 10 12  1  0
 11  5  1  1
 33 34  1  0
 33 35  1  0
 34 36  1  0
 35 37  1  0
 36 42  1  1
 20 21  2  0
 21 22  1  0
M  CHG  2   2  -1  26  -1
M  END
>  <COMPND>  (81) 
    8629 

>  <AUTHOR>  (81) 
    GENERATED BY OPEN BABEL 3.1.1

>  <MASTER>  (81) 
        0    0    0    0    0    0    0    0   58    0   58    0

>  <minimizedAffinity>  (81) 
-6.80833

>  <CNNscore>  (81) 
0.7558810711

>  <CNNaffinity>  (81) 
4.3818063736

>  <CNN_VS>  (81) 
3.3121244907

>  <CNNaffinity_variance>  (81) 
0.0855709389

$$$$
82
     RDKit          3D

 43 45  0  0  0  0  0  0  0  0999 V2000
   22.0531   73.4048   -3.7246 P   0  0  2  0  0  0  0  0  0  0  0  0
   22.1854   74.9772   -3.3676 O   0  0  0  0  0  0  0  0  0  0  0  0
   23.0392   72.8995   -4.7364 O   0  0  0  0  0  0  0  0  0  0  0  0
   20.4928   73.2247   -4.1133 O   0  0  0  0  0  0  0  0  0  0  0  0
   19.7635   72.1696   -3.5111 C   0  0  0  0  0  0  0  0  0  0  0  0
   17.9770   72.8326   -4.9749 O   0  0  0  0  0  0  0  0  0  0  0  0
   16.1153   71.7740   -2.8762 O   0  0  0  0  0  0  0  0  0  0  0  0
   16.1457   69.7599   -4.7146 O   0  0  0  0  0  0  0  0  0  0  0  0
   17.3906   71.2805   -3.2830 C   0  0  1  0  0  0  0  0  0  0  0  0
   17.2838   70.5930   -4.6282 C   0  0  2  0  0  0  0  0  0  0  0  0
   18.2755   72.4777   -3.6070 C   0  0  1  0  0  0  0  0  0  0  0  0
   17.2174   71.7742   -5.5813 C   0  0  2  0  0  0  0  0  0  0  0  0
   15.5327   71.0274   -2.6637 H   0  0  0  0  0  0  0  0  0  0  0  0
   16.2355   69.0237   -4.0895 H   0  0  0  0  0  0  0  0  0  0  0  0
   15.7802   70.6264   -7.7248 O   0  0  0  0  0  0  0  0  0  0  0  0
   19.4842   70.6615  -10.4672 O   0  0  0  0  0  0  0  0  0  0  0  0
   17.7813   71.4731   -6.8668 N   0  0  0  0  0  0  0  0  0  0  0  0
   17.6257   70.6450   -9.0887 N   0  0  0  0  0  0  0  0  0  0  0  0
   16.9737   70.8964   -7.8747 C   0  0  0  0  0  0  0  0  0  0  0  0
   19.1208   71.7495   -7.1180 C   0  0  0  0  0  0  0  0  0  0  0  0
   19.7278   71.5025   -8.2807 C   0  0  0  0  0  0  0  0  0  0  0  0
   18.9548   70.9007   -9.3863 C   0  0  0  0  0  0  0  0  0  0  0  0
   17.0829   70.2431   -9.8054 H   0  0  0  0  0  0  0  0  0  0  0  0
   22.1511   72.6937   -2.2763 O   0  0  0  0  0  0  0  0  0  0  0  0
   23.1309   71.5303   -1.7291 P   0  0  2  0  0  0  0  0  0  0  0  0
   24.5902   72.2280   -1.7623 O   0  0  0  0  0  0  0  0  0  0  0  0
   23.0431   70.2415   -2.4942 O   0  0  0  0  0  0  0  0  0  0  0  0
   22.7760   71.4019   -0.1598 O   0  0  0  0  0  0  0  0  0  0  0  0
   23.7509   73.3759    0.7176 O   0  0  0  0  0  0  0  0  0  0  0  0
   21.8757   71.9943    4.1272 O   0  0  0  0  0  0  0  0  0  0  0  0
   20.8179   74.2858    2.7568 O   0  0  0  0  0  0  0  0  0  0  0  0
   23.1339   70.1229    2.3122 O   0  0  0  0  0  0  0  0  0  0  0  0
   22.0245   72.2209    2.7230 C   0  0  1  0  0  0  0  0  0  0  0  0
   22.1020   73.7305    2.4864 C   0  0  1  0  0  0  0  0  0  0  0  0
   23.3006   71.5347    2.2391 C   0  0  2  0  0  0  0  0  0  0  0  0
   22.5273   74.0444    1.0457 C   0  0  1  0  0  0  0  0  0  0  0  0
   23.6606   71.9529    0.8124 C   0  0  1  0  0  0  0  0  0  0  0  0
   21.0670   72.4270    4.4407 H   0  0  0  0  0  0  0  0  0  0  0  0
   20.5610   74.0801    3.6694 H   0  0  0  0  0  0  0  0  0  0  0  0
   22.9066   69.8708    3.2203 H   0  0  0  0  0  0  0  0  0  0  0  0
   22.7512   75.7999   -0.5596 O   0  0  0  0  0  0  0  0  0  0  0  0
   22.7636   75.5378    0.8316 C   0  0  0  0  0  0  0  0  0  0  0  0
   22.9001   76.7468   -0.7109 H   0  0  0  0  0  0  0  0  0  0  0  0
 25 28  1  0
 25 24  1  0
 25 26  1  1
 25 27  2  0
  1  4  1  0
  1 24  1  0
  1  2  1  1
  1  3  2  0
  6 11  1  0
  6 12  1  0
 29 36  1  0
 29 37  1  0
  9  7  1  6
  7 13  1  0
 10  8  1  1
  8 14  1  0
 37 28  1  6
  4  5  1  0
 33 30  1  1
 30 38  1  0
 34 31  1  6
 31 39  1  0
 35 32  1  6
 32 40  1  0
 41 42  1  0
 41 43  1  0
 15 19  2  0
 16 22  2  0
 12 17  1  6
 17 19  1  0
 17 20  1  0
 18 19  1  0
 18 22  1  0
 18 23  1  0
  9 10  1  0
  9 11  1  0
 10 12  1  0
 11  5  1  6
 33 34  1  0
 33 35  1  0
 34 36  1  0
 35 37  1  0
 36 42  1  1
 20 21  2  0
 21 22  1  0
M  CHG  2   2  -1  26  -1
M  END
>  <COMPND>  (82) 
    8629 

>  <AUTHOR>  (82) 
    GENERATED BY OPEN BABEL 3.1.1

>  <MASTER>  (82) 
        0    0    0    0    0    0    0    0   58    0   58    0

>  <minimizedAffinity>  (82) 
-6.49032

>  <CNNscore>  (82) 
0.7430968285

>  <CNNaffinity>  (82) 
4.4804363251

>  <CNN_VS>  (82) 
3.3293979168

>  <CNNaffinity_variance>  (82) 
0.0194842573

$$$$
83
     RDKit          3D

 43 45  0  0  0  0  0  0  0  0999 V2000
   22.2050   71.9835   -2.9426 P   0  0  2  0  0  0  0  0  0  0  0  0
   22.8919   72.8890   -4.0940 O   0  0  0  0  0  0  0  0  0  0  0  0
   22.5378   70.5216   -3.0033 O   0  0  0  0  0  0  0  0  0  0  0  0
   20.6327   72.3511   -3.0457 O   0  0  0  0  0  0  0  0  0  0  0  0
   19.7058   71.3014   -3.2620 C   0  0  0  0  0  0  0  0  0  0  0  0
   18.1467   72.4529   -4.6823 O   0  0  0  0  0  0  0  0  0  0  0  0
   16.0183   71.5183   -2.7882 O   0  0  0  0  0  0  0  0  0  0  0  0
   15.7791   69.7650   -4.8631 O   0  0  0  0  0  0  0  0  0  0  0  0
   17.2027   70.8480   -3.2163 C   0  0  1  0  0  0  0  0  0  0  0  0
   17.0430   70.3560   -4.6397 C   0  0  2  0  0  0  0  0  0  0  0  0
   18.3050   71.8897   -3.3616 C   0  0  1  0  0  0  0  0  0  0  0  0
   17.2407   71.6331   -5.4386 C   0  0  2  0  0  0  0  0  0  0  0  0
   15.3001   70.8732   -2.6881 H   0  0  0  0  0  0  0  0  0  0  0  0
   15.7019   68.9564   -4.3331 H   0  0  0  0  0  0  0  0  0  0  0  0
   15.7361   70.9848   -7.7394 O   0  0  0  0  0  0  0  0  0  0  0  0
   19.5184   70.7057  -10.3580 O   0  0  0  0  0  0  0  0  0  0  0  0
   17.8065   71.3863   -6.7348 N   0  0  0  0  0  0  0  0  0  0  0  0
   17.6206   70.8465   -9.0414 N   0  0  0  0  0  0  0  0  0  0  0  0
   16.9631   71.0673   -7.8245 C   0  0  0  0  0  0  0  0  0  0  0  0
   19.1833   71.4619   -6.9158 C   0  0  0  0  0  0  0  0  0  0  0  0
   19.7947   71.2473   -8.0825 C   0  0  0  0  0  0  0  0  0  0  0  0
   18.9859   70.9087   -9.2713 C   0  0  0  0  0  0  0  0  0  0  0  0
   17.0533   70.6224   -9.8146 H   0  0  0  0  0  0  0  0  0  0  0  0
   22.6620   72.7215   -1.5790 O   0  0  0  0  0  0  0  0  0  0  0  0
   24.1272   72.9517   -0.9363 P   0  0  2  0  0  0  0  0  0  0  0  0
   24.3494   74.5477   -1.0813 O   0  0  0  0  0  0  0  0  0  0  0  0
   25.2096   72.1169   -1.5571 O   0  0  0  0  0  0  0  0  0  0  0  0
   23.9215   72.7110    0.6464 O   0  0  0  0  0  0  0  0  0  0  0  0
   25.8259   71.8328    1.7502 O   0  0  0  0  0  0  0  0  0  0  0  0
   23.0089   71.2207    4.7067 O   0  0  0  0  0  0  0  0  0  0  0  0
   24.9771   73.2871    5.0295 O   0  0  0  0  0  0  0  0  0  0  0  0
   22.2994   70.8146    1.9298 O   0  0  0  0  0  0  0  0  0  0  0  0
   23.6240   71.9117    3.6160 C   0  0  1  0  0  0  0  0  0  0  0  0
   25.0517   72.2792    4.0250 C   0  0  1  0  0  0  0  0  0  0  0  0
   23.6336   71.0007    2.3898 C   0  0  2  0  0  0  0  0  0  0  0  0
   25.8605   72.7826    2.8219 C   0  0  1  0  0  0  0  0  0  0  0  0
   24.5060   71.5704    1.2698 C   0  0  1  0  0  0  0  0  0  0  0  0
   22.9991   71.7939    5.4883 H   0  0  0  0  0  0  0  0  0  0  0  0
   24.4635   72.9568    5.7833 H   0  0  0  0  0  0  0  0  0  0  0  0
   21.7574   70.4533    2.6478 H   0  0  0  0  0  0  0  0  0  0  0  0
   27.6982   72.0753    4.1752 O   0  0  0  0  0  0  0  0  0  0  0  0
   27.3298   73.0053    3.1733 C   0  0  0  0  0  0  0  0  0  0  0  0
   28.6312   72.2051    4.4087 H   0  0  0  0  0  0  0  0  0  0  0  0
 25 28  1  0
 25 24  1  0
 25 26  1  1
 25 27  2  0
  1  4  1  0
  1 24  1  0
  1  2  1  6
  1  3  2  0
  6 11  1  0
  6 12  1  0
 29 36  1  0
 29 37  1  0
  9  7  1  6
  7 13  1  0
 10  8  1  1
  8 14  1  0
 37 28  1  1
  4  5  1  0
 33 30  1  1
 30 38  1  0
 34 31  1  1
 31 39  1  0
 35 32  1  6
 32 40  1  0
 41 42  1  0
 41 43  1  0
 15 19  2  0
 16 22  2  0
 12 17  1  6
 17 19  1  0
 17 20  1  0
 18 19  1  0
 18 22  1  0
 18 23  1  0
  9 10  1  0
  9 11  1  0
 10 12  1  0
 11  5  1  6
 33 34  1  0
 33 35  1  0
 34 36  1  0
 35 37  1  0
 36 42  1  1
 20 21  2  0
 21 22  1  0
M  CHG  2   2  -1  26  -1
M  END
>  <COMPND>  (83) 
    8629 

>  <AUTHOR>  (83) 
    GENERATED BY OPEN BABEL 3.1.1

>  <MASTER>  (83) 
        0    0    0    0    0    0    0    0   58    0   58    0

>  <minimizedAffinity>  (83) 
-6.54230

>  <CNNscore>  (83) 
0.7268297672

>  <CNNaffinity>  (83) 
4.5629553795

>  <CNN_VS>  (83) 
3.3164918423

>  <CNNaffinity_variance>  (83) 
0.0701195225

$$$$
84
     RDKit          3D

 43 45  0  0  0  0  0  0  0  0999 V2000
   23.1376   72.4911   -3.0932 P   0  0  2  0  0  0  0  0  0  0  0  0
   24.4702   72.3434   -3.9986 O   0  0  0  0  0  0  0  0  0  0  0  0
   22.6603   71.2193   -2.4559 O   0  0  0  0  0  0  0  0  0  0  0  0
   22.0808   73.2249   -4.0744 O   0  0  0  0  0  0  0  0  0  0  0  0
   21.2556   72.4225   -4.9007 C   0  0  0  0  0  0  0  0  0  0  0  0
   20.8764   71.8181   -7.1952 O   0  0  0  0  0  0  0  0  0  0  0  0
   21.3794   74.7023   -7.8428 O   0  0  0  0  0  0  0  0  0  0  0  0
   18.6582   74.5421   -7.9180 O   0  0  0  0  0  0  0  0  0  0  0  0
   20.7274   74.1326   -6.7089 C   0  0  1  0  0  0  0  0  0  0  0  0
   19.3513   73.6292   -7.0916 C   0  0  2  0  0  0  0  0  0  0  0  0
   21.4510   72.8403   -6.3517 C   0  0  1  0  0  0  0  0  0  0  0  0
   19.6787   72.3279   -7.8040 C   0  0  2  0  0  0  0  0  0  0  0  0
   20.9351   75.5292   -8.0895 H   0  0  0  0  0  0  0  0  0  0  0  0
   18.4730   75.3533   -7.4197 H   0  0  0  0  0  0  0  0  0  0  0  0
   18.7089   70.7246   -9.9175 O   0  0  0  0  0  0  0  0  0  0  0  0
   15.6698   68.6166   -7.1676 O   0  0  0  0  0  0  0  0  0  0  0  0
   18.6348   71.3515   -7.6684 N   0  0  0  0  0  0  0  0  0  0  0  0
   17.1966   69.6762   -8.5465 N   0  0  0  0  0  0  0  0  0  0  0  0
   18.2208   70.5996   -8.7924 C   0  0  0  0  0  0  0  0  0  0  0  0
   18.0334   71.1474   -6.4312 C   0  0  0  0  0  0  0  0  0  0  0  0
   17.0571   70.2638   -6.2136 C   0  0  0  0  0  0  0  0  0  0  0  0
   16.5663   69.4377   -7.3355 C   0  0  0  0  0  0  0  0  0  0  0  0
   16.8916   69.1413   -9.3150 H   0  0  0  0  0  0  0  0  0  0  0  0
   23.5352   73.6590   -2.0488 O   0  0  0  0  0  0  0  0  0  0  0  0
   22.6699   74.3936   -0.8979 P   0  0  2  0  0  0  0  0  0  0  0  0
   21.2069   73.7191   -1.0462 O   0  0  0  0  0  0  0  0  0  0  0  0
   22.6729   75.8922   -0.9880 O   0  0  0  0  0  0  0  0  0  0  0  0
   23.2513   73.8057    0.4882 O   0  0  0  0  0  0  0  0  0  0  0  0
   25.3364   72.8929    1.1482 O   0  0  0  0  0  0  0  0  0  0  0  0
   22.8185   70.2134    3.0275 O   0  0  0  0  0  0  0  0  0  0  0  0
   24.2638   72.1387    4.5935 O   0  0  0  0  0  0  0  0  0  0  0  0
   22.1469   71.2274    0.4007 O   0  0  0  0  0  0  0  0  0  0  0  0
   23.2273   71.4931    2.5369 C   0  0  1  0  0  0  0  0  0  0  0  0
   24.5420   71.8716    3.2218 C   0  0  1  0  0  0  0  0  0  0  0  0
   23.4139   71.4109    1.0230 C   0  0  2  0  0  0  0  0  0  0  0  0
   25.1796   73.0991    2.5570 C   0  0  1  0  0  0  0  0  0  0  0  0
   24.1003   72.6611    0.4698 C   0  0  1  0  0  0  0  0  0  0  0  0
   22.6978   70.2589    3.9881 H   0  0  0  0  0  0  0  0  0  0  0  0
   23.8611   71.3559    5.0013 H   0  0  0  0  0  0  0  0  0  0  0  0
   21.7227   70.4328    0.7591 H   0  0  0  0  0  0  0  0  0  0  0  0
   27.0811   72.2152    3.7023 O   0  0  0  0  0  0  0  0  0  0  0  0
   26.5666   73.3991    3.1210 C   0  0  0  0  0  0  0  0  0  0  0  0
   27.9638   72.3910    4.0652 H   0  0  0  0  0  0  0  0  0  0  0  0
 25 28  1  0
 25 24  1  0
 25 26  1  6
 25 27  2  0
  1  4  1  0
  1 24  1  0
  1  2  1  6
  1  3  2  0
  6 11  1  0
  6 12  1  0
 29 36  1  0
 29 37  1  0
  9  7  1  6
  7 13  1  0
 10  8  1  6
  8 14  1  0
 37 28  1  1
  4  5  1  0
 33 30  1  1
 30 38  1  0
 34 31  1  1
 31 39  1  0
 35 32  1  6
 32 40  1  0
 41 42  1  0
 41 43  1  0
 15 19  2  0
 16 22  2  0
 12 17  1  1
 17 19  1  0
 17 20  1  0
 18 19  1  0
 18 22  1  0
 18 23  1  0
  9 10  1  0
  9 11  1  0
 10 12  1  0
 11  5  1  1
 33 34  1  0
 33 35  1  0
 34 36  1  0
 35 37  1  0
 36 42  1  1
 20 21  2  0
 21 22  1  0
M  CHG  2   2  -1  26  -1
M  END
>  <COMPND>  (84) 
    8629 

>  <AUTHOR>  (84) 
    GENERATED BY OPEN BABEL 3.1.1

>  <MASTER>  (84) 
        0    0    0    0    0    0    0    0   58    0   58    0

>  <minimizedAffinity>  (84) 
-7.14621

>  <CNNscore>  (84) 
0.6711013317

>  <CNNaffinity>  (84) 
4.3135061264

>  <CNN_VS>  (84) 
2.8947997093

>  <CNNaffinity_variance>  (84) 
0.0745199993

$$$$
85
     RDKit          3D

 43 45  0  0  0  0  0  0  0  0999 V2000
   19.4081   74.7261   -1.8801 P   0  0  2  0  0  0  0  0  0  0  0  0
   18.1698   73.8287   -1.3520 O   0  0  0  0  0  0  0  0  0  0  0  0
   19.3831   76.1610   -1.4420 O   0  0  0  0  0  0  0  0  0  0  0  0
   19.4121   74.4797   -3.4792 O   0  0  0  0  0  0  0  0  0  0  0  0
   18.9877   73.2201   -3.9703 C   0  0  0  0  0  0  0  0  0  0  0  0
   19.7123   71.2534   -5.1454 O   0  0  0  0  0  0  0  0  0  0  0  0
   22.1521   72.8274   -5.8940 O   0  0  0  0  0  0  0  0  0  0  0  0
   20.6398   72.9620   -8.1592 O   0  0  0  0  0  0  0  0  0  0  0  0
   20.8026   73.2679   -5.7527 C   0  0  1  0  0  0  0  0  0  0  0  0
   19.9698   72.7958   -6.9263 C   0  0  2  0  0  0  0  0  0  0  0  0
   20.1786   72.5035   -4.5919 C   0  0  1  0  0  0  0  0  0  0  0  0
   19.7367   71.3350   -6.5798 C   0  0  2  0  0  0  0  0  0  0  0  0
   22.5717   73.3020   -6.6294 H   0  0  0  0  0  0  0  0  0  0  0  0
   20.7644   73.9078   -8.3347 H   0  0  0  0  0  0  0  0  0  0  0  0
   19.3286   70.5198   -9.2531 O   0  0  0  0  0  0  0  0  0  0  0  0
   14.9158   69.4607   -8.4492 O   0  0  0  0  0  0  0  0  0  0  0  0
   18.4912   70.8417   -7.0962 N   0  0  0  0  0  0  0  0  0  0  0  0
   17.1317   69.9929   -8.8506 N   0  0  0  0  0  0  0  0  0  0  0  0
   18.3916   70.4595   -8.4544 C   0  0  0  0  0  0  0  0  0  0  0  0
   17.3854   70.7404   -6.2591 C   0  0  0  0  0  0  0  0  0  0  0  0
   16.1906   70.2946   -6.6528 C   0  0  0  0  0  0  0  0  0  0  0  0
   16.0021   69.8750   -8.0565 C   0  0  0  0  0  0  0  0  0  0  0  0
   17.0386   69.7214   -9.7926 H   0  0  0  0  0  0  0  0  0  0  0  0
   20.7000   73.8927   -1.3808 O   0  0  0  0  0  0  0  0  0  0  0  0
   22.2808   74.1646   -1.5804 P   0  0  2  0  0  0  0  0  0  0  0  0
   22.3952   75.7756   -1.4847 O   0  0  0  0  0  0  0  0  0  0  0  0
   22.8523   73.5769   -2.8382 O   0  0  0  0  0  0  0  0  0  0  0  0
   22.9629   73.6260   -0.2204 O   0  0  0  0  0  0  0  0  0  0  0  0
   25.0795   72.6420    0.1900 O   0  0  0  0  0  0  0  0  0  0  0  0
   22.7850   70.3686    2.7625 O   0  0  0  0  0  0  0  0  0  0  0  0
   24.5775   72.3424    3.8296 O   0  0  0  0  0  0  0  0  0  0  0  0
   21.7258   71.1394    0.1811 O   0  0  0  0  0  0  0  0  0  0  0  0
   23.1701   71.5552    2.0632 C   0  0  1  0  0  0  0  0  0  0  0  0
   24.6011   71.9098    2.4722 C   0  0  1  0  0  0  0  0  0  0  0  0
   23.0889   71.2972    0.5598 C   0  0  2  0  0  0  0  0  0  0  0  0
   25.1785   73.0095    1.5709 C   0  0  1  0  0  0  0  0  0  0  0  0
   23.7347   72.4280   -0.2430 C   0  0  1  0  0  0  0  0  0  0  0  0
   22.8339   70.5258    3.7176 H   0  0  0  0  0  0  0  0  0  0  0  0
   24.2104   71.6391    4.3881 H   0  0  0  0  0  0  0  0  0  0  0  0
   21.3284   70.4205    0.6961 H   0  0  0  0  0  0  0  0  0  0  0  0
   27.2118   72.1013    2.4368 O   0  0  0  0  0  0  0  0  0  0  0  0
   26.6558   73.2680    1.8589 C   0  0  0  0  0  0  0  0  0  0  0  0
   28.1519   72.2511    2.6252 H   0  0  0  0  0  0  0  0  0  0  0  0
 25 28  1  0
 25 24  1  0
 25 26  1  6
 25 27  2  0
  1  4  1  0
  1 24  1  0
  1  2  1  1
  1  3  2  0
  6 11  1  0
  6 12  1  0
 29 36  1  0
 29 37  1  0
  9  7  1  6
  7 13  1  0
 10  8  1  6
  8 14  1  0
 37 28  1  1
  4  5  1  0
 33 30  1  1
 30 38  1  0
 34 31  1  1
 31 39  1  0
 35 32  1  6
 32 40  1  0
 41 42  1  0
 41 43  1  0
 15 19  2  0
 16 22  2  0
 12 17  1  6
 17 19  1  0
 17 20  1  0
 18 19  1  0
 18 22  1  0
 18 23  1  0
  9 10  1  0
  9 11  1  0
 10 12  1  0
 11  5  1  6
 33 34  1  0
 33 35  1  0
 34 36  1  0
 35 37  1  0
 36 42  1  1
 20 21  2  0
 21 22  1  0
M  CHG  2   2  -1  26  -1
M  END
>  <COMPND>  (85) 
    8629 

>  <AUTHOR>  (85) 
    GENERATED BY OPEN BABEL 3.1.1

>  <MASTER>  (85) 
        0    0    0    0    0    0    0    0   58    0   58    0

>  <minimizedAffinity>  (85) 
-6.67782

>  <CNNscore>  (85) 
0.5884447098

>  <CNNaffinity>  (85) 
4.2507309914

>  <CNN_VS>  (85) 
2.5013201237

>  <CNNaffinity_variance>  (85) 
0.0100943800

$$$$
86
     RDKit          3D

 43 45  0  0  0  0  0  0  0  0999 V2000
   19.1658   73.6450   -1.2891 P   0  0  2  0  0  0  0  0  0  0  0  0
   18.0988   72.4290   -1.3055 O   0  0  0  0  0  0  0  0  0  0  0  0
   18.6191   74.9615   -0.8207 O   0  0  0  0  0  0  0  0  0  0  0  0
   19.7897   73.6345   -2.7819 O   0  0  0  0  0  0  0  0  0  0  0  0
   19.2636   72.7203   -3.7282 C   0  0  0  0  0  0  0  0  0  0  0  0
   19.9210   70.9633   -5.2297 O   0  0  0  0  0  0  0  0  0  0  0  0
   22.2534   72.7052   -5.9484 O   0  0  0  0  0  0  0  0  0  0  0  0
   20.5448   73.1087   -8.0352 O   0  0  0  0  0  0  0  0  0  0  0  0
   20.9130   73.0775   -5.6321 C   0  0  1  0  0  0  0  0  0  0  0  0
   19.9896   72.7488   -6.7866 C   0  0  2  0  0  0  0  0  0  0  0  0
   20.4091   72.1373   -4.5442 C   0  0  1  0  0  0  0  0  0  0  0  0
   19.8173   71.2470   -6.6345 C   0  0  2  0  0  0  0  0  0  0  0  0
   22.5969   73.2920   -6.6410 H   0  0  0  0  0  0  0  0  0  0  0  0
   20.6345   74.0732   -8.0834 H   0  0  0  0  0  0  0  0  0  0  0  0
   19.2459   70.6279   -9.3305 O   0  0  0  0  0  0  0  0  0  0  0  0
   14.8860   69.5090   -8.3406 O   0  0  0  0  0  0  0  0  0  0  0  0
   18.5412   70.7913   -7.1093 N   0  0  0  0  0  0  0  0  0  0  0  0
   17.0755   70.0711   -8.8354 N   0  0  0  0  0  0  0  0  0  0  0  0
   18.3586   70.5089   -8.4831 C   0  0  0  0  0  0  0  0  0  0  0  0
   17.4875   70.6283   -6.2165 C   0  0  0  0  0  0  0  0  0  0  0  0
   16.2697   70.2112   -6.5687 C   0  0  0  0  0  0  0  0  0  0  0  0
   15.9954   69.8946   -7.9852 C   0  0  0  0  0  0  0  0  0  0  0  0
   16.9248   69.8687   -9.7873 H   0  0  0  0  0  0  0  0  0  0  0  0
   20.3719   73.0582   -0.3871 O   0  0  0  0  0  0  0  0  0  0  0  0
   21.2565   71.7141   -0.5420 P   0  0  2  0  0  0  0  0  0  0  0  0
   22.3517   72.1177   -1.6623 O   0  0  0  0  0  0  0  0  0  0  0  0
   20.4576   70.4863   -0.8710 O   0  0  0  0  0  0  0  0  0  0  0  0
   22.0964   71.6171    0.8328 O   0  0  0  0  0  0  0  0  0  0  0  0
   22.3372   73.0489    2.7059 O   0  0  0  0  0  0  0  0  0  0  0  0
   26.2721   71.8796    2.2592 O   0  0  0  0  0  0  0  0  0  0  0  0
   24.7312   70.8611    4.4583 O   0  0  0  0  0  0  0  0  0  0  0  0
   24.6393   72.3771   -0.0788 O   0  0  0  0  0  0  0  0  0  0  0  0
   24.8520   71.7139    2.2269 C   0  0  1  0  0  0  0  0  0  0  0  0
   24.3097   71.9476    3.6384 C   0  0  1  0  0  0  0  0  0  0  0  0
   24.2539   72.7221    1.2475 C   0  0  2  0  0  0  0  0  0  0  0  0
   22.7786   72.0508    3.6336 C   0  0  1  0  0  0  0  0  0  0  0  0
   22.7293   72.7810    1.3582 C   0  0  1  0  0  0  0  0  0  0  0  0
   26.6581   71.2421    2.8789 H   0  0  0  0  0  0  0  0  0  0  0  0
   25.6998   70.8067    4.4523 H   0  0  0  0  0  0  0  0  0  0  0  0
   25.6065   72.3434   -0.1359 H   0  0  0  0  0  0  0  0  0  0  0  0
   20.9613   71.8283    5.1688 O   0  0  0  0  0  0  0  0  0  0  0  0
   22.2273   72.4400    5.0035 C   0  0  0  0  0  0  0  0  0  0  0  0
   20.5984   72.0669    6.0366 H   0  0  0  0  0  0  0  0  0  0  0  0
 25 28  1  0
 25 24  1  0
 25 26  1  6
 25 27  2  0
  1  4  1  0
  1 24  1  0
  1  2  1  6
  1  3  2  0
  6 11  1  0
  6 12  1  0
 29 36  1  0
 29 37  1  0
  9  7  1  6
  7 13  1  0
 10  8  1  6
  8 14  1  0
 37 28  1  1
  4  5  1  0
 33 30  1  1
 30 38  1  0
 34 31  1  1
 31 39  1  0
 35 32  1  6
 32 40  1  0
 41 42  1  0
 41 43  1  0
 15 19  2  0
 16 22  2  0
 12 17  1  1
 17 19  1  0
 17 20  1  0
 18 19  1  0
 18 22  1  0
 18 23  1  0
  9 10  1  0
  9 11  1  0
 10 12  1  0
 11  5  1  6
 33 34  1  0
 33 35  1  0
 34 36  1  0
 35 37  1  0
 36 42  1  1
 20 21  2  0
 21 22  1  0
M  CHG  2   2  -1  26  -1
M  END
>  <COMPND>  (86) 
    8629 

>  <AUTHOR>  (86) 
    GENERATED BY OPEN BABEL 3.1.1

>  <MASTER>  (86) 
        0    0    0    0    0    0    0    0   58    0   58    0

>  <minimizedAffinity>  (86) 
-7.15012

>  <CNNscore>  (86) 
0.5699579120

>  <CNNaffinity>  (86) 
4.3731255531

>  <CNN_VS>  (86) 
2.4924974442

>  <CNNaffinity_variance>  (86) 
0.0279811565

$$$$
87
     RDKit          3D

 43 45  0  0  0  0  0  0  0  0999 V2000
   22.3317   73.3863   -3.7045 P   0  0  2  0  0  0  0  0  0  0  0  0
   21.8918   74.9408   -3.6180 O   0  0  0  0  0  0  0  0  0  0  0  0
   23.3776   73.0801   -4.7359 O   0  0  0  0  0  0  0  0  0  0  0  0
   20.9302   72.5946   -3.8683 O   0  0  0  0  0  0  0  0  0  0  0  0
   20.2481   72.6769   -5.1076 C   0  0  0  0  0  0  0  0  0  0  0  0
   19.1568   70.7755   -6.0912 O   0  0  0  0  0  0  0  0  0  0  0  0
   21.6880   70.3617   -7.6444 O   0  0  0  0  0  0  0  0  0  0  0  0
   20.0575   71.5592   -9.4731 O   0  0  0  0  0  0  0  0  0  0  0  0
   21.0565   71.5808   -7.2566 C   0  0  1  0  0  0  0  0  0  0  0  0
   19.8271   71.8293   -8.1053 C   0  0  2  0  0  0  0  0  0  0  0  0
   20.4519   71.3766   -5.8730 C   0  0  1  0  0  0  0  0  0  0  0  0
   18.8178   70.8791   -7.4837 C   0  0  2  0  0  0  0  0  0  0  0  0
   22.0819   70.4678   -8.5250 H   0  0  0  0  0  0  0  0  0  0  0  0
   20.7063   72.1899   -9.8225 H   0  0  0  0  0  0  0  0  0  0  0  0
   16.6541   69.3390   -8.4455 O   0  0  0  0  0  0  0  0  0  0  0  0
   13.6893   72.8239   -7.8913 O   0  0  0  0  0  0  0  0  0  0  0  0
   17.4696   71.3587   -7.6010 N   0  0  0  0  0  0  0  0  0  0  0  0
   15.1796   71.0754   -8.1686 N   0  0  0  0  0  0  0  0  0  0  0  0
   16.4569   70.5049   -8.0968 C   0  0  0  0  0  0  0  0  0  0  0  0
   17.1628   72.6623   -7.2263 C   0  0  0  0  0  0  0  0  0  0  0  0
   15.9399   73.1916   -7.3021 C   0  0  0  0  0  0  0  0  0  0  0  0
   14.8249   72.3661   -7.8095 C   0  0  0  0  0  0  0  0  0  0  0  0
   14.4582   70.4993   -8.5114 H   0  0  0  0  0  0  0  0  0  0  0  0
   22.7656   73.0463   -2.1849 O   0  0  0  0  0  0  0  0  0  0  0  0
   23.4302   71.7203   -1.5421 P   0  0  2  0  0  0  0  0  0  0  0  0
   24.9940   72.1144   -1.4128 O   0  0  0  0  0  0  0  0  0  0  0  0
   23.1708   70.4629   -2.3203 O   0  0  0  0  0  0  0  0  0  0  0  0
   22.8906   71.6891   -0.0213 O   0  0  0  0  0  0  0  0  0  0  0  0
   23.9249   73.5138    1.0819 O   0  0  0  0  0  0  0  0  0  0  0  0
   21.7820   71.9565    4.2495 O   0  0  0  0  0  0  0  0  0  0  0  0
   20.9369   74.4210    3.0410 O   0  0  0  0  0  0  0  0  0  0  0  0
   23.0330   70.1777    2.3389 O   0  0  0  0  0  0  0  0  0  0  0  0
   22.0236   72.2962    2.8814 C   0  0  1  0  0  0  0  0  0  0  0  0
   22.2005   73.8130    2.7879 C   0  0  1  0  0  0  0  0  0  0  0  0
   23.2839   71.5774    2.4037 C   0  0  2  0  0  0  0  0  0  0  0  0
   22.7247   74.2255    1.4058 C   0  0  1  0  0  0  0  0  0  0  0  0
   23.7482   72.0964    1.0416 C   0  0  1  0  0  0  0  0  0  0  0  0
   20.9828   72.4093    4.5588 H   0  0  0  0  0  0  0  0  0  0  0  0
   20.6169   74.1521    3.9165 H   0  0  0  0  0  0  0  0  0  0  0  0
   22.7401   69.8613    3.2072 H   0  0  0  0  0  0  0  0  0  0  0  0
   23.4670   76.0268    0.0226 O   0  0  0  0  0  0  0  0  0  0  0  0
   23.0579   75.7144    1.3415 C   0  0  0  0  0  0  0  0  0  0  0  0
   23.6820   76.9715   -0.0334 H   0  0  0  0  0  0  0  0  0  0  0  0
 25 28  1  0
 25 24  1  0
 25 26  1  1
 25 27  2  0
  1  4  1  0
  1 24  1  0
  1  2  1  1
  1  3  2  0
  6 11  1  0
  6 12  1  0
 29 36  1  0
 29 37  1  0
  9  7  1  6
  7 13  1  0
 10  8  1  6
  8 14  1  0
 37 28  1  6
  4  5  1  0
 33 30  1  1
 30 38  1  0
 34 31  1  6
 31 39  1  0
 35 32  1  6
 32 40  1  0
 41 42  1  0
 41 43  1  0
 15 19  2  0
 16 22  2  0
 12 17  1  1
 17 19  1  0
 17 20  1  0
 18 19  1  0
 18 22  1  0
 18 23  1  0
  9 10  1  0
  9 11  1  0
 10 12  1  0
 11  5  1  6
 33 34  1  0
 33 35  1  0
 34 36  1  0
 35 37  1  0
 36 42  1  1
 20 21  2  0
 21 22  1  0
M  CHG  2   2  -1  26  -1
M  END
>  <COMPND>  (87) 
    8629 

>  <AUTHOR>  (87) 
    GENERATED BY OPEN BABEL 3.1.1

>  <MASTER>  (87) 
        0    0    0    0    0    0    0    0   58    0   58    0

>  <minimizedAffinity>  (87) 
-6.93106

>  <CNNscore>  (87) 
0.5124675632

>  <CNNaffinity>  (87) 
4.2044115067

>  <CNN_VS>  (87) 
2.1546244621

>  <CNNaffinity_variance>  (87) 
0.0055942251

$$$$
88
     RDKit          3D

 43 45  0  0  0  0  0  0  0  0999 V2000
   22.3999   72.6228   -3.6380 P   0  0  2  0  0  0  0  0  0  0  0  0
   23.7343   72.6851   -4.5506 O   0  0  0  0  0  0  0  0  0  0  0  0
   22.1235   71.2885   -3.0097 O   0  0  0  0  0  0  0  0  0  0  0  0
   21.2389   73.1967   -4.6079 O   0  0  0  0  0  0  0  0  0  0  0  0
   20.0505   72.4403   -4.7607 C   0  0  0  0  0  0  0  0  0  0  0  0
   19.0701   70.6523   -6.0318 O   0  0  0  0  0  0  0  0  0  0  0  0
   21.6933   70.4905   -7.4751 O   0  0  0  0  0  0  0  0  0  0  0  0
   20.1312   71.8698   -9.2341 O   0  0  0  0  0  0  0  0  0  0  0  0
   21.0065   71.6378   -6.9777 C   0  0  1  0  0  0  0  0  0  0  0  0
   19.8187   71.9627   -7.8592 C   0  0  2  0  0  0  0  0  0  0  0  0
   20.3334   71.2500   -5.6670 C   0  0  1  0  0  0  0  0  0  0  0  0
   18.8048   70.9206   -7.4183 C   0  0  2  0  0  0  0  0  0  0  0  0
   22.1315   70.7137   -8.3118 H   0  0  0  0  0  0  0  0  0  0  0  0
   20.7796   72.5531   -9.4653 H   0  0  0  0  0  0  0  0  0  0  0  0
   16.6912   69.3752   -8.4778 O   0  0  0  0  0  0  0  0  0  0  0  0
   13.6547   72.7922   -7.8906 O   0  0  0  0  0  0  0  0  0  0  0  0
   17.4517   71.3813   -7.5536 N   0  0  0  0  0  0  0  0  0  0  0  0
   15.1810   71.0778   -8.1844 N   0  0  0  0  0  0  0  0  0  0  0  0
   16.4658   70.5265   -8.0991 C   0  0  0  0  0  0  0  0  0  0  0  0
   17.1138   72.6677   -7.1473 C   0  0  0  0  0  0  0  0  0  0  0  0
   15.8842   73.1788   -7.2366 C   0  0  0  0  0  0  0  0  0  0  0  0
   14.7958   72.3510   -7.7953 C   0  0  0  0  0  0  0  0  0  0  0  0
   14.4779   70.5007   -8.5617 H   0  0  0  0  0  0  0  0  0  0  0  0
   22.6229   73.8289   -2.5852 O   0  0  0  0  0  0  0  0  0  0  0  0
   21.7771   74.2684   -1.2797 P   0  0  2  0  0  0  0  0  0  0  0  0
   20.4599   73.3323   -1.3585 O   0  0  0  0  0  0  0  0  0  0  0  0
   21.4876   75.7394   -1.2006 O   0  0  0  0  0  0  0  0  0  0  0  0
   22.6183   73.6843   -0.0322 O   0  0  0  0  0  0  0  0  0  0  0  0
   24.8185   72.8331    0.1941 O   0  0  0  0  0  0  0  0  0  0  0  0
   22.8065   70.0929    2.5380 O   0  0  0  0  0  0  0  0  0  0  0  0
   24.4820   72.0649    3.7838 O   0  0  0  0  0  0  0  0  0  0  0  0
   21.5923   71.0758    0.1010 O   0  0  0  0  0  0  0  0  0  0  0  0
   23.0720   71.3812    1.9768 C   0  0  1  0  0  0  0  0  0  0  0  0
   24.4863   71.7994    2.3838 C   0  0  1  0  0  0  0  0  0  0  0  0
   22.9528   71.2974    0.4562 C   0  0  2  0  0  0  0  0  0  0  0  0
   24.9423   73.0412    1.6059 C   0  0  1  0  0  0  0  0  0  0  0  0
   23.4784   72.5638   -0.2222 C   0  0  1  0  0  0  0  0  0  0  0  0
   22.8800   70.1393    3.5034 H   0  0  0  0  0  0  0  0  0  0  0  0
   24.1918   71.2730    4.2634 H   0  0  0  0  0  0  0  0  0  0  0  0
   21.2715   70.2712    0.5365 H   0  0  0  0  0  0  0  0  0  0  0  0
   27.0913   72.1884    2.2086 O   0  0  0  0  0  0  0  0  0  0  0  0
   26.4053   73.3824    1.8800 C   0  0  0  0  0  0  0  0  0  0  0  0
   28.0239   72.3902    2.3853 H   0  0  0  0  0  0  0  0  0  0  0  0
 25 28  1  0
 25 24  1  0
 25 26  1  6
 25 27  2  0
  1  4  1  0
  1 24  1  0
  1  2  1  6
  1  3  2  0
  6 11  1  0
  6 12  1  0
 29 36  1  0
 29 37  1  0
  9  7  1  6
  7 13  1  0
 10  8  1  6
  8 14  1  0
 37 28  1  1
  4  5  1  0
 33 30  1  1
 30 38  1  0
 34 31  1  1
 31 39  1  0
 35 32  1  1
 32 40  1  0
 41 42  1  0
 41 43  1  0
 15 19  2  0
 16 22  2  0
 12 17  1  1
 17 19  1  0
 17 20  1  0
 18 19  1  0
 18 22  1  0
 18 23  1  0
  9 10  1  0
  9 11  1  0
 10 12  1  0
 11  5  1  1
 33 34  1  0
 33 35  1  0
 34 36  1  0
 35 37  1  0
 36 42  1  6
 20 21  2  0
 21 22  1  0
M  CHG  2   2  -1  26  -1
M  END
>  <COMPND>  (88) 
    8629 

>  <AUTHOR>  (88) 
    GENERATED BY OPEN BABEL 3.1.1

>  <MASTER>  (88) 
        0    0    0    0    0    0    0    0   58    0   58    0

>  <minimizedAffinity>  (88) 
-7.39165

>  <CNNscore>  (88) 
0.4493207335

>  <CNNaffinity>  (88) 
4.2728700638

>  <CNN_VS>  (88) 
1.9198890924

>  <CNNaffinity_variance>  (88) 
0.0026412173

$$$$
89
     RDKit          3D

 43 45  0  0  0  0  0  0  0  0999 V2000
   22.3917   73.5424   -4.0689 P   0  0  2  0  0  0  0  0  0  0  0  0
   22.4752   75.0654   -3.5295 O   0  0  0  0  0  0  0  0  0  0  0  0
   23.7082   72.9322   -4.4507 O   0  0  0  0  0  0  0  0  0  0  0  0
   21.2801   73.6065   -5.2428 O   0  0  0  0  0  0  0  0  0  0  0  0
   20.1211   72.8004   -5.1212 C   0  0  0  0  0  0  0  0  0  0  0  0
   19.0716   70.8683   -6.0905 O   0  0  0  0  0  0  0  0  0  0  0  0
   21.6549   70.4279   -7.5476 O   0  0  0  0  0  0  0  0  0  0  0  0
   20.0809   71.5688   -9.4600 O   0  0  0  0  0  0  0  0  0  0  0  0
   21.0055   71.6532   -7.2129 C   0  0  1  0  0  0  0  0  0  0  0  0
   19.8039   71.8731   -8.1081 C   0  0  2  0  0  0  0  0  0  0  0  0
   20.3561   71.4818   -5.8453 C   0  0  1  0  0  0  0  0  0  0  0  0
   18.7787   70.9339   -7.4957 C   0  0  2  0  0  0  0  0  0  0  0  0
   22.0775   70.5131   -8.4171 H   0  0  0  0  0  0  0  0  0  0  0  0
   20.7381   72.1937   -9.8041 H   0  0  0  0  0  0  0  0  0  0  0  0
   16.6253   69.3215   -8.3565 O   0  0  0  0  0  0  0  0  0  0  0  0
   13.6595   72.8420   -8.1306 O   0  0  0  0  0  0  0  0  0  0  0  0
   17.4330   71.4032   -7.6701 N   0  0  0  0  0  0  0  0  0  0  0  0
   15.1503   71.0757   -8.2432 N   0  0  0  0  0  0  0  0  0  0  0  0
   16.4255   70.5121   -8.1076 C   0  0  0  0  0  0  0  0  0  0  0  0
   17.1235   72.7334   -7.4080 C   0  0  0  0  0  0  0  0  0  0  0  0
   15.9027   73.2555   -7.5435 C   0  0  0  0  0  0  0  0  0  0  0  0
   14.7931   72.3918   -7.9962 C   0  0  0  0  0  0  0  0  0  0  0  0
   14.4325   70.4739   -8.5471 H   0  0  0  0  0  0  0  0  0  0  0  0
   21.6160   72.7762   -2.8755 O   0  0  0  0  0  0  0  0  0  0  0  0
   22.0783   71.5573   -1.9197 P   0  0  2  0  0  0  0  0  0  0  0  0
   22.6430   70.4595   -2.9653 O   0  0  0  0  0  0  0  0  0  0  0  0
   21.0000   71.0471   -1.0081 O   0  0  0  0  0  0  0  0  0  0  0  0
   23.3908   72.1093   -1.1597 O   0  0  0  0  0  0  0  0  0  0  0  0
   23.1141   72.4690    1.1664 O   0  0  0  0  0  0  0  0  0  0  0  0
   26.6562   74.5142    0.5992 O   0  0  0  0  0  0  0  0  0  0  0  0
   26.6789   71.9940    1.9760 O   0  0  0  0  0  0  0  0  0  0  0  0
   24.5786   74.6392   -1.4126 O   0  0  0  0  0  0  0  0  0  0  0  0
   25.7014   73.4741    0.3715 C   0  0  1  0  0  0  0  0  0  0  0  0
   25.4887   72.7220    1.6868 C   0  0  1  0  0  0  0  0  0  0  0  0
   24.3917   74.0954   -0.1104 C   0  0  2  0  0  0  0  0  0  0  0  0
   24.2892   71.7695    1.5926 C   0  0  1  0  0  0  0  0  0  0  0  0
   23.2524   73.0747   -0.1204 C   0  0  1  0  0  0  0  0  0  0  0  0
   27.4902   74.1264    0.9049 H   0  0  0  0  0  0  0  0  0  0  0  0
   27.4288   72.6070    2.0324 H   0  0  0  0  0  0  0  0  0  0  0  0
   25.3022   75.2841   -1.3929 H   0  0  0  0  0  0  0  0  0  0  0  0
   22.8588   70.2569    2.7651 O   0  0  0  0  0  0  0  0  0  0  0  0
   23.9621   71.1268    2.9387 C   0  0  0  0  0  0  0  0  0  0  0  0
   22.6395   69.8404    3.6138 H   0  0  0  0  0  0  0  0  0  0  0  0
 25 28  1  0
 25 24  1  0
 25 26  1  6
 25 27  2  0
  1  4  1  0
  1 24  1  0
  1  2  1  1
  1  3  2  0
  6 11  1  0
  6 12  1  0
 29 36  1  0
 29 37  1  0
  9  7  1  6
  7 13  1  0
 10  8  1  6
  8 14  1  0
 37 28  1  6
  4  5  1  0
 33 30  1  1
 30 38  1  0
 34 31  1  6
 31 39  1  0
 35 32  1  6
 32 40  1  0
 41 42  1  0
 41 43  1  0
 15 19  2  0
 16 22  2  0
 12 17  1  1
 17 19  1  0
 17 20  1  0
 18 19  1  0
 18 22  1  0
 18 23  1  0
  9 10  1  0
  9 11  1  0
 10 12  1  0
 11  5  1  6
 33 34  1  0
 33 35  1  0
 34 36  1  0
 35 37  1  0
 36 42  1  1
 20 21  2  0
 21 22  1  0
M  CHG  2   2  -1  26  -1
M  END
>  <COMPND>  (89) 
    8629 

>  <AUTHOR>  (89) 
    GENERATED BY OPEN BABEL 3.1.1

>  <MASTER>  (89) 
        0    0    0    0    0    0    0    0   58    0   58    0

>  <minimizedAffinity>  (89) 
-7.26180

>  <CNNscore>  (89) 
0.4366159141

>  <CNNaffinity>  (89) 
4.2745270729

>  <CNN_VS>  (89) 
1.8663265705

>  <CNNaffinity_variance>  (89) 
0.0216814317

$$$$
90
     RDKit          3D

 43 45  0  0  0  0  0  0  0  0999 V2000
   21.9442   73.8457   -4.7226 P   0  0  2  0  0  0  0  0  0  0  0  0
   23.2653   72.9171   -4.8215 O   0  0  0  0  0  0  0  0  0  0  0  0
   22.0846   75.2136   -5.3231 O   0  0  0  0  0  0  0  0  0  0  0  0
   21.5568   73.8041   -3.1522 O   0  0  0  0  0  0  0  0  0  0  0  0
   22.2074   72.8595   -2.3202 C   0  0  0  0  0  0  0  0  0  0  0  0
   21.8904   71.4458   -0.4032 O   0  0  0  0  0  0  0  0  0  0  0  0
   19.1499   72.6463   -0.2048 O   0  0  0  0  0  0  0  0  0  0  0  0
   20.5357   74.0090    1.7081 O   0  0  0  0  0  0  0  0  0  0  0  0
   20.3767   73.2586   -0.5990 C   0  0  1  0  0  0  0  0  0  0  0  0
   21.2591   73.4935    0.6091 C   0  0  2  0  0  0  0  0  0  0  0  0
   21.1818   72.2321   -1.3861 C   0  0  1  0  0  0  0  0  0  0  0  0
   21.8098   72.1023    0.8724 C   0  0  2  0  0  0  0  0  0  0  0  0
   18.6183   73.2830    0.2992 H   0  0  0  0  0  0  0  0  0  0  0  0
   20.2061   74.8951    1.4915 H   0  0  0  0  0  0  0  0  0  0  0  0
   22.8493   70.0857    2.5549 O   0  0  0  0  0  0  0  0  0  0  0  0
   26.8394   72.3302    3.0861 O   0  0  0  0  0  0  0  0  0  0  0  0
   23.1177   72.1339    1.4640 N   0  0  0  0  0  0  0  0  0  0  0  0
   24.8353   71.2049    2.8179 N   0  0  0  0  0  0  0  0  0  0  0  0
   23.5429   71.0711    2.2948 C   0  0  0  0  0  0  0  0  0  0  0  0
   23.9636   73.2099    1.2182 C   0  0  0  0  0  0  0  0  0  0  0  0
   25.1928   73.3230    1.7258 C   0  0  0  0  0  0  0  0  0  0  0  0
   25.7135   72.2554    2.6039 C   0  0  0  0  0  0  0  0  0  0  0  0
   25.1528   70.4766    3.3998 H   0  0  0  0  0  0  0  0  0  0  0  0
   20.8019   72.9263   -5.4031 O   0  0  0  0  0  0  0  0  0  0  0  0
   20.3706   72.7405   -6.9498 P   0  0  2  0  0  0  0  0  0  0  0  0
   21.6110   71.9186   -7.5848 O   0  0  0  0  0  0  0  0  0  0  0  0
   20.0515   74.0252   -7.6582 O   0  0  0  0  0  0  0  0  0  0  0  0
   19.1556   71.6789   -6.9104 O   0  0  0  0  0  0  0  0  0  0  0  0
   17.0533   72.7730   -6.9116 O   0  0  0  0  0  0  0  0  0  0  0  0
   15.7892   68.9159   -6.1529 O   0  0  0  0  0  0  0  0  0  0  0  0
   15.3093   70.0838   -8.7324 O   0  0  0  0  0  0  0  0  0  0  0  0
   18.2311   69.8984   -4.9481 O   0  0  0  0  0  0  0  0  0  0  0  0
   16.6185   69.9241   -6.7371 C   0  0  1  0  0  0  0  0  0  0  0  0
   15.7366   70.8314   -7.5972 C   0  0  1  0  0  0  0  0  0  0  0  0
   17.2895   70.7256   -5.6232 C   0  0  2  0  0  0  0  0  0  0  0  0
   16.4996   72.0869   -8.0405 C   0  0  1  0  0  0  0  0  0  0  0  0
   17.9782   71.9793   -6.1656 C   0  0  1  0  0  0  0  0  0  0  0  0
   15.3606   68.4030   -6.8548 H   0  0  0  0  0  0  0  0  0  0  0  0
   14.8293   69.2935   -8.4386 H   0  0  0  0  0  0  0  0  0  0  0  0
   17.7828   69.1084   -4.6093 H   0  0  0  0  0  0  0  0  0  0  0  0
   14.2471   72.7108   -8.5361 O   0  0  0  0  0  0  0  0  0  0  0  0
   15.5943   73.0800   -8.7660 C   0  0  0  0  0  0  0  0  0  0  0  0
   13.6594   73.3343   -8.9917 H   0  0  0  0  0  0  0  0  0  0  0  0
 25 28  1  0
 25 24  1  0
 25 26  1  6
 25 27  2  0
  1  4  1  0
  1 24  1  0
  1  2  1  1
  1  3  2  0
  6 11  1  0
  6 12  1  0
 29 36  1  0
 29 37  1  0
  9  7  1  1
  7 13  1  0
 10  8  1  1
  8 14  1  0
 37 28  1  6
  4  5  1  0
 33 30  1  1
 30 38  1  0
 34 31  1  6
 31 39  1  0
 35 32  1  6
 32 40  1  0
 41 42  1  0
 41 43  1  0
 15 19  2  0
 16 22  2  0
 12 17  1  6
 17 19  1  0
 17 20  1  0
 18 19  1  0
 18 22  1  0
 18 23  1  0
  9 10  1  0
  9 11  1  0
 10 12  1  0
 11  5  1  6
 33 34  1  0
 33 35  1  0
 34 36  1  0
 35 37  1  0
 36 42  1  1
 20 21  2  0
 21 22  1  0
M  CHG  2   2  -1  26  -1
M  END
>  <COMPND>  (90) 
    8629 

>  <AUTHOR>  (90) 
    GENERATED BY OPEN BABEL 3.1.1

>  <MASTER>  (90) 
        0    0    0    0    0    0    0    0   58    0   58    0

>  <minimizedAffinity>  (90) 
-7.38135

>  <CNNscore>  (90) 
0.4036656022

>  <CNNaffinity>  (90) 
4.1376166344

>  <CNN_VS>  (90) 
1.6702134609

>  <CNNaffinity_variance>  (90) 
0.0758201927

$$$$
91
     RDKit          3D

 43 45  0  0  0  0  0  0  0  0999 V2000
   19.3656   75.6497   -2.9823 P   0  0  2  0  0  0  0  0  0  0  0  0
   18.4751   76.0983   -1.7082 O   0  0  0  0  0  0  0  0  0  0  0  0
   18.9233   76.2210   -4.2974 O   0  0  0  0  0  0  0  0  0  0  0  0
   19.3892   74.0345   -2.8903 O   0  0  0  0  0  0  0  0  0  0  0  0
   18.9481   73.2869   -4.0103 C   0  0  0  0  0  0  0  0  0  0  0  0
   19.6606   71.2875   -5.1365 O   0  0  0  0  0  0  0  0  0  0  0  0
   22.1156   72.8239   -5.9132 O   0  0  0  0  0  0  0  0  0  0  0  0
   20.6119   72.9175   -8.1862 O   0  0  0  0  0  0  0  0  0  0  0  0
   20.7692   73.2784   -5.7870 C   0  0  1  0  0  0  0  0  0  0  0  0
   19.9365   72.7856   -6.9520 C   0  0  2  0  0  0  0  0  0  0  0  0
   20.1352   72.5464   -4.6107 C   0  0  1  0  0  0  0  0  0  0  0  0
   19.6905   71.3353   -6.5723 C   0  0  2  0  0  0  0  0  0  0  0  0
   22.5414   73.2777   -6.6579 H   0  0  0  0  0  0  0  0  0  0  0  0
   20.7447   73.8579   -8.3834 H   0  0  0  0  0  0  0  0  0  0  0  0
   19.2805   70.4758   -9.2315 O   0  0  0  0  0  0  0  0  0  0  0  0
   14.8610   69.4556   -8.4140 O   0  0  0  0  0  0  0  0  0  0  0  0
   18.4428   70.8399   -7.0814 N   0  0  0  0  0  0  0  0  0  0  0  0
   17.0803   69.9683   -8.8222 N   0  0  0  0  0  0  0  0  0  0  0  0
   18.3424   70.4348   -8.4328 C   0  0  0  0  0  0  0  0  0  0  0  0
   17.3356   70.7594   -6.2438 C   0  0  0  0  0  0  0  0  0  0  0  0
   16.1387   70.3135   -6.6310 C   0  0  0  0  0  0  0  0  0  0  0  0
   15.9492   69.8706   -8.0274 C   0  0  0  0  0  0  0  0  0  0  0  0
   16.9865   69.6809   -9.7594 H   0  0  0  0  0  0  0  0  0  0  0  0
   20.8652   76.0607   -2.5405 O   0  0  0  0  0  0  0  0  0  0  0  0
   22.2767   75.9186   -3.3154 P   0  0  2  0  0  0  0  0  0  0  0  0
   23.3342   76.5788   -2.2842 O   0  0  0  0  0  0  0  0  0  0  0  0
   22.2889   76.5258   -4.6883 O   0  0  0  0  0  0  0  0  0  0  0  0
   22.6049   74.3387   -3.2799 O   0  0  0  0  0  0  0  0  0  0  0  0
   23.0888   73.8898   -1.0038 O   0  0  0  0  0  0  0  0  0  0  0  0
   23.5034   70.0758   -2.5311 O   0  0  0  0  0  0  0  0  0  0  0  0
   21.2181   70.7146   -0.9132 O   0  0  0  0  0  0  0  0  0  0  0  0
   24.4266   72.3526   -4.0620 O   0  0  0  0  0  0  0  0  0  0  0  0
   22.9383   71.3860   -2.4335 C   0  0  1  0  0  0  0  0  0  0  0  0
   22.3623   71.5562   -1.0264 C   0  0  1  0  0  0  0  0  0  0  0  0
   24.0301   72.4214   -2.6965 C   0  0  2  0  0  0  0  0  0  0  0  0
   21.9793   73.0178   -0.7577 C   0  0  1  0  0  0  0  0  0  0  0  0
   23.5619   73.8361   -2.3510 C   0  0  1  0  0  0  0  0  0  0  0  0
   22.8152   69.4136   -2.3656 H   0  0  0  0  0  0  0  0  0  0  0  0
   21.4735   69.7947   -1.0857 H   0  0  0  0  0  0  0  0  0  0  0  0
   24.7211   71.4522   -4.2680 H   0  0  0  0  0  0  0  0  0  0  0  0
   21.9798   72.1321    1.4614 O   0  0  0  0  0  0  0  0  0  0  0  0
   21.5505   73.2396    0.6911 C   0  0  0  0  0  0  0  0  0  0  0  0
   21.7140   72.2595    2.3860 H   0  0  0  0  0  0  0  0  0  0  0  0
 25 28  1  0
 25 24  1  0
 25 26  1  1
 25 27  2  0
  1  4  1  0
  1 24  1  0
  1  2  1  1
  1  3  2  0
  6 11  1  0
  6 12  1  0
 29 36  1  0
 29 37  1  0
  9  7  1  6
  7 13  1  0
 10  8  1  6
  8 14  1  0
 37 28  1  6
  4  5  1  0
 33 30  1  1
 30 38  1  0
 34 31  1  6
 31 39  1  0
 35 32  1  6
 32 40  1  0
 41 42  1  0
 41 43  1  0
 15 19  2  0
 16 22  2  0
 12 17  1  6
 17 19  1  0
 17 20  1  0
 18 19  1  0
 18 22  1  0
 18 23  1  0
  9 10  1  0
  9 11  1  0
 10 12  1  0
 11  5  1  6
 33 34  1  0
 33 35  1  0
 34 36  1  0
 35 37  1  0
 36 42  1  1
 20 21  2  0
 21 22  1  0
M  CHG  2   2  -1  26  -1
M  END
>  <COMPND>  (91) 
    8629 

>  <AUTHOR>  (91) 
    GENERATED BY OPEN BABEL 3.1.1

>  <MASTER>  (91) 
        0    0    0    0    0    0    0    0   58    0   58    0

>  <minimizedAffinity>  (91) 
-5.99817

>  <CNNscore>  (91) 
0.3939045370

>  <CNNaffinity>  (91) 
4.1279549599

>  <CNN_VS>  (91) 
1.6260201931

>  <CNNaffinity_variance>  (91) 
0.1101339608

$$$$
92
     RDKit          3D

 43 45  0  0  0  0  0  0  0  0999 V2000
   23.0982   73.4399   -3.5044 P   0  0  2  0  0  0  0  0  0  0  0  0
   23.0217   75.0548   -3.5664 O   0  0  0  0  0  0  0  0  0  0  0  0
   24.1990   72.8259   -4.3184 O   0  0  0  0  0  0  0  0  0  0  0  0
   21.5978   72.9653   -3.8804 O   0  0  0  0  0  0  0  0  0  0  0  0
   20.9573   73.5660   -4.9926 C   0  0  0  0  0  0  0  0  0  0  0  0
   20.3934   71.4031   -5.8745 O   0  0  0  0  0  0  0  0  0  0  0  0
   20.9926   72.5560   -8.5769 O   0  0  0  0  0  0  0  0  0  0  0  0
   18.2679   72.6295   -8.4901 O   0  0  0  0  0  0  0  0  0  0  0  0
   20.3921   73.1796   -7.4429 C   0  0  1  0  0  0  0  0  0  0  0  0
   18.9700   72.6901   -7.2653 C   0  0  2  0  0  0  0  0  0  0  0  0
   21.0737   72.6368   -6.1931 C   0  0  1  0  0  0  0  0  0  0  0  0
   19.1836   71.3196   -6.6454 C   0  0  2  0  0  0  0  0  0  0  0  0
   20.5738   72.8872   -9.3874 H   0  0  0  0  0  0  0  0  0  0  0  0
   18.1573   73.5256   -8.8443 H   0  0  0  0  0  0  0  0  0  0  0  0
   16.7650   70.1580   -7.5281 O   0  0  0  0  0  0  0  0  0  0  0  0
   15.1134   69.8898   -3.2338 O   0  0  0  0  0  0  0  0  0  0  0  0
   18.1045   70.9360   -5.7795 N   0  0  0  0  0  0  0  0  0  0  0  0
   15.9447   70.0252   -5.3892 N   0  0  0  0  0  0  0  0  0  0  0  0
   16.9322   70.3616   -6.3239 C   0  0  0  0  0  0  0  0  0  0  0  0
   18.2149   71.1300   -4.4069 C   0  0  0  0  0  0  0  0  0  0  0  0
   17.2635   70.8049   -3.5291 C   0  0  0  0  0  0  0  0  0  0  0  0
   16.0071   70.1995   -4.0157 C   0  0  0  0  0  0  0  0  0  0  0  0
   15.1190   69.6239   -5.7454 H   0  0  0  0  0  0  0  0  0  0  0  0
   23.1872   73.1408   -1.9184 O   0  0  0  0  0  0  0  0  0  0  0  0
   24.4280   73.2411   -0.8872 P   0  0  2  0  0  0  0  0  0  0  0  0
   24.7870   74.8186   -0.8910 O   0  0  0  0  0  0  0  0  0  0  0  0
   25.5824   72.3425   -1.2243 O   0  0  0  0  0  0  0  0  0  0  0  0
   23.7750   72.9751    0.5647 O   0  0  0  0  0  0  0  0  0  0  0  0
   23.5044   74.3457    2.4791 O   0  0  0  0  0  0  0  0  0  0  0  0
   24.5458   70.8101    4.3407 O   0  0  0  0  0  0  0  0  0  0  0  0
   21.8336   71.7434    4.4853 O   0  0  0  0  0  0  0  0  0  0  0  0
   25.8290   71.5677    1.8590 O   0  0  0  0  0  0  0  0  0  0  0  0
   23.9288   71.6222    3.3381 C   0  0  1  0  0  0  0  0  0  0  0  0
   22.9178   72.5439    4.0228 C   0  0  1  0  0  0  0  0  0  0  0  0
   25.0050   72.4393    2.6257 C   0  0  2  0  0  0  0  0  0  0  0  0
   22.4107   73.6241    3.0577 C   0  0  1  0  0  0  0  0  0  0  0  0
   24.3942   73.5172    1.7283 C   0  0  1  0  0  0  0  0  0  0  0  0
   23.8680   70.2883    4.7965 H   0  0  0  0  0  0  0  0  0  0  0  0
   22.1673   71.0651    5.0934 H   0  0  0  0  0  0  0  0  0  0  0  0
   26.2099   70.8902    2.4385 H   0  0  0  0  0  0  0  0  0  0  0  0
   21.8032   74.6088    5.1482 O   0  0  0  0  0  0  0  0  0  0  0  0
   21.5228   74.6483    3.7611 C   0  0  0  0  0  0  0  0  0  0  0  0
   21.2455   75.2558    5.6087 H   0  0  0  0  0  0  0  0  0  0  0  0
 25 28  1  0
 25 24  1  0
 25 26  1  1
 25 27  2  0
  1  4  1  0
  1 24  1  0
  1  2  1  1
  1  3  2  0
  6 11  1  0
  6 12  1  0
 29 36  1  0
 29 37  1  0
  9  7  1  6
  7 13  1  0
 10  8  1  6
  8 14  1  0
 37 28  1  6
  4  5  1  0
 33 30  1  1
 30 38  1  0
 34 31  1  6
 31 39  1  0
 35 32  1  6
 32 40  1  0
 41 42  1  0
 41 43  1  0
 15 19  2  0
 16 22  2  0
 12 17  1  1
 17 19  1  0
 17 20  1  0
 18 19  1  0
 18 22  1  0
 18 23  1  0
  9 10  1  0
  9 11  1  0
 10 12  1  0
 11  5  1  1
 33 34  1  0
 33 35  1  0
 34 36  1  0
 35 37  1  0
 36 42  1  1
 20 21  2  0
 21 22  1  0
M  CHG  2   2  -1  26  -1
M  END
>  <COMPND>  (92) 
    8629 

>  <AUTHOR>  (92) 
    GENERATED BY OPEN BABEL 3.1.1

>  <MASTER>  (92) 
        0    0    0    0    0    0    0    0   58    0   58    0

>  <minimizedAffinity>  (92) 
-6.55821

>  <CNNscore>  (92) 
0.3932784200

>  <CNNaffinity>  (92) 
3.9677600861

>  <CNN_VS>  (92) 
1.5604344606

>  <CNNaffinity_variance>  (92) 
0.1001016051

$$$$
93
     RDKit          3D

 43 45  0  0  0  0  0  0  0  0999 V2000
   17.4591   71.5120   -1.4787 P   0  0  2  0  0  0  0  0  0  0  0  0
   18.4314   72.5989   -0.7781 O   0  0  0  0  0  0  0  0  0  0  0  0
   16.2678   72.0896   -2.1849 O   0  0  0  0  0  0  0  0  0  0  0  0
   17.1316   70.4619   -0.2922 O   0  0  0  0  0  0  0  0  0  0  0  0
   15.7760   70.1589   -0.0125 C   0  0  0  0  0  0  0  0  0  0  0  0
   14.8335   67.9487    0.0100 O   0  0  0  0  0  0  0  0  0  0  0  0
   14.2563   68.3677   -2.9024 O   0  0  0  0  0  0  0  0  0  0  0  0
   11.8304   68.8253   -1.7438 O   0  0  0  0  0  0  0  0  0  0  0  0
   14.2120   69.3071   -1.8295 C   0  0  1  0  0  0  0  0  0  0  0  0
   12.9882   69.0667   -0.9704 C   0  0  2  0  0  0  0  0  0  0  0  0
   15.3460   68.9749   -0.8678 C   0  0  1  0  0  0  0  0  0  0  0  0
   13.4090   67.8564   -0.1542 C   0  0  2  0  0  0  0  0  0  0  0  0
   13.5414   68.5600   -3.5300 H   0  0  0  0  0  0  0  0  0  0  0  0
   11.6033   69.6244   -2.2444 H   0  0  0  0  0  0  0  0  0  0  0  0
   10.7285   67.1022    0.3192 O   0  0  0  0  0  0  0  0  0  0  0  0
   11.1454   67.7860    4.8579 O   0  0  0  0  0  0  0  0  0  0  0  0
   12.7911   67.8279    1.1415 N   0  0  0  0  0  0  0  0  0  0  0  0
   10.9383   67.4431    2.5787 N   0  0  0  0  0  0  0  0  0  0  0  0
   11.4385   67.4349    1.2704 C   0  0  0  0  0  0  0  0  0  0  0  0
   13.5247   68.1866    2.2671 C   0  0  0  0  0  0  0  0  0  0  0  0
   13.0325   68.1904    3.5077 C   0  0  0  0  0  0  0  0  0  0  0  0
   11.6272   67.7928    3.7293 C   0  0  0  0  0  0  0  0  0  0  0  0
    9.9981   67.1734    2.6928 H   0  0  0  0  0  0  0  0  0  0  0  0
   18.4681   70.6819   -2.4304 O   0  0  0  0  0  0  0  0  0  0  0  0
   19.3649   71.1501   -3.6912 P   0  0  2  0  0  0  0  0  0  0  0  0
   20.6910   70.2320   -3.5647 O   0  0  0  0  0  0  0  0  0  0  0  0
   19.6357   72.6260   -3.7393 O   0  0  0  0  0  0  0  0  0  0  0  0
   18.5891   70.5700   -4.9821 O   0  0  0  0  0  0  0  0  0  0  0  0
   18.3777   71.8004   -6.9966 O   0  0  0  0  0  0  0  0  0  0  0  0
   15.0755   69.3494   -7.3708 O   0  0  0  0  0  0  0  0  0  0  0  0
   17.3759   68.8921   -9.0282 O   0  0  0  0  0  0  0  0  0  0  0  0
   15.7943   70.4180   -4.7783 O   0  0  0  0  0  0  0  0  0  0  0  0
   16.4119   69.6857   -6.9882 C   0  0  1  0  0  0  0  0  0  0  0  0
   17.1893   70.0701   -8.2486 C   0  0  1  0  0  0  0  0  0  0  0  0
   16.3707   70.8539   -6.0048 C   0  0  2  0  0  0  0  0  0  0  0  0
   18.5446   70.6966   -7.8941 C   0  0  1  0  0  0  0  0  0  0  0  0
   17.7643   71.4347   -5.7589 C   0  0  1  0  0  0  0  0  0  0  0  0
   15.0947   68.6080   -7.9948 H   0  0  0  0  0  0  0  0  0  0  0  0
   16.5126   68.5061   -9.2448 H   0  0  0  0  0  0  0  0  0  0  0  0
   14.9124   70.0528   -4.9473 H   0  0  0  0  0  0  0  0  0  0  0  0
   18.3046   71.5164  -10.1256 O   0  0  0  0  0  0  0  0  0  0  0  0
   19.2681   71.2307   -9.1284 C   0  0  0  0  0  0  0  0  0  0  0  0
   18.7507   71.8575  -10.9170 H   0  0  0  0  0  0  0  0  0  0  0  0
 25 28  1  0
 25 24  1  0
 25 26  1  1
 25 27  2  0
  1  4  1  0
  1 24  1  0
  1  2  1  1
  1  3  2  0
  6 11  1  0
  6 12  1  0
 29 36  1  0
 29 37  1  0
  9  7  1  6
  7 13  1  0
 10  8  1  6
  8 14  1  0
 37 28  1  6
  4  5  1  0
 33 30  1  6
 30 38  1  0
 34 31  1  6
 31 39  1  0
 35 32  1  1
 32 40  1  0
 41 42  1  0
 41 43  1  0
 15 19  2  0
 16 22  2  0
 12 17  1  1
 17 19  1  0
 17 20  1  0
 18 19  1  0
 18 22  1  0
 18 23  1  0
  9 10  1  0
  9 11  1  0
 10 12  1  0
 11  5  1  1
 33 34  1  0
 33 35  1  0
 34 36  1  0
 35 37  1  0
 36 42  1  6
 20 21  2  0
 21 22  1  0
M  CHG  2   2  -1  26  -1
M  END
>  <COMPND>  (93) 
    8629 

>  <AUTHOR>  (93) 
    GENERATED BY OPEN BABEL 3.1.1

>  <MASTER>  (93) 
        0    0    0    0    0    0    0    0   58    0   58    0

>  <minimizedAffinity>  (93) 
-6.56090

>  <CNNscore>  (93) 
0.3867581487

>  <CNNaffinity>  (93) 
3.9755463600

>  <CNN_VS>  (93) 
1.5375750065

>  <CNNaffinity_variance>  (93) 
0.1219180375

$$$$
94
     RDKit          3D

 43 45  0  0  0  0  0  0  0  0999 V2000
   23.8746   72.3984   -3.1664 P   0  0  2  0  0  0  0  0  0  0  0  0
   24.8252   71.1047   -2.9662 O   0  0  0  0  0  0  0  0  0  0  0  0
   24.0973   73.1572   -4.4416 O   0  0  0  0  0  0  0  0  0  0  0  0
   24.0763   73.2436   -1.8016 O   0  0  0  0  0  0  0  0  0  0  0  0
   24.6555   72.5940   -0.6834 C   0  0  0  0  0  0  0  0  0  0  0  0
   24.1861   71.8053    1.5373 O   0  0  0  0  0  0  0  0  0  0  0  0
   21.4491   72.9744    1.1722 O   0  0  0  0  0  0  0  0  0  0  0  0
   22.7027   74.8595    2.6926 O   0  0  0  0  0  0  0  0  0  0  0  0
   22.7069   73.4592    0.7050 C   0  0  1  0  0  0  0  0  0  0  0  0
   23.5003   74.0521    1.8507 C   0  0  2  0  0  0  0  0  0  0  0  0
   23.5585   72.2568    0.3172 C   0  0  1  0  0  0  0  0  0  0  0  0
   24.0179   72.8082    2.5526 C   0  0  2  0  0  0  0  0  0  0  0  0
   20.8876   73.7243    1.4256 H   0  0  0  0  0  0  0  0  0  0  0  0
   22.3977   75.6376    2.2005 H   0  0  0  0  0  0  0  0  0  0  0  0
   24.3089   73.8888    5.1460 O   0  0  0  0  0  0  0  0  0  0  0  0
   28.9052   73.6175    4.9418 O   0  0  0  0  0  0  0  0  0  0  0  0
   25.2790   73.0304    3.2020 N   0  0  0  0  0  0  0  0  0  0  0  0
   26.5973   73.7527    5.0423 N   0  0  0  0  0  0  0  0  0  0  0  0
   25.3154   73.5790    4.5051 C   0  0  0  0  0  0  0  0  0  0  0  0
   26.4622   72.7052    2.5476 C   0  0  0  0  0  0  0  0  0  0  0  0
   27.6767   72.8782    3.0732 C   0  0  0  0  0  0  0  0  0  0  0  0
   27.8027   73.4461    4.4310 C   0  0  0  0  0  0  0  0  0  0  0  0
   26.6473   74.1337    5.9490 H   0  0  0  0  0  0  0  0  0  0  0  0
   22.3879   71.7865   -2.9986 O   0  0  0  0  0  0  0  0  0  0  0  0
   20.9668   72.5087   -2.7304 P   0  0  2  0  0  0  0  0  0  0  0  0
   21.3549   74.0778   -2.6623 O   0  0  0  0  0  0  0  0  0  0  0  0
   20.2356   71.9987   -1.5224 O   0  0  0  0  0  0  0  0  0  0  0  0
   20.1588   72.3485   -4.1184 O   0  0  0  0  0  0  0  0  0  0  0  0
   19.1126   70.4176   -5.0094 O   0  0  0  0  0  0  0  0  0  0  0  0
   20.3756   72.1678   -8.5298 O   0  0  0  0  0  0  0  0  0  0  0  0
   17.5830   72.1857   -7.8596 O   0  0  0  0  0  0  0  0  0  0  0  0
   22.0620   72.2719   -6.1793 O   0  0  0  0  0  0  0  0  0  0  0  0
   19.8786   72.1495   -7.1889 C   0  0  1  0  0  0  0  0  0  0  0  0
   18.5504   71.3902   -7.1801 C   0  0  1  0  0  0  0  0  0  0  0  0
   20.8995   71.4575   -6.2875 C   0  0  2  0  0  0  0  0  0  0  0  0
   18.0892   71.0973   -5.7460 C   0  0  1  0  0  0  0  0  0  0  0  0
   20.3236   71.1682   -4.9002 C   0  0  1  0  0  0  0  0  0  0  0  0
   19.7323   72.6063   -9.1072 H   0  0  0  0  0  0  0  0  0  0  0  0
   17.8865   72.3638   -8.7637 H   0  0  0  0  0  0  0  0  0  0  0  0
   22.4171   72.4476   -7.0641 H   0  0  0  0  0  0  0  0  0  0  0  0
   16.8943   69.3351   -6.8303 O   0  0  0  0  0  0  0  0  0  0  0  0
   16.8500   70.2054   -5.7146 C   0  0  0  0  0  0  0  0  0  0  0  0
   16.1119   68.7612   -6.8232 H   0  0  0  0  0  0  0  0  0  0  0  0
 25 28  1  0
 25 24  1  0
 25 26  1  1
 25 27  2  0
  1  4  1  0
  1 24  1  0
  1  2  1  1
  1  3  2  0
  6 11  1  0
  6 12  1  0
 29 36  1  0
 29 37  1  0
  9  7  1  1
  7 13  1  0
 10  8  1  1
  8 14  1  0
 37 28  1  6
  4  5  1  0
 33 30  1  6
 30 38  1  0
 34 31  1  1
 31 39  1  0
 35 32  1  1
 32 40  1  0
 41 42  1  0
 41 43  1  0
 15 19  2  0
 16 22  2  0
 12 17  1  6
 17 19  1  0
 17 20  1  0
 18 19  1  0
 18 22  1  0
 18 23  1  0
  9 10  1  0
  9 11  1  0
 10 12  1  0
 11  5  1  6
 33 34  1  0
 33 35  1  0
 34 36  1  0
 35 37  1  0
 36 42  1  6
 20 21  2  0
 21 22  1  0
M  CHG  2   2  -1  26  -1
M  END
>  <COMPND>  (94) 
    8629 

>  <AUTHOR>  (94) 
    GENERATED BY OPEN BABEL 3.1.1

>  <MASTER>  (94) 
        0    0    0    0    0    0    0    0   58    0   58    0

>  <minimizedAffinity>  (94) 
-6.34664

>  <CNNscore>  (94) 
0.3744756281

>  <CNNaffinity>  (94) 
4.0635843277

>  <CNN_VS>  (94) 
1.5217132568

>  <CNNaffinity_variance>  (94) 
0.1093993038

$$$$
95
     RDKit          3D

 43 45  0  0  0  0  0  0  0  0999 V2000
   22.2797   74.9112   -1.3268 P   0  0  2  0  0  0  0  0  0  0  0  0
   22.8415   76.3942   -1.0063 O   0  0  0  0  0  0  0  0  0  0  0  0
   20.7870   74.7720   -1.2657 O   0  0  0  0  0  0  0  0  0  0  0  0
   23.1162   73.9543   -0.3256 O   0  0  0  0  0  0  0  0  0  0  0  0
   22.4484   73.3985    0.7938 C   0  0  0  0  0  0  0  0  0  0  0  0
   24.4822   72.1264    0.9320 O   0  0  0  0  0  0  0  0  0  0  0  0
   22.9261   70.1704    2.5881 O   0  0  0  0  0  0  0  0  0  0  0  0
   24.3142   71.5716    4.4713 O   0  0  0  0  0  0  0  0  0  0  0  0
   22.8304   71.5932    2.5453 C   0  0  1  0  0  0  0  0  0  0  0  0
   24.0130   72.2211    3.2531 C   0  0  2  0  0  0  0  0  0  0  0  0
   23.0510   72.0351    1.1040 C   0  0  1  0  0  0  0  0  0  0  0  0
   25.1164   72.0674    2.2201 C   0  0  2  0  0  0  0  0  0  0  0  0
   22.7883   69.8645    3.4988 H   0  0  0  0  0  0  0  0  0  0  0  0
   23.5824   71.6983    5.0951 H   0  0  0  0  0  0  0  0  0  0  0  0
   27.3331   72.0376    3.9703 O   0  0  0  0  0  0  0  0  0  0  0  0
   28.8102   76.1350    2.4635 O   0  0  0  0  0  0  0  0  0  0  0  0
   26.0963   73.1132    2.3058 N   0  0  0  0  0  0  0  0  0  0  0  0
   28.0669   74.0778    3.2185 N   0  0  0  0  0  0  0  0  0  0  0  0
   27.1707   73.0013    3.2188 C   0  0  0  0  0  0  0  0  0  0  0  0
   25.9868   74.2341    1.4900 C   0  0  0  0  0  0  0  0  0  0  0  0
   26.8491   75.2527    1.5028 C   0  0  0  0  0  0  0  0  0  0  0  0
   28.0000   75.2141    2.4280 C   0  0  0  0  0  0  0  0  0  0  0  0
   28.8231   74.0219    3.8468 H   0  0  0  0  0  0  0  0  0  0  0  0
   22.9276   74.5812   -2.7705 O   0  0  0  0  0  0  0  0  0  0  0  0
   22.8435   73.2574   -3.6942 P   0  0  2  0  0  0  0  0  0  0  0  0
   22.3902   72.1059   -2.6520 O   0  0  0  0  0  0  0  0  0  0  0  0
   24.1064   72.9501   -4.4457 O   0  0  0  0  0  0  0  0  0  0  0  0
   21.5493   73.4933   -4.6293 O   0  0  0  0  0  0  0  0  0  0  0  0
   20.7708   71.5440   -5.7298 O   0  0  0  0  0  0  0  0  0  0  0  0
   18.6563   74.3876   -7.8497 O   0  0  0  0  0  0  0  0  0  0  0  0
   17.2801   72.7036   -5.9740 O   0  0  0  0  0  0  0  0  0  0  0  0
   21.3828   74.9233   -7.0382 O   0  0  0  0  0  0  0  0  0  0  0  0
   19.2719   73.8163   -6.6921 C   0  0  1  0  0  0  0  0  0  0  0  0
   18.6129   72.4632   -6.4170 C   0  0  1  0  0  0  0  0  0  0  0  0
   20.7664   73.6427   -6.9558 C   0  0  2  0  0  0  0  0  0  0  0  0
   19.3932   71.6720   -5.3586 C   0  0  1  0  0  0  0  0  0  0  0  0
   21.4375   72.8001   -5.8696 C   0  0  1  0  0  0  0  0  0  0  0  0
   17.7072   74.5009   -7.6886 H   0  0  0  0  0  0  0  0  0  0  0  0
   16.7984   73.2043   -6.6511 H   0  0  0  0  0  0  0  0  0  0  0  0
   20.9493   75.4468   -7.7294 H   0  0  0  0  0  0  0  0  0  0  0  0
   17.7463   70.3086   -4.2921 O   0  0  0  0  0  0  0  0  0  0  0  0
   18.8454   70.2574   -5.1830 C   0  0  0  0  0  0  0  0  0  0  0  0
   17.3871   69.4152   -4.1710 H   0  0  0  0  0  0  0  0  0  0  0  0
 25 28  1  0
 25 24  1  0
 25 26  1  1
 25 27  2  0
  1  4  1  0
  1 24  1  0
  1  2  1  1
  1  3  2  0
  6 11  1  0
  6 12  1  0
 29 36  1  0
 29 37  1  0
  9  7  1  6
  7 13  1  0
 10  8  1  1
  8 14  1  0
 37 28  1  1
  4  5  1  0
 33 30  1  6
 30 38  1  0
 34 31  1  1
 31 39  1  0
 35 32  1  1
 32 40  1  0
 41 42  1  0
 41 43  1  0
 15 19  2  0
 16 22  2  0
 12 17  1  6
 17 19  1  0
 17 20  1  0
 18 19  1  0
 18 22  1  0
 18 23  1  0
  9 10  1  0
  9 11  1  0
 10 12  1  0
 11  5  1  1
 33 34  1  0
 33 35  1  0
 34 36  1  0
 35 37  1  0
 36 42  1  6
 20 21  2  0
 21 22  1  0
M  CHG  2   2  -1  26  -1
M  END
>  <COMPND>  (95) 
    8629 

>  <AUTHOR>  (95) 
    GENERATED BY OPEN BABEL 3.1.1

>  <MASTER>  (95) 
        0    0    0    0    0    0    0    0   58    0   58    0

>  <minimizedAffinity>  (95) 
-6.11120

>  <CNNscore>  (95) 
0.3635807931

>  <CNNaffinity>  (95) 
3.9637775421

>  <CNN_VS>  (95) 
1.4411534071

>  <CNNaffinity_variance>  (95) 
0.2412296236

$$$$
96
     RDKit          3D

 43 45  0  0  0  0  0  0  0  0999 V2000
   19.5172   72.3090   -1.6359 P   0  0  2  0  0  0  0  0  0  0  0  0
   20.8822   72.1947   -0.7750 O   0  0  0  0  0  0  0  0  0  0  0  0
   19.0366   73.7094   -1.8790 O   0  0  0  0  0  0  0  0  0  0  0  0
   18.4844   71.3369   -0.8573 O   0  0  0  0  0  0  0  0  0  0  0  0
   17.0948   71.5772   -0.9956 C   0  0  0  0  0  0  0  0  0  0  0  0
   16.3285   69.4759   -1.8736 O   0  0  0  0  0  0  0  0  0  0  0  0
   15.1620   71.0600   -4.1365 O   0  0  0  0  0  0  0  0  0  0  0  0
   12.9862   70.5777   -2.5649 O   0  0  0  0  0  0  0  0  0  0  0  0
   15.2656   71.4017   -2.7552 C   0  0  1  0  0  0  0  0  0  0  0  0
   14.2542   70.6202   -1.9429 C   0  0  2  0  0  0  0  0  0  0  0  0
   16.5868   70.8507   -2.2334 C   0  0  1  0  0  0  0  0  0  0  0  0
   14.9091   69.2521   -1.8563 C   0  0  2  0  0  0  0  0  0  0  0  0
   14.3261   71.4018   -4.4920 H   0  0  0  0  0  0  0  0  0  0  0  0
   12.6109   71.4715   -2.5959 H   0  0  0  0  0  0  0  0  0  0  0  0
   12.6904   67.5237   -1.5960 O   0  0  0  0  0  0  0  0  0  0  0  0
   13.6731   66.6288    2.8170 O   0  0  0  0  0  0  0  0  0  0  0  0
   14.5618   68.5539   -0.6508 N   0  0  0  0  0  0  0  0  0  0  0  0
   13.1816   67.0794    0.6011 N   0  0  0  0  0  0  0  0  0  0  0  0
   13.4267   67.7105   -0.6251 C   0  0  0  0  0  0  0  0  0  0  0  0
   15.3431   68.7087    0.4892 C   0  0  0  0  0  0  0  0  0  0  0  0
   15.0950   68.1008    1.6512 C   0  0  0  0  0  0  0  0  0  0  0  0
   13.9278   67.2022    1.7624 C   0  0  0  0  0  0  0  0  0  0  0  0
   12.3959   66.4873    0.6427 H   0  0  0  0  0  0  0  0  0  0  0  0
   19.8619   71.4738   -2.9764 O   0  0  0  0  0  0  0  0  0  0  0  0
   20.2328   71.9691   -4.4697 P   0  0  2  0  0  0  0  0  0  0  0  0
   21.1680   70.7760   -5.0348 O   0  0  0  0  0  0  0  0  0  0  0  0
   20.8631   73.3304   -4.5278 O   0  0  0  0  0  0  0  0  0  0  0  0
   18.8546   71.8343   -5.2988 O   0  0  0  0  0  0  0  0  0  0  0  0
   18.3748   70.7854   -7.3692 O   0  0  0  0  0  0  0  0  0  0  0  0
   15.9488   74.1068   -7.7344 O   0  0  0  0  0  0  0  0  0  0  0  0
   14.7666   71.5325   -7.2622 O   0  0  0  0  0  0  0  0  0  0  0  0
   18.5566   74.3520   -6.5020 O   0  0  0  0  0  0  0  0  0  0  0  0
   16.6068   73.0440   -7.0395 C   0  0  1  0  0  0  0  0  0  0  0  0
   16.1303   71.7163   -7.6320 C   0  0  1  0  0  0  0  0  0  0  0  0
   18.1173   73.1969   -7.2086 C   0  0  2  0  0  0  0  0  0  0  0  0
   16.9838   70.5457   -7.1257 C   0  0  1  0  0  0  0  0  0  0  0  0
   18.8688   71.9579   -6.7186 C   0  0  1  0  0  0  0  0  0  0  0  0
   14.9894   74.0159   -7.6306 H   0  0  0  0  0  0  0  0  0  0  0  0
   14.2387   72.2786   -7.5875 H   0  0  0  0  0  0  0  0  0  0  0  0
   18.0737   75.1295   -6.8215 H   0  0  0  0  0  0  0  0  0  0  0  0
   17.1082   69.2896   -9.1543 O   0  0  0  0  0  0  0  0  0  0  0  0
   16.6281   69.2348   -7.8236 C   0  0  0  0  0  0  0  0  0  0  0  0
   16.8893   68.4616   -9.6107 H   0  0  0  0  0  0  0  0  0  0  0  0
 25 28  1  0
 25 24  1  0
 25 26  1  6
 25 27  2  0
  1  4  1  0
  1 24  1  0
  1  2  1  1
  1  3  2  0
  6 11  1  0
  6 12  1  0
 29 36  1  0
 29 37  1  0
  9  7  1  6
  7 13  1  0
 10  8  1  6
  8 14  1  0
 37 28  1  1
  4  5  1  0
 33 30  1  6
 30 38  1  0
 34 31  1  1
 31 39  1  0
 35 32  1  1
 32 40  1  0
 41 42  1  0
 41 43  1  0
 15 19  2  0
 16 22  2  0
 12 17  1  1
 17 19  1  0
 17 20  1  0
 18 19  1  0
 18 22  1  0
 18 23  1  0
  9 10  1  0
  9 11  1  0
 10 12  1  0
 11  5  1  1
 33 34  1  0
 33 35  1  0
 34 36  1  0
 35 37  1  0
 36 42  1  6
 20 21  2  0
 21 22  1  0
M  CHG  2   2  -1  26  -1
M  END
>  <COMPND>  (96) 
    8629 

>  <AUTHOR>  (96) 
    GENERATED BY OPEN BABEL 3.1.1

>  <MASTER>  (96) 
        0    0    0    0    0    0    0    0   58    0   58    0

>  <minimizedAffinity>  (96) 
-6.11249

>  <CNNscore>  (96) 
0.3560220897

>  <CNNaffinity>  (96) 
3.9245910645

>  <CNN_VS>  (96) 
1.3972411156

>  <CNNaffinity_variance>  (96) 
0.1709689200

$$$$
97
     RDKit          3D

 43 45  0  0  0  0  0  0  0  0999 V2000
   22.8909   71.2833    1.7745 P   0  0  2  0  0  0  0  0  0  0  0  0
   24.2402   72.0597    1.3344 O   0  0  0  0  0  0  0  0  0  0  0  0
   23.0950   70.1598    2.7479 O   0  0  0  0  0  0  0  0  0  0  0  0
   22.1998   70.8781    0.3687 O   0  0  0  0  0  0  0  0  0  0  0  0
   22.2904   71.7858   -0.7156 C   0  0  0  0  0  0  0  0  0  0  0  0
   22.2186   70.7787   -2.8960 O   0  0  0  0  0  0  0  0  0  0  0  0
   25.1641   71.3218   -3.0384 O   0  0  0  0  0  0  0  0  0  0  0  0
   24.1137   73.3449   -4.5350 O   0  0  0  0  0  0  0  0  0  0  0  0
   24.1300   72.1046   -2.4440 C   0  0  1  0  0  0  0  0  0  0  0  0
   23.3080   72.7903   -3.5152 C   0  0  2  0  0  0  0  0  0  0  0  0
   23.1153   71.1504   -1.8264 C   0  0  1  0  0  0  0  0  0  0  0  0
   22.4315   71.6546   -4.0151 C   0  0  2  0  0  0  0  0  0  0  0  0
   25.8244   71.9094   -3.4392 H   0  0  0  0  0  0  0  0  0  0  0  0
   24.6522   74.0629   -4.1673 H   0  0  0  0  0  0  0  0  0  0  0  0
   21.9458   72.5348   -6.6547 O   0  0  0  0  0  0  0  0  0  0  0  0
   17.5114   73.4008   -5.7450 O   0  0  0  0  0  0  0  0  0  0  0  0
   21.1593   72.1152   -4.4954 N   0  0  0  0  0  0  0  0  0  0  0  0
   19.7382   72.9651   -6.1996 N   0  0  0  0  0  0  0  0  0  0  0  0
   21.0218   72.5363   -5.8386 C   0  0  0  0  0  0  0  0  0  0  0  0
   20.0647   72.1457   -3.6382 C   0  0  0  0  0  0  0  0  0  0  0  0
   18.8475   72.5586   -3.9977 C   0  0  0  0  0  0  0  0  0  0  0  0
   18.6190   73.0152   -5.3838 C   0  0  0  0  0  0  0  0  0  0  0  0
   19.6187   73.2635   -7.1305 H   0  0  0  0  0  0  0  0  0  0  0  0
   21.9441   72.4772    2.3140 O   0  0  0  0  0  0  0  0  0  0  0  0
   21.8589   73.1931    3.7608 P   0  0  2  0  0  0  0  0  0  0  0  0
   21.6875   71.9490    4.7809 O   0  0  0  0  0  0  0  0  0  0  0  0
   20.7839   74.2355    3.8693 O   0  0  0  0  0  0  0  0  0  0  0  0
   23.3522   73.7413    4.0339 O   0  0  0  0  0  0  0  0  0  0  0  0
   25.3752   72.5597    4.3914 O   0  0  0  0  0  0  0  0  0  0  0  0
   25.9858   75.7135    6.9859 O   0  0  0  0  0  0  0  0  0  0  0  0
   27.4762   75.5854    4.5343 O   0  0  0  0  0  0  0  0  0  0  0  0
   23.3476   74.5522    6.7204 O   0  0  0  0  0  0  0  0  0  0  0  0
   25.5089   75.0783    5.7966 C   0  0  1  0  0  0  0  0  0  0  0  0
   26.7105   74.4988    5.0475 C   0  0  1  0  0  0  0  0  0  0  0  0
   24.5296   73.9707    6.1807 C   0  0  2  0  0  0  0  0  0  0  0  0
   26.2598   73.5767    3.9066 C   0  0  1  0  0  0  0  0  0  0  0  0
   24.1846   73.0819    4.9844 C   0  0  1  0  0  0  0  0  0  0  0  0
   26.6078   76.4182    6.7490 H   0  0  0  0  0  0  0  0  0  0  0  0
   27.7540   76.1602    5.2647 H   0  0  0  0  0  0  0  0  0  0  0  0
   23.5793   75.1121    7.4771 H   0  0  0  0  0  0  0  0  0  0  0  0
   26.9469   72.0735    2.1812 O   0  0  0  0  0  0  0  0  0  0  0  0
   27.4389   72.8648    3.2470 C   0  0  0  0  0  0  0  0  0  0  0  0
   27.6864   71.6147    1.7517 H   0  0  0  0  0  0  0  0  0  0  0  0
 25 28  1  0
 25 24  1  0
 25 26  1  1
 25 27  2  0
  1  4  1  0
  1 24  1  0
  1  2  1  6
  1  3  2  0
  6 11  1  0
  6 12  1  0
 29 36  1  0
 29 37  1  0
  9  7  1  6
  7 13  1  0
 10  8  1  6
  8 14  1  0
 37 28  1  6
  4  5  1  0
 33 30  1  1
 30 38  1  0
 34 31  1  6
 31 39  1  0
 35 32  1  6
 32 40  1  0
 41 42  1  0
 41 43  1  0
 15 19  2  0
 16 22  2  0
 12 17  1  1
 17 19  1  0
 17 20  1  0
 18 19  1  0
 18 22  1  0
 18 23  1  0
  9 10  1  0
  9 11  1  0
 10 12  1  0
 11  5  1  1
 33 34  1  0
 33 35  1  0
 34 36  1  0
 35 37  1  0
 36 42  1  1
 20 21  2  0
 21 22  1  0
M  CHG  2   2  -1  26  -1
M  END
>  <COMPND>  (97) 
    8629 

>  <AUTHOR>  (97) 
    GENERATED BY OPEN BABEL 3.1.1

>  <MASTER>  (97) 
        0    0    0    0    0    0    0    0   58    0   58    0

>  <minimizedAffinity>  (97) 
-6.99970

>  <CNNscore>  (97) 
0.3407500982

>  <CNNaffinity>  (97) 
3.8202271461

>  <CNN_VS>  (97) 
1.3017427921

>  <CNNaffinity_variance>  (97) 
0.2635722160

$$$$
98
     RDKit          3D

 43 45  0  0  0  0  0  0  0  0999 V2000
   21.1530   72.0146   -2.0820 P   0  0  2  0  0  0  0  0  0  0  0  0
   20.2743   70.6790   -1.8339 O   0  0  0  0  0  0  0  0  0  0  0  0
   21.0233   73.0651   -1.0184 O   0  0  0  0  0  0  0  0  0  0  0  0
   20.7450   72.4756   -3.5783 O   0  0  0  0  0  0  0  0  0  0  0  0
   19.6065   71.8853   -4.1808 C   0  0  0  0  0  0  0  0  0  0  0  0
   18.8874   70.4467   -5.9661 O   0  0  0  0  0  0  0  0  0  0  0  0
   21.6803   70.6837   -7.0311 O   0  0  0  0  0  0  0  0  0  0  0  0
   20.2939   72.4261   -8.6056 O   0  0  0  0  0  0  0  0  0  0  0  0
   20.8797   71.6638   -6.3724 C   0  0  1  0  0  0  0  0  0  0  0  0
   19.8017   72.1754   -7.3049 C   0  0  2  0  0  0  0  0  0  0  0  0
   20.0622   70.9570   -5.2984 C   0  0  1  0  0  0  0  0  0  0  0  0
   18.7913   71.0413   -7.2707 C   0  0  2  0  0  0  0  0  0  0  0  0
   22.2118   71.1115   -7.7214 H   0  0  0  0  0  0  0  0  0  0  0  0
   20.9326   73.1553   -8.5747 H   0  0  0  0  0  0  0  0  0  0  0  0
   16.7102   69.4558   -8.3352 O   0  0  0  0  0  0  0  0  0  0  0  0
   13.6710   72.9059   -8.0160 O   0  0  0  0  0  0  0  0  0  0  0  0
   17.4463   71.4997   -7.4763 N   0  0  0  0  0  0  0  0  0  0  0  0
   15.1986   71.1749   -8.1753 N   0  0  0  0  0  0  0  0  0  0  0  0
   16.4767   70.6239   -8.0179 C   0  0  0  0  0  0  0  0  0  0  0  0
   17.1001   72.8044   -7.1417 C   0  0  0  0  0  0  0  0  0  0  0  0
   15.8770   73.3148   -7.2992 C   0  0  0  0  0  0  0  0  0  0  0  0
   14.8057   72.4658   -7.8590 C   0  0  0  0  0  0  0  0  0  0  0  0
   14.5068   70.5834   -8.5513 H   0  0  0  0  0  0  0  0  0  0  0  0
   22.6493   71.4345   -2.2757 O   0  0  0  0  0  0  0  0  0  0  0  0
   24.0546   72.1890   -2.5378 P   0  0  2  0  0  0  0  0  0  0  0  0
   23.6283   73.7473   -2.6262 O   0  0  0  0  0  0  0  0  0  0  0  0
   24.8101   71.6849   -3.7332 O   0  0  0  0  0  0  0  0  0  0  0  0
   24.8526   72.0634   -1.1405 O   0  0  0  0  0  0  0  0  0  0  0  0
   24.1281   73.6513    0.4627 O   0  0  0  0  0  0  0  0  0  0  0  0
   27.5029   72.2585    2.3919 O   0  0  0  0  0  0  0  0  0  0  0  0
   24.9049   71.5255    3.3724 O   0  0  0  0  0  0  0  0  0  0  0  0
   27.5245   72.6122   -0.4811 O   0  0  0  0  0  0  0  0  0  0  0  0
   26.3394   72.1586    1.5662 C   0  0  1  0  0  0  0  0  0  0  0  0
   25.1210   72.5492    2.4051 C   0  0  1  0  0  0  0  0  0  0  0  0
   26.4931   73.0980    0.3714 C   0  0  2  0  0  0  0  0  0  0  0  0
   23.8759   72.7246    1.5253 C   0  0  1  0  0  0  0  0  0  0  0  0
   25.1842   73.2398   -0.4075 C   0  0  1  0  0  0  0  0  0  0  0  0
   27.4119   71.6641    3.1521 H   0  0  0  0  0  0  0  0  0  0  0  0
   25.6987   71.4245    3.9209 H   0  0  0  0  0  0  0  0  0  0  0  0
   28.3477   72.5271    0.0237 H   0  0  0  0  0  0  0  0  0  0  0  0
   21.9965   74.1999    1.5079 O   0  0  0  0  0  0  0  0  0  0  0  0
   22.6878   73.2664    2.3172 C   0  0  0  0  0  0  0  0  0  0  0  0
   21.2375   74.5529    1.9988 H   0  0  0  0  0  0  0  0  0  0  0  0
 25 28  1  0
 25 24  1  0
 25 26  1  6
 25 27  2  0
  1  4  1  0
  1 24  1  0
  1  2  1  1
  1  3  2  0
  6 11  1  0
  6 12  1  0
 29 36  1  0
 29 37  1  0
  9  7  1  6
  7 13  1  0
 10  8  1  6
  8 14  1  0
 37 28  1  1
  4  5  1  0
 33 30  1  1
 30 38  1  0
 34 31  1  1
 31 39  1  0
 35 32  1  6
 32 40  1  0
 41 42  1  0
 41 43  1  0
 15 19  2  0
 16 22  2  0
 12 17  1  1
 17 19  1  0
 17 20  1  0
 18 19  1  0
 18 22  1  0
 18 23  1  0
  9 10  1  0
  9 11  1  0
 10 12  1  0
 11  5  1  1
 33 34  1  0
 33 35  1  0
 34 36  1  0
 35 37  1  0
 36 42  1  1
 20 21  2  0
 21 22  1  0
M  CHG  2   2  -1  26  -1
M  END
>  <COMPND>  (98) 
    8629 

>  <AUTHOR>  (98) 
    GENERATED BY OPEN BABEL 3.1.1

>  <MASTER>  (98) 
        0    0    0    0    0    0    0    0   58    0   58    0

>  <minimizedAffinity>  (98) 
-6.80283

>  <CNNscore>  (98) 
0.3349349499

>  <CNNaffinity>  (98) 
4.1381416321

>  <CNN_VS>  (98) 
1.3860082626

>  <CNNaffinity_variance>  (98) 
0.0263498481

$$$$
99
     RDKit          3D

 43 45  0  0  0  0  0  0  0  0999 V2000
   17.6985   71.2077   -1.9788 P   0  0  2  0  0  0  0  0  0  0  0  0
   18.0896   72.3871   -0.9427 O   0  0  0  0  0  0  0  0  0  0  0  0
   17.2497   69.9262   -1.3402 O   0  0  0  0  0  0  0  0  0  0  0  0
   18.9908   71.0960   -2.9459 O   0  0  0  0  0  0  0  0  0  0  0  0
   19.4752   72.2744   -3.5659 C   0  0  0  0  0  0  0  0  0  0  0  0
   20.1819   70.7954   -5.3229 O   0  0  0  0  0  0  0  0  0  0  0  0
   22.3195   72.8151   -5.9082 O   0  0  0  0  0  0  0  0  0  0  0  0
   20.4631   73.3386   -7.8361 O   0  0  0  0  0  0  0  0  0  0  0  0
   20.9746   73.0231   -5.4802 C   0  0  1  0  0  0  0  0  0  0  0  0
   20.0138   72.7697   -6.6231 C   0  0  2  0  0  0  0  0  0  0  0  0
   20.6136   71.9071   -4.5078 C   0  0  1  0  0  0  0  0  0  0  0  0
   19.9724   71.2517   -6.6693 C   0  0  2  0  0  0  0  0  0  0  0  0
   22.5728   73.5160   -6.5299 H   0  0  0  0  0  0  0  0  0  0  0  0
   20.4717   74.3052   -7.7564 H   0  0  0  0  0  0  0  0  0  0  0  0
   19.3556   70.7819   -9.3853 O   0  0  0  0  0  0  0  0  0  0  0  0
   15.1016   69.3358   -8.3586 O   0  0  0  0  0  0  0  0  0  0  0  0
   18.7114   70.7522   -7.1400 N   0  0  0  0  0  0  0  0  0  0  0  0
   17.2380   70.0621   -8.8719 N   0  0  0  0  0  0  0  0  0  0  0  0
   18.5034   70.5524   -8.5247 C   0  0  0  0  0  0  0  0  0  0  0  0
   17.6972   70.4658   -6.2327 C   0  0  0  0  0  0  0  0  0  0  0  0
   16.4956   70.0000   -6.5801 C   0  0  0  0  0  0  0  0  0  0  0  0
   16.1969   69.7634   -8.0073 C   0  0  0  0  0  0  0  0  0  0  0  0
   17.0702   69.9154   -9.8311 H   0  0  0  0  0  0  0  0  0  0  0  0
   16.5939   71.9092   -2.9279 O   0  0  0  0  0  0  0  0  0  0  0  0
   15.0467   71.5365   -3.2107 P   0  0  2  0  0  0  0  0  0  0  0  0
   14.2393   72.5232   -2.2146 O   0  0  0  0  0  0  0  0  0  0  0  0
   14.7227   70.0809   -3.0372 O   0  0  0  0  0  0  0  0  0  0  0  0
   14.7501   72.1163   -4.6874 O   0  0  0  0  0  0  0  0  0  0  0  0
   15.7949   73.8656   -5.8977 O   0  0  0  0  0  0  0  0  0  0  0  0
   11.8913   74.4716   -7.0999 O   0  0  0  0  0  0  0  0  0  0  0  0
   13.7895   73.3666   -8.9503 O   0  0  0  0  0  0  0  0  0  0  0  0
   12.4578   73.7031   -4.3671 O   0  0  0  0  0  0  0  0  0  0  0  0
   13.0286   73.6985   -6.7071 C   0  0  1  0  0  0  0  0  0  0  0  0
   14.1556   73.9608   -7.7080 C   0  0  1  0  0  0  0  0  0  0  0  0
   13.4522   74.1135   -5.2994 C   0  0  2  0  0  0  0  0  0  0  0  0
   15.4857   73.3800   -7.2093 C   0  0  1  0  0  0  0  0  0  0  0  0
   14.8108   73.5210   -4.9207 C   0  0  1  0  0  0  0  0  0  0  0  0
   11.6169   74.2126   -7.9927 H   0  0  0  0  0  0  0  0  0  0  0  0
   12.9478   73.7417   -9.2538 H   0  0  0  0  0  0  0  0  0  0  0  0
   11.6027   74.0850   -4.6177 H   0  0  0  0  0  0  0  0  0  0  0  0
   16.5180   73.0736   -9.3422 O   0  0  0  0  0  0  0  0  0  0  0  0
   16.6534   73.7657   -8.1147 C   0  0  0  0  0  0  0  0  0  0  0  0
   17.2542   73.3095   -9.9287 H   0  0  0  0  0  0  0  0  0  0  0  0
 25 28  1  0
 25 24  1  0
 25 26  1  1
 25 27  2  0
  1  4  1  0
  1 24  1  0
  1  2  1  1
  1  3  2  0
  6 11  1  0
  6 12  1  0
 29 36  1  0
 29 37  1  0
  9  7  1  6
  7 13  1  0
 10  8  1  6
  8 14  1  0
 37 28  1  6
  4  5  1  0
 33 30  1  6
 30 38  1  0
 34 31  1  6
 31 39  1  0
 35 32  1  1
 32 40  1  0
 41 42  1  0
 41 43  1  0
 15 19  2  0
 16 22  2  0
 12 17  1  1
 17 19  1  0
 17 20  1  0
 18 19  1  0
 18 22  1  0
 18 23  1  0
  9 10  1  0
  9 11  1  0
 10 12  1  0
 11  5  1  1
 33 34  1  0
 33 35  1  0
 34 36  1  0
 35 37  1  0
 36 42  1  6
 20 21  2  0
 21 22  1  0
M  CHG  2   2  -1  26  -1
M  END
>  <COMPND>  (99) 
    8629 

>  <AUTHOR>  (99) 
    GENERATED BY OPEN BABEL 3.1.1

>  <MASTER>  (99) 
        0    0    0    0    0    0    0    0   58    0   58    0

>  <minimizedAffinity>  (99) 
-6.07868

>  <CNNscore>  (99) 
0.3327901959

>  <CNNaffinity>  (99) 
3.8955123425

>  <CNN_VS>  (99) 
1.2963882685

>  <CNNaffinity_variance>  (99) 
0.6505757570

$$$$
100
     RDKit          3D

 43 45  0  0  0  0  0  0  0  0999 V2000
   18.0508   72.6264   -1.6712 P   0  0  2  0  0  0  0  0  0  0  0  0
   17.1838   73.9704   -1.9151 O   0  0  0  0  0  0  0  0  0  0  0  0
   19.1596   72.7606   -0.6692 O   0  0  0  0  0  0  0  0  0  0  0  0
   18.4994   72.1782   -3.1598 O   0  0  0  0  0  0  0  0  0  0  0  0
   19.1742   73.1204   -3.9751 C   0  0  0  0  0  0  0  0  0  0  0  0
   19.8382   71.1938   -5.2482 O   0  0  0  0  0  0  0  0  0  0  0  0
   22.2342   72.7969   -6.0727 O   0  0  0  0  0  0  0  0  0  0  0  0
   20.6055   72.9993   -8.2505 O   0  0  0  0  0  0  0  0  0  0  0  0
   20.8935   73.2292   -5.8473 C   0  0  1  0  0  0  0  0  0  0  0  0
   20.0010   72.7924   -6.9902 C   0  0  2  0  0  0  0  0  0  0  0  0
   20.3316   72.4268   -4.6803 C   0  0  1  0  0  0  0  0  0  0  0  0
   19.7877   71.3208   -6.6786 C   0  0  2  0  0  0  0  0  0  0  0  0
   22.6144   73.2956   -6.8135 H   0  0  0  0  0  0  0  0  0  0  0  0
   20.7199   73.9504   -8.4022 H   0  0  0  0  0  0  0  0  0  0  0  0
   19.2720   70.4837   -9.3265 O   0  0  0  0  0  0  0  0  0  0  0  0
   14.8758   69.4998   -8.3539 O   0  0  0  0  0  0  0  0  0  0  0  0
   18.5173   70.8408   -7.1448 N   0  0  0  0  0  0  0  0  0  0  0  0
   17.0835   69.9943   -8.8400 N   0  0  0  0  0  0  0  0  0  0  0  0
   18.3635   70.4460   -8.4942 C   0  0  0  0  0  0  0  0  0  0  0  0
   17.4409   70.7650   -6.2676 C   0  0  0  0  0  0  0  0  0  0  0  0
   16.2263   70.3332   -6.6135 C   0  0  0  0  0  0  0  0  0  0  0  0
   15.9814   69.9017   -8.0048 C   0  0  0  0  0  0  0  0  0  0  0  0
   16.9527   69.7142   -9.7750 H   0  0  0  0  0  0  0  0  0  0  0  0
   16.9249   71.5324   -1.2862 O   0  0  0  0  0  0  0  0  0  0  0  0
   15.4922   71.6955   -0.5555 P   0  0  2  0  0  0  0  0  0  0  0  0
   14.4965   72.0770   -1.7722 O   0  0  0  0  0  0  0  0  0  0  0  0
   15.4886   72.6786    0.5792 O   0  0  0  0  0  0  0  0  0  0  0  0
   15.0720   70.1935   -0.1405 O   0  0  0  0  0  0  0  0  0  0  0  0
   13.1263   70.3691    1.2012 O   0  0  0  0  0  0  0  0  0  0  0  0
   13.6794   66.2806    1.3728 O   0  0  0  0  0  0  0  0  0  0  0  0
   11.5223   67.3553   -0.1892 O   0  0  0  0  0  0  0  0  0  0  0  0
   15.9686   68.0512    1.4349 O   0  0  0  0  0  0  0  0  0  0  0  0
   13.7050   67.5745    0.7640 C   0  0  1  0  0  0  0  0  0  0  0  0
   12.2770   68.1234    0.7439 C   0  0  1  0  0  0  0  0  0  0  0  0
   14.6213   68.4894    1.5743 C   0  0  2  0  0  0  0  0  0  0  0  0
   12.2594   69.6072    0.3528 C   0  0  1  0  0  0  0  0  0  0  0  0
   14.4908   69.9497    1.1379 C   0  0  1  0  0  0  0  0  0  0  0  0
   13.0996   65.6946    0.8628 H   0  0  0  0  0  0  0  0  0  0  0  0
   11.5419   66.4204    0.0689 H   0  0  0  0  0  0  0  0  0  0  0  0
   16.0381   67.1256    1.7147 H   0  0  0  0  0  0  0  0  0  0  0  0
   10.1515   69.9570   -0.7164 O   0  0  0  0  0  0  0  0  0  0  0  0
   10.8643   70.2154    0.4791 C   0  0  0  0  0  0  0  0  0  0  0  0
    9.2615   70.3381   -0.6503 H   0  0  0  0  0  0  0  0  0  0  0  0
 25 28  1  0
 25 24  1  0
 25 26  1  6
 25 27  2  0
  1  4  1  0
  1 24  1  0
  1  2  1  6
  1  3  2  0
  6 11  1  0
  6 12  1  0
 29 36  1  0
 29 37  1  0
  9  7  1  6
  7 13  1  0
 10  8  1  6
  8 14  1  0
 37 28  1  6
  4  5  1  0
 33 30  1  1
 30 38  1  0
 34 31  1  6
 31 39  1  0
 35 32  1  6
 32 40  1  0
 41 42  1  0
 41 43  1  0
 15 19  2  0
 16 22  2  0
 12 17  1  1
 17 19  1  0
 17 20  1  0
 18 19  1  0
 18 22  1  0
 18 23  1  0
  9 10  1  0
  9 11  1  0
 10 12  1  0
 11  5  1  6
 33 34  1  0
 33 35  1  0
 34 36  1  0
 35 37  1  0
 36 42  1  1
 20 21  2  0
 21 22  1  0
M  CHG  2   2  -1  26  -1
M  END
>  <COMPND>  (100) 
    8629 

>  <AUTHOR>  (100) 
    GENERATED BY OPEN BABEL 3.1.1

>  <MASTER>  (100) 
        0    0    0    0    0    0    0    0   58    0   58    0

>  <minimizedAffinity>  (100) 
-6.37098

>  <CNNscore>  (100) 
0.3306900561

>  <CNNaffinity>  (100) 
4.1585340500

>  <CNN_VS>  (100) 
1.3751858473

>  <CNNaffinity_variance>  (100) 
0.0553816967

$$$$
101
     RDKit          3D

 43 45  0  0  0  0  0  0  0  0999 V2000
   16.6996   70.9550   -0.9226 P   0  0  2  0  0  0  0  0  0  0  0  0
   18.1693   70.9385   -1.5986 O   0  0  0  0  0  0  0  0  0  0  0  0
   16.5763   71.8087    0.3052 O   0  0  0  0  0  0  0  0  0  0  0  0
   16.3441   69.3886   -0.7278 O   0  0  0  0  0  0  0  0  0  0  0  0
   15.3707   69.0312    0.2379 C   0  0  0  0  0  0  0  0  0  0  0  0
   13.8971   67.1926    0.7088 O   0  0  0  0  0  0  0  0  0  0  0  0
   12.7340   67.6713   -2.0131 O   0  0  0  0  0  0  0  0  0  0  0  0
   10.9051   68.8504   -0.3694 O   0  0  0  0  0  0  0  0  0  0  0  0
   13.2237   68.6156   -1.0624 C   0  0  1  0  0  0  0  0  0  0  0  0
   12.2421   68.7683    0.0807 C   0  0  2  0  0  0  0  0  0  0  0  0
   14.4296   67.9977   -0.3657 C   0  0  1  0  0  0  0  0  0  0  0  0
   12.5089   67.5137    0.8949 C   0  0  2  0  0  0  0  0  0  0  0  0
   11.9636   68.0438   -2.4711 H   0  0  0  0  0  0  0  0  0  0  0  0
   10.7858   69.6651   -0.8819 H   0  0  0  0  0  0  0  0  0  0  0  0
    9.9479   67.4356    2.0836 O   0  0  0  0  0  0  0  0  0  0  0  0
   11.6680   68.2675    6.2777 O   0  0  0  0  0  0  0  0  0  0  0  0
   12.2585   67.7062    2.2955 N   0  0  0  0  0  0  0  0  0  0  0  0
   10.8065   67.8497    4.1710 N   0  0  0  0  0  0  0  0  0  0  0  0
   10.9350   67.6483    2.7908 C   0  0  0  0  0  0  0  0  0  0  0  0
   13.3187   67.9489    3.1621 C   0  0  0  0  0  0  0  0  0  0  0  0
   13.1793   68.1401    4.4756 C   0  0  0  0  0  0  0  0  0  0  0  0
   11.8292   68.0955    5.0734 C   0  0  0  0  0  0  0  0  0  0  0  0
    9.8936   67.8142    4.5385 H   0  0  0  0  0  0  0  0  0  0  0  0
   15.7411   71.3955   -2.1473 O   0  0  0  0  0  0  0  0  0  0  0  0
   15.5896   70.8022   -3.6433 P   0  0  2  0  0  0  0  0  0  0  0  0
   14.3801   71.6761   -4.2684 O   0  0  0  0  0  0  0  0  0  0  0  0
   15.3732   69.3175   -3.6974 O   0  0  0  0  0  0  0  0  0  0  0  0
   16.9075   71.3148   -4.4214 O   0  0  0  0  0  0  0  0  0  0  0  0
   17.1887   69.6940   -6.1274 O   0  0  0  0  0  0  0  0  0  0  0  0
   20.2709   72.2514   -7.1325 O   0  0  0  0  0  0  0  0  0  0  0  0
   17.9154   72.1564   -8.7727 O   0  0  0  0  0  0  0  0  0  0  0  0
   19.6829   71.7231   -4.3478 O   0  0  0  0  0  0  0  0  0  0  0  0
   18.9729   71.9047   -6.6422 C   0  0  1  0  0  0  0  0  0  0  0  0
   18.2107   71.1953   -7.7631 C   0  0  1  0  0  0  0  0  0  0  0  0
   19.1257   70.9865   -5.4310 C   0  0  2  0  0  0  0  0  0  0  0  0
   16.9173   70.5586   -7.2367 C   0  0  1  0  0  0  0  0  0  0  0  0
   17.7887   70.3676   -5.0193 C   0  0  1  0  0  0  0  0  0  0  0  0
   20.1810   72.8348   -7.9013 H   0  0  0  0  0  0  0  0  0  0  0  0
   18.7404   72.5511   -9.0962 H   0  0  0  0  0  0  0  0  0  0  0  0
   20.5290   72.1096   -4.6210 H   0  0  0  0  0  0  0  0  0  0  0  0
   17.1920   69.2807   -9.2368 O   0  0  0  0  0  0  0  0  0  0  0  0
   16.2214   69.7134   -8.3013 C   0  0  0  0  0  0  0  0  0  0  0  0
   16.7636   68.7412   -9.9202 H   0  0  0  0  0  0  0  0  0  0  0  0
 25 28  1  0
 25 24  1  0
 25 26  1  6
 25 27  2  0
  1  4  1  0
  1 24  1  0
  1  2  1  6
  1  3  2  0
  6 11  1  0
  6 12  1  0
 29 36  1  0
 29 37  1  0
  9  7  1  6
  7 13  1  0
 10  8  1  6
  8 14  1  0
 37 28  1  6
  4  5  1  0
 33 30  1  6
 30 38  1  0
 34 31  1  6
 31 39  1  0
 35 32  1  1
 32 40  1  0
 41 42  1  0
 41 43  1  0
 15 19  2  0
 16 22  2  0
 12 17  1  1
 17 19  1  0
 17 20  1  0
 18 19  1  0
 18 22  1  0
 18 23  1  0
  9 10  1  0
  9 11  1  0
 10 12  1  0
 11  5  1  1
 33 34  1  0
 33 35  1  0
 34 36  1  0
 35 37  1  0
 36 42  1  6
 20 21  2  0
 21 22  1  0
M  CHG  2   2  -1  26  -1
M  END
>  <COMPND>  (101) 
    8629 

>  <AUTHOR>  (101) 
    GENERATED BY OPEN BABEL 3.1.1

>  <MASTER>  (101) 
        0    0    0    0    0    0    0    0   58    0   58    0

>  <minimizedAffinity>  (101) 
-6.52342

>  <CNNscore>  (101) 
0.8566414714

>  <CNNaffinity>  (101) 
4.3307404518

>  <CNN_VS>  (101) 
3.7098917961

>  <CNNaffinity_variance>  (101) 
0.0766835436

$$$$
102
     RDKit          3D

 43 45  0  0  0  0  0  0  0  0999 V2000
   21.6454   71.3868   -1.5348 P   0  0  2  0  0  0  0  0  0  0  0  0
   22.8246   70.5313   -2.2383 O   0  0  0  0  0  0  0  0  0  0  0  0
   21.0274   70.7421   -0.3290 O   0  0  0  0  0  0  0  0  0  0  0  0
   20.6308   71.7220   -2.7498 O   0  0  0  0  0  0  0  0  0  0  0  0
   20.4958   70.7780   -3.7978 C   0  0  0  0  0  0  0  0  0  0  0  0
   20.7104   70.6161   -6.1856 O   0  0  0  0  0  0  0  0  0  0  0  0
   22.1514   73.2420   -6.0465 O   0  0  0  0  0  0  0  0  0  0  0  0
   19.6560   73.9760   -6.8655 O   0  0  0  0  0  0  0  0  0  0  0  0
   21.0470   72.7768   -5.2724 C   0  0  1  0  0  0  0  0  0  0  0  0
   19.7796   72.7940   -6.1011 C   0  0  2  0  0  0  0  0  0  0  0  0
   21.2436   71.2867   -5.0227 C   0  0  1  0  0  0  0  0  0  0  0  0
   19.9503   71.5551   -6.9637 C   0  0  2  0  0  0  0  0  0  0  0  0
   22.0483   74.1916   -6.2185 H   0  0  0  0  0  0  0  0  0  0  0  0
   19.5497   74.7356   -6.2718 H   0  0  0  0  0  0  0  0  0  0  0  0
   19.2678   70.7034   -9.5689 O   0  0  0  0  0  0  0  0  0  0  0  0
   15.1014   69.2775   -8.2089 O   0  0  0  0  0  0  0  0  0  0  0  0
   18.6940   70.9575   -7.3187 N   0  0  0  0  0  0  0  0  0  0  0  0
   17.1939   69.9940   -8.8896 N   0  0  0  0  0  0  0  0  0  0  0  0
   18.4510   70.5659   -8.6559 C   0  0  0  0  0  0  0  0  0  0  0  0
   17.7189   70.7648   -6.3461 C   0  0  0  0  0  0  0  0  0  0  0  0
   16.5247   70.2192   -6.5855 C   0  0  0  0  0  0  0  0  0  0  0  0
   16.1910   69.7826   -7.9567 C   0  0  0  0  0  0  0  0  0  0  0  0
   17.0021   69.7138   -9.8140 H   0  0  0  0  0  0  0  0  0  0  0  0
   22.3520   72.8121   -1.2477 O   0  0  0  0  0  0  0  0  0  0  0  0
   22.2174   73.8316   -0.0006 P   0  0  2  0  0  0  0  0  0  0  0  0
   20.6175   73.9588    0.2037 O   0  0  0  0  0  0  0  0  0  0  0  0
   22.9225   75.1422   -0.1983 O   0  0  0  0  0  0  0  0  0  0  0  0
   22.7253   72.9847    1.2760 O   0  0  0  0  0  0  0  0  0  0  0  0
   25.0946   72.9861    1.2197 O   0  0  0  0  0  0  0  0  0  0  0  0
   24.5144   70.5681    4.5163 O   0  0  0  0  0  0  0  0  0  0  0  0
   25.4878   73.2460    4.8757 O   0  0  0  0  0  0  0  0  0  0  0  0
   22.7467   70.3473    2.2346 O   0  0  0  0  0  0  0  0  0  0  0  0
   24.2226   71.6476    3.6247 C   0  0  1  0  0  0  0  0  0  0  0  0
   25.4237   72.5953    3.6098 C   0  0  1  0  0  0  0  0  0  0  0  0
   23.9639   71.0854    2.2281 C   0  0  2  0  0  0  0  0  0  0  0  0
   25.2992   73.6296    2.4829 C   0  0  1  0  0  0  0  0  0  0  0  0
   23.9064   72.1935    1.1750 C   0  0  1  0  0  0  0  0  0  0  0  0
   24.6792   70.9182    5.4050 H   0  0  0  0  0  0  0  0  0  0  0  0
   25.5657   72.5818    5.5785 H   0  0  0  0  0  0  0  0  0  0  0  0
   22.7959   69.6488    2.9051 H   0  0  0  0  0  0  0  0  0  0  0  0
   27.6613   73.7365    2.8266 O   0  0  0  0  0  0  0  0  0  0  0  0
   26.5578   74.4842    2.3495 C   0  0  0  0  0  0  0  0  0  0  0  0
   28.4695   74.2679    2.7475 H   0  0  0  0  0  0  0  0  0  0  0  0
 25 28  1  0
 25 24  1  0
 25 26  1  1
 25 27  2  0
  1  4  1  0
  1 24  1  0
  1  2  1  6
  1  3  2  0
  6 11  1  0
  6 12  1  0
 29 36  1  0
 29 37  1  0
  9  7  1  6
  7 13  1  0
 10  8  1  6
  8 14  1  0
 37 28  1  1
  4  5  1  0
 33 30  1  1
 30 38  1  0
 34 31  1  1
 31 39  1  0
 35 32  1  1
 32 40  1  0
 41 42  1  0
 41 43  1  0
 15 19  2  0
 16 22  2  0
 12 17  1  1
 17 19  1  0
 17 20  1  0
 18 19  1  0
 18 22  1  0
 18 23  1  0
  9 10  1  0
  9 11  1  0
 10 12  1  0
 11  5  1  1
 33 34  1  0
 33 35  1  0
 34 36  1  0
 35 37  1  0
 36 42  1  6
 20 21  2  0
 21 22  1  0
M  CHG  2   2  -1  26  -1
M  END
>  <COMPND>  (102) 
    8629 

>  <AUTHOR>  (102) 
    GENERATED BY OPEN BABEL 3.1.1

>  <MASTER>  (102) 
        0    0    0    0    0    0    0    0   58    0   58    0

>  <minimizedAffinity>  (102) 
-7.05264

>  <CNNscore>  (102) 
0.8056394458

>  <CNNaffinity>  (102) 
4.5321874619

>  <CNN_VS>  (102) 
3.6513090134

>  <CNNaffinity_variance>  (102) 
0.0762820467

$$$$
103
     RDKit          3D

 43 45  0  0  0  0  0  0  0  0999 V2000
   21.6500   71.0923   -1.7915 P   0  0  2  0  0  0  0  0  0  0  0  0
   23.1026   70.4286   -2.0500 O   0  0  0  0  0  0  0  0  0  0  0  0
   21.1096   70.9136   -0.4031 O   0  0  0  0  0  0  0  0  0  0  0  0
   20.7331   70.4970   -2.9843 O   0  0  0  0  0  0  0  0  0  0  0  0
   20.1021   71.4055   -3.8698 C   0  0  0  0  0  0  0  0  0  0  0  0
   20.4415   70.6379   -6.1214 O   0  0  0  0  0  0  0  0  0  0  0  0
   22.0579   73.1304   -6.5285 O   0  0  0  0  0  0  0  0  0  0  0  0
   19.6733   73.7729   -7.6849 O   0  0  0  0  0  0  0  0  0  0  0  0
   20.8801   72.9365   -5.7471 C   0  0  1  0  0  0  0  0  0  0  0  0
   19.6670   72.8155   -6.6456 C   0  0  2  0  0  0  0  0  0  0  0  0
   20.9539   71.5482   -5.1237 C   0  0  1  0  0  0  0  0  0  0  0  0
   19.7972   71.3923   -7.1609 C   0  0  2  0  0  0  0  0  0  0  0  0
   22.0337   74.0106   -6.9365 H   0  0  0  0  0  0  0  0  0  0  0  0
   19.5881   74.6618   -7.3064 H   0  0  0  0  0  0  0  0  0  0  0  0
   18.9917   70.5078   -9.7196 O   0  0  0  0  0  0  0  0  0  0  0  0
   14.8872   69.1196   -8.1489 O   0  0  0  0  0  0  0  0  0  0  0  0
   18.5235   70.7955   -7.4491 N   0  0  0  0  0  0  0  0  0  0  0  0
   16.9487   69.8171   -8.9354 N   0  0  0  0  0  0  0  0  0  0  0  0
   18.2175   70.3865   -8.7680 C   0  0  0  0  0  0  0  0  0  0  0  0
   17.5937   70.6207   -6.4299 C   0  0  0  0  0  0  0  0  0  0  0  0
   16.3876   70.0772   -6.6063 C   0  0  0  0  0  0  0  0  0  0  0  0
   15.9892   69.6232   -7.9543 C   0  0  0  0  0  0  0  0  0  0  0  0
   16.7133   69.5251   -9.8459 H   0  0  0  0  0  0  0  0  0  0  0  0
   21.8692   72.6311   -2.2352 O   0  0  0  0  0  0  0  0  0  0  0  0
   23.2184   73.4611   -2.5571 P   0  0  2  0  0  0  0  0  0  0  0  0
   22.7163   74.9991   -2.5593 O   0  0  0  0  0  0  0  0  0  0  0  0
   23.9168   73.0359   -3.8162 O   0  0  0  0  0  0  0  0  0  0  0  0
   24.1106   73.3255   -1.2189 O   0  0  0  0  0  0  0  0  0  0  0  0
   22.9934   73.3719    0.8707 O   0  0  0  0  0  0  0  0  0  0  0  0
   26.8218   74.2427    2.1497 O   0  0  0  0  0  0  0  0  0  0  0  0
   25.6960   71.6588    2.7010 O   0  0  0  0  0  0  0  0  0  0  0  0
   25.8446   75.3494   -0.3402 O   0  0  0  0  0  0  0  0  0  0  0  0
   25.8337   73.6134    1.3294 C   0  0  1  0  0  0  0  0  0  0  0  0
   24.9325   72.7655    2.2292 C   0  0  1  0  0  0  0  0  0  0  0  0
   25.0195   74.6899    0.6141 C   0  0  2  0  0  0  0  0  0  0  0  0
   23.6939   72.2745    1.4679 C   0  0  1  0  0  0  0  0  0  0  0  0
   23.7836   74.1023   -0.0696 C   0  0  1  0  0  0  0  0  0  0  0  0
   27.3427   73.5647    2.6063 H   0  0  0  0  0  0  0  0  0  0  0  0
   26.4754   71.9826    3.1795 H   0  0  0  0  0  0  0  0  0  0  0  0
   26.6232   75.7173    0.1051 H   0  0  0  0  0  0  0  0  0  0  0  0
   23.0580   70.1909    2.4495 O   0  0  0  0  0  0  0  0  0  0  0  0
   22.7042   71.5602    2.3859 C   0  0  0  0  0  0  0  0  0  0  0  0
   22.4369   69.7237    3.0306 H   0  0  0  0  0  0  0  0  0  0  0  0
 25 28  1  0
 25 24  1  0
 25 26  1  6
 25 27  2  0
  1  4  1  0
  1 24  1  0
  1  2  1  1
  1  3  2  0
  6 11  1  0
  6 12  1  0
 29 36  1  0
 29 37  1  0
  9  7  1  6
  7 13  1  0
 10  8  1  6
  8 14  1  0
 37 28  1  6
  4  5  1  0
 33 30  1  1
 30 38  1  0
 34 31  1  6
 31 39  1  0
 35 32  1  6
 32 40  1  0
 41 42  1  0
 41 43  1  0
 15 19  2  0
 16 22  2  0
 12 17  1  1
 17 19  1  0
 17 20  1  0
 18 19  1  0
 18 22  1  0
 18 23  1  0
  9 10  1  0
  9 11  1  0
 10 12  1  0
 11  5  1  1
 33 34  1  0
 33 35  1  0
 34 36  1  0
 35 37  1  0
 36 42  1  1
 20 21  2  0
 21 22  1  0
M  CHG  2   2  -1  26  -1
M  END
>  <COMPND>  (103) 
    8629 

>  <AUTHOR>  (103) 
    GENERATED BY OPEN BABEL 3.1.1

>  <MASTER>  (103) 
        0    0    0    0    0    0    0    0   58    0   58    0

>  <minimizedAffinity>  (103) 
-7.07985

>  <CNNscore>  (103) 
0.7719219327

>  <CNNaffinity>  (103) 
4.4663820267

>  <CNN_VS>  (103) 
3.4476983547

>  <CNNaffinity_variance>  (103) 
0.1600917131

$$$$
104
     RDKit          3D

 43 45  0  0  0  0  0  0  0  0999 V2000
   22.6975   73.8534   -3.8390 P   0  0  2  0  0  0  0  0  0  0  0  0
   21.2050   73.7112   -3.2310 O   0  0  0  0  0  0  0  0  0  0  0  0
   23.0805   75.2416   -4.2604 O   0  0  0  0  0  0  0  0  0  0  0  0
   22.7535   72.7265   -4.9987 O   0  0  0  0  0  0  0  0  0  0  0  0
   21.5344   72.2774   -5.5645 C   0  0  0  0  0  0  0  0  0  0  0  0
   20.6991   71.8393   -7.7745 O   0  0  0  0  0  0  0  0  0  0  0  0
   21.0210   74.7779   -8.2761 O   0  0  0  0  0  0  0  0  0  0  0  0
   18.3448   74.5446   -7.8071 O   0  0  0  0  0  0  0  0  0  0  0  0
   20.6236   74.1045   -7.0828 C   0  0  1  0  0  0  0  0  0  0  0  0
   19.2048   73.5919   -7.2159 C   0  0  2  0  0  0  0  0  0  0  0  0
   21.4217   72.8103   -6.9863 C   0  0  1  0  0  0  0  0  0  0  0  0
   19.3954   72.3589   -8.0828 C   0  0  2  0  0  0  0  0  0  0  0  0
   20.5249   75.6079   -8.3593 H   0  0  0  0  0  0  0  0  0  0  0  0
   18.2557   75.3097   -7.2176 H   0  0  0  0  0  0  0  0  0  0  0  0
   18.5117   70.4568   -9.9747 O   0  0  0  0  0  0  0  0  0  0  0  0
   15.6264   68.5172   -6.9491 O   0  0  0  0  0  0  0  0  0  0  0  0
   18.4143   71.3450   -7.8163 N   0  0  0  0  0  0  0  0  0  0  0  0
   17.0759   69.4924   -8.4666 N   0  0  0  0  0  0  0  0  0  0  0  0
   18.0397   70.4393   -8.8360 C   0  0  0  0  0  0  0  0  0  0  0  0
   17.8348   71.2559   -6.5553 C   0  0  0  0  0  0  0  0  0  0  0  0
   16.9161   70.3479   -6.2194 C   0  0  0  0  0  0  0  0  0  0  0  0
   16.4695   69.3644   -7.2270 C   0  0  0  0  0  0  0  0  0  0  0  0
   16.7992   68.8512   -9.1609 H   0  0  0  0  0  0  0  0  0  0  0  0
   23.6256   73.2234   -2.6751 O   0  0  0  0  0  0  0  0  0  0  0  0
   23.8254   71.6953   -2.1873 P   0  0  2  0  0  0  0  0  0  0  0  0
   25.1870   71.2423   -2.9345 O   0  0  0  0  0  0  0  0  0  0  0  0
   22.6466   70.8049   -2.4546 O   0  0  0  0  0  0  0  0  0  0  0  0
   24.2348   71.8138   -0.6305 O   0  0  0  0  0  0  0  0  0  0  0  0
   23.8147   73.5616    0.9138 O   0  0  0  0  0  0  0  0  0  0  0  0
   27.5515   72.4003    2.2323 O   0  0  0  0  0  0  0  0  0  0  0  0
   25.2328   71.7649    3.8033 O   0  0  0  0  0  0  0  0  0  0  0  0
   26.9695   72.4429   -0.6030 O   0  0  0  0  0  0  0  0  0  0  0  0
   26.2457   72.2067    1.6821 C   0  0  1  0  0  0  0  0  0  0  0  0
   25.2168   72.6796    2.7109 C   0  0  1  0  0  0  0  0  0  0  0  0
   26.1238   73.0127    0.3902 C   0  0  2  0  0  0  0  0  0  0  0  0
   23.8125   72.7534    2.0964 C   0  0  1  0  0  0  0  0  0  0  0  0
   24.6789   73.0638   -0.1095 C   0  0  1  0  0  0  0  0  0  0  0  0
   27.6356   71.8908    3.0526 H   0  0  0  0  0  0  0  0  0  0  0  0
   26.1252   71.7272    4.1820 H   0  0  0  0  0  0  0  0  0  0  0  0
   27.8813   72.4164   -0.2747 H   0  0  0  0  0  0  0  0  0  0  0  0
   23.4778   74.2878    3.8971 O   0  0  0  0  0  0  0  0  0  0  0  0
   22.7995   73.3718    3.0574 C   0  0  0  0  0  0  0  0  0  0  0  0
   22.8454   74.6895    4.5139 H   0  0  0  0  0  0  0  0  0  0  0  0
 25 28  1  0
 25 24  1  0
 25 26  1  6
 25 27  2  0
  1  4  1  0
  1 24  1  0
  1  2  1  1
  1  3  2  0
  6 11  1  0
  6 12  1  0
 29 36  1  0
 29 37  1  0
  9  7  1  6
  7 13  1  0
 10  8  1  6
  8 14  1  0
 37 28  1  1
  4  5  1  0
 33 30  1  1
 30 38  1  0
 34 31  1  1
 31 39  1  0
 35 32  1  6
 32 40  1  0
 41 42  1  0
 41 43  1  0
 15 19  2  0
 16 22  2  0
 12 17  1  1
 17 19  1  0
 17 20  1  0
 18 19  1  0
 18 22  1  0
 18 23  1  0
  9 10  1  0
  9 11  1  0
 10 12  1  0
 11  5  1  1
 33 34  1  0
 33 35  1  0
 34 36  1  0
 35 37  1  0
 36 42  1  1
 20 21  2  0
 21 22  1  0
M  CHG  2   2  -1  26  -1
M  END
>  <COMPND>  (104) 
    8629 

>  <AUTHOR>  (104) 
    GENERATED BY OPEN BABEL 3.1.1

>  <MASTER>  (104) 
        0    0    0    0    0    0    0    0   58    0   58    0

>  <minimizedAffinity>  (104) 
-7.13976

>  <CNNscore>  (104) 
0.6840368509

>  <CNNaffinity>  (104) 
4.3573236465

>  <CNN_VS>  (104) 
2.9805698395

>  <CNNaffinity_variance>  (104) 
0.0779556260

$$$$
105
     RDKit          3D

 43 45  0  0  0  0  0  0  0  0999 V2000
   19.5938   74.0801   -1.9140 P   0  0  2  0  0  0  0  0  0  0  0  0
   19.1047   73.8161   -0.3946 O   0  0  0  0  0  0  0  0  0  0  0  0
   18.5613   74.6914   -2.8149 O   0  0  0  0  0  0  0  0  0  0  0  0
   20.1804   72.6484   -2.3874 O   0  0  0  0  0  0  0  0  0  0  0  0
   19.6060   72.0243   -3.5225 C   0  0  0  0  0  0  0  0  0  0  0  0
   20.2444   70.6890   -5.4154 O   0  0  0  0  0  0  0  0  0  0  0  0
   22.3257   72.7797   -5.9517 O   0  0  0  0  0  0  0  0  0  0  0  0
   20.3713   73.4130   -7.7449 O   0  0  0  0  0  0  0  0  0  0  0  0
   21.0008   72.9345   -5.4457 C   0  0  1  0  0  0  0  0  0  0  0  0
   19.9887   72.7500   -6.5571 C   0  0  2  0  0  0  0  0  0  0  0  0
   20.7015   71.7448   -4.5422 C   0  0  1  0  0  0  0  0  0  0  0  0
   19.9639   71.2390   -6.7130 C   0  0  2  0  0  0  0  0  0  0  0  0
   22.5398   73.5281   -6.5314 H   0  0  0  0  0  0  0  0  0  0  0  0
   20.3718   74.3712   -7.5947 H   0  0  0  0  0  0  0  0  0  0  0  0
   19.2527   70.8744   -9.4221 O   0  0  0  0  0  0  0  0  0  0  0  0
   15.0389   69.3787   -8.3047 O   0  0  0  0  0  0  0  0  0  0  0  0
   18.6876   70.7552   -7.1585 N   0  0  0  0  0  0  0  0  0  0  0  0
   17.1552   70.1298   -8.8635 N   0  0  0  0  0  0  0  0  0  0  0  0
   18.4314   70.6092   -8.5418 C   0  0  0  0  0  0  0  0  0  0  0  0
   17.7062   70.4309   -6.2282 C   0  0  0  0  0  0  0  0  0  0  0  0
   16.4937   69.9762   -6.5514 C   0  0  0  0  0  0  0  0  0  0  0  0
   16.1454   69.7949   -7.9754 C   0  0  0  0  0  0  0  0  0  0  0  0
   16.9540   70.0204   -9.8213 H   0  0  0  0  0  0  0  0  0  0  0  0
   20.9274   74.9719   -1.7167 O   0  0  0  0  0  0  0  0  0  0  0  0
   22.4905   74.5600   -1.7228 P   0  0  2  0  0  0  0  0  0  0  0  0
   23.2377   75.9329   -1.3055 O   0  0  0  0  0  0  0  0  0  0  0  0
   22.9651   73.9654   -3.0171 O   0  0  0  0  0  0  0  0  0  0  0  0
   22.6638   73.5955   -0.4404 O   0  0  0  0  0  0  0  0  0  0  0  0
   24.7991   72.5831   -0.2618 O   0  0  0  0  0  0  0  0  0  0  0  0
   22.7507   70.2937    2.4975 O   0  0  0  0  0  0  0  0  0  0  0  0
   24.6659   72.2317    3.4053 O   0  0  0  0  0  0  0  0  0  0  0  0
   21.4441   71.1159    0.0488 O   0  0  0  0  0  0  0  0  0  0  0  0
   23.0770   71.4871    1.7800 C   0  0  1  0  0  0  0  0  0  0  0  0
   24.5463   71.8202    2.0464 C   0  0  1  0  0  0  0  0  0  0  0  0
   22.8404   71.2536    0.2890 C   0  0  2  0  0  0  0  0  0  0  0  0
   25.0423   72.9278    1.1071 C   0  0  1  0  0  0  0  0  0  0  0  0
   23.4148   72.3900   -0.5588 C   0  0  1  0  0  0  0  0  0  0  0  0
   22.8983   70.4354    3.4449 H   0  0  0  0  0  0  0  0  0  0  0  0
   24.3490   71.5236    3.9879 H   0  0  0  0  0  0  0  0  0  0  0  0
   21.0925   70.3932    0.5910 H   0  0  0  0  0  0  0  0  0  0  0  0
   27.2274   72.1884    0.4847 O   0  0  0  0  0  0  0  0  0  0  0  0
   26.5441   73.1664    1.2470 C   0  0  0  0  0  0  0  0  0  0  0  0
   28.1845   72.3280    0.5641 H   0  0  0  0  0  0  0  0  0  0  0  0
 25 28  1  0
 25 24  1  0
 25 26  1  1
 25 27  2  0
  1  4  1  0
  1 24  1  0
  1  2  1  1
  1  3  2  0
  6 11  1  0
  6 12  1  0
 29 36  1  0
 29 37  1  0
  9  7  1  6
  7 13  1  0
 10  8  1  6
  8 14  1  0
 37 28  1  1
  4  5  1  0
 33 30  1  1
 30 38  1  0
 34 31  1  1
 31 39  1  0
 35 32  1  1
 32 40  1  0
 41 42  1  0
 41 43  1  0
 15 19  2  0
 16 22  2  0
 12 17  1  1
 17 19  1  0
 17 20  1  0
 18 19  1  0
 18 22  1  0
 18 23  1  0
  9 10  1  0
  9 11  1  0
 10 12  1  0
 11  5  1  1
 33 34  1  0
 33 35  1  0
 34 36  1  0
 35 37  1  0
 36 42  1  6
 20 21  2  0
 21 22  1  0
M  CHG  2   2  -1  26  -1
M  END
>  <COMPND>  (105) 
    8629 

>  <AUTHOR>  (105) 
    GENERATED BY OPEN BABEL 3.1.1

>  <MASTER>  (105) 
        0    0    0    0    0    0    0    0   58    0   58    0

>  <minimizedAffinity>  (105) 
-6.83887

>  <CNNscore>  (105) 
0.6271443367

>  <CNNaffinity>  (105) 
4.2885241508

>  <CNN_VS>  (105) 
2.6895236969

>  <CNNaffinity_variance>  (105) 
0.0196915120

$$$$
106
     RDKit          3D

 43 45  0  0  0  0  0  0  0  0999 V2000
   20.3258   71.1423   -2.1116 P   0  0  2  0  0  0  0  0  0  0  0  0
   20.5851   70.6235   -3.6219 O   0  0  0  0  0  0  0  0  0  0  0  0
   19.9895   70.0667   -1.1210 O   0  0  0  0  0  0  0  0  0  0  0  0
   19.2176   72.3082   -2.2863 O   0  0  0  0  0  0  0  0  0  0  0  0
   18.9342   72.7815   -3.5915 C   0  0  0  0  0  0  0  0  0  0  0  0
   17.1715   72.9316   -5.2176 O   0  0  0  0  0  0  0  0  0  0  0  0
   15.3927   71.7282   -3.1250 O   0  0  0  0  0  0  0  0  0  0  0  0
   15.9520   69.5945   -4.7285 O   0  0  0  0  0  0  0  0  0  0  0  0
   16.7667   71.4626   -3.4027 C   0  0  1  0  0  0  0  0  0  0  0  0
   16.8982   70.6423   -4.6690 C   0  0  2  0  0  0  0  0  0  0  0  0
   17.4266   72.7758   -3.8044 C   0  0  1  0  0  0  0  0  0  0  0  0
   16.6791   71.6899   -5.7472 C   0  0  2  0  0  0  0  0  0  0  0  0
   14.9503   70.9042   -2.8659 H   0  0  0  0  0  0  0  0  0  0  0  0
   16.1336   68.9542   -4.0230 H   0  0  0  0  0  0  0  0  0  0  0  0
   15.6513   70.0956   -7.8400 O   0  0  0  0  0  0  0  0  0  0  0  0
   19.4875   70.5894  -10.3462 O   0  0  0  0  0  0  0  0  0  0  0  0
   17.3877   71.3859   -6.9583 N   0  0  0  0  0  0  0  0  0  0  0  0
   17.5622   70.3429   -9.0863 N   0  0  0  0  0  0  0  0  0  0  0  0
   16.7821   70.5749   -7.9463 C   0  0  0  0  0  0  0  0  0  0  0  0
   18.6683   71.8902   -7.1572 C   0  0  0  0  0  0  0  0  0  0  0  0
   19.3995   71.6587   -8.2494 C   0  0  0  0  0  0  0  0  0  0  0  0
   18.8402   70.8207   -9.3297 C   0  0  0  0  0  0  0  0  0  0  0  0
   17.1610   69.7802   -9.7878 H   0  0  0  0  0  0  0  0  0  0  0  0
   21.6733   71.9694   -1.7750 O   0  0  0  0  0  0  0  0  0  0  0  0
   21.9510   73.1624   -0.7202 P   0  0  2  0  0  0  0  0  0  0  0  0
   20.7947   72.9514    0.3915 O   0  0  0  0  0  0  0  0  0  0  0  0
   21.9776   74.5324   -1.3337 O   0  0  0  0  0  0  0  0  0  0  0  0
   23.3171   72.7374    0.0268 O   0  0  0  0  0  0  0  0  0  0  0  0
   23.9206   74.3553    1.6500 O   0  0  0  0  0  0  0  0  0  0  0  0
   27.3233   72.0181    1.7511 O   0  0  0  0  0  0  0  0  0  0  0  0
   25.4721   71.9231    3.9448 O   0  0  0  0  0  0  0  0  0  0  0  0
   25.9997   72.5331   -0.7713 O   0  0  0  0  0  0  0  0  0  0  0  0
   25.9223   72.2748    1.6222 C   0  0  1  0  0  0  0  0  0  0  0  0
   25.4303   72.9143    2.9221 C   0  0  1  0  0  0  0  0  0  0  0  0
   25.6938   73.2151    0.4403 C   0  0  2  0  0  0  0  0  0  0  0  0
   24.0048   73.4609    2.7657 C   0  0  1  0  0  0  0  0  0  0  0  0
   24.2572   73.7396    0.4052 C   0  0  1  0  0  0  0  0  0  0  0  0
   27.4752   71.4212    2.4996 H   0  0  0  0  0  0  0  0  0  0  0  0
   26.3775   71.5859    4.0331 H   0  0  0  0  0  0  0  0  0  0  0  0
   26.9118   72.2062   -0.7367 H   0  0  0  0  0  0  0  0  0  0  0  0
   23.1675   73.3171    4.9989 O   0  0  0  0  0  0  0  0  0  0  0  0
   23.5531   74.2413    3.9981 C   0  0  0  0  0  0  0  0  0  0  0  0
   22.8779   73.7997    5.7894 H   0  0  0  0  0  0  0  0  0  0  0  0
 25 28  1  0
 25 24  1  0
 25 26  1  1
 25 27  2  0
  1  4  1  0
  1 24  1  0
  1  2  1  6
  1  3  2  0
  6 11  1  0
  6 12  1  0
 29 36  1  0
 29 37  1  0
  9  7  1  6
  7 13  1  0
 10  8  1  1
  8 14  1  0
 37 28  1  1
  4  5  1  0
 33 30  1  1
 30 38  1  0
 34 31  1  1
 31 39  1  0
 35 32  1  6
 32 40  1  0
 41 42  1  0
 41 43  1  0
 15 19  2  0
 16 22  2  0
 12 17  1  6
 17 19  1  0
 17 20  1  0
 18 19  1  0
 18 22  1  0
 18 23  1  0
  9 10  1  0
  9 11  1  0
 10 12  1  0
 11  5  1  6
 33 34  1  0
 33 35  1  0
 34 36  1  0
 35 37  1  0
 36 42  1  1
 20 21  2  0
 21 22  1  0
M  CHG  2   2  -1  26  -1
M  END
>  <COMPND>  (106) 
    8629 

>  <AUTHOR>  (106) 
    GENERATED BY OPEN BABEL 3.1.1

>  <MASTER>  (106) 
        0    0    0    0    0    0    0    0   58    0   58    0

>  <minimizedAffinity>  (106) 
-6.02593

>  <CNNscore>  (106) 
0.5756194592

>  <CNNaffinity>  (106) 
4.3666005135

>  <CNN_VS>  (106) 
2.5135002136

>  <CNNaffinity_variance>  (106) 
0.1834774315

$$$$
107
     RDKit          3D

 43 45  0  0  0  0  0  0  0  0999 V2000
   23.0467   74.1874   -2.9681 P   0  0  2  0  0  0  0  0  0  0  0  0
   22.7952   75.7802   -2.8376 O   0  0  0  0  0  0  0  0  0  0  0  0
   23.9785   73.7812   -4.0718 O   0  0  0  0  0  0  0  0  0  0  0  0
   21.5557   73.5634   -3.0419 O   0  0  0  0  0  0  0  0  0  0  0  0
   20.8518   73.6376   -4.2695 C   0  0  0  0  0  0  0  0  0  0  0  0
   18.6650   73.5301   -5.2594 O   0  0  0  0  0  0  0  0  0  0  0  0
   17.7345   72.4260   -2.6315 O   0  0  0  0  0  0  0  0  0  0  0  0
   17.9480   70.1877   -4.1746 O   0  0  0  0  0  0  0  0  0  0  0  0
   18.9715   72.2169   -3.3108 C   0  0  1  0  0  0  0  0  0  0  0  0
   18.7726   71.2904   -4.4922 C   0  0  2  0  0  0  0  0  0  0  0  0
   19.3590   73.5231   -3.9927 C   0  0  1  0  0  0  0  0  0  0  0  0
   18.1404   72.2173   -5.5166 C   0  0  2  0  0  0  0  0  0  0  0  0
   17.4667   71.6054   -2.1879 H   0  0  0  0  0  0  0  0  0  0  0  0
   18.3939   69.6283   -3.5196 H   0  0  0  0  0  0  0  0  0  0  0  0
   16.4431   72.6365   -7.7350 O   0  0  0  0  0  0  0  0  0  0  0  0
   19.4731   70.7394  -10.6438 O   0  0  0  0  0  0  0  0  0  0  0  0
   18.4608   71.8430   -6.8651 N   0  0  0  0  0  0  0  0  0  0  0  0
   17.9533   71.6917   -9.1816 N   0  0  0  0  0  0  0  0  0  0  0  0
   17.5383   72.0972   -7.9067 C   0  0  0  0  0  0  0  0  0  0  0  0
   19.6782   71.2315   -7.1440 C   0  0  0  0  0  0  0  0  0  0  0  0
   20.0584   70.8498   -8.3651 C   0  0  0  0  0  0  0  0  0  0  0  0
   19.1525   71.0791   -9.5091 C   0  0  0  0  0  0  0  0  0  0  0  0
   17.3266   71.8583   -9.9228 H   0  0  0  0  0  0  0  0  0  0  0  0
   23.5402   73.7747   -1.4851 O   0  0  0  0  0  0  0  0  0  0  0  0
   24.0235   72.3541   -0.8841 P   0  0  2  0  0  0  0  0  0  0  0  0
   25.5339   72.2083   -1.4454 O   0  0  0  0  0  0  0  0  0  0  0  0
   23.1223   71.2029   -1.2255 O   0  0  0  0  0  0  0  0  0  0  0  0
   24.2004   72.6188    0.6982 O   0  0  0  0  0  0  0  0  0  0  0  0
   25.7684   71.8221    2.2866 O   0  0  0  0  0  0  0  0  0  0  0  0
   22.3483   71.6547    4.5943 O   0  0  0  0  0  0  0  0  0  0  0  0
   24.3123   73.6843    5.1152 O   0  0  0  0  0  0  0  0  0  0  0  0
   22.2354   70.9399    1.7915 O   0  0  0  0  0  0  0  0  0  0  0  0
   23.2226   72.1908    3.5976 C   0  0  1  0  0  0  0  0  0  0  0  0
   24.5461   72.5614    4.2698 C   0  0  1  0  0  0  0  0  0  0  0  0
   23.4466   71.1395    2.5123 C   0  0  2  0  0  0  0  0  0  0  0  0
   25.6231   72.8921    3.2278 C   0  0  1  0  0  0  0  0  0  0  0  0
   24.5713   71.5440    1.5576 C   0  0  1  0  0  0  0  0  0  0  0  0
   22.2015   72.3175    5.2862 H   0  0  0  0  0  0  0  0  0  0  0  0
   23.6299   73.4625    5.7681 H   0  0  0  0  0  0  0  0  0  0  0  0
   21.5314   70.6840    2.4069 H   0  0  0  0  0  0  0  0  0  0  0  0
   27.9380   73.3407    2.8418 O   0  0  0  0  0  0  0  0  0  0  0  0
   26.9916   73.1108    3.8693 C   0  0  0  0  0  0  0  0  0  0  0  0
   28.8137   73.4819    3.2353 H   0  0  0  0  0  0  0  0  0  0  0  0
 25 28  1  0
 25 24  1  0
 25 26  1  6
 25 27  2  0
  1  4  1  0
  1 24  1  0
  1  2  1  1
  1  3  2  0
  6 11  1  0
  6 12  1  0
 29 36  1  0
 29 37  1  0
  9  7  1  6
  7 13  1  0
 10  8  1  1
  8 14  1  0
 37 28  1  1
  4  5  1  0
 33 30  1  1
 30 38  1  0
 34 31  1  1
 31 39  1  0
 35 32  1  6
 32 40  1  0
 41 42  1  0
 41 43  1  0
 15 19  2  0
 16 22  2  0
 12 17  1  6
 17 19  1  0
 17 20  1  0
 18 19  1  0
 18 22  1  0
 18 23  1  0
  9 10  1  0
  9 11  1  0
 10 12  1  0
 11  5  1  6
 33 34  1  0
 33 35  1  0
 34 36  1  0
 35 37  1  0
 36 42  1  1
 20 21  2  0
 21 22  1  0
M  CHG  2   2  -1  26  -1
M  END
>  <COMPND>  (107) 
    8629 

>  <AUTHOR>  (107) 
    GENERATED BY OPEN BABEL 3.1.1

>  <MASTER>  (107) 
        0    0    0    0    0    0    0    0   58    0   58    0

>  <minimizedAffinity>  (107) 
-6.56274

>  <CNNscore>  (107) 
0.5694888234

>  <CNNaffinity>  (107) 
4.2619037628

>  <CNN_VS>  (107) 
2.4271066189

>  <CNNaffinity_variance>  (107) 
0.0191083197

$$$$
108
     RDKit          3D

 43 45  0  0  0  0  0  0  0  0999 V2000
   17.9507   74.4121   -3.1958 P   0  0  2  0  0  0  0  0  0  0  0  0
   17.4956   74.9524   -4.6513 O   0  0  0  0  0  0  0  0  0  0  0  0
   17.9735   75.4505   -2.1130 O   0  0  0  0  0  0  0  0  0  0  0  0
   19.3566   73.6639   -3.4814 O   0  0  0  0  0  0  0  0  0  0  0  0
   19.3576   72.2527   -3.6095 C   0  0  0  0  0  0  0  0  0  0  0  0
   20.0065   70.7341   -5.3550 O   0  0  0  0  0  0  0  0  0  0  0  0
   22.1975   72.6835   -5.9797 O   0  0  0  0  0  0  0  0  0  0  0  0
   20.3419   73.2398   -7.8991 O   0  0  0  0  0  0  0  0  0  0  0  0
   20.8628   72.9357   -5.5437 C   0  0  1  0  0  0  0  0  0  0  0  0
   19.8859   72.6979   -6.6763 C   0  0  2  0  0  0  0  0  0  0  0  0
   20.4771   71.8416   -4.5560 C   0  0  1  0  0  0  0  0  0  0  0  0
   19.7997   71.1814   -6.7049 C   0  0  2  0  0  0  0  0  0  0  0  0
   22.4663   73.3697   -6.6113 H   0  0  0  0  0  0  0  0  0  0  0  0
   20.3794   74.2065   -7.8304 H   0  0  0  0  0  0  0  0  0  0  0  0
   19.1517   70.6872   -9.4093 O   0  0  0  0  0  0  0  0  0  0  0  0
   14.8613   69.3913   -8.3349 O   0  0  0  0  0  0  0  0  0  0  0  0
   18.5208   70.7139   -7.1602 N   0  0  0  0  0  0  0  0  0  0  0  0
   17.0160   70.0422   -8.8721 N   0  0  0  0  0  0  0  0  0  0  0  0
   18.2981   70.4983   -8.5402 C   0  0  0  0  0  0  0  0  0  0  0  0
   17.5038   70.4740   -6.2425 C   0  0  0  0  0  0  0  0  0  0  0  0
   16.2863   70.0404   -6.5754 C   0  0  0  0  0  0  0  0  0  0  0  0
   15.9715   69.7901   -7.9968 C   0  0  0  0  0  0  0  0  0  0  0  0
   16.8377   69.8853   -9.8278 H   0  0  0  0  0  0  0  0  0  0  0  0
   16.9333   73.1845   -2.9294 O   0  0  0  0  0  0  0  0  0  0  0  0
   15.3181   73.1329   -2.8949 P   0  0  2  0  0  0  0  0  0  0  0  0
   14.9354   72.5206   -4.3428 O   0  0  0  0  0  0  0  0  0  0  0  0
   14.6667   74.4502   -2.5878 O   0  0  0  0  0  0  0  0  0  0  0  0
   14.9693   71.9543   -1.8489 O   0  0  0  0  0  0  0  0  0  0  0  0
   14.1078   72.2392    0.3405 O   0  0  0  0  0  0  0  0  0  0  0  0
   16.2525   68.7590    0.9231 O   0  0  0  0  0  0  0  0  0  0  0  0
   13.3830   68.6614    0.8527 O   0  0  0  0  0  0  0  0  0  0  0  0
   17.3151   70.8412   -0.7841 O   0  0  0  0  0  0  0  0  0  0  0  0
   15.4422   69.6832    0.1919 C   0  0  1  0  0  0  0  0  0  0  0  0
   14.1271   69.8726    0.9505 C   0  0  1  0  0  0  0  0  0  0  0  0
   16.1874   71.0109    0.0679 C   0  0  2  0  0  0  0  0  0  0  0  0
   13.3194   71.0438    0.3753 C   0  0  1  0  0  0  0  0  0  0  0  0
   15.2801   72.1199   -0.4678 C   0  0  1  0  0  0  0  0  0  0  0  0
   15.7853   67.9137    1.0050 H   0  0  0  0  0  0  0  0  0  0  0  0
   13.9044   67.9297    1.2189 H   0  0  0  0  0  0  0  0  0  0  0  0
   17.8816   70.1368   -0.4340 H   0  0  0  0  0  0  0  0  0  0  0  0
   12.3009   70.8790    2.5303 O   0  0  0  0  0  0  0  0  0  0  0  0
   12.0806   71.3508    1.2138 C   0  0  0  0  0  0  0  0  0  0  0  0
   11.5206   71.0678    3.0756 H   0  0  0  0  0  0  0  0  0  0  0  0
 25 28  1  0
 25 24  1  0
 25 26  1  6
 25 27  2  0
  1  4  1  0
  1 24  1  0
  1  2  1  6
  1  3  2  0
  6 11  1  0
  6 12  1  0
 29 36  1  0
 29 37  1  0
  9  7  1  6
  7 13  1  0
 10  8  1  6
  8 14  1  0
 37 28  1  6
  4  5  1  0
 33 30  1  1
 30 38  1  0
 34 31  1  6
 31 39  1  0
 35 32  1  6
 32 40  1  0
 41 42  1  0
 41 43  1  0
 15 19  2  0
 16 22  2  0
 12 17  1  1
 17 19  1  0
 17 20  1  0
 18 19  1  0
 18 22  1  0
 18 23  1  0
  9 10  1  0
  9 11  1  0
 10 12  1  0
 11  5  1  1
 33 34  1  0
 33 35  1  0
 34 36  1  0
 35 37  1  0
 36 42  1  1
 20 21  2  0
 21 22  1  0
M  CHG  2   2  -1  26  -1
M  END
>  <COMPND>  (108) 
    8629 

>  <AUTHOR>  (108) 
    GENERATED BY OPEN BABEL 3.1.1

>  <MASTER>  (108) 
        0    0    0    0    0    0    0    0   58    0   58    0

>  <minimizedAffinity>  (108) 
-5.54568

>  <CNNscore>  (108) 
0.5426561832

>  <CNNaffinity>  (108) 
4.1649317741

>  <CNN_VS>  (108) 
2.2601258755

>  <CNNaffinity_variance>  (108) 
0.0391042158

$$$$
109
     RDKit          3D

 43 45  0  0  0  0  0  0  0  0999 V2000
   21.1806   72.3214   -5.3836 P   0  0  2  0  0  0  0  0  0  0  0  0
   20.3277   73.5494   -4.7657 O   0  0  0  0  0  0  0  0  0  0  0  0
   21.9277   72.6401   -6.6453 O   0  0  0  0  0  0  0  0  0  0  0  0
   20.1061   71.1162   -5.4886 O   0  0  0  0  0  0  0  0  0  0  0  0
   19.1914   71.1184   -6.5708 C   0  0  0  0  0  0  0  0  0  0  0  0
   17.0284   71.9548   -5.9416 O   0  0  0  0  0  0  0  0  0  0  0  0
   16.0594   69.1322   -6.2331 O   0  0  0  0  0  0  0  0  0  0  0  0
   15.2286   70.2890   -8.5586 O   0  0  0  0  0  0  0  0  0  0  0  0
   17.0373   69.8340   -6.9989 C   0  0  1  0  0  0  0  0  0  0  0  0
   16.3670   70.8312   -7.9207 C   0  0  2  0  0  0  0  0  0  0  0  0
   17.8094   70.7448   -6.0525 C   0  0  1  0  0  0  0  0  0  0  0  0
   16.0194   71.9597   -6.9647 C   0  0  2  0  0  0  0  0  0  0  0  0
   15.5537   68.5437   -6.8161 H   0  0  0  0  0  0  0  0  0  0  0  0
   15.5018   69.5753   -9.1559 H   0  0  0  0  0  0  0  0  0  0  0  0
   13.8626   72.9794   -8.4768 O   0  0  0  0  0  0  0  0  0  0  0  0
   16.1177   76.8925   -9.3953 O   0  0  0  0  0  0  0  0  0  0  0  0
   16.0158   73.2424   -7.6098 N   0  0  0  0  0  0  0  0  0  0  0  0
   14.9872   74.9270   -8.9328 N   0  0  0  0  0  0  0  0  0  0  0  0
   14.8825   73.6594   -8.3460 C   0  0  0  0  0  0  0  0  0  0  0  0
   17.1273   74.0721   -7.5087 C   0  0  0  0  0  0  0  0  0  0  0  0
   17.2118   75.2775   -8.0753 C   0  0  0  0  0  0  0  0  0  0  0  0
   16.0707   75.7882   -8.8621 C   0  0  0  0  0  0  0  0  0  0  0  0
   14.2098   75.2384   -9.4509 H   0  0  0  0  0  0  0  0  0  0  0  0
   22.1150   71.8682   -4.1448 O   0  0  0  0  0  0  0  0  0  0  0  0
   23.4129   72.5679   -3.4826 P   0  0  2  0  0  0  0  0  0  0  0  0
   23.3862   74.0618   -4.1032 O   0  0  0  0  0  0  0  0  0  0  0  0
   24.6971   71.8249   -3.7121 O   0  0  0  0  0  0  0  0  0  0  0  0
   23.0227   72.7650   -1.9289 O   0  0  0  0  0  0  0  0  0  0  0  0
   22.6774   71.1394   -0.2392 O   0  0  0  0  0  0  0  0  0  0  0  0
   19.8329   73.9024    0.9122 O   0  0  0  0  0  0  0  0  0  0  0  0
   22.2284   73.6014    2.4674 O   0  0  0  0  0  0  0  0  0  0  0  0
   20.2852   73.3816   -1.8992 O   0  0  0  0  0  0  0  0  0  0  0  0
   21.0837   73.4681    0.3715 C   0  0  1  0  0  0  0  0  0  0  0  0
   21.8275   72.6835    1.4540 C   0  0  1  0  0  0  0  0  0  0  0  0
   20.8213   72.5859   -0.8475 C   0  0  2  0  0  0  0  0  0  0  0  0
   23.0506   71.9612    0.8731 C   0  0  1  0  0  0  0  0  0  0  0  0
   22.0930   71.8759   -1.3153 C   0  0  1  0  0  0  0  0  0  0  0  0
   19.9925   74.4634    1.6863 H   0  0  0  0  0  0  0  0  0  0  0  0
   21.4470   74.0511    2.8256 H   0  0  0  0  0  0  0  0  0  0  0  0
   19.4804   73.8254   -1.5907 H   0  0  0  0  0  0  0  0  0  0  0  0
   22.7073   70.4694    2.7076 O   0  0  0  0  0  0  0  0  0  0  0  0
   23.7160   71.0471    1.8996 C   0  0  0  0  0  0  0  0  0  0  0  0
   23.1161   69.8849    3.3655 H   0  0  0  0  0  0  0  0  0  0  0  0
 25 28  1  0
 25 24  1  0
 25 26  1  6
 25 27  2  0
  1  4  1  0
  1 24  1  0
  1  2  1  1
  1  3  2  0
  6 11  1  0
  6 12  1  0
 29 36  1  0
 29 37  1  0
  9  7  1  1
  7 13  1  0
 10  8  1  1
  8 14  1  0
 37 28  1  1
  4  5  1  0
 33 30  1  1
 30 38  1  0
 34 31  1  1
 31 39  1  0
 35 32  1  6
 32 40  1  0
 41 42  1  0
 41 43  1  0
 15 19  2  0
 16 22  2  0
 12 17  1  6
 17 19  1  0
 17 20  1  0
 18 19  1  0
 18 22  1  0
 18 23  1  0
  9 10  1  0
  9 11  1  0
 10 12  1  0
 11  5  1  6
 33 34  1  0
 33 35  1  0
 34 36  1  0
 35 37  1  0
 36 42  1  1
 20 21  2  0
 21 22  1  0
M  CHG  2   2  -1  26  -1
M  END
>  <COMPND>  (109) 
    8629 

>  <AUTHOR>  (109) 
    GENERATED BY OPEN BABEL 3.1.1

>  <MASTER>  (109) 
        0    0    0    0    0    0    0    0   58    0   58    0

>  <minimizedAffinity>  (109) 
-6.81876

>  <CNNscore>  (109) 
0.5291760564

>  <CNNaffinity>  (109) 
4.1637668610

>  <CNN_VS>  (109) 
2.2033658028

>  <CNNaffinity_variance>  (109) 
0.0562147871

$$$$
110
     RDKit          3D

 43 45  0  0  0  0  0  0  0  0999 V2000
   22.6038   73.3701   -3.8148 P   0  0  2  0  0  0  0  0  0  0  0  0
   24.0060   73.0041   -4.5340 O   0  0  0  0  0  0  0  0  0  0  0  0
   22.5580   74.7227   -3.1668 O   0  0  0  0  0  0  0  0  0  0  0  0
   22.3298   72.1120   -2.8350 O   0  0  0  0  0  0  0  0  0  0  0  0
   21.7223   70.9524   -3.3774 C   0  0  0  0  0  0  0  0  0  0  0  0
   21.3473   70.5267   -1.0424 O   0  0  0  0  0  0  0  0  0  0  0  0
   18.4523   70.2113   -1.7567 O   0  0  0  0  0  0  0  0  0  0  0  0
   18.5387   72.7343   -0.7255 O   0  0  0  0  0  0  0  0  0  0  0  0
   19.4231   71.1052   -2.2987 C   0  0  1  0  0  0  0  0  0  0  0  0
   19.7146   72.2222   -1.3184 C   0  0  2  0  0  0  0  0  0  0  0  0
   20.7578   70.3723   -2.3520 C   0  0  1  0  0  0  0  0  0  0  0  0
   20.6224   71.5317   -0.3148 C   0  0  2  0  0  0  0  0  0  0  0  0
   17.5913   70.6570   -1.7131 H   0  0  0  0  0  0  0  0  0  0  0  0
   17.9948   73.1637   -1.4041 H   0  0  0  0  0  0  0  0  0  0  0  0
   22.5382   70.7866    1.6224 O   0  0  0  0  0  0  0  0  0  0  0  0
   24.1635   75.0880    1.9352 O   0  0  0  0  0  0  0  0  0  0  0  0
   21.5591   72.4365    0.2895 N   0  0  0  0  0  0  0  0  0  0  0  0
   23.3460   72.9289    1.7764 N   0  0  0  0  0  0  0  0  0  0  0  0
   22.4791   71.9612    1.2529 C   0  0  0  0  0  0  0  0  0  0  0  0
   21.5597   73.7787   -0.0745 C   0  0  0  0  0  0  0  0  0  0  0  0
   22.3920   74.6890    0.4351 C   0  0  0  0  0  0  0  0  0  0  0  0
   23.3845   74.2747    1.4477 C   0  0  0  0  0  0  0  0  0  0  0  0
   23.9955   72.6209    2.4496 H   0  0  0  0  0  0  0  0  0  0  0  0
   21.5219   73.1531   -4.9960 O   0  0  0  0  0  0  0  0  0  0  0  0
   20.5108   74.1905   -5.7132 P   0  0  2  0  0  0  0  0  0  0  0  0
   21.3828   74.7637   -6.9496 O   0  0  0  0  0  0  0  0  0  0  0  0
   19.9633   75.2478   -4.7988 O   0  0  0  0  0  0  0  0  0  0  0  0
   19.3895   73.2570   -6.4034 O   0  0  0  0  0  0  0  0  0  0  0  0
   18.6947   71.0329   -5.9706 O   0  0  0  0  0  0  0  0  0  0  0  0
   18.5280   70.9853  -10.0963 O   0  0  0  0  0  0  0  0  0  0  0  0
   16.0898   71.0127   -8.5789 O   0  0  0  0  0  0  0  0  0  0  0  0
   20.6640   72.4046   -8.7537 O   0  0  0  0  0  0  0  0  0  0  0  0
   18.4072   71.5640   -8.7940 C   0  0  1  0  0  0  0  0  0  0  0  0
   17.3701   70.7608   -8.0066 C   0  0  1  0  0  0  0  0  0  0  0  0
   19.7663   71.5154   -8.0982 C   0  0  2  0  0  0  0  0  0  0  0  0
   17.3780   71.1505   -6.5223 C   0  0  1  0  0  0  0  0  0  0  0  0
   19.6546   71.8727   -6.6150 C   0  0  1  0  0  0  0  0  0  0  0  0
   17.6686   71.0135  -10.5436 H   0  0  0  0  0  0  0  0  0  0  0  0
   16.0984   70.7628   -9.5162 H   0  0  0  0  0  0  0  0  0  0  0  0
   20.7263   72.1677   -9.6917 H   0  0  0  0  0  0  0  0  0  0  0  0
   17.0826   70.0189   -4.4387 O   0  0  0  0  0  0  0  0  0  0  0  0
   16.4642   70.2532   -5.6905 C   0  0  0  0  0  0  0  0  0  0  0  0
   16.5121   69.4494   -3.8985 H   0  0  0  0  0  0  0  0  0  0  0  0
 25 28  1  0
 25 24  1  0
 25 26  1  6
 25 27  2  0
  1  4  1  0
  1 24  1  0
  1  2  1  6
  1  3  2  0
  6 11  1  0
  6 12  1  0
 29 36  1  0
 29 37  1  0
  9  7  1  1
  7 13  1  0
 10  8  1  1
  8 14  1  0
 37 28  1  6
  4  5  1  0
 33 30  1  6
 30 38  1  0
 34 31  1  6
 31 39  1  0
 35 32  1  6
 32 40  1  0
 41 42  1  0
 41 43  1  0
 15 19  2  0
 16 22  2  0
 12 17  1  6
 17 19  1  0
 17 20  1  0
 18 19  1  0
 18 22  1  0
 18 23  1  0
  9 10  1  0
  9 11  1  0
 10 12  1  0
 11  5  1  6
 33 34  1  0
 33 35  1  0
 34 36  1  0
 35 37  1  0
 36 42  1  1
 20 21  2  0
 21 22  1  0
M  CHG  2   2  -1  26  -1
M  END
>  <COMPND>  (110) 
    8629 

>  <AUTHOR>  (110) 
    GENERATED BY OPEN BABEL 3.1.1

>  <MASTER>  (110) 
        0    0    0    0    0    0    0    0   58    0   58    0

>  <minimizedAffinity>  (110) 
-6.72113

>  <CNNscore>  (110) 
0.4421769977

>  <CNNaffinity>  (110) 
4.1446032524

>  <CNN_VS>  (110) 
1.8326482773

>  <CNNaffinity_variance>  (110) 
0.1563021243

$$$$
111
     RDKit          3D

 43 45  0  0  0  0  0  0  0  0999 V2000
   18.9367   71.2613   -1.3586 P   0  0  2  0  0  0  0  0  0  0  0  0
   20.3663   70.8284   -0.7372 O   0  0  0  0  0  0  0  0  0  0  0  0
   18.4080   72.5793   -0.8741 O   0  0  0  0  0  0  0  0  0  0  0  0
   17.9887   69.9795   -1.0821 O   0  0  0  0  0  0  0  0  0  0  0  0
   16.6317   70.2032   -0.7412 C   0  0  0  0  0  0  0  0  0  0  0  0
   15.1411   68.4525   -0.0435 O   0  0  0  0  0  0  0  0  0  0  0  0
   14.3576   68.2255   -2.9289 O   0  0  0  0  0  0  0  0  0  0  0  0
   12.2974   69.6606   -1.8647 O   0  0  0  0  0  0  0  0  0  0  0  0
   14.6936   69.3886   -2.1740 C   0  0  1  0  0  0  0  0  0  0  0  0
   13.5604   69.7532   -1.2378 C   0  0  2  0  0  0  0  0  0  0  0  0
   15.8024   69.0114   -1.1996 C   0  0  1  0  0  0  0  0  0  0  0  0
   13.7348   68.7375   -0.1214 C   0  0  2  0  0  0  0  0  0  0  0  0
   13.6515   68.4417   -3.5586 H   0  0  0  0  0  0  0  0  0  0  0  0
   12.2352   70.3266   -2.5670 H   0  0  0  0  0  0  0  0  0  0  0  0
   13.0097   67.1090    2.0695 O   0  0  0  0  0  0  0  0  0  0  0  0
   12.0390   70.7658    4.7014 O   0  0  0  0  0  0  0  0  0  0  0  0
   13.2893   69.2376    1.1485 N   0  0  0  0  0  0  0  0  0  0  0  0
   12.5272   68.9312    3.3782 N   0  0  0  0  0  0  0  0  0  0  0  0
   12.9483   68.3350    2.1827 C   0  0  0  0  0  0  0  0  0  0  0  0
   13.1945   70.6090    1.3587 C   0  0  0  0  0  0  0  0  0  0  0  0
   12.7899   71.1615    2.5042 C   0  0  0  0  0  0  0  0  0  0  0  0
   12.4150   70.2884    3.6353 C   0  0  0  0  0  0  0  0  0  0  0  0
   12.2840   68.3219    4.1127 H   0  0  0  0  0  0  0  0  0  0  0  0
   19.1951   71.1850   -2.9525 O   0  0  0  0  0  0  0  0  0  0  0  0
   20.0958   72.1078   -3.9272 P   0  0  2  0  0  0  0  0  0  0  0  0
   21.3823   71.1765   -4.2354 O   0  0  0  0  0  0  0  0  0  0  0  0
   20.4297   73.4576   -3.3612 O   0  0  0  0  0  0  0  0  0  0  0  0
   19.2798   72.1494   -5.3192 O   0  0  0  0  0  0  0  0  0  0  0  0
   17.5068   70.7961   -6.1202 O   0  0  0  0  0  0  0  0  0  0  0  0
   19.5831   71.3212   -9.6507 O   0  0  0  0  0  0  0  0  0  0  0  0
   17.0812   72.6768   -9.2620 O   0  0  0  0  0  0  0  0  0  0  0  0
   21.0257   70.9610   -7.1670 O   0  0  0  0  0  0  0  0  0  0  0  0
   19.0745   71.7016   -8.3693 C   0  0  1  0  0  0  0  0  0  0  0  0
   17.5471   71.6274   -8.4183 C   0  0  1  0  0  0  0  0  0  0  0  0
   19.6255   70.7484   -7.3105 C   0  0  2  0  0  0  0  0  0  0  0  0
   16.9407   71.7610   -7.0149 C   0  0  1  0  0  0  0  0  0  0  0  0
   18.9209   70.9306   -5.9649 C   0  0  1  0  0  0  0  0  0  0  0  0
   19.2374   71.9228  -10.3275 H   0  0  0  0  0  0  0  0  0  0  0  0
   17.4719   72.5811  -10.1448 H   0  0  0  0  0  0  0  0  0  0  0  0
   21.4603   70.8424   -8.0255 H   0  0  0  0  0  0  0  0  0  0  0  0
   15.0582   71.0202   -8.2863 O   0  0  0  0  0  0  0  0  0  0  0  0
   15.4308   71.5324   -7.0201 C   0  0  0  0  0  0  0  0  0  0  0  0
   14.0997   70.8696   -8.3041 H   0  0  0  0  0  0  0  0  0  0  0  0
 25 28  1  0
 25 24  1  0
 25 26  1  6
 25 27  2  0
  1  4  1  0
  1 24  1  0
  1  2  1  1
  1  3  2  0
  6 11  1  0
  6 12  1  0
 29 36  1  0
 29 37  1  0
  9  7  1  6
  7 13  1  0
 10  8  1  6
  8 14  1  0
 37 28  1  6
  4  5  1  0
 33 30  1  6
 30 38  1  0
 34 31  1  6
 31 39  1  0
 35 32  1  1
 32 40  1  0
 41 42  1  0
 41 43  1  0
 15 19  2  0
 16 22  2  0
 12 17  1  1
 17 19  1  0
 17 20  1  0
 18 19  1  0
 18 22  1  0
 18 23  1  0
  9 10  1  0
  9 11  1  0
 10 12  1  0
 11  5  1  1
 33 34  1  0
 33 35  1  0
 34 36  1  0
 35 37  1  0
 36 42  1  6
 20 21  2  0
 21 22  1  0
M  CHG  2   2  -1  26  -1
M  END
>  <COMPND>  (111) 
    8629 

>  <AUTHOR>  (111) 
    GENERATED BY OPEN BABEL 3.1.1

>  <MASTER>  (111) 
        0    0    0    0    0    0    0    0   58    0   58    0

>  <minimizedAffinity>  (111) 
-6.33609

>  <CNNscore>  (111) 
0.4302179813

>  <CNNaffinity>  (111) 
4.1340422630

>  <CNN_VS>  (111) 
1.7785393000

>  <CNNaffinity_variance>  (111) 
0.0861632973

$$$$
112
     RDKit          3D

 43 45  0  0  0  0  0  0  0  0999 V2000
   18.1698   73.5809   -3.5628 P   0  0  2  0  0  0  0  0  0  0  0  0
   16.5549   73.5634   -3.6583 O   0  0  0  0  0  0  0  0  0  0  0  0
   18.7546   74.8146   -2.9404 O   0  0  0  0  0  0  0  0  0  0  0  0
   18.6517   73.2602   -5.0737 O   0  0  0  0  0  0  0  0  0  0  0  0
   20.0366   73.0883   -5.3196 C   0  0  0  0  0  0  0  0  0  0  0  0
   18.9771   71.1046   -6.1661 O   0  0  0  0  0  0  0  0  0  0  0  0
   21.6064   70.4807   -7.4654 O   0  0  0  0  0  0  0  0  0  0  0  0
   20.1449   71.4886   -9.5353 O   0  0  0  0  0  0  0  0  0  0  0  0
   20.9766   71.7450   -7.2651 C   0  0  1  0  0  0  0  0  0  0  0  0
   19.8199   71.9146   -8.2278 C   0  0  2  0  0  0  0  0  0  0  0  0
   20.2662   71.7071   -5.9178 C   0  0  1  0  0  0  0  0  0  0  0  0
   18.7451   71.0556   -7.5834 C   0  0  2  0  0  0  0  0  0  0  0  0
   22.0671   70.4808   -8.3196 H   0  0  0  0  0  0  0  0  0  0  0  0
   20.8325   72.0661   -9.9021 H   0  0  0  0  0  0  0  0  0  0  0  0
   16.4419   69.4244   -7.6933 O   0  0  0  0  0  0  0  0  0  0  0  0
   13.7174   73.0193   -8.6394 O   0  0  0  0  0  0  0  0  0  0  0  0
   17.4210   71.5391   -7.8561 N   0  0  0  0  0  0  0  0  0  0  0  0
   15.0871   71.2157   -8.1641 N   0  0  0  0  0  0  0  0  0  0  0  0
   16.3326   70.6365   -7.8896 C   0  0  0  0  0  0  0  0  0  0  0  0
   17.2119   72.8945   -8.0864 C   0  0  0  0  0  0  0  0  0  0  0  0
   16.0181   73.4308   -8.3480 C   0  0  0  0  0  0  0  0  0  0  0  0
   14.8286   72.5565   -8.4011 C   0  0  0  0  0  0  0  0  0  0  0  0
   14.3143   70.6061   -8.1929 H   0  0  0  0  0  0  0  0  0  0  0  0
   18.5023   72.2083   -2.7764 O   0  0  0  0  0  0  0  0  0  0  0  0
   18.7908   71.9248   -1.2113 P   0  0  2  0  0  0  0  0  0  0  0  0
   18.7269   70.3114   -1.1086 O   0  0  0  0  0  0  0  0  0  0  0  0
   17.8625   72.6422   -0.2746 O   0  0  0  0  0  0  0  0  0  0  0  0
   20.3516   72.2844   -1.0120 O   0  0  0  0  0  0  0  0  0  0  0  0
   21.0819   72.9945    1.1279 O   0  0  0  0  0  0  0  0  0  0  0  0
   24.2170   74.4245   -1.1475 O   0  0  0  0  0  0  0  0  0  0  0  0
   24.6196   72.1386    0.5439 O   0  0  0  0  0  0  0  0  0  0  0  0
   21.5115   74.5635   -2.1675 O   0  0  0  0  0  0  0  0  0  0  0  0
   23.1799   73.5076   -0.7881 C   0  0  1  0  0  0  0  0  0  0  0  0
   23.4722   72.9802    0.6180 C   0  0  1  0  0  0  0  0  0  0  0  0
   21.8371   74.2349   -0.8212 C   0  0  2  0  0  0  0  0  0  0  0  0
   22.2739   72.2018    1.1779 C   0  0  1  0  0  0  0  0  0  0  0  0
   20.7231   73.3928   -0.1967 C   0  0  1  0  0  0  0  0  0  0  0  0
   25.0723   73.9688   -1.1289 H   0  0  0  0  0  0  0  0  0  0  0  0
   25.3689   72.6420    0.1884 H   0  0  0  0  0  0  0  0  0  0  0  0
   22.2243   75.0969   -2.5514 H   0  0  0  0  0  0  0  0  0  0  0  0
   22.8864   70.4456    2.6777 O   0  0  0  0  0  0  0  0  0  0  0  0
   22.4828   71.8020    2.6369 C   0  0  0  0  0  0  0  0  0  0  0  0
   23.0234   70.1773    3.6002 H   0  0  0  0  0  0  0  0  0  0  0  0
 25 28  1  0
 25 24  1  0
 25 26  1  6
 25 27  2  0
  1  4  1  0
  1 24  1  0
  1  2  1  6
  1  3  2  0
  6 11  1  0
  6 12  1  0
 29 36  1  0
 29 37  1  0
  9  7  1  6
  7 13  1  0
 10  8  1  6
  8 14  1  0
 37 28  1  6
  4  5  1  0
 33 30  1  1
 30 38  1  0
 34 31  1  6
 31 39  1  0
 35 32  1  6
 32 40  1  0
 41 42  1  0
 41 43  1  0
 15 19  2  0
 16 22  2  0
 12 17  1  1
 17 19  1  0
 17 20  1  0
 18 19  1  0
 18 22  1  0
 18 23  1  0
  9 10  1  0
  9 11  1  0
 10 12  1  0
 11  5  1  6
 33 34  1  0
 33 35  1  0
 34 36  1  0
 35 37  1  0
 36 42  1  1
 20 21  2  0
 21 22  1  0
M  CHG  2   2  -1  26  -1
M  END
>  <COMPND>  (112) 
    8629 

>  <AUTHOR>  (112) 
    GENERATED BY OPEN BABEL 3.1.1

>  <MASTER>  (112) 
        0    0    0    0    0    0    0    0   58    0   58    0

>  <minimizedAffinity>  (112) 
-5.84987

>  <CNNscore>  (112) 
0.4211557508

>  <CNNaffinity>  (112) 
4.0971870422

>  <CNN_VS>  (112) 
1.7255538702

>  <CNNaffinity_variance>  (112) 
0.0434417650

$$$$
113
     RDKit          3D

 43 45  0  0  0  0  0  0  0  0999 V2000
   20.8209   72.1936   -0.9970 P   0  0  2  0  0  0  0  0  0  0  0  0
   19.5349   73.1540   -1.2003 O   0  0  0  0  0  0  0  0  0  0  0  0
   20.5251   70.7230   -1.0302 O   0  0  0  0  0  0  0  0  0  0  0  0
   21.5044   72.7424    0.3629 O   0  0  0  0  0  0  0  0  0  0  0  0
   20.8723   73.8039    1.0567 C   0  0  0  0  0  0  0  0  0  0  0  0
   22.4512   72.9147    2.6347 O   0  0  0  0  0  0  0  0  0  0  0  0
   21.5010   75.0548    4.5076 O   0  0  0  0  0  0  0  0  0  0  0  0
   23.8445   76.0850    3.5677 O   0  0  0  0  0  0  0  0  0  0  0  0
   21.6709   75.1051    3.0920 C   0  0  1  0  0  0  0  0  0  0  0  0
   23.1423   75.1791    2.7413 C   0  0  2  0  0  0  0  0  0  0  0  0
   21.2764   73.7476    2.5236 C   0  0  1  0  0  0  0  0  0  0  0  0
   23.5867   73.7402    2.9413 C   0  0  2  0  0  0  0  0  0  0  0  0
   21.7466   75.9110    4.8931 H   0  0  0  0  0  0  0  0  0  0  0  0
   23.5260   76.9863    3.4035 H   0  0  0  0  0  0  0  0  0  0  0  0
   25.6154   71.8945    3.6166 O   0  0  0  0  0  0  0  0  0  0  0  0
   27.7090   72.4270   -0.4546 O   0  0  0  0  0  0  0  0  0  0  0  0
   24.6740   73.3775    2.0766 N   0  0  0  0  0  0  0  0  0  0  0  0
   26.6561   72.1610    1.5888 N   0  0  0  0  0  0  0  0  0  0  0  0
   25.6406   72.4413    2.5121 C   0  0  0  0  0  0  0  0  0  0  0  0
   24.7737   73.9477    0.8122 C   0  0  0  0  0  0  0  0  0  0  0  0
   25.7489   73.6707   -0.0558 C   0  0  0  0  0  0  0  0  0  0  0  0
   26.7990   72.7027    0.3212 C   0  0  0  0  0  0  0  0  0  0  0  0
   27.3410   71.5119    1.8705 H   0  0  0  0  0  0  0  0  0  0  0  0
   21.8387   72.7012   -2.1457 O   0  0  0  0  0  0  0  0  0  0  0  0
   22.2109   72.0724   -3.5876 P   0  0  2  0  0  0  0  0  0  0  0  0
   22.5845   70.5376   -3.2378 O   0  0  0  0  0  0  0  0  0  0  0  0
   23.2846   72.8184   -4.3256 O   0  0  0  0  0  0  0  0  0  0  0  0
   20.8019   71.9810   -4.3694 O   0  0  0  0  0  0  0  0  0  0  0  0
   19.2780   70.2681   -4.9697 O   0  0  0  0  0  0  0  0  0  0  0  0
   19.5171   72.2374   -8.5912 O   0  0  0  0  0  0  0  0  0  0  0  0
   17.1325   72.4669   -7.0071 O   0  0  0  0  0  0  0  0  0  0  0  0
   21.8863   71.9271   -6.9571 O   0  0  0  0  0  0  0  0  0  0  0  0
   19.4953   72.1304   -7.1652 C   0  0  1  0  0  0  0  0  0  0  0  0
   18.1586   71.5119   -6.7511 C   0  0  1  0  0  0  0  0  0  0  0  0
   20.6584   71.2495   -6.7129 C   0  0  2  0  0  0  0  0  0  0  0  0
   18.1656   71.1200   -5.2673 C   0  0  1  0  0  0  0  0  0  0  0  0
   20.5432   70.8775   -5.2336 C   0  0  1  0  0  0  0  0  0  0  0  0
   18.7814   72.7959   -8.8849 H   0  0  0  0  0  0  0  0  0  0  0  0
   17.1393   72.7063   -7.9473 H   0  0  0  0  0  0  0  0  0  0  0  0
   21.9473   72.1569   -7.8970 H   0  0  0  0  0  0  0  0  0  0  0  0
   16.9662   70.0728   -3.4859 O   0  0  0  0  0  0  0  0  0  0  0  0
   16.9023   70.3590   -4.8709 C   0  0  0  0  0  0  0  0  0  0  0  0
   16.1684   69.5888   -3.2192 H   0  0  0  0  0  0  0  0  0  0  0  0
 25 28  1  0
 25 24  1  0
 25 26  1  1
 25 27  2  0
  1  4  1  0
  1 24  1  0
  1  2  1  6
  1  3  2  0
  6 11  1  0
  6 12  1  0
 29 36  1  0
 29 37  1  0
  9  7  1  1
  7 13  1  0
 10  8  1  1
  8 14  1  0
 37 28  1  1
  4  5  1  0
 33 30  1  6
 30 38  1  0
 34 31  1  1
 31 39  1  0
 35 32  1  1
 32 40  1  0
 41 42  1  0
 41 43  1  0
 15 19  2  0
 16 22  2  0
 12 17  1  6
 17 19  1  0
 17 20  1  0
 18 19  1  0
 18 22  1  0
 18 23  1  0
  9 10  1  0
  9 11  1  0
 10 12  1  0
 11  5  1  6
 33 34  1  0
 33 35  1  0
 34 36  1  0
 35 37  1  0
 36 42  1  6
 20 21  2  0
 21 22  1  0
M  CHG  2   2  -1  26  -1
M  END
>  <COMPND>  (113) 
    8629 

>  <AUTHOR>  (113) 
    GENERATED BY OPEN BABEL 3.1.1

>  <MASTER>  (113) 
        0    0    0    0    0    0    0    0   58    0   58    0

>  <minimizedAffinity>  (113) 
-6.15680

>  <CNNscore>  (113) 
0.4084944129

>  <CNNaffinity>  (113) 
4.1143031120

>  <CNN_VS>  (113) 
1.6806697845

>  <CNNaffinity_variance>  (113) 
0.0603724942

$$$$
114
     RDKit          3D

 43 45  0  0  0  0  0  0  0  0999 V2000
   22.5302   74.5505   -1.5829 P   0  0  2  0  0  0  0  0  0  0  0  0
   21.4984   75.7812   -1.3871 O   0  0  0  0  0  0  0  0  0  0  0  0
   23.9787   74.9392   -1.6300 O   0  0  0  0  0  0  0  0  0  0  0  0
   21.9677   73.7759   -2.8874 O   0  0  0  0  0  0  0  0  0  0  0  0
   20.5902   73.8892   -3.1993 C   0  0  0  0  0  0  0  0  0  0  0  0
   18.5592   72.6063   -3.2559 O   0  0  0  0  0  0  0  0  0  0  0  0
   20.1112   70.4380   -1.8845 O   0  0  0  0  0  0  0  0  0  0  0  0
   20.0755   69.5945   -4.4775 O   0  0  0  0  0  0  0  0  0  0  0  0
   20.5427   71.3656   -2.8788 C   0  0  1  0  0  0  0  0  0  0  0  0
   19.9830   70.9831   -4.2330 C   0  0  2  0  0  0  0  0  0  0  0  0
   19.8491   72.6958   -2.6121 C   0  0  1  0  0  0  0  0  0  0  0  0
   18.5456   71.4636   -4.1270 C   0  0  2  0  0  0  0  0  0  0  0  0
   20.5412   69.5808   -2.0339 H   0  0  0  0  0  0  0  0  0  0  0  0
   21.0090   69.3379   -4.5367 H   0  0  0  0  0  0  0  0  0  0  0  0
   17.3008   69.6917   -5.9406 O   0  0  0  0  0  0  0  0  0  0  0  0
   16.5023   73.0677   -8.9748 O   0  0  0  0  0  0  0  0  0  0  0  0
   18.0030   71.8527   -5.3981 N   0  0  0  0  0  0  0  0  0  0  0  0
   16.9041   71.3742   -7.4498 N   0  0  0  0  0  0  0  0  0  0  0  0
   17.3996   70.8849   -6.2345 C   0  0  0  0  0  0  0  0  0  0  0  0
   18.0720   73.1811   -5.8036 C   0  0  0  0  0  0  0  0  0  0  0  0
   17.5958   73.6313   -6.9663 C   0  0  0  0  0  0  0  0  0  0  0  0
   16.9499   72.6847   -7.8983 C   0  0  0  0  0  0  0  0  0  0  0  0
   16.4797   70.7179   -8.0490 H   0  0  0  0  0  0  0  0  0  0  0  0
   22.1403   73.5532   -0.3720 O   0  0  0  0  0  0  0  0  0  0  0  0
   22.8207   72.1753    0.1293 P   0  0  2  0  0  0  0  0  0  0  0  0
   23.7895   71.7706   -1.1016 O   0  0  0  0  0  0  0  0  0  0  0  0
   21.8375   71.1099    0.5197 O   0  0  0  0  0  0  0  0  0  0  0  0
   23.8265   72.6222    1.3098 O   0  0  0  0  0  0  0  0  0  0  0  0
   25.6981   71.6542    2.3946 O   0  0  0  0  0  0  0  0  0  0  0  0
   23.6570   73.0357    5.7076 O   0  0  0  0  0  0  0  0  0  0  0  0
   26.0578   74.3671    4.8642 O   0  0  0  0  0  0  0  0  0  0  0  0
   22.1957   71.9064    3.4785 O   0  0  0  0  0  0  0  0  0  0  0  0
   24.1162   73.0670    4.3535 C   0  0  1  0  0  0  0  0  0  0  0  0
   25.6459   73.0972    4.3665 C   0  0  1  0  0  0  0  0  0  0  0  0
   23.6092   71.8235    3.6256 C   0  0  2  0  0  0  0  0  0  0  0  0
   26.2165   72.8632    2.9613 C   0  0  1  0  0  0  0  0  0  0  0  0
   24.2756   71.6581    2.2586 C   0  0  1  0  0  0  0  0  0  0  0  0
   23.9751   73.8228    6.1753 H   0  0  0  0  0  0  0  0  0  0  0  0
   25.6904   74.5026    5.7519 H   0  0  0  0  0  0  0  0  0  0  0  0
   21.7855   72.0106    4.3507 H   0  0  0  0  0  0  0  0  0  0  0  0
   28.1254   72.1334    4.1992 O   0  0  0  0  0  0  0  0  0  0  0  0
   27.7379   72.7323    2.9763 C   0  0  0  0  0  0  0  0  0  0  0  0
   29.0913   72.0434    4.2228 H   0  0  0  0  0  0  0  0  0  0  0  0
 25 28  1  0
 25 24  1  0
 25 26  1  6
 25 27  2  0
  1  4  1  0
  1 24  1  0
  1  2  1  1
  1  3  2  0
  6 11  1  0
  6 12  1  0
 29 36  1  0
 29 37  1  0
  9  7  1  1
  7 13  1  0
 10  8  1  1
  8 14  1  0
 37 28  1  6
  4  5  1  0
 33 30  1  1
 30 38  1  0
 34 31  1  6
 31 39  1  0
 35 32  1  6
 32 40  1  0
 41 42  1  0
 41 43  1  0
 15 19  2  0
 16 22  2  0
 12 17  1  6
 17 19  1  0
 17 20  1  0
 18 19  1  0
 18 22  1  0
 18 23  1  0
  9 10  1  0
  9 11  1  0
 10 12  1  0
 11  5  1  6
 33 34  1  0
 33 35  1  0
 34 36  1  0
 35 37  1  0
 36 42  1  1
 20 21  2  0
 21 22  1  0
M  CHG  2   2  -1  26  -1
M  END
>  <COMPND>  (114) 
    8629 

>  <AUTHOR>  (114) 
    GENERATED BY OPEN BABEL 3.1.1

>  <MASTER>  (114) 
        0    0    0    0    0    0    0    0   58    0   58    0

>  <minimizedAffinity>  (114) 
-5.84203

>  <CNNscore>  (114) 
0.4051142931

>  <CNNaffinity>  (114) 
4.1370887756

>  <CNN_VS>  (114) 
1.6759938002

>  <CNNaffinity_variance>  (114) 
0.0953124389

$$$$
115
     RDKit          3D

 43 45  0  0  0  0  0  0  0  0999 V2000
   20.2626   73.5355   -2.5645 P   0  0  2  0  0  0  0  0  0  0  0  0
   19.2680   73.2670   -1.3170 O   0  0  0  0  0  0  0  0  0  0  0  0
   20.3925   74.9733   -2.9733 O   0  0  0  0  0  0  0  0  0  0  0  0
   19.7302   72.5246   -3.7102 O   0  0  0  0  0  0  0  0  0  0  0  0
   20.0564   72.8016   -5.0610 C   0  0  0  0  0  0  0  0  0  0  0  0
   19.0175   70.8880   -6.0772 O   0  0  0  0  0  0  0  0  0  0  0  0
   21.6354   70.4398   -7.4687 O   0  0  0  0  0  0  0  0  0  0  0  0
   20.1229   71.6126   -9.4112 O   0  0  0  0  0  0  0  0  0  0  0  0
   20.9873   71.6673   -7.1394 C   0  0  1  0  0  0  0  0  0  0  0  0
   19.8121   71.9060   -8.0644 C   0  0  2  0  0  0  0  0  0  0  0  0
   20.2999   71.4881   -5.7915 C   0  0  1  0  0  0  0  0  0  0  0  0
   18.7630   70.9697   -7.4891 C   0  0  2  0  0  0  0  0  0  0  0  0
   22.0819   70.5298   -8.3258 H   0  0  0  0  0  0  0  0  0  0  0  0
   20.7942   72.2351   -9.7313 H   0  0  0  0  0  0  0  0  0  0  0  0
   16.5594   69.3313   -8.1505 O   0  0  0  0  0  0  0  0  0  0  0  0
   13.6818   72.9299   -8.2563 O   0  0  0  0  0  0  0  0  0  0  0  0
   17.4265   71.4521   -7.6949 N   0  0  0  0  0  0  0  0  0  0  0  0
   15.1283   71.1244   -8.2025 N   0  0  0  0  0  0  0  0  0  0  0  0
   16.3916   70.5461   -8.0246 C   0  0  0  0  0  0  0  0  0  0  0  0
   17.1526   72.8097   -7.5690 C   0  0  0  0  0  0  0  0  0  0  0  0
   15.9427   73.3454   -7.7431 C   0  0  0  0  0  0  0  0  0  0  0  0
   14.8063   72.4677   -8.0896 C   0  0  0  0  0  0  0  0  0  0  0  0
   14.3920   70.5126   -8.4331 H   0  0  0  0  0  0  0  0  0  0  0  0
   21.6430   72.8453   -2.0839 O   0  0  0  0  0  0  0  0  0  0  0  0
   21.9402   71.3781   -1.4742 P   0  0  2  0  0  0  0  0  0  0  0  0
   22.5924   70.5825   -2.7229 O   0  0  0  0  0  0  0  0  0  0  0  0
   20.7398   70.7074   -0.8715 O   0  0  0  0  0  0  0  0  0  0  0  0
   23.1662   71.6025   -0.4487 O   0  0  0  0  0  0  0  0  0  0  0  0
   23.2390   72.4902    1.7475 O   0  0  0  0  0  0  0  0  0  0  0  0
   26.7359   74.1101    0.2648 O   0  0  0  0  0  0  0  0  0  0  0  0
   26.8631   71.9651    2.1703 O   0  0  0  0  0  0  0  0  0  0  0  0
   24.3975   73.9248   -1.4314 O   0  0  0  0  0  0  0  0  0  0  0  0
   25.7208   73.1132    0.4102 C   0  0  1  0  0  0  0  0  0  0  0  0
   25.6713   72.6899    1.8796 C   0  0  1  0  0  0  0  0  0  0  0  0
   24.3794   73.6994   -0.0259 C   0  0  2  0  0  0  0  0  0  0  0  0
   24.4365   71.8247    2.1656 C   0  0  1  0  0  0  0  0  0  0  0  0
   23.2136   72.7826    0.3490 C   0  0  1  0  0  0  0  0  0  0  0  0
   27.5903   73.7441    0.5396 H   0  0  0  0  0  0  0  0  0  0  0  0
   27.6353   72.5224    1.9850 H   0  0  0  0  0  0  0  0  0  0  0  0
   25.1397   74.5068   -1.6559 H   0  0  0  0  0  0  0  0  0  0  0  0
   23.0068   70.9457    3.8663 O   0  0  0  0  0  0  0  0  0  0  0  0
   24.2823   71.5225    3.6546 C   0  0  0  0  0  0  0  0  0  0  0  0
   22.8947   70.7478    4.8097 H   0  0  0  0  0  0  0  0  0  0  0  0
 25 28  1  0
 25 24  1  0
 25 26  1  6
 25 27  2  0
  1  4  1  0
  1 24  1  0
  1  2  1  1
  1  3  2  0
  6 11  1  0
  6 12  1  0
 29 36  1  0
 29 37  1  0
  9  7  1  6
  7 13  1  0
 10  8  1  6
  8 14  1  0
 37 28  1  6
  4  5  1  0
 33 30  1  1
 30 38  1  0
 34 31  1  6
 31 39  1  0
 35 32  1  6
 32 40  1  0
 41 42  1  0
 41 43  1  0
 15 19  2  0
 16 22  2  0
 12 17  1  1
 17 19  1  0
 17 20  1  0
 18 19  1  0
 18 22  1  0
 18 23  1  0
  9 10  1  0
  9 11  1  0
 10 12  1  0
 11  5  1  6
 33 34  1  0
 33 35  1  0
 34 36  1  0
 35 37  1  0
 36 42  1  1
 20 21  2  0
 21 22  1  0
M  CHG  2   2  -1  26  -1
M  END
>  <COMPND>  (115) 
    8629 

>  <AUTHOR>  (115) 
    GENERATED BY OPEN BABEL 3.1.1

>  <MASTER>  (115) 
        0    0    0    0    0    0    0    0   58    0   58    0

>  <minimizedAffinity>  (115) 
-6.66662

>  <CNNscore>  (115) 
0.3908964992

>  <CNNaffinity>  (115) 
4.2016000748

>  <CNN_VS>  (115) 
1.6423907280

>  <CNNaffinity_variance>  (115) 
0.0735131875

$$$$
116
     RDKit          3D

 43 45  0  0  0  0  0  0  0  0999 V2000
   22.0953   72.9671   -4.7019 P   0  0  2  0  0  0  0  0  0  0  0  0
   23.6940   72.8594   -4.4783 O   0  0  0  0  0  0  0  0  0  0  0  0
   21.4863   74.2788   -4.3019 O   0  0  0  0  0  0  0  0  0  0  0  0
   21.5088   71.6611   -3.9479 O   0  0  0  0  0  0  0  0  0  0  0  0
   22.1338   71.2345   -2.7499 C   0  0  0  0  0  0  0  0  0  0  0  0
   21.7481   70.7387   -0.4306 O   0  0  0  0  0  0  0  0  0  0  0  0
   19.1912   72.2780   -0.7199 O   0  0  0  0  0  0  0  0  0  0  0  0
   20.8351   74.0799    0.4996 O   0  0  0  0  0  0  0  0  0  0  0  0
   20.4613   72.5165   -1.3245 C   0  0  1  0  0  0  0  0  0  0  0  0
   21.4295   73.0839   -0.3074 C   0  0  2  0  0  0  0  0  0  0  0  0
   21.0902   71.1660   -1.6434 C   0  0  1  0  0  0  0  0  0  0  0  0
   21.8177   71.8458    0.4828 C   0  0  2  0  0  0  0  0  0  0  0  0
   18.7701   73.1262   -0.5075 H   0  0  0  0  0  0  0  0  0  0  0  0
   20.6062   74.8466   -0.0487 H   0  0  0  0  0  0  0  0  0  0  0  0
   22.7397   70.3874    2.7191 O   0  0  0  0  0  0  0  0  0  0  0  0
   26.9459   72.2491    2.4293 O   0  0  0  0  0  0  0  0  0  0  0  0
   23.1493   71.9298    1.0131 N   0  0  0  0  0  0  0  0  0  0  0  0
   24.8334   71.3154    2.5729 N   0  0  0  0  0  0  0  0  0  0  0  0
   23.5106   71.1560    2.1405 C   0  0  0  0  0  0  0  0  0  0  0  0
   24.0810   72.7721    0.4163 C   0  0  0  0  0  0  0  0  0  0  0  0
   25.3381   72.9138    0.8416 C   0  0  0  0  0  0  0  0  0  0  0  0
   25.7962   72.1408    2.0140 C   0  0  0  0  0  0  0  0  0  0  0  0
   25.1075   70.7865    3.3570 H   0  0  0  0  0  0  0  0  0  0  0  0
   21.9209   72.5931   -6.2648 O   0  0  0  0  0  0  0  0  0  0  0  0
   21.0102   73.2615   -7.4210 P   0  0  2  0  0  0  0  0  0  0  0  0
   21.4099   72.4178   -8.7423 O   0  0  0  0  0  0  0  0  0  0  0  0
   21.1826   74.7465   -7.5588 O   0  0  0  0  0  0  0  0  0  0  0  0
   19.5046   72.7920   -7.0776 O   0  0  0  0  0  0  0  0  0  0  0  0
   18.8631   70.9115   -5.7858 O   0  0  0  0  0  0  0  0  0  0  0  0
   15.6612   71.0466   -8.3897 O   0  0  0  0  0  0  0  0  0  0  0  0
   15.2966   71.8339   -5.6519 O   0  0  0  0  0  0  0  0  0  0  0  0
   18.3279   71.6372   -9.3484 O   0  0  0  0  0  0  0  0  0  0  0  0
   16.7006   71.5929   -7.5733 C   0  0  1  0  0  0  0  0  0  0  0  0
   16.4554   71.1550   -6.1280 C   0  0  1  0  0  0  0  0  0  0  0  0
   18.0494   71.0760   -8.0702 C   0  0  2  0  0  0  0  0  0  0  0  0
   17.6650   71.4750   -5.2394 C   0  0  1  0  0  0  0  0  0  0  0  0
   19.1765   71.4051   -7.0896 C   0  0  1  0  0  0  0  0  0  0  0  0
   14.8021   71.3713   -8.0797 H   0  0  0  0  0  0  0  0  0  0  0  0
   14.5402   71.6238   -6.2220 H   0  0  0  0  0  0  0  0  0  0  0  0
   17.6073   71.4216   -9.9601 H   0  0  0  0  0  0  0  0  0  0  0  0
   16.5729   69.8430   -3.8782 O   0  0  0  0  0  0  0  0  0  0  0  0
   17.5064   70.9063   -3.8310 C   0  0  0  0  0  0  0  0  0  0  0  0
   16.4621   69.4710   -2.9888 H   0  0  0  0  0  0  0  0  0  0  0  0
 25 28  1  0
 25 24  1  0
 25 26  1  6
 25 27  2  0
  1  4  1  0
  1 24  1  0
  1  2  1  6
  1  3  2  0
  6 11  1  0
  6 12  1  0
 29 36  1  0
 29 37  1  0
  9  7  1  1
  7 13  1  0
 10  8  1  1
  8 14  1  0
 37 28  1  1
  4  5  1  0
 33 30  1  6
 30 38  1  0
 34 31  1  1
 31 39  1  0
 35 32  1  6
 32 40  1  0
 41 42  1  0
 41 43  1  0
 15 19  2  0
 16 22  2  0
 12 17  1  6
 17 19  1  0
 17 20  1  0
 18 19  1  0
 18 22  1  0
 18 23  1  0
  9 10  1  0
  9 11  1  0
 10 12  1  0
 11  5  1  6
 33 34  1  0
 33 35  1  0
 34 36  1  0
 35 37  1  0
 36 42  1  1
 20 21  2  0
 21 22  1  0
M  CHG  2   2  -1  26  -1
M  END
>  <COMPND>  (116) 
    8629 

>  <AUTHOR>  (116) 
    GENERATED BY OPEN BABEL 3.1.1

>  <MASTER>  (116) 
        0    0    0    0    0    0    0    0   58    0   58    0

>  <minimizedAffinity>  (116) 
-7.63663

>  <CNNscore>  (116) 
0.3751080036

>  <CNNaffinity>  (116) 
4.1510710716

>  <CNN_VS>  (116) 
1.5570999384

>  <CNNaffinity_variance>  (116) 
0.0890888125

$$$$
117
     RDKit          3D

 43 45  0  0  0  0  0  0  0  0999 V2000
   22.8020   71.6989   -1.0631 P   0  0  2  0  0  0  0  0  0  0  0  0
   22.0828   71.1267    0.2684 O   0  0  0  0  0  0  0  0  0  0  0  0
   23.1200   70.6668   -2.1048 O   0  0  0  0  0  0  0  0  0  0  0  0
   24.0649   72.5348   -0.4936 O   0  0  0  0  0  0  0  0  0  0  0  0
   23.8366   73.4970    0.5212 C   0  0  0  0  0  0  0  0  0  0  0  0
   24.5772   74.1912    2.6991 O   0  0  0  0  0  0  0  0  0  0  0  0
   26.5580   71.9461    2.5355 O   0  0  0  0  0  0  0  0  0  0  0  0
   24.6068   70.9022    4.1291 O   0  0  0  0  0  0  0  0  0  0  0  0
   25.2179   72.0040    2.0497 C   0  0  1  0  0  0  0  0  0  0  0  0
   24.2370   71.8996    3.1989 C   0  0  2  0  0  0  0  0  0  0  0  0
   24.9635   73.4179    1.5420 C   0  0  1  0  0  0  0  0  0  0  0  0
   24.2927   73.2986    3.7887 C   0  0  2  0  0  0  0  0  0  0  0  0
   26.7439   71.0523    2.8649 H   0  0  0  0  0  0  0  0  0  0  0  0
   24.5554   70.0308    3.7065 H   0  0  0  0  0  0  0  0  0  0  0  0
   23.9959   73.9836    6.5128 O   0  0  0  0  0  0  0  0  0  0  0  0
   19.4821   74.7687    6.0127 O   0  0  0  0  0  0  0  0  0  0  0  0
   23.0513   73.6863    4.3971 N   0  0  0  0  0  0  0  0  0  0  0  0
   21.7486   74.3741    6.2616 N   0  0  0  0  0  0  0  0  0  0  0  0
   23.0099   74.0096    5.7734 C   0  0  0  0  0  0  0  0  0  0  0  0
   21.8921   73.7433    3.6309 C   0  0  0  0  0  0  0  0  0  0  0  0
   20.6969   74.0915    4.1119 C   0  0  0  0  0  0  0  0  0  0  0  0
   20.5672   74.4445    5.5404 C   0  0  0  0  0  0  0  0  0  0  0  0
   21.6955   74.6032    7.2178 H   0  0  0  0  0  0  0  0  0  0  0  0
   21.7892   72.8595   -1.5531 O   0  0  0  0  0  0  0  0  0  0  0  0
   20.1974   72.8307   -1.8329 P   0  0  2  0  0  0  0  0  0  0  0  0
   19.7313   74.3392   -1.4798 O   0  0  0  0  0  0  0  0  0  0  0  0
   19.4594   71.7622   -1.0797 O   0  0  0  0  0  0  0  0  0  0  0  0
   20.0667   72.7290   -3.4384 O   0  0  0  0  0  0  0  0  0  0  0  0
   19.0260   70.9485   -4.6060 O   0  0  0  0  0  0  0  0  0  0  0  0
   21.7633   72.1064   -7.4725 O   0  0  0  0  0  0  0  0  0  0  0  0
   18.9783   72.6965   -7.8511 O   0  0  0  0  0  0  0  0  0  0  0  0
   22.5098   72.1162   -4.6757 O   0  0  0  0  0  0  0  0  0  0  0  0
   20.8382   72.3029   -6.3997 C   0  0  1  0  0  0  0  0  0  0  0  0
   19.4650   71.8035   -6.8532 C   0  0  1  0  0  0  0  0  0  0  0  0
   21.3177   71.5217   -5.1777 C   0  0  2  0  0  0  0  0  0  0  0  0
   18.4842   71.7332   -5.6749 C   0  0  1  0  0  0  0  0  0  0  0  0
   20.2491   71.4717   -4.0843 C   0  0  1  0  0  0  0  0  0  0  0  0
   21.4649   72.6002   -8.2514 H   0  0  0  0  0  0  0  0  0  0  0  0
   19.6069   72.7321   -8.5892 H   0  0  0  0  0  0  0  0  0  0  0  0
   23.1785   72.1418   -5.3771 H   0  0  0  0  0  0  0  0  0  0  0  0
   17.3578   69.6950   -6.2096 O   0  0  0  0  0  0  0  0  0  0  0  0
   17.1576   71.0898   -6.0726 C   0  0  0  0  0  0  0  0  0  0  0  0
   16.5216   69.2722   -6.4622 H   0  0  0  0  0  0  0  0  0  0  0  0
 25 28  1  0
 25 24  1  0
 25 26  1  1
 25 27  2  0
  1  4  1  0
  1 24  1  0
  1  2  1  1
  1  3  2  0
  6 11  1  0
  6 12  1  0
 29 36  1  0
 29 37  1  0
  9  7  1  1
  7 13  1  0
 10  8  1  1
  8 14  1  0
 37 28  1  6
  4  5  1  0
 33 30  1  6
 30 38  1  0
 34 31  1  6
 31 39  1  0
 35 32  1  1
 32 40  1  0
 41 42  1  0
 41 43  1  0
 15 19  2  0
 16 22  2  0
 12 17  1  6
 17 19  1  0
 17 20  1  0
 18 19  1  0
 18 22  1  0
 18 23  1  0
  9 10  1  0
  9 11  1  0
 10 12  1  0
 11  5  1  6
 33 34  1  0
 33 35  1  0
 34 36  1  0
 35 37  1  0
 36 42  1  6
 20 21  2  0
 21 22  1  0
M  CHG  2   2  -1  26  -1
M  END
>  <COMPND>  (117) 
    8629 

>  <AUTHOR>  (117) 
    GENERATED BY OPEN BABEL 3.1.1

>  <MASTER>  (117) 
        0    0    0    0    0    0    0    0   58    0   58    0

>  <minimizedAffinity>  (117) 
-5.86631

>  <CNNscore>  (117) 
0.3409367800

>  <CNNaffinity>  (117) 
3.9056487083

>  <CNN_VS>  (117) 
1.3315793276

>  <CNNaffinity_variance>  (117) 
0.1316586435

$$$$
118
     RDKit          3D

 43 45  0  0  0  0  0  0  0  0999 V2000
   21.0358   72.0047   -3.7106 P   0  0  2  0  0  0  0  0  0  0  0  0
   19.6111   72.6094   -3.2394 O   0  0  0  0  0  0  0  0  0  0  0  0
   21.0234   70.5425   -4.0474 O   0  0  0  0  0  0  0  0  0  0  0  0
   22.0536   72.4458   -2.5327 O   0  0  0  0  0  0  0  0  0  0  0  0
   21.6007   72.3888   -1.1913 C   0  0  0  0  0  0  0  0  0  0  0  0
   23.9124   72.1615   -0.5763 O   0  0  0  0  0  0  0  0  0  0  0  0
   22.9402   70.5383    1.7498 O   0  0  0  0  0  0  0  0  0  0  0  0
   23.4393   72.9663    2.8866 O   0  0  0  0  0  0  0  0  0  0  0  0
   22.3462   71.6810    1.1360 C   0  0  1  0  0  0  0  0  0  0  0  0
   23.1062   72.9354    1.5137 C   0  0  2  0  0  0  0  0  0  0  0  0
   22.6013   71.5939   -0.3635 C   0  0  1  0  0  0  0  0  0  0  0  0
   24.3294   72.8446    0.6172 C   0  0  2  0  0  0  0  0  0  0  0  0
   22.7900   70.5715    2.7081 H   0  0  0  0  0  0  0  0  0  0  0  0
   22.6281   73.0242    3.4151 H   0  0  0  0  0  0  0  0  0  0  0  0
   26.2168   74.2894    2.1431 O   0  0  0  0  0  0  0  0  0  0  0  0
   26.2287   77.7929   -0.8513 O   0  0  0  0  0  0  0  0  0  0  0  0
   24.8434   74.1366    0.2596 N   0  0  0  0  0  0  0  0  0  0  0  0
   26.2213   76.0326    0.6508 N   0  0  0  0  0  0  0  0  0  0  0  0
   25.7875   74.7772    1.0955 C   0  0  0  0  0  0  0  0  0  0  0  0
   24.4117   74.7551   -0.9087 C   0  0  0  0  0  0  0  0  0  0  0  0
   24.8341   75.9531   -1.3180 C   0  0  0  0  0  0  0  0  0  0  0  0
   25.8209   76.6895   -0.5019 C   0  0  0  0  0  0  0  0  0  0  0  0
   26.8789   76.4978    1.2174 H   0  0  0  0  0  0  0  0  0  0  0  0
   21.4549   72.9735   -4.9348 O   0  0  0  0  0  0  0  0  0  0  0  0
   20.8850   73.0851   -6.4433 P   0  0  2  0  0  0  0  0  0  0  0  0
   22.0018   72.3094   -7.3201 O   0  0  0  0  0  0  0  0  0  0  0  0
   20.6095   74.4902   -6.8947 O   0  0  0  0  0  0  0  0  0  0  0  0
   19.5988   72.1105   -6.4672 O   0  0  0  0  0  0  0  0  0  0  0  0
   17.8476   71.5571   -7.9651 O   0  0  0  0  0  0  0  0  0  0  0  0
   15.6098   72.2721   -4.5693 O   0  0  0  0  0  0  0  0  0  0  0  0
   15.9510   69.5770   -5.5012 O   0  0  0  0  0  0  0  0  0  0  0  0
   17.9089   73.9292   -5.1589 O   0  0  0  0  0  0  0  0  0  0  0  0
   16.7490   71.8236   -5.3084 C   0  0  1  0  0  0  0  0  0  0  0  0
   16.2938   70.7255   -6.2717 C   0  0  1  0  0  0  0  0  0  0  0  0
   17.3404   73.0029   -6.0783 C   0  0  2  0  0  0  0  0  0  0  0  0
   17.3973   70.3818   -7.2813 C   0  0  1  0  0  0  0  0  0  0  0  0
   18.3931   72.5462   -7.0900 C   0  0  1  0  0  0  0  0  0  0  0  0
   15.2298   71.5281   -4.0777 H   0  0  0  0  0  0  0  0  0  0  0  0
   15.2536   69.8078   -4.8674 H   0  0  0  0  0  0  0  0  0  0  0  0
   17.2325   74.2109   -4.5241 H   0  0  0  0  0  0  0  0  0  0  0  0
   15.5661   69.7124   -8.6625 O   0  0  0  0  0  0  0  0  0  0  0  0
   16.9115   69.4034   -8.3484 C   0  0  0  0  0  0  0  0  0  0  0  0
   15.2436   69.0978   -9.3407 H   0  0  0  0  0  0  0  0  0  0  0  0
 25 28  1  0
 25 24  1  0
 25 26  1  6
 25 27  2  0
  1  4  1  0
  1 24  1  0
  1  2  1  1
  1  3  2  0
  6 11  1  0
  6 12  1  0
 29 36  1  0
 29 37  1  0
  9  7  1  1
  7 13  1  0
 10  8  1  1
  8 14  1  0
 37 28  1  1
  4  5  1  0
 33 30  1  6
 30 38  1  0
 34 31  1  1
 31 39  1  0
 35 32  1  1
 32 40  1  0
 41 42  1  0
 41 43  1  0
 15 19  2  0
 16 22  2  0
 12 17  1  6
 17 19  1  0
 17 20  1  0
 18 19  1  0
 18 22  1  0
 18 23  1  0
  9 10  1  0
  9 11  1  0
 10 12  1  0
 11  5  1  6
 33 34  1  0
 33 35  1  0
 34 36  1  0
 35 37  1  0
 36 42  1  6
 20 21  2  0
 21 22  1  0
M  CHG  2   2  -1  26  -1
M  END
>  <COMPND>  (118) 
    8629 

>  <AUTHOR>  (118) 
    GENERATED BY OPEN BABEL 3.1.1

>  <MASTER>  (118) 
        0    0    0    0    0    0    0    0   58    0   58    0

>  <minimizedAffinity>  (118) 
-5.79696

>  <CNNscore>  (118) 
0.3251067996

>  <CNNaffinity>  (118) 
4.0349540710

>  <CNN_VS>  (118) 
1.3117910624

>  <CNNaffinity_variance>  (118) 
0.0524581671

$$$$
119
     RDKit          3D

 43 45  0  0  0  0  0  0  0  0999 V2000
   20.1577   73.9636   -1.7223 P   0  0  2  0  0  0  0  0  0  0  0  0
   21.4948   73.3749   -2.4173 O   0  0  0  0  0  0  0  0  0  0  0  0
   19.3016   74.8139   -2.6142 O   0  0  0  0  0  0  0  0  0  0  0  0
   20.7023   74.6815   -0.3785 O   0  0  0  0  0  0  0  0  0  0  0  0
   20.9257   73.8839    0.7712 C   0  0  0  0  0  0  0  0  0  0  0  0
   23.0067   73.8054    1.9699 O   0  0  0  0  0  0  0  0  0  0  0  0
   23.7310   71.5050    0.1882 O   0  0  0  0  0  0  0  0  0  0  0  0
   22.9808   70.2576    2.4943 O   0  0  0  0  0  0  0  0  0  0  0  0
   22.4619   71.8561    0.7374 C   0  0  1  0  0  0  0  0  0  0  0  0
   22.4176   71.5229    2.2140 C   0  0  2  0  0  0  0  0  0  0  0  0
   22.3610   73.3763    0.7512 C   0  0  1  0  0  0  0  0  0  0  0  0
   23.2159   72.6651    2.8189 C   0  0  2  0  0  0  0  0  0  0  0  0
   23.8185   70.5386    0.1688 H   0  0  0  0  0  0  0  0  0  0  0  0
   22.4372   69.5644    2.0884 H   0  0  0  0  0  0  0  0  0  0  0  0
   24.8960   73.7309    4.8238 O   0  0  0  0  0  0  0  0  0  0  0  0
   21.4570   73.8694    7.8890 O   0  0  0  0  0  0  0  0  0  0  0  0
   22.7858   72.9895    4.1498 N   0  0  0  0  0  0  0  0  0  0  0  0
   23.1822   73.7991    6.3484 N   0  0  0  0  0  0  0  0  0  0  0  0
   23.7092   73.5189    5.0811 C   0  0  0  0  0  0  0  0  0  0  0  0
   21.4613   72.7824    4.5198 C   0  0  0  0  0  0  0  0  0  0  0  0
   20.9749   73.0536    5.7326 C   0  0  0  0  0  0  0  0  0  0  0  0
   21.8740   73.6096    6.7645 C   0  0  0  0  0  0  0  0  0  0  0  0
   23.8072   74.1684    7.0138 H   0  0  0  0  0  0  0  0  0  0  0  0
   19.4285   72.6369   -1.1555 O   0  0  0  0  0  0  0  0  0  0  0  0
   19.2026   71.1823   -1.8233 P   0  0  2  0  0  0  0  0  0  0  0  0
   17.6679   70.8354   -1.4467 O   0  0  0  0  0  0  0  0  0  0  0  0
   20.1967   70.1446   -1.3887 O   0  0  0  0  0  0  0  0  0  0  0  0
   19.1791   71.4617   -3.4128 O   0  0  0  0  0  0  0  0  0  0  0  0
   18.5644   70.0492   -5.2137 O   0  0  0  0  0  0  0  0  0  0  0  0
   21.7040   72.0571   -6.9920 O   0  0  0  0  0  0  0  0  0  0  0  0
   19.0099   72.6382   -7.7997 O   0  0  0  0  0  0  0  0  0  0  0  0
   21.8674   71.3030   -4.2020 O   0  0  0  0  0  0  0  0  0  0  0  0
   20.5675   71.9128   -6.1358 C   0  0  1  0  0  0  0  0  0  0  0  0
   19.3661   71.5167   -6.9962 C   0  0  1  0  0  0  0  0  0  0  0  0
   20.8612   70.8352   -5.0937 C   0  0  2  0  0  0  0  0  0  0  0  0
   18.1789   71.0850   -6.1248 C   0  0  1  0  0  0  0  0  0  0  0  0
   19.6035   70.4440   -4.3158 C   0  0  1  0  0  0  0  0  0  0  0  0
   21.5242   72.7403   -7.6557 H   0  0  0  0  0  0  0  0  0  0  0  0
   19.7683   72.9010   -8.3446 H   0  0  0  0  0  0  0  0  0  0  0  0
   22.6584   71.5471   -4.7066 H   0  0  0  0  0  0  0  0  0  0  0  0
   17.5235   70.1853   -8.2390 O   0  0  0  0  0  0  0  0  0  0  0  0
   17.0250   70.5366   -6.9614 C   0  0  0  0  0  0  0  0  0  0  0  0
   16.8001   69.8344   -8.7824 H   0  0  0  0  0  0  0  0  0  0  0  0
 25 28  1  0
 25 24  1  0
 25 26  1  1
 25 27  2  0
  1  4  1  0
  1 24  1  0
  1  2  1  6
  1  3  2  0
  6 11  1  0
  6 12  1  0
 29 36  1  0
 29 37  1  0
  9  7  1  1
  7 13  1  0
 10  8  1  6
  8 14  1  0
 37 28  1  6
  4  5  1  0
 33 30  1  6
 30 38  1  0
 34 31  1  1
 31 39  1  0
 35 32  1  1
 32 40  1  0
 41 42  1  0
 41 43  1  0
 15 19  2  0
 16 22  2  0
 12 17  1  1
 17 19  1  0
 17 20  1  0
 18 19  1  0
 18 22  1  0
 18 23  1  0
  9 10  1  0
  9 11  1  0
 10 12  1  0
 11  5  1  1
 33 34  1  0
 33 35  1  0
 34 36  1  0
 35 37  1  0
 36 42  1  6
 20 21  2  0
 21 22  1  0
M  CHG  2   2  -1  26  -1
M  END
>  <COMPND>  (119) 
    8629 

>  <AUTHOR>  (119) 
    GENERATED BY OPEN BABEL 3.1.1

>  <MASTER>  (119) 
        0    0    0    0    0    0    0    0   58    0   58    0

>  <minimizedAffinity>  (119) 
-5.81217

>  <CNNscore>  (119) 
0.3050977886

>  <CNNaffinity>  (119) 
3.7739462852

>  <CNN_VS>  (119) 
1.1514226198

>  <CNNaffinity_variance>  (119) 
0.1668743193

$$$$
120
     RDKit          3D

 43 45  0  0  0  0  0  0  0  0999 V2000
   22.3524   73.5546   -4.2715 P   0  0  2  0  0  0  0  0  0  0  0  0
   23.7159   72.7220   -4.5267 O   0  0  0  0  0  0  0  0  0  0  0  0
   22.4098   75.0011   -4.6663 O   0  0  0  0  0  0  0  0  0  0  0  0
   22.0043   73.2634   -2.7185 O   0  0  0  0  0  0  0  0  0  0  0  0
   21.6767   71.9389   -2.3359 C   0  0  0  0  0  0  0  0  0  0  0  0
   23.6767   72.4311   -1.0983 O   0  0  0  0  0  0  0  0  0  0  0  0
   22.4784   70.8097    1.1211 O   0  0  0  0  0  0  0  0  0  0  0  0
   21.9988   73.3696    1.9294 O   0  0  0  0  0  0  0  0  0  0  0  0
   21.8356   71.6787    0.1900 C   0  0  1  0  0  0  0  0  0  0  0  0
   22.1136   73.1251    0.5424 C   0  0  2  0  0  0  0  0  0  0  0  0
   22.5442   71.5362   -1.1512 C   0  0  1  0  0  0  0  0  0  0  0  0
   23.5331   73.3064    0.0322 C   0  0  2  0  0  0  0  0  0  0  0  0
   22.0429   70.8830    1.9854 H   0  0  0  0  0  0  0  0  0  0  0  0
   21.0779   73.2414    2.2053 H   0  0  0  0  0  0  0  0  0  0  0  0
   26.1099   74.4522   -0.1266 O   0  0  0  0  0  0  0  0  0  0  0  0
   24.4256   78.4881   -1.5812 O   0  0  0  0  0  0  0  0  0  0  0  0
   23.7971   74.6545   -0.3853 N   0  0  0  0  0  0  0  0  0  0  0  0
   25.2692   76.4608   -0.8509 N   0  0  0  0  0  0  0  0  0  0  0  0
   25.1275   75.1325   -0.4292 C   0  0  0  0  0  0  0  0  0  0  0  0
   22.7433   75.4871   -0.7460 C   0  0  0  0  0  0  0  0  0  0  0  0
   22.8951   76.7518   -1.1447 C   0  0  0  0  0  0  0  0  0  0  0  0
   24.2530   77.3285   -1.2185 C   0  0  0  0  0  0  0  0  0  0  0  0
   26.1870   76.8156   -0.8890 H   0  0  0  0  0  0  0  0  0  0  0  0
   21.2423   72.6851   -5.0619 O   0  0  0  0  0  0  0  0  0  0  0  0
   20.8124   72.6769   -6.6201 P   0  0  2  0  0  0  0  0  0  0  0  0
   21.9726   71.7932   -7.3204 O   0  0  0  0  0  0  0  0  0  0  0  0
   20.6301   74.0430   -7.2154 O   0  0  0  0  0  0  0  0  0  0  0  0
   19.4980   71.7419   -6.6763 O   0  0  0  0  0  0  0  0  0  0  0  0
   17.4890   72.9991   -6.6784 O   0  0  0  0  0  0  0  0  0  0  0  0
   15.9107   69.2343   -6.0571 O   0  0  0  0  0  0  0  0  0  0  0  0
   15.5722   70.5105   -8.6075 O   0  0  0  0  0  0  0  0  0  0  0  0
   18.3998   69.9846   -4.7839 O   0  0  0  0  0  0  0  0  0  0  0  0
   16.8276   70.1899   -6.5970 C   0  0  1  0  0  0  0  0  0  0  0  0
   16.0361   71.1888   -7.4434 C   0  0  1  0  0  0  0  0  0  0  0  0
   17.5391   70.9031   -5.4488 C   0  0  2  0  0  0  0  0  0  0  0  0
   16.9038   72.3920   -7.8363 C   0  0  1  0  0  0  0  0  0  0  0  0
   18.3344   72.1133   -5.9419 C   0  0  1  0  0  0  0  0  0  0  0  0
   15.4560   68.7775   -6.7810 H   0  0  0  0  0  0  0  0  0  0  0  0
   15.0260   69.7527   -8.3455 H   0  0  0  0  0  0  0  0  0  0  0  0
   17.8844   69.2233   -4.4763 H   0  0  0  0  0  0  0  0  0  0  0  0
   16.2376   73.3001   -9.9435 O   0  0  0  0  0  0  0  0  0  0  0  0
   16.0933   73.4743   -8.5460 C   0  0  0  0  0  0  0  0  0  0  0  0
   15.7268   73.9819  -10.4082 H   0  0  0  0  0  0  0  0  0  0  0  0
 25 28  1  0
 25 24  1  0
 25 26  1  6
 25 27  2  0
  1  4  1  0
  1 24  1  0
  1  2  1  6
  1  3  2  0
  6 11  1  0
  6 12  1  0
 29 36  1  0
 29 37  1  0
  9  7  1  1
  7 13  1  0
 10  8  1  1
  8 14  1  0
 37 28  1  6
  4  5  1  0
 33 30  1  1
 30 38  1  0
 34 31  1  6
 31 39  1  0
 35 32  1  6
 32 40  1  0
 41 42  1  0
 41 43  1  0
 15 19  2  0
 16 22  2  0
 12 17  1  6
 17 19  1  0
 17 20  1  0
 18 19  1  0
 18 22  1  0
 18 23  1  0
  9 10  1  0
  9 11  1  0
 10 12  1  0
 11  5  1  6
 33 34  1  0
 33 35  1  0
 34 36  1  0
 35 37  1  0
 36 42  1  1
 20 21  2  0
 21 22  1  0
M  CHG  2   2  -1  26  -1
M  END
>  <COMPND>  (120) 
    8629 

>  <AUTHOR>  (120) 
    GENERATED BY OPEN BABEL 3.1.1

>  <MASTER>  (120) 
        0    0    0    0    0    0    0    0   58    0   58    0

>  <minimizedAffinity>  (120) 
-6.55049

>  <CNNscore>  (120) 
0.3037739992

>  <CNNaffinity>  (120) 
3.9704010487

>  <CNN_VS>  (120) 
1.2061046362

>  <CNNaffinity_variance>  (120) 
0.1373861879

$$$$
121
     RDKit          3D

 43 45  0  0  0  0  0  0  0  0999 V2000
   21.1560   72.2575   -1.1199 P   0  0  2  0  0  0  0  0  0  0  0  0
   20.8732   70.7644   -0.5648 O   0  0  0  0  0  0  0  0  0  0  0  0
   20.8581   73.3617   -0.1486 O   0  0  0  0  0  0  0  0  0  0  0  0
   20.3428   72.3127   -2.5176 O   0  0  0  0  0  0  0  0  0  0  0  0
   20.3117   71.1508   -3.3281 C   0  0  0  0  0  0  0  0  0  0  0  0
   20.7900   70.5364   -5.6013 O   0  0  0  0  0  0  0  0  0  0  0  0
   22.5654   72.9514   -5.6833 O   0  0  0  0  0  0  0  0  0  0  0  0
   20.3198   73.8208   -6.9632 O   0  0  0  0  0  0  0  0  0  0  0  0
   21.3197   72.7698   -5.0120 C   0  0  1  0  0  0  0  0  0  0  0  0
   20.1783   72.7898   -6.0073 C   0  0  2  0  0  0  0  0  0  0  0  0
   21.2683   71.3365   -4.4979 C   0  0  1  0  0  0  0  0  0  0  0  0
   20.2731   71.4043   -6.6233 C   0  0  2  0  0  0  0  0  0  0  0  0
   22.6215   73.8598   -6.0203 H   0  0  0  0  0  0  0  0  0  0  0  0
   20.2522   74.6821   -6.5225 H   0  0  0  0  0  0  0  0  0  0  0  0
   19.6019   70.8490   -9.3101 O   0  0  0  0  0  0  0  0  0  0  0  0
   15.3455   69.5059   -8.1609 O   0  0  0  0  0  0  0  0  0  0  0  0
   18.9967   70.9082   -7.0546 N   0  0  0  0  0  0  0  0  0  0  0  0
   17.4832   70.1805   -8.7357 N   0  0  0  0  0  0  0  0  0  0  0  0
   18.7615   70.6630   -8.4276 C   0  0  0  0  0  0  0  0  0  0  0  0
   17.9944   70.6695   -6.1206 C   0  0  0  0  0  0  0  0  0  0  0  0
   16.7802   70.2105   -6.4309 C   0  0  0  0  0  0  0  0  0  0  0  0
   16.4530   69.9285   -7.8435 C   0  0  0  0  0  0  0  0  0  0  0  0
   17.2964   70.0029   -9.6861 H   0  0  0  0  0  0  0  0  0  0  0  0
   22.6978   72.1810   -1.5993 O   0  0  0  0  0  0  0  0  0  0  0  0
   24.0401   72.8188   -0.9634 P   0  0  2  0  0  0  0  0  0  0  0  0
   23.8506   74.4062   -1.2122 O   0  0  0  0  0  0  0  0  0  0  0  0
   25.3141   72.2525   -1.5203 O   0  0  0  0  0  0  0  0  0  0  0  0
   23.8657   72.6323    0.6303 O   0  0  0  0  0  0  0  0  0  0  0  0
   25.7960   71.8646    1.7710 O   0  0  0  0  0  0  0  0  0  0  0  0
   22.9808   71.2023    4.7183 O   0  0  0  0  0  0  0  0  0  0  0  0
   24.8547   73.3595    5.0064 O   0  0  0  0  0  0  0  0  0  0  0  0
   22.3153   70.6986    1.9465 O   0  0  0  0  0  0  0  0  0  0  0  0
   23.5755   71.8928    3.6161 C   0  0  1  0  0  0  0  0  0  0  0  0
   24.9821   72.3318    4.0277 C   0  0  1  0  0  0  0  0  0  0  0  0
   23.6359   70.9537    2.4128 C   0  0  2  0  0  0  0  0  0  0  0  0
   25.7795   72.8406    2.8192 C   0  0  1  0  0  0  0  0  0  0  0  0
   24.4932   71.5335    1.2863 C   0  0  1  0  0  0  0  0  0  0  0  0
   22.9390   71.7932    5.4855 H   0  0  0  0  0  0  0  0  0  0  0  0
   24.3489   73.0255    5.7639 H   0  0  0  0  0  0  0  0  0  0  0  0
   21.7828   70.3316    2.6687 H   0  0  0  0  0  0  0  0  0  0  0  0
   27.6633   72.1848    4.1345 O   0  0  0  0  0  0  0  0  0  0  0  0
   27.2345   73.1355    3.1772 C   0  0  0  0  0  0  0  0  0  0  0  0
   28.5879   72.3599    4.3716 H   0  0  0  0  0  0  0  0  0  0  0  0
 25 28  1  0
 25 24  1  0
 25 26  1  1
 25 27  2  0
  1  4  1  0
  1 24  1  0
  1  2  1  1
  1  3  2  0
  6 11  1  0
  6 12  1  0
 29 36  1  0
 29 37  1  0
  9  7  1  6
  7 13  1  0
 10  8  1  6
  8 14  1  0
 37 28  1  1
  4  5  1  0
 33 30  1  1
 30 38  1  0
 34 31  1  1
 31 39  1  0
 35 32  1  6
 32 40  1  0
 41 42  1  0
 41 43  1  0
 15 19  2  0
 16 22  2  0
 12 17  1  1
 17 19  1  0
 17 20  1  0
 18 19  1  0
 18 22  1  0
 18 23  1  0
  9 10  1  0
  9 11  1  0
 10 12  1  0
 11  5  1  1
 33 34  1  0
 33 35  1  0
 34 36  1  0
 35 37  1  0
 36 42  1  1
 20 21  2  0
 21 22  1  0
M  CHG  2   2  -1  26  -1
M  END
>  <COMPND>  (121) 
    8629 

>  <AUTHOR>  (121) 
    GENERATED BY OPEN BABEL 3.1.1

>  <MASTER>  (121) 
        0    0    0    0    0    0    0    0   58    0   58    0

>  <minimizedAffinity>  (121) 
-7.13866

>  <CNNscore>  (121) 
0.7541837096

>  <CNNaffinity>  (121) 
4.5563402176

>  <CNN_VS>  (121) 
3.4363176823

>  <CNNaffinity_variance>  (121) 
0.0893453360

$$$$
122
     RDKit          3D

 43 45  0  0  0  0  0  0  0  0999 V2000
   20.7926   71.6522   -1.1551 P   0  0  2  0  0  0  0  0  0  0  0  0
   20.0845   70.2292   -0.8533 O   0  0  0  0  0  0  0  0  0  0  0  0
   20.5016   72.7301   -0.1528 O   0  0  0  0  0  0  0  0  0  0  0  0
   20.3701   71.9801   -2.6822 O   0  0  0  0  0  0  0  0  0  0  0  0
   20.3285   70.9150   -3.6158 C   0  0  0  0  0  0  0  0  0  0  0  0
   20.7104   70.5416   -5.9586 O   0  0  0  0  0  0  0  0  0  0  0  0
   22.3236   73.0686   -5.9071 O   0  0  0  0  0  0  0  0  0  0  0  0
   19.9570   73.8960   -6.9801 O   0  0  0  0  0  0  0  0  0  0  0  0
   21.1331   72.7435   -5.1913 C   0  0  1  0  0  0  0  0  0  0  0  0
   19.9364   72.7759   -6.1189 C   0  0  2  0  0  0  0  0  0  0  0  0
   21.2015   71.2695   -4.8117 C   0  0  1  0  0  0  0  0  0  0  0  0
   20.0813   71.4611   -6.8661 C   0  0  2  0  0  0  0  0  0  0  0  0
   22.3030   74.0054   -6.1599 H   0  0  0  0  0  0  0  0  0  0  0  0
   19.8616   74.7076   -6.4576 H   0  0  0  0  0  0  0  0  0  0  0  0
   19.4294   70.7550   -9.5222 O   0  0  0  0  0  0  0  0  0  0  0  0
   15.1932   69.3985   -8.3157 O   0  0  0  0  0  0  0  0  0  0  0  0
   18.8153   70.9208   -7.2744 N   0  0  0  0  0  0  0  0  0  0  0  0
   17.3207   70.0800   -8.9193 N   0  0  0  0  0  0  0  0  0  0  0  0
   18.5893   70.6004   -8.6333 C   0  0  0  0  0  0  0  0  0  0  0  0
   17.8140   70.7133   -6.3319 C   0  0  0  0  0  0  0  0  0  0  0  0
   16.6091   70.2174   -6.6210 C   0  0  0  0  0  0  0  0  0  0  0  0
   16.2919   69.8566   -8.0179 C   0  0  0  0  0  0  0  0  0  0  0  0
   17.1404   69.8498   -9.8596 H   0  0  0  0  0  0  0  0  0  0  0  0
   22.3552   71.2600   -1.2867 O   0  0  0  0  0  0  0  0  0  0  0  0
   23.6247   72.1165   -1.8040 P   0  0  2  0  0  0  0  0  0  0  0  0
   22.9770   73.5514   -2.1771 O   0  0  0  0  0  0  0  0  0  0  0  0
   24.3872   71.4710   -2.9246 O   0  0  0  0  0  0  0  0  0  0  0  0
   24.4974   72.3963   -0.4754 O   0  0  0  0  0  0  0  0  0  0  0  0
   23.4899   72.7466    1.6410 O   0  0  0  0  0  0  0  0  0  0  0  0
   27.0620   74.7183    2.2762 O   0  0  0  0  0  0  0  0  0  0  0  0
   26.5920   72.1891    3.5530 O   0  0  0  0  0  0  0  0  0  0  0  0
   25.7493   74.9015   -0.2972 O   0  0  0  0  0  0  0  0  0  0  0  0
   26.2132   73.7006    1.7384 C   0  0  1  0  0  0  0  0  0  0  0  0
   25.5728   72.9446    2.9043 C   0  0  1  0  0  0  0  0  0  0  0  0
   25.1414   74.3533    0.8674 C   0  0  2  0  0  0  0  0  0  0  0  0
   24.4510   72.0189    2.4148 C   0  0  1  0  0  0  0  0  0  0  0  0
   24.0480   73.3576    0.4761 C   0  0  1  0  0  0  0  0  0  0  0  0
   27.7451   74.3104    2.8299 H   0  0  0  0  0  0  0  0  0  0  0  0
   27.2944   72.7853    3.8568 H   0  0  0  0  0  0  0  0  0  0  0  0
   26.4394   75.5304   -0.0361 H   0  0  0  0  0  0  0  0  0  0  0  0
   24.5751   70.4995    4.2546 O   0  0  0  0  0  0  0  0  0  0  0  0
   23.6944   71.3746    3.5744 C   0  0  0  0  0  0  0  0  0  0  0  0
   24.1072   70.0824    4.9954 H   0  0  0  0  0  0  0  0  0  0  0  0
 25 28  1  0
 25 24  1  0
 25 26  1  6
 25 27  2  0
  1  4  1  0
  1 24  1  0
  1  2  1  1
  1  3  2  0
  6 11  1  0
  6 12  1  0
 29 36  1  0
 29 37  1  0
  9  7  1  6
  7 13  1  0
 10  8  1  6
  8 14  1  0
 37 28  1  6
  4  5  1  0
 33 30  1  1
 30 38  1  0
 34 31  1  6
 31 39  1  0
 35 32  1  6
 32 40  1  0
 41 42  1  0
 41 43  1  0
 15 19  2  0
 16 22  2  0
 12 17  1  1
 17 19  1  0
 17 20  1  0
 18 19  1  0
 18 22  1  0
 18 23  1  0
  9 10  1  0
  9 11  1  0
 10 12  1  0
 11  5  1  1
 33 34  1  0
 33 35  1  0
 34 36  1  0
 35 37  1  0
 36 42  1  1
 20 21  2  0
 21 22  1  0
M  CHG  2   2  -1  26  -1
M  END
>  <COMPND>  (122) 
    8629 

>  <AUTHOR>  (122) 
    GENERATED BY OPEN BABEL 3.1.1

>  <MASTER>  (122) 
        0    0    0    0    0    0    0    0   58    0   58    0

>  <minimizedAffinity>  (122) 
-7.14117

>  <CNNscore>  (122) 
0.7459790111

>  <CNNaffinity>  (122) 
4.5027379990

>  <CNN_VS>  (122) 
3.3589479923

>  <CNNaffinity_variance>  (122) 
0.0809638500

$$$$
123
     RDKit          3D

 43 45  0  0  0  0  0  0  0  0999 V2000
   23.3801   71.8695   -2.8427 P   0  0  2  0  0  0  0  0  0  0  0  0
   24.1903   72.5614   -4.0602 O   0  0  0  0  0  0  0  0  0  0  0  0
   23.7916   70.4615   -2.5269 O   0  0  0  0  0  0  0  0  0  0  0  0
   21.8262   72.0740   -3.2444 O   0  0  0  0  0  0  0  0  0  0  0  0
   21.0520   70.9288   -3.5557 C   0  0  0  0  0  0  0  0  0  0  0  0
   19.2261   70.2907   -4.9815 O   0  0  0  0  0  0  0  0  0  0  0  0
   19.8486   72.7576   -6.5683 O   0  0  0  0  0  0  0  0  0  0  0  0
   17.7008   73.5352   -5.0787 O   0  0  0  0  0  0  0  0  0  0  0  0
   19.9217   72.5491   -5.1589 C   0  0  1  0  0  0  0  0  0  0  0  0
   18.5314   72.5168   -4.5593 C   0  0  2  0  0  0  0  0  0  0  0  0
   20.4044   71.1239   -4.9198 C   0  0  1  0  0  0  0  0  0  0  0  0
   18.0567   71.1246   -4.9392 C   0  0  2  0  0  0  0  0  0  0  0  0
   19.5428   73.6614   -6.7459 H   0  0  0  0  0  0  0  0  0  0  0  0
   18.0443   74.4015   -4.8097 H   0  0  0  0  0  0  0  0  0  0  0  0
   15.7127   69.7028   -5.6192 O   0  0  0  0  0  0  0  0  0  0  0  0
   14.5805   69.0904   -1.1938 O   0  0  0  0  0  0  0  0  0  0  0  0
   17.1314   70.5820   -3.9848 N   0  0  0  0  0  0  0  0  0  0  0  0
   15.1510   69.3989   -3.4152 N   0  0  0  0  0  0  0  0  0  0  0  0
   15.9840   69.8855   -4.4307 C   0  0  0  0  0  0  0  0  0  0  0  0
   17.3661   70.7425   -2.6235 C   0  0  0  0  0  0  0  0  0  0  0  0
   16.5612   70.2735   -1.6678 C   0  0  0  0  0  0  0  0  0  0  0  0
   15.3407   69.5339   -2.0490 C   0  0  0  0  0  0  0  0  0  0  0  0
   14.3453   68.9106   -3.7021 H   0  0  0  0  0  0  0  0  0  0  0  0
   23.5827   72.9178   -1.6291 O   0  0  0  0  0  0  0  0  0  0  0  0
   24.8095   73.1224   -0.5966 P   0  0  2  0  0  0  0  0  0  0  0  0
   25.0367   74.7243   -0.6031 O   0  0  0  0  0  0  0  0  0  0  0  0
   26.0348   72.3218   -0.9306 O   0  0  0  0  0  0  0  0  0  0  0  0
   24.1789   72.8060    0.8550 O   0  0  0  0  0  0  0  0  0  0  0  0
   25.8472   71.9322    2.2938 O   0  0  0  0  0  0  0  0  0  0  0  0
   22.5429   71.3928    4.7107 O   0  0  0  0  0  0  0  0  0  0  0  0
   24.4442   73.4492    5.3465 O   0  0  0  0  0  0  0  0  0  0  0  0
   22.3343   70.9445    1.8585 O   0  0  0  0  0  0  0  0  0  0  0  0
   23.3494   72.0602    3.7362 C   0  0  1  0  0  0  0  0  0  0  0  0
   24.6855   72.4237    4.3872 C   0  0  1  0  0  0  0  0  0  0  0  0
   23.5673   71.1282    2.5457 C   0  0  2  0  0  0  0  0  0  0  0  0
   25.7007   72.9000    3.3396 C   0  0  1  0  0  0  0  0  0  0  0  0
   24.6310   71.6718    1.5902 C   0  0  1  0  0  0  0  0  0  0  0  0
   22.4003   71.9794    5.4691 H   0  0  0  0  0  0  0  0  0  0  0  0
   23.8012   73.1358    6.0019 H   0  0  0  0  0  0  0  0  0  0  0  0
   21.6694   70.5998    2.4741 H   0  0  0  0  0  0  0  0  0  0  0  0
   27.1329   74.4159    4.5056 O   0  0  0  0  0  0  0  0  0  0  0  0
   27.0864   73.1174    3.9435 C   0  0  0  0  0  0  0  0  0  0  0  0
   28.0090   74.5682    4.8941 H   0  0  0  0  0  0  0  0  0  0  0  0
 25 28  1  0
 25 24  1  0
 25 26  1  1
 25 27  2  0
  1  4  1  0
  1 24  1  0
  1  2  1  6
  1  3  2  0
  6 11  1  0
  6 12  1  0
 29 36  1  0
 29 37  1  0
  9  7  1  6
  7 13  1  0
 10  8  1  6
  8 14  1  0
 37 28  1  1
  4  5  1  0
 33 30  1  1
 30 38  1  0
 34 31  1  1
 31 39  1  0
 35 32  1  6
 32 40  1  0
 41 42  1  0
 41 43  1  0
 15 19  2  0
 16 22  2  0
 12 17  1  1
 17 19  1  0
 17 20  1  0
 18 19  1  0
 18 22  1  0
 18 23  1  0
  9 10  1  0
  9 11  1  0
 10 12  1  0
 11  5  1  1
 33 34  1  0
 33 35  1  0
 34 36  1  0
 35 37  1  0
 36 42  1  1
 20 21  2  0
 21 22  1  0
M  CHG  2   2  -1  26  -1
M  END
>  <COMPND>  (123) 
    8629 

>  <AUTHOR>  (123) 
    GENERATED BY OPEN BABEL 3.1.1

>  <MASTER>  (123) 
        0    0    0    0    0    0    0    0   58    0   58    0

>  <minimizedAffinity>  (123) 
-6.44586

>  <CNNscore>  (123) 
0.5886687636

>  <CNNaffinity>  (123) 
4.2414097786

>  <CNN_VS>  (123) 
2.4967854023

>  <CNNaffinity_variance>  (123) 
0.0786244199

$$$$
124
     RDKit          3D

 43 45  0  0  0  0  0  0  0  0999 V2000
   19.0879   73.8498   -1.2456 P   0  0  2  0  0  0  0  0  0  0  0  0
   18.5571   75.3637   -1.4544 O   0  0  0  0  0  0  0  0  0  0  0  0
   18.4529   73.1069   -0.1071 O   0  0  0  0  0  0  0  0  0  0  0  0
   20.6963   74.0090   -1.1705 O   0  0  0  0  0  0  0  0  0  0  0  0
   21.2584   74.6750   -0.0532 C   0  0  0  0  0  0  0  0  0  0  0  0
   22.9131   74.2535    1.6374 O   0  0  0  0  0  0  0  0  0  0  0  0
   24.0983   72.2767   -0.2806 O   0  0  0  0  0  0  0  0  0  0  0  0
   22.7165   70.6777    1.4429 O   0  0  0  0  0  0  0  0  0  0  0  0
   22.7279   72.5981   -0.0482 C   0  0  1  0  0  0  0  0  0  0  0  0
   22.2642   72.0046    1.2657 C   0  0  2  0  0  0  0  0  0  0  0  0
   22.6370   74.0936    0.2286 C   0  0  1  0  0  0  0  0  0  0  0  0
   22.8655   72.9670    2.2758 C   0  0  2  0  0  0  0  0  0  0  0  0
   24.1815   71.3265   -0.4601 H   0  0  0  0  0  0  0  0  0  0  0  0
   22.3060   70.1043    0.7770 H   0  0  0  0  0  0  0  0  0  0  0  0
   23.0195   71.1665    4.4466 O   0  0  0  0  0  0  0  0  0  0  0  0
   19.7930   73.4553    6.8114 O   0  0  0  0  0  0  0  0  0  0  0  0
   22.0774   73.0689    3.4717 N   0  0  0  0  0  0  0  0  0  0  0  0
   21.4130   72.3077    5.6224 N   0  0  0  0  0  0  0  0  0  0  0  0
   22.2306   72.1121    4.5020 C   0  0  0  0  0  0  0  0  0  0  0  0
   21.1652   74.1088    3.6140 C   0  0  0  0  0  0  0  0  0  0  0  0
   20.3920   74.2805    4.6882 C   0  0  0  0  0  0  0  0  0  0  0  0
   20.4904   73.3247    5.8101 C   0  0  0  0  0  0  0  0  0  0  0  0
   21.5022   71.6532    6.3528 H   0  0  0  0  0  0  0  0  0  0  0  0
   18.8566   73.1798   -2.6984 O   0  0  0  0  0  0  0  0  0  0  0  0
   17.8406   72.0196   -3.1827 P   0  0  2  0  0  0  0  0  0  0  0  0
   16.3829   72.6809   -2.9475 O   0  0  0  0  0  0  0  0  0  0  0  0
   18.0404   70.7002   -2.4947 O   0  0  0  0  0  0  0  0  0  0  0  0
   18.0118   71.9701   -4.7868 O   0  0  0  0  0  0  0  0  0  0  0  0
   17.7550   70.0078   -6.0906 O   0  0  0  0  0  0  0  0  0  0  0  0
   20.3760   72.0760   -8.5204 O   0  0  0  0  0  0  0  0  0  0  0  0
   17.6298   71.7947   -9.3124 O   0  0  0  0  0  0  0  0  0  0  0  0
   20.6747   72.1944   -5.6436 O   0  0  0  0  0  0  0  0  0  0  0  0
   19.2924   71.9311   -7.5984 C   0  0  1  0  0  0  0  0  0  0  0  0
   18.2224   71.0528   -8.2500 C   0  0  1  0  0  0  0  0  0  0  0  0
   19.8115   71.2837   -6.3159 C   0  0  2  0  0  0  0  0  0  0  0  0
   17.1545   70.6327   -7.2310 C   0  0  1  0  0  0  0  0  0  0  0  0
   18.6668   70.8594   -5.3940 C   0  0  1  0  0  0  0  0  0  0  0  0
   20.0532   72.4869   -9.3368 H   0  0  0  0  0  0  0  0  0  0  0  0
   18.3148   72.0542   -9.9485 H   0  0  0  0  0  0  0  0  0  0  0  0
   21.3952   72.4551   -6.2375 H   0  0  0  0  0  0  0  0  0  0  0  0
   15.1654   70.3443   -8.5230 O   0  0  0  0  0  0  0  0  0  0  0  0
   16.1652   69.6296   -7.8201 C   0  0  0  0  0  0  0  0  0  0  0  0
   14.5288   69.7186   -8.9037 H   0  0  0  0  0  0  0  0  0  0  0  0
 25 28  1  0
 25 24  1  0
 25 26  1  6
 25 27  2  0
  1  4  1  0
  1 24  1  0
  1  2  1  6
  1  3  2  0
  6 11  1  0
  6 12  1  0
 29 36  1  0
 29 37  1  0
  9  7  1  1
  7 13  1  0
 10  8  1  1
  8 14  1  0
 37 28  1  6
  4  5  1  0
 33 30  1  6
 30 38  1  0
 34 31  1  6
 31 39  1  0
 35 32  1  1
 32 40  1  0
 41 42  1  0
 41 43  1  0
 15 19  2  0
 16 22  2  0
 12 17  1  1
 17 19  1  0
 17 20  1  0
 18 19  1  0
 18 22  1  0
 18 23  1  0
  9 10  1  0
  9 11  1  0
 10 12  1  0
 11  5  1  1
 33 34  1  0
 33 35  1  0
 34 36  1  0
 35 37  1  0
 36 42  1  6
 20 21  2  0
 21 22  1  0
M  CHG  2   2  -1  26  -1
M  END
>  <COMPND>  (124) 
    8629 

>  <AUTHOR>  (124) 
    GENERATED BY OPEN BABEL 3.1.1

>  <MASTER>  (124) 
        0    0    0    0    0    0    0    0   58    0   58    0

>  <minimizedAffinity>  (124) 
-6.13211

>  <CNNscore>  (124) 
0.5558765531

>  <CNNaffinity>  (124) 
4.0147581100

>  <CNN_VS>  (124) 
2.2317099571

>  <CNNaffinity_variance>  (124) 
0.1142483503

$$$$
125
     RDKit          3D

 43 45  0  0  0  0  0  0  0  0999 V2000
   19.4398   73.3171   -1.1317 P   0  0  2  0  0  0  0  0  0  0  0  0
   17.8907   72.8567   -1.2062 O   0  0  0  0  0  0  0  0  0  0  0  0
   19.7002   74.5320   -0.2905 O   0  0  0  0  0  0  0  0  0  0  0  0
   19.8873   73.4273   -2.6826 O   0  0  0  0  0  0  0  0  0  0  0  0
   19.4152   72.4500   -3.5936 C   0  0  0  0  0  0  0  0  0  0  0  0
   20.1212   70.8942   -5.2832 O   0  0  0  0  0  0  0  0  0  0  0  0
   22.2844   72.8669   -5.9308 O   0  0  0  0  0  0  0  0  0  0  0  0
   20.4498   73.3307   -7.8944 O   0  0  0  0  0  0  0  0  0  0  0  0
   20.9382   73.1056   -5.5233 C   0  0  1  0  0  0  0  0  0  0  0  0
   19.9845   72.8159   -6.6635 C   0  0  2  0  0  0  0  0  0  0  0  0
   20.5576   72.0334   -4.5100 C   0  0  1  0  0  0  0  0  0  0  0  0
   19.9278   71.2977   -6.6487 C   0  0  2  0  0  0  0  0  0  0  0  0
   22.5503   73.5396   -6.5780 H   0  0  0  0  0  0  0  0  0  0  0  0
   20.4678   74.2996   -7.8537 H   0  0  0  0  0  0  0  0  0  0  0  0
   19.3010   70.8026   -9.3580 O   0  0  0  0  0  0  0  0  0  0  0  0
   15.0531   69.3601   -8.3017 O   0  0  0  0  0  0  0  0  0  0  0  0
   18.6655   70.7923   -7.1100 N   0  0  0  0  0  0  0  0  0  0  0  0
   17.1864   70.0846   -8.8298 N   0  0  0  0  0  0  0  0  0  0  0  0
   18.4524   70.5797   -8.4920 C   0  0  0  0  0  0  0  0  0  0  0  0
   17.6553   70.5127   -6.1962 C   0  0  0  0  0  0  0  0  0  0  0  0
   16.4531   70.0422   -6.5347 C   0  0  0  0  0  0  0  0  0  0  0  0
   16.1491   69.7923   -7.9585 C   0  0  0  0  0  0  0  0  0  0  0  0
   17.0150   69.9290   -9.7870 H   0  0  0  0  0  0  0  0  0  0  0  0
   20.1933   71.9777   -0.6304 O   0  0  0  0  0  0  0  0  0  0  0  0
   21.7637   71.6605   -0.4154 P   0  0  2  0  0  0  0  0  0  0  0  0
   22.1350   70.7414   -1.6940 O   0  0  0  0  0  0  0  0  0  0  0  0
   22.0896   71.0370    0.9109 O   0  0  0  0  0  0  0  0  0  0  0  0
   22.5063   73.0661   -0.6942 O   0  0  0  0  0  0  0  0  0  0  0  0
   23.4100   73.8059   -2.7564 O   0  0  0  0  0  0  0  0  0  0  0  0
   26.0181   75.7002   -0.1756 O   0  0  0  0  0  0  0  0  0  0  0  0
   24.0542   77.2439   -1.5928 O   0  0  0  0  0  0  0  0  0  0  0  0
   25.0802   73.0279    0.4234 O   0  0  0  0  0  0  0  0  0  0  0  0
   24.7560   75.1820   -0.6045 C   0  0  1  0  0  0  0  0  0  0  0  0
   24.3640   75.8883   -1.9038 C   0  0  1  0  0  0  0  0  0  0  0  0
   24.8848   73.6765   -0.8287 C   0  0  2  0  0  0  0  0  0  0  0  0
   23.1606   75.2034   -2.5654 C   0  0  1  0  0  0  0  0  0  0  0  0
   23.6555   73.1036   -1.5364 C   0  0  1  0  0  0  0  0  0  0  0  0
   25.9431   76.6557   -0.0310 H   0  0  0  0  0  0  0  0  0  0  0  0
   24.8222   77.6647   -1.1752 H   0  0  0  0  0  0  0  0  0  0  0  0
   25.8614   73.3992    0.8612 H   0  0  0  0  0  0  0  0  0  0  0  0
   24.0623   76.2423   -4.5190 O   0  0  0  0  0  0  0  0  0  0  0  0
   22.8511   75.7932   -3.9396 C   0  0  0  0  0  0  0  0  0  0  0  0
   23.8807   76.6199   -5.3943 H   0  0  0  0  0  0  0  0  0  0  0  0
 25 28  1  0
 25 24  1  0
 25 26  1  6
 25 27  2  0
  1  4  1  0
  1 24  1  0
  1  2  1  6
  1  3  2  0
  6 11  1  0
  6 12  1  0
 29 36  1  0
 29 37  1  0
  9  7  1  6
  7 13  1  0
 10  8  1  6
  8 14  1  0
 37 28  1  1
  4  5  1  0
 33 30  1  6
 30 38  1  0
 34 31  1  1
 31 39  1  0
 35 32  1  1
 32 40  1  0
 41 42  1  0
 41 43  1  0
 15 19  2  0
 16 22  2  0
 12 17  1  1
 17 19  1  0
 17 20  1  0
 18 19  1  0
 18 22  1  0
 18 23  1  0
  9 10  1  0
  9 11  1  0
 10 12  1  0
 11  5  1  1
 33 34  1  0
 33 35  1  0
 34 36  1  0
 35 37  1  0
 36 42  1  6
 20 21  2  0
 21 22  1  0
M  CHG  2   2  -1  26  -1
M  END
>  <COMPND>  (125) 
    8629 

>  <AUTHOR>  (125) 
    GENERATED BY OPEN BABEL 3.1.1

>  <MASTER>  (125) 
        0    0    0    0    0    0    0    0   58    0   58    0

>  <minimizedAffinity>  (125) 
-6.02523

>  <CNNscore>  (125) 
0.5040663481

>  <CNNaffinity>  (125) 
4.2467746735

>  <CNN_VS>  (125) 
2.1406562328

>  <CNNaffinity_variance>  (125) 
0.0419617966

$$$$
126
     RDKit          3D

 43 45  0  0  0  0  0  0  0  0999 V2000
   17.9124   72.1804   -1.8684 P   0  0  2  0  0  0  0  0  0  0  0  0
   18.7065   73.3487   -1.0798 O   0  0  0  0  0  0  0  0  0  0  0  0
   16.7172   72.6421   -2.6493 O   0  0  0  0  0  0  0  0  0  0  0  0
   17.6205   71.0708   -0.7275 O   0  0  0  0  0  0  0  0  0  0  0  0
   16.2766   70.7025   -0.4708 C   0  0  0  0  0  0  0  0  0  0  0  0
   15.6063   68.3990   -0.3344 O   0  0  0  0  0  0  0  0  0  0  0  0
   14.8286   68.6489   -3.2194 O   0  0  0  0  0  0  0  0  0  0  0  0
   12.4309   68.8576   -1.9373 O   0  0  0  0  0  0  0  0  0  0  0  0
   14.7302   69.6123   -2.1718 C   0  0  1  0  0  0  0  0  0  0  0  0
   13.5913   69.2592   -1.2380 C   0  0  2  0  0  0  0  0  0  0  0  0
   15.9455   69.4480   -1.2676 C   0  0  1  0  0  0  0  0  0  0  0  0
   14.1961   68.1348   -0.4145 C   0  0  2  0  0  0  0  0  0  0  0  0
   14.0634   68.7347   -3.8102 H   0  0  0  0  0  0  0  0  0  0  0  0
   12.0840   69.6072   -2.4457 H   0  0  0  0  0  0  0  0  0  0  0  0
   13.3443   65.7633    0.8614 O   0  0  0  0  0  0  0  0  0  0  0  0
   12.1396   68.0362    4.6855 O   0  0  0  0  0  0  0  0  0  0  0  0
   13.6561   68.0778    0.9146 N   0  0  0  0  0  0  0  0  0  0  0  0
   12.7453   66.8969    2.7645 N   0  0  0  0  0  0  0  0  0  0  0  0
   13.2572   66.8362    1.4621 C   0  0  0  0  0  0  0  0  0  0  0  0
   13.5269   69.2442    1.6607 C   0  0  0  0  0  0  0  0  0  0  0  0
   13.0355   69.2853    2.9009 C   0  0  0  0  0  0  0  0  0  0  0  0
   12.5958   68.0314    3.5463 C   0  0  0  0  0  0  0  0  0  0  0  0
   12.4606   66.0441    3.1664 H   0  0  0  0  0  0  0  0  0  0  0  0
   19.0718   71.4900   -2.7585 O   0  0  0  0  0  0  0  0  0  0  0  0
   19.5723   71.7887   -4.2662 P   0  0  2  0  0  0  0  0  0  0  0  0
   20.6196   70.5897   -4.5539 O   0  0  0  0  0  0  0  0  0  0  0  0
   20.1370   73.1654   -4.4657 O   0  0  0  0  0  0  0  0  0  0  0  0
   18.2971   71.4478   -5.1950 O   0  0  0  0  0  0  0  0  0  0  0  0
   18.7222   72.1257   -7.4258 O   0  0  0  0  0  0  0  0  0  0  0  0
   14.7511   71.0594   -7.8056 O   0  0  0  0  0  0  0  0  0  0  0  0
   16.7844   69.3868   -8.9529 O   0  0  0  0  0  0  0  0  0  0  0  0
   15.6642   72.3957   -5.4056 O   0  0  0  0  0  0  0  0  0  0  0  0
   16.0834   70.9616   -7.2948 C   0  0  1  0  0  0  0  0  0  0  0  0
   17.0296   70.7045   -8.4692 C   0  0  1  0  0  0  0  0  0  0  0  0
   16.4445   72.2674   -6.5893 C   0  0  2  0  0  0  0  0  0  0  0  0
   18.4961   70.8524   -8.0417 C   0  0  1  0  0  0  0  0  0  0  0  0
   17.9350   72.3334   -6.2514 C   0  0  1  0  0  0  0  0  0  0  0  0
   14.5154   70.2333   -8.2544 H   0  0  0  0  0  0  0  0  0  0  0  0
   15.8549   69.3065   -9.2190 H   0  0  0  0  0  0  0  0  0  0  0  0
   14.7227   72.3527   -5.6329 H   0  0  0  0  0  0  0  0  0  0  0  0
   18.7519   71.1388  -10.4000 O   0  0  0  0  0  0  0  0  0  0  0  0
   19.4507   70.7558   -9.2298 C   0  0  0  0  0  0  0  0  0  0  0  0
   19.3472   71.0824  -11.1643 H   0  0  0  0  0  0  0  0  0  0  0  0
 25 28  1  0
 25 24  1  0
 25 26  1  6
 25 27  2  0
  1  4  1  0
  1 24  1  0
  1  2  1  1
  1  3  2  0
  6 11  1  0
  6 12  1  0
 29 36  1  0
 29 37  1  0
  9  7  1  6
  7 13  1  0
 10  8  1  6
  8 14  1  0
 37 28  1  1
  4  5  1  0
 33 30  1  6
 30 38  1  0
 34 31  1  1
 31 39  1  0
 35 32  1  1
 32 40  1  0
 41 42  1  0
 41 43  1  0
 15 19  2  0
 16 22  2  0
 12 17  1  1
 17 19  1  0
 17 20  1  0
 18 19  1  0
 18 22  1  0
 18 23  1  0
  9 10  1  0
  9 11  1  0
 10 12  1  0
 11  5  1  1
 33 34  1  0
 33 35  1  0
 34 36  1  0
 35 37  1  0
 36 42  1  6
 20 21  2  0
 21 22  1  0
M  CHG  2   2  -1  26  -1
M  END
>  <COMPND>  (126) 
    8629 

>  <AUTHOR>  (126) 
    GENERATED BY OPEN BABEL 3.1.1

>  <MASTER>  (126) 
        0    0    0    0    0    0    0    0   58    0   58    0

>  <minimizedAffinity>  (126) 
-6.80507

>  <CNNscore>  (126) 
0.4963391125

>  <CNNaffinity>  (126) 
3.9938826561

>  <CNN_VS>  (126) 
1.9823201895

>  <CNNaffinity_variance>  (126) 
0.1064954400

$$$$
127
     RDKit          3D

 43 45  0  0  0  0  0  0  0  0999 V2000
   22.1901   71.4275   -1.7381 P   0  0  2  0  0  0  0  0  0  0  0  0
   23.1921   70.4269   -2.5205 O   0  0  0  0  0  0  0  0  0  0  0  0
   21.6326   70.8893   -0.4532 O   0  0  0  0  0  0  0  0  0  0  0  0
   21.0989   71.8396   -2.8594 O   0  0  0  0  0  0  0  0  0  0  0  0
   21.5097   72.6748   -3.9278 C   0  0  0  0  0  0  0  0  0  0  0  0
   20.6564   70.7580   -5.0991 O   0  0  0  0  0  0  0  0  0  0  0  0
   21.8414   71.9743   -7.5703 O   0  0  0  0  0  0  0  0  0  0  0  0
   19.2002   72.6125   -7.8015 O   0  0  0  0  0  0  0  0  0  0  0  0
   21.2249   72.6162   -6.4554 C   0  0  1  0  0  0  0  0  0  0  0  0
   19.7234   72.4244   -6.5024 C   0  0  2  0  0  0  0  0  0  0  0  0
   21.6052   71.8425   -5.1992 C   0  0  1  0  0  0  0  0  0  0  0  0
   19.5730   70.9940   -6.0131 C   0  0  2  0  0  0  0  0  0  0  0  0
   21.6132   72.4509   -8.3844 H   0  0  0  0  0  0  0  0  0  0  0  0
   19.3197   73.5376   -8.0675 H   0  0  0  0  0  0  0  0  0  0  0  0
   17.1643   70.2386   -7.2802 O   0  0  0  0  0  0  0  0  0  0  0  0
   14.8644   70.1916   -3.2865 O   0  0  0  0  0  0  0  0  0  0  0  0
   18.3297   70.7771   -5.3285 N   0  0  0  0  0  0  0  0  0  0  0  0
   16.0211   70.2156   -5.2905 N   0  0  0  0  0  0  0  0  0  0  0  0
   17.1780   70.4010   -6.0582 C   0  0  0  0  0  0  0  0  0  0  0  0
   18.2612   70.9372   -3.9488 C   0  0  0  0  0  0  0  0  0  0  0  0
   17.1500   70.7580   -3.2318 C   0  0  0  0  0  0  0  0  0  0  0  0
   15.9025   70.3640   -3.9177 C   0  0  0  0  0  0  0  0  0  0  0  0
   15.2063   69.9537   -5.7776 H   0  0  0  0  0  0  0  0  0  0  0  0
   23.0719   72.7727   -1.5776 O   0  0  0  0  0  0  0  0  0  0  0  0
   24.4460   73.0516   -0.7732 P   0  0  2  0  0  0  0  0  0  0  0  0
   24.6177   74.6570   -0.8775 O   0  0  0  0  0  0  0  0  0  0  0  0
   25.6238   72.2688   -1.2772 O   0  0  0  0  0  0  0  0  0  0  0  0
   24.0757   72.7809    0.7742 O   0  0  0  0  0  0  0  0  0  0  0  0
   25.9646   71.9005    1.9027 O   0  0  0  0  0  0  0  0  0  0  0  0
   23.1620   71.5200    4.9113 O   0  0  0  0  0  0  0  0  0  0  0  0
   25.1943   73.5391    5.1137 O   0  0  0  0  0  0  0  0  0  0  0  0
   22.4113   70.9997    2.1644 O   0  0  0  0  0  0  0  0  0  0  0  0
   23.7858   72.1376    3.7822 C   0  0  1  0  0  0  0  0  0  0  0  0
   25.2281   72.4813    4.1597 C   0  0  1  0  0  0  0  0  0  0  0  0
   23.7553   71.1677    2.6025 C   0  0  2  0  0  0  0  0  0  0  0  0
   26.0388   72.9003    2.9258 C   0  0  1  0  0  0  0  0  0  0  0  0
   24.6324   71.6550    1.4478 C   0  0  1  0  0  0  0  0  0  0  0  0
   23.1776   72.1309    5.6637 H   0  0  0  0  0  0  0  0  0  0  0  0
   24.6790   73.2619    5.8876 H   0  0  0  0  0  0  0  0  0  0  0  0
   21.8664   70.6907    2.9043 H   0  0  0  0  0  0  0  0  0  0  0  0
   27.8977   72.1262    4.2120 O   0  0  0  0  0  0  0  0  0  0  0  0
   27.5178   73.0953    3.2525 C   0  0  0  0  0  0  0  0  0  0  0  0
   28.8368   72.2380    4.4293 H   0  0  0  0  0  0  0  0  0  0  0  0
 25 28  1  0
 25 24  1  0
 25 26  1  1
 25 27  2  0
  1  4  1  0
  1 24  1  0
  1  2  1  6
  1  3  2  0
  6 11  1  0
  6 12  1  0
 29 36  1  0
 29 37  1  0
  9  7  1  6
  7 13  1  0
 10  8  1  6
  8 14  1  0
 37 28  1  1
  4  5  1  0
 33 30  1  1
 30 38  1  0
 34 31  1  1
 31 39  1  0
 35 32  1  6
 32 40  1  0
 41 42  1  0
 41 43  1  0
 15 19  2  0
 16 22  2  0
 12 17  1  1
 17 19  1  0
 17 20  1  0
 18 19  1  0
 18 22  1  0
 18 23  1  0
  9 10  1  0
  9 11  1  0
 10 12  1  0
 11  5  1  1
 33 34  1  0
 33 35  1  0
 34 36  1  0
 35 37  1  0
 36 42  1  1
 20 21  2  0
 21 22  1  0
M  CHG  2   2  -1  26  -1
M  END
>  <COMPND>  (127) 
    8629 

>  <AUTHOR>  (127) 
    GENERATED BY OPEN BABEL 3.1.1

>  <MASTER>  (127) 
        0    0    0    0    0    0    0    0   58    0   58    0

>  <minimizedAffinity>  (127) 
-6.71505

>  <CNNscore>  (127) 
0.4836924374

>  <CNNaffinity>  (127) 
4.1401791573

>  <CNN_VS>  (127) 
2.0025732517

>  <CNNaffinity_variance>  (127) 
0.1273962110

$$$$
128
     RDKit          3D

 43 45  0  0  0  0  0  0  0  0999 V2000
   21.6960   73.0334   -4.7902 P   0  0  2  0  0  0  0  0  0  0  0  0
   21.8909   72.4076   -6.2693 O   0  0  0  0  0  0  0  0  0  0  0  0
   22.1072   74.4697   -4.6505 O   0  0  0  0  0  0  0  0  0  0  0  0
   22.4600   71.9864   -3.8217 O   0  0  0  0  0  0  0  0  0  0  0  0
   22.7377   72.3776   -2.4884 C   0  0  0  0  0  0  0  0  0  0  0  0
   22.2674   71.1625   -0.4694 O   0  0  0  0  0  0  0  0  0  0  0  0
   19.5277   72.3740   -0.6005 O   0  0  0  0  0  0  0  0  0  0  0  0
   20.7737   73.9228    1.2663 O   0  0  0  0  0  0  0  0  0  0  0  0
   20.7847   72.9450   -0.9597 C   0  0  1  0  0  0  0  0  0  0  0  0
   21.5748   73.3007    0.2825 C   0  0  2  0  0  0  0  0  0  0  0  0
   21.6403   71.8457   -1.5769 C   0  0  1  0  0  0  0  0  0  0  0  0
   22.0949   71.9434    0.7245 C   0  0  2  0  0  0  0  0  0  0  0  0
   18.9637   73.0573   -0.2044 H   0  0  0  0  0  0  0  0  0  0  0  0
   20.4673   74.7824    0.9379 H   0  0  0  0  0  0  0  0  0  0  0  0
   22.9768   70.1249    2.6976 O   0  0  0  0  0  0  0  0  0  0  0  0
   26.9448   72.3962    3.2784 O   0  0  0  0  0  0  0  0  0  0  0  0
   23.3544   72.0354    1.4075 N   0  0  0  0  0  0  0  0  0  0  0  0
   24.9519   71.2572    2.9850 N   0  0  0  0  0  0  0  0  0  0  0  0
   23.7012   71.0713    2.3825 C   0  0  0  0  0  0  0  0  0  0  0  0
   24.2309   73.0728    1.1081 C   0  0  0  0  0  0  0  0  0  0  0  0
   25.4194   73.2367    1.6927 C   0  0  0  0  0  0  0  0  0  0  0  0
   25.8578   72.2727    2.7226 C   0  0  0  0  0  0  0  0  0  0  0  0
   25.2147   70.5978    3.6677 H   0  0  0  0  0  0  0  0  0  0  0  0
   20.1364   72.7467   -4.4768 O   0  0  0  0  0  0  0  0  0  0  0  0
   19.2906   71.3692   -4.4710 P   0  0  2  0  0  0  0  0  0  0  0  0
   18.5353   71.4034   -3.0407 O   0  0  0  0  0  0  0  0  0  0  0  0
   20.1176   70.1383   -4.7053 O   0  0  0  0  0  0  0  0  0  0  0  0
   18.1192   71.6045   -5.5562 O   0  0  0  0  0  0  0  0  0  0  0  0
   17.4323   70.1608   -7.3057 O   0  0  0  0  0  0  0  0  0  0  0  0
   16.7270   73.7954   -9.1342 O   0  0  0  0  0  0  0  0  0  0  0  0
   14.5093   72.1972   -8.2534 O   0  0  0  0  0  0  0  0  0  0  0  0
   19.0545   73.4554   -7.4469 O   0  0  0  0  0  0  0  0  0  0  0  0
   16.7917   72.8792   -8.0379 C   0  0  1  0  0  0  0  0  0  0  0  0
   15.8468   71.7123   -8.3318 C   0  0  1  0  0  0  0  0  0  0  0  0
   18.2284   72.3826   -7.8865 C   0  0  2  0  0  0  0  0  0  0  0  0
   16.0581   70.5640   -7.3358 C   0  0  1  0  0  0  0  0  0  0  0  0
   18.3202   71.2083   -6.9105 C   0  0  1  0  0  0  0  0  0  0  0  0
   15.8175   74.1148   -9.2355 H   0  0  0  0  0  0  0  0  0  0  0  0
   14.3893   72.9222   -8.8869 H   0  0  0  0  0  0  0  0  0  0  0  0
   18.9878   74.1923   -8.0732 H   0  0  0  0  0  0  0  0  0  0  0  0
   15.4620   68.3326   -6.7239 O   0  0  0  0  0  0  0  0  0  0  0  0
   15.2389   69.3291   -7.7045 C   0  0  0  0  0  0  0  0  0  0  0  0
   14.9466   67.5408   -6.9454 H   0  0  0  0  0  0  0  0  0  0  0  0
 25 28  1  0
 25 24  1  0
 25 26  1  1
 25 27  2  0
  1  4  1  0
  1 24  1  0
  1  2  1  6
  1  3  2  0
  6 11  1  0
  6 12  1  0
 29 36  1  0
 29 37  1  0
  9  7  1  1
  7 13  1  0
 10  8  1  1
  8 14  1  0
 37 28  1  1
  4  5  1  0
 33 30  1  6
 30 38  1  0
 34 31  1  1
 31 39  1  0
 35 32  1  1
 32 40  1  0
 41 42  1  0
 41 43  1  0
 15 19  2  0
 16 22  2  0
 12 17  1  6
 17 19  1  0
 17 20  1  0
 18 19  1  0
 18 22  1  0
 18 23  1  0
  9 10  1  0
  9 11  1  0
 10 12  1  0
 11  5  1  6
 33 34  1  0
 33 35  1  0
 34 36  1  0
 35 37  1  0
 36 42  1  6
 20 21  2  0
 21 22  1  0
M  CHG  2   2  -1  26  -1
M  END
>  <COMPND>  (128) 
    8629 

>  <AUTHOR>  (128) 
    GENERATED BY OPEN BABEL 3.1.1

>  <MASTER>  (128) 
        0    0    0    0    0    0    0    0   58    0   58    0

>  <minimizedAffinity>  (128) 
-6.94151

>  <CNNscore>  (128) 
0.4594275057

>  <CNNaffinity>  (128) 
4.2327528000

>  <CNN_VS>  (128) 
1.9446430206

>  <CNNaffinity_variance>  (128) 
0.0762349814

$$$$
129
     RDKit          3D

 43 45  0  0  0  0  0  0  0  0999 V2000
   22.3968   72.5912   -3.6456 P   0  0  2  0  0  0  0  0  0  0  0  0
   23.7204   72.6893   -4.5708 O   0  0  0  0  0  0  0  0  0  0  0  0
   22.1660   71.2519   -3.0095 O   0  0  0  0  0  0  0  0  0  0  0  0
   21.2104   73.1264   -4.6068 O   0  0  0  0  0  0  0  0  0  0  0  0
   20.0390   72.3399   -4.7369 C   0  0  0  0  0  0  0  0  0  0  0  0
   19.0612   70.5961   -6.0699 O   0  0  0  0  0  0  0  0  0  0  0  0
   21.6928   70.4719   -7.5017 O   0  0  0  0  0  0  0  0  0  0  0  0
   20.1456   71.9110   -9.2255 O   0  0  0  0  0  0  0  0  0  0  0  0
   21.0063   71.6049   -6.9724 C   0  0  1  0  0  0  0  0  0  0  0  0
   19.8249   71.9613   -7.8503 C   0  0  2  0  0  0  0  0  0  0  0  0
   20.3240   71.1780   -5.6787 C   0  0  1  0  0  0  0  0  0  0  0  0
   18.8053   70.9090   -7.4489 C   0  0  2  0  0  0  0  0  0  0  0  0
   22.1368   70.7201   -8.3282 H   0  0  0  0  0  0  0  0  0  0  0  0
   20.7974   72.5993   -9.4311 H   0  0  0  0  0  0  0  0  0  0  0  0
   16.6720   69.3681   -8.4749 O   0  0  0  0  0  0  0  0  0  0  0  0
   13.6648   72.8127   -7.8978 O   0  0  0  0  0  0  0  0  0  0  0  0
   17.4544   71.3780   -7.5777 N   0  0  0  0  0  0  0  0  0  0  0  0
   15.1764   71.0844   -8.1865 N   0  0  0  0  0  0  0  0  0  0  0  0
   16.4579   70.5247   -8.1062 C   0  0  0  0  0  0  0  0  0  0  0  0
   17.1290   72.6709   -7.1819 C   0  0  0  0  0  0  0  0  0  0  0  0
   15.9024   73.1899   -7.2663 C   0  0  0  0  0  0  0  0  0  0  0  0
   14.8035   72.3642   -7.8074 C   0  0  0  0  0  0  0  0  0  0  0  0
   14.4661   70.5085   -8.5520 H   0  0  0  0  0  0  0  0  0  0  0  0
   22.5936   73.8077   -2.5995 O   0  0  0  0  0  0  0  0  0  0  0  0
   21.7507   74.2239   -1.2845 P   0  0  2  0  0  0  0  0  0  0  0  0
   20.4618   73.2479   -1.3457 O   0  0  0  0  0  0  0  0  0  0  0  0
   21.4173   75.6855   -1.2043 O   0  0  0  0  0  0  0  0  0  0  0  0
   22.6244   73.6681   -0.0464 O   0  0  0  0  0  0  0  0  0  0  0  0
   24.8202   72.8022    0.1664 O   0  0  0  0  0  0  0  0  0  0  0  0
   22.8134   70.1100    2.5697 O   0  0  0  0  0  0  0  0  0  0  0  0
   24.5187   72.0848    3.7697 O   0  0  0  0  0  0  0  0  0  0  0  0
   21.5792   71.0700    0.1336 O   0  0  0  0  0  0  0  0  0  0  0  0
   23.0827   71.3885    1.9881 C   0  0  1  0  0  0  0  0  0  0  0  0
   24.5048   71.8007    2.3735 C   0  0  1  0  0  0  0  0  0  0  0  0
   22.9454   71.2854    0.4703 C   0  0  2  0  0  0  0  0  0  0  0  0
   24.9617   73.0282    1.5738 C   0  0  1  0  0  0  0  0  0  0  0  0
   23.4732   72.5382   -0.2311 C   0  0  1  0  0  0  0  0  0  0  0  0
   22.8983   70.1687    3.5335 H   0  0  0  0  0  0  0  0  0  0  0  0
   24.2277   71.3019    4.2631 H   0  0  0  0  0  0  0  0  0  0  0  0
   21.2570   70.2740    0.5835 H   0  0  0  0  0  0  0  0  0  0  0  0
   27.0759   72.2014    2.3190 O   0  0  0  0  0  0  0  0  0  0  0  0
   26.4305   73.3612    1.8265 C   0  0  0  0  0  0  0  0  0  0  0  0
   28.0117   72.3983    2.4842 H   0  0  0  0  0  0  0  0  0  0  0  0
 25 28  1  0
 25 24  1  0
 25 26  1  6
 25 27  2  0
  1  4  1  0
  1 24  1  0
  1  2  1  6
  1  3  2  0
  6 11  1  0
  6 12  1  0
 29 36  1  0
 29 37  1  0
  9  7  1  6
  7 13  1  0
 10  8  1  6
  8 14  1  0
 37 28  1  1
  4  5  1  0
 33 30  1  1
 30 38  1  0
 34 31  1  1
 31 39  1  0
 35 32  1  1
 32 40  1  0
 41 42  1  0
 41 43  1  0
 15 19  2  0
 16 22  2  0
 12 17  1  1
 17 19  1  0
 17 20  1  0
 18 19  1  0
 18 22  1  0
 18 23  1  0
  9 10  1  0
  9 11  1  0
 10 12  1  0
 11  5  1  1
 33 34  1  0
 33 35  1  0
 34 36  1  0
 35 37  1  0
 36 42  1  6
 20 21  2  0
 21 22  1  0
M  CHG  2   2  -1  26  -1
M  END
>  <COMPND>  (129) 
    8629 

>  <AUTHOR>  (129) 
    GENERATED BY OPEN BABEL 3.1.1

>  <MASTER>  (129) 
        0    0    0    0    0    0    0    0   58    0   58    0

>  <minimizedAffinity>  (129) 
-7.40518

>  <CNNscore>  (129) 
0.4497022629

>  <CNNaffinity>  (129) 
4.2748231888

>  <CNN_VS>  (129) 
1.9223976135

>  <CNNaffinity_variance>  (129) 
0.0025307422

$$$$
130
     RDKit          3D

 43 45  0  0  0  0  0  0  0  0999 V2000
   28.0227   74.9623    2.9889 P   0  0  2  0  0  0  0  0  0  0  0  0
   28.2851   76.2994    3.8613 O   0  0  0  0  0  0  0  0  0  0  0  0
   28.0617   75.1581    1.5018 O   0  0  0  0  0  0  0  0  0  0  0  0
   26.6373   74.3757    3.5843 O   0  0  0  0  0  0  0  0  0  0  0  0
   26.1132   73.1830    3.0270 C   0  0  0  0  0  0  0  0  0  0  0  0
   23.8925   73.4197    2.1404 O   0  0  0  0  0  0  0  0  0  0  0  0
   22.9772   71.8337    4.5148 O   0  0  0  0  0  0  0  0  0  0  0  0
   22.9877   69.9704    2.5236 O   0  0  0  0  0  0  0  0  0  0  0  0
   24.1741   71.7028    3.7494 C   0  0  1  0  0  0  0  0  0  0  0  0
   23.8739   71.0651    2.4090 C   0  0  2  0  0  0  0  0  0  0  0  0
   24.6261   73.0999    3.3428 C   0  0  1  0  0  0  0  0  0  0  0  0
   23.2722   72.2259    1.6354 C   0  0  2  0  0  0  0  0  0  0  0  0
   22.6694   70.9542    4.7862 H   0  0  0  0  0  0  0  0  0  0  0  0
   23.4163   69.2582    3.0234 H   0  0  0  0  0  0  0  0  0  0  0  0
   21.5200   71.0113   -0.2173 O   0  0  0  0  0  0  0  0  0  0  0  0
   24.3331   71.9219   -3.7527 O   0  0  0  0  0  0  0  0  0  0  0  0
   23.5216   72.1319    0.2246 N   0  0  0  0  0  0  0  0  0  0  0  0
   22.9221   71.4659   -1.9762 N   0  0  0  0  0  0  0  0  0  0  0  0
   22.5776   71.5010   -0.6189 C   0  0  0  0  0  0  0  0  0  0  0  0
   24.6912   72.6619   -0.3092 C   0  0  0  0  0  0  0  0  0  0  0  0
   25.0053   72.6190   -1.6056 C   0  0  0  0  0  0  0  0  0  0  0  0
   24.0729   71.9774   -2.5547 C   0  0  0  0  0  0  0  0  0  0  0  0
   22.2797   71.0309   -2.5828 H   0  0  0  0  0  0  0  0  0  0  0  0
   29.1291   73.9321    3.5611 O   0  0  0  0  0  0  0  0  0  0  0  0
   29.2359   73.1710    4.9832 P   0  0  2  0  0  0  0  0  0  0  0  0
   28.8003   71.6543    4.6259 O   0  0  0  0  0  0  0  0  0  0  0  0
   28.4316   73.8037    6.0817 O   0  0  0  0  0  0  0  0  0  0  0  0
   30.8197   73.0809    5.2805 O   0  0  0  0  0  0  0  0  0  0  0  0
   32.3704   74.4398    4.1120 O   0  0  0  0  0  0  0  0  0  0  0  0
   34.8968   71.3735    5.2372 O   0  0  0  0  0  0  0  0  0  0  0  0
   35.1067   73.9299    6.5290 O   0  0  0  0  0  0  0  0  0  0  0  0
   32.1826   70.7828    4.4225 O   0  0  0  0  0  0  0  0  0  0  0  0
   33.8022   72.2815    5.3878 C   0  0  1  0  0  0  0  0  0  0  0  0
   34.3527   73.7083    5.3404 C   0  0  1  0  0  0  0  0  0  0  0  0
   32.8040   72.0525    4.2545 C   0  0  2  0  0  0  0  0  0  0  0  0
   33.2187   74.7361    5.2275 C   0  0  1  0  0  0  0  0  0  0  0  0
   31.7471   73.1571    4.2009 C   0  0  1  0  0  0  0  0  0  0  0  0
   35.5341   71.5134    5.9540 H   0  0  0  0  0  0  0  0  0  0  0  0
   35.8191   73.2740    6.5884 H   0  0  0  0  0  0  0  0  0  0  0  0
   32.8621   70.0921    4.4546 H   0  0  0  0  0  0  0  0  0  0  0  0
   35.0987   76.0702    4.5992 O   0  0  0  0  0  0  0  0  0  0  0  0
   33.7495   76.1529    5.0203 C   0  0  0  0  0  0  0  0  0  0  0  0
   35.4496   76.9646    4.4631 H   0  0  0  0  0  0  0  0  0  0  0  0
 25 28  1  0
 25 24  1  0
 25 26  1  6
 25 27  2  0
  1  4  1  0
  1 24  1  0
  1  2  1  1
  1  3  2  0
  6 11  1  0
  6 12  1  0
 29 36  1  0
 29 37  1  0
  9  7  1  1
  7 13  1  0
 10  8  1  1
  8 14  1  0
 37 28  1  1
  4  5  1  0
 33 30  1  6
 30 38  1  0
 34 31  1  1
 31 39  1  0
 35 32  1  1
 32 40  1  0
 41 42  1  0
 41 43  1  0
 15 19  2  0
 16 22  2  0
 12 17  1  6
 17 19  1  0
 17 20  1  0
 18 19  1  0
 18 22  1  0
 18 23  1  0
  9 10  1  0
  9 11  1  0
 10 12  1  0
 11  5  1  6
 33 34  1  0
 33 35  1  0
 34 36  1  0
 35 37  1  0
 36 42  1  6
 20 21  2  0
 21 22  1  0
M  CHG  2   2  -1  26  -1
M  END
>  <COMPND>  (130) 
    8629 

>  <AUTHOR>  (130) 
    GENERATED BY OPEN BABEL 3.1.1

>  <MASTER>  (130) 
        0    0    0    0    0    0    0    0   58    0   58    0

>  <minimizedAffinity>  (130) 
-6.30850

>  <CNNscore>  (130) 
0.4292111099

>  <CNNaffinity>  (130) 
3.9409523010

>  <CNN_VS>  (130) 
1.6915005445

>  <CNNaffinity_variance>  (130) 
0.4344774783

$$$$
131
     RDKit          3D

 43 45  0  0  0  0  0  0  0  0999 V2000
   18.8761   73.7042   -1.2209 P   0  0  2  0  0  0  0  0  0  0  0  0
   17.4248   73.3402   -0.6056 O   0  0  0  0  0  0  0  0  0  0  0  0
   19.1886   75.1705   -1.2830 O   0  0  0  0  0  0  0  0  0  0  0  0
   18.9065   72.9188   -2.6351 O   0  0  0  0  0  0  0  0  0  0  0  0
   17.7825   72.1360   -2.9981 C   0  0  0  0  0  0  0  0  0  0  0  0
   17.2992   70.3756   -4.5604 O   0  0  0  0  0  0  0  0  0  0  0  0
   20.1991   69.6437   -4.3462 O   0  0  0  0  0  0  0  0  0  0  0  0
   20.1053   71.0187   -6.6993 O   0  0  0  0  0  0  0  0  0  0  0  0
   19.5902   70.9337   -4.3247 C   0  0  1  0  0  0  0  0  0  0  0  0
   19.1377   71.3248   -5.7161 C   0  0  2  0  0  0  0  0  0  0  0  0
   18.2657   70.8151   -3.5811 C   0  0  1  0  0  0  0  0  0  0  0  0
   17.8653   70.5098   -5.8743 C   0  0  2  0  0  0  0  0  0  0  0  0
   21.0469   69.6944   -4.8158 H   0  0  0  0  0  0  0  0  0  0  0  0
   20.8955   71.5626   -6.5560 H   0  0  0  0  0  0  0  0  0  0  0  0
   16.1129   69.1387   -7.6141 O   0  0  0  0  0  0  0  0  0  0  0  0
   14.2351   73.0700   -9.1172 O   0  0  0  0  0  0  0  0  0  0  0  0
   16.9078   71.1501   -6.7314 N   0  0  0  0  0  0  0  0  0  0  0  0
   15.1792   71.0973   -8.3610 N   0  0  0  0  0  0  0  0  0  0  0  0
   16.0757   70.3700   -7.5677 C   0  0  0  0  0  0  0  0  0  0  0  0
   16.8008   72.5367   -6.7369 C   0  0  0  0  0  0  0  0  0  0  0  0
   15.9416   73.2151   -7.5003 C   0  0  0  0  0  0  0  0  0  0  0  0
   15.0361   72.4751   -8.4028 C   0  0  0  0  0  0  0  0  0  0  0  0
   14.5896   70.5748   -8.9519 H   0  0  0  0  0  0  0  0  0  0  0  0
   19.8873   72.8392   -0.3031 O   0  0  0  0  0  0  0  0  0  0  0  0
   20.9657   71.7005   -0.6947 P   0  0  2  0  0  0  0  0  0  0  0  0
   21.8454   72.4060   -1.8549 O   0  0  0  0  0  0  0  0  0  0  0  0
   20.3569   70.3869   -1.0916 O   0  0  0  0  0  0  0  0  0  0  0  0
   21.9565   71.6215    0.5769 O   0  0  0  0  0  0  0  0  0  0  0  0
   21.9909   73.2026    2.3421 O   0  0  0  0  0  0  0  0  0  0  0  0
   25.9123   71.9222    2.5266 O   0  0  0  0  0  0  0  0  0  0  0  0
   24.0626   71.1251    4.5739 O   0  0  0  0  0  0  0  0  0  0  0  0
   24.6201   72.2511   -0.0427 O   0  0  0  0  0  0  0  0  0  0  0  0
   24.5045   71.7824    2.3170 C   0  0  1  0  0  0  0  0  0  0  0  0
   23.7873   72.1459    3.6187 C   0  0  1  0  0  0  0  0  0  0  0  0
   24.0730   72.7151    1.1869 C   0  0  2  0  0  0  0  0  0  0  0  0
   22.2743   72.2785    3.3992 C   0  0  1  0  0  0  0  0  0  0  0  0
   22.5498   72.8132    1.0860 C   0  0  1  0  0  0  0  0  0  0  0  0
   26.1928   71.3322    3.2427 H   0  0  0  0  0  0  0  0  0  0  0  0
   25.0213   71.0513    4.7029 H   0  0  0  0  0  0  0  0  0  0  0  0
   25.5848   72.1936    0.0340 H   0  0  0  0  0  0  0  0  0  0  0  0
   21.5521   71.7644    5.6180 O   0  0  0  0  0  0  0  0  0  0  0  0
   21.5585   72.7936    4.6459 C   0  0  0  0  0  0  0  0  0  0  0  0
   21.0999   72.0782    6.4173 H   0  0  0  0  0  0  0  0  0  0  0  0
 25 28  1  0
 25 24  1  0
 25 26  1  6
 25 27  2  0
  1  4  1  0
  1 24  1  0
  1  2  1  1
  1  3  2  0
  6 11  1  0
  6 12  1  0
 29 36  1  0
 29 37  1  0
  9  7  1  6
  7 13  1  0
 10  8  1  6
  8 14  1  0
 37 28  1  1
  4  5  1  0
 33 30  1  1
 30 38  1  0
 34 31  1  1
 31 39  1  0
 35 32  1  6
 32 40  1  0
 41 42  1  0
 41 43  1  0
 15 19  2  0
 16 22  2  0
 12 17  1  6
 17 19  1  0
 17 20  1  0
 18 19  1  0
 18 22  1  0
 18 23  1  0
  9 10  1  0
  9 11  1  0
 10 12  1  0
 11  5  1  6
 33 34  1  0
 33 35  1  0
 34 36  1  0
 35 37  1  0
 36 42  1  1
 20 21  2  0
 21 22  1  0
M  CHG  2   2  -1  26  -1
M  END
>  <COMPND>  (131) 
    8629 

>  <AUTHOR>  (131) 
    GENERATED BY OPEN BABEL 3.1.1

>  <MASTER>  (131) 
        0    0    0    0    0    0    0    0   58    0   58    0

>  <minimizedAffinity>  (131) 
-6.55635

>  <CNNscore>  (131) 
0.4196771681

>  <CNNaffinity>  (131) 
4.0699086189

>  <CNN_VS>  (131) 
1.7080477476

>  <CNNaffinity_variance>  (131) 
0.0158386491

$$$$
132
     RDKit          3D

 43 45  0  0  0  0  0  0  0  0999 V2000
   23.0979   72.2925   -3.1434 P   0  0  2  0  0  0  0  0  0  0  0  0
   24.1397   72.8283   -4.2592 O   0  0  0  0  0  0  0  0  0  0  0  0
   23.2071   70.8304   -2.8245 O   0  0  0  0  0  0  0  0  0  0  0  0
   21.6569   72.7872   -3.6881 O   0  0  0  0  0  0  0  0  0  0  0  0
   20.7167   71.8093   -4.0973 C   0  0  0  0  0  0  0  0  0  0  0  0
   19.6840   71.0089   -6.1139 O   0  0  0  0  0  0  0  0  0  0  0  0
   21.9630   72.3015   -7.5719 O   0  0  0  0  0  0  0  0  0  0  0  0
   19.9462   74.1073   -7.9010 O   0  0  0  0  0  0  0  0  0  0  0  0
   21.2794   72.7379   -6.3982 C   0  0  1  0  0  0  0  0  0  0  0  0
   19.9110   73.2785   -6.7570 C   0  0  2  0  0  0  0  0  0  0  0  0
   20.9284   71.5054   -5.5741 C   0  0  1  0  0  0  0  0  0  0  0  0
   19.1176   72.0029   -6.9834 C   0  0  2  0  0  0  0  0  0  0  0  0
   22.1978   73.0715   -8.1142 H   0  0  0  0  0  0  0  0  0  0  0  0
   20.4621   74.9053   -7.7067 H   0  0  0  0  0  0  0  0  0  0  0  0
   17.0389   70.4696   -8.1261 O   0  0  0  0  0  0  0  0  0  0  0  0
   13.8150   72.6948   -5.6979 O   0  0  0  0  0  0  0  0  0  0  0  0
   17.7259   72.1601   -6.6676 N   0  0  0  0  0  0  0  0  0  0  0  0
   15.4353   71.5787   -6.9160 N   0  0  0  0  0  0  0  0  0  0  0  0
   16.7615   71.3400   -7.2984 C   0  0  0  0  0  0  0  0  0  0  0  0
   17.3295   73.1188   -5.7416 C   0  0  0  0  0  0  0  0  0  0  0  0
   16.0605   73.3348   -5.3887 C   0  0  0  0  0  0  0  0  0  0  0  0
   14.9912   72.5204   -6.0013 C   0  0  0  0  0  0  0  0  0  0  0  0
   14.7462   71.0195   -7.3427 H   0  0  0  0  0  0  0  0  0  0  0  0
   23.3699   73.2765   -1.8901 O   0  0  0  0  0  0  0  0  0  0  0  0
   24.5814   73.3238   -0.8210 P   0  0  2  0  0  0  0  0  0  0  0  0
   25.0150   74.8825   -0.8202 O   0  0  0  0  0  0  0  0  0  0  0  0
   25.7018   72.3696   -1.1179 O   0  0  0  0  0  0  0  0  0  0  0  0
   23.8718   73.0974    0.6109 O   0  0  0  0  0  0  0  0  0  0  0  0
   23.6344   74.4212    2.5622 O   0  0  0  0  0  0  0  0  0  0  0  0
   24.5219   70.7958    4.3285 O   0  0  0  0  0  0  0  0  0  0  0  0
   21.8458   71.8277    4.4763 O   0  0  0  0  0  0  0  0  0  0  0  0
   25.8578   71.5754    1.8816 O   0  0  0  0  0  0  0  0  0  0  0  0
   23.9463   71.6596    3.3446 C   0  0  1  0  0  0  0  0  0  0  0  0
   22.9642   72.5992    4.0471 C   0  0  1  0  0  0  0  0  0  0  0  0
   25.0598   72.4553    2.6661 C   0  0  2  0  0  0  0  0  0  0  0  0
   22.5083   73.7255    3.1097 C   0  0  1  0  0  0  0  0  0  0  0  0
   24.4995   73.5813    1.7954 C   0  0  1  0  0  0  0  0  0  0  0  0
   23.8202   70.2874    4.7627 H   0  0  0  0  0  0  0  0  0  0  0  0
   22.1474   71.1198    5.0671 H   0  0  0  0  0  0  0  0  0  0  0  0
   26.2068   70.8672    2.4442 H   0  0  0  0  0  0  0  0  0  0  0  0
   20.3705   74.2072    4.0619 O   0  0  0  0  0  0  0  0  0  0  0  0
   21.6530   74.7622    3.8349 C   0  0  0  0  0  0  0  0  0  0  0  0
   19.8153   74.8558    4.5231 H   0  0  0  0  0  0  0  0  0  0  0  0
 25 28  1  0
 25 24  1  0
 25 26  1  1
 25 27  2  0
  1  4  1  0
  1 24  1  0
  1  2  1  6
  1  3  2  0
  6 11  1  0
  6 12  1  0
 29 36  1  0
 29 37  1  0
  9  7  1  6
  7 13  1  0
 10  8  1  6
  8 14  1  0
 37 28  1  6
  4  5  1  0
 33 30  1  1
 30 38  1  0
 34 31  1  6
 31 39  1  0
 35 32  1  6
 32 40  1  0
 41 42  1  0
 41 43  1  0
 15 19  2  0
 16 22  2  0
 12 17  1  1
 17 19  1  0
 17 20  1  0
 18 19  1  0
 18 22  1  0
 18 23  1  0
  9 10  1  0
  9 11  1  0
 10 12  1  0
 11  5  1  1
 33 34  1  0
 33 35  1  0
 34 36  1  0
 35 37  1  0
 36 42  1  1
 20 21  2  0
 21 22  1  0
M  CHG  2   2  -1  26  -1
M  END
>  <COMPND>  (132) 
    8629 

>  <AUTHOR>  (132) 
    GENERATED BY OPEN BABEL 3.1.1

>  <MASTER>  (132) 
        0    0    0    0    0    0    0    0   58    0   58    0

>  <minimizedAffinity>  (132) 
-6.43622

>  <CNNscore>  (132) 
0.4170086384

>  <CNNaffinity>  (132) 
4.1732759476

>  <CNN_VS>  (132) 
1.7402920723

>  <CNNaffinity_variance>  (132) 
0.0190401431

$$$$
133
     RDKit          3D

 43 45  0  0  0  0  0  0  0  0999 V2000
   20.9310   72.5406   -2.8368 P   0  0  2  0  0  0  0  0  0  0  0  0
   20.4268   71.8434   -1.4667 O   0  0  0  0  0  0  0  0  0  0  0  0
   20.9612   74.0405   -2.8108 O   0  0  0  0  0  0  0  0  0  0  0  0
   19.9957   71.8763   -3.9777 O   0  0  0  0  0  0  0  0  0  0  0  0
   20.1882   72.2719   -5.3247 C   0  0  0  0  0  0  0  0  0  0  0  0
   19.0324   70.5171   -6.4903 O   0  0  0  0  0  0  0  0  0  0  0  0
   21.5867   70.0946   -8.0028 O   0  0  0  0  0  0  0  0  0  0  0  0
   20.0781   71.5212   -9.7707 O   0  0  0  0  0  0  0  0  0  0  0  0
   21.0066   71.3106   -7.5336 C   0  0  1  0  0  0  0  0  0  0  0  0
   19.8189   71.6922   -8.3922 C   0  0  2  0  0  0  0  0  0  0  0  0
   20.3492   71.0284   -6.1884 C   0  0  1  0  0  0  0  0  0  0  0  0
   18.7431   70.7505   -7.8783 C   0  0  2  0  0  0  0  0  0  0  0  0
   22.0131   70.2499   -8.8607 H   0  0  0  0  0  0  0  0  0  0  0  0
   20.7690   72.1422  -10.0494 H   0  0  0  0  0  0  0  0  0  0  0  0
   16.3850   69.2277   -8.1919 O   0  0  0  0  0  0  0  0  0  0  0  0
   13.7440   73.0029   -8.3073 O   0  0  0  0  0  0  0  0  0  0  0  0
   17.4257   71.3096   -7.9925 N   0  0  0  0  0  0  0  0  0  0  0  0
   15.0719   71.1087   -8.2489 N   0  0  0  0  0  0  0  0  0  0  0  0
   16.3077   70.4572   -8.1478 C   0  0  0  0  0  0  0  0  0  0  0  0
   17.2520   72.6887   -7.9496 C   0  0  0  0  0  0  0  0  0  0  0  0
   16.0669   73.2943   -8.0488 C   0  0  0  0  0  0  0  0  0  0  0  0
   14.8482   72.4759   -8.2132 C   0  0  0  0  0  0  0  0  0  0  0  0
   14.2789   70.5351   -8.3581 H   0  0  0  0  0  0  0  0  0  0  0  0
   22.3667   71.8431   -3.0924 O   0  0  0  0  0  0  0  0  0  0  0  0
   23.8530   72.4731   -3.1764 P   0  0  2  0  0  0  0  0  0  0  0  0
   23.8224   73.3131   -4.5588 O   0  0  0  0  0  0  0  0  0  0  0  0
   24.9568   71.4590   -3.0923 O   0  0  0  0  0  0  0  0  0  0  0  0
   23.8868   73.5961   -2.0176 O   0  0  0  0  0  0  0  0  0  0  0  0
   25.1089   72.7397   -0.1766 O   0  0  0  0  0  0  0  0  0  0  0  0
   23.8581   76.3150    1.4675 O   0  0  0  0  0  0  0  0  0  0  0  0
   26.6129   75.9815    0.7275 O   0  0  0  0  0  0  0  0  0  0  0  0
   22.0774   74.8156   -0.2530 O   0  0  0  0  0  0  0  0  0  0  0  0
   24.3019   75.4465    0.4216 C   0  0  1  0  0  0  0  0  0  0  0  0
   25.6819   74.9054    0.8006 C   0  0  1  0  0  0  0  0  0  0  0  0
   23.3010   74.3034    0.2636 C   0  0  2  0  0  0  0  0  0  0  0  0
   26.1068   73.7665   -0.1361 C   0  0  1  0  0  0  0  0  0  0  0  0
   23.8417   73.2012   -0.6490 C   0  0  1  0  0  0  0  0  0  0  0  0
   24.4890   77.0433    1.5726 H   0  0  0  0  0  0  0  0  0  0  0  0
   26.3328   76.6941    1.3232 H   0  0  0  0  0  0  0  0  0  0  0  0
   21.7452   75.5122    0.3337 H   0  0  0  0  0  0  0  0  0  0  0  0
   27.7482   72.0970   -0.6129 O   0  0  0  0  0  0  0  0  0  0  0  0
   27.4071   73.1072    0.3184 C   0  0  0  0  0  0  0  0  0  0  0  0
   28.5741   71.6688   -0.3366 H   0  0  0  0  0  0  0  0  0  0  0  0
 25 28  1  0
 25 24  1  0
 25 26  1  6
 25 27  2  0
  1  4  1  0
  1 24  1  0
  1  2  1  1
  1  3  2  0
  6 11  1  0
  6 12  1  0
 29 36  1  0
 29 37  1  0
  9  7  1  6
  7 13  1  0
 10  8  1  6
  8 14  1  0
 37 28  1  6
  4  5  1  0
 33 30  1  1
 30 38  1  0
 34 31  1  6
 31 39  1  0
 35 32  1  6
 32 40  1  0
 41 42  1  0
 41 43  1  0
 15 19  2  0
 16 22  2  0
 12 17  1  1
 17 19  1  0
 17 20  1  0
 18 19  1  0
 18 22  1  0
 18 23  1  0
  9 10  1  0
  9 11  1  0
 10 12  1  0
 11  5  1  1
 33 34  1  0
 33 35  1  0
 34 36  1  0
 35 37  1  0
 36 42  1  1
 20 21  2  0
 21 22  1  0
M  CHG  2   2  -1  26  -1
M  END
>  <COMPND>  (133) 
    8629 

>  <AUTHOR>  (133) 
    GENERATED BY OPEN BABEL 3.1.1

>  <MASTER>  (133) 
        0    0    0    0    0    0    0    0   58    0   58    0

>  <minimizedAffinity>  (133) 
-6.58573

>  <CNNscore>  (133) 
0.3971997499

>  <CNNaffinity>  (133) 
4.2017750740

>  <CNN_VS>  (133) 
1.6689440012

>  <CNNaffinity_variance>  (133) 
0.0692142844

$$$$
134
     RDKit          3D

 43 45  0  0  0  0  0  0  0  0999 V2000
   21.7328   74.3356   -1.8384 P   0  0  2  0  0  0  0  0  0  0  0  0
   22.9670   75.1751   -2.4626 O   0  0  0  0  0  0  0  0  0  0  0  0
   20.7027   75.1600   -1.1238 O   0  0  0  0  0  0  0  0  0  0  0  0
   22.4520   73.1880   -0.9531 O   0  0  0  0  0  0  0  0  0  0  0  0
   21.9432   72.9140    0.3407 C   0  0  0  0  0  0  0  0  0  0  0  0
   24.0683   71.8167    0.5723 O   0  0  0  0  0  0  0  0  0  0  0  0
   22.8158   70.2731    2.8172 O   0  0  0  0  0  0  0  0  0  0  0  0
   24.2641   72.1704    4.1359 O   0  0  0  0  0  0  0  0  0  0  0  0
   22.6134   71.6323    2.4338 C   0  0  1  0  0  0  0  0  0  0  0  0
   23.8067   72.4747    2.8340 C   0  0  2  0  0  0  0  0  0  0  0  0
   22.6691   71.7041    0.9129 C   0  0  1  0  0  0  0  0  0  0  0  0
   24.8197   72.1165    1.7599 C   0  0  2  0  0  0  0  0  0  0  0  0
   22.7841   70.2021    3.7846 H   0  0  0  0  0  0  0  0  0  0  0  0
   23.5848   72.4164    4.7831 H   0  0  0  0  0  0  0  0  0  0  0  0
   27.4433   72.3070    2.7887 O   0  0  0  0  0  0  0  0  0  0  0  0
   28.2015   76.3003    0.6163 O   0  0  0  0  0  0  0  0  0  0  0  0
   25.7247   73.1951    1.4791 N   0  0  0  0  0  0  0  0  0  0  0  0
   27.8188   74.2951    1.7060 N   0  0  0  0  0  0  0  0  0  0  0  0
   27.0202   73.1960    2.0468 C   0  0  0  0  0  0  0  0  0  0  0  0
   25.3252   74.2367    0.6488 C   0  0  0  0  0  0  0  0  0  0  0  0
   26.0983   75.2783    0.3347 C   0  0  0  0  0  0  0  0  0  0  0  0
   27.4664   75.3556    0.8863 C   0  0  0  0  0  0  0  0  0  0  0  0
   28.7252   74.3173    2.0902 H   0  0  0  0  0  0  0  0  0  0  0  0
   21.1714   73.5135   -3.1119 O   0  0  0  0  0  0  0  0  0  0  0  0
   21.9275   72.5652   -4.1805 P   0  0  2  0  0  0  0  0  0  0  0  0
   22.0257   71.1449   -3.4119 O   0  0  0  0  0  0  0  0  0  0  0  0
   23.2454   73.1039   -4.6569 O   0  0  0  0  0  0  0  0  0  0  0  0
   20.8424   72.3216   -5.3501 O   0  0  0  0  0  0  0  0  0  0  0  0
   19.4078   70.4374   -5.4418 O   0  0  0  0  0  0  0  0  0  0  0  0
   19.5924   71.3228   -9.4708 O   0  0  0  0  0  0  0  0  0  0  0  0
   17.1827   71.8709   -8.0075 O   0  0  0  0  0  0  0  0  0  0  0  0
   21.9559   71.5978   -7.8222 O   0  0  0  0  0  0  0  0  0  0  0  0
   19.5603   71.6185   -8.0719 C   0  0  1  0  0  0  0  0  0  0  0  0
   18.2500   71.0768   -7.4971 C   0  0  1  0  0  0  0  0  0  0  0  0
   20.7589   70.9570   -7.3943 C   0  0  2  0  0  0  0  0  0  0  0  0
   18.2596   71.1169   -5.9630 C   0  0  1  0  0  0  0  0  0  0  0  0
   20.6455   71.0091   -5.8696 C   0  0  1  0  0  0  0  0  0  0  0  0
   18.8342   71.7403   -9.9071 H   0  0  0  0  0  0  0  0  0  0  0  0
   17.1882   71.8374   -8.9771 H   0  0  0  0  0  0  0  0  0  0  0  0
   22.0160   71.5578   -8.7890 H   0  0  0  0  0  0  0  0  0  0  0  0
   16.5414   69.4908   -6.2985 O   0  0  0  0  0  0  0  0  0  0  0  0
   17.0296   70.4371   -5.3655 C   0  0  0  0  0  0  0  0  0  0  0  0
   15.7586   69.0500   -5.9315 H   0  0  0  0  0  0  0  0  0  0  0  0
 25 28  1  0
 25 24  1  0
 25 26  1  1
 25 27  2  0
  1  4  1  0
  1 24  1  0
  1  2  1  6
  1  3  2  0
  6 11  1  0
  6 12  1  0
 29 36  1  0
 29 37  1  0
  9  7  1  6
  7 13  1  0
 10  8  1  1
  8 14  1  0
 37 28  1  6
  4  5  1  0
 33 30  1  6
 30 38  1  0
 34 31  1  6
 31 39  1  0
 35 32  1  1
 32 40  1  0
 41 42  1  0
 41 43  1  0
 15 19  2  0
 16 22  2  0
 12 17  1  6
 17 19  1  0
 17 20  1  0
 18 19  1  0
 18 22  1  0
 18 23  1  0
  9 10  1  0
  9 11  1  0
 10 12  1  0
 11  5  1  1
 33 34  1  0
 33 35  1  0
 34 36  1  0
 35 37  1  0
 36 42  1  1
 20 21  2  0
 21 22  1  0
M  CHG  2   2  -1  26  -1
M  END
>  <COMPND>  (134) 
    8629 

>  <AUTHOR>  (134) 
    GENERATED BY OPEN BABEL 3.1.1

>  <MASTER>  (134) 
        0    0    0    0    0    0    0    0   58    0   58    0

>  <minimizedAffinity>  (134) 
-6.54517

>  <CNNscore>  (134) 
0.3857702315

>  <CNNaffinity>  (134) 
4.0114927292

>  <CNN_VS>  (134) 
1.5475144386

>  <CNNaffinity_variance>  (134) 
0.2040019482

$$$$
135
     RDKit          3D

 43 45  0  0  0  0  0  0  0  0999 V2000
   22.1365   72.9355   -4.7119 P   0  0  2  0  0  0  0  0  0  0  0  0
   23.7443   72.8737   -4.5424 O   0  0  0  0  0  0  0  0  0  0  0  0
   21.5017   74.2215   -4.2706 O   0  0  0  0  0  0  0  0  0  0  0  0
   21.6152   71.6006   -3.9607 O   0  0  0  0  0  0  0  0  0  0  0  0
   22.2350   71.2240   -2.7434 C   0  0  0  0  0  0  0  0  0  0  0  0
   21.8191   70.7073   -0.4339 O   0  0  0  0  0  0  0  0  0  0  0  0
   19.2393   72.2007   -0.7584 O   0  0  0  0  0  0  0  0  0  0  0  0
   20.8282   74.0255    0.4994 O   0  0  0  0  0  0  0  0  0  0  0  0
   20.5148   72.4663   -1.3396 C   0  0  1  0  0  0  0  0  0  0  0  0
   21.4547   73.0455   -0.3030 C   0  0  2  0  0  0  0  0  0  0  0  0
   21.1741   71.1296   -1.6554 C   0  0  1  0  0  0  0  0  0  0  0  0
   21.8524   71.8101    0.4868 C   0  0  2  0  0  0  0  0  0  0  0  0
   18.7988   73.0396   -0.5484 H   0  0  0  0  0  0  0  0  0  0  0  0
   20.5945   74.7910   -0.0484 H   0  0  0  0  0  0  0  0  0  0  0  0
   22.7779   70.3215    2.7017 O   0  0  0  0  0  0  0  0  0  0  0  0
   26.9374   72.2984    2.5249 O   0  0  0  0  0  0  0  0  0  0  0  0
   23.1730   71.9156    1.0404 N   0  0  0  0  0  0  0  0  0  0  0  0
   24.8483   71.3069    2.6117 N   0  0  0  0  0  0  0  0  0  0  0  0
   23.5371   71.1238    2.1544 C   0  0  0  0  0  0  0  0  0  0  0  0
   24.0913   72.7963    0.4792 C   0  0  0  0  0  0  0  0  0  0  0  0
   25.3375   72.9600    0.9280 C   0  0  0  0  0  0  0  0  0  0  0  0
   25.7976   72.1705    2.0886 C   0  0  0  0  0  0  0  0  0  0  0  0
   25.1242   70.7662    3.3871 H   0  0  0  0  0  0  0  0  0  0  0  0
   21.9218   72.5806   -6.2742 O   0  0  0  0  0  0  0  0  0  0  0  0
   21.0120   73.2874   -7.4080 P   0  0  2  0  0  0  0  0  0  0  0  0
   21.4216   72.4965   -8.7587 O   0  0  0  0  0  0  0  0  0  0  0  0
   21.1770   74.7775   -7.4888 O   0  0  0  0  0  0  0  0  0  0  0  0
   19.5077   72.7974   -7.0889 O   0  0  0  0  0  0  0  0  0  0  0  0
   18.9009   70.9316   -5.7595 O   0  0  0  0  0  0  0  0  0  0  0  0
   15.7004   70.9515   -8.3685 O   0  0  0  0  0  0  0  0  0  0  0  0
   15.3171   71.7875   -5.6478 O   0  0  0  0  0  0  0  0  0  0  0  0
   18.3566   71.5738   -9.3367 O   0  0  0  0  0  0  0  0  0  0  0  0
   16.7281   71.5344   -7.5625 C   0  0  1  0  0  0  0  0  0  0  0  0
   16.4894   71.1215   -6.1088 C   0  0  1  0  0  0  0  0  0  0  0  0
   18.0872   71.0336   -8.0475 C   0  0  2  0  0  0  0  0  0  0  0  0
   17.6914   71.4830   -5.2258 C   0  0  1  0  0  0  0  0  0  0  0  0
   19.2064   71.4044   -7.0729 C   0  0  1  0  0  0  0  0  0  0  0  0
   14.8348   71.2659   -8.0661 H   0  0  0  0  0  0  0  0  0  0  0  0
   14.5657   71.5511   -6.2142 H   0  0  0  0  0  0  0  0  0  0  0  0
   17.6411   71.3318   -9.9445 H   0  0  0  0  0  0  0  0  0  0  0  0
   16.6300   69.8576   -3.8327 O   0  0  0  0  0  0  0  0  0  0  0  0
   17.5420   70.9402   -3.8063 C   0  0  0  0  0  0  0  0  0  0  0  0
   16.5253   69.5019   -2.9360 H   0  0  0  0  0  0  0  0  0  0  0  0
 25 28  1  0
 25 24  1  0
 25 26  1  6
 25 27  2  0
  1  4  1  0
  1 24  1  0
  1  2  1  6
  1  3  2  0
  6 11  1  0
  6 12  1  0
 29 36  1  0
 29 37  1  0
  9  7  1  1
  7 13  1  0
 10  8  1  1
  8 14  1  0
 37 28  1  1
  4  5  1  0
 33 30  1  6
 30 38  1  0
 34 31  1  1
 31 39  1  0
 35 32  1  6
 32 40  1  0
 41 42  1  0
 41 43  1  0
 15 19  2  0
 16 22  2  0
 12 17  1  6
 17 19  1  0
 17 20  1  0
 18 19  1  0
 18 22  1  0
 18 23  1  0
  9 10  1  0
  9 11  1  0
 10 12  1  0
 11  5  1  6
 33 34  1  0
 33 35  1  0
 34 36  1  0
 35 37  1  0
 36 42  1  1
 20 21  2  0
 21 22  1  0
M  CHG  2   2  -1  26  -1
M  END
>  <COMPND>  (135) 
    8629 

>  <AUTHOR>  (135) 
    GENERATED BY OPEN BABEL 3.1.1

>  <MASTER>  (135) 
        0    0    0    0    0    0    0    0   58    0   58    0

>  <minimizedAffinity>  (135) 
-7.66617

>  <CNNscore>  (135) 
0.3596090376

>  <CNNaffinity>  (135) 
4.1330351830

>  <CNN_VS>  (135) 
1.4862767458

>  <CNNaffinity_variance>  (135) 
0.0898079723

$$$$
136
     RDKit          3D

 43 45  0  0  0  0  0  0  0  0999 V2000
   23.4137   71.9439   -2.7876 P   0  0  2  0  0  0  0  0  0  0  0  0
   23.7535   70.3892   -2.4965 O   0  0  0  0  0  0  0  0  0  0  0  0
   24.0422   72.5087   -4.0275 O   0  0  0  0  0  0  0  0  0  0  0  0
   23.7953   72.6905   -1.4038 O   0  0  0  0  0  0  0  0  0  0  0  0
   22.8908   72.6030   -0.3166 C   0  0  0  0  0  0  0  0  0  0  0  0
   24.4125   72.6012    1.5430 O   0  0  0  0  0  0  0  0  0  0  0  0
   23.0650   70.0641    2.4023 O   0  0  0  0  0  0  0  0  0  0  0  0
   21.9250   71.9257    4.0368 O   0  0  0  0  0  0  0  0  0  0  0  0
   22.5022   71.2196    1.7830 C   0  0  1  0  0  0  0  0  0  0  0  0
   22.4057   72.3559    2.7795 C   0  0  2  0  0  0  0  0  0  0  0  0
   23.5184   71.7583    0.7837 C   0  0  1  0  0  0  0  0  0  0  0  0
   23.8426   72.8455    2.8393 C   0  0  2  0  0  0  0  0  0  0  0  0
   22.4339   69.7020    3.0446 H   0  0  0  0  0  0  0  0  0  0  0  0
   21.0077   71.6240    3.9464 H   0  0  0  0  0  0  0  0  0  0  0  0
   23.8884   73.9342    5.4451 O   0  0  0  0  0  0  0  0  0  0  0  0
   24.1841   78.2433    3.8374 O   0  0  0  0  0  0  0  0  0  0  0  0
   23.9315   74.2486    3.1307 N   0  0  0  0  0  0  0  0  0  0  0  0
   24.0358   76.0789    4.6425 N   0  0  0  0  0  0  0  0  0  0  0  0
   23.9463   74.6913    4.4740 C   0  0  0  0  0  0  0  0  0  0  0  0
   24.0031   75.1692    2.0909 C   0  0  0  0  0  0  0  0  0  0  0  0
   24.0867   76.4893    2.2684 C   0  0  0  0  0  0  0  0  0  0  0  0
   24.1080   77.0344    3.6412 C   0  0  0  0  0  0  0  0  0  0  0  0
   24.0474   76.4105    5.5697 H   0  0  0  0  0  0  0  0  0  0  0  0
   21.7975   71.9702   -2.7808 O   0  0  0  0  0  0  0  0  0  0  0  0
   20.7540   73.1698   -3.0726 P   0  0  2  0  0  0  0  0  0  0  0  0
   21.7106   74.3886   -3.5384 O   0  0  0  0  0  0  0  0  0  0  0  0
   19.8532   73.4965   -1.9168 O   0  0  0  0  0  0  0  0  0  0  0  0
   19.9814   72.7213   -4.4168 O   0  0  0  0  0  0  0  0  0  0  0  0
   19.3602   70.6652   -5.4183 O   0  0  0  0  0  0  0  0  0  0  0  0
   20.9074   72.5745   -8.7366 O   0  0  0  0  0  0  0  0  0  0  0  0
   18.0683   72.2070   -8.5074 O   0  0  0  0  0  0  0  0  0  0  0  0
   22.1757   72.9089   -6.1561 O   0  0  0  0  0  0  0  0  0  0  0  0
   20.2142   72.4872   -7.4888 C   0  0  1  0  0  0  0  0  0  0  0  0
   19.0169   71.5521   -7.6697 C   0  0  1  0  0  0  0  0  0  0  0  0
   21.1663   71.9421   -6.4259 C   0  0  2  0  0  0  0  0  0  0  0  0
   18.3815   71.1977   -6.3185 C   0  0  1  0  0  0  0  0  0  0  0  0
   20.4256   71.5755   -5.1386 C   0  0  1  0  0  0  0  0  0  0  0  0
   20.3086   72.9205   -9.4158 H   0  0  0  0  0  0  0  0  0  0  0  0
   18.4823   72.4257   -9.3571 H   0  0  0  0  0  0  0  0  0  0  0  0
   22.6374   73.1324   -6.9787 H   0  0  0  0  0  0  0  0  0  0  0  0
   16.6852   69.9459   -5.1939 O   0  0  0  0  0  0  0  0  0  0  0  0
   17.2858   70.1435   -6.4606 C   0  0  0  0  0  0  0  0  0  0  0  0
   15.9856   69.2777   -5.2692 H   0  0  0  0  0  0  0  0  0  0  0  0
 25 28  1  0
 25 24  1  0
 25 26  1  6
 25 27  2  0
  1  4  1  0
  1 24  1  0
  1  2  1  1
  1  3  2  0
  6 11  1  0
  6 12  1  0
 29 36  1  0
 29 37  1  0
  9  7  1  1
  7 13  1  0
 10  8  1  1
  8 14  1  0
 37 28  1  6
  4  5  1  0
 33 30  1  6
 30 38  1  0
 34 31  1  6
 31 39  1  0
 35 32  1  1
 32 40  1  0
 41 42  1  0
 41 43  1  0
 15 19  2  0
 16 22  2  0
 12 17  1  6
 17 19  1  0
 17 20  1  0
 18 19  1  0
 18 22  1  0
 18 23  1  0
  9 10  1  0
  9 11  1  0
 10 12  1  0
 11  5  1  6
 33 34  1  0
 33 35  1  0
 34 36  1  0
 35 37  1  0
 36 42  1  6
 20 21  2  0
 21 22  1  0
M  CHG  2   2  -1  26  -1
M  END
>  <COMPND>  (136) 
    8629 

>  <AUTHOR>  (136) 
    GENERATED BY OPEN BABEL 3.1.1

>  <MASTER>  (136) 
        0    0    0    0    0    0    0    0   58    0   58    0

>  <minimizedAffinity>  (136) 
-6.33683

>  <CNNscore>  (136) 
0.3580166399

>  <CNNaffinity>  (136) 
3.8557887077

>  <CNN_VS>  (136) 
1.3804365396

>  <CNNaffinity_variance>  (136) 
0.2753383517

$$$$
137
     RDKit          3D

 43 45  0  0  0  0  0  0  0  0999 V2000
   21.6628   73.8356   -4.8579 P   0  0  2  0  0  0  0  0  0  0  0  0
   22.9912   72.9315   -5.0460 O   0  0  0  0  0  0  0  0  0  0  0  0
   21.8377   75.2922   -5.1729 O   0  0  0  0  0  0  0  0  0  0  0  0
   21.1715   73.4959   -3.3542 O   0  0  0  0  0  0  0  0  0  0  0  0
   21.8261   72.4567   -2.6476 C   0  0  0  0  0  0  0  0  0  0  0  0
   21.6694   71.1851   -0.6148 O   0  0  0  0  0  0  0  0  0  0  0  0
   18.9614   72.4251   -0.2683 O   0  0  0  0  0  0  0  0  0  0  0  0
   20.5128   73.9048    1.4170 O   0  0  0  0  0  0  0  0  0  0  0  0
   20.1522   72.9952   -0.8087 C   0  0  1  0  0  0  0  0  0  0  0  0
   21.1365   73.3056    0.2996 C   0  0  2  0  0  0  0  0  0  0  0  0
   20.8821   71.9074   -1.5868 C   0  0  1  0  0  0  0  0  0  0  0  0
   21.7019   71.9308    0.6131 C   0  0  2  0  0  0  0  0  0  0  0  0
   18.4780   73.1012    0.2329 H   0  0  0  0  0  0  0  0  0  0  0  0
   20.1696   74.7768    1.1669 H   0  0  0  0  0  0  0  0  0  0  0  0
   22.7598   70.2672    2.6358 O   0  0  0  0  0  0  0  0  0  0  0  0
   26.9106   72.2498    2.3503 O   0  0  0  0  0  0  0  0  0  0  0  0
   23.0560   71.9904    1.0867 N   0  0  0  0  0  0  0  0  0  0  0  0
   24.8257   71.2556    2.4919 N   0  0  0  0  0  0  0  0  0  0  0  0
   23.4867   71.1109    2.1071 C   0  0  0  0  0  0  0  0  0  0  0  0
   23.9413   72.9132    0.5402 C   0  0  0  0  0  0  0  0  0  0  0  0
   25.2148   73.0395    0.9191 C   0  0  0  0  0  0  0  0  0  0  0  0
   25.7443   72.1583    1.9798 C   0  0  0  0  0  0  0  0  0  0  0  0
   25.1479   70.6537    3.2015 H   0  0  0  0  0  0  0  0  0  0  0  0
   20.5722   73.0748   -5.7771 O   0  0  0  0  0  0  0  0  0  0  0  0
   20.6734   71.7061   -6.6310 P   0  0  2  0  0  0  0  0  0  0  0  0
   20.8795   70.5737   -5.4940 O   0  0  0  0  0  0  0  0  0  0  0  0
   21.7360   71.7195   -7.6915 O   0  0  0  0  0  0  0  0  0  0  0  0
   19.1779   71.4592   -7.1858 O   0  0  0  0  0  0  0  0  0  0  0  0
   17.1420   72.6706   -7.1220 O   0  0  0  0  0  0  0  0  0  0  0  0
   15.7059   68.9164   -6.1763 O   0  0  0  0  0  0  0  0  0  0  0  0
   15.1632   70.0310   -8.7669 O   0  0  0  0  0  0  0  0  0  0  0  0
   18.2554   69.7945   -5.1235 O   0  0  0  0  0  0  0  0  0  0  0  0
   16.5595   69.8577   -6.8327 C   0  0  1  0  0  0  0  0  0  0  0  0
   15.6873   70.7872   -7.6789 C   0  0  1  0  0  0  0  0  0  0  0  0
   17.3285   70.6531   -5.7795 C   0  0  2  0  0  0  0  0  0  0  0  0
   16.4956   71.9832   -8.1997 C   0  0  1  0  0  0  0  0  0  0  0  0
   18.0576   71.8485   -6.3955 C   0  0  1  0  0  0  0  0  0  0  0  0
   15.2150   68.4077   -6.8395 H   0  0  0  0  0  0  0  0  0  0  0  0
   14.6555   69.2786   -8.4245 H   0  0  0  0  0  0  0  0  0  0  0  0
   17.7815   69.0420   -4.7375 H   0  0  0  0  0  0  0  0  0  0  0  0
   14.2629   72.7524   -8.5637 O   0  0  0  0  0  0  0  0  0  0  0  0
   15.6116   73.0037   -8.9133 C   0  0  0  0  0  0  0  0  0  0  0  0
   13.6887   73.3946   -9.0104 H   0  0  0  0  0  0  0  0  0  0  0  0
 25 28  1  0
 25 24  1  0
 25 26  1  1
 25 27  2  0
  1  4  1  0
  1 24  1  0
  1  2  1  1
  1  3  2  0
  6 11  1  0
  6 12  1  0
 29 36  1  0
 29 37  1  0
  9  7  1  1
  7 13  1  0
 10  8  1  1
  8 14  1  0
 37 28  1  6
  4  5  1  0
 33 30  1  1
 30 38  1  0
 34 31  1  6
 31 39  1  0
 35 32  1  6
 32 40  1  0
 41 42  1  0
 41 43  1  0
 15 19  2  0
 16 22  2  0
 12 17  1  6
 17 19  1  0
 17 20  1  0
 18 19  1  0
 18 22  1  0
 18 23  1  0
  9 10  1  0
  9 11  1  0
 10 12  1  0
 11  5  1  6
 33 34  1  0
 33 35  1  0
 34 36  1  0
 35 37  1  0
 36 42  1  1
 20 21  2  0
 21 22  1  0
M  CHG  2   2  -1  26  -1
M  END
>  <COMPND>  (137) 
    8629 

>  <AUTHOR>  (137) 
    GENERATED BY OPEN BABEL 3.1.1

>  <MASTER>  (137) 
        0    0    0    0    0    0    0    0   58    0   58    0

>  <minimizedAffinity>  (137) 
-7.68539

>  <CNNscore>  (137) 
0.3458495438

>  <CNNaffinity>  (137) 
4.0714502335

>  <CNN_VS>  (137) 
1.4081091881

>  <CNNaffinity_variance>  (137) 
0.0773579776

$$$$
138
     RDKit          3D

 43 45  0  0  0  0  0  0  0  0999 V2000
   23.6775   72.4348   -3.3195 P   0  0  2  0  0  0  0  0  0  0  0  0
   23.7979   73.8799   -2.6022 O   0  0  0  0  0  0  0  0  0  0  0  0
   24.9375   71.6200   -3.3190 O   0  0  0  0  0  0  0  0  0  0  0  0
   23.0609   72.7744   -4.7764 O   0  0  0  0  0  0  0  0  0  0  0  0
   21.6683   72.6065   -4.9770 C   0  0  0  0  0  0  0  0  0  0  0  0
   20.4900   70.9621   -6.2736 O   0  0  0  0  0  0  0  0  0  0  0  0
   21.1154   72.6675   -8.6593 O   0  0  0  0  0  0  0  0  0  0  0  0
   18.5206   73.3168   -8.1283 O   0  0  0  0  0  0  0  0  0  0  0  0
   20.8013   73.0629   -7.3250 C   0  0  1  0  0  0  0  0  0  0  0  0
   19.3236   72.8718   -7.0541 C   0  0  2  0  0  0  0  0  0  0  0  0
   21.4321   72.0522   -6.3753 C   0  0  1  0  0  0  0  0  0  0  0  0
   19.2340   71.3704   -6.8400 C   0  0  2  0  0  0  0  0  0  0  0  0
   20.7234   73.2983   -9.2841 H   0  0  0  0  0  0  0  0  0  0  0  0
   18.6118   74.2777   -8.2240 H   0  0  0  0  0  0  0  0  0  0  0  0
   16.6050   70.7226   -7.6441 O   0  0  0  0  0  0  0  0  0  0  0  0
   15.2585   69.9955   -3.2968 O   0  0  0  0  0  0  0  0  0  0  0  0
   18.1764   71.0077   -5.9393 N   0  0  0  0  0  0  0  0  0  0  0  0
   15.9368   70.3609   -5.4788 N   0  0  0  0  0  0  0  0  0  0  0  0
   16.8916   70.7016   -6.4454 C   0  0  0  0  0  0  0  0  0  0  0  0
   18.4183   70.9579   -4.5707 C   0  0  0  0  0  0  0  0  0  0  0  0
   17.4965   70.6324   -3.6621 C   0  0  0  0  0  0  0  0  0  0  0  0
   16.1283   70.2986   -4.1077 C   0  0  0  0  0  0  0  0  0  0  0  0
   15.0344   70.1441   -5.8081 H   0  0  0  0  0  0  0  0  0  0  0  0
   22.4328   71.7492   -2.5490 O   0  0  0  0  0  0  0  0  0  0  0  0
   21.7937   72.0423   -1.0935 P   0  0  2  0  0  0  0  0  0  0  0  0
   20.8847   70.7328   -0.8168 O   0  0  0  0  0  0  0  0  0  0  0  0
   21.0505   73.3433   -0.9984 O   0  0  0  0  0  0  0  0  0  0  0  0
   23.0322   71.9030   -0.0680 O   0  0  0  0  0  0  0  0  0  0  0  0
   22.9257   73.4167    1.7524 O   0  0  0  0  0  0  0  0  0  0  0  0
   26.8111   72.0984    2.2171 O   0  0  0  0  0  0  0  0  0  0  0  0
   24.7916   71.2406    4.0701 O   0  0  0  0  0  0  0  0  0  0  0  0
   25.7417   72.5334   -0.4375 O   0  0  0  0  0  0  0  0  0  0  0  0
   25.4253   71.9780    1.8848 C   0  0  1  0  0  0  0  0  0  0  0  0
   24.6029   72.2985    3.1344 C   0  0  1  0  0  0  0  0  0  0  0  0
   25.0953   72.9557    0.7585 C   0  0  2  0  0  0  0  0  0  0  0  0
   23.1144   72.4515    2.7938 C   0  0  1  0  0  0  0  0  0  0  0  0
   23.5865   73.0700    0.5338 C   0  0  1  0  0  0  0  0  0  0  0  0
   27.0274   71.4798    2.9313 H   0  0  0  0  0  0  0  0  0  0  0  0
   25.7356   71.1542    4.2763 H   0  0  0  0  0  0  0  0  0  0  0  0
   26.6962   72.4652   -0.2822 H   0  0  0  0  0  0  0  0  0  0  0  0
   22.0273   71.8097    4.8224 O   0  0  0  0  0  0  0  0  0  0  0  0
   22.2987   72.9257    3.9946 C   0  0  0  0  0  0  0  0  0  0  0  0
   21.5089   72.0965    5.5910 H   0  0  0  0  0  0  0  0  0  0  0  0
 25 28  1  0
 25 24  1  0
 25 26  1  1
 25 27  2  0
  1  4  1  0
  1 24  1  0
  1  2  1  1
  1  3  2  0
  6 11  1  0
  6 12  1  0
 29 36  1  0
 29 37  1  0
  9  7  1  6
  7 13  1  0
 10  8  1  6
  8 14  1  0
 37 28  1  1
  4  5  1  0
 33 30  1  1
 30 38  1  0
 34 31  1  1
 31 39  1  0
 35 32  1  6
 32 40  1  0
 41 42  1  0
 41 43  1  0
 15 19  2  0
 16 22  2  0
 12 17  1  1
 17 19  1  0
 17 20  1  0
 18 19  1  0
 18 22  1  0
 18 23  1  0
  9 10  1  0
  9 11  1  0
 10 12  1  0
 11  5  1  1
 33 34  1  0
 33 35  1  0
 34 36  1  0
 35 37  1  0
 36 42  1  1
 20 21  2  0
 21 22  1  0
M  CHG  2   2  -1  26  -1
M  END
>  <COMPND>  (138) 
    8629 

>  <AUTHOR>  (138) 
    GENERATED BY OPEN BABEL 3.1.1

>  <MASTER>  (138) 
        0    0    0    0    0    0    0    0   58    0   58    0

>  <minimizedAffinity>  (138) 
-7.09617

>  <CNNscore>  (138) 
0.3228078187

>  <CNNaffinity>  (138) 
4.0335378647

>  <CNN_VS>  (138) 
1.3020575047

>  <CNNaffinity_variance>  (138) 
0.1090863943

$$$$
139
     RDKit          3D

 43 45  0  0  0  0  0  0  0  0999 V2000
   18.1301   71.6301   -1.4144 P   0  0  2  0  0  0  0  0  0  0  0  0
   19.6017   72.0292   -0.8734 O   0  0  0  0  0  0  0  0  0  0  0  0
   17.1559   72.7682   -1.4990 O   0  0  0  0  0  0  0  0  0  0  0  0
   17.6887   70.3964   -0.4652 O   0  0  0  0  0  0  0  0  0  0  0  0
   16.3090   70.2009   -0.2084 C   0  0  0  0  0  0  0  0  0  0  0  0
   15.1165   68.1387   -0.5230 O   0  0  0  0  0  0  0  0  0  0  0  0
   14.5999   69.0817   -3.3221 O   0  0  0  0  0  0  0  0  0  0  0  0
   12.2402   69.6238   -2.0672 O   0  0  0  0  0  0  0  0  0  0  0  0
   14.6618   69.8362   -2.1128 C   0  0  1  0  0  0  0  0  0  0  0  0
   13.4160   69.6038   -1.2837 C   0  0  2  0  0  0  0  0  0  0  0  0
   15.7470   69.2263   -1.2343 C   0  0  1  0  0  0  0  0  0  0  0  0
   13.6913   68.2382   -0.6773 C   0  0  2  0  0  0  0  0  0  0  0  0
   13.9138   69.4527   -3.8997 H   0  0  0  0  0  0  0  0  0  0  0  0
   12.1087   70.5134   -2.4306 H   0  0  0  0  0  0  0  0  0  0  0  0
   10.9896   67.5100   -0.2920 O   0  0  0  0  0  0  0  0  0  0  0  0
   11.4183   67.6391    4.2950 O   0  0  0  0  0  0  0  0  0  0  0  0
   13.0707   68.0740    0.6069 N   0  0  0  0  0  0  0  0  0  0  0  0
   11.2053   67.5747    1.9917 N   0  0  0  0  0  0  0  0  0  0  0  0
   11.7072   67.7073    0.6907 C   0  0  0  0  0  0  0  0  0  0  0  0
   13.8123   68.2758    1.7659 C   0  0  0  0  0  0  0  0  0  0  0  0
   13.3184   68.1466    2.9990 C   0  0  0  0  0  0  0  0  0  0  0  0
   11.9020   67.7658    3.1744 C   0  0  0  0  0  0  0  0  0  0  0  0
   10.2576   67.3203    2.0746 H   0  0  0  0  0  0  0  0  0  0  0  0
   18.4452   70.9080   -2.8258 O   0  0  0  0  0  0  0  0  0  0  0  0
   19.2276   71.4371   -4.1376 P   0  0  2  0  0  0  0  0  0  0  0  0
   20.4374   70.3754   -4.3016 O   0  0  0  0  0  0  0  0  0  0  0  0
   19.6681   72.8700   -4.0552 O   0  0  0  0  0  0  0  0  0  0  0  0
   18.2317   71.1131   -5.3657 O   0  0  0  0  0  0  0  0  0  0  0  0
   16.8190   72.9963   -5.6386 O   0  0  0  0  0  0  0  0  0  0  0  0
   15.1902   70.5267   -8.5194 O   0  0  0  0  0  0  0  0  0  0  0  0
   16.7534   72.7993   -9.3190 O   0  0  0  0  0  0  0  0  0  0  0  0
   16.0929   69.4124   -6.0048 O   0  0  0  0  0  0  0  0  0  0  0  0
   16.2399   71.0893   -7.7275 C   0  0  1  0  0  0  0  0  0  0  0  0
   16.2833   72.5960   -7.9894 C   0  0  1  0  0  0  0  0  0  0  0  0
   15.9585   70.8077   -6.2528 C   0  0  2  0  0  0  0  0  0  0  0  0
   17.1994   73.3069   -6.9841 C   0  0  1  0  0  0  0  0  0  0  0  0
   16.8930   71.6013   -5.3379 C   0  0  1  0  0  0  0  0  0  0  0  0
   15.3631   70.7015   -9.4569 H   0  0  0  0  0  0  0  0  0  0  0  0
   16.1665   72.3450   -9.9438 H   0  0  0  0  0  0  0  0  0  0  0  0
   15.4961   68.9212   -6.5899 H   0  0  0  0  0  0  0  0  0  0  0  0
   17.9817   75.2136   -8.1930 O   0  0  0  0  0  0  0  0  0  0  0  0
   17.1351   74.8260   -7.1266 C   0  0  0  0  0  0  0  0  0  0  0  0
   17.9506   76.1781   -8.2955 H   0  0  0  0  0  0  0  0  0  0  0  0
 25 28  1  0
 25 24  1  0
 25 26  1  6
 25 27  2  0
  1  4  1  0
  1 24  1  0
  1  2  1  1
  1  3  2  0
  6 11  1  0
  6 12  1  0
 29 36  1  0
 29 37  1  0
  9  7  1  6
  7 13  1  0
 10  8  1  6
  8 14  1  0
 37 28  1  6
  4  5  1  0
 33 30  1  6
 30 38  1  0
 34 31  1  6
 31 39  1  0
 35 32  1  6
 32 40  1  0
 41 42  1  0
 41 43  1  0
 15 19  2  0
 16 22  2  0
 12 17  1  1
 17 19  1  0
 17 20  1  0
 18 19  1  0
 18 22  1  0
 18 23  1  0
  9 10  1  0
  9 11  1  0
 10 12  1  0
 11  5  1  1
 33 34  1  0
 33 35  1  0
 34 36  1  0
 35 37  1  0
 36 42  1  1
 20 21  2  0
 21 22  1  0
M  CHG  2   2  -1  26  -1
M  END
>  <COMPND>  (139) 
    8629 

>  <AUTHOR>  (139) 
    GENERATED BY OPEN BABEL 3.1.1

>  <MASTER>  (139) 
        0    0    0    0    0    0    0    0   58    0   58    0

>  <minimizedAffinity>  (139) 
-6.23540

>  <CNNscore>  (139) 
0.3202074170

>  <CNNaffinity>  (139) 
3.8884232044

>  <CNN_VS>  (139) 
1.2451019287

>  <CNNaffinity_variance>  (139) 
0.0812081918

$$$$
140
     RDKit          3D

 43 45  0  0  0  0  0  0  0  0999 V2000
   23.6698   72.7775   -3.6940 P   0  0  2  0  0  0  0  0  0  0  0  0
   24.8781   71.7126   -3.5410 O   0  0  0  0  0  0  0  0  0  0  0  0
   24.0893   74.1563   -4.1115 O   0  0  0  0  0  0  0  0  0  0  0  0
   22.8845   72.6791   -2.2828 O   0  0  0  0  0  0  0  0  0  0  0  0
   23.4753   71.9365   -1.2305 C   0  0  0  0  0  0  0  0  0  0  0  0
   23.3069   71.5321    1.1321 O   0  0  0  0  0  0  0  0  0  0  0  0
   20.8501   73.2497    1.0613 O   0  0  0  0  0  0  0  0  0  0  0  0
   22.7400   74.9554    2.0388 O   0  0  0  0  0  0  0  0  0  0  0  0
   22.0616   73.3768    0.3186 C   0  0  1  0  0  0  0  0  0  0  0  0
   23.1715   73.8969    1.2080 C   0  0  2  0  0  0  0  0  0  0  0  0
   22.5546   71.9752   -0.0186 C   0  0  1  0  0  0  0  0  0  0  0  0
   23.5532   72.6546    1.9948 C   0  0  2  0  0  0  0  0  0  0  0  0
   20.5159   74.1322    1.2879 H   0  0  0  0  0  0  0  0  0  0  0  0
   22.5088   75.7223    1.4918 H   0  0  0  0  0  0  0  0  0  0  0  0
   24.4726   72.3484    4.6478 O   0  0  0  0  0  0  0  0  0  0  0  0
   28.8835   72.6656    3.3499 O   0  0  0  0  0  0  0  0  0  0  0  0
   24.9366   72.6529    2.3787 N   0  0  0  0  0  0  0  0  0  0  0  0
   26.6682   72.5064    3.9994 N   0  0  0  0  0  0  0  0  0  0  0  0
   25.2921   72.4931    3.7383 C   0  0  0  0  0  0  0  0  0  0  0  0
   25.9242   72.8083    1.4120 C   0  0  0  0  0  0  0  0  0  0  0  0
   27.2321   72.8200    1.6776 C   0  0  0  0  0  0  0  0  0  0  0  0
   27.6880   72.6590    3.0734 C   0  0  0  0  0  0  0  0  0  0  0  0
   26.9394   72.3971    4.9397 H   0  0  0  0  0  0  0  0  0  0  0  0
   22.6636   72.0402   -4.7220 O   0  0  0  0  0  0  0  0  0  0  0  0
   21.4561   72.6214   -5.6260 P   0  0  2  0  0  0  0  0  0  0  0  0
   21.7605   72.0066   -7.0912 O   0  0  0  0  0  0  0  0  0  0  0  0
   21.3298   74.1171   -5.5961 O   0  0  0  0  0  0  0  0  0  0  0  0
   20.1458   71.8291   -5.1157 O   0  0  0  0  0  0  0  0  0  0  0  0
   18.3219   72.6391   -6.3939 O   0  0  0  0  0  0  0  0  0  0  0  0
   16.2898   70.0229   -3.9287 O   0  0  0  0  0  0  0  0  0  0  0  0
   16.6761   69.3543   -6.6949 O   0  0  0  0  0  0  0  0  0  0  0  0
   18.4755   71.5997   -2.8723 O   0  0  0  0  0  0  0  0  0  0  0  0
   17.3940   70.4833   -4.7123 C   0  0  1  0  0  0  0  0  0  0  0  0
   16.9199   70.6511   -6.1572 C   0  0  1  0  0  0  0  0  0  0  0  0
   17.8845   71.8159   -4.1492 C   0  0  2  0  0  0  0  0  0  0  0  0
   17.9661   71.3915   -7.0012 C   0  0  1  0  0  0  0  0  0  0  0  0
   18.8846   72.4923   -5.0887 C   0  0  1  0  0  0  0  0  0  0  0  0
   15.9739   69.1769   -4.2807 H   0  0  0  0  0  0  0  0  0  0  0  0
   16.0140   68.8973   -6.1526 H   0  0  0  0  0  0  0  0  0  0  0  0
   17.8324   71.1714   -2.2869 H   0  0  0  0  0  0  0  0  0  0  0  0
   16.0612   71.4360   -8.4427 O   0  0  0  0  0  0  0  0  0  0  0  0
   17.4498   71.7089   -8.4029 C   0  0  0  0  0  0  0  0  0  0  0  0
   15.7187   71.6337   -9.3289 H   0  0  0  0  0  0  0  0  0  0  0  0
 25 28  1  0
 25 24  1  0
 25 26  1  6
 25 27  2  0
  1  4  1  0
  1 24  1  0
  1  2  1  1
  1  3  2  0
  6 11  1  0
  6 12  1  0
 29 36  1  0
 29 37  1  0
  9  7  1  1
  7 13  1  0
 10  8  1  1
  8 14  1  0
 37 28  1  6
  4  5  1  0
 33 30  1  1
 30 38  1  0
 34 31  1  6
 31 39  1  0
 35 32  1  1
 32 40  1  0
 41 42  1  0
 41 43  1  0
 15 19  2  0
 16 22  2  0
 12 17  1  6
 17 19  1  0
 17 20  1  0
 18 19  1  0
 18 22  1  0
 18 23  1  0
  9 10  1  0
  9 11  1  0
 10 12  1  0
 11  5  1  6
 33 34  1  0
 33 35  1  0
 34 36  1  0
 35 37  1  0
 36 42  1  6
 20 21  2  0
 21 22  1  0
M  CHG  2   2  -1  26  -1
M  END
>  <COMPND>  (140) 
    8629 

>  <AUTHOR>  (140) 
    GENERATED BY OPEN BABEL 3.1.1

>  <MASTER>  (140) 
        0    0    0    0    0    0    0    0   58    0   58    0

>  <minimizedAffinity>  (140) 
-6.51102

>  <CNNscore>  (140) 
0.2926775813

>  <CNNaffinity>  (140) 
3.9348807335

>  <CNN_VS>  (140) 
1.1516513824

>  <CNNaffinity_variance>  (140) 
0.0955919921

$$$$
141
     RDKit          3D

 43 45  0  0  0  0  0  0  0  0999 V2000
   21.1183   71.6457   -1.3836 P   0  0  2  0  0  0  0  0  0  0  0  0
   20.3843   70.2259   -1.1330 O   0  0  0  0  0  0  0  0  0  0  0  0
   21.0929   72.5872   -0.2156 O   0  0  0  0  0  0  0  0  0  0  0  0
   20.4418   72.1976   -2.7458 O   0  0  0  0  0  0  0  0  0  0  0  0
   20.0434   71.2601   -3.7309 C   0  0  0  0  0  0  0  0  0  0  0  0
   20.4130   70.5701   -6.0027 O   0  0  0  0  0  0  0  0  0  0  0  0
   22.1149   73.0238   -6.2739 O   0  0  0  0  0  0  0  0  0  0  0  0
   19.7798   73.7863   -7.4581 O   0  0  0  0  0  0  0  0  0  0  0  0
   20.9133   72.8373   -5.5278 C   0  0  1  0  0  0  0  0  0  0  0  0
   19.7189   72.7900   -6.4578 C   0  0  2  0  0  0  0  0  0  0  0  0
   20.9291   71.4242   -4.9584 C   0  0  1  0  0  0  0  0  0  0  0  0
   19.8174   71.3844   -7.0260 C   0  0  2  0  0  0  0  0  0  0  0  0
   22.1277   73.9196   -6.6472 H   0  0  0  0  0  0  0  0  0  0  0  0
   19.7131   74.6621   -7.0467 H   0  0  0  0  0  0  0  0  0  0  0  0
   19.0882   70.5138   -9.6121 O   0  0  0  0  0  0  0  0  0  0  0  0
   14.8626   69.3150   -8.2162 O   0  0  0  0  0  0  0  0  0  0  0  0
   18.5332   70.8401   -7.3665 N   0  0  0  0  0  0  0  0  0  0  0  0
   16.9848   69.9174   -8.9149 N   0  0  0  0  0  0  0  0  0  0  0  0
   18.2683   70.4336   -8.6950 C   0  0  0  0  0  0  0  0  0  0  0  0
   17.5527   70.7136   -6.3885 C   0  0  0  0  0  0  0  0  0  0  0  0
   16.3333   70.2206   -6.6147 C   0  0  0  0  0  0  0  0  0  0  0  0
   15.9756   69.7728   -7.9762 C   0  0  0  0  0  0  0  0  0  0  0  0
   16.7775   69.6281   -9.8331 H   0  0  0  0  0  0  0  0  0  0  0  0
   22.5989   71.2096   -1.8641 O   0  0  0  0  0  0  0  0  0  0  0  0
   23.8993   72.0960   -2.2328 P   0  0  2  0  0  0  0  0  0  0  0  0
   23.3307   73.6106   -2.2237 O   0  0  0  0  0  0  0  0  0  0  0  0
   24.5743   71.6956   -3.5127 O   0  0  0  0  0  0  0  0  0  0  0  0
   24.8396   72.0058   -0.9241 O   0  0  0  0  0  0  0  0  0  0  0  0
   24.1266   73.5299    0.7448 O   0  0  0  0  0  0  0  0  0  0  0  0
   27.6834   72.3040    2.4470 O   0  0  0  0  0  0  0  0  0  0  0  0
   25.1938   71.4138    3.5683 O   0  0  0  0  0  0  0  0  0  0  0  0
   27.5120   72.6952   -0.4161 O   0  0  0  0  0  0  0  0  0  0  0  0
   26.4795   72.1496    1.6905 C   0  0  1  0  0  0  0  0  0  0  0  0
   25.2942   72.4603    2.6066 C   0  0  1  0  0  0  0  0  0  0  0  0
   26.5087   73.1113    0.5041 C   0  0  2  0  0  0  0  0  0  0  0  0
   23.9905   72.5769    1.8055 C   0  0  1  0  0  0  0  0  0  0  0  0
   25.1494   73.1895   -0.1932 C   0  0  1  0  0  0  0  0  0  0  0  0
   27.6714   71.6957    3.2016 H   0  0  0  0  0  0  0  0  0  0  0  0
   26.0235   71.3505    4.0670 H   0  0  0  0  0  0  0  0  0  0  0  0
   28.3677   72.6499    0.0374 H   0  0  0  0  0  0  0  0  0  0  0  0
   22.2221   71.9030    3.2641 O   0  0  0  0  0  0  0  0  0  0  0  0
   22.8243   73.0410    2.6753 C   0  0  0  0  0  0  0  0  0  0  0  0
   21.4783   72.1832    3.8208 H   0  0  0  0  0  0  0  0  0  0  0  0
 25 28  1  0
 25 24  1  0
 25 26  1  6
 25 27  2  0
  1  4  1  0
  1 24  1  0
  1  2  1  1
  1  3  2  0
  6 11  1  0
  6 12  1  0
 29 36  1  0
 29 37  1  0
  9  7  1  6
  7 13  1  0
 10  8  1  6
  8 14  1  0
 37 28  1  1
  4  5  1  0
 33 30  1  1
 30 38  1  0
 34 31  1  1
 31 39  1  0
 35 32  1  6
 32 40  1  0
 41 42  1  0
 41 43  1  0
 15 19  2  0
 16 22  2  0
 12 17  1  1
 17 19  1  0
 17 20  1  0
 18 19  1  0
 18 22  1  0
 18 23  1  0
  9 10  1  0
  9 11  1  0
 10 12  1  0
 11  5  1  1
 33 34  1  0
 33 35  1  0
 34 36  1  0
 35 37  1  0
 36 42  1  1
 20 21  2  0
 21 22  1  0
M  CHG  2   2  -1  26  -1
M  END
>  <COMPND>  (141) 
    8629 

>  <AUTHOR>  (141) 
    GENERATED BY OPEN BABEL 3.1.1

>  <MASTER>  (141) 
        0    0    0    0    0    0    0    0   58    0   58    0

>  <minimizedAffinity>  (141) 
-7.40397

>  <CNNscore>  (141) 
0.8212672472

>  <CNNaffinity>  (141) 
4.6269030571

>  <CNN_VS>  (141) 
3.7999238968

>  <CNNaffinity_variance>  (141) 
0.0849091709

$$$$
142
     RDKit          3D

 43 45  0  0  0  0  0  0  0  0999 V2000
   23.3628   72.2543   -3.4240 P   0  0  2  0  0  0  0  0  0  0  0  0
   24.0244   73.2925   -4.4737 O   0  0  0  0  0  0  0  0  0  0  0  0
   24.3238   71.2865   -2.7986 O   0  0  0  0  0  0  0  0  0  0  0  0
   22.1384   71.5939   -4.2503 O   0  0  0  0  0  0  0  0  0  0  0  0
   21.0916   72.4377   -4.6975 C   0  0  0  0  0  0  0  0  0  0  0  0
   20.8210   71.8464   -7.0106 O   0  0  0  0  0  0  0  0  0  0  0  0
   21.4141   74.7214   -7.6214 O   0  0  0  0  0  0  0  0  0  0  0  0
   18.6979   74.6156   -7.8391 O   0  0  0  0  0  0  0  0  0  0  0  0
   20.6926   74.1623   -6.5250 C   0  0  1  0  0  0  0  0  0  0  0  0
   19.3287   73.6872   -6.9807 C   0  0  2  0  0  0  0  0  0  0  0  0
   21.3708   72.8549   -6.1349 C   0  0  1  0  0  0  0  0  0  0  0  0
   19.6671   72.3813   -7.6794 C   0  0  2  0  0  0  0  0  0  0  0  0
   20.9998   75.5575   -7.8881 H   0  0  0  0  0  0  0  0  0  0  0  0
   18.5030   75.4293   -7.3484 H   0  0  0  0  0  0  0  0  0  0  0  0
   18.8481   70.7260   -9.8165 O   0  0  0  0  0  0  0  0  0  0  0  0
   15.5541   68.7533   -7.2672 O   0  0  0  0  0  0  0  0  0  0  0  0
   18.5983   71.4257   -7.6017 N   0  0  0  0  0  0  0  0  0  0  0  0
   17.2087   69.7449   -8.5453 N   0  0  0  0  0  0  0  0  0  0  0  0
   18.2659   70.6444   -8.7329 C   0  0  0  0  0  0  0  0  0  0  0  0
   17.8926   71.2704   -6.4136 C   0  0  0  0  0  0  0  0  0  0  0  0
   16.8861   70.4090   -6.2514 C   0  0  0  0  0  0  0  0  0  0  0  0
   16.4757   69.5549   -7.3846 C   0  0  0  0  0  0  0  0  0  0  0  0
   16.9592   69.1903   -9.3199 H   0  0  0  0  0  0  0  0  0  0  0  0
   22.6103   73.2276   -2.3755 O   0  0  0  0  0  0  0  0  0  0  0  0
   23.1915   74.3243   -1.3399 P   0  0  2  0  0  0  0  0  0  0  0  0
   21.9846   75.3948   -1.2170 O   0  0  0  0  0  0  0  0  0  0  0  0
   24.5079   74.9194   -1.7483 O   0  0  0  0  0  0  0  0  0  0  0  0
   23.2127   73.5686    0.0861 O   0  0  0  0  0  0  0  0  0  0  0  0
   25.2860   72.6169    0.7282 O   0  0  0  0  0  0  0  0  0  0  0  0
   22.8080   70.6531    3.3840 O   0  0  0  0  0  0  0  0  0  0  0  0
   24.5625   72.7153    4.3414 O   0  0  0  0  0  0  0  0  0  0  0  0
   21.9169   71.1501    0.6751 O   0  0  0  0  0  0  0  0  0  0  0  0
   23.2519   71.7542    2.5866 C   0  0  1  0  0  0  0  0  0  0  0  0
   24.6609   72.1389    3.0421 C   0  0  1  0  0  0  0  0  0  0  0  0
   23.2571   71.3365    1.1173 C   0  0  2  0  0  0  0  0  0  0  0  0
   25.3076   73.1302    2.0653 C   0  0  1  0  0  0  0  0  0  0  0  0
   23.9665   72.3687    0.2391 C   0  0  1  0  0  0  0  0  0  0  0  0
   22.8019   70.9119    4.3181 H   0  0  0  0  0  0  0  0  0  0  0  0
   24.1522   72.0794    4.9484 H   0  0  0  0  0  0  0  0  0  0  0  0
   21.4787   70.4943    1.2388 H   0  0  0  0  0  0  0  0  0  0  0  0
   27.2661   72.3123    3.1627 O   0  0  0  0  0  0  0  0  0  0  0  0
   26.7686   73.4059    2.4137 C   0  0  0  0  0  0  0  0  0  0  0  0
   28.1953   72.4737    3.3913 H   0  0  0  0  0  0  0  0  0  0  0  0
 25 28  1  0
 25 24  1  0
 25 26  1  1
 25 27  2  0
  1  4  1  0
  1 24  1  0
  1  2  1  6
  1  3  2  0
  6 11  1  0
  6 12  1  0
 29 36  1  0
 29 37  1  0
  9  7  1  6
  7 13  1  0
 10  8  1  6
  8 14  1  0
 37 28  1  1
  4  5  1  0
 33 30  1  1
 30 38  1  0
 34 31  1  1
 31 39  1  0
 35 32  1  6
 32 40  1  0
 41 42  1  0
 41 43  1  0
 15 19  2  0
 16 22  2  0
 12 17  1  1
 17 19  1  0
 17 20  1  0
 18 19  1  0
 18 22  1  0
 18 23  1  0
  9 10  1  0
  9 11  1  0
 10 12  1  0
 11  5  1  1
 33 34  1  0
 33 35  1  0
 34 36  1  0
 35 37  1  0
 36 42  1  1
 20 21  2  0
 21 22  1  0
M  CHG  2   2  -1  26  -1
M  END
>  <COMPND>  (142) 
    8629 

>  <AUTHOR>  (142) 
    GENERATED BY OPEN BABEL 3.1.1

>  <MASTER>  (142) 
        0    0    0    0    0    0    0    0   58    0   58    0

>  <minimizedAffinity>  (142) 
-7.34173

>  <CNNscore>  (142) 
0.7196411490

>  <CNNaffinity>  (142) 
4.3696098328

>  <CNN_VS>  (142) 
3.1445510387

>  <CNNaffinity_variance>  (142) 
0.0901101008

$$$$
143
     RDKit          3D

 43 45  0  0  0  0  0  0  0  0999 V2000
   23.5312   72.6842   -3.5008 P   0  0  2  0  0  0  0  0  0  0  0  0
   23.7644   74.1400   -4.1669 O   0  0  0  0  0  0  0  0  0  0  0  0
   24.7772   72.0001   -3.0203 O   0  0  0  0  0  0  0  0  0  0  0  0
   22.6730   71.8812   -4.6128 O   0  0  0  0  0  0  0  0  0  0  0  0
   21.4301   72.4209   -5.0271 C   0  0  0  0  0  0  0  0  0  0  0  0
   20.9416   71.8701   -7.3144 O   0  0  0  0  0  0  0  0  0  0  0  0
   21.3752   74.7765   -7.9110 O   0  0  0  0  0  0  0  0  0  0  0  0
   18.6559   74.5811   -7.8520 O   0  0  0  0  0  0  0  0  0  0  0  0
   20.7891   74.1693   -6.7607 C   0  0  1  0  0  0  0  0  0  0  0  0
   19.4015   73.6570   -7.0860 C   0  0  2  0  0  0  0  0  0  0  0  0
   21.5459   72.8782   -6.4747 C   0  0  1  0  0  0  0  0  0  0  0  0
   19.7081   72.3789   -7.8479 C   0  0  2  0  0  0  0  0  0  0  0  0
   20.9088   75.6032   -8.1131 H   0  0  0  0  0  0  0  0  0  0  0  0
   18.4864   75.3768   -7.3239 H   0  0  0  0  0  0  0  0  0  0  0  0
   18.6989   70.7700   -9.9386 O   0  0  0  0  0  0  0  0  0  0  0  0
   15.7806   68.6008   -7.1067 O   0  0  0  0  0  0  0  0  0  0  0  0
   18.6846   71.3853   -7.6851 N   0  0  0  0  0  0  0  0  0  0  0  0
   17.2467   69.6910   -8.5268 N   0  0  0  0  0  0  0  0  0  0  0  0
   18.2479   70.6319   -8.7996 C   0  0  0  0  0  0  0  0  0  0  0  0
   18.1251   71.1658   -6.4310 C   0  0  0  0  0  0  0  0  0  0  0  0
   17.1703   70.2656   -6.1878 C   0  0  0  0  0  0  0  0  0  0  0  0
   16.6581   69.4369   -7.2981 C   0  0  0  0  0  0  0  0  0  0  0  0
   16.9266   69.1548   -9.2882 H   0  0  0  0  0  0  0  0  0  0  0  0
   22.4401   72.9834   -2.3462 O   0  0  0  0  0  0  0  0  0  0  0  0
   21.9559   72.0931   -1.0869 P   0  0  2  0  0  0  0  0  0  0  0  0
   23.1606   72.2710   -0.0217 O   0  0  0  0  0  0  0  0  0  0  0  0
   21.6369   70.6664   -1.4283 O   0  0  0  0  0  0  0  0  0  0  0  0
   20.7243   72.9202   -0.4513 O   0  0  0  0  0  0  0  0  0  0  0  0
   19.0692   72.6787   -2.1302 O   0  0  0  0  0  0  0  0  0  0  0  0
   16.8172   74.6071    0.7440 O   0  0  0  0  0  0  0  0  0  0  0  0
   16.3670   71.8185    0.2251 O   0  0  0  0  0  0  0  0  0  0  0  0
   19.5809   75.3614    0.3289 O   0  0  0  0  0  0  0  0  0  0  0  0
   17.8246   73.7146    0.2602 C   0  0  1  0  0  0  0  0  0  0  0  0
   17.1489   72.6598   -0.6182 C   0  0  1  0  0  0  0  0  0  0  0  0
   18.8499   74.5093   -0.5464 C   0  0  2  0  0  0  0  0  0  0  0  0
   18.1873   71.8303   -1.3857 C   0  0  1  0  0  0  0  0  0  0  0  0
   19.8041   73.5891   -1.3098 C   0  0  1  0  0  0  0  0  0  0  0  0
   16.1632   74.1089    1.2574 H   0  0  0  0  0  0  0  0  0  0  0  0
   15.7157   72.3546    0.7043 H   0  0  0  0  0  0  0  0  0  0  0  0
   18.9657   75.9390    0.8061 H   0  0  0  0  0  0  0  0  0  0  0  0
   17.1198   69.7151   -1.6942 O   0  0  0  0  0  0  0  0  0  0  0  0
   17.5336   70.8791   -2.3857 C   0  0  0  0  0  0  0  0  0  0  0  0
   16.7016   69.1006   -2.3182 H   0  0  0  0  0  0  0  0  0  0  0  0
 25 28  1  0
 25 24  1  0
 25 26  1  1
 25 27  2  0
  1  4  1  0
  1 24  1  0
  1  2  1  6
  1  3  2  0
  6 11  1  0
  6 12  1  0
 29 36  1  0
 29 37  1  0
  9  7  1  6
  7 13  1  0
 10  8  1  6
  8 14  1  0
 37 28  1  1
  4  5  1  0
 33 30  1  6
 30 38  1  0
 34 31  1  1
 31 39  1  0
 35 32  1  1
 32 40  1  0
 41 42  1  0
 41 43  1  0
 15 19  2  0
 16 22  2  0
 12 17  1  1
 17 19  1  0
 17 20  1  0
 18 19  1  0
 18 22  1  0
 18 23  1  0
  9 10  1  0
  9 11  1  0
 10 12  1  0
 11  5  1  1
 33 34  1  0
 33 35  1  0
 34 36  1  0
 35 37  1  0
 36 42  1  6
 20 21  2  0
 21 22  1  0
M  CHG  2   2  -1  26  -1
M  END
>  <COMPND>  (143) 
    8629 

>  <AUTHOR>  (143) 
    GENERATED BY OPEN BABEL 3.1.1

>  <MASTER>  (143) 
        0    0    0    0    0    0    0    0   58    0   58    0

>  <minimizedAffinity>  (143) 
-6.14748

>  <CNNscore>  (143) 
0.6223803163

>  <CNNaffinity>  (143) 
4.1908617020

>  <CNN_VS>  (143) 
2.6083097458

>  <CNNaffinity_variance>  (143) 
0.2238870412

$$$$
144
     RDKit          3D

 43 45  0  0  0  0  0  0  0  0999 V2000
   20.3453   73.8364   -2.1466 P   0  0  2  0  0  0  0  0  0  0  0  0
   19.2296   72.6655   -2.1877 O   0  0  0  0  0  0  0  0  0  0  0  0
   19.8334   75.1854   -1.7345 O   0  0  0  0  0  0  0  0  0  0  0  0
   21.0384   73.7639   -3.6067 O   0  0  0  0  0  0  0  0  0  0  0  0
   20.6384   72.7347   -4.4947 C   0  0  0  0  0  0  0  0  0  0  0  0
   20.6819   72.0290   -6.7912 O   0  0  0  0  0  0  0  0  0  0  0  0
   21.4554   74.8504   -7.4485 O   0  0  0  0  0  0  0  0  0  0  0  0
   18.7964   74.8071   -8.0521 O   0  0  0  0  0  0  0  0  0  0  0  0
   20.5653   74.3700   -6.4424 C   0  0  1  0  0  0  0  0  0  0  0  0
   19.2652   73.9087   -7.0673 C   0  0  2  0  0  0  0  0  0  0  0  0
   21.1350   73.0672   -5.8951 C   0  0  1  0  0  0  0  0  0  0  0  0
   19.6549   72.5589   -7.6453 C   0  0  2  0  0  0  0  0  0  0  0  0
   21.1127   75.6822   -7.8128 H   0  0  0  0  0  0  0  0  0  0  0  0
   18.5614   75.6506   -7.6350 H   0  0  0  0  0  0  0  0  0  0  0  0
   19.0965   70.8125   -9.7938 O   0  0  0  0  0  0  0  0  0  0  0  0
   15.4024   69.0710   -7.6578 O   0  0  0  0  0  0  0  0  0  0  0  0
   18.5538   71.6381   -7.6770 N   0  0  0  0  0  0  0  0  0  0  0  0
   17.2576   69.9466   -8.7284 N   0  0  0  0  0  0  0  0  0  0  0  0
   18.3614   70.8057   -8.8042 C   0  0  0  0  0  0  0  0  0  0  0  0
   17.6788   71.5668   -6.5984 C   0  0  0  0  0  0  0  0  0  0  0  0
   16.6302   70.7430   -6.5423 C   0  0  0  0  0  0  0  0  0  0  0  0
   16.3585   69.8399   -7.6792 C   0  0  0  0  0  0  0  0  0  0  0  0
   17.1036   69.3576   -9.5025 H   0  0  0  0  0  0  0  0  0  0  0  0
   21.4811   73.2221   -1.1742 O   0  0  0  0  0  0  0  0  0  0  0  0
   21.9765   71.6999   -0.9499 P   0  0  2  0  0  0  0  0  0  0  0  0
   22.7736   71.3638   -2.3171 O   0  0  0  0  0  0  0  0  0  0  0  0
   20.8733   70.7355   -0.6233 O   0  0  0  0  0  0  0  0  0  0  0  0
   23.1270   71.8066    0.1770 O   0  0  0  0  0  0  0  0  0  0  0  0
   23.5267   72.9023    2.2401 O   0  0  0  0  0  0  0  0  0  0  0  0
   26.9542   74.0180    0.2257 O   0  0  0  0  0  0  0  0  0  0  0  0
   27.1180   72.0761    2.3352 O   0  0  0  0  0  0  0  0  0  0  0  0
   24.4291   73.8872   -1.1835 O   0  0  0  0  0  0  0  0  0  0  0  0
   25.8820   73.1437    0.5878 C   0  0  1  0  0  0  0  0  0  0  0  0
   25.9662   72.8790    2.0923 C   0  0  1  0  0  0  0  0  0  0  0  0
   24.5537   73.8090    0.2324 C   0  0  2  0  0  0  0  0  0  0  0  0
   24.7038   72.1706    2.6017 C   0  0  1  0  0  0  0  0  0  0  0  0
   23.3655   73.0518    0.8282 C   0  0  1  0  0  0  0  0  0  0  0  0
   27.8006   73.6013    0.4483 H   0  0  0  0  0  0  0  0  0  0  0  0
   27.9080   72.5346    2.0085 H   0  0  0  0  0  0  0  0  0  0  0  0
   25.1870   74.3690   -1.5486 H   0  0  0  0  0  0  0  0  0  0  0  0
   24.4983   70.6759    4.4545 O   0  0  0  0  0  0  0  0  0  0  0  0
   24.6968   72.0379    4.1230 C   0  0  0  0  0  0  0  0  0  0  0  0
   24.4919   70.5763    5.4198 H   0  0  0  0  0  0  0  0  0  0  0  0
 25 28  1  0
 25 24  1  0
 25 26  1  6
 25 27  2  0
  1  4  1  0
  1 24  1  0
  1  2  1  6
  1  3  2  0
  6 11  1  0
  6 12  1  0
 29 36  1  0
 29 37  1  0
  9  7  1  6
  7 13  1  0
 10  8  1  6
  8 14  1  0
 37 28  1  6
  4  5  1  0
 33 30  1  1
 30 38  1  0
 34 31  1  6
 31 39  1  0
 35 32  1  6
 32 40  1  0
 41 42  1  0
 41 43  1  0
 15 19  2  0
 16 22  2  0
 12 17  1  1
 17 19  1  0
 17 20  1  0
 18 19  1  0
 18 22  1  0
 18 23  1  0
  9 10  1  0
  9 11  1  0
 10 12  1  0
 11  5  1  1
 33 34  1  0
 33 35  1  0
 34 36  1  0
 35 37  1  0
 36 42  1  1
 20 21  2  0
 21 22  1  0
M  CHG  2   2  -1  26  -1
M  END
>  <COMPND>  (144) 
    8629 

>  <AUTHOR>  (144) 
    GENERATED BY OPEN BABEL 3.1.1

>  <MASTER>  (144) 
        0    0    0    0    0    0    0    0   58    0   58    0

>  <minimizedAffinity>  (144) 
-6.49608

>  <CNNscore>  (144) 
0.5566288233

>  <CNNaffinity>  (144) 
4.2731251717

>  <CNN_VS>  (144) 
2.3785445690

>  <CNNaffinity_variance>  (144) 
0.0659212545

$$$$
145
     RDKit          3D

 43 45  0  0  0  0  0  0  0  0999 V2000
   20.7670   75.2011   -4.4276 P   0  0  2  0  0  0  0  0  0  0  0  0
   20.9292   76.7683   -4.0603 O   0  0  0  0  0  0  0  0  0  0  0  0
   20.9452   74.8688   -5.8799 O   0  0  0  0  0  0  0  0  0  0  0  0
   19.3382   74.7974   -3.7846 O   0  0  0  0  0  0  0  0  0  0  0  0
   19.1010   73.4377   -3.4641 C   0  0  0  0  0  0  0  0  0  0  0  0
   17.1357   73.1984   -4.8258 O   0  0  0  0  0  0  0  0  0  0  0  0
   15.8729   71.8863   -2.4437 O   0  0  0  0  0  0  0  0  0  0  0  0
   16.5521   69.7562   -4.0051 O   0  0  0  0  0  0  0  0  0  0  0  0
   17.2220   71.8169   -2.9024 C   0  0  1  0  0  0  0  0  0  0  0  0
   17.3145   70.9390   -4.1330 C   0  0  2  0  0  0  0  0  0  0  0  0
   17.5997   73.1844   -3.4580 C   0  0  1  0  0  0  0  0  0  0  0  0
   16.7855   71.8612   -5.2183 C   0  0  2  0  0  0  0  0  0  0  0  0
   15.6091   71.0244   -2.0840 H   0  0  0  0  0  0  0  0  0  0  0  0
   16.9282   69.2032   -3.3026 H   0  0  0  0  0  0  0  0  0  0  0  0
   15.3214   71.6935   -7.6279 O   0  0  0  0  0  0  0  0  0  0  0  0
   19.1159   70.7949  -10.0846 O   0  0  0  0  0  0  0  0  0  0  0  0
   17.3655   71.5850   -6.5023 N   0  0  0  0  0  0  0  0  0  0  0  0
   17.2120   71.2464   -8.8493 N   0  0  0  0  0  0  0  0  0  0  0  0
   16.5419   71.5214   -7.6504 C   0  0  0  0  0  0  0  0  0  0  0  0
   18.7366   71.3810   -6.6139 C   0  0  0  0  0  0  0  0  0  0  0  0
   19.3600   71.1184   -7.7644 C   0  0  0  0  0  0  0  0  0  0  0  0
   18.5721   71.0348   -9.0111 C   0  0  0  0  0  0  0  0  0  0  0  0
   16.6585   71.1969   -9.6622 H   0  0  0  0  0  0  0  0  0  0  0  0
   21.8259   74.4845   -3.4386 O   0  0  0  0  0  0  0  0  0  0  0  0
   23.3337   73.9620   -3.6966 P   0  0  2  0  0  0  0  0  0  0  0  0
   24.1067   75.2921   -4.1975 O   0  0  0  0  0  0  0  0  0  0  0  0
   23.4287   72.7982   -4.6403 O   0  0  0  0  0  0  0  0  0  0  0  0
   23.9254   73.6776   -2.2222 O   0  0  0  0  0  0  0  0  0  0  0  0
   25.5405   72.3765   -1.0753 O   0  0  0  0  0  0  0  0  0  0  0  0
   22.1450   71.1053    0.9009 O   0  0  0  0  0  0  0  0  0  0  0  0
   24.0031   72.8354    2.2435 O   0  0  0  0  0  0  0  0  0  0  0  0
   22.0558   71.6026   -1.9494 O   0  0  0  0  0  0  0  0  0  0  0  0
   22.9853   72.0467    0.2278 C   0  0  1  0  0  0  0  0  0  0  0  0
   24.2909   72.1728    1.0153 C   0  0  1  0  0  0  0  0  0  0  0  0
   23.2585   71.5475   -1.1898 C   0  0  2  0  0  0  0  0  0  0  0  0
   25.3442   72.9558    0.2199 C   0  0  1  0  0  0  0  0  0  0  0  0
   24.3559   72.3642   -1.8745 C   0  0  1  0  0  0  0  0  0  0  0  0
   21.9672   71.4166    1.8015 H   0  0  0  0  0  0  0  0  0  0  0  0
   23.3364   72.3310    2.7358 H   0  0  0  0  0  0  0  0  0  0  0  0
   21.3691   71.0816   -1.5057 H   0  0  0  0  0  0  0  0  0  0  0  0
   26.6967   71.9551    1.9164 O   0  0  0  0  0  0  0  0  0  0  0  0
   26.7025   72.9586    0.9178 C   0  0  0  0  0  0  0  0  0  0  0  0
   27.5551   71.9451    2.3688 H   0  0  0  0  0  0  0  0  0  0  0  0
 25 28  1  0
 25 24  1  0
 25 26  1  6
 25 27  2  0
  1  4  1  0
  1 24  1  0
  1  2  1  6
  1  3  2  0
  6 11  1  0
  6 12  1  0
 29 36  1  0
 29 37  1  0
  9  7  1  6
  7 13  1  0
 10  8  1  1
  8 14  1  0
 37 28  1  1
  4  5  1  0
 33 30  1  1
 30 38  1  0
 34 31  1  1
 31 39  1  0
 35 32  1  6
 32 40  1  0
 41 42  1  0
 41 43  1  0
 15 19  2  0
 16 22  2  0
 12 17  1  6
 17 19  1  0
 17 20  1  0
 18 19  1  0
 18 22  1  0
 18 23  1  0
  9 10  1  0
  9 11  1  0
 10 12  1  0
 11  5  1  6
 33 34  1  0
 33 35  1  0
 34 36  1  0
 35 37  1  0
 36 42  1  1
 20 21  2  0
 21 22  1  0
M  CHG  2   2  -1  26  -1
M  END
>  <COMPND>  (145) 
    8629 

>  <AUTHOR>  (145) 
    GENERATED BY OPEN BABEL 3.1.1

>  <MASTER>  (145) 
        0    0    0    0    0    0    0    0   58    0   58    0

>  <minimizedAffinity>  (145) 
-6.13226

>  <CNNscore>  (145) 
0.5548673272

>  <CNNaffinity>  (145) 
4.3612542152

>  <CNN_VS>  (145) 
2.4199175835

>  <CNNaffinity_variance>  (145) 
0.0531055257

$$$$
146
     RDKit          3D

 43 45  0  0  0  0  0  0  0  0999 V2000
   15.2176   72.8854   -2.6866 P   0  0  2  0  0  0  0  0  0  0  0  0
   16.7834   72.7452   -2.3043 O   0  0  0  0  0  0  0  0  0  0  0  0
   14.6785   74.2851   -2.6472 O   0  0  0  0  0  0  0  0  0  0  0  0
   14.4834   71.8220   -1.7130 O   0  0  0  0  0  0  0  0  0  0  0  0
   15.2818   71.0368   -0.8448 C   0  0  0  0  0  0  0  0  0  0  0  0
   15.4461   68.6941   -0.3360 O   0  0  0  0  0  0  0  0  0  0  0  0
   14.6912   68.2110   -3.1974 O   0  0  0  0  0  0  0  0  0  0  0  0
   12.3424   67.7767   -1.8816 O   0  0  0  0  0  0  0  0  0  0  0  0
   14.2438   69.2313   -2.3062 C   0  0  1  0  0  0  0  0  0  0  0  0
   13.2776   68.6565   -1.2915 C   0  0  2  0  0  0  0  0  0  0  0  0
   15.4215   69.6378   -1.4293 C   0  0  1  0  0  0  0  0  0  0  0  0
   14.2160   67.9513   -0.3271 C   0  0  2  0  0  0  0  0  0  0  0  0
   13.9562   67.9354   -3.7681 H   0  0  0  0  0  0  0  0  0  0  0  0
   11.7687   68.2726   -2.4863 H   0  0  0  0  0  0  0  0  0  0  0  0
   13.3175   65.6140    0.9797 O   0  0  0  0  0  0  0  0  0  0  0  0
   12.2590   67.9438    4.8128 O   0  0  0  0  0  0  0  0  0  0  0  0
   13.7010   67.9182    1.0126 N   0  0  0  0  0  0  0  0  0  0  0  0
   12.7913   66.7759    2.8873 N   0  0  0  0  0  0  0  0  0  0  0  0
   13.2753   66.6924    1.5755 C   0  0  0  0  0  0  0  0  0  0  0  0
   13.6223   69.0920    1.7540 C   0  0  0  0  0  0  0  0  0  0  0  0
   13.1571   69.1550    3.0034 C   0  0  0  0  0  0  0  0  0  0  0  0
   12.6921   67.9188    3.6649 C   0  0  0  0  0  0  0  0  0  0  0  0
   12.4887   65.9345    3.2999 H   0  0  0  0  0  0  0  0  0  0  0  0
   15.1317   72.1719   -4.1345 O   0  0  0  0  0  0  0  0  0  0  0  0
   15.8150   72.5543   -5.5486 P   0  0  2  0  0  0  0  0  0  0  0  0
   15.7626   74.1713   -5.5608 O   0  0  0  0  0  0  0  0  0  0  0  0
   15.1708   71.9049   -6.7390 O   0  0  0  0  0  0  0  0  0  0  0  0
   17.3776   72.1987   -5.3567 O   0  0  0  0  0  0  0  0  0  0  0  0
   18.4111   70.8245   -6.9876 O   0  0  0  0  0  0  0  0  0  0  0  0
   21.1419   70.3783   -3.9225 O   0  0  0  0  0  0  0  0  0  0  0  0
   21.8336   71.9580   -6.2191 O   0  0  0  0  0  0  0  0  0  0  0  0
   18.3113   70.4987   -3.3285 O   0  0  0  0  0  0  0  0  0  0  0  0
   20.1865   71.0775   -4.7249 C   0  0  1  0  0  0  0  0  0  0  0  0
   20.6968   71.1006   -6.1671 C   0  0  1  0  0  0  0  0  0  0  0  0
   18.8421   70.3570   -4.6417 C   0  0  2  0  0  0  0  0  0  0  0  0
   19.6101   71.5950   -7.1313 C   0  0  1  0  0  0  0  0  0  0  0  0
   17.8496   70.8922   -5.6754 C   0  0  1  0  0  0  0  0  0  0  0  0
   21.9976   70.8309   -3.9706 H   0  0  0  0  0  0  0  0  0  0  0  0
   22.5120   71.6350   -5.6054 H   0  0  0  0  0  0  0  0  0  0  0  0
   18.9488   70.1561   -2.6834 H   0  0  0  0  0  0  0  0  0  0  0  0
   19.3858   70.3637   -9.1667 O   0  0  0  0  0  0  0  0  0  0  0  0
   20.0438   71.4772   -8.5908 C   0  0  0  0  0  0  0  0  0  0  0  0
   19.6521   70.2766  -10.0958 H   0  0  0  0  0  0  0  0  0  0  0  0
 25 28  1  0
 25 24  1  0
 25 26  1  6
 25 27  2  0
  1  4  1  0
  1 24  1  0
  1  2  1  1
  1  3  2  0
  6 11  1  0
  6 12  1  0
 29 36  1  0
 29 37  1  0
  9  7  1  6
  7 13  1  0
 10  8  1  6
  8 14  1  0
 37 28  1  1
  4  5  1  0
 33 30  1  1
 30 38  1  0
 34 31  1  1
 31 39  1  0
 35 32  1  1
 32 40  1  0
 41 42  1  0
 41 43  1  0
 15 19  2  0
 16 22  2  0
 12 17  1  1
 17 19  1  0
 17 20  1  0
 18 19  1  0
 18 22  1  0
 18 23  1  0
  9 10  1  0
  9 11  1  0
 10 12  1  0
 11  5  1  1
 33 34  1  0
 33 35  1  0
 34 36  1  0
 35 37  1  0
 36 42  1  6
 20 21  2  0
 21 22  1  0
M  CHG  2   2  -1  26  -1
M  END
>  <COMPND>  (146) 
    8629 

>  <AUTHOR>  (146) 
    GENERATED BY OPEN BABEL 3.1.1

>  <MASTER>  (146) 
        0    0    0    0    0    0    0    0   58    0   58    0

>  <minimizedAffinity>  (146) 
-6.13977

>  <CNNscore>  (146) 
0.5017637610

>  <CNNaffinity>  (146) 
3.8754699230

>  <CNN_VS>  (146) 
1.9445704222

>  <CNNaffinity_variance>  (146) 
0.2690513730

$$$$
147
     RDKit          3D

 43 45  0  0  0  0  0  0  0  0999 V2000
   15.7431   70.0694   -1.3191 P   0  0  2  0  0  0  0  0  0  0  0  0
   16.8319   69.7886   -0.1559 O   0  0  0  0  0  0  0  0  0  0  0  0
   14.7883   71.1918   -1.0360 O   0  0  0  0  0  0  0  0  0  0  0  0
   15.0686   68.6216   -1.5775 O   0  0  0  0  0  0  0  0  0  0  0  0
   13.8489   68.3175   -0.9236 C   0  0  0  0  0  0  0  0  0  0  0  0
   14.4604   68.1889    1.3966 O   0  0  0  0  0  0  0  0  0  0  0  0
   13.4065   65.3827    1.3258 O   0  0  0  0  0  0  0  0  0  0  0  0
   11.3640   66.7553    2.5010 O   0  0  0  0  0  0  0  0  0  0  0  0
   12.9265   66.5440    0.6503 C   0  0  1  0  0  0  0  0  0  0  0  0
   12.2160   67.4621    1.6228 C   0  0  2  0  0  0  0  0  0  0  0  0
   14.1321   67.3824    0.2441 C   0  0  1  0  0  0  0  0  0  0  0  0
   13.3807   68.1209    2.3423 C   0  0  2  0  0  0  0  0  0  0  0  0
   12.6544   64.8313    1.5947 H   0  0  0  0  0  0  0  0  0  0  0  0
   10.6394   66.3545    1.9959 H   0  0  0  0  0  0  0  0  0  0  0  0
   12.3772   68.7466    4.9074 O   0  0  0  0  0  0  0  0  0  0  0  0
   12.2150   73.2511    3.9459 O   0  0  0  0  0  0  0  0  0  0  0  0
   13.0678   69.4490    2.7892 N   0  0  0  0  0  0  0  0  0  0  0  0
   12.2974   70.9890    4.4266 N   0  0  0  0  0  0  0  0  0  0  0  0
   12.5682   69.6550    4.0962 C   0  0  0  0  0  0  0  0  0  0  0  0
   13.2572   70.5301    1.9352 C   0  0  0  0  0  0  0  0  0  0  0  0
   12.9929   71.7960    2.2651 C   0  0  0  0  0  0  0  0  0  0  0  0
   12.4679   72.0975    3.6125 C   0  0  0  0  0  0  0  0  0  0  0  0
   11.9481   71.1567    5.3320 H   0  0  0  0  0  0  0  0  0  0  0  0
   16.6610   70.2822   -2.6325 O   0  0  0  0  0  0  0  0  0  0  0  0
   17.7153   71.4468   -3.0134 P   0  0  2  0  0  0  0  0  0  0  0  0
   19.1474   70.7790   -2.6661 O   0  0  0  0  0  0  0  0  0  0  0  0
   17.4600   72.7569   -2.3260 O   0  0  0  0  0  0  0  0  0  0  0  0
   17.6795   71.5191   -4.6254 O   0  0  0  0  0  0  0  0  0  0  0  0
   17.6698   69.8273   -6.2849 O   0  0  0  0  0  0  0  0  0  0  0  0
   20.1612   72.5517   -8.1346 O   0  0  0  0  0  0  0  0  0  0  0  0
   17.4889   72.1785   -9.1183 O   0  0  0  0  0  0  0  0  0  0  0  0
   20.3372   72.1444   -5.2741 O   0  0  0  0  0  0  0  0  0  0  0  0
   19.0633   72.1352   -7.3182 C   0  0  1  0  0  0  0  0  0  0  0  0
   18.1119   71.3042   -8.1815 C   0  0  1  0  0  0  0  0  0  0  0  0
   19.5954   71.3044   -6.1520 C   0  0  2  0  0  0  0  0  0  0  0  0
   17.0535   70.6016   -7.3205 C   0  0  1  0  0  0  0  0  0  0  0  0
   18.4648   70.6093   -5.3914 C   0  0  1  0  0  0  0  0  0  0  0  0
   19.8301   73.0801   -8.8768 H   0  0  0  0  0  0  0  0  0  0  0  0
   18.1681   72.6161   -9.6553 H   0  0  0  0  0  0  0  0  0  0  0  0
   21.0500   72.5783   -5.7675 H   0  0  0  0  0  0  0  0  0  0  0  0
   16.9461   69.2056   -9.2567 O   0  0  0  0  0  0  0  0  0  0  0  0
   16.1925   69.6438   -8.1412 C   0  0  0  0  0  0  0  0  0  0  0  0
   16.4108   68.5950   -9.7881 H   0  0  0  0  0  0  0  0  0  0  0  0
 25 28  1  0
 25 24  1  0
 25 26  1  6
 25 27  2  0
  1  4  1  0
  1 24  1  0
  1  2  1  1
  1  3  2  0
  6 11  1  0
  6 12  1  0
 29 36  1  0
 29 37  1  0
  9  7  1  1
  7 13  1  0
 10  8  1  1
  8 14  1  0
 37 28  1  6
  4  5  1  0
 33 30  1  6
 30 38  1  0
 34 31  1  6
 31 39  1  0
 35 32  1  1
 32 40  1  0
 41 42  1  0
 41 43  1  0
 15 19  2  0
 16 22  2  0
 12 17  1  6
 17 19  1  0
 17 20  1  0
 18 19  1  0
 18 22  1  0
 18 23  1  0
  9 10  1  0
  9 11  1  0
 10 12  1  0
 11  5  1  6
 33 34  1  0
 33 35  1  0
 34 36  1  0
 35 37  1  0
 36 42  1  6
 20 21  2  0
 21 22  1  0
M  CHG  2   2  -1  26  -1
M  END
>  <COMPND>  (147) 
    8629 

>  <AUTHOR>  (147) 
    GENERATED BY OPEN BABEL 3.1.1

>  <MASTER>  (147) 
        0    0    0    0    0    0    0    0   58    0   58    0

>  <minimizedAffinity>  (147) 
-6.38012

>  <CNNscore>  (147) 
0.4292270541

>  <CNNaffinity>  (147) 
3.8934173584

>  <CNN_VS>  (147) 
1.6711601019

>  <CNNaffinity_variance>  (147) 
0.3441662788

$$$$
148
     RDKit          3D

 43 45  0  0  0  0  0  0  0  0999 V2000
   22.1316   72.2229   -3.5310 P   0  0  2  0  0  0  0  0  0  0  0  0
   22.9541   72.8775   -4.7608 O   0  0  0  0  0  0  0  0  0  0  0  0
   22.5963   70.8590   -3.1125 O   0  0  0  0  0  0  0  0  0  0  0  0
   20.5862   72.3258   -3.9989 O   0  0  0  0  0  0  0  0  0  0  0  0
   20.3084   72.5455   -5.3709 C   0  0  0  0  0  0  0  0  0  0  0  0
   19.0938   70.6874   -6.2910 O   0  0  0  0  0  0  0  0  0  0  0  0
   21.5570   70.1165   -7.9027 O   0  0  0  0  0  0  0  0  0  0  0  0
   19.9413   71.3667   -9.7090 O   0  0  0  0  0  0  0  0  0  0  0  0
   21.0002   71.3731   -7.5204 C   0  0  1  0  0  0  0  0  0  0  0  0
   19.7625   71.6712   -8.3408 C   0  0  2  0  0  0  0  0  0  0  0  0
   20.4238   71.2238   -6.1180 C   0  0  1  0  0  0  0  0  0  0  0  0
   18.7228   70.7853   -7.6757 C   0  0  2  0  0  0  0  0  0  0  0  0
   21.9317   70.1872   -8.7952 H   0  0  0  0  0  0  0  0  0  0  0  0
   20.6120   71.9568  -10.0868 H   0  0  0  0  0  0  0  0  0  0  0  0
   16.4278   69.3007   -8.3877 O   0  0  0  0  0  0  0  0  0  0  0  0
   13.6939   72.9899   -7.9915 O   0  0  0  0  0  0  0  0  0  0  0  0
   17.3985   71.3326   -7.7661 N   0  0  0  0  0  0  0  0  0  0  0  0
   15.0684   71.1388   -8.1896 N   0  0  0  0  0  0  0  0  0  0  0  0
   16.3144   70.5015   -8.1330 C   0  0  0  0  0  0  0  0  0  0  0  0
   17.1849   72.6791   -7.4920 C   0  0  0  0  0  0  0  0  0  0  0  0
   15.9906   73.2718   -7.5518 C   0  0  0  0  0  0  0  0  0  0  0  0
   14.8055   72.4741   -7.9276 C   0  0  0  0  0  0  0  0  0  0  0  0
   14.2985   70.5797   -8.4435 H   0  0  0  0  0  0  0  0  0  0  0  0
   22.2387   73.3527   -2.3799 O   0  0  0  0  0  0  0  0  0  0  0  0
   21.5588   73.4447   -0.9163 P   0  0  2  0  0  0  0  0  0  0  0  0
   20.6974   72.0785   -0.8208 O   0  0  0  0  0  0  0  0  0  0  0  0
   20.7625   74.6963   -0.6852 O   0  0  0  0  0  0  0  0  0  0  0  0
   22.7807   73.2292    0.1160 O   0  0  0  0  0  0  0  0  0  0  0  0
   24.9315   72.3275   -0.3056 O   0  0  0  0  0  0  0  0  0  0  0  0
   24.3785   70.9424    3.5449 O   0  0  0  0  0  0  0  0  0  0  0  0
   26.2412   73.0735    3.0585 O   0  0  0  0  0  0  0  0  0  0  0  0
   22.1515   70.9972    1.6963 O   0  0  0  0  0  0  0  0  0  0  0  0
   24.2595   71.8727    2.4652 C   0  0  1  0  0  0  0  0  0  0  0  0
   25.6673   72.2785    2.0246 C   0  0  1  0  0  0  0  0  0  0  0  0
   23.5065   71.2081    1.3143 C   0  0  2  0  0  0  0  0  0  0  0  0
   25.6306   73.0625    0.7058 C   0  0  1  0  0  0  0  0  0  0  0  0
   23.5728   72.0470    0.0368 C   0  0  1  0  0  0  0  0  0  0  0  0
   24.8553   71.3583    4.2792 H   0  0  0  0  0  0  0  0  0  0  0  0
   26.2580   72.5671    3.8858 H   0  0  0  0  0  0  0  0  0  0  0  0
   22.1231   70.4647    2.5060 H   0  0  0  0  0  0  0  0  0  0  0  0
   27.5802   74.4325    0.8821 O   0  0  0  0  0  0  0  0  0  0  0  0
   27.0320   73.3407    0.1666 C   0  0  0  0  0  0  0  0  0  0  0  0
   28.4723   74.6208    0.5498 H   0  0  0  0  0  0  0  0  0  0  0  0
 25 28  1  0
 25 24  1  0
 25 26  1  6
 25 27  2  0
  1  4  1  0
  1 24  1  0
  1  2  1  6
  1  3  2  0
  6 11  1  0
  6 12  1  0
 29 36  1  0
 29 37  1  0
  9  7  1  6
  7 13  1  0
 10  8  1  6
  8 14  1  0
 37 28  1  1
  4  5  1  0
 33 30  1  1
 30 38  1  0
 34 31  1  1
 31 39  1  0
 35 32  1  1
 32 40  1  0
 41 42  1  0
 41 43  1  0
 15 19  2  0
 16 22  2  0
 12 17  1  1
 17 19  1  0
 17 20  1  0
 18 19  1  0
 18 22  1  0
 18 23  1  0
  9 10  1  0
  9 11  1  0
 10 12  1  0
 11  5  1  6
 33 34  1  0
 33 35  1  0
 34 36  1  0
 35 37  1  0
 36 42  1  6
 20 21  2  0
 21 22  1  0
M  CHG  2   2  -1  26  -1
M  END
>  <COMPND>  (148) 
    8629 

>  <AUTHOR>  (148) 
    GENERATED BY OPEN BABEL 3.1.1

>  <MASTER>  (148) 
        0    0    0    0    0    0    0    0   58    0   58    0

>  <minimizedAffinity>  (148) 
-6.63858

>  <CNNscore>  (148) 
0.4132838249

>  <CNNaffinity>  (148) 
4.2639327049

>  <CNN_VS>  (148) 
1.7622144222

>  <CNNaffinity_variance>  (148) 
0.0170381572

$$$$
149
     RDKit          3D

 43 45  0  0  0  0  0  0  0  0999 V2000
   22.1677   73.0568   -4.6677 P   0  0  2  0  0  0  0  0  0  0  0  0
   23.7552   72.8767   -4.4129 O   0  0  0  0  0  0  0  0  0  0  0  0
   21.6042   74.3816   -4.2448 O   0  0  0  0  0  0  0  0  0  0  0  0
   21.5112   71.7568   -3.9627 O   0  0  0  0  0  0  0  0  0  0  0  0
   22.1223   71.2411   -2.7930 C   0  0  0  0  0  0  0  0  0  0  0  0
   21.7396   70.7101   -0.4810 O   0  0  0  0  0  0  0  0  0  0  0  0
   19.1672   72.2268   -0.7522 O   0  0  0  0  0  0  0  0  0  0  0  0
   20.7913   74.0289    0.4933 O   0  0  0  0  0  0  0  0  0  0  0  0
   20.4353   72.4865   -1.3521 C   0  0  1  0  0  0  0  0  0  0  0  0
   21.3967   73.0500   -0.3265 C   0  0  2  0  0  0  0  0  0  0  0  0
   21.0784   71.1469   -1.6886 C   0  0  1  0  0  0  0  0  0  0  0  0
   21.7969   71.8054    0.4474 C   0  0  2  0  0  0  0  0  0  0  0  0
   18.7372   73.0677   -0.5288 H   0  0  0  0  0  0  0  0  0  0  0  0
   20.5551   74.8005   -0.0448 H   0  0  0  0  0  0  0  0  0  0  0  0
   22.7168   70.3643    2.6957 O   0  0  0  0  0  0  0  0  0  0  0  0
   26.9196   72.2330    2.4031 O   0  0  0  0  0  0  0  0  0  0  0  0
   23.1270   71.8959    0.9802 N   0  0  0  0  0  0  0  0  0  0  0  0
   24.8087   71.2958    2.5481 N   0  0  0  0  0  0  0  0  0  0  0  0
   23.4874   71.1305    2.1137 C   0  0  0  0  0  0  0  0  0  0  0  0
   24.0584   72.7361    0.3798 C   0  0  0  0  0  0  0  0  0  0  0  0
   25.3142   72.8834    0.8070 C   0  0  0  0  0  0  0  0  0  0  0  0
   25.7712   72.1194    1.9858 C   0  0  0  0  0  0  0  0  0  0  0  0
   25.0822   70.7729    3.3364 H   0  0  0  0  0  0  0  0  0  0  0  0
   22.0134   72.7324   -6.2437 O   0  0  0  0  0  0  0  0  0  0  0  0
   20.8818   73.1700   -7.3118 P   0  0  2  0  0  0  0  0  0  0  0  0
   21.5371   72.7637   -8.7341 O   0  0  0  0  0  0  0  0  0  0  0  0
   20.4637   74.6084   -7.2108 O   0  0  0  0  0  0  0  0  0  0  0  0
   19.6848   72.1089   -7.0965 O   0  0  0  0  0  0  0  0  0  0  0  0
   17.5556   73.1461   -7.1837 O   0  0  0  0  0  0  0  0  0  0  0  0
   16.4181   69.4180   -5.8204 O   0  0  0  0  0  0  0  0  0  0  0  0
   15.8249   70.1805   -8.5250 O   0  0  0  0  0  0  0  0  0  0  0  0
   18.8710   70.6196   -4.8616 O   0  0  0  0  0  0  0  0  0  0  0  0
   17.2015   70.3459   -6.5760 C   0  0  1  0  0  0  0  0  0  0  0  0
   16.2688   71.0970   -7.5283 C   0  0  1  0  0  0  0  0  0  0  0  0
   17.8868   71.3176   -5.6171 C   0  0  2  0  0  0  0  0  0  0  0  0
   16.9840   72.2888   -8.1788 C   0  0  1  0  0  0  0  0  0  0  0  0
   18.5245   72.4913   -6.3625 C   0  0  1  0  0  0  0  0  0  0  0  0
   15.9807   68.7979   -6.4234 H   0  0  0  0  0  0  0  0  0  0  0  0
   15.3755   69.4325   -8.1010 H   0  0  0  0  0  0  0  0  0  0  0  0
   18.4547   69.8792   -4.3943 H   0  0  0  0  0  0  0  0  0  0  0  0
   14.7224   72.6184   -8.8756 O   0  0  0  0  0  0  0  0  0  0  0  0
   16.0301   73.1441   -9.0098 C   0  0  0  0  0  0  0  0  0  0  0  0
   14.1044   73.1530   -9.3990 H   0  0  0  0  0  0  0  0  0  0  0  0
 25 28  1  0
 25 24  1  0
 25 26  1  6
 25 27  2  0
  1  4  1  0
  1 24  1  0
  1  2  1  1
  1  3  2  0
  6 11  1  0
  6 12  1  0
 29 36  1  0
 29 37  1  0
  9  7  1  1
  7 13  1  0
 10  8  1  1
  8 14  1  0
 37 28  1  6
  4  5  1  0
 33 30  1  1
 30 38  1  0
 34 31  1  6
 31 39  1  0
 35 32  1  6
 32 40  1  0
 41 42  1  0
 41 43  1  0
 15 19  2  0
 16 22  2  0
 12 17  1  6
 17 19  1  0
 17 20  1  0
 18 19  1  0
 18 22  1  0
 18 23  1  0
  9 10  1  0
  9 11  1  0
 10 12  1  0
 11  5  1  6
 33 34  1  0
 33 35  1  0
 34 36  1  0
 35 37  1  0
 36 42  1  1
 20 21  2  0
 21 22  1  0
M  CHG  2   2  -1  26  -1
M  END
>  <COMPND>  (149) 
    8629 

>  <AUTHOR>  (149) 
    GENERATED BY OPEN BABEL 3.1.1

>  <MASTER>  (149) 
        0    0    0    0    0    0    0    0   58    0   58    0

>  <minimizedAffinity>  (149) 
-7.58570

>  <CNNscore>  (149) 
0.3814186752

>  <CNNaffinity>  (149) 
4.0910367966

>  <CNN_VS>  (149) 
1.5603978634

>  <CNNaffinity_variance>  (149) 
0.0694409832

$$$$
150
     RDKit          3D

 43 45  0  0  0  0  0  0  0  0999 V2000
   22.1195   72.9324   -4.7145 P   0  0  2  0  0  0  0  0  0  0  0  0
   23.7226   72.8203   -4.5282 O   0  0  0  0  0  0  0  0  0  0  0  0
   21.5233   74.2450   -4.2984 O   0  0  0  0  0  0  0  0  0  0  0  0
   21.5473   71.6267   -3.9492 O   0  0  0  0  0  0  0  0  0  0  0  0
   22.1670   71.2264   -2.7394 C   0  0  0  0  0  0  0  0  0  0  0  0
   21.7613   70.7303   -0.4236 O   0  0  0  0  0  0  0  0  0  0  0  0
   19.1998   72.2568   -0.7387 O   0  0  0  0  0  0  0  0  0  0  0  0
   20.8229   74.0677    0.4954 O   0  0  0  0  0  0  0  0  0  0  0  0
   20.4744   72.5012   -1.3311 C   0  0  1  0  0  0  0  0  0  0  0  0
   21.4299   73.0740   -0.3052 C   0  0  2  0  0  0  0  0  0  0  0  0
   21.1131   71.1535   -1.6430 C   0  0  1  0  0  0  0  0  0  0  0  0
   21.8167   71.8384    0.4896 C   0  0  2  0  0  0  0  0  0  0  0  0
   18.7724   73.1030   -0.5309 H   0  0  0  0  0  0  0  0  0  0  0  0
   20.5956   74.8328   -0.0557 H   0  0  0  0  0  0  0  0  0  0  0  0
   22.7372   70.3542    2.7095 O   0  0  0  0  0  0  0  0  0  0  0  0
   26.9231   72.2699    2.4866 O   0  0  0  0  0  0  0  0  0  0  0  0
   23.1426   71.9293    1.0327 N   0  0  0  0  0  0  0  0  0  0  0  0
   24.8207   71.3092    2.5966 N   0  0  0  0  0  0  0  0  0  0  0  0
   23.5037   71.1413    2.1503 C   0  0  0  0  0  0  0  0  0  0  0  0
   24.0692   72.7924    0.4578 C   0  0  0  0  0  0  0  0  0  0  0  0
   25.3209   72.9418    0.8962 C   0  0  0  0  0  0  0  0  0  0  0  0
   25.7783   72.1550    2.0597 C   0  0  0  0  0  0  0  0  0  0  0  0
   25.0946   70.7706    3.3743 H   0  0  0  0  0  0  0  0  0  0  0  0
   21.9079   72.5616   -6.2736 O   0  0  0  0  0  0  0  0  0  0  0  0
   20.9875   73.2466   -7.4122 P   0  0  2  0  0  0  0  0  0  0  0  0
   21.3927   72.4374   -8.7533 O   0  0  0  0  0  0  0  0  0  0  0  0
   21.1443   74.7360   -7.5165 O   0  0  0  0  0  0  0  0  0  0  0  0
   19.4877   72.7538   -7.0763 O   0  0  0  0  0  0  0  0  0  0  0  0
   18.8360   70.8465   -5.8297 O   0  0  0  0  0  0  0  0  0  0  0  0
   15.6938   70.9916   -8.5048 O   0  0  0  0  0  0  0  0  0  0  0  0
   15.2580   71.7312   -5.7641 O   0  0  0  0  0  0  0  0  0  0  0  0
   18.3757   71.6240   -9.3919 O   0  0  0  0  0  0  0  0  0  0  0  0
   16.7084   71.5350   -7.6559 C   0  0  1  0  0  0  0  0  0  0  0  0
   16.4344   71.0716   -6.2238 C   0  0  1  0  0  0  0  0  0  0  0  0
   18.0735   71.0396   -8.1295 C   0  0  2  0  0  0  0  0  0  0  0  0
   17.6198   71.3893   -5.3024 C   0  0  1  0  0  0  0  0  0  0  0  0
   19.1742   71.3641   -7.1180 C   0  0  1  0  0  0  0  0  0  0  0  0
   14.8245   71.3027   -8.2098 H   0  0  0  0  0  0  0  0  0  0  0  0
   14.5172   71.5227   -6.3548 H   0  0  0  0  0  0  0  0  0  0  0  0
   17.6716   71.4110  -10.0235 H   0  0  0  0  0  0  0  0  0  0  0  0
   16.3190   69.9253   -3.9336 O   0  0  0  0  0  0  0  0  0  0  0  0
   17.4347   70.7964   -3.9073 C   0  0  0  0  0  0  0  0  0  0  0  0
   16.1894   69.5403   -3.0523 H   0  0  0  0  0  0  0  0  0  0  0  0
 25 28  1  0
 25 24  1  0
 25 26  1  6
 25 27  2  0
  1  4  1  0
  1 24  1  0
  1  2  1  6
  1  3  2  0
  6 11  1  0
  6 12  1  0
 29 36  1  0
 29 37  1  0
  9  7  1  1
  7 13  1  0
 10  8  1  1
  8 14  1  0
 37 28  1  1
  4  5  1  0
 33 30  1  6
 30 38  1  0
 34 31  1  1
 31 39  1  0
 35 32  1  6
 32 40  1  0
 41 42  1  0
 41 43  1  0
 15 19  2  0
 16 22  2  0
 12 17  1  6
 17 19  1  0
 17 20  1  0
 18 19  1  0
 18 22  1  0
 18 23  1  0
  9 10  1  0
  9 11  1  0
 10 12  1  0
 11  5  1  6
 33 34  1  0
 33 35  1  0
 34 36  1  0
 35 37  1  0
 36 42  1  1
 20 21  2  0
 21 22  1  0
M  CHG  2   2  -1  26  -1
M  END
>  <COMPND>  (150) 
    8629 

>  <AUTHOR>  (150) 
    GENERATED BY OPEN BABEL 3.1.1

>  <MASTER>  (150) 
        0    0    0    0    0    0    0    0   58    0   58    0

>  <minimizedAffinity>  (150) 
-7.67624

>  <CNNscore>  (150) 
0.3796270490

>  <CNNaffinity>  (150) 
4.1553483009

>  <CNN_VS>  (150) 
1.5774825811

>  <CNNaffinity_variance>  (150) 
0.0756049901

$$$$
151
     RDKit          3D

 43 45  0  0  0  0  0  0  0  0999 V2000
   20.3175   74.0078   -3.3529 P   0  0  2  0  0  0  0  0  0  0  0  0
   20.2333   74.0290   -1.7374 O   0  0  0  0  0  0  0  0  0  0  0  0
   19.1754   74.6806   -4.0559 O   0  0  0  0  0  0  0  0  0  0  0  0
   20.5400   72.4454   -3.7098 O   0  0  0  0  0  0  0  0  0  0  0  0
   19.4456   71.7071   -4.2245 C   0  0  0  0  0  0  0  0  0  0  0  0
   18.7809   70.3511   -6.0936 O   0  0  0  0  0  0  0  0  0  0  0  0
   21.6078   70.6223   -7.0559 O   0  0  0  0  0  0  0  0  0  0  0  0
   20.2787   72.4378   -8.5966 O   0  0  0  0  0  0  0  0  0  0  0  0
   20.7891   71.5760   -6.3812 C   0  0  1  0  0  0  0  0  0  0  0  0
   19.7435   72.1327   -7.3249 C   0  0  2  0  0  0  0  0  0  0  0  0
   19.9348   70.8266   -5.3663 C   0  0  1  0  0  0  0  0  0  0  0  0
   18.7292   71.0026   -7.3733 C   0  0  2  0  0  0  0  0  0  0  0  0
   22.1629   71.0774   -7.7091 H   0  0  0  0  0  0  0  0  0  0  0  0
   20.9183   73.1622   -8.5131 H   0  0  0  0  0  0  0  0  0  0  0  0
   16.6369   69.4251   -8.4275 O   0  0  0  0  0  0  0  0  0  0  0  0
   13.6437   72.9229   -8.2098 O   0  0  0  0  0  0  0  0  0  0  0  0
   17.3930   71.4755   -7.6022 N   0  0  0  0  0  0  0  0  0  0  0  0
   15.1482   71.1680   -8.3181 N   0  0  0  0  0  0  0  0  0  0  0  0
   16.4167   70.6025   -8.1362 C   0  0  0  0  0  0  0  0  0  0  0  0
   17.0619   72.7913   -7.2976 C   0  0  0  0  0  0  0  0  0  0  0  0
   15.8479   73.3155   -7.4781 C   0  0  0  0  0  0  0  0  0  0  0  0
   14.7704   72.4703   -8.0319 C   0  0  0  0  0  0  0  0  0  0  0  0
   14.4521   70.5786   -8.6893 H   0  0  0  0  0  0  0  0  0  0  0  0
   21.7673   74.6583   -3.6498 O   0  0  0  0  0  0  0  0  0  0  0  0
   23.2584   74.1032   -3.3644 P   0  0  2  0  0  0  0  0  0  0  0  0
   24.1327   75.4549   -3.2021 O   0  0  0  0  0  0  0  0  0  0  0  0
   23.7724   73.1550   -4.4087 O   0  0  0  0  0  0  0  0  0  0  0  0
   23.1857   73.4836   -1.8759 O   0  0  0  0  0  0  0  0  0  0  0  0
   25.0632   72.2424   -1.1337 O   0  0  0  0  0  0  0  0  0  0  0  0
   22.2791   70.9390    1.6232 O   0  0  0  0  0  0  0  0  0  0  0  0
   24.3600   72.7369    2.4509 O   0  0  0  0  0  0  0  0  0  0  0  0
   21.4922   71.3744   -1.1284 O   0  0  0  0  0  0  0  0  0  0  0  0
   22.9073   71.8842    0.7529 C   0  0  1  0  0  0  0  0  0  0  0  0
   24.3605   72.0553    1.1997 C   0  0  1  0  0  0  0  0  0  0  0  0
   22.8436   71.3615   -0.6810 C   0  0  2  0  0  0  0  0  0  0  0  0
   25.1699   72.8443    0.1617 C   0  0  1  0  0  0  0  0  0  0  0  0
   23.7217   72.1875   -1.6228 C   0  0  1  0  0  0  0  0  0  0  0  0
   22.3156   71.2651    2.5352 H   0  0  0  0  0  0  0  0  0  0  0  0
   23.8452   72.2286    3.0972 H   0  0  0  0  0  0  0  0  0  0  0  0
   20.9467   70.8479   -0.5241 H   0  0  0  0  0  0  0  0  0  0  0  0
   26.8928   72.0043    1.5883 O   0  0  0  0  0  0  0  0  0  0  0  0
   26.6559   72.8914    0.5107 C   0  0  0  0  0  0  0  0  0  0  0  0
   27.8346   72.0235    1.8211 H   0  0  0  0  0  0  0  0  0  0  0  0
 25 28  1  0
 25 24  1  0
 25 26  1  1
 25 27  2  0
  1  4  1  0
  1 24  1  0
  1  2  1  1
  1  3  2  0
  6 11  1  0
  6 12  1  0
 29 36  1  0
 29 37  1  0
  9  7  1  6
  7 13  1  0
 10  8  1  6
  8 14  1  0
 37 28  1  1
  4  5  1  0
 33 30  1  1
 30 38  1  0
 34 31  1  1
 31 39  1  0
 35 32  1  6
 32 40  1  0
 41 42  1  0
 41 43  1  0
 15 19  2  0
 16 22  2  0
 12 17  1  1
 17 19  1  0
 17 20  1  0
 18 19  1  0
 18 22  1  0
 18 23  1  0
  9 10  1  0
  9 11  1  0
 10 12  1  0
 11  5  1  1
 33 34  1  0
 33 35  1  0
 34 36  1  0
 35 37  1  0
 36 42  1  1
 20 21  2  0
 21 22  1  0
M  CHG  2   2  -1  26  -1
M  END
>  <COMPND>  (151) 
    8629 

>  <AUTHOR>  (151) 
    GENERATED BY OPEN BABEL 3.1.1

>  <MASTER>  (151) 
        0    0    0    0    0    0    0    0   58    0   58    0

>  <minimizedAffinity>  (151) 
-6.66033

>  <CNNscore>  (151) 
0.3600206673

>  <CNNaffinity>  (151) 
4.1551508904

>  <CNN_VS>  (151) 
1.4959402084

>  <CNNaffinity_variance>  (151) 
0.0538690202

$$$$
152
     RDKit          3D

 43 45  0  0  0  0  0  0  0  0999 V2000
   22.0626   72.6821   -4.3903 P   0  0  2  0  0  0  0  0  0  0  0  0
   21.6290   71.1343   -4.2069 O   0  0  0  0  0  0  0  0  0  0  0  0
   23.4981   72.8974   -4.7702 O   0  0  0  0  0  0  0  0  0  0  0  0
   21.5874   73.3845   -3.0124 O   0  0  0  0  0  0  0  0  0  0  0  0
   22.5608   73.6470   -2.0167 C   0  0  0  0  0  0  0  0  0  0  0  0
   24.1904   72.2863   -0.8912 O   0  0  0  0  0  0  0  0  0  0  0  0
   21.8796   71.0600    0.5741 O   0  0  0  0  0  0  0  0  0  0  0  0
   22.8799   72.8161    2.4050 O   0  0  0  0  0  0  0  0  0  0  0  0
   22.0655   72.4096    0.1505 C   0  0  1  0  0  0  0  0  0  0  0  0
   23.0792   73.1037    1.0359 C   0  0  2  0  0  0  0  0  0  0  0  0
   22.7816   72.3849   -1.1941 C   0  0  1  0  0  0  0  0  0  0  0  0
   24.3912   72.5496    0.5071 C   0  0  2  0  0  0  0  0  0  0  0  0
   21.4237   71.0501    1.4308 H   0  0  0  0  0  0  0  0  0  0  0  0
   22.0325   73.1892    2.6939 H   0  0  0  0  0  0  0  0  0  0  0  0
   26.8345   71.9534    1.7927 O   0  0  0  0  0  0  0  0  0  0  0  0
   28.4851   76.1865    1.0195 O   0  0  0  0  0  0  0  0  0  0  0  0
   25.4771   73.4771    0.6557 N   0  0  0  0  0  0  0  0  0  0  0  0
   27.6545   74.0616    1.4065 N   0  0  0  0  0  0  0  0  0  0  0  0
   26.6610   73.0781    1.3188 C   0  0  0  0  0  0  0  0  0  0  0  0
   25.3620   74.7661    0.1466 C   0  0  0  0  0  0  0  0  0  0  0  0
   26.3182   75.6925    0.2396 C   0  0  0  0  0  0  0  0  0  0  0  0
   27.5869   75.3566    0.9176 C   0  0  0  0  0  0  0  0  0  0  0  0
   28.4880   73.8064    1.8646 H   0  0  0  0  0  0  0  0  0  0  0  0
   20.9915   73.2343   -5.4677 O   0  0  0  0  0  0  0  0  0  0  0  0
   20.9418   73.1034   -7.0781 P   0  0  2  0  0  0  0  0  0  0  0  0
   21.8442   71.7931   -7.3719 O   0  0  0  0  0  0  0  0  0  0  0  0
   21.3850   74.3372   -7.8097 O   0  0  0  0  0  0  0  0  0  0  0  0
   19.4308   72.6392   -7.4039 O   0  0  0  0  0  0  0  0  0  0  0  0
   18.8350   70.7670   -6.0785 O   0  0  0  0  0  0  0  0  0  0  0  0
   15.5374   70.8945   -8.5604 O   0  0  0  0  0  0  0  0  0  0  0  0
   15.2778   71.6974   -5.8153 O   0  0  0  0  0  0  0  0  0  0  0  0
   18.1671   71.4745   -9.6224 O   0  0  0  0  0  0  0  0  0  0  0  0
   16.6079   71.4431   -7.7868 C   0  0  1  0  0  0  0  0  0  0  0  0
   16.4166   71.0136   -6.3309 C   0  0  1  0  0  0  0  0  0  0  0  0
   17.9360   70.9207   -8.3314 C   0  0  2  0  0  0  0  0  0  0  0  0
   17.6594   71.3359   -5.4904 C   0  0  1  0  0  0  0  0  0  0  0  0
   19.0999   71.2529   -7.3959 C   0  0  1  0  0  0  0  0  0  0  0  0
   14.6912   71.2226   -8.2201 H   0  0  0  0  0  0  0  0  0  0  0  0
   14.5001   71.4856   -6.3552 H   0  0  0  0  0  0  0  0  0  0  0  0
   17.4236   71.2570  -10.2052 H   0  0  0  0  0  0  0  0  0  0  0  0
   18.8460   70.3894   -3.6451 O   0  0  0  0  0  0  0  0  0  0  0  0
   17.5531   70.7751   -4.0739 C   0  0  0  0  0  0  0  0  0  0  0  0
   18.7938   70.0308   -2.7449 H   0  0  0  0  0  0  0  0  0  0  0  0
 25 28  1  0
 25 24  1  0
 25 26  1  6
 25 27  2  0
  1  4  1  0
  1 24  1  0
  1  2  1  1
  1  3  2  0
  6 11  1  0
  6 12  1  0
 29 36  1  0
 29 37  1  0
  9  7  1  1
  7 13  1  0
 10  8  1  1
  8 14  1  0
 37 28  1  1
  4  5  1  0
 33 30  1  6
 30 38  1  0
 34 31  1  1
 31 39  1  0
 35 32  1  6
 32 40  1  0
 41 42  1  0
 41 43  1  0
 15 19  2  0
 16 22  2  0
 12 17  1  6
 17 19  1  0
 17 20  1  0
 18 19  1  0
 18 22  1  0
 18 23  1  0
  9 10  1  0
  9 11  1  0
 10 12  1  0
 11  5  1  1
 33 34  1  0
 33 35  1  0
 34 36  1  0
 35 37  1  0
 36 42  1  1
 20 21  2  0
 21 22  1  0
M  CHG  2   2  -1  26  -1
M  END
>  <COMPND>  (152) 
    8629 

>  <AUTHOR>  (152) 
    GENERATED BY OPEN BABEL 3.1.1

>  <MASTER>  (152) 
        0    0    0    0    0    0    0    0   58    0   58    0

>  <minimizedAffinity>  (152) 
-6.99624

>  <CNNscore>  (152) 
0.3315224946

>  <CNNaffinity>  (152) 
4.0818223953

>  <CNN_VS>  (152) 
1.3532159328

>  <CNNaffinity_variance>  (152) 
0.1908749044

$$$$
153
     RDKit          3D

 43 45  0  0  0  0  0  0  0  0999 V2000
   21.1814   72.1253   -5.1732 P   0  0  2  0  0  0  0  0  0  0  0  0
   20.3176   73.1970   -4.3230 O   0  0  0  0  0  0  0  0  0  0  0  0
   22.1802   72.7241   -6.1194 O   0  0  0  0  0  0  0  0  0  0  0  0
   20.0619   71.1698   -5.8453 O   0  0  0  0  0  0  0  0  0  0  0  0
   19.2072   71.7206   -6.8322 C   0  0  0  0  0  0  0  0  0  0  0  0
   17.7086   70.1278   -5.8366 O   0  0  0  0  0  0  0  0  0  0  0  0
   16.0137   70.4729   -8.2859 O   0  0  0  0  0  0  0  0  0  0  0  0
   14.7232   72.0192   -6.4474 O   0  0  0  0  0  0  0  0  0  0  0  0
   16.7929   71.4403   -7.5843 C   0  0  1  0  0  0  0  0  0  0  0  0
   16.1130   71.8217   -6.2859 C   0  0  2  0  0  0  0  0  0  0  0  0
   18.0599   70.7535   -7.0902 C   0  0  1  0  0  0  0  0  0  0  0  0
   16.4352   70.6303   -5.3998 C   0  0  2  0  0  0  0  0  0  0  0  0
   15.1992   70.8883   -8.6114 H   0  0  0  0  0  0  0  0  0  0  0  0
   14.5700   72.7880   -7.0186 H   0  0  0  0  0  0  0  0  0  0  0  0
   14.2304   71.3601   -3.7923 O   0  0  0  0  0  0  0  0  0  0  0  0
   16.9032   71.9858   -0.0901 O   0  0  0  0  0  0  0  0  0  0  0  0
   16.5261   70.9884   -4.0124 N   0  0  0  0  0  0  0  0  0  0  0  0
   15.5630   71.6709   -1.9501 N   0  0  0  0  0  0  0  0  0  0  0  0
   15.3585   71.3399   -3.2958 C   0  0  0  0  0  0  0  0  0  0  0  0
   17.7628   70.9882   -3.3763 C   0  0  0  0  0  0  0  0  0  0  0  0
   17.9410   71.3076   -2.0928 C   0  0  0  0  0  0  0  0  0  0  0  0
   16.7721   71.6868   -1.2730 C   0  0  0  0  0  0  0  0  0  0  0  0
   14.7639   71.9195   -1.4311 H   0  0  0  0  0  0  0  0  0  0  0  0
   21.8220   71.1832   -4.0264 O   0  0  0  0  0  0  0  0  0  0  0  0
   23.0926   71.4102   -3.0533 P   0  0  2  0  0  0  0  0  0  0  0  0
   24.0506   72.3877   -3.9160 O   0  0  0  0  0  0  0  0  0  0  0  0
   23.7525   70.1414   -2.5967 O   0  0  0  0  0  0  0  0  0  0  0  0
   22.5315   72.3396   -1.8589 O   0  0  0  0  0  0  0  0  0  0  0  0
   22.0892   71.0133    0.0546 O   0  0  0  0  0  0  0  0  0  0  0  0
   20.5208   74.6022    1.3625 O   0  0  0  0  0  0  0  0  0  0  0  0
   22.9931   73.6480    2.4692 O   0  0  0  0  0  0  0  0  0  0  0  0
   20.1781   73.7966   -1.3967 O   0  0  0  0  0  0  0  0  0  0  0  0
   21.4366   73.7606    0.6566 C   0  0  1  0  0  0  0  0  0  0  0  0
   22.1270   72.8464    1.6707 C   0  0  1  0  0  0  0  0  0  0  0  0
   20.6654   72.9363   -0.3726 C   0  0  2  0  0  0  0  0  0  0  0  0
   22.9221   71.7387    0.9666 C   0  0  1  0  0  0  0  0  0  0  0  0
   21.5340   71.8315   -0.9769 C   0  0  1  0  0  0  0  0  0  0  0  0
   21.0042   75.1287    2.0172 H   0  0  0  0  0  0  0  0  0  0  0  0
   22.4787   74.3438    2.9079 H   0  0  0  0  0  0  0  0  0  0  0  0
   19.6296   74.4913   -1.0014 H   0  0  0  0  0  0  0  0  0  0  0  0
   22.6306   70.6654    3.0814 O   0  0  0  0  0  0  0  0  0  0  0  0
   23.4889   70.7237    1.9570 C   0  0  0  0  0  0  0  0  0  0  0  0
   22.9786   70.0231    3.7201 H   0  0  0  0  0  0  0  0  0  0  0  0
 25 28  1  0
 25 24  1  0
 25 26  1  6
 25 27  2  0
  1  4  1  0
  1 24  1  0
  1  2  1  1
  1  3  2  0
  6 11  1  0
  6 12  1  0
 29 36  1  0
 29 37  1  0
  9  7  1  1
  7 13  1  0
 10  8  1  6
  8 14  1  0
 37 28  1  1
  4  5  1  0
 33 30  1  1
 30 38  1  0
 34 31  1  6
 31 39  1  0
 35 32  1  6
 32 40  1  0
 41 42  1  0
 41 43  1  0
 15 19  2  0
 16 22  2  0
 12 17  1  1
 17 19  1  0
 17 20  1  0
 18 19  1  0
 18 22  1  0
 18 23  1  0
  9 10  1  0
  9 11  1  0
 10 12  1  0
 11  5  1  1
 33 34  1  0
 33 35  1  0
 34 36  1  0
 35 37  1  0
 36 42  1  1
 20 21  2  0
 21 22  1  0
M  CHG  2   2  -1  26  -1
M  END
>  <COMPND>  (153) 
    8629 

>  <AUTHOR>  (153) 
    GENERATED BY OPEN BABEL 3.1.1

>  <MASTER>  (153) 
        0    0    0    0    0    0    0    0   58    0   58    0

>  <minimizedAffinity>  (153) 
-6.14161

>  <CNNscore>  (153) 
0.2999849617

>  <CNNaffinity>  (153) 
3.9171595573

>  <CNN_VS>  (153) 
1.1750890017

>  <CNNaffinity_variance>  (153) 
0.2762876153

$$$$
154
     RDKit          3D

 43 45  0  0  0  0  0  0  0  0999 V2000
   20.2413   70.9679   -2.2443 P   0  0  2  0  0  0  0  0  0  0  0  0
   20.7128   70.8922   -0.6985 O   0  0  0  0  0  0  0  0  0  0  0  0
   20.7987   69.8927   -3.1302 O   0  0  0  0  0  0  0  0  0  0  0  0
   20.5856   72.4872   -2.6814 O   0  0  0  0  0  0  0  0  0  0  0  0
   21.3764   73.2783   -1.8116 C   0  0  0  0  0  0  0  0  0  0  0  0
   23.6141   74.1194   -1.5681 O   0  0  0  0  0  0  0  0  0  0  0  0
   24.0611   73.2149   -4.3917 O   0  0  0  0  0  0  0  0  0  0  0  0
   25.2319   71.2265   -2.9383 O   0  0  0  0  0  0  0  0  0  0  0  0
   23.2783   72.6099   -3.3638 C   0  0  1  0  0  0  0  0  0  0  0  0
   24.1764   71.9498   -2.3386 C   0  0  2  0  0  0  0  0  0  0  0  0
   22.6313   73.7236   -2.5499 C   0  0  1  0  0  0  0  0  0  0  0  0
   24.6673   73.1423   -1.5353 C   0  0  2  0  0  0  0  0  0  0  0  0
   24.4841   72.5231   -4.9252 H   0  0  0  0  0  0  0  0  0  0  0  0
   24.8686   70.4785   -3.4375 H   0  0  0  0  0  0  0  0  0  0  0  0
   27.2503   72.6262   -0.5159 O   0  0  0  0  0  0  0  0  0  0  0  0
   25.6214   71.8529    3.7255 O   0  0  0  0  0  0  0  0  0  0  0  0
   24.9472   72.8041   -0.1684 N   0  0  0  0  0  0  0  0  0  0  0  0
   26.4372   72.2417    1.5952 N   0  0  0  0  0  0  0  0  0  0  0  0
   26.2794   72.5631    0.2410 C   0  0  0  0  0  0  0  0  0  0  0  0
   23.9070   72.7147    0.7503 C   0  0  0  0  0  0  0  0  0  0  0  0
   24.0741   72.4059    2.0380 C   0  0  0  0  0  0  0  0  0  0  0  0
   25.4349   72.1393    2.5469 C   0  0  0  0  0  0  0  0  0  0  0  0
   27.3565   72.0693    1.9030 H   0  0  0  0  0  0  0  0  0  0  0  0
   18.6288   70.9786   -2.1323 O   0  0  0  0  0  0  0  0  0  0  0  0
   17.4875   71.1639   -3.2620 P   0  0  2  0  0  0  0  0  0  0  0  0
   16.7534   72.5381   -2.8258 O   0  0  0  0  0  0  0  0  0  0  0  0
   16.5656   69.9875   -3.4042 O   0  0  0  0  0  0  0  0  0  0  0  0
   18.2992   71.5437   -4.6043 O   0  0  0  0  0  0  0  0  0  0  0  0
   17.6172   69.9564   -6.2266 O   0  0  0  0  0  0  0  0  0  0  0  0
   20.2815   72.1317   -8.5113 O   0  0  0  0  0  0  0  0  0  0  0  0
   17.4616   72.3905   -8.9906 O   0  0  0  0  0  0  0  0  0  0  0  0
   20.8699   71.5927   -5.7287 O   0  0  0  0  0  0  0  0  0  0  0  0
   19.2821   71.9374   -7.5069 C   0  0  1  0  0  0  0  0  0  0  0  0
   18.0313   71.3674   -8.1787 C   0  0  1  0  0  0  0  0  0  0  0  0
   19.8153   70.9685   -6.4531 C   0  0  2  0  0  0  0  0  0  0  0  0
   17.0141   70.8840   -7.1363 C   0  0  1  0  0  0  0  0  0  0  0  0
   18.7126   70.5118   -5.4963 C   0  0  1  0  0  0  0  0  0  0  0  0
   19.9494   72.7463   -9.1833 H   0  0  0  0  0  0  0  0  0  0  0  0
   18.1143   72.6873   -9.6441 H   0  0  0  0  0  0  0  0  0  0  0  0
   21.5617   71.8769   -6.3456 H   0  0  0  0  0  0  0  0  0  0  0  0
   15.0311   71.1317   -8.4460 O   0  0  0  0  0  0  0  0  0  0  0  0
   15.8292   70.1691   -7.7821 C   0  0  0  0  0  0  0  0  0  0  0  0
   14.2732   70.6910   -8.8621 H   0  0  0  0  0  0  0  0  0  0  0  0
 25 28  1  0
 25 24  1  0
 25 26  1  1
 25 27  2  0
  1  4  1  0
  1 24  1  0
  1  2  1  1
  1  3  2  0
  6 11  1  0
  6 12  1  0
 29 36  1  0
 29 37  1  0
  9  7  1  6
  7 13  1  0
 10  8  1  6
  8 14  1  0
 37 28  1  6
  4  5  1  0
 33 30  1  6
 30 38  1  0
 34 31  1  1
 31 39  1  0
 35 32  1  1
 32 40  1  0
 41 42  1  0
 41 43  1  0
 15 19  2  0
 16 22  2  0
 12 17  1  1
 17 19  1  0
 17 20  1  0
 18 19  1  0
 18 22  1  0
 18 23  1  0
  9 10  1  0
  9 11  1  0
 10 12  1  0
 11  5  1  1
 33 34  1  0
 33 35  1  0
 34 36  1  0
 35 37  1  0
 36 42  1  6
 20 21  2  0
 21 22  1  0
M  CHG  2   2  -1  26  -1
M  END
>  <COMPND>  (154) 
    8629 

>  <AUTHOR>  (154) 
    GENERATED BY OPEN BABEL 3.1.1

>  <MASTER>  (154) 
        0    0    0    0    0    0    0    0   58    0   58    0

>  <minimizedAffinity>  (154) 
-7.73208

>  <CNNscore>  (154) 
0.2975915670

>  <CNNaffinity>  (154) 
4.0315828323

>  <CNN_VS>  (154) 
1.1997650862

>  <CNNaffinity_variance>  (154) 
0.1710438281

$$$$
155
     RDKit          3D

 43 45  0  0  0  0  0  0  0  0999 V2000
   22.5631   72.4465   -3.9358 P   0  0  2  0  0  0  0  0  0  0  0  0
   22.6750   71.2632   -2.8383 O   0  0  0  0  0  0  0  0  0  0  0  0
   23.8752   72.9448   -4.4665 O   0  0  0  0  0  0  0  0  0  0  0  0
   21.6291   73.5554   -3.2176 O   0  0  0  0  0  0  0  0  0  0  0  0
   22.2451   74.7124   -2.6795 C   0  0  0  0  0  0  0  0  0  0  0  0
   20.7192   74.5003   -0.8355 O   0  0  0  0  0  0  0  0  0  0  0  0
   20.8317   77.4903   -0.6413 O   0  0  0  0  0  0  0  0  0  0  0  0
   22.5073   76.7012    1.3602 O   0  0  0  0  0  0  0  0  0  0  0  0
   21.8663   76.5687   -0.9813 C   0  0  1  0  0  0  0  0  0  0  0  0
   22.3450   75.8362    0.2547 C   0  0  2  0  0  0  0  0  0  0  0  0
   21.2425   75.4429   -1.7967 C   0  0  1  0  0  0  0  0  0  0  0  0
   21.2373   74.8182    0.4665 C   0  0  2  0  0  0  0  0  0  0  0  0
   21.2060   78.2186   -0.1204 H   0  0  0  0  0  0  0  0  0  0  0  0
   23.2230   77.3296    1.1769 H   0  0  0  0  0  0  0  0  0  0  0  0
   21.3883   74.4125    3.2577 O   0  0  0  0  0  0  0  0  0  0  0  0
   23.0758   70.1560    2.7321 O   0  0  0  0  0  0  0  0  0  0  0  0
   21.7119   73.6133    1.0865 N   0  0  0  0  0  0  0  0  0  0  0  0
   22.2282   72.2934    2.9937 N   0  0  0  0  0  0  0  0  0  0  0  0
   21.7483   73.5118    2.4968 C   0  0  0  0  0  0  0  0  0  0  0  0
   22.1345   72.5484    0.2983 C   0  0  0  0  0  0  0  0  0  0  0  0
   22.5907   71.3936    0.7878 C   0  0  0  0  0  0  0  0  0  0  0  0
   22.6610   71.2060    2.2513 C   0  0  0  0  0  0  0  0  0  0  0  0
   22.2630   72.1999    3.9734 H   0  0  0  0  0  0  0  0  0  0  0  0
   21.5819   71.8139   -5.0538 O   0  0  0  0  0  0  0  0  0  0  0  0
   20.9784   72.4431   -6.4150 P   0  0  2  0  0  0  0  0  0  0  0  0
   21.9530   71.8496   -7.5620 O   0  0  0  0  0  0  0  0  0  0  0  0
   20.8723   73.9406   -6.4065 O   0  0  0  0  0  0  0  0  0  0  0  0
   19.5762   71.6744   -6.6337 O   0  0  0  0  0  0  0  0  0  0  0  0
   17.6313   73.0279   -6.6790 O   0  0  0  0  0  0  0  0  0  0  0  0
   15.8588   69.3453   -6.0889 O   0  0  0  0  0  0  0  0  0  0  0  0
   15.6367   70.6323   -8.6467 O   0  0  0  0  0  0  0  0  0  0  0  0
   18.3541   69.9758   -4.7639 O   0  0  0  0  0  0  0  0  0  0  0  0
   16.8323   70.2543   -6.6099 C   0  0  1  0  0  0  0  0  0  0  0  0
   16.1084   71.2891   -7.4735 C   0  0  1  0  0  0  0  0  0  0  0  0
   17.5533   70.9339   -5.4473 C   0  0  2  0  0  0  0  0  0  0  0  0
   17.0418   72.4480   -7.8487 C   0  0  1  0  0  0  0  0  0  0  0  0
   18.4168   72.1031   -5.9242 C   0  0  1  0  0  0  0  0  0  0  0  0
   15.3977   68.9100   -6.8220 H   0  0  0  0  0  0  0  0  0  0  0  0
   15.0488   69.9024   -8.3959 H   0  0  0  0  0  0  0  0  0  0  0  0
   17.7958   69.2409   -4.4668 H   0  0  0  0  0  0  0  0  0  0  0  0
   16.2147   73.2319   -9.9488 O   0  0  0  0  0  0  0  0  0  0  0  0
   16.3001   73.5674   -8.5760 C   0  0  0  0  0  0  0  0  0  0  0  0
   15.7447   73.9353  -10.4243 H   0  0  0  0  0  0  0  0  0  0  0  0
 25 28  1  0
 25 24  1  0
 25 26  1  6
 25 27  2  0
  1  4  1  0
  1 24  1  0
  1  2  1  1
  1  3  2  0
  6 11  1  0
  6 12  1  0
 29 36  1  0
 29 37  1  0
  9  7  1  1
  7 13  1  0
 10  8  1  1
  8 14  1  0
 37 28  1  6
  4  5  1  0
 33 30  1  1
 30 38  1  0
 34 31  1  6
 31 39  1  0
 35 32  1  6
 32 40  1  0
 41 42  1  0
 41 43  1  0
 15 19  2  0
 16 22  2  0
 12 17  1  6
 17 19  1  0
 17 20  1  0
 18 19  1  0
 18 22  1  0
 18 23  1  0
  9 10  1  0
  9 11  1  0
 10 12  1  0
 11  5  1  1
 33 34  1  0
 33 35  1  0
 34 36  1  0
 35 37  1  0
 36 42  1  1
 20 21  2  0
 21 22  1  0
M  CHG  2   2  -1  26  -1
M  END
>  <COMPND>  (155) 
    8629 

>  <AUTHOR>  (155) 
    GENERATED BY OPEN BABEL 3.1.1

>  <MASTER>  (155) 
        0    0    0    0    0    0    0    0   58    0   58    0

>  <minimizedAffinity>  (155) 
-6.78677

>  <CNNscore>  (155) 
0.2829982340

>  <CNNaffinity>  (155) 
3.8202290535

>  <CNN_VS>  (155) 
1.0811181068

>  <CNNaffinity_variance>  (155) 
0.1957342476

$$$$
156
     RDKit          3D

 43 45  0  0  0  0  0  0  0  0999 V2000
   22.4456   73.2932   -4.1998 P   0  0  2  0  0  0  0  0  0  0  0  0
   23.9758   72.8292   -4.4458 O   0  0  0  0  0  0  0  0  0  0  0  0
   21.9308   74.3183   -5.1671 O   0  0  0  0  0  0  0  0  0  0  0  0
   22.4157   73.7217   -2.6398 O   0  0  0  0  0  0  0  0  0  0  0  0
   23.5666   73.4788   -1.8498 C   0  0  0  0  0  0  0  0  0  0  0  0
   24.3662   72.2208    0.0349 O   0  0  0  0  0  0  0  0  0  0  0  0
   21.5853   71.1186    0.2414 O   0  0  0  0  0  0  0  0  0  0  0  0
   21.6155   73.0248    2.1913 O   0  0  0  0  0  0  0  0  0  0  0  0
   22.0114   72.4279   -0.1321 C   0  0  1  0  0  0  0  0  0  0  0  0
   22.4794   73.1961    1.0863 C   0  0  2  0  0  0  0  0  0  0  0  0
   23.2987   72.2910   -0.9356 C   0  0  1  0  0  0  0  0  0  0  0  0
   23.8572   72.6016    1.3236 C   0  0  2  0  0  0  0  0  0  0  0  0
   20.7644   71.1803    0.7555 H   0  0  0  0  0  0  0  0  0  0  0  0
   20.7524   73.4195    1.9914 H   0  0  0  0  0  0  0  0  0  0  0  0
   25.9750   71.8933    3.0531 O   0  0  0  0  0  0  0  0  0  0  0  0
   27.2668   76.2872    3.5687 O   0  0  0  0  0  0  0  0  0  0  0  0
   24.7628   73.5402    1.9239 N   0  0  0  0  0  0  0  0  0  0  0  0
   26.6166   74.0817    3.3083 N   0  0  0  0  0  0  0  0  0  0  0  0
   25.7919   73.0810    2.7785 C   0  0  0  0  0  0  0  0  0  0  0  0
   24.6257   74.8993    1.6630 C   0  0  0  0  0  0  0  0  0  0  0  0
   25.4196   75.8409    2.1771 C   0  0  0  0  0  0  0  0  0  0  0  0
   26.5198   75.4452    3.0799 C   0  0  0  0  0  0  0  0  0  0  0  0
   27.3403   73.7853    3.9067 H   0  0  0  0  0  0  0  0  0  0  0  0
   21.6358   71.8942   -4.2078 O   0  0  0  0  0  0  0  0  0  0  0  0
   20.1910   71.5004   -3.5992 P   0  0  2  0  0  0  0  0  0  0  0  0
   19.5529   72.9330   -3.2017 O   0  0  0  0  0  0  0  0  0  0  0  0
   20.2476   70.5129   -2.4698 O   0  0  0  0  0  0  0  0  0  0  0  0
   19.3306   71.0104   -4.8737 O   0  0  0  0  0  0  0  0  0  0  0  0
   19.5963   72.6815   -6.5330 O   0  0  0  0  0  0  0  0  0  0  0  0
   17.0397   70.1457   -8.5539 O   0  0  0  0  0  0  0  0  0  0  0  0
   19.7982   70.2985   -9.3383 O   0  0  0  0  0  0  0  0  0  0  0  0
   16.6866   70.5908   -5.7155 O   0  0  0  0  0  0  0  0  0  0  0  0
   18.1041   70.4816   -7.6598 C   0  0  1  0  0  0  0  0  0  0  0  0
   19.1792   71.2274   -8.4527 C   0  0  1  0  0  0  0  0  0  0  0  0
   17.5552   71.3620   -6.5386 C   0  0  2  0  0  0  0  0  0  0  0  0
   20.2238   71.8520   -7.5179 C   0  0  1  0  0  0  0  0  0  0  0  0
   18.6784   71.9725   -5.6985 C   0  0  1  0  0  0  0  0  0  0  0  0
   17.3814   69.5864   -9.2680 H   0  0  0  0  0  0  0  0  0  0  0  0
   19.1277   69.9111   -9.9227 H   0  0  0  0  0  0  0  0  0  0  0  0
   15.9799   70.2101   -6.2590 H   0  0  0  0  0  0  0  0  0  0  0  0
   20.8847   74.0878   -8.0405 O   0  0  0  0  0  0  0  0  0  0  0  0
   21.2160   72.7316   -8.2754 C   0  0  0  0  0  0  0  0  0  0  0  0
   21.5081   74.6594   -8.5162 H   0  0  0  0  0  0  0  0  0  0  0  0
 25 28  1  0
 25 24  1  0
 25 26  1  1
 25 27  2  0
  1  4  1  0
  1 24  1  0
  1  2  1  6
  1  3  2  0
  6 11  1  0
  6 12  1  0
 29 36  1  0
 29 37  1  0
  9  7  1  1
  7 13  1  0
 10  8  1  1
  8 14  1  0
 37 28  1  6
  4  5  1  0
 33 30  1  6
 30 38  1  0
 34 31  1  6
 31 39  1  0
 35 32  1  1
 32 40  1  0
 41 42  1  0
 41 43  1  0
 15 19  2  0
 16 22  2  0
 12 17  1  6
 17 19  1  0
 17 20  1  0
 18 19  1  0
 18 22  1  0
 18 23  1  0
  9 10  1  0
  9 11  1  0
 10 12  1  0
 11  5  1  6
 33 34  1  0
 33 35  1  0
 34 36  1  0
 35 37  1  0
 36 42  1  6
 20 21  2  0
 21 22  1  0
M  CHG  2   2  -1  26  -1
M  END
>  <COMPND>  (156) 
    8629 

>  <AUTHOR>  (156) 
    GENERATED BY OPEN BABEL 3.1.1

>  <MASTER>  (156) 
        0    0    0    0    0    0    0    0   58    0   58    0

>  <minimizedAffinity>  (156) 
-6.02687

>  <CNNscore>  (156) 
0.2809964418

>  <CNNaffinity>  (156) 
4.0319547653

>  <CNN_VS>  (156) 
1.1329649687

>  <CNNaffinity_variance>  (156) 
0.1667489111

$$$$
157
     RDKit          3D

 43 45  0  0  0  0  0  0  0  0999 V2000
   22.4917   73.6132   -4.2068 P   0  0  2  0  0  0  0  0  0  0  0  0
   23.8720   72.8343   -4.5313 O   0  0  0  0  0  0  0  0  0  0  0  0
   22.4484   75.0424   -4.6617 O   0  0  0  0  0  0  0  0  0  0  0  0
   22.2738   73.3735   -2.6216 O   0  0  0  0  0  0  0  0  0  0  0  0
   21.2499   72.4863   -2.2064 C   0  0  0  0  0  0  0  0  0  0  0  0
   20.1990   72.6528   -0.0519 O   0  0  0  0  0  0  0  0  0  0  0  0
   19.4326   75.4399   -0.8491 O   0  0  0  0  0  0  0  0  0  0  0  0
   21.5852   75.8562    0.7726 O   0  0  0  0  0  0  0  0  0  0  0  0
   20.6234   74.7121   -1.1450 C   0  0  1  0  0  0  0  0  0  0  0  0
   21.5056   74.6255    0.0829 C   0  0  2  0  0  0  0  0  0  0  0  0
   20.2399   73.2540   -1.3646 C   0  0  1  0  0  0  0  0  0  0  0  0
   20.8114   73.5445    0.8940 C   0  0  2  0  0  0  0  0  0  0  0  0
   19.6523   76.3743   -0.7052 H   0  0  0  0  0  0  0  0  0  0  0  0
   22.0346   76.5107    0.2156 H   0  0  0  0  0  0  0  0  0  0  0  0
   21.4966   74.2244    3.5484 O   0  0  0  0  0  0  0  0  0  0  0  0
   24.3373   70.6156    3.9335 O   0  0  0  0  0  0  0  0  0  0  0  0
   21.7273   72.7999    1.7114 N   0  0  0  0  0  0  0  0  0  0  0  0
   22.9103   72.4268    3.7381 N   0  0  0  0  0  0  0  0  0  0  0  0
   22.0035   73.2268    3.0312 C   0  0  0  0  0  0  0  0  0  0  0  0
   22.3404   71.6599    1.2031 C   0  0  0  0  0  0  0  0  0  0  0  0
   23.2038   70.9087    1.8898 C   0  0  0  0  0  0  0  0  0  0  0  0
   23.5469   71.2857    3.2762 C   0  0  0  0  0  0  0  0  0  0  0  0
   23.1183   72.7051    4.6595 H   0  0  0  0  0  0  0  0  0  0  0  0
   21.3705   72.6601   -4.8759 O   0  0  0  0  0  0  0  0  0  0  0  0
   21.0246   72.3540   -6.4249 P   0  0  2  0  0  0  0  0  0  0  0  0
   21.6397   70.8757   -6.6574 O   0  0  0  0  0  0  0  0  0  0  0  0
   21.5288   73.3924   -7.3848 O   0  0  0  0  0  0  0  0  0  0  0  0
   19.4252   72.1389   -6.4515 O   0  0  0  0  0  0  0  0  0  0  0  0
   17.9898   71.0970   -8.0233 O   0  0  0  0  0  0  0  0  0  0  0  0
   15.6244   74.3259   -7.0086 O   0  0  0  0  0  0  0  0  0  0  0  0
   14.9165   71.7021   -6.0797 O   0  0  0  0  0  0  0  0  0  0  0  0
   18.4890   74.6573   -7.2614 O   0  0  0  0  0  0  0  0  0  0  0  0
   16.5728   73.2812   -6.7754 C   0  0  1  0  0  0  0  0  0  0  0  0
   15.8981   71.9432   -7.0840 C   0  0  1  0  0  0  0  0  0  0  0  0
   17.7835   73.4946   -7.6821 C   0  0  2  0  0  0  0  0  0  0  0  0
   16.9221   70.8006   -7.1156 C   0  0  1  0  0  0  0  0  0  0  0  0
   18.7133   72.2799   -7.6781 C   0  0  1  0  0  0  0  0  0  0  0  0
   14.8534   74.1966   -6.4356 H   0  0  0  0  0  0  0  0  0  0  0  0
   14.2764   72.4311   -6.0699 H   0  0  0  0  0  0  0  0  0  0  0  0
   17.8896   75.4193   -7.2686 H   0  0  0  0  0  0  0  0  0  0  0  0
   15.3129   69.7727   -8.5518 O   0  0  0  0  0  0  0  0  0  0  0  0
   16.2974   69.4853   -7.5759 C   0  0  0  0  0  0  0  0  0  0  0  0
   14.9069   68.9447   -8.8542 H   0  0  0  0  0  0  0  0  0  0  0  0
 25 28  1  0
 25 24  1  0
 25 26  1  6
 25 27  2  0
  1  4  1  0
  1 24  1  0
  1  2  1  6
  1  3  2  0
  6 11  1  0
  6 12  1  0
 29 36  1  0
 29 37  1  0
  9  7  1  1
  7 13  1  0
 10  8  1  1
  8 14  1  0
 37 28  1  1
  4  5  1  0
 33 30  1  6
 30 38  1  0
 34 31  1  1
 31 39  1  0
 35 32  1  1
 32 40  1  0
 41 42  1  0
 41 43  1  0
 15 19  2  0
 16 22  2  0
 12 17  1  6
 17 19  1  0
 17 20  1  0
 18 19  1  0
 18 22  1  0
 18 23  1  0
  9 10  1  0
  9 11  1  0
 10 12  1  0
 11  5  1  6
 33 34  1  0
 33 35  1  0
 34 36  1  0
 35 37  1  0
 36 42  1  6
 20 21  2  0
 21 22  1  0
M  CHG  2   2  -1  26  -1
M  END
>  <COMPND>  (157) 
    8629 

>  <AUTHOR>  (157) 
    GENERATED BY OPEN BABEL 3.1.1

>  <MASTER>  (157) 
        0    0    0    0    0    0    0    0   58    0   58    0

>  <minimizedAffinity>  (157) 
-6.17014

>  <CNNscore>  (157) 
0.2754552960

>  <CNNaffinity>  (157) 
3.7285110950

>  <CNN_VS>  (157) 
1.0270380974

>  <CNNaffinity_variance>  (157) 
0.0346097276

$$$$
158
     RDKit          3D

 43 45  0  0  0  0  0  0  0  0999 V2000
   23.0185   72.6297   -3.7619 P   0  0  2  0  0  0  0  0  0  0  0  0
   22.7240   73.9229   -4.6883 O   0  0  0  0  0  0  0  0  0  0  0  0
   24.4299   72.1229   -3.8113 O   0  0  0  0  0  0  0  0  0  0  0  0
   21.8759   71.5706   -4.1987 O   0  0  0  0  0  0  0  0  0  0  0  0
   20.7457   72.0491   -4.9070 C   0  0  0  0  0  0  0  0  0  0  0  0
   18.5053   72.8680   -4.6175 O   0  0  0  0  0  0  0  0  0  0  0  0
   18.9151   72.4048   -1.6835 O   0  0  0  0  0  0  0  0  0  0  0  0
   17.4441   70.2328   -2.4284 O   0  0  0  0  0  0  0  0  0  0  0  0
   19.3907   71.6433   -2.7922 C   0  0  1  0  0  0  0  0  0  0  0  0
   18.2592   70.8458   -3.4064 C   0  0  2  0  0  0  0  0  0  0  0  0
   19.7405   72.6143   -3.9129 C   0  0  1  0  0  0  0  0  0  0  0  0
   17.5198   71.9087   -4.2012 C   0  0  2  0  0  0  0  0  0  0  0  0
   18.6856   71.8062   -0.9549 H   0  0  0  0  0  0  0  0  0  0  0  0
   17.9596   69.5647   -1.9501 H   0  0  0  0  0  0  0  0  0  0  0  0
   15.0768   72.8617   -5.2506 O   0  0  0  0  0  0  0  0  0  0  0  0
   15.1270   69.7687   -8.6671 O   0  0  0  0  0  0  0  0  0  0  0  0
   16.8719   71.3712   -5.3642 N   0  0  0  0  0  0  0  0  0  0  0  0
   15.1039   71.3210   -6.9510 N   0  0  0  0  0  0  0  0  0  0  0  0
   15.6468   71.9213   -5.8078 C   0  0  0  0  0  0  0  0  0  0  0  0
   17.4512   70.3105   -6.0522 C   0  0  0  0  0  0  0  0  0  0  0  0
   16.9200   69.7484   -7.1399 C   0  0  0  0  0  0  0  0  0  0  0  0
   15.6409   70.2641   -7.6689 C   0  0  0  0  0  0  0  0  0  0  0  0
   14.2504   71.6875   -7.2782 H   0  0  0  0  0  0  0  0  0  0  0  0
   22.5274   73.1112   -2.2990 O   0  0  0  0  0  0  0  0  0  0  0  0
   22.9665   74.3774   -1.3953 P   0  0  2  0  0  0  0  0  0  0  0  0
   21.5695   75.1517   -1.1376 O   0  0  0  0  0  0  0  0  0  0  0  0
   24.0417   75.2274   -2.0081 O   0  0  0  0  0  0  0  0  0  0  0  0
   23.3512   73.7427    0.0379 O   0  0  0  0  0  0  0  0  0  0  0  0
   25.3720   72.7309    0.7515 O   0  0  0  0  0  0  0  0  0  0  0  0
   22.6873   70.3782    2.8270 O   0  0  0  0  0  0  0  0  0  0  0  0
   24.2814   72.2998    4.2463 O   0  0  0  0  0  0  0  0  0  0  0  0
   22.0647   71.2507    0.1381 O   0  0  0  0  0  0  0  0  0  0  0  0
   23.1817   71.5875    2.2452 C   0  0  1  0  0  0  0  0  0  0  0  0
   24.5266   71.9177    2.8957 C   0  0  1  0  0  0  0  0  0  0  0  0
   23.3475   71.3859    0.7401 C   0  0  2  0  0  0  0  0  0  0  0  0
   25.2438   73.0463    2.1428 C   0  0  1  0  0  0  0  0  0  0  0  0
   24.1160   72.5415    0.0968 C   0  0  1  0  0  0  0  0  0  0  0  0
   22.5793   70.4996    3.7826 H   0  0  0  0  0  0  0  0  0  0  0  0
   23.8277   71.5786    4.7103 H   0  0  0  0  0  0  0  0  0  0  0  0
   21.5883   70.5158    0.5538 H   0  0  0  0  0  0  0  0  0  0  0  0
   27.1182   72.0860    3.2712 O   0  0  0  0  0  0  0  0  0  0  0  0
   26.6541   73.2847    2.6779 C   0  0  0  0  0  0  0  0  0  0  0  0
   28.0150   72.2227    3.6160 H   0  0  0  0  0  0  0  0  0  0  0  0
 25 28  1  0
 25 24  1  0
 25 26  1  1
 25 27  2  0
  1  4  1  0
  1 24  1  0
  1  2  1  6
  1  3  2  0
  6 11  1  0
  6 12  1  0
 29 36  1  0
 29 37  1  0
  9  7  1  1
  7 13  1  0
 10  8  1  1
  8 14  1  0
 37 28  1  1
  4  5  1  0
 33 30  1  1
 30 38  1  0
 34 31  1  1
 31 39  1  0
 35 32  1  6
 32 40  1  0
 41 42  1  0
 41 43  1  0
 15 19  2  0
 16 22  2  0
 12 17  1  6
 17 19  1  0
 17 20  1  0
 18 19  1  0
 18 22  1  0
 18 23  1  0
  9 10  1  0
  9 11  1  0
 10 12  1  0
 11  5  1  6
 33 34  1  0
 33 35  1  0
 34 36  1  0
 35 37  1  0
 36 42  1  1
 20 21  2  0
 21 22  1  0
M  CHG  2   2  -1  26  -1
M  END
>  <COMPND>  (158) 
    8629 

>  <AUTHOR>  (158) 
    GENERATED BY OPEN BABEL 3.1.1

>  <MASTER>  (158) 
        0    0    0    0    0    0    0    0   58    0   58    0

>  <minimizedAffinity>  (158) 
-6.43316

>  <CNNscore>  (158) 
0.2619903684

>  <CNNaffinity>  (158) 
3.9819321632

>  <CNN_VS>  (158) 
1.0432279110

>  <CNNaffinity_variance>  (158) 
0.0542328134

$$$$
159
     RDKit          3D

 43 45  0  0  0  0  0  0  0  0999 V2000
   21.8368   75.1197   -4.4152 P   0  0  2  0  0  0  0  0  0  0  0  0
   20.4407   75.8215   -3.9960 O   0  0  0  0  0  0  0  0  0  0  0  0
   23.0251   76.0356   -4.4372 O   0  0  0  0  0  0  0  0  0  0  0  0
   21.4949   74.3786   -5.8122 O   0  0  0  0  0  0  0  0  0  0  0  0
   20.1761   73.9043   -6.0209 C   0  0  0  0  0  0  0  0  0  0  0  0
   18.8118   71.9285   -5.9280 O   0  0  0  0  0  0  0  0  0  0  0  0
   21.2437   70.4328   -6.8443 O   0  0  0  0  0  0  0  0  0  0  0  0
   19.7912   70.6693   -9.1402 O   0  0  0  0  0  0  0  0  0  0  0  0
   20.7996   71.7400   -7.2042 C   0  0  1  0  0  0  0  0  0  0  0  0
   19.6131   71.6528   -8.1413 C   0  0  2  0  0  0  0  0  0  0  0  0
   20.1824   72.3826   -5.9683 C   0  0  1  0  0  0  0  0  0  0  0  0
   18.4808   71.3170   -7.1855 C   0  0  2  0  0  0  0  0  0  0  0  0
   21.6421   70.0026   -7.6177 H   0  0  0  0  0  0  0  0  0  0  0  0
   20.5223   70.9284   -9.7225 H   0  0  0  0  0  0  0  0  0  0  0  0
   16.2592   69.7088   -7.8609 O   0  0  0  0  0  0  0  0  0  0  0  0
   13.6800   73.3857   -8.8947 O   0  0  0  0  0  0  0  0  0  0  0  0
   17.2161   71.8278   -7.6339 N   0  0  0  0  0  0  0  0  0  0  0  0
   14.9767   71.5410   -8.3749 N   0  0  0  0  0  0  0  0  0  0  0  0
   16.1653   70.9349   -7.9484 C   0  0  0  0  0  0  0  0  0  0  0  0
   17.0274   73.2000   -7.7573 C   0  0  0  0  0  0  0  0  0  0  0  0
   15.8881   73.7620   -8.1667 C   0  0  0  0  0  0  0  0  0  0  0  0
   14.7407   72.8994   -8.5151 C   0  0  0  0  0  0  0  0  0  0  0  0
   14.2309   70.9386   -8.6000 H   0  0  0  0  0  0  0  0  0  0  0  0
   21.9538   73.8910   -3.3713 O   0  0  0  0  0  0  0  0  0  0  0  0
   22.8732   72.5617   -3.3950 P   0  0  2  0  0  0  0  0  0  0  0  0
   24.1595   73.0158   -4.2649 O   0  0  0  0  0  0  0  0  0  0  0  0
   22.1741   71.3392   -3.9152 O   0  0  0  0  0  0  0  0  0  0  0  0
   23.4298   72.4230   -1.8864 O   0  0  0  0  0  0  0  0  0  0  0  0
   22.4598   72.7677    0.2483 O   0  0  0  0  0  0  0  0  0  0  0  0
   26.1533   74.4892    0.9160 O   0  0  0  0  0  0  0  0  0  0  0  0
   25.5323   71.9549    2.1159 O   0  0  0  0  0  0  0  0  0  0  0  0
   24.8387   74.8373   -1.6394 O   0  0  0  0  0  0  0  0  0  0  0  0
   25.2385   73.5448    0.3533 C   0  0  1  0  0  0  0  0  0  0  0  0
   24.5589   72.7936    1.4999 C   0  0  1  0  0  0  0  0  0  0  0  0
   24.2047   74.2914   -0.4877 C   0  0  2  0  0  0  0  0  0  0  0  0
   23.3777   71.9566    0.9907 C   0  0  1  0  0  0  0  0  0  0  0  0
   23.0481   73.3796   -0.9013 C   0  0  1  0  0  0  0  0  0  0  0  0
   26.8127   74.0215    1.4508 H   0  0  0  0  0  0  0  0  0  0  0  0
   26.2729   72.4956    2.4325 H   0  0  0  0  0  0  0  0  0  0  0  0
   25.5687   75.4128   -1.3643 H   0  0  0  0  0  0  0  0  0  0  0  0
   23.1378   70.0479    2.4078 O   0  0  0  0  0  0  0  0  0  0  0  0
   22.5892   71.3243    2.1354 C   0  0  0  0  0  0  0  0  0  0  0  0
   22.6460   69.6336    3.1346 H   0  0  0  0  0  0  0  0  0  0  0  0
 25 28  1  0
 25 24  1  0
 25 26  1  6
 25 27  2  0
  1  4  1  0
  1 24  1  0
  1  2  1  1
  1  3  2  0
  6 11  1  0
  6 12  1  0
 29 36  1  0
 29 37  1  0
  9  7  1  1
  7 13  1  0
 10  8  1  6
  8 14  1  0
 37 28  1  6
  4  5  1  0
 33 30  1  1
 30 38  1  0
 34 31  1  6
 31 39  1  0
 35 32  1  6
 32 40  1  0
 41 42  1  0
 41 43  1  0
 15 19  2  0
 16 22  2  0
 12 17  1  6
 17 19  1  0
 17 20  1  0
 18 19  1  0
 18 22  1  0
 18 23  1  0
  9 10  1  0
  9 11  1  0
 10 12  1  0
 11  5  1  6
 33 34  1  0
 33 35  1  0
 34 36  1  0
 35 37  1  0
 36 42  1  1
 20 21  2  0
 21 22  1  0
M  CHG  2   2  -1  26  -1
M  END
>  <COMPND>  (159) 
    8629 

>  <AUTHOR>  (159) 
    GENERATED BY OPEN BABEL 3.1.1

>  <MASTER>  (159) 
        0    0    0    0    0    0    0    0   58    0   58    0

>  <minimizedAffinity>  (159) 
-6.55200

>  <CNNscore>  (159) 
0.2524606287

>  <CNNaffinity>  (159) 
4.0116982460

>  <CNN_VS>  (159) 
1.0127958059

>  <CNNaffinity_variance>  (159) 
0.0488151759

$$$$
160
     RDKit          3D

 43 45  0  0  0  0  0  0  0  0999 V2000
   21.7879   73.9119   -4.5359 P   0  0  2  0  0  0  0  0  0  0  0  0
   22.1793   75.3019   -5.2653 O   0  0  0  0  0  0  0  0  0  0  0  0
   20.4408   73.9002   -3.8752 O   0  0  0  0  0  0  0  0  0  0  0  0
   23.0485   73.6136   -3.5664 O   0  0  0  0  0  0  0  0  0  0  0  0
   22.8669   73.7301   -2.1660 C   0  0  0  0  0  0  0  0  0  0  0  0
   23.8214   71.8250   -1.0555 O   0  0  0  0  0  0  0  0  0  0  0  0
   21.0119   71.0840   -0.3150 O   0  0  0  0  0  0  0  0  0  0  0  0
   21.9542   72.2121    1.9820 O   0  0  0  0  0  0  0  0  0  0  0  0
   21.6065   72.3767   -0.4187 C   0  0  1  0  0  0  0  0  0  0  0  0
   22.5254   72.6288    0.7585 C   0  0  2  0  0  0  0  0  0  0  0  0
   22.5852   72.3508   -1.5861 C   0  0  1  0  0  0  0  0  0  0  0  0
   23.7526   71.8173    0.3798 C   0  0  2  0  0  0  0  0  0  0  0  0
   20.3826   71.0761    0.4239 H   0  0  0  0  0  0  0  0  0  0  0  0
   21.1773   72.7583    2.1790 H   0  0  0  0  0  0  0  0  0  0  0  0
   24.8080   71.2206    2.9309 O   0  0  0  0  0  0  0  0  0  0  0  0
   28.4075   74.0290    2.3005 O   0  0  0  0  0  0  0  0  0  0  0  0
   24.9643   72.3780    0.9077 N   0  0  0  0  0  0  0  0  0  0  0  0
   26.5995   72.6194    2.6149 N   0  0  0  0  0  0  0  0  0  0  0  0
   25.4066   72.0132    2.2007 C   0  0  0  0  0  0  0  0  0  0  0  0
   25.7006   73.2787    0.1458 C   0  0  0  0  0  0  0  0  0  0  0  0
   26.8355   73.8489    0.5558 C   0  0  0  0  0  0  0  0  0  0  0  0
   27.3666   73.5214    1.8947 C   0  0  0  0  0  0  0  0  0  0  0  0
   26.9268   72.3805    3.5124 H   0  0  0  0  0  0  0  0  0  0  0  0
   21.9691   72.8198   -5.7138 O   0  0  0  0  0  0  0  0  0  0  0  0
   21.0502   71.5619   -6.1456 P   0  0  2  0  0  0  0  0  0  0  0  0
   20.9048   70.7197   -4.7718 O   0  0  0  0  0  0  0  0  0  0  0  0
   21.5921   70.7722   -7.3017 O   0  0  0  0  0  0  0  0  0  0  0  0
   19.5854   72.1923   -6.3943 O   0  0  0  0  0  0  0  0  0  0  0  0
   17.4269   71.4183   -5.7957 O   0  0  0  0  0  0  0  0  0  0  0  0
   16.5594   72.9781   -9.5193 O   0  0  0  0  0  0  0  0  0  0  0  0
   15.6599   74.3506   -7.1624 O   0  0  0  0  0  0  0  0  0  0  0  0
   19.0601   71.5866   -9.0835 O   0  0  0  0  0  0  0  0  0  0  0  0
   17.2285   72.9145   -8.2569 C   0  0  1  0  0  0  0  0  0  0  0  0
   16.1771   73.0230   -7.1508 C   0  0  1  0  0  0  0  0  0  0  0  0
   17.9799   71.5884   -8.1564 C   0  0  2  0  0  0  0  0  0  0  0  0
   16.7812   72.6967   -5.7783 C   0  0  1  0  0  0  0  0  0  0  0  0
   18.4975   71.3385   -6.7387 C   0  0  1  0  0  0  0  0  0  0  0  0
   16.0807   73.8180   -9.5897 H   0  0  0  0  0  0  0  0  0  0  0  0
   15.2819   74.5441   -8.0346 H   0  0  0  0  0  0  0  0  0  0  0  0
   18.7193   71.7454   -9.9771 H   0  0  0  0  0  0  0  0  0  0  0  0
   14.4577   72.4279   -5.2905 O   0  0  0  0  0  0  0  0  0  0  0  0
   15.7180   72.6447   -4.6832 C   0  0  0  0  0  0  0  0  0  0  0  0
   13.7712   72.3922   -4.6055 H   0  0  0  0  0  0  0  0  0  0  0  0
 25 28  1  0
 25 24  1  0
 25 26  1  1
 25 27  2  0
  1  4  1  0
  1 24  1  0
  1  2  1  6
  1  3  2  0
  6 11  1  0
  6 12  1  0
 29 36  1  0
 29 37  1  0
  9  7  1  1
  7 13  1  0
 10  8  1  1
  8 14  1  0
 37 28  1  1
  4  5  1  0
 33 30  1  6
 30 38  1  0
 34 31  1  1
 31 39  1  0
 35 32  1  6
 32 40  1  0
 41 42  1  0
 41 43  1  0
 15 19  2  0
 16 22  2  0
 12 17  1  1
 17 19  1  0
 17 20  1  0
 18 19  1  0
 18 22  1  0
 18 23  1  0
  9 10  1  0
  9 11  1  0
 10 12  1  0
 11  5  1  1
 33 34  1  0
 33 35  1  0
 34 36  1  0
 35 37  1  0
 36 42  1  1
 20 21  2  0
 21 22  1  0
M  CHG  2   2  -1  26  -1
M  END
>  <COMPND>  (160) 
    8629 

>  <AUTHOR>  (160) 
    GENERATED BY OPEN BABEL 3.1.1

>  <MASTER>  (160) 
        0    0    0    0    0    0    0    0   58    0   58    0

>  <minimizedAffinity>  (160) 
-6.13466

>  <CNNscore>  (160) 
0.2474953830

>  <CNNaffinity>  (160) 
3.9519970417

>  <CNN_VS>  (160) 
0.9781010151

>  <CNNaffinity_variance>  (160) 
0.0706322864

$$$$
161
     RDKit          3D

 43 45  0  0  0  0  0  0  0  0999 V2000
   21.0515   73.8793   -2.2635 P   0  0  2  0  0  0  0  0  0  0  0  0
   20.1810   72.7555   -1.4911 O   0  0  0  0  0  0  0  0  0  0  0  0
   20.9504   75.2629   -1.6918 O   0  0  0  0  0  0  0  0  0  0  0  0
   20.6020   73.7236   -3.8100 O   0  0  0  0  0  0  0  0  0  0  0  0
   20.9997   72.5612   -4.5160 C   0  0  0  0  0  0  0  0  0  0  0  0
   20.8712   71.9130   -6.8262 O   0  0  0  0  0  0  0  0  0  0  0  0
   21.4743   74.7787   -7.4700 O   0  0  0  0  0  0  0  0  0  0  0  0
   18.7766   74.6405   -7.8443 O   0  0  0  0  0  0  0  0  0  0  0  0
   20.6942   74.2382   -6.4047 C   0  0  1  0  0  0  0  0  0  0  0  0
   19.3637   73.7389   -6.9282 C   0  0  2  0  0  0  0  0  0  0  0  0
   21.3596   72.9473   -5.9441 C   0  0  1  0  0  0  0  0  0  0  0  0
   19.7541   72.4204   -7.5742 C   0  0  2  0  0  0  0  0  0  0  0  0
   21.0691   75.6041   -7.7806 H   0  0  0  0  0  0  0  0  0  0  0  0
   18.5461   75.4634   -7.3856 H   0  0  0  0  0  0  0  0  0  0  0  0
   18.9678   70.8255   -9.7687 O   0  0  0  0  0  0  0  0  0  0  0  0
   15.6613   68.7556   -7.3144 O   0  0  0  0  0  0  0  0  0  0  0  0
   18.6910   71.4561   -7.5365 N   0  0  0  0  0  0  0  0  0  0  0  0
   17.3222   69.7960   -8.5448 N   0  0  0  0  0  0  0  0  0  0  0  0
   18.3753   70.7074   -8.6942 C   0  0  0  0  0  0  0  0  0  0  0  0
   17.9743   71.2604   -6.3610 C   0  0  0  0  0  0  0  0  0  0  0  0
   16.9719   70.3882   -6.2354 C   0  0  0  0  0  0  0  0  0  0  0  0
   16.5787   69.5662   -7.3980 C   0  0  0  0  0  0  0  0  0  0  0  0
   17.0842   69.2635   -9.3383 H   0  0  0  0  0  0  0  0  0  0  0  0
   22.5423   73.2546   -2.2538 O   0  0  0  0  0  0  0  0  0  0  0  0
   23.3316   72.4091   -1.1246 P   0  0  2  0  0  0  0  0  0  0  0  0
   24.8858   72.7287   -1.4406 O   0  0  0  0  0  0  0  0  0  0  0  0
   22.9924   70.9468   -1.1014 O   0  0  0  0  0  0  0  0  0  0  0  0
   23.0277   73.1882    0.2559 O   0  0  0  0  0  0  0  0  0  0  0  0
   23.2691   71.8618    2.2050 O   0  0  0  0  0  0  0  0  0  0  0  0
   21.2733   75.0843    3.8429 O   0  0  0  0  0  0  0  0  0  0  0  0
   24.0621   74.7045    4.4138 O   0  0  0  0  0  0  0  0  0  0  0  0
   20.5615   74.1354    1.2023 O   0  0  0  0  0  0  0  0  0  0  0  0
   22.1854   74.4301    2.9566 C   0  0  1  0  0  0  0  0  0  0  0  0
   23.2426   73.7140    3.7994 C   0  0  1  0  0  0  0  0  0  0  0  0
   21.4151   73.4298    2.0967 C   0  0  2  0  0  0  0  0  0  0  0  0
   24.0958   72.7746    2.9365 C   0  0  1  0  0  0  0  0  0  0  0  0
   22.3580   72.5119    1.3166 C   0  0  1  0  0  0  0  0  0  0  0  0
   21.7559   75.7212    4.3914 H   0  0  0  0  0  0  0  0  0  0  0  0
   23.5111   75.2913    4.9554 H   0  0  0  0  0  0  0  0  0  0  0  0
   19.9695   74.7127    1.7083 H   0  0  0  0  0  0  0  0  0  0  0  0
   24.3541   70.7922    4.2451 O   0  0  0  0  0  0  0  0  0  0  0  0
   25.0512   71.9333    3.7800 C   0  0  0  0  0  0  0  0  0  0  0  0
   24.9499   70.2472    4.7833 H   0  0  0  0  0  0  0  0  0  0  0  0
 25 28  1  0
 25 24  1  0
 25 26  1  6
 25 27  2  0
  1  4  1  0
  1 24  1  0
  1  2  1  1
  1  3  2  0
  6 11  1  0
  6 12  1  0
 29 36  1  0
 29 37  1  0
  9  7  1  6
  7 13  1  0
 10  8  1  6
  8 14  1  0
 37 28  1  6
  4  5  1  0
 33 30  1  1
 30 38  1  0
 34 31  1  6
 31 39  1  0
 35 32  1  6
 32 40  1  0
 41 42  1  0
 41 43  1  0
 15 19  2  0
 16 22  2  0
 12 17  1  1
 17 19  1  0
 17 20  1  0
 18 19  1  0
 18 22  1  0
 18 23  1  0
  9 10  1  0
  9 11  1  0
 10 12  1  0
 11  5  1  1
 33 34  1  0
 33 35  1  0
 34 36  1  0
 35 37  1  0
 36 42  1  1
 20 21  2  0
 21 22  1  0
M  CHG  2   2  -1  26  -1
M  END
>  <COMPND>  (161) 
    8629 

>  <AUTHOR>  (161) 
    GENERATED BY OPEN BABEL 3.1.1

>  <MASTER>  (161) 
        0    0    0    0    0    0    0    0   58    0   58    0

>  <minimizedAffinity>  (161) 
-5.77689

>  <CNNscore>  (161) 
0.7720167637

>  <CNNaffinity>  (161) 
4.3922224045

>  <CNN_VS>  (161) 
3.3908693790

>  <CNNaffinity_variance>  (161) 
0.0746005103

$$$$
162
     RDKit          3D

 43 45  0  0  0  0  0  0  0  0999 V2000
   16.6110   72.4020   -2.3100 P   0  0  2  0  0  0  0  0  0  0  0  0
   17.8323   72.4058   -1.2490 O   0  0  0  0  0  0  0  0  0  0  0  0
   16.2995   73.7358   -2.9226 O   0  0  0  0  0  0  0  0  0  0  0  0
   15.3977   71.6987   -1.5032 O   0  0  0  0  0  0  0  0  0  0  0  0
   15.7143   70.8064   -0.4490 C   0  0  0  0  0  0  0  0  0  0  0  0
   15.3978   68.5252    0.2363 O   0  0  0  0  0  0  0  0  0  0  0  0
   14.3257   68.0417   -2.5219 O   0  0  0  0  0  0  0  0  0  0  0  0
   12.0535   68.2358   -1.0266 O   0  0  0  0  0  0  0  0  0  0  0  0
   14.1883   69.1921   -1.6894 C   0  0  1  0  0  0  0  0  0  0  0  0
   13.2045   68.9175   -0.5713 C   0  0  2  0  0  0  0  0  0  0  0  0
   15.4938   69.3774   -0.9259 C   0  0  1  0  0  0  0  0  0  0  0  0
   14.0390   68.0820    0.3846 C   0  0  2  0  0  0  0  0  0  0  0  0
   13.5043   67.9032   -3.0198 H   0  0  0  0  0  0  0  0  0  0  0  0
   11.5564   68.8084   -1.6313 H   0  0  0  0  0  0  0  0  0  0  0  0
   12.8333   70.4191    1.4153 O   0  0  0  0  0  0  0  0  0  0  0  0
   12.5500   68.6252    5.6512 O   0  0  0  0  0  0  0  0  0  0  0  0
   13.6395   68.2527    1.7531 N   0  0  0  0  0  0  0  0  0  0  0  0
   12.6931   69.5239    3.5236 N   0  0  0  0  0  0  0  0  0  0  0  0
   13.0434   69.4662    2.1686 C   0  0  0  0  0  0  0  0  0  0  0  0
   13.8395   67.2237    2.6669 C   0  0  0  0  0  0  0  0  0  0  0  0
   13.5009   67.2951    3.9559 C   0  0  0  0  0  0  0  0  0  0  0  0
   12.8726   68.5287    4.4712 C   0  0  0  0  0  0  0  0  0  0  0  0
   12.2766   70.3598    3.8359 H   0  0  0  0  0  0  0  0  0  0  0  0
   17.0524   71.2624   -3.3681 O   0  0  0  0  0  0  0  0  0  0  0  0
   16.3961   70.8073   -4.7735 P   0  0  2  0  0  0  0  0  0  0  0  0
   15.3813   72.0191   -5.1188 O   0  0  0  0  0  0  0  0  0  0  0  0
   15.7531   69.4510   -4.7418 O   0  0  0  0  0  0  0  0  0  0  0  0
   17.5901   70.9565   -5.8492 O   0  0  0  0  0  0  0  0  0  0  0  0
   18.6413   73.0658   -6.0991 O   0  0  0  0  0  0  0  0  0  0  0  0
   19.7411   71.3509   -9.6908 O   0  0  0  0  0  0  0  0  0  0  0  0
   21.7065   71.7017   -7.6263 O   0  0  0  0  0  0  0  0  0  0  0  0
   17.0986   70.8710   -8.6108 O   0  0  0  0  0  0  0  0  0  0  0  0
   19.4344   71.3661   -8.2940 C   0  0  1  0  0  0  0  0  0  0  0  0
   20.4177   72.3087   -7.5973 C   0  0  1  0  0  0  0  0  0  0  0  0
   17.9983   71.8506   -8.1035 C   0  0  2  0  0  0  0  0  0  0  0  0
   19.9895   72.5846   -6.1497 C   0  0  1  0  0  0  0  0  0  0  0  0
   17.6909   72.1422   -6.6336 C   0  0  1  0  0  0  0  0  0  0  0  0
   20.6514   71.0437   -9.8187 H   0  0  0  0  0  0  0  0  0  0  0  0
   21.9648   71.5323   -8.5460 H   0  0  0  0  0  0  0  0  0  0  0  0
   17.3034   70.6955   -9.5420 H   0  0  0  0  0  0  0  0  0  0  0  0
   21.4510   74.4423   -6.4984 O   0  0  0  0  0  0  0  0  0  0  0  0
   20.8665   73.6440   -5.4858 C   0  0  0  0  0  0  0  0  0  0  0  0
   22.0117   75.1213   -6.0906 H   0  0  0  0  0  0  0  0  0  0  0  0
 25 28  1  0
 25 24  1  0
 25 26  1  6
 25 27  2  0
  1  4  1  0
  1 24  1  0
  1  2  1  1
  1  3  2  0
  6 11  1  0
  6 12  1  0
 29 36  1  0
 29 37  1  0
  9  7  1  6
  7 13  1  0
 10  8  1  6
  8 14  1  0
 37 28  1  1
  4  5  1  0
 33 30  1  6
 30 38  1  0
 34 31  1  1
 31 39  1  0
 35 32  1  1
 32 40  1  0
 41 42  1  0
 41 43  1  0
 15 19  2  0
 16 22  2  0
 12 17  1  1
 17 19  1  0
 17 20  1  0
 18 19  1  0
 18 22  1  0
 18 23  1  0
  9 10  1  0
  9 11  1  0
 10 12  1  0
 11  5  1  1
 33 34  1  0
 33 35  1  0
 34 36  1  0
 35 37  1  0
 36 42  1  6
 20 21  2  0
 21 22  1  0
M  CHG  2   2  -1  26  -1
M  END
>  <COMPND>  (162) 
    8629 

>  <AUTHOR>  (162) 
    GENERATED BY OPEN BABEL 3.1.1

>  <MASTER>  (162) 
        0    0    0    0    0    0    0    0   58    0   58    0

>  <minimizedAffinity>  (162) 
-6.39253

>  <CNNscore>  (162) 
0.6815957427

>  <CNNaffinity>  (162) 
4.1909093857

>  <CNN_VS>  (162) 
2.8565061092

>  <CNNaffinity_variance>  (162) 
0.0882762522

$$$$
163
     RDKit          3D

 43 45  0  0  0  0  0  0  0  0999 V2000
   16.2941   70.1708   -2.1711 P   0  0  2  0  0  0  0  0  0  0  0  0
   15.5559   71.5253   -1.6834 O   0  0  0  0  0  0  0  0  0  0  0  0
   15.7032   69.5319   -3.3934 O   0  0  0  0  0  0  0  0  0  0  0  0
   16.3290   69.2476   -0.8428 O   0  0  0  0  0  0  0  0  0  0  0  0
   15.1588   69.1614   -0.0484 C   0  0  0  0  0  0  0  0  0  0  0  0
   13.8790   67.2162    0.5448 O   0  0  0  0  0  0  0  0  0  0  0  0
   12.5430   67.5117   -2.1232 O   0  0  0  0  0  0  0  0  0  0  0  0
   10.7019   68.5749   -0.4156 O   0  0  0  0  0  0  0  0  0  0  0  0
   12.9945   68.5225   -1.2234 C   0  0  1  0  0  0  0  0  0  0  0  0
   12.0617   68.6228   -0.0345 C   0  0  2  0  0  0  0  0  0  0  0  0
   14.2837   68.0326   -0.5759 C   0  0  1  0  0  0  0  0  0  0  0  0
   12.4789   67.4207    0.7955 C   0  0  2  0  0  0  0  0  0  0  0  0
   11.7208   67.8020   -2.5493 H   0  0  0  0  0  0  0  0  0  0  0  0
   10.4854   69.3608   -0.9413 H   0  0  0  0  0  0  0  0  0  0  0  0
    9.9921   67.1834    2.1136 O   0  0  0  0  0  0  0  0  0  0  0  0
   11.8460   68.2548    6.1949 O   0  0  0  0  0  0  0  0  0  0  0  0
   12.2830   67.6317    2.2021 N   0  0  0  0  0  0  0  0  0  0  0  0
   10.9172   67.7169    4.1447 N   0  0  0  0  0  0  0  0  0  0  0  0
   10.9934   67.4884    2.7649 C   0  0  0  0  0  0  0  0  0  0  0  0
   13.3626   67.9764    3.0081 C   0  0  0  0  0  0  0  0  0  0  0  0
   13.2730   68.1921    4.3221 C   0  0  0  0  0  0  0  0  0  0  0  0
   11.9610   68.0628    4.9883 C   0  0  0  0  0  0  0  0  0  0  0  0
   10.0286   67.6232    4.5586 H   0  0  0  0  0  0  0  0  0  0  0  0
   17.8344   70.6342   -2.3321 O   0  0  0  0  0  0  0  0  0  0  0  0
   18.4795   71.9699   -2.9745 P   0  0  2  0  0  0  0  0  0  0  0  0
   20.0714   71.7057   -2.8587 O   0  0  0  0  0  0  0  0  0  0  0  0
   18.0154   73.2464   -2.3347 O   0  0  0  0  0  0  0  0  0  0  0  0
   18.1615   71.8587   -4.5529 O   0  0  0  0  0  0  0  0  0  0  0  0
   17.6778   70.0254   -5.9747 O   0  0  0  0  0  0  0  0  0  0  0  0
   20.1634   72.1669   -8.4820 O   0  0  0  0  0  0  0  0  0  0  0  0
   17.3434   72.0778   -9.0184 O   0  0  0  0  0  0  0  0  0  0  0  0
   20.7393   72.0319   -5.6483 O   0  0  0  0  0  0  0  0  0  0  0  0
   19.1659   71.9953   -7.4716 C   0  0  1  0  0  0  0  0  0  0  0  0
   17.9936   71.2240   -8.0811 C   0  0  1  0  0  0  0  0  0  0  0  0
   19.7689   71.2206   -6.3013 C   0  0  2  0  0  0  0  0  0  0  0  0
   17.0062   70.7697   -6.9977 C   0  0  1  0  0  0  0  0  0  0  0  0
   18.6957   70.7737   -5.3070 C   0  0  1  0  0  0  0  0  0  0  0  0
   19.7871   72.6586   -9.2277 H   0  0  0  0  0  0  0  0  0  0  0  0
   17.9779   72.3579   -9.6968 H   0  0  0  0  0  0  0  0  0  0  0  0
   21.4132   72.3080   -6.2883 H   0  0  0  0  0  0  0  0  0  0  0  0
   16.2789   69.4859   -8.8770 O   0  0  0  0  0  0  0  0  0  0  0  0
   15.9133   69.8652   -7.5629 C   0  0  0  0  0  0  0  0  0  0  0  0
   15.5926   68.9096   -9.2493 H   0  0  0  0  0  0  0  0  0  0  0  0
 25 28  1  0
 25 24  1  0
 25 26  1  6
 25 27  2  0
  1  4  1  0
  1 24  1  0
  1  2  1  1
  1  3  2  0
  6 11  1  0
  6 12  1  0
 29 36  1  0
 29 37  1  0
  9  7  1  6
  7 13  1  0
 10  8  1  6
  8 14  1  0
 37 28  1  6
  4  5  1  0
 33 30  1  6
 30 38  1  0
 34 31  1  6
 31 39  1  0
 35 32  1  1
 32 40  1  0
 41 42  1  0
 41 43  1  0
 15 19  2  0
 16 22  2  0
 12 17  1  1
 17 19  1  0
 17 20  1  0
 18 19  1  0
 18 22  1  0
 18 23  1  0
  9 10  1  0
  9 11  1  0
 10 12  1  0
 11  5  1  1
 33 34  1  0
 33 35  1  0
 34 36  1  0
 35 37  1  0
 36 42  1  6
 20 21  2  0
 21 22  1  0
M  CHG  2   2  -1  26  -1
M  END
>  <COMPND>  (163) 
    8629 

>  <AUTHOR>  (163) 
    GENERATED BY OPEN BABEL 3.1.1

>  <MASTER>  (163) 
        0    0    0    0    0    0    0    0   58    0   58    0

>  <minimizedAffinity>  (163) 
-6.74564

>  <CNNscore>  (163) 
0.6810727715

>  <CNNaffinity>  (163) 
4.1744465828

>  <CNN_VS>  (163) 
2.8431019783

>  <CNNaffinity_variance>  (163) 
0.0906499252

$$$$
164
     RDKit          3D

 43 45  0  0  0  0  0  0  0  0999 V2000
   21.1386   72.0777   -1.5645 P   0  0  2  0  0  0  0  0  0  0  0  0
   20.5231   70.6042   -1.3050 O   0  0  0  0  0  0  0  0  0  0  0  0
   20.8511   73.0832   -0.4885 O   0  0  0  0  0  0  0  0  0  0  0  0
   20.6123   72.4633   -3.0451 O   0  0  0  0  0  0  0  0  0  0  0  0
   20.3550   71.4167   -3.9650 C   0  0  0  0  0  0  0  0  0  0  0  0
   20.5238   70.8454   -6.2929 O   0  0  0  0  0  0  0  0  0  0  0  0
   21.8486   73.5104   -6.6584 O   0  0  0  0  0  0  0  0  0  0  0  0
   19.3054   73.9879   -7.5190 O   0  0  0  0  0  0  0  0  0  0  0  0
   20.7836   73.1449   -5.7824 C   0  0  1  0  0  0  0  0  0  0  0  0
   19.4986   72.9649   -6.5634 C   0  0  2  0  0  0  0  0  0  0  0  0
   21.0520   71.7312   -5.2816 C   0  0  1  0  0  0  0  0  0  0  0  0
   19.7054   71.6013   -7.2005 C   0  0  2  0  0  0  0  0  0  0  0  0
   21.6994   74.4099   -6.9908 H   0  0  0  0  0  0  0  0  0  0  0  0
   19.1785   74.8353   -7.0645 H   0  0  0  0  0  0  0  0  0  0  0  0
   18.8964   70.4891   -9.6675 O   0  0  0  0  0  0  0  0  0  0  0  0
   14.9424   68.9364   -7.8796 O   0  0  0  0  0  0  0  0  0  0  0  0
   18.4696   70.9006   -7.4080 N   0  0  0  0  0  0  0  0  0  0  0  0
   16.9283   69.7167   -8.7752 N   0  0  0  0  0  0  0  0  0  0  0  0
   18.1580   70.3815   -8.6862 C   0  0  0  0  0  0  0  0  0  0  0  0
   17.5816   70.7338   -6.3508 C   0  0  0  0  0  0  0  0  0  0  0  0
   16.4123   70.0984   -6.4525 C   0  0  0  0  0  0  0  0  0  0  0  0
   16.0111   69.5262   -7.7539 C   0  0  0  0  0  0  0  0  0  0  0  0
   16.6900   69.3470   -9.6563 H   0  0  0  0  0  0  0  0  0  0  0  0
   22.7091   71.7788   -1.8035 O   0  0  0  0  0  0  0  0  0  0  0  0
   24.0237   72.6370   -1.4187 P   0  0  2  0  0  0  0  0  0  0  0  0
   23.7289   74.0839   -2.0799 O   0  0  0  0  0  0  0  0  0  0  0  0
   25.3169   72.0098   -1.8525 O   0  0  0  0  0  0  0  0  0  0  0  0
   23.8999   72.8828    0.1717 O   0  0  0  0  0  0  0  0  0  0  0  0
   25.5410   72.4459    1.8248 O   0  0  0  0  0  0  0  0  0  0  0  0
   22.1449   71.7156    4.0573 O   0  0  0  0  0  0  0  0  0  0  0  0
   23.6798   74.0931    4.5472 O   0  0  0  0  0  0  0  0  0  0  0  0
   22.2507   70.9019    1.2813 O   0  0  0  0  0  0  0  0  0  0  0  0
   22.9332   72.3735    3.0617 C   0  0  1  0  0  0  0  0  0  0  0  0
   24.1439   73.0070    3.7500 C   0  0  1  0  0  0  0  0  0  0  0  0
   23.3815   71.3481    2.0220 C   0  0  2  0  0  0  0  0  0  0  0  0
   25.1709   73.4996    2.7216 C   0  0  1  0  0  0  0  0  0  0  0  0
   24.4389   71.9250    1.0791 C   0  0  1  0  0  0  0  0  0  0  0  0
   21.8567   72.3613    4.7203 H   0  0  0  0  0  0  0  0  0  0  0  0
   23.0317   73.7686    5.1920 H   0  0  0  0  0  0  0  0  0  0  0  0
   21.5887   70.5387    1.8894 H   0  0  0  0  0  0  0  0  0  0  0  0
   26.6436   73.2693    4.5890 O   0  0  0  0  0  0  0  0  0  0  0  0
   26.4549   73.9915    3.3860 C   0  0  0  0  0  0  0  0  0  0  0  0
   27.4574   73.5716    5.0226 H   0  0  0  0  0  0  0  0  0  0  0  0
 25 28  1  0
 25 24  1  0
 25 26  1  6
 25 27  2  0
  1  4  1  0
  1 24  1  0
  1  2  1  1
  1  3  2  0
  6 11  1  0
  6 12  1  0
 29 36  1  0
 29 37  1  0
  9  7  1  6
  7 13  1  0
 10  8  1  6
  8 14  1  0
 37 28  1  1
  4  5  1  0
 33 30  1  1
 30 38  1  0
 34 31  1  6
 31 39  1  0
 35 32  1  6
 32 40  1  0
 41 42  1  0
 41 43  1  0
 15 19  2  0
 16 22  2  0
 12 17  1  1
 17 19  1  0
 17 20  1  0
 18 19  1  0
 18 22  1  0
 18 23  1  0
  9 10  1  0
  9 11  1  0
 10 12  1  0
 11  5  1  1
 33 34  1  0
 33 35  1  0
 34 36  1  0
 35 37  1  0
 36 42  1  1
 20 21  2  0
 21 22  1  0
M  CHG  2   2  -1  26  -1
M  END
>  <COMPND>  (164) 
    8629 

>  <AUTHOR>  (164) 
    GENERATED BY OPEN BABEL 3.1.1

>  <MASTER>  (164) 
        0    0    0    0    0    0    0    0   58    0   58    0

>  <minimizedAffinity>  (164) 
-6.54274

>  <CNNscore>  (164) 
0.6774333119

>  <CNNaffinity>  (164) 
4.4242882729

>  <CNN_VS>  (164) 
2.9971601963

>  <CNNaffinity_variance>  (164) 
0.0829384923

$$$$
165
     RDKit          3D

 43 45  0  0  0  0  0  0  0  0999 V2000
   20.2443   74.7841   -4.7136 P   0  0  2  0  0  0  0  0  0  0  0  0
   19.9905   76.3105   -4.2414 O   0  0  0  0  0  0  0  0  0  0  0  0
   20.0442   74.5326   -6.1793 O   0  0  0  0  0  0  0  0  0  0  0  0
   19.3160   73.9099   -3.7176 O   0  0  0  0  0  0  0  0  0  0  0  0
   17.9745   73.6534   -4.0947 C   0  0  0  0  0  0  0  0  0  0  0  0
   17.1253   71.5174   -4.7947 O   0  0  0  0  0  0  0  0  0  0  0  0
   18.2449   70.4414   -2.2296 O   0  0  0  0  0  0  0  0  0  0  0  0
   20.1204   69.6864   -4.0597 O   0  0  0  0  0  0  0  0  0  0  0  0
   18.7665   71.4559   -3.0864 C   0  0  1  0  0  0  0  0  0  0  0  0
   19.3495   70.8371   -4.3397 C   0  0  2  0  0  0  0  0  0  0  0  0
   17.5915   72.2513   -3.6413 C   0  0  1  0  0  0  0  0  0  0  0  0
   18.1008   70.5224   -5.1458 C   0  0  2  0  0  0  0  0  0  0  0  0
   18.9770   69.9203   -1.8629 H   0  0  0  0  0  0  0  0  0  0  0  0
   20.9031   69.9387   -3.5455 H   0  0  0  0  0  0  0  0  0  0  0  0
   16.4996   69.2276   -7.0791 O   0  0  0  0  0  0  0  0  0  0  0  0
   19.0927   70.8028  -10.5483 O   0  0  0  0  0  0  0  0  0  0  0  0
   18.3344   70.5776   -6.5614 N   0  0  0  0  0  0  0  0  0  0  0  0
   17.7920   70.0131   -8.8049 N   0  0  0  0  0  0  0  0  0  0  0  0
   17.4714   69.8908   -7.4469 C   0  0  0  0  0  0  0  0  0  0  0  0
   19.4091   71.3069   -7.0585 C   0  0  0  0  0  0  0  0  0  0  0  0
   19.7018   71.4124   -8.3563 C   0  0  0  0  0  0  0  0  0  0  0  0
   18.8497   70.7251   -9.3480 C   0  0  0  0  0  0  0  0  0  0  0  0
   17.2048   69.5428   -9.4404 H   0  0  0  0  0  0  0  0  0  0  0  0
   21.7387   74.4813   -4.1769 O   0  0  0  0  0  0  0  0  0  0  0  0
   22.5591   73.0946   -4.0465 P   0  0  2  0  0  0  0  0  0  0  0  0
   24.0923   73.5455   -4.2983 O   0  0  0  0  0  0  0  0  0  0  0  0
   22.0759   72.0055   -4.9599 O   0  0  0  0  0  0  0  0  0  0  0  0
   22.4946   72.7280   -2.4760 O   0  0  0  0  0  0  0  0  0  0  0  0
   24.5693   71.9479   -1.6371 O   0  0  0  0  0  0  0  0  0  0  0  0
   22.1586   70.9993    1.5784 O   0  0  0  0  0  0  0  0  0  0  0  0
   24.0024   73.1913    1.7866 O   0  0  0  0  0  0  0  0  0  0  0  0
   21.1658   70.6617   -1.1197 O   0  0  0  0  0  0  0  0  0  0  0  0
   22.5952   71.7809    0.4632 C   0  0  1  0  0  0  0  0  0  0  0  0
   24.0314   72.2362    0.7296 C   0  0  1  0  0  0  0  0  0  0  0  0
   22.5278   70.9271   -0.8017 C   0  0  2  0  0  0  0  0  0  0  0  0
   24.6602   72.8503   -0.5284 C   0  0  1  0  0  0  0  0  0  0  0  0
   23.2245   71.6085   -1.9809 C   0  0  1  0  0  0  0  0  0  0  0  0
   22.1985   71.5357    2.3848 H   0  0  0  0  0  0  0  0  0  0  0  0
   23.6027   72.7911    2.5748 H   0  0  0  0  0  0  0  0  0  0  0  0
   20.7360   70.2301   -0.3655 H   0  0  0  0  0  0  0  0  0  0  0  0
   26.2496   74.3149    0.4903 O   0  0  0  0  0  0  0  0  0  0  0  0
   26.1410   73.1670   -0.3313 C   0  0  0  0  0  0  0  0  0  0  0  0
   27.1867   74.5281    0.6246 H   0  0  0  0  0  0  0  0  0  0  0  0
 25 28  1  0
 25 24  1  0
 25 26  1  6
 25 27  2  0
  1  4  1  0
  1 24  1  0
  1  2  1  6
  1  3  2  0
  6 11  1  0
  6 12  1  0
 29 36  1  0
 29 37  1  0
  9  7  1  1
  7 13  1  0
 10  8  1  1
  8 14  1  0
 37 28  1  1
  4  5  1  0
 33 30  1  1
 30 38  1  0
 34 31  1  1
 31 39  1  0
 35 32  1  6
 32 40  1  0
 41 42  1  0
 41 43  1  0
 15 19  2  0
 16 22  2  0
 12 17  1  6
 17 19  1  0
 17 20  1  0
 18 19  1  0
 18 22  1  0
 18 23  1  0
  9 10  1  0
  9 11  1  0
 10 12  1  0
 11  5  1  6
 33 34  1  0
 33 35  1  0
 34 36  1  0
 35 37  1  0
 36 42  1  1
 20 21  2  0
 21 22  1  0
M  CHG  2   2  -1  26  -1
M  END
>  <COMPND>  (165) 
    8629 

>  <AUTHOR>  (165) 
    GENERATED BY OPEN BABEL 3.1.1

>  <MASTER>  (165) 
        0    0    0    0    0    0    0    0   58    0   58    0

>  <minimizedAffinity>  (165) 
-6.74640

>  <CNNscore>  (165) 
0.6662762165

>  <CNNaffinity>  (165) 
4.4000868797

>  <CNN_VS>  (165) 
2.9316732883

>  <CNNaffinity_variance>  (165) 
0.0243197512

$$$$
166
     RDKit          3D

 43 45  0  0  0  0  0  0  0  0999 V2000
   23.1420   71.6294   -2.8491 P   0  0  2  0  0  0  0  0  0  0  0  0
   24.0594   72.5006   -3.8575 O   0  0  0  0  0  0  0  0  0  0  0  0
   23.6787   70.2672   -2.5210 O   0  0  0  0  0  0  0  0  0  0  0  0
   21.6757   71.6611   -3.5325 O   0  0  0  0  0  0  0  0  0  0  0  0
   21.2565   72.8505   -4.1785 C   0  0  0  0  0  0  0  0  0  0  0  0
   19.1175   73.2958   -5.1786 O   0  0  0  0  0  0  0  0  0  0  0  0
   17.9212   72.2898   -2.6197 O   0  0  0  0  0  0  0  0  0  0  0  0
   17.6464   70.1489   -4.2863 O   0  0  0  0  0  0  0  0  0  0  0  0
   19.0891   71.8431   -3.3065 C   0  0  1  0  0  0  0  0  0  0  0  0
   18.7038   71.0516   -4.5389 C   0  0  2  0  0  0  0  0  0  0  0  0
   19.7724   73.0626   -3.9125 C   0  0  1  0  0  0  0  0  0  0  0  0
   18.3135   72.1521   -5.5109 C   0  0  2  0  0  0  0  0  0  0  0  0
   17.4679   71.5284   -2.2239 H   0  0  0  0  0  0  0  0  0  0  0  0
   17.9441   69.4682   -3.6629 H   0  0  0  0  0  0  0  0  0  0  0  0
   16.4811   72.5454   -7.6241 O   0  0  0  0  0  0  0  0  0  0  0  0
   19.3719   70.7190  -10.7143 O   0  0  0  0  0  0  0  0  0  0  0  0
   18.5615   71.7890   -6.8776 N   0  0  0  0  0  0  0  0  0  0  0  0
   17.9221   71.6358   -9.1611 N   0  0  0  0  0  0  0  0  0  0  0  0
   17.5747   72.0285   -7.8622 C   0  0  0  0  0  0  0  0  0  0  0  0
   19.7722   71.2028   -7.2302 C   0  0  0  0  0  0  0  0  0  0  0  0
   20.0875   70.8329   -8.4732 C   0  0  0  0  0  0  0  0  0  0  0  0
   19.1118   71.0483   -9.5611 C   0  0  0  0  0  0  0  0  0  0  0  0
   17.2499   71.7926   -9.8635 H   0  0  0  0  0  0  0  0  0  0  0  0
   22.9704   72.6097   -1.5753 O   0  0  0  0  0  0  0  0  0  0  0  0
   21.9301   72.5711   -0.3387 P   0  0  2  0  0  0  0  0  0  0  0  0
   21.3974   71.0435   -0.3495 O   0  0  0  0  0  0  0  0  0  0  0  0
   20.8451   73.6059   -0.4148 O   0  0  0  0  0  0  0  0  0  0  0  0
   22.8575   72.6701    0.9786 O   0  0  0  0  0  0  0  0  0  0  0  0
   25.2243   72.7296    1.0840 O   0  0  0  0  0  0  0  0  0  0  0  0
   24.4572   70.7196    4.6086 O   0  0  0  0  0  0  0  0  0  0  0  0
   25.3522   73.4471    4.6976 O   0  0  0  0  0  0  0  0  0  0  0  0
   22.8604   70.1719    2.2570 O   0  0  0  0  0  0  0  0  0  0  0  0
   24.2092   71.6731    3.5718 C   0  0  1  0  0  0  0  0  0  0  0  0
   25.3903   72.6443    3.5210 C   0  0  1  0  0  0  0  0  0  0  0  0
   24.0609   70.9368    2.2417 C   0  0  2  0  0  0  0  0  0  0  0  0
   25.3267   73.5286    2.2684 C   0  0  1  0  0  0  0  0  0  0  0  0
   24.0575   71.9052    1.0574 C   0  0  1  0  0  0  0  0  0  0  0  0
   24.5519   71.1806    5.4560 H   0  0  0  0  0  0  0  0  0  0  0  0
   25.3925   72.8766    5.4812 H   0  0  0  0  0  0  0  0  0  0  0  0
   22.8749   69.5627    3.0110 H   0  0  0  0  0  0  0  0  0  0  0  0
   27.6909   73.6616    2.5872 O   0  0  0  0  0  0  0  0  0  0  0  0
   26.5753   74.3946    2.1157 C   0  0  0  0  0  0  0  0  0  0  0  0
   28.4929   74.2003    2.4959 H   0  0  0  0  0  0  0  0  0  0  0  0
 25 28  1  0
 25 24  1  0
 25 26  1  1
 25 27  2  0
  1  4  1  0
  1 24  1  0
  1  2  1  6
  1  3  2  0
  6 11  1  0
  6 12  1  0
 29 36  1  0
 29 37  1  0
  9  7  1  6
  7 13  1  0
 10  8  1  1
  8 14  1  0
 37 28  1  1
  4  5  1  0
 33 30  1  1
 30 38  1  0
 34 31  1  1
 31 39  1  0
 35 32  1  1
 32 40  1  0
 41 42  1  0
 41 43  1  0
 15 19  2  0
 16 22  2  0
 12 17  1  6
 17 19  1  0
 17 20  1  0
 18 19  1  0
 18 22  1  0
 18 23  1  0
  9 10  1  0
  9 11  1  0
 10 12  1  0
 11  5  1  6
 33 34  1  0
 33 35  1  0
 34 36  1  0
 35 37  1  0
 36 42  1  6
 20 21  2  0
 21 22  1  0
M  CHG  2   2  -1  26  -1
M  END
>  <COMPND>  (166) 
    8629 

>  <AUTHOR>  (166) 
    GENERATED BY OPEN BABEL 3.1.1

>  <MASTER>  (166) 
        0    0    0    0    0    0    0    0   58    0   58    0

>  <minimizedAffinity>  (166) 
-7.10640

>  <CNNscore>  (166) 
0.6563125849

>  <CNNaffinity>  (166) 
4.3466711044

>  <CNN_VS>  (166) 
2.8527748585

>  <CNNaffinity_variance>  (166) 
0.0347713083

$$$$
167
     RDKit          3D

 43 45  0  0  0  0  0  0  0  0999 V2000
   17.4083   71.7238   -1.9570 P   0  0  2  0  0  0  0  0  0  0  0  0
   16.5357   72.6687   -2.9384 O   0  0  0  0  0  0  0  0  0  0  0  0
   17.5038   72.2011   -0.5377 O   0  0  0  0  0  0  0  0  0  0  0  0
   18.8157   71.5494   -2.7359 O   0  0  0  0  0  0  0  0  0  0  0  0
   19.2250   72.5703   -3.6293 C   0  0  0  0  0  0  0  0  0  0  0  0
   19.9328   70.9109   -5.2165 O   0  0  0  0  0  0  0  0  0  0  0  0
   22.2261   72.7435   -5.8276 O   0  0  0  0  0  0  0  0  0  0  0  0
   20.5193   73.2151   -7.9015 O   0  0  0  0  0  0  0  0  0  0  0  0
   20.8754   73.0664   -5.5010 C   0  0  1  0  0  0  0  0  0  0  0  0
   19.9664   72.7768   -6.6772 C   0  0  2  0  0  0  0  0  0  0  0  0
   20.3887   72.0585   -4.4672 C   0  0  1  0  0  0  0  0  0  0  0  0
   19.8297   71.2654   -6.6052 C   0  0  2  0  0  0  0  0  0  0  0  0
   22.5589   73.3739   -6.4861 H   0  0  0  0  0  0  0  0  0  0  0  0
   20.5858   74.1827   -7.8984 H   0  0  0  0  0  0  0  0  0  0  0  0
   19.3358   70.6179   -9.3097 O   0  0  0  0  0  0  0  0  0  0  0  0
   14.9487   69.5100   -8.4338 O   0  0  0  0  0  0  0  0  0  0  0  0
   18.5676   70.8049   -7.1115 N   0  0  0  0  0  0  0  0  0  0  0  0
   17.1518   70.0666   -8.8713 N   0  0  0  0  0  0  0  0  0  0  0  0
   18.4244   70.5080   -8.4870 C   0  0  0  0  0  0  0  0  0  0  0  0
   17.4887   70.6515   -6.2477 C   0  0  0  0  0  0  0  0  0  0  0  0
   16.2813   70.2308   -6.6303 C   0  0  0  0  0  0  0  0  0  0  0  0
   16.0476   69.8993   -8.0507 C   0  0  0  0  0  0  0  0  0  0  0  0
   17.0285   69.8542   -9.8250 H   0  0  0  0  0  0  0  0  0  0  0  0
   16.7130   70.2753   -2.1343 O   0  0  0  0  0  0  0  0  0  0  0  0
   15.1693   69.8612   -2.3761 P   0  0  2  0  0  0  0  0  0  0  0  0
   15.2472   68.8659   -3.6492 O   0  0  0  0  0  0  0  0  0  0  0  0
   14.2407   71.0269   -2.5573 O   0  0  0  0  0  0  0  0  0  0  0  0
   14.8037   68.9021   -1.1305 O   0  0  0  0  0  0  0  0  0  0  0  0
   13.0118   69.8173    0.1218 O   0  0  0  0  0  0  0  0  0  0  0  0
   14.0405   66.6980    2.6244 O   0  0  0  0  0  0  0  0  0  0  0  0
   11.6154   66.5470    1.0934 O   0  0  0  0  0  0  0  0  0  0  0  0
   16.1068   68.1883    1.2501 O   0  0  0  0  0  0  0  0  0  0  0  0
   13.8514   67.3510    1.3661 C   0  0  1  0  0  0  0  0  0  0  0  0
   12.3771   67.7416    1.2452 C   0  0  1  0  0  0  0  0  0  0  0  0
   14.7425   68.5904    1.3081 C   0  0  2  0  0  0  0  0  0  0  0  0
   12.1480   68.6769    0.0503 C   0  0  1  0  0  0  0  0  0  0  0  0
   14.3996   69.4769    0.1095 C   0  0  1  0  0  0  0  0  0  0  0  0
   13.4779   65.9099    2.6675 H   0  0  0  0  0  0  0  0  0  0  0  0
   11.7694   65.9650    1.8541 H   0  0  0  0  0  0  0  0  0  0  0  0
   16.3114   67.6280    2.0143 H   0  0  0  0  0  0  0  0  0  0  0  0
   10.4261   69.8290    1.2405 O   0  0  0  0  0  0  0  0  0  0  0  0
   10.7157   69.2045    0.0034 C   0  0  0  0  0  0  0  0  0  0  0  0
    9.5177   70.1699    1.2251 H   0  0  0  0  0  0  0  0  0  0  0  0
 25 28  1  0
 25 24  1  0
 25 26  1  6
 25 27  2  0
  1  4  1  0
  1 24  1  0
  1  2  1  6
  1  3  2  0
  6 11  1  0
  6 12  1  0
 29 36  1  0
 29 37  1  0
  9  7  1  6
  7 13  1  0
 10  8  1  6
  8 14  1  0
 37 28  1  6
  4  5  1  0
 33 30  1  1
 30 38  1  0
 34 31  1  6
 31 39  1  0
 35 32  1  6
 32 40  1  0
 41 42  1  0
 41 43  1  0
 15 19  2  0
 16 22  2  0
 12 17  1  1
 17 19  1  0
 17 20  1  0
 18 19  1  0
 18 22  1  0
 18 23  1  0
  9 10  1  0
  9 11  1  0
 10 12  1  0
 11  5  1  6
 33 34  1  0
 33 35  1  0
 34 36  1  0
 35 37  1  0
 36 42  1  1
 20 21  2  0
 21 22  1  0
M  CHG  2   2  -1  26  -1
M  END
>  <COMPND>  (167) 
    8629 

>  <AUTHOR>  (167) 
    GENERATED BY OPEN BABEL 3.1.1

>  <MASTER>  (167) 
        0    0    0    0    0    0    0    0   58    0   58    0

>  <minimizedAffinity>  (167) 
-7.00454

>  <CNNscore>  (167) 
0.6062428355

>  <CNNaffinity>  (167) 
4.3673262596

>  <CNN_VS>  (167) 
2.6476602554

>  <CNNaffinity_variance>  (167) 
0.0830178037

$$$$
168
     RDKit          3D

 43 45  0  0  0  0  0  0  0  0999 V2000
   19.7968   74.0202   -1.7019 P   0  0  2  0  0  0  0  0  0  0  0  0
   18.6483   74.8254   -0.8957 O   0  0  0  0  0  0  0  0  0  0  0  0
   20.8002   74.8843   -2.4074 O   0  0  0  0  0  0  0  0  0  0  0  0
   18.9671   72.9968   -2.6412 O   0  0  0  0  0  0  0  0  0  0  0  0
   18.9638   73.2154   -4.0412 C   0  0  0  0  0  0  0  0  0  0  0  0
   19.6586   71.2212   -5.1876 O   0  0  0  0  0  0  0  0  0  0  0  0
   22.1055   72.7585   -5.9878 O   0  0  0  0  0  0  0  0  0  0  0  0
   20.5724   72.8668   -8.2405 O   0  0  0  0  0  0  0  0  0  0  0  0
   20.7615   73.2141   -5.8415 C   0  0  1  0  0  0  0  0  0  0  0  0
   19.9129   72.7290   -6.9983 C   0  0  2  0  0  0  0  0  0  0  0  0
   20.1418   72.4765   -4.6612 C   0  0  1  0  0  0  0  0  0  0  0  0
   19.6698   71.2769   -6.6234 C   0  0  2  0  0  0  0  0  0  0  0  0
   22.5222   73.2158   -6.7356 H   0  0  0  0  0  0  0  0  0  0  0  0
   20.7040   73.8080   -8.4342 H   0  0  0  0  0  0  0  0  0  0  0  0
   19.2290   70.4142   -9.2766 O   0  0  0  0  0  0  0  0  0  0  0  0
   14.8136   69.4151   -8.4123 O   0  0  0  0  0  0  0  0  0  0  0  0
   18.4148   70.7861   -7.1189 N   0  0  0  0  0  0  0  0  0  0  0  0
   17.0309   69.9173   -8.8440 N   0  0  0  0  0  0  0  0  0  0  0  0
   18.2989   70.3788   -8.4683 C   0  0  0  0  0  0  0  0  0  0  0  0
   17.3158   70.7121   -6.2699 C   0  0  0  0  0  0  0  0  0  0  0  0
   16.1131   70.2708   -6.6441 C   0  0  0  0  0  0  0  0  0  0  0  0
   15.9075   69.8260   -8.0376 C   0  0  0  0  0  0  0  0  0  0  0  0
   16.9263   69.6285   -9.7797 H   0  0  0  0  0  0  0  0  0  0  0  0
   20.4222   73.0494   -0.5708 O   0  0  0  0  0  0  0  0  0  0  0  0
   21.1700   71.6215   -0.6927 P   0  0  2  0  0  0  0  0  0  0  0  0
   22.2512   71.8683   -1.8706 O   0  0  0  0  0  0  0  0  0  0  0  0
   20.2470   70.4619   -0.9324 O   0  0  0  0  0  0  0  0  0  0  0  0
   22.0528   71.5065    0.6535 O   0  0  0  0  0  0  0  0  0  0  0  0
   22.1464   72.9201    2.5534 O   0  0  0  0  0  0  0  0  0  0  0  0
   26.1309   71.8612    2.3219 O   0  0  0  0  0  0  0  0  0  0  0  0
   24.4943   70.7742    4.4166 O   0  0  0  0  0  0  0  0  0  0  0  0
   24.6223   72.3452   -0.1008 O   0  0  0  0  0  0  0  0  0  0  0  0
   24.7200   71.6584    2.2057 C   0  0  1  0  0  0  0  0  0  0  0  0
   24.0913   71.8595    3.5860 C   0  0  1  0  0  0  0  0  0  0  0  0
   24.1520   72.6628    1.2047 C   0  0  2  0  0  0  0  0  0  0  0  0
   22.5607   71.9221    3.4938 C   0  0  1  0  0  0  0  0  0  0  0  0
   22.6225   72.6799    1.2277 C   0  0  1  0  0  0  0  0  0  0  0  0
   26.4978   71.2262    2.9557 H   0  0  0  0  0  0  0  0  0  0  0  0
   25.4628   70.7455    4.4660 H   0  0  0  0  0  0  0  0  0  0  0  0
   25.5918   72.3379   -0.1023 H   0  0  0  0  0  0  0  0  0  0  0  0
   22.8860   72.9423    5.6297 O   0  0  0  0  0  0  0  0  0  0  0  0
   21.9212   72.2791    4.8338 C   0  0  0  0  0  0  0  0  0  0  0  0
   22.4929   73.1758    6.4857 H   0  0  0  0  0  0  0  0  0  0  0  0
 25 28  1  0
 25 24  1  0
 25 26  1  6
 25 27  2  0
  1  4  1  0
  1 24  1  0
  1  2  1  1
  1  3  2  0
  6 11  1  0
  6 12  1  0
 29 36  1  0
 29 37  1  0
  9  7  1  6
  7 13  1  0
 10  8  1  6
  8 14  1  0
 37 28  1  1
  4  5  1  0
 33 30  1  1
 30 38  1  0
 34 31  1  1
 31 39  1  0
 35 32  1  6
 32 40  1  0
 41 42  1  0
 41 43  1  0
 15 19  2  0
 16 22  2  0
 12 17  1  6
 17 19  1  0
 17 20  1  0
 18 19  1  0
 18 22  1  0
 18 23  1  0
  9 10  1  0
  9 11  1  0
 10 12  1  0
 11  5  1  6
 33 34  1  0
 33 35  1  0
 34 36  1  0
 35 37  1  0
 36 42  1  1
 20 21  2  0
 21 22  1  0
M  CHG  2   2  -1  26  -1
M  END
>  <COMPND>  (168) 
    8629 

>  <AUTHOR>  (168) 
    GENERATED BY OPEN BABEL 3.1.1

>  <MASTER>  (168) 
        0    0    0    0    0    0    0    0   58    0   58    0

>  <minimizedAffinity>  (168) 
-6.84117

>  <CNNscore>  (168) 
0.5194048285

>  <CNNaffinity>  (168) 
4.2810525894

>  <CNN_VS>  (168) 
2.2235994339

>  <CNNaffinity_variance>  (168) 
0.0258360617

$$$$
169
     RDKit          3D

 43 45  0  0  0  0  0  0  0  0999 V2000
   16.5012   73.1128   -1.6843 P   0  0  2  0  0  0  0  0  0  0  0  0
   17.7987   72.8104   -0.7664 O   0  0  0  0  0  0  0  0  0  0  0  0
   15.9922   74.5227   -1.6173 O   0  0  0  0  0  0  0  0  0  0  0  0
   15.4459   71.9637   -1.2558 O   0  0  0  0  0  0  0  0  0  0  0  0
   15.8958   70.9089   -0.4235 C   0  0  0  0  0  0  0  0  0  0  0  0
   15.5625   68.5384   -0.2149 O   0  0  0  0  0  0  0  0  0  0  0  0
   14.8344   68.5739   -3.1234 O   0  0  0  0  0  0  0  0  0  0  0  0
   12.3982   68.4750   -1.9020 O   0  0  0  0  0  0  0  0  0  0  0  0
   14.5696   69.5479   -2.1152 C   0  0  1  0  0  0  0  0  0  0  0  0
   13.4692   69.0648   -1.1935 C   0  0  2  0  0  0  0  0  0  0  0  0
   15.7711   69.5932   -1.1794 C   0  0  1  0  0  0  0  0  0  0  0  0
   14.2080   68.0692   -0.3155 C   0  0  2  0  0  0  0  0  0  0  0  0
   14.0809   68.5272   -3.7334 H   0  0  0  0  0  0  0  0  0  0  0  0
   11.9602   69.1483   -2.4456 H   0  0  0  0  0  0  0  0  0  0  0  0
   13.3733   65.6616    0.9031 O   0  0  0  0  0  0  0  0  0  0  0  0
   12.0672   67.8454    4.7458 O   0  0  0  0  0  0  0  0  0  0  0  0
   13.6466   67.9795    1.0029 N   0  0  0  0  0  0  0  0  0  0  0  0
   12.7238   66.7509    2.8155 N   0  0  0  0  0  0  0  0  0  0  0  0
   13.2587   66.7220    1.5212 C   0  0  0  0  0  0  0  0  0  0  0  0
   13.4858   69.1300    1.7674 C   0  0  0  0  0  0  0  0  0  0  0  0
   12.9729   69.1407    2.9995 C   0  0  0  0  0  0  0  0  0  0  0  0
   12.5426   67.8686    3.6147 C   0  0  0  0  0  0  0  0  0  0  0  0
   12.4462   65.8866    3.1971 H   0  0  0  0  0  0  0  0  0  0  0  0
   16.9776   72.6387   -3.1544 O   0  0  0  0  0  0  0  0  0  0  0  0
   18.3991   72.0762   -3.6796 P   0  0  2  0  0  0  0  0  0  0  0  0
   18.6622   70.7909   -2.7328 O   0  0  0  0  0  0  0  0  0  0  0  0
   19.5052   73.0912   -3.6672 O   0  0  0  0  0  0  0  0  0  0  0  0
   18.0797   71.4528   -5.1337 O   0  0  0  0  0  0  0  0  0  0  0  0
   18.5987   72.1770   -7.3297 O   0  0  0  0  0  0  0  0  0  0  0  0
   14.7540   70.8159   -7.9752 O   0  0  0  0  0  0  0  0  0  0  0  0
   16.9800   69.3104   -8.9884 O   0  0  0  0  0  0  0  0  0  0  0  0
   15.4020   72.2001   -5.5168 O   0  0  0  0  0  0  0  0  0  0  0  0
   16.0531   70.8155   -7.3771 C   0  0  1  0  0  0  0  0  0  0  0  0
   17.0918   70.6393   -8.4865 C   0  0  1  0  0  0  0  0  0  0  0  0
   16.2665   72.1398   -6.6463 C   0  0  2  0  0  0  0  0  0  0  0  0
   18.5112   70.8948   -7.9621 C   0  0  1  0  0  0  0  0  0  0  0  0
   17.7220   72.3160   -6.2099 C   0  0  1  0  0  0  0  0  0  0  0  0
   14.6120   69.9775   -8.4405 H   0  0  0  0  0  0  0  0  0  0  0  0
   16.0790   69.1619   -9.3159 H   0  0  0  0  0  0  0  0  0  0  0  0
   14.4837   72.0876   -5.8063 H   0  0  0  0  0  0  0  0  0  0  0  0
   18.8799   71.0937  -10.3145 O   0  0  0  0  0  0  0  0  0  0  0  0
   19.5469   70.8793   -9.0843 C   0  0  0  0  0  0  0  0  0  0  0  0
   19.5267   71.0867  -11.0378 H   0  0  0  0  0  0  0  0  0  0  0  0
 25 28  1  0
 25 24  1  0
 25 26  1  1
 25 27  2  0
  1  4  1  0
  1 24  1  0
  1  2  1  1
  1  3  2  0
  6 11  1  0
  6 12  1  0
 29 36  1  0
 29 37  1  0
  9  7  1  6
  7 13  1  0
 10  8  1  6
  8 14  1  0
 37 28  1  1
  4  5  1  0
 33 30  1  6
 30 38  1  0
 34 31  1  1
 31 39  1  0
 35 32  1  1
 32 40  1  0
 41 42  1  0
 41 43  1  0
 15 19  2  0
 16 22  2  0
 12 17  1  1
 17 19  1  0
 17 20  1  0
 18 19  1  0
 18 22  1  0
 18 23  1  0
  9 10  1  0
  9 11  1  0
 10 12  1  0
 11  5  1  1
 33 34  1  0
 33 35  1  0
 34 36  1  0
 35 37  1  0
 36 42  1  6
 20 21  2  0
 21 22  1  0
M  CHG  2   2  -1  26  -1
M  END
>  <COMPND>  (169) 
    8629 

>  <AUTHOR>  (169) 
    GENERATED BY OPEN BABEL 3.1.1

>  <MASTER>  (169) 
        0    0    0    0    0    0    0    0   58    0   58    0

>  <minimizedAffinity>  (169) 
-6.66406

>  <CNNscore>  (169) 
0.4979517758

>  <CNNaffinity>  (169) 
3.9379951954

>  <CNN_VS>  (169) 
1.9609316587

>  <CNNaffinity_variance>  (169) 
0.1754127443

$$$$
170
     RDKit          3D

 43 45  0  0  0  0  0  0  0  0999 V2000
   24.3398   72.6132    0.3398 P   0  0  2  0  0  0  0  0  0  0  0  0
   23.5787   74.0011    0.6743 O   0  0  0  0  0  0  0  0  0  0  0  0
   25.5682   72.7530   -0.5105 O   0  0  0  0  0  0  0  0  0  0  0  0
   23.1738   71.6656   -0.2605 O   0  0  0  0  0  0  0  0  0  0  0  0
   22.3368   72.1861   -1.2785 C   0  0  0  0  0  0  0  0  0  0  0  0
   22.2140   71.0181   -3.3748 O   0  0  0  0  0  0  0  0  0  0  0  0
   24.1241   73.0789   -4.4213 O   0  0  0  0  0  0  0  0  0  0  0  0
   21.7257   73.9476   -5.3854 O   0  0  0  0  0  0  0  0  0  0  0  0
   23.0594   73.2292   -3.4837 C   0  0  1  0  0  0  0  0  0  0  0  0
   21.7228   73.1868   -4.1946 C   0  0  2  0  0  0  0  0  0  0  0  0
   23.0052   71.9690   -2.6292 C   0  0  1  0  0  0  0  0  0  0  0  0
   21.5496   71.6995   -4.4515 C   0  0  2  0  0  0  0  0  0  0  0  0
   24.1786   73.8719   -4.9783 H   0  0  0  0  0  0  0  0  0  0  0  0
   21.8385   74.8863   -5.1693 H   0  0  0  0  0  0  0  0  0  0  0  0
   20.1494   70.9145   -6.7755 O   0  0  0  0  0  0  0  0  0  0  0  0
   16.2567   70.2055   -4.4122 O   0  0  0  0  0  0  0  0  0  0  0  0
   20.1695   71.3043   -4.4723 N   0  0  0  0  0  0  0  0  0  0  0  0
   18.2123   70.5619   -5.5969 N   0  0  0  0  0  0  0  0  0  0  0  0
   19.5607   70.9291   -5.6925 C   0  0  0  0  0  0  0  0  0  0  0  0
   19.4345   71.2912   -3.2918 C   0  0  0  0  0  0  0  0  0  0  0  0
   18.1492   70.9397   -3.2177 C   0  0  0  0  0  0  0  0  0  0  0  0
   17.4385   70.5340   -4.4475 C   0  0  0  0  0  0  0  0  0  0  0  0
   17.7672   70.2970   -6.4344 H   0  0  0  0  0  0  0  0  0  0  0  0
   24.6036   71.9813    1.8041 O   0  0  0  0  0  0  0  0  0  0  0  0
   23.5940   71.2858    2.8577 P   0  0  2  0  0  0  0  0  0  0  0  0
   24.5245   71.0440    4.1590 O   0  0  0  0  0  0  0  0  0  0  0  0
   22.9204   70.0483    2.3395 O   0  0  0  0  0  0  0  0  0  0  0  0
   22.5823   72.4654    3.2936 O   0  0  0  0  0  0  0  0  0  0  0  0
   23.3433   74.4757    4.2916 O   0  0  0  0  0  0  0  0  0  0  0  0
   19.4791   74.4385    5.7466 O   0  0  0  0  0  0  0  0  0  0  0  0
   20.2057   76.3182    3.7005 O   0  0  0  0  0  0  0  0  0  0  0  0
   20.9648   71.9634    5.5312 O   0  0  0  0  0  0  0  0  0  0  0  0
   20.5111   74.2077    4.7837 C   0  0  1  0  0  0  0  0  0  0  0  0
   21.1541   75.5523    4.4383 C   0  0  1  0  0  0  0  0  0  0  0  0
   21.5453   73.2543    5.3793 C   0  0  2  0  0  0  0  0  0  0  0  0
   22.4375   75.3586    3.6195 C   0  0  1  0  0  0  0  0  0  0  0  0
   22.8027   73.1715    4.5119 C   0  0  1  0  0  0  0  0  0  0  0  0
   18.8188   75.0427    5.3745 H   0  0  0  0  0  0  0  0  0  0  0  0
   19.3999   76.4328    4.2284 H   0  0  0  0  0  0  0  0  0  0  0  0
   20.1701   72.0293    6.0825 H   0  0  0  0  0  0  0  0  0  0  0  0
   22.5261   77.6888    4.1405 O   0  0  0  0  0  0  0  0  0  0  0  0
   23.1791   76.6751    3.3986 C   0  0  0  0  0  0  0  0  0  0  0  0
   22.9874   78.5324    4.0097 H   0  0  0  0  0  0  0  0  0  0  0  0
 25 28  1  0
 25 24  1  0
 25 26  1  1
 25 27  2  0
  1  4  1  0
  1 24  1  0
  1  2  1  1
  1  3  2  0
  6 11  1  0
  6 12  1  0
 29 36  1  0
 29 37  1  0
  9  7  1  6
  7 13  1  0
 10  8  1  6
  8 14  1  0
 37 28  1  6
  4  5  1  0
 33 30  1  1
 30 38  1  0
 34 31  1  6
 31 39  1  0
 35 32  1  6
 32 40  1  0
 41 42  1  0
 41 43  1  0
 15 19  2  0
 16 22  2  0
 12 17  1  1
 17 19  1  0
 17 20  1  0
 18 19  1  0
 18 22  1  0
 18 23  1  0
  9 10  1  0
  9 11  1  0
 10 12  1  0
 11  5  1  1
 33 34  1  0
 33 35  1  0
 34 36  1  0
 35 37  1  0
 36 42  1  1
 20 21  2  0
 21 22  1  0
M  CHG  2   2  -1  26  -1
M  END
>  <COMPND>  (170) 
    8629 

>  <AUTHOR>  (170) 
    GENERATED BY OPEN BABEL 3.1.1

>  <MASTER>  (170) 
        0    0    0    0    0    0    0    0   58    0   58    0

>  <minimizedAffinity>  (170) 
-6.23275

>  <CNNscore>  (170) 
0.4551049471

>  <CNNaffinity>  (170) 
3.9997458458

>  <CNN_VS>  (170) 
1.8203041553

>  <CNNaffinity_variance>  (170) 
0.0790777653

$$$$
171
     RDKit          3D

 43 45  0  0  0  0  0  0  0  0999 V2000
   21.8894   73.4753   -4.6907 P   0  0  2  0  0  0  0  0  0  0  0  0
   23.3252   72.7321   -4.7515 O   0  0  0  0  0  0  0  0  0  0  0  0
   21.8896   74.8951   -5.1761 O   0  0  0  0  0  0  0  0  0  0  0  0
   21.4022   73.2549   -3.1637 O   0  0  0  0  0  0  0  0  0  0  0  0
   21.9004   72.1369   -2.4498 C   0  0  0  0  0  0  0  0  0  0  0  0
   21.6481   71.1261   -0.2845 O   0  0  0  0  0  0  0  0  0  0  0  0
   19.0168   72.5555   -0.1306 O   0  0  0  0  0  0  0  0  0  0  0  0
   20.6388   74.1303    1.3944 O   0  0  0  0  0  0  0  0  0  0  0  0
   20.2449   72.9866   -0.7147 C   0  0  1  0  0  0  0  0  0  0  0  0
   21.2357   73.3675    0.3656 C   0  0  2  0  0  0  0  0  0  0  0  0
   20.9150   71.7734   -1.3474 C   0  0  1  0  0  0  0  0  0  0  0  0
   21.7141   72.0085    0.8477 C   0  0  2  0  0  0  0  0  0  0  0  0
   18.5704   73.3134    0.2796 H   0  0  0  0  0  0  0  0  0  0  0  0
   20.3512   74.9853    1.0380 H   0  0  0  0  0  0  0  0  0  0  0  0
   22.7817   70.1925    2.7293 O   0  0  0  0  0  0  0  0  0  0  0  0
   26.9091   72.2413    2.6385 O   0  0  0  0  0  0  0  0  0  0  0  0
   23.0648   72.0440    1.3331 N   0  0  0  0  0  0  0  0  0  0  0  0
   24.8360   71.2140    2.6824 N   0  0  0  0  0  0  0  0  0  0  0  0
   23.5009   71.0864    2.2783 C   0  0  0  0  0  0  0  0  0  0  0  0
   23.9415   73.0201    0.8722 C   0  0  0  0  0  0  0  0  0  0  0  0
   25.2113   73.1289    1.2684 C   0  0  0  0  0  0  0  0  0  0  0  0
   25.7460   72.1676    2.2543 C   0  0  0  0  0  0  0  0  0  0  0  0
   25.1619   70.5581    3.3407 H   0  0  0  0  0  0  0  0  0  0  0  0
   20.9288   72.4790   -5.5259 O   0  0  0  0  0  0  0  0  0  0  0  0
   20.5386   72.4476   -7.0943 P   0  0  2  0  0  0  0  0  0  0  0  0
   21.6829   71.5055   -7.7426 O   0  0  0  0  0  0  0  0  0  0  0  0
   20.4218   73.8043   -7.7266 O   0  0  0  0  0  0  0  0  0  0  0  0
   19.1925   71.5597   -7.1627 O   0  0  0  0  0  0  0  0  0  0  0  0
   17.1336   72.7314   -7.0949 O   0  0  0  0  0  0  0  0  0  0  0  0
   15.7696   68.9461   -6.1663 O   0  0  0  0  0  0  0  0  0  0  0  0
   15.2069   70.0612   -8.7524 O   0  0  0  0  0  0  0  0  0  0  0  0
   18.3012   69.8686   -5.1082 O   0  0  0  0  0  0  0  0  0  0  0  0
   16.6053   69.9064   -6.8181 C   0  0  1  0  0  0  0  0  0  0  0  0
   15.7158   70.8227   -7.6608 C   0  0  1  0  0  0  0  0  0  0  0  0
   17.3583   70.7120   -5.7610 C   0  0  2  0  0  0  0  0  0  0  0  0
   16.5011   72.0363   -8.1759 C   0  0  1  0  0  0  0  0  0  0  0  0
   18.0644   71.9239   -6.3714 C   0  0  1  0  0  0  0  0  0  0  0  0
   15.2890   68.4309   -6.8320 H   0  0  0  0  0  0  0  0  0  0  0  0
   14.7136   69.2977   -8.4135 H   0  0  0  0  0  0  0  0  0  0  0  0
   17.8417   69.1054   -4.7258 H   0  0  0  0  0  0  0  0  0  0  0  0
   14.2516   72.7384   -8.5707 O   0  0  0  0  0  0  0  0  0  0  0  0
   15.5979   73.0427   -8.8856 C   0  0  0  0  0  0  0  0  0  0  0  0
   13.6653   73.3711   -9.0153 H   0  0  0  0  0  0  0  0  0  0  0  0
 25 28  1  0
 25 24  1  0
 25 26  1  6
 25 27  2  0
  1  4  1  0
  1 24  1  0
  1  2  1  1
  1  3  2  0
  6 11  1  0
  6 12  1  0
 29 36  1  0
 29 37  1  0
  9  7  1  1
  7 13  1  0
 10  8  1  1
  8 14  1  0
 37 28  1  6
  4  5  1  0
 33 30  1  1
 30 38  1  0
 34 31  1  6
 31 39  1  0
 35 32  1  6
 32 40  1  0
 41 42  1  0
 41 43  1  0
 15 19  2  0
 16 22  2  0
 12 17  1  6
 17 19  1  0
 17 20  1  0
 18 19  1  0
 18 22  1  0
 18 23  1  0
  9 10  1  0
  9 11  1  0
 10 12  1  0
 11  5  1  6
 33 34  1  0
 33 35  1  0
 34 36  1  0
 35 37  1  0
 36 42  1  1
 20 21  2  0
 21 22  1  0
M  CHG  2   2  -1  26  -1
M  END
>  <COMPND>  (171) 
    8629 

>  <AUTHOR>  (171) 
    GENERATED BY OPEN BABEL 3.1.1

>  <MASTER>  (171) 
        0    0    0    0    0    0    0    0   58    0   58    0

>  <minimizedAffinity>  (171) 
-7.57155

>  <CNNscore>  (171) 
0.4311341345

>  <CNNaffinity>  (171) 
4.1564025879

>  <CNN_VS>  (171) 
1.7919670343

>  <CNNaffinity_variance>  (171) 
0.0878162682

$$$$
172
     RDKit          3D

 43 45  0  0  0  0  0  0  0  0999 V2000
   22.8697   71.7701    1.8997 P   0  0  2  0  0  0  0  0  0  0  0  0
   22.5952   70.6280    3.0122 O   0  0  0  0  0  0  0  0  0  0  0  0
   21.8930   72.9091    1.9064 O   0  0  0  0  0  0  0  0  0  0  0  0
   22.9759   70.9437    0.5127 O   0  0  0  0  0  0  0  0  0  0  0  0
   22.5106   71.5569   -0.6770 C   0  0  0  0  0  0  0  0  0  0  0  0
   22.3364   70.6424   -2.8922 O   0  0  0  0  0  0  0  0  0  0  0  0
   25.2533   71.2744   -3.1802 O   0  0  0  0  0  0  0  0  0  0  0  0
   24.0645   73.3292   -4.5224 O   0  0  0  0  0  0  0  0  0  0  0  0
   24.2362   72.0014   -2.4929 C   0  0  1  0  0  0  0  0  0  0  0  0
   23.3350   72.7088   -3.4833 C   0  0  2  0  0  0  0  0  0  0  0  0
   23.2847   70.9933   -1.8607 C   0  0  1  0  0  0  0  0  0  0  0  0
   22.4602   71.5710   -3.9817 C   0  0  2  0  0  0  0  0  0  0  0  0
   25.8734   71.8972   -3.5921 H   0  0  0  0  0  0  0  0  0  0  0  0
   24.6051   74.0457   -4.1550 H   0  0  0  0  0  0  0  0  0  0  0  0
   21.6740   72.1046   -6.6416 O   0  0  0  0  0  0  0  0  0  0  0  0
   17.4096   73.2724   -5.3405 O   0  0  0  0  0  0  0  0  0  0  0  0
   21.1504   72.0154   -4.3667 N   0  0  0  0  0  0  0  0  0  0  0  0
   19.5512   72.6855   -5.9916 N   0  0  0  0  0  0  0  0  0  0  0  0
   20.8584   72.2558   -5.7296 C   0  0  0  0  0  0  0  0  0  0  0  0
   20.1714   72.2081   -3.3981 C   0  0  0  0  0  0  0  0  0  0  0  0
   18.9300   72.6194   -3.6642 C   0  0  0  0  0  0  0  0  0  0  0  0
   18.5432   72.8929   -5.0634 C   0  0  0  0  0  0  0  0  0  0  0  0
   19.3251   72.8596   -6.9341 H   0  0  0  0  0  0  0  0  0  0  0  0
   24.4023   72.1964    2.1869 O   0  0  0  0  0  0  0  0  0  0  0  0
   25.3832   73.2190    1.4092 P   0  0  2  0  0  0  0  0  0  0  0  0
   24.5617   74.6125    1.4341 O   0  0  0  0  0  0  0  0  0  0  0  0
   25.7858   72.7620    0.0370 O   0  0  0  0  0  0  0  0  0  0  0  0
   26.6159   73.4543    2.4242 O   0  0  0  0  0  0  0  0  0  0  0  0
   27.9136   72.2036    3.9631 O   0  0  0  0  0  0  0  0  0  0  0  0
   26.8753   75.3727    6.3981 O   0  0  0  0  0  0  0  0  0  0  0  0
   29.5708   75.1505    5.4323 O   0  0  0  0  0  0  0  0  0  0  0  0
   24.9512   74.3068    4.5163 O   0  0  0  0  0  0  0  0  0  0  0  0
   27.2299   74.7372    5.1670 C   0  0  1  0  0  0  0  0  0  0  0  0
   28.6113   74.1015    5.3360 C   0  0  1  0  0  0  0  0  0  0  0  0
   26.1853   73.6731    4.8355 C   0  0  2  0  0  0  0  0  0  0  0  0
   28.9447   73.1791    4.1557 C   0  0  1  0  0  0  0  0  0  0  0  0
   26.6369   72.7792    3.6792 C   0  0  1  0  0  0  0  0  0  0  0  0
   27.5343   76.0498    6.6141 H   0  0  0  0  0  0  0  0  0  0  0  0
   29.3485   75.7259    6.1811 H   0  0  0  0  0  0  0  0  0  0  0  0
   24.6759   74.8695    5.2562 H   0  0  0  0  0  0  0  0  0  0  0  0
   31.3304   73.2664    4.0573 O   0  0  0  0  0  0  0  0  0  0  0  0
   30.2471   72.4134    4.3785 C   0  0  0  0  0  0  0  0  0  0  0  0
   32.1661   72.7925    4.1946 H   0  0  0  0  0  0  0  0  0  0  0  0
 25 28  1  0
 25 24  1  0
 25 26  1  6
 25 27  2  0
  1  4  1  0
  1 24  1  0
  1  2  1  1
  1  3  2  0
  6 11  1  0
  6 12  1  0
 29 36  1  0
 29 37  1  0
  9  7  1  6
  7 13  1  0
 10  8  1  6
  8 14  1  0
 37 28  1  6
  4  5  1  0
 33 30  1  1
 30 38  1  0
 34 31  1  6
 31 39  1  0
 35 32  1  6
 32 40  1  0
 41 42  1  0
 41 43  1  0
 15 19  2  0
 16 22  2  0
 12 17  1  1
 17 19  1  0
 17 20  1  0
 18 19  1  0
 18 22  1  0
 18 23  1  0
  9 10  1  0
  9 11  1  0
 10 12  1  0
 11  5  1  1
 33 34  1  0
 33 35  1  0
 34 36  1  0
 35 37  1  0
 36 42  1  1
 20 21  2  0
 21 22  1  0
M  CHG  2   2  -1  26  -1
M  END
>  <COMPND>  (172) 
    8629 

>  <AUTHOR>  (172) 
    GENERATED BY OPEN BABEL 3.1.1

>  <MASTER>  (172) 
        0    0    0    0    0    0    0    0   58    0   58    0

>  <minimizedAffinity>  (172) 
-6.51273

>  <CNNscore>  (172) 
0.4245845973

>  <CNNaffinity>  (172) 
4.1173133850

>  <CNN_VS>  (172) 
1.7481478453

>  <CNNaffinity_variance>  (172) 
0.1126405150

$$$$
173
     RDKit          3D

 43 45  0  0  0  0  0  0  0  0999 V2000
   22.0569   73.7579   -0.8704 P   0  0  2  0  0  0  0  0  0  0  0  0
   21.8646   75.3186   -0.4899 O   0  0  0  0  0  0  0  0  0  0  0  0
   20.7936   72.9484   -0.8834 O   0  0  0  0  0  0  0  0  0  0  0  0
   23.2072   73.2489    0.1473 O   0  0  0  0  0  0  0  0  0  0  0  0
   23.2384   73.7890    1.4570 C   0  0  0  0  0  0  0  0  0  0  0  0
   24.5822   73.9956    3.4382 O   0  0  0  0  0  0  0  0  0  0  0  0
   26.2560   71.7793    2.3081 O   0  0  0  0  0  0  0  0  0  0  0  0
   24.7143   70.4821    4.1458 O   0  0  0  0  0  0  0  0  0  0  0  0
   24.8448   71.9738    2.2303 C   0  0  1  0  0  0  0  0  0  0  0  0
   24.1966   71.6606    3.5627 C   0  0  2  0  0  0  0  0  0  0  0  0
   24.5840   73.4687    2.0934 C   0  0  1  0  0  0  0  0  0  0  0  0
   24.5219   72.9047    4.3716 C   0  0  2  0  0  0  0  0  0  0  0  0
   26.4472   70.8318    2.3957 H   0  0  0  0  0  0  0  0  0  0  0  0
   24.4810   69.7190    3.5944 H   0  0  0  0  0  0  0  0  0  0  0  0
   24.9401   74.5403    6.6361 O   0  0  0  0  0  0  0  0  0  0  0  0
   20.6120   73.9356    8.0998 O   0  0  0  0  0  0  0  0  0  0  0  0
   23.5215   73.1920    5.3606 N   0  0  0  0  0  0  0  0  0  0  0  0
   22.7847   74.2380    7.3630 N   0  0  0  0  0  0  0  0  0  0  0  0
   23.8343   74.0246    6.4603 C   0  0  0  0  0  0  0  0  0  0  0  0
   22.2468   72.6508    5.2345 C   0  0  0  0  0  0  0  0  0  0  0  0
   21.2573   72.8629    6.1047 C   0  0  0  0  0  0  0  0  0  0  0  0
   21.5012   73.7214    7.2817 C   0  0  0  0  0  0  0  0  0  0  0  0
   22.9795   74.8146    8.1372 H   0  0  0  0  0  0  0  0  0  0  0  0
   22.8294   73.8221   -2.2889 O   0  0  0  0  0  0  0  0  0  0  0  0
   23.0604   72.6945   -3.4239 P   0  0  2  0  0  0  0  0  0  0  0  0
   23.4008   71.3670   -2.5641 O   0  0  0  0  0  0  0  0  0  0  0  0
   24.0998   73.0539   -4.4458 O   0  0  0  0  0  0  0  0  0  0  0  0
   21.5908   72.4204   -4.0324 O   0  0  0  0  0  0  0  0  0  0  0  0
   20.1985   70.6345   -3.3334 O   0  0  0  0  0  0  0  0  0  0  0  0
   18.7457   71.1430   -7.1650 O   0  0  0  0  0  0  0  0  0  0  0  0
   17.1560   71.9774   -4.9235 O   0  0  0  0  0  0  0  0  0  0  0  0
   21.5819   71.4071   -6.6493 O   0  0  0  0  0  0  0  0  0  0  0  0
   19.2940   71.5637   -5.9129 C   0  0  1  0  0  0  0  0  0  0  0  0
   18.3192   71.1632   -4.8038 C   0  0  1  0  0  0  0  0  0  0  0  0
   20.6483   70.8875   -5.7085 C   0  0  2  0  0  0  0  0  0  0  0  0
   18.9543   71.3392   -3.4179 C   0  0  1  0  0  0  0  0  0  0  0  0
   21.1677   71.0827   -4.2830 C   0  0  1  0  0  0  0  0  0  0  0  0
   17.8859   71.5691   -7.3012 H   0  0  0  0  0  0  0  0  0  0  0  0
   16.7649   71.8573   -5.8032 H   0  0  0  0  0  0  0  0  0  0  0  0
   21.2417   71.2771   -7.5477 H   0  0  0  0  0  0  0  0  0  0  0  0
   18.1173   71.6902   -1.2077 O   0  0  0  0  0  0  0  0  0  0  0  0
   18.0588   70.7981   -2.3055 C   0  0  0  0  0  0  0  0  0  0  0  0
   17.5518   71.3588   -0.4921 H   0  0  0  0  0  0  0  0  0  0  0  0
 25 28  1  0
 25 24  1  0
 25 26  1  1
 25 27  2  0
  1  4  1  0
  1 24  1  0
  1  2  1  1
  1  3  2  0
  6 11  1  0
  6 12  1  0
 29 36  1  0
 29 37  1  0
  9  7  1  1
  7 13  1  0
 10  8  1  1
  8 14  1  0
 37 28  1  1
  4  5  1  0
 33 30  1  6
 30 38  1  0
 34 31  1  1
 31 39  1  0
 35 32  1  6
 32 40  1  0
 41 42  1  0
 41 43  1  0
 15 19  2  0
 16 22  2  0
 12 17  1  1
 17 19  1  0
 17 20  1  0
 18 19  1  0
 18 22  1  0
 18 23  1  0
  9 10  1  0
  9 11  1  0
 10 12  1  0
 11  5  1  1
 33 34  1  0
 33 35  1  0
 34 36  1  0
 35 37  1  0
 36 42  1  1
 20 21  2  0
 21 22  1  0
M  CHG  2   2  -1  26  -1
M  END
>  <COMPND>  (173) 
    8629 

>  <AUTHOR>  (173) 
    GENERATED BY OPEN BABEL 3.1.1

>  <MASTER>  (173) 
        0    0    0    0    0    0    0    0   58    0   58    0

>  <minimizedAffinity>  (173) 
-5.98391

>  <CNNscore>  (173) 
0.4179609716

>  <CNNaffinity>  (173) 
3.8921158314

>  <CNN_VS>  (173) 
1.6267524958

>  <CNNaffinity_variance>  (173) 
0.1917289793

$$$$
174
     RDKit          3D

 43 45  0  0  0  0  0  0  0  0999 V2000
   24.0293   74.3196   -1.1678 P   0  0  2  0  0  0  0  0  0  0  0  0
   24.5234   75.7204   -1.8090 O   0  0  0  0  0  0  0  0  0  0  0  0
   22.9182   74.4380   -0.1664 O   0  0  0  0  0  0  0  0  0  0  0  0
   25.3931   73.6376   -0.6267 O   0  0  0  0  0  0  0  0  0  0  0  0
   25.7723   73.8605    0.7203 C   0  0  0  0  0  0  0  0  0  0  0  0
   26.7849   72.2935    2.2346 O   0  0  0  0  0  0  0  0  0  0  0  0
   23.9984   71.3721    2.8486 O   0  0  0  0  0  0  0  0  0  0  0  0
   24.5776   72.9739    4.9782 O   0  0  0  0  0  0  0  0  0  0  0  0
   24.4719   72.6879    2.5661 C   0  0  1  0  0  0  0  0  0  0  0  0
   25.2318   73.2396    3.7542 C   0  0  2  0  0  0  0  0  0  0  0  0
   25.5665   72.5765    1.5122 C   0  0  1  0  0  0  0  0  0  0  0  0
   26.5655   72.5217    3.6362 C   0  0  2  0  0  0  0  0  0  0  0  0
   23.2981   71.4176    3.5191 H   0  0  0  0  0  0  0  0  0  0  0  0
   23.7347   73.4530    5.0051 H   0  0  0  0  0  0  0  0  0  0  0  0
   28.9091   71.4260    4.7697 O   0  0  0  0  0  0  0  0  0  0  0  0
   30.6748   75.5999    5.6078 O   0  0  0  0  0  0  0  0  0  0  0  0
   27.6540   73.2989    4.1581 N   0  0  0  0  0  0  0  0  0  0  0  0
   29.7865   73.5052    5.1859 N   0  0  0  0  0  0  0  0  0  0  0  0
   28.7852   72.6509    4.7068 C   0  0  0  0  0  0  0  0  0  0  0  0
   27.5934   74.6878    4.1226 C   0  0  0  0  0  0  0  0  0  0  0  0
   28.5562   75.4881    4.5848 C   0  0  0  0  0  0  0  0  0  0  0  0
   29.7720   74.8910    5.1741 C   0  0  0  0  0  0  0  0  0  0  0  0
   30.5839   73.0761    5.5730 H   0  0  0  0  0  0  0  0  0  0  0  0
   23.6701   73.4308   -2.4693 O   0  0  0  0  0  0  0  0  0  0  0  0
   23.7107   71.8324   -2.7074 P   0  0  2  0  0  0  0  0  0  0  0  0
   23.1101   71.2365   -1.3283 O   0  0  0  0  0  0  0  0  0  0  0  0
   25.0653   71.2992   -3.0744 O   0  0  0  0  0  0  0  0  0  0  0  0
   22.5620   71.5538   -3.8063 O   0  0  0  0  0  0  0  0  0  0  0  0
   21.1194   73.1725   -4.7631 O   0  0  0  0  0  0  0  0  0  0  0  0
   18.6214   69.8883   -4.9189 O   0  0  0  0  0  0  0  0  0  0  0  0
   19.7810   70.9040   -7.3420 O   0  0  0  0  0  0  0  0  0  0  0  0
   20.3556   70.2763   -2.6338 O   0  0  0  0  0  0  0  0  0  0  0  0
   19.8739   70.5764   -4.9746 C   0  0  1  0  0  0  0  0  0  0  0  0
   19.8049   71.6072   -6.1030 C   0  0  1  0  0  0  0  0  0  0  0  0
   20.1261   71.2632   -3.6337 C   0  0  2  0  0  0  0  0  0  0  0  0
   21.0045   72.5631   -6.0543 C   0  0  1  0  0  0  0  0  0  0  0  0
   21.3105   72.2286   -3.7075 C   0  0  1  0  0  0  0  0  0  0  0  0
   18.4554   69.4496   -5.7671 H   0  0  0  0  0  0  0  0  0  0  0  0
   19.0191   70.3036   -7.3598 H   0  0  0  0  0  0  0  0  0  0  0  0
   19.5987   69.6717   -2.5968 H   0  0  0  0  0  0  0  0  0  0  0  0
   21.2149   73.1899   -8.3503 O   0  0  0  0  0  0  0  0  0  0  0  0
   20.8759   73.6946   -7.0717 C   0  0  0  0  0  0  0  0  0  0  0  0
   21.1373   73.8991   -9.0082 H   0  0  0  0  0  0  0  0  0  0  0  0
 25 28  1  0
 25 24  1  0
 25 26  1  1
 25 27  2  0
  1  4  1  0
  1 24  1  0
  1  2  1  6
  1  3  2  0
  6 11  1  0
  6 12  1  0
 29 36  1  0
 29 37  1  0
  9  7  1  1
  7 13  1  0
 10  8  1  1
  8 14  1  0
 37 28  1  6
  4  5  1  0
 33 30  1  1
 30 38  1  0
 34 31  1  6
 31 39  1  0
 35 32  1  1
 32 40  1  0
 41 42  1  0
 41 43  1  0
 15 19  2  0
 16 22  2  0
 12 17  1  6
 17 19  1  0
 17 20  1  0
 18 19  1  0
 18 22  1  0
 18 23  1  0
  9 10  1  0
  9 11  1  0
 10 12  1  0
 11  5  1  1
 33 34  1  0
 33 35  1  0
 34 36  1  0
 35 37  1  0
 36 42  1  6
 20 21  2  0
 21 22  1  0
M  CHG  2   2  -1  26  -1
M  END
>  <COMPND>  (174) 
    8629 

>  <AUTHOR>  (174) 
    GENERATED BY OPEN BABEL 3.1.1

>  <MASTER>  (174) 
        0    0    0    0    0    0    0    0   58    0   58    0

>  <minimizedAffinity>  (174) 
-5.96158

>  <CNNscore>  (174) 
0.4052500725

>  <CNNaffinity>  (174) 
4.0633649826

>  <CNN_VS>  (174) 
1.6466789246

>  <CNNaffinity_variance>  (174) 
0.2519081533

$$$$
175
     RDKit          3D

 43 45  0  0  0  0  0  0  0  0999 V2000
   22.1244   73.8460   -4.5902 P   0  0  2  0  0  0  0  0  0  0  0  0
   23.4496   72.9477   -4.8227 O   0  0  0  0  0  0  0  0  0  0  0  0
   22.3034   75.3153   -4.8366 O   0  0  0  0  0  0  0  0  0  0  0  0
   21.6342   73.4375   -3.1033 O   0  0  0  0  0  0  0  0  0  0  0  0
   22.1105   72.2262   -2.5434 C   0  0  0  0  0  0  0  0  0  0  0  0
   21.8364   71.0601   -0.4604 O   0  0  0  0  0  0  0  0  0  0  0  0
   19.1106   72.3036   -0.3381 O   0  0  0  0  0  0  0  0  0  0  0  0
   20.5575   73.8753    1.3569 O   0  0  0  0  0  0  0  0  0  0  0  0
   20.3303   72.8507   -0.8363 C   0  0  1  0  0  0  0  0  0  0  0  0
   21.2471   73.2224    0.3105 C   0  0  2  0  0  0  0  0  0  0  0  0
   21.1065   71.7278   -1.5130 C   0  0  1  0  0  0  0  0  0  0  0  0
   21.7953   71.8681    0.7272 C   0  0  2  0  0  0  0  0  0  0  0  0
   18.5974   73.0023    0.0982 H   0  0  0  0  0  0  0  0  0  0  0  0
   20.2282   74.7317    1.0423 H   0  0  0  0  0  0  0  0  0  0  0  0
   22.8361   70.1135    2.6807 O   0  0  0  0  0  0  0  0  0  0  0  0
   26.8866   72.3108    2.7598 O   0  0  0  0  0  0  0  0  0  0  0  0
   23.1190   71.9584    1.2758 N   0  0  0  0  0  0  0  0  0  0  0  0
   24.8521   71.2089    2.7184 N   0  0  0  0  0  0  0  0  0  0  0  0
   23.5434   71.0280    2.2529 C   0  0  0  0  0  0  0  0  0  0  0  0
   23.9810   72.9607    0.8445 C   0  0  0  0  0  0  0  0  0  0  0  0
   25.2256   73.1204    1.2993 C   0  0  0  0  0  0  0  0  0  0  0  0
   25.7467   72.1903    2.3217 C   0  0  0  0  0  0  0  0  0  0  0  0
   25.1694   70.5727    3.3998 H   0  0  0  0  0  0  0  0  0  0  0  0
   21.0300   73.1327   -5.5423 O   0  0  0  0  0  0  0  0  0  0  0  0
   20.9366   73.0192   -7.1521 P   0  0  2  0  0  0  0  0  0  0  0  0
   21.8099   71.6978   -7.4822 O   0  0  0  0  0  0  0  0  0  0  0  0
   21.3805   74.2533   -7.8828 O   0  0  0  0  0  0  0  0  0  0  0  0
   19.4104   72.5822   -7.4429 O   0  0  0  0  0  0  0  0  0  0  0  0
   18.7564   70.7382   -6.1055 O   0  0  0  0  0  0  0  0  0  0  0  0
   15.5077   70.8931   -8.6497 O   0  0  0  0  0  0  0  0  0  0  0  0
   15.2125   71.7357   -5.9201 O   0  0  0  0  0  0  0  0  0  0  0  0
   18.1666   71.4120   -9.6697 O   0  0  0  0  0  0  0  0  0  0  0  0
   16.5736   71.4323   -7.8633 C   0  0  1  0  0  0  0  0  0  0  0  0
   16.3479   71.0250   -6.4059 C   0  0  1  0  0  0  0  0  0  0  0  0
   17.9018   70.8792   -8.3765 C   0  0  2  0  0  0  0  0  0  0  0  0
   17.5807   71.3357   -5.5465 C   0  0  1  0  0  0  0  0  0  0  0  0
   19.0542   71.2024   -7.4238 C   0  0  1  0  0  0  0  0  0  0  0  0
   14.6615   71.2407   -8.3293 H   0  0  0  0  0  0  0  0  0  0  0  0
   14.4411   71.5311   -6.4717 H   0  0  0  0  0  0  0  0  0  0  0  0
   17.4300   71.2005  -10.2635 H   0  0  0  0  0  0  0  0  0  0  0  0
   16.3224   69.9248   -4.0854 O   0  0  0  0  0  0  0  0  0  0  0  0
   17.4383   70.7952   -4.1254 C   0  0  0  0  0  0  0  0  0  0  0  0
   16.2196   69.5729   -3.1869 H   0  0  0  0  0  0  0  0  0  0  0  0
 25 28  1  0
 25 24  1  0
 25 26  1  6
 25 27  2  0
  1  4  1  0
  1 24  1  0
  1  2  1  6
  1  3  2  0
  6 11  1  0
  6 12  1  0
 29 36  1  0
 29 37  1  0
  9  7  1  1
  7 13  1  0
 10  8  1  1
  8 14  1  0
 37 28  1  1
  4  5  1  0
 33 30  1  6
 30 38  1  0
 34 31  1  1
 31 39  1  0
 35 32  1  6
 32 40  1  0
 41 42  1  0
 41 43  1  0
 15 19  2  0
 16 22  2  0
 12 17  1  6
 17 19  1  0
 17 20  1  0
 18 19  1  0
 18 22  1  0
 18 23  1  0
  9 10  1  0
  9 11  1  0
 10 12  1  0
 11  5  1  6
 33 34  1  0
 33 35  1  0
 34 36  1  0
 35 37  1  0
 36 42  1  1
 20 21  2  0
 21 22  1  0
M  CHG  2   2  -1  26  -1
M  END
>  <COMPND>  (175) 
    8629 

>  <AUTHOR>  (175) 
    GENERATED BY OPEN BABEL 3.1.1

>  <MASTER>  (175) 
        0    0    0    0    0    0    0    0   58    0   58    0

>  <minimizedAffinity>  (175) 
-7.50258

>  <CNNscore>  (175) 
0.3956310749

>  <CNNaffinity>  (175) 
4.1481218338

>  <CNN_VS>  (175) 
1.6411259174

>  <CNNaffinity_variance>  (175) 
0.0624670759

$$$$
176
     RDKit          3D

 43 45  0  0  0  0  0  0  0  0999 V2000
   22.9566   72.5991   -3.5088 P   0  0  2  0  0  0  0  0  0  0  0  0
   23.1733   71.3514   -2.5020 O   0  0  0  0  0  0  0  0  0  0  0  0
   24.1268   72.9088   -4.3954 O   0  0  0  0  0  0  0  0  0  0  0  0
   22.4720   73.8006   -2.5395 O   0  0  0  0  0  0  0  0  0  0  0  0
   23.2275   74.9992   -2.5190 C   0  0  0  0  0  0  0  0  0  0  0  0
   21.8592   75.1964   -0.5536 O   0  0  0  0  0  0  0  0  0  0  0  0
   22.9774   77.9652   -0.2809 O   0  0  0  0  0  0  0  0  0  0  0  0
   24.4368   76.5529    1.5390 O   0  0  0  0  0  0  0  0  0  0  0  0
   23.6168   76.7751   -0.7391 C   0  0  1  0  0  0  0  0  0  0  0  0
   23.9137   75.8554    0.4269 C   0  0  2  0  0  0  0  0  0  0  0  0
   22.5945   75.9674   -1.5290 C   0  0  1  0  0  0  0  0  0  0  0  0
   22.5487   75.2497    0.7060 C   0  0  2  0  0  0  0  0  0  0  0  0
   23.6108   78.4977    0.2261 H   0  0  0  0  0  0  0  0  0  0  0  0
   25.3056   76.9193    1.3115 H   0  0  0  0  0  0  0  0  0  0  0  0
   21.0755   74.3285    2.9329 O   0  0  0  0  0  0  0  0  0  0  0  0
   22.9750   70.1366    2.6868 O   0  0  0  0  0  0  0  0  0  0  0  0
   22.6384   73.9220    1.2450 N   0  0  0  0  0  0  0  0  0  0  0  0
   22.0223   72.2420    2.8084 N   0  0  0  0  0  0  0  0  0  0  0  0
   21.8562   73.5608    2.3667 C   0  0  0  0  0  0  0  0  0  0  0  0
   23.4945   72.9939    0.6622 C   0  0  0  0  0  0  0  0  0  0  0  0
   23.6423   71.7405    1.0963 C   0  0  0  0  0  0  0  0  0  0  0  0
   22.8613   71.2828    2.2636 C   0  0  0  0  0  0  0  0  0  0  0  0
   21.4878   71.9679    3.5888 H   0  0  0  0  0  0  0  0  0  0  0  0
   21.6028   72.1996   -4.2967 O   0  0  0  0  0  0  0  0  0  0  0  0
   20.8875   72.8664   -5.5837 P   0  0  2  0  0  0  0  0  0  0  0  0
   21.8989   72.5117   -6.7957 O   0  0  0  0  0  0  0  0  0  0  0  0
   20.5909   74.3304   -5.4332 O   0  0  0  0  0  0  0  0  0  0  0  0
   19.5898   71.9453   -5.8529 O   0  0  0  0  0  0  0  0  0  0  0  0
   18.0904   71.6127   -7.6577 O   0  0  0  0  0  0  0  0  0  0  0  0
   15.3583   71.9037   -4.5752 O   0  0  0  0  0  0  0  0  0  0  0  0
   15.8593   69.3498   -5.7896 O   0  0  0  0  0  0  0  0  0  0  0  0
   17.7061   73.5969   -4.5884 O   0  0  0  0  0  0  0  0  0  0  0  0
   16.6000   71.5424   -5.1859 C   0  0  1  0  0  0  0  0  0  0  0  0
   16.3051   70.5851   -6.3423 C   0  0  1  0  0  0  0  0  0  0  0  0
   17.2913   72.8054   -5.6964 C   0  0  2  0  0  0  0  0  0  0  0  0
   17.5516   70.3635   -7.2097 C   0  0  1  0  0  0  0  0  0  0  0  0
   18.4888   72.4726   -6.5883 C   0  0  1  0  0  0  0  0  0  0  0  0
   14.9145   71.1063   -4.2485 H   0  0  0  0  0  0  0  0  0  0  0  0
   15.0721   69.5037   -5.2438 H   0  0  0  0  0  0  0  0  0  0  0  0
   16.9391   73.8010   -4.0317 H   0  0  0  0  0  0  0  0  0  0  0  0
   15.8564   69.6432   -8.7317 O   0  0  0  0  0  0  0  0  0  0  0  0
   17.2412   69.5386   -8.4568 C   0  0  0  0  0  0  0  0  0  0  0  0
   15.6443   69.1233   -9.5232 H   0  0  0  0  0  0  0  0  0  0  0  0
 25 28  1  0
 25 24  1  0
 25 26  1  6
 25 27  2  0
  1  4  1  0
  1 24  1  0
  1  2  1  1
  1  3  2  0
  6 11  1  0
  6 12  1  0
 29 36  1  0
 29 37  1  0
  9  7  1  1
  7 13  1  0
 10  8  1  1
  8 14  1  0
 37 28  1  1
  4  5  1  0
 33 30  1  6
 30 38  1  0
 34 31  1  1
 31 39  1  0
 35 32  1  1
 32 40  1  0
 41 42  1  0
 41 43  1  0
 15 19  2  0
 16 22  2  0
 12 17  1  6
 17 19  1  0
 17 20  1  0
 18 19  1  0
 18 22  1  0
 18 23  1  0
  9 10  1  0
  9 11  1  0
 10 12  1  0
 11  5  1  6
 33 34  1  0
 33 35  1  0
 34 36  1  0
 35 37  1  0
 36 42  1  6
 20 21  2  0
 21 22  1  0
M  CHG  2   2  -1  26  -1
M  END
>  <COMPND>  (176) 
    8629 

>  <AUTHOR>  (176) 
    GENERATED BY OPEN BABEL 3.1.1

>  <MASTER>  (176) 
        0    0    0    0    0    0    0    0   58    0   58    0

>  <minimizedAffinity>  (176) 
-6.15240

>  <CNNscore>  (176) 
0.3757857084

>  <CNNaffinity>  (176) 
3.9924092293

>  <CNN_VS>  (176) 
1.5002902746

>  <CNNaffinity_variance>  (176) 
0.0953441411

$$$$
177
     RDKit          3D

 43 45  0  0  0  0  0  0  0  0999 V2000
   23.4069   71.5303   -2.1919 P   0  0  2  0  0  0  0  0  0  0  0  0
   23.6773   69.9977   -2.6338 O   0  0  0  0  0  0  0  0  0  0  0  0
   22.2186   71.7320   -1.2982 O   0  0  0  0  0  0  0  0  0  0  0  0
   23.3777   72.3391   -3.5929 O   0  0  0  0  0  0  0  0  0  0  0  0
   22.1420   72.8659   -4.0439 C   0  0  0  0  0  0  0  0  0  0  0  0
   20.8891   70.9535   -4.7831 O   0  0  0  0  0  0  0  0  0  0  0  0
   20.8298   72.2680   -7.4774 O   0  0  0  0  0  0  0  0  0  0  0  0
   18.3513   72.8288   -6.4877 O   0  0  0  0  0  0  0  0  0  0  0  0
   20.7631   72.8621   -6.1821 C   0  0  1  0  0  0  0  0  0  0  0  0
   19.4011   72.6246   -5.5641 C   0  0  2  0  0  0  0  0  0  0  0  0
   21.6758   72.0693   -5.2547 C   0  0  1  0  0  0  0  0  0  0  0  0
   19.5083   71.1783   -5.1114 C   0  0  2  0  0  0  0  0  0  0  0  0
   20.2551   72.7575   -8.0874 H   0  0  0  0  0  0  0  0  0  0  0  0
   18.3243   73.7636   -6.7452 H   0  0  0  0  0  0  0  0  0  0  0  0
   16.8545   70.2157   -5.2041 O   0  0  0  0  0  0  0  0  0  0  0  0
   16.5166   70.1693   -0.6080 O   0  0  0  0  0  0  0  0  0  0  0  0
   18.7034   70.9055   -3.9541 N   0  0  0  0  0  0  0  0  0  0  0  0
   16.6884   70.1932   -2.9155 N   0  0  0  0  0  0  0  0  0  0  0  0
   17.3822   70.4256   -4.1100 C   0  0  0  0  0  0  0  0  0  0  0  0
   19.2256   71.1138   -2.6822 C   0  0  0  0  0  0  0  0  0  0  0  0
   18.5505   70.8885   -1.5531 C   0  0  0  0  0  0  0  0  0  0  0  0
   17.1635   70.3861   -1.6279 C   0  0  0  0  0  0  0  0  0  0  0  0
   15.7660   69.8589   -2.9995 H   0  0  0  0  0  0  0  0  0  0  0  0
   24.8192   71.9764   -1.5442 O   0  0  0  0  0  0  0  0  0  0  0  0
   25.1928   73.1929   -0.5474 P   0  0  2  0  0  0  0  0  0  0  0  0
   24.4453   74.4628   -1.2153 O   0  0  0  0  0  0  0  0  0  0  0  0
   26.6666   73.3835   -0.3345 O   0  0  0  0  0  0  0  0  0  0  0  0
   24.3562   72.8893    0.7991 O   0  0  0  0  0  0  0  0  0  0  0  0
   25.7752   71.8122    2.3620 O   0  0  0  0  0  0  0  0  0  0  0  0
   22.2115   71.5764    4.4345 O   0  0  0  0  0  0  0  0  0  0  0  0
   24.2446   73.4044    5.3135 O   0  0  0  0  0  0  0  0  0  0  0  0
   22.2384   71.2139    1.5627 O   0  0  0  0  0  0  0  0  0  0  0  0
   23.1748   72.1747    3.5630 C   0  0  1  0  0  0  0  0  0  0  0  0
   24.4710   72.3797    4.3496 C   0  0  1  0  0  0  0  0  0  0  0  0
   23.4104   71.2505    2.3699 C   0  0  2  0  0  0  0  0  0  0  0  0
   25.6281   72.7675    3.4192 C   0  0  1  0  0  0  0  0  0  0  0  0
   24.6136   71.6980    1.5378 C   0  0  1  0  0  0  0  0  0  0  0  0
   22.0569   72.1585    5.1940 H   0  0  0  0  0  0  0  0  0  0  0  0
   23.5113   73.1474    5.8943 H   0  0  0  0  0  0  0  0  0  0  0  0
   21.4841   70.9290    2.1008 H   0  0  0  0  0  0  0  0  0  0  0  0
   27.0122   74.0237    4.9076 O   0  0  0  0  0  0  0  0  0  0  0  0
   26.9629   72.8231    4.1591 C   0  0  0  0  0  0  0  0  0  0  0  0
   27.8561   74.0726    5.3841 H   0  0  0  0  0  0  0  0  0  0  0  0
 25 28  1  0
 25 24  1  0
 25 26  1  6
 25 27  2  0
  1  4  1  0
  1 24  1  0
  1  2  1  6
  1  3  2  0
  6 11  1  0
  6 12  1  0
 29 36  1  0
 29 37  1  0
  9  7  1  6
  7 13  1  0
 10  8  1  6
  8 14  1  0
 37 28  1  1
  4  5  1  0
 33 30  1  1
 30 38  1  0
 34 31  1  1
 31 39  1  0
 35 32  1  6
 32 40  1  0
 41 42  1  0
 41 43  1  0
 15 19  2  0
 16 22  2  0
 12 17  1  1
 17 19  1  0
 17 20  1  0
 18 19  1  0
 18 22  1  0
 18 23  1  0
  9 10  1  0
  9 11  1  0
 10 12  1  0
 11  5  1  1
 33 34  1  0
 33 35  1  0
 34 36  1  0
 35 37  1  0
 36 42  1  1
 20 21  2  0
 21 22  1  0
M  CHG  2   2  -1  26  -1
M  END
>  <COMPND>  (177) 
    8629 

>  <AUTHOR>  (177) 
    GENERATED BY OPEN BABEL 3.1.1

>  <MASTER>  (177) 
        0    0    0    0    0    0    0    0   58    0   58    0

>  <minimizedAffinity>  (177) 
-5.97230

>  <CNNscore>  (177) 
0.3687986732

>  <CNNaffinity>  (177) 
3.9881813526

>  <CNN_VS>  (177) 
1.4708360434

>  <CNNaffinity_variance>  (177) 
0.2054214478

$$$$
178
     RDKit          3D

 43 45  0  0  0  0  0  0  0  0999 V2000
   23.4344   72.9968   -3.1708 P   0  0  2  0  0  0  0  0  0  0  0  0
   24.5964   71.9269   -2.8210 O   0  0  0  0  0  0  0  0  0  0  0  0
   23.9000   74.4169   -3.3053 O   0  0  0  0  0  0  0  0  0  0  0  0
   22.3082   72.7308   -2.0400 O   0  0  0  0  0  0  0  0  0  0  0  0
   21.4794   73.8098   -1.6442 C   0  0  0  0  0  0  0  0  0  0  0  0
   21.3503   72.4034    0.2999 O   0  0  0  0  0  0  0  0  0  0  0  0
   19.0537   74.1268    1.1637 O   0  0  0  0  0  0  0  0  0  0  0  0
   21.1165   75.0887    2.6658 O   0  0  0  0  0  0  0  0  0  0  0  0
   20.2476   74.4937    0.4744 C   0  0  1  0  0  0  0  0  0  0  0  0
   21.4266   74.4879    1.4250 C   0  0  2  0  0  0  0  0  0  0  0  0
   20.6042   73.3621   -0.4815 C   0  0  1  0  0  0  0  0  0  0  0  0
   21.7217   73.0030    1.5519 C   0  0  2  0  0  0  0  0  0  0  0  0
   18.8059   74.8345    1.7800 H   0  0  0  0  0  0  0  0  0  0  0  0
   20.9368   76.0324    2.5323 H   0  0  0  0  0  0  0  0  0  0  0  0
   22.7109   70.6361    2.7338 O   0  0  0  0  0  0  0  0  0  0  0  0
   27.0711   72.1040    2.4601 O   0  0  0  0  0  0  0  0  0  0  0  0
   23.1110   72.7400    1.8009 N   0  0  0  0  0  0  0  0  0  0  0  0
   24.8812   71.3689    2.5964 N   0  0  0  0  0  0  0  0  0  0  0  0
   23.5025   71.5202    2.4003 C   0  0  0  0  0  0  0  0  0  0  0  0
   24.0688   73.6859    1.4516 C   0  0  0  0  0  0  0  0  0  0  0  0
   25.3795   73.5268    1.6465 C   0  0  0  0  0  0  0  0  0  0  0  0
   25.8721   72.2803    2.2675 C   0  0  0  0  0  0  0  0  0  0  0  0
   25.1773   70.5270    3.0128 H   0  0  0  0  0  0  0  0  0  0  0  0
   22.7621   72.3801   -4.5052 O   0  0  0  0  0  0  0  0  0  0  0  0
   21.5651   72.9298   -5.4422 P   0  0  2  0  0  0  0  0  0  0  0  0
   21.7218   72.0563   -6.7949 O   0  0  0  0  0  0  0  0  0  0  0  0
   21.5855   74.4153   -5.6584 O   0  0  0  0  0  0  0  0  0  0  0  0
   20.2169   72.3729   -4.7512 O   0  0  0  0  0  0  0  0  0  0  0  0
   19.8360   70.6200   -3.2025 O   0  0  0  0  0  0  0  0  0  0  0  0
   16.5377   70.0852   -5.6286 O   0  0  0  0  0  0  0  0  0  0  0  0
   16.1983   71.1795   -2.9951 O   0  0  0  0  0  0  0  0  0  0  0  0
   19.0840   70.8180   -6.7943 O   0  0  0  0  0  0  0  0  0  0  0  0
   17.5429   70.8371   -4.9433 C   0  0  1  0  0  0  0  0  0  0  0  0
   17.4044   70.5676   -3.4436 C   0  0  1  0  0  0  0  0  0  0  0  0
   18.9193   70.4018   -5.4429 C   0  0  2  0  0  0  0  0  0  0  0  0
   18.6062   71.1232   -2.6677 C   0  0  1  0  0  0  0  0  0  0  0  0
   20.0417   70.9698   -4.5726 C   0  0  1  0  0  0  0  0  0  0  0  0
   15.6613   70.3571   -5.3163 H   0  0  0  0  0  0  0  0  0  0  0  0
   15.4474   70.8202   -3.4933 H   0  0  0  0  0  0  0  0  0  0  0  0
   18.3675   70.4517   -7.3349 H   0  0  0  0  0  0  0  0  0  0  0  0
   17.8274   69.5277   -1.0686 O   0  0  0  0  0  0  0  0  0  0  0  0
   18.5666   70.7287   -1.1929 C   0  0  0  0  0  0  0  0  0  0  0  0
   17.7941   69.2644   -0.1352 H   0  0  0  0  0  0  0  0  0  0  0  0
 25 28  1  0
 25 24  1  0
 25 26  1  6
 25 27  2  0
  1  4  1  0
  1 24  1  0
  1  2  1  1
  1  3  2  0
  6 11  1  0
  6 12  1  0
 29 36  1  0
 29 37  1  0
  9  7  1  1
  7 13  1  0
 10  8  1  1
  8 14  1  0
 37 28  1  1
  4  5  1  0
 33 30  1  6
 30 38  1  0
 34 31  1  1
 31 39  1  0
 35 32  1  6
 32 40  1  0
 41 42  1  0
 41 43  1  0
 15 19  2  0
 16 22  2  0
 12 17  1  6
 17 19  1  0
 17 20  1  0
 18 19  1  0
 18 22  1  0
 18 23  1  0
  9 10  1  0
  9 11  1  0
 10 12  1  0
 11  5  1  6
 33 34  1  0
 33 35  1  0
 34 36  1  0
 35 37  1  0
 36 42  1  1
 20 21  2  0
 21 22  1  0
M  CHG  2   2  -1  26  -1
M  END
>  <COMPND>  (178) 
    8629 

>  <AUTHOR>  (178) 
    GENERATED BY OPEN BABEL 3.1.1

>  <MASTER>  (178) 
        0    0    0    0    0    0    0    0   58    0   58    0

>  <minimizedAffinity>  (178) 
-6.24573

>  <CNNscore>  (178) 
0.3488455713

>  <CNNaffinity>  (178) 
3.8638396263

>  <CNN_VS>  (178) 
1.3478833437

>  <CNNaffinity_variance>  (178) 
0.4663676620

$$$$
179
     RDKit          3D

 43 45  0  0  0  0  0  0  0  0999 V2000
   15.7987   70.0754   -2.6417 P   0  0  2  0  0  0  0  0  0  0  0  0
   14.9817   71.4347   -2.3221 O   0  0  0  0  0  0  0  0  0  0  0  0
   15.4853   69.4442   -3.9664 O   0  0  0  0  0  0  0  0  0  0  0  0
   15.5347   69.1488   -1.3419 O   0  0  0  0  0  0  0  0  0  0  0  0
   14.2220   68.6689   -1.1090 C   0  0  0  0  0  0  0  0  0  0  0  0
   12.5770   68.8479    0.6333 O   0  0  0  0  0  0  0  0  0  0  0  0
   14.5362   67.3928    2.3754 O   0  0  0  0  0  0  0  0  0  0  0  0
   12.7870   65.4220    1.6733 O   0  0  0  0  0  0  0  0  0  0  0  0
   14.2667   67.2240    0.9847 C   0  0  1  0  0  0  0  0  0  0  0  0
   12.9448   66.5118    0.7878 C   0  0  2  0  0  0  0  0  0  0  0  0
   13.9791   68.5980    0.3924 C   0  0  1  0  0  0  0  0  0  0  0  0
   11.9450   67.6258    1.0477 C   0  0  2  0  0  0  0  0  0  0  0  0
   14.7232   66.5285    2.7756 H   0  0  0  0  0  0  0  0  0  0  0  0
   13.4454   64.7401    1.4677 H   0  0  0  0  0  0  0  0  0  0  0  0
    9.7923   65.9896    1.8645 O   0  0  0  0  0  0  0  0  0  0  0  0
    7.3290   67.0435   -1.8855 O   0  0  0  0  0  0  0  0  0  0  0  0
   10.7287   67.4545    0.3042 N   0  0  0  0  0  0  0  0  0  0  0  0
    8.5675   66.5158   -0.0033 N   0  0  0  0  0  0  0  0  0  0  0  0
    9.7098   66.6092    0.8020 C   0  0  0  0  0  0  0  0  0  0  0  0
   10.5554   68.1208   -0.9041 C   0  0  0  0  0  0  0  0  0  0  0  0
    9.4606   68.0200   -1.6607 C   0  0  0  0  0  0  0  0  0  0  0  0
    8.3487   67.1571   -1.2123 C   0  0  0  0  0  0  0  0  0  0  0  0
    7.8445   65.9323    0.3232 H   0  0  0  0  0  0  0  0  0  0  0  0
   17.3402   70.5265   -2.4593 O   0  0  0  0  0  0  0  0  0  0  0  0
   18.1407   71.8180   -3.0109 P   0  0  2  0  0  0  0  0  0  0  0  0
   19.6882   71.4490   -2.7164 O   0  0  0  0  0  0  0  0  0  0  0  0
   17.6908   73.1210   -2.4162 O   0  0  0  0  0  0  0  0  0  0  0  0
   17.9994   71.7312   -4.6164 O   0  0  0  0  0  0  0  0  0  0  0  0
   17.8957   69.9033   -6.1211 O   0  0  0  0  0  0  0  0  0  0  0  0
   20.3063   72.4330   -8.3211 O   0  0  0  0  0  0  0  0  0  0  0  0
   17.5855   72.0040   -9.1343 O   0  0  0  0  0  0  0  0  0  0  0  0
   20.6245   72.2712   -5.4485 O   0  0  0  0  0  0  0  0  0  0  0  0
   19.2487   72.0994   -7.4181 C   0  0  1  0  0  0  0  0  0  0  0  0
   18.2500   71.2071   -8.1578 C   0  0  1  0  0  0  0  0  0  0  0  0
   19.8343   71.3666   -6.2125 C   0  0  2  0  0  0  0  0  0  0  0  0
   17.2324   70.5920   -7.1876 C   0  0  1  0  0  0  0  0  0  0  0  0
   18.7395   70.7510   -5.3393 C   0  0  1  0  0  0  0  0  0  0  0  0
   19.9413   72.8991   -9.0887 H   0  0  0  0  0  0  0  0  0  0  0  0
   18.2393   72.3870   -9.7403 H   0  0  0  0  0  0  0  0  0  0  0  0
   21.3140   72.6538   -6.0124 H   0  0  0  0  0  0  0  0  0  0  0  0
   16.8970   69.2411   -9.1296 O   0  0  0  0  0  0  0  0  0  0  0  0
   16.3253   69.5762   -7.8786 C   0  0  0  0  0  0  0  0  0  0  0  0
   16.3305   68.5950   -9.5806 H   0  0  0  0  0  0  0  0  0  0  0  0
 25 28  1  0
 25 24  1  0
 25 26  1  6
 25 27  2  0
  1  4  1  0
  1 24  1  0
  1  2  1  1
  1  3  2  0
  6 11  1  0
  6 12  1  0
 29 36  1  0
 29 37  1  0
  9  7  1  1
  7 13  1  0
 10  8  1  1
  8 14  1  0
 37 28  1  6
  4  5  1  0
 33 30  1  6
 30 38  1  0
 34 31  1  6
 31 39  1  0
 35 32  1  1
 32 40  1  0
 41 42  1  0
 41 43  1  0
 15 19  2  0
 16 22  2  0
 12 17  1  6
 17 19  1  0
 17 20  1  0
 18 19  1  0
 18 22  1  0
 18 23  1  0
  9 10  1  0
  9 11  1  0
 10 12  1  0
 11  5  1  6
 33 34  1  0
 33 35  1  0
 34 36  1  0
 35 37  1  0
 36 42  1  6
 20 21  2  0
 21 22  1  0
M  CHG  2   2  -1  26  -1
M  END
>  <COMPND>  (179) 
    8629 

>  <AUTHOR>  (179) 
    GENERATED BY OPEN BABEL 3.1.1

>  <MASTER>  (179) 
        0    0    0    0    0    0    0    0   58    0   58    0

>  <minimizedAffinity>  (179) 
-6.87560

>  <CNNscore>  (179) 
0.3461624980

>  <CNNaffinity>  (179) 
4.0162253380

>  <CNN_VS>  (179) 
1.3902665377

>  <CNNaffinity_variance>  (179) 
0.2069255114

$$$$
180
     RDKit          3D

 43 45  0  0  0  0  0  0  0  0999 V2000
   22.4212   73.1971   -3.8994 P   0  0  2  0  0  0  0  0  0  0  0  0
   22.3710   74.5928   -3.0828 O   0  0  0  0  0  0  0  0  0  0  0  0
   23.7709   72.8280   -4.4411 O   0  0  0  0  0  0  0  0  0  0  0  0
   21.2407   73.3459   -4.9958 O   0  0  0  0  0  0  0  0  0  0  0  0
   20.1189   72.4854   -4.9025 C   0  0  0  0  0  0  0  0  0  0  0  0
   19.0852   70.6671   -6.0854 O   0  0  0  0  0  0  0  0  0  0  0  0
   21.6818   70.3971   -7.5605 O   0  0  0  0  0  0  0  0  0  0  0  0
   20.1180   71.7347   -9.3499 O   0  0  0  0  0  0  0  0  0  0  0  0
   21.0245   71.5764   -7.0994 C   0  0  1  0  0  0  0  0  0  0  0  0
   19.8291   71.8886   -7.9753 C   0  0  2  0  0  0  0  0  0  0  0  0
   20.3651   71.2545   -5.7642 C   0  0  1  0  0  0  0  0  0  0  0  0
   18.8031   70.8848   -7.4775 C   0  0  2  0  0  0  0  0  0  0  0  0
   22.1108   70.5782   -8.4120 H   0  0  0  0  0  0  0  0  0  0  0  0
   20.7752   72.3956   -9.6183 H   0  0  0  0  0  0  0  0  0  0  0  0
   16.6496   69.3469   -8.4650 O   0  0  0  0  0  0  0  0  0  0  0  0
   13.6817   72.8345   -7.9459 O   0  0  0  0  0  0  0  0  0  0  0  0
   17.4569   71.3657   -7.6108 N   0  0  0  0  0  0  0  0  0  0  0  0
   15.1735   71.0846   -8.2056 N   0  0  0  0  0  0  0  0  0  0  0  0
   16.4493   70.5129   -8.1187 C   0  0  0  0  0  0  0  0  0  0  0  0
   17.1469   72.6695   -7.2397 C   0  0  0  0  0  0  0  0  0  0  0  0
   15.9255   73.2000   -7.3300 C   0  0  0  0  0  0  0  0  0  0  0  0
   14.8159   72.3757   -7.8506 C   0  0  0  0  0  0  0  0  0  0  0  0
   14.4557   70.5093   -8.5569 H   0  0  0  0  0  0  0  0  0  0  0  0
   21.8065   72.1370   -2.8453 O   0  0  0  0  0  0  0  0  0  0  0  0
   21.4928   72.2713   -1.2652 P   0  0  2  0  0  0  0  0  0  0  0  0
   21.0081   70.7831   -0.8553 O   0  0  0  0  0  0  0  0  0  0  0  0
   20.5148   73.3575   -0.9222 O   0  0  0  0  0  0  0  0  0  0  0  0
   22.9419   72.4331   -0.5733 O   0  0  0  0  0  0  0  0  0  0  0  0
   23.0954   73.0769    1.7023 O   0  0  0  0  0  0  0  0  0  0  0  0
   26.8789   74.1612    0.4532 O   0  0  0  0  0  0  0  0  0  0  0  0
   26.5468   71.8563    2.1340 O   0  0  0  0  0  0  0  0  0  0  0  0
   24.6081   74.5730   -1.2942 O   0  0  0  0  0  0  0  0  0  0  0  0
   25.6954   73.3587    0.4791 C   0  0  1  0  0  0  0  0  0  0  0  0
   25.5173   72.8124    1.8971 C   0  0  1  0  0  0  0  0  0  0  0  0
   24.4989   74.2207    0.0808 C   0  0  2  0  0  0  0  0  0  0  0  0
   24.1367   72.1656    2.0722 C   0  0  1  0  0  0  0  0  0  0  0  0
   23.1737   73.5021    0.3403 C   0  0  1  0  0  0  0  0  0  0  0  0
   27.6424   73.6197    0.7047 H   0  0  0  0  0  0  0  0  0  0  0  0
   27.4133   72.2773    2.0198 H   0  0  0  0  0  0  0  0  0  0  0  0
   25.4510   75.0274   -1.4455 H   0  0  0  0  0  0  0  0  0  0  0  0
   24.4886   70.4989    3.7476 O   0  0  0  0  0  0  0  0  0  0  0  0
   23.8769   71.7552    3.5200 C   0  0  0  0  0  0  0  0  0  0  0  0
   24.3317   70.2251    4.6653 H   0  0  0  0  0  0  0  0  0  0  0  0
 25 28  1  0
 25 24  1  0
 25 26  1  1
 25 27  2  0
  1  4  1  0
  1 24  1  0
  1  2  1  1
  1  3  2  0
  6 11  1  0
  6 12  1  0
 29 36  1  0
 29 37  1  0
  9  7  1  6
  7 13  1  0
 10  8  1  6
  8 14  1  0
 37 28  1  6
  4  5  1  0
 33 30  1  1
 30 38  1  0
 34 31  1  6
 31 39  1  0
 35 32  1  6
 32 40  1  0
 41 42  1  0
 41 43  1  0
 15 19  2  0
 16 22  2  0
 12 17  1  1
 17 19  1  0
 17 20  1  0
 18 19  1  0
 18 22  1  0
 18 23  1  0
  9 10  1  0
  9 11  1  0
 10 12  1  0
 11  5  1  1
 33 34  1  0
 33 35  1  0
 34 36  1  0
 35 37  1  0
 36 42  1  1
 20 21  2  0
 21 22  1  0
M  CHG  2   2  -1  26  -1
M  END
>  <COMPND>  (180) 
    8629 

>  <AUTHOR>  (180) 
    GENERATED BY OPEN BABEL 3.1.1

>  <MASTER>  (180) 
        0    0    0    0    0    0    0    0   58    0   58    0

>  <minimizedAffinity>  (180) 
-6.98363

>  <CNNscore>  (180) 
0.3206175864

>  <CNNaffinity>  (180) 
4.1628026962

>  <CNN_VS>  (180) 
1.3346678019

>  <CNNaffinity_variance>  (180) 
0.0160390828

$$$$
181
     RDKit          3D

 43 45  0  0  0  0  0  0  0  0999 V2000
   23.0974   73.0404   -3.1121 P   0  0  2  0  0  0  0  0  0  0  0  0
   23.3323   74.5667   -2.6296 O   0  0  0  0  0  0  0  0  0  0  0  0
   24.1663   72.4874   -4.0082 O   0  0  0  0  0  0  0  0  0  0  0  0
   21.6014   73.0538   -3.7283 O   0  0  0  0  0  0  0  0  0  0  0  0
   21.2474   72.0521   -4.6659 C   0  0  0  0  0  0  0  0  0  0  0  0
   20.9202   71.6516   -7.0125 O   0  0  0  0  0  0  0  0  0  0  0  0
   21.5932   74.5465   -7.4094 O   0  0  0  0  0  0  0  0  0  0  0  0
   18.8718   74.5396   -7.5834 O   0  0  0  0  0  0  0  0  0  0  0  0
   20.8727   73.9253   -6.3463 C   0  0  1  0  0  0  0  0  0  0  0  0
   19.4872   73.5285   -6.8116 C   0  0  2  0  0  0  0  0  0  0  0  0
   21.5158   72.5716   -6.0717 C   0  0  1  0  0  0  0  0  0  0  0  0
   19.7728   72.2715   -7.6158 C   0  0  2  0  0  0  0  0  0  0  0  0
   21.2010   75.4129   -7.6027 H   0  0  0  0  0  0  0  0  0  0  0  0
   18.7106   75.3179   -7.0274 H   0  0  0  0  0  0  0  0  0  0  0  0
   18.8499   70.8338   -9.8650 O   0  0  0  0  0  0  0  0  0  0  0  0
   15.5562   68.7464   -7.4083 O   0  0  0  0  0  0  0  0  0  0  0  0
   18.6761   71.3453   -7.5923 N   0  0  0  0  0  0  0  0  0  0  0  0
   17.2107   69.7955   -8.6399 N   0  0  0  0  0  0  0  0  0  0  0  0
   18.2916   70.6758   -8.7774 C   0  0  0  0  0  0  0  0  0  0  0  0
   17.9944   71.1084   -6.4035 C   0  0  0  0  0  0  0  0  0  0  0  0
   16.9648   70.2668   -6.2895 C   0  0  0  0  0  0  0  0  0  0  0  0
   16.5001   69.5272   -7.4807 C   0  0  0  0  0  0  0  0  0  0  0  0
   16.9250   69.3181   -9.4524 H   0  0  0  0  0  0  0  0  0  0  0  0
   22.9091   72.2435   -1.7184 O   0  0  0  0  0  0  0  0  0  0  0  0
   21.8916   72.4859   -0.4860 P   0  0  2  0  0  0  0  0  0  0  0  0
   21.1793   71.0447   -0.3040 O   0  0  0  0  0  0  0  0  0  0  0  0
   20.9375   73.6268   -0.6910 O   0  0  0  0  0  0  0  0  0  0  0  0
   22.8451   72.6356    0.8076 O   0  0  0  0  0  0  0  0  0  0  0  0
   25.2144   72.6346    0.8627 O   0  0  0  0  0  0  0  0  0  0  0  0
   24.4686   70.8728    4.5220 O   0  0  0  0  0  0  0  0  0  0  0  0
   25.4386   73.5740    4.4203 O   0  0  0  0  0  0  0  0  0  0  0  0
   22.8078   70.2237    2.2416 O   0  0  0  0  0  0  0  0  0  0  0  0
   24.2244   71.7658    3.4319 C   0  0  1  0  0  0  0  0  0  0  0  0
   25.4299   72.6981    3.2965 C   0  0  1  0  0  0  0  0  0  0  0  0
   24.0279   70.9518    2.1543 C   0  0  2  0  0  0  0  0  0  0  0  0
   25.3635   73.5034    1.9918 C   0  0  1  0  0  0  0  0  0  0  0  0
   24.0254   71.8435    0.9113 C   0  0  1  0  0  0  0  0  0  0  0  0
   24.5937   71.3832    5.3364 H   0  0  0  0  0  0  0  0  0  0  0  0
   25.4801   73.0530    5.2376 H   0  0  0  0  0  0  0  0  0  0  0  0
   22.8220   69.6629    3.0323 H   0  0  0  0  0  0  0  0  0  0  0  0
   27.6920   73.7223    2.4808 O   0  0  0  0  0  0  0  0  0  0  0  0
   26.6315   74.3223    1.7600 C   0  0  0  0  0  0  0  0  0  0  0  0
   28.5057   74.2327    2.3425 H   0  0  0  0  0  0  0  0  0  0  0  0
 25 28  1  0
 25 24  1  0
 25 26  1  1
 25 27  2  0
  1  4  1  0
  1 24  1  0
  1  2  1  1
  1  3  2  0
  6 11  1  0
  6 12  1  0
 29 36  1  0
 29 37  1  0
  9  7  1  6
  7 13  1  0
 10  8  1  6
  8 14  1  0
 37 28  1  1
  4  5  1  0
 33 30  1  1
 30 38  1  0
 34 31  1  1
 31 39  1  0
 35 32  1  1
 32 40  1  0
 41 42  1  0
 41 43  1  0
 15 19  2  0
 16 22  2  0
 12 17  1  1
 17 19  1  0
 17 20  1  0
 18 19  1  0
 18 22  1  0
 18 23  1  0
  9 10  1  0
  9 11  1  0
 10 12  1  0
 11  5  1  1
 33 34  1  0
 33 35  1  0
 34 36  1  0
 35 37  1  0
 36 42  1  6
 20 21  2  0
 21 22  1  0
M  CHG  2   2  -1  26  -1
M  END
>  <COMPND>  (181) 
    8629 

>  <AUTHOR>  (181) 
    GENERATED BY OPEN BABEL 3.1.1

>  <MASTER>  (181) 
        0    0    0    0    0    0    0    0   58    0   58    0

>  <minimizedAffinity>  (181) 
-7.11800

>  <CNNscore>  (181) 
0.8136094809

>  <CNNaffinity>  (181) 
4.5053606033

>  <CNN_VS>  (181) 
3.6656041145

>  <CNNaffinity_variance>  (181) 
0.0659509823

$$$$
182
     RDKit          3D

 43 45  0  0  0  0  0  0  0  0999 V2000
   23.0281   72.9116   -3.1767 P   0  0  2  0  0  0  0  0  0  0  0  0
   23.2138   74.3230   -2.4080 O   0  0  0  0  0  0  0  0  0  0  0  0
   24.2072   72.4762   -3.9961 O   0  0  0  0  0  0  0  0  0  0  0  0
   21.6379   73.0897   -3.9851 O   0  0  0  0  0  0  0  0  0  0  0  0
   21.2530   72.0777   -4.8992 C   0  0  0  0  0  0  0  0  0  0  0  0
   20.8403   71.6549   -7.2283 O   0  0  0  0  0  0  0  0  0  0  0  0
   21.5050   74.5440   -7.6782 O   0  0  0  0  0  0  0  0  0  0  0  0
   18.7791   74.5426   -7.7535 O   0  0  0  0  0  0  0  0  0  0  0  0
   20.8220   73.9352   -6.5836 C   0  0  1  0  0  0  0  0  0  0  0  0
   19.4197   73.5375   -6.9945 C   0  0  2  0  0  0  0  0  0  0  0  0
   21.4716   72.5827   -6.3189 C   0  0  1  0  0  0  0  0  0  0  0  0
   19.6732   72.2719   -7.7959 C   0  0  2  0  0  0  0  0  0  0  0  0
   21.1080   75.4095   -7.8657 H   0  0  0  0  0  0  0  0  0  0  0  0
   18.6399   75.3267   -7.1999 H   0  0  0  0  0  0  0  0  0  0  0  0
   18.7510   70.7162   -9.9655 O   0  0  0  0  0  0  0  0  0  0  0  0
   15.4545   68.7652   -7.4028 O   0  0  0  0  0  0  0  0  0  0  0  0
   18.5759   71.3488   -7.7236 N   0  0  0  0  0  0  0  0  0  0  0  0
   17.1105   69.7459   -8.6877 N   0  0  0  0  0  0  0  0  0  0  0  0
   18.1919   70.6169   -8.8714 C   0  0  0  0  0  0  0  0  0  0  0  0
   17.8933   71.1764   -6.5244 C   0  0  0  0  0  0  0  0  0  0  0  0
   16.8632   70.3427   -6.3661 C   0  0  0  0  0  0  0  0  0  0  0  0
   16.3989   69.5405   -7.5163 C   0  0  0  0  0  0  0  0  0  0  0  0
   16.8250   69.2258   -9.4737 H   0  0  0  0  0  0  0  0  0  0  0  0
   22.6270   71.8978   -1.9832 O   0  0  0  0  0  0  0  0  0  0  0  0
   21.3797   71.9089   -0.9551 P   0  0  2  0  0  0  0  0  0  0  0  0
   20.6965   70.4605   -1.1849 O   0  0  0  0  0  0  0  0  0  0  0  0
   20.4450   73.0700   -1.1342 O   0  0  0  0  0  0  0  0  0  0  0  0
   22.0552   71.8135    0.5077 O   0  0  0  0  0  0  0  0  0  0  0  0
   22.0832   73.3693    2.2952 O   0  0  0  0  0  0  0  0  0  0  0  0
   25.8974   71.8380    2.6934 O   0  0  0  0  0  0  0  0  0  0  0  0
   23.8808   71.1385    4.6149 O   0  0  0  0  0  0  0  0  0  0  0  0
   24.7859   72.2777    0.0569 O   0  0  0  0  0  0  0  0  0  0  0  0
   24.4987   71.7911    2.3983 C   0  0  1  0  0  0  0  0  0  0  0  0
   23.7289   72.1854    3.6604 C   0  0  1  0  0  0  0  0  0  0  0  0
   24.1962   72.7622    1.2586 C   0  0  2  0  0  0  0  0  0  0  0  0
   22.2433   72.4172    3.3533 C   0  0  1  0  0  0  0  0  0  0  0  0
   22.6911   72.9589    1.0688 C   0  0  1  0  0  0  0  0  0  0  0  0
   26.0962   71.2233    3.4160 H   0  0  0  0  0  0  0  0  0  0  0  0
   24.8234   71.0019    4.7996 H   0  0  0  0  0  0  0  0  0  0  0  0
   25.7386   72.1576    0.1900 H   0  0  0  0  0  0  0  0  0  0  0  0
   21.1636   71.8813    5.4163 O   0  0  0  0  0  0  0  0  0  0  0  0
   21.4877   72.9634    4.5629 C   0  0  0  0  0  0  0  0  0  0  0  0
   20.6826   72.2140    6.1907 H   0  0  0  0  0  0  0  0  0  0  0  0
 25 28  1  0
 25 24  1  0
 25 26  1  6
 25 27  2  0
  1  4  1  0
  1 24  1  0
  1  2  1  1
  1  3  2  0
  6 11  1  0
  6 12  1  0
 29 36  1  0
 29 37  1  0
  9  7  1  6
  7 13  1  0
 10  8  1  6
  8 14  1  0
 37 28  1  1
  4  5  1  0
 33 30  1  1
 30 38  1  0
 34 31  1  1
 31 39  1  0
 35 32  1  6
 32 40  1  0
 41 42  1  0
 41 43  1  0
 15 19  2  0
 16 22  2  0
 12 17  1  1
 17 19  1  0
 17 20  1  0
 18 19  1  0
 18 22  1  0
 18 23  1  0
  9 10  1  0
  9 11  1  0
 10 12  1  0
 11  5  1  1
 33 34  1  0
 33 35  1  0
 34 36  1  0
 35 37  1  0
 36 42  1  1
 20 21  2  0
 21 22  1  0
M  CHG  2   2  -1  26  -1
M  END
>  <COMPND>  (182) 
    8629 

>  <AUTHOR>  (182) 
    GENERATED BY OPEN BABEL 3.1.1

>  <MASTER>  (182) 
        0    0    0    0    0    0    0    0   58    0   58    0

>  <minimizedAffinity>  (182) 
-7.28235

>  <CNNscore>  (182) 
0.6450288892

>  <CNNaffinity>  (182) 
4.3043351173

>  <CNN_VS>  (182) 
2.7764205933

>  <CNNaffinity_variance>  (182) 
0.0613410361

$$$$
183
     RDKit          3D

 43 45  0  0  0  0  0  0  0  0999 V2000
   21.5655   72.1560   -1.1243 P   0  0  2  0  0  0  0  0  0  0  0  0
   20.9847   70.6629   -0.8988 O   0  0  0  0  0  0  0  0  0  0  0  0
   21.1073   73.1726   -0.1204 O   0  0  0  0  0  0  0  0  0  0  0  0
   21.2084   72.4826   -2.6682 O   0  0  0  0  0  0  0  0  0  0  0  0
   20.3491   71.5974   -3.3652 C   0  0  0  0  0  0  0  0  0  0  0  0
   18.6456   72.6779   -4.6708 O   0  0  0  0  0  0  0  0  0  0  0  0
   16.7198   71.7873   -2.5521 O   0  0  0  0  0  0  0  0  0  0  0  0
   16.3129   69.9572   -4.5325 O   0  0  0  0  0  0  0  0  0  0  0  0
   17.8687   71.1161   -3.0669 C   0  0  1  0  0  0  0  0  0  0  0  0
   17.5831   70.5710   -4.4507 C   0  0  2  0  0  0  0  0  0  0  0  0
   18.9363   72.1649   -3.3522 C   0  0  1  0  0  0  0  0  0  0  0  0
   17.6850   71.8205   -5.3088 C   0  0  2  0  0  0  0  0  0  0  0  0
   16.0242   71.1377   -2.3620 H   0  0  0  0  0  0  0  0  0  0  0  0
   16.2984   69.1675   -3.9696 H   0  0  0  0  0  0  0  0  0  0  0  0
   15.9734   71.1368   -7.4490 O   0  0  0  0  0  0  0  0  0  0  0  0
   19.5032   70.7393  -10.3856 O   0  0  0  0  0  0  0  0  0  0  0  0
   18.1299   71.5337   -6.6434 N   0  0  0  0  0  0  0  0  0  0  0  0
   17.7323   70.9396   -8.9095 N   0  0  0  0  0  0  0  0  0  0  0  0
   17.1888   71.1997   -7.6450 C   0  0  0  0  0  0  0  0  0  0  0  0
   19.4858   71.5852   -6.9480 C   0  0  0  0  0  0  0  0  0  0  0  0
   19.9880   71.3332   -8.1586 C   0  0  0  0  0  0  0  0  0  0  0  0
   19.0723   70.9767   -9.2615 C   0  0  0  0  0  0  0  0  0  0  0  0
   17.0956   70.7045   -9.6231 H   0  0  0  0  0  0  0  0  0  0  0  0
   23.1645   71.9220   -1.1629 O   0  0  0  0  0  0  0  0  0  0  0  0
   24.3836   72.8281   -0.6100 P   0  0  2  0  0  0  0  0  0  0  0  0
   23.9889   74.3191   -1.0985 O   0  0  0  0  0  0  0  0  0  0  0  0
   25.7421   72.3698   -1.0554 O   0  0  0  0  0  0  0  0  0  0  0  0
   24.1786   72.8559    0.9907 O   0  0  0  0  0  0  0  0  0  0  0  0
   25.7159   71.9380    2.5433 O   0  0  0  0  0  0  0  0  0  0  0  0
   22.2487   71.5785    4.7568 O   0  0  0  0  0  0  0  0  0  0  0  0
   24.1932   73.5644    5.4802 O   0  0  0  0  0  0  0  0  0  0  0  0
   22.1976   71.0904    1.9040 O   0  0  0  0  0  0  0  0  0  0  0  0
   23.1416   72.1948    3.8251 C   0  0  1  0  0  0  0  0  0  0  0  0
   24.4492   72.5133    4.5528 C   0  0  1  0  0  0  0  0  0  0  0  0
   23.3926   71.2343    2.6641 C   0  0  2  0  0  0  0  0  0  0  0  0
   25.5466   72.9289    3.5638 C   0  0  1  0  0  0  0  0  0  0  0  0
   24.5356   71.7166    1.7690 C   0  0  1  0  0  0  0  0  0  0  0  0
   22.0848   72.1834    5.4962 H   0  0  0  0  0  0  0  0  0  0  0  0
   23.4982   73.2893    6.0986 H   0  0  0  0  0  0  0  0  0  0  0  0
   21.4819   70.7844    2.4818 H   0  0  0  0  0  0  0  0  0  0  0  0
   26.9259   74.3624    4.8872 O   0  0  0  0  0  0  0  0  0  0  0  0
   26.9004   73.0986    4.2498 C   0  0  0  0  0  0  0  0  0  0  0  0
   27.7816   74.4841    5.3284 H   0  0  0  0  0  0  0  0  0  0  0  0
 25 28  1  0
 25 24  1  0
 25 26  1  6
 25 27  2  0
  1  4  1  0
  1 24  1  0
  1  2  1  1
  1  3  2  0
  6 11  1  0
  6 12  1  0
 29 36  1  0
 29 37  1  0
  9  7  1  6
  7 13  1  0
 10  8  1  1
  8 14  1  0
 37 28  1  1
  4  5  1  0
 33 30  1  1
 30 38  1  0
 34 31  1  1
 31 39  1  0
 35 32  1  6
 32 40  1  0
 41 42  1  0
 41 43  1  0
 15 19  2  0
 16 22  2  0
 12 17  1  6
 17 19  1  0
 17 20  1  0
 18 19  1  0
 18 22  1  0
 18 23  1  0
  9 10  1  0
  9 11  1  0
 10 12  1  0
 11  5  1  6
 33 34  1  0
 33 35  1  0
 34 36  1  0
 35 37  1  0
 36 42  1  1
 20 21  2  0
 21 22  1  0
M  CHG  2   2  -1  26  -1
M  END
>  <COMPND>  (183) 
    8629 

>  <AUTHOR>  (183) 
    GENERATED BY OPEN BABEL 3.1.1

>  <MASTER>  (183) 
        0    0    0    0    0    0    0    0   58    0   58    0

>  <minimizedAffinity>  (183) 
-6.57299

>  <CNNscore>  (183) 
0.6344100237

>  <CNNaffinity>  (183) 
4.3630623817

>  <CNN_VS>  (183) 
2.7679705620

>  <CNNaffinity_variance>  (183) 
0.0889598802

$$$$
184
     RDKit          3D

 43 45  0  0  0  0  0  0  0  0999 V2000
   21.4309   71.7644   -1.2333 P   0  0  2  0  0  0  0  0  0  0  0  0
   21.9546   71.1181    0.1543 O   0  0  0  0  0  0  0  0  0  0  0  0
   20.9338   73.1762   -1.1271 O   0  0  0  0  0  0  0  0  0  0  0  0
   20.3622   70.6829   -1.7866 O   0  0  0  0  0  0  0  0  0  0  0  0
   19.0585   70.6758   -1.2315 C   0  0  0  0  0  0  0  0  0  0  0  0
   16.9764   70.1714   -2.3199 O   0  0  0  0  0  0  0  0  0  0  0  0
   16.9769   73.0276   -3.2327 O   0  0  0  0  0  0  0  0  0  0  0  0
   15.2411   73.0759   -1.1300 O   0  0  0  0  0  0  0  0  0  0  0  0
   17.4311   72.4748   -1.9984 C   0  0  1  0  0  0  0  0  0  0  0  0
   16.2521   72.0887   -1.1298 C   0  0  2  0  0  0  0  0  0  0  0  0
   18.0644   71.1213   -2.2952 C   0  0  1  0  0  0  0  0  0  0  0  0
   15.7998   70.7884   -1.7724 C   0  0  2  0  0  0  0  0  0  0  0  0
   16.5688   73.8927   -3.0687 H   0  0  0  0  0  0  0  0  0  0  0  0
   15.5774   73.8834   -0.7110 H   0  0  0  0  0  0  0  0  0  0  0  0
   13.0835   70.0149   -1.8096 O   0  0  0  0  0  0  0  0  0  0  0  0
   13.6054   67.3379    1.9056 O   0  0  0  0  0  0  0  0  0  0  0  0
   15.1992   69.8902   -0.8270 N   0  0  0  0  0  0  0  0  0  0  0  0
   13.3456   68.6824    0.0402 N   0  0  0  0  0  0  0  0  0  0  0  0
   13.8263   69.5674   -0.9334 C   0  0  0  0  0  0  0  0  0  0  0  0
   15.9695   69.3393    0.1914 C   0  0  0  0  0  0  0  0  0  0  0  0
   15.4957   68.4980    1.1127 C   0  0  0  0  0  0  0  0  0  0  0  0
   14.0711   68.1093    1.0726 C   0  0  0  0  0  0  0  0  0  0  0  0
   12.3918   68.4435   -0.0138 H   0  0  0  0  0  0  0  0  0  0  0  0
   22.6926   71.5683   -2.2246 O   0  0  0  0  0  0  0  0  0  0  0  0
   23.3190   72.5435   -3.3514 P   0  0  2  0  0  0  0  0  0  0  0  0
   24.7677   71.8867   -3.6468 O   0  0  0  0  0  0  0  0  0  0  0  0
   23.3644   73.9911   -2.9560 O   0  0  0  0  0  0  0  0  0  0  0  0
   22.4551   72.2399   -4.6804 O   0  0  0  0  0  0  0  0  0  0  0  0
   20.8523   73.8414   -5.3752 O   0  0  0  0  0  0  0  0  0  0  0  0
   19.4304   70.5520   -7.4268 O   0  0  0  0  0  0  0  0  0  0  0  0
   20.7375   72.6652   -8.8669 O   0  0  0  0  0  0  0  0  0  0  0  0
   20.4898   70.2380   -4.7512 O   0  0  0  0  0  0  0  0  0  0  0  0
   20.4319   71.4010   -6.8596 C   0  0  1  0  0  0  0  0  0  0  0  0
   20.3159   72.7806   -7.5108 C   0  0  1  0  0  0  0  0  0  0  0  0
   20.2087   71.4977   -5.3516 C   0  0  2  0  0  0  0  0  0  0  0  0
   21.1734   73.8162   -6.7709 C   0  0  1  0  0  0  0  0  0  0  0  0
   21.0742   72.5903   -4.7214 C   0  0  1  0  0  0  0  0  0  0  0  0
   19.5667   70.4860   -8.3842 H   0  0  0  0  0  0  0  0  0  0  0  0
   20.1884   72.0079   -9.3227 H   0  0  0  0  0  0  0  0  0  0  0  0
   19.9353   69.5549   -5.1585 H   0  0  0  0  0  0  0  0  0  0  0  0
   19.7409   75.2473   -8.0393 O   0  0  0  0  0  0  0  0  0  0  0  0
   20.9513   75.2294   -7.3053 C   0  0  0  0  0  0  0  0  0  0  0  0
   19.5863   76.1406   -8.3853 H   0  0  0  0  0  0  0  0  0  0  0  0
 25 28  1  0
 25 24  1  0
 25 26  1  6
 25 27  2  0
  1  4  1  0
  1 24  1  0
  1  2  1  1
  1  3  2  0
  6 11  1  0
  6 12  1  0
 29 36  1  0
 29 37  1  0
  9  7  1  6
  7 13  1  0
 10  8  1  6
  8 14  1  0
 37 28  1  6
  4  5  1  0
 33 30  1  6
 30 38  1  0
 34 31  1  6
 31 39  1  0
 35 32  1  1
 32 40  1  0
 41 42  1  0
 41 43  1  0
 15 19  2  0
 16 22  2  0
 12 17  1  1
 17 19  1  0
 17 20  1  0
 18 19  1  0
 18 22  1  0
 18 23  1  0
  9 10  1  0
  9 11  1  0
 10 12  1  0
 11  5  1  1
 33 34  1  0
 33 35  1  0
 34 36  1  0
 35 37  1  0
 36 42  1  6
 20 21  2  0
 21 22  1  0
M  CHG  2   2  -1  26  -1
M  END
>  <COMPND>  (184) 
    8629 

>  <AUTHOR>  (184) 
    GENERATED BY OPEN BABEL 3.1.1

>  <MASTER>  (184) 
        0    0    0    0    0    0    0    0   58    0   58    0

>  <minimizedAffinity>  (184) 
-6.05053

>  <CNNscore>  (184) 
0.5863499045

>  <CNNaffinity>  (184) 
4.2163476944

>  <CNN_VS>  (184) 
2.4722549915

>  <CNNaffinity_variance>  (184) 
0.0121011641

$$$$
185
     RDKit          3D

 43 45  0  0  0  0  0  0  0  0999 V2000
   21.6565   71.6449   -2.1256 P   0  0  2  0  0  0  0  0  0  0  0  0
   21.3712   70.1881   -2.7688 O   0  0  0  0  0  0  0  0  0  0  0  0
   20.8740   71.9532   -0.8830 O   0  0  0  0  0  0  0  0  0  0  0  0
   21.4408   72.6648   -3.3629 O   0  0  0  0  0  0  0  0  0  0  0  0
   20.5270   72.3050   -4.3844 C   0  0  0  0  0  0  0  0  0  0  0  0
   20.6187   71.8311   -6.7383 O   0  0  0  0  0  0  0  0  0  0  0  0
   21.5317   74.6663   -7.0832 O   0  0  0  0  0  0  0  0  0  0  0  0
   18.8952   74.8036   -7.7663 O   0  0  0  0  0  0  0  0  0  0  0  0
   20.5886   74.1284   -6.1576 C   0  0  1  0  0  0  0  0  0  0  0  0
   19.2922   73.7911   -6.8641 C   0  0  2  0  0  0  0  0  0  0  0  0
   21.0843   72.7531   -5.7285 C   0  0  1  0  0  0  0  0  0  0  0  0
   19.6444   72.4895   -7.5642 C   0  0  2  0  0  0  0  0  0  0  0  0
   21.2367   75.5449   -7.3712 H   0  0  0  0  0  0  0  0  0  0  0  0
   18.6818   75.6110   -7.2729 H   0  0  0  0  0  0  0  0  0  0  0  0
   19.3254   70.6379   -9.6732 O   0  0  0  0  0  0  0  0  0  0  0  0
   15.2398   69.2343   -8.0672 O   0  0  0  0  0  0  0  0  0  0  0  0
   18.5073   71.6272   -7.7215 N   0  0  0  0  0  0  0  0  0  0  0  0
   17.2915   69.9404   -8.8717 N   0  0  0  0  0  0  0  0  0  0  0  0
   18.4443   70.7341   -8.8164 C   0  0  0  0  0  0  0  0  0  0  0  0
   17.4702   71.6721   -6.7961 C   0  0  0  0  0  0  0  0  0  0  0  0
   16.3770   70.9095   -6.8638 C   0  0  0  0  0  0  0  0  0  0  0  0
   16.2330   69.9493   -7.9771 C   0  0  0  0  0  0  0  0  0  0  0  0
   17.2255   69.3109   -9.6262 H   0  0  0  0  0  0  0  0  0  0  0  0
   23.2608   71.6472   -1.9282 O   0  0  0  0  0  0  0  0  0  0  0  0
   24.2217   72.6114   -1.0565 P   0  0  2  0  0  0  0  0  0  0  0  0
   23.7565   74.0966   -1.4985 O   0  0  0  0  0  0  0  0  0  0  0  0
   25.6880   72.3431   -1.2350 O   0  0  0  0  0  0  0  0  0  0  0  0
   23.6924   72.4529    0.4599 O   0  0  0  0  0  0  0  0  0  0  0  0
   23.1450   74.0824    2.0914 O   0  0  0  0  0  0  0  0  0  0  0  0
   24.8904   71.2549    4.5428 O   0  0  0  0  0  0  0  0  0  0  0  0
   22.0442   71.6315    4.6152 O   0  0  0  0  0  0  0  0  0  0  0  0
   25.9914   71.7646    1.9146 O   0  0  0  0  0  0  0  0  0  0  0  0
   24.1201   71.7176    3.4302 C   0  0  1  0  0  0  0  0  0  0  0  0
   22.9408   72.5303    3.9683 C   0  0  1  0  0  0  0  0  0  0  0  0
   25.0055   72.5827    2.5352 C   0  0  2  0  0  0  0  0  0  0  0  0
   22.2228   73.2798    2.8378 C   0  0  1  0  0  0  0  0  0  0  0  0
   24.1865   73.3221    1.4757 C   0  0  1  0  0  0  0  0  0  0  0  0
   24.3342   70.7046    5.1148 H   0  0  0  0  0  0  0  0  0  0  0  0
   22.5101   71.1643    5.3265 H   0  0  0  0  0  0  0  0  0  0  0  0
   26.5033   71.3023    2.5958 H   0  0  0  0  0  0  0  0  0  0  0  0
   20.1792   74.4185    2.3524 O   0  0  0  0  0  0  0  0  0  0  0  0
   21.1430   74.2193    3.3701 C   0  0  0  0  0  0  0  0  0  0  0  0
   19.4854   75.0144    2.6772 H   0  0  0  0  0  0  0  0  0  0  0  0
 25 28  1  0
 25 24  1  0
 25 26  1  6
 25 27  2  0
  1  4  1  0
  1 24  1  0
  1  2  1  6
  1  3  2  0
  6 11  1  0
  6 12  1  0
 29 36  1  0
 29 37  1  0
  9  7  1  6
  7 13  1  0
 10  8  1  6
  8 14  1  0
 37 28  1  6
  4  5  1  0
 33 30  1  1
 30 38  1  0
 34 31  1  6
 31 39  1  0
 35 32  1  6
 32 40  1  0
 41 42  1  0
 41 43  1  0
 15 19  2  0
 16 22  2  0
 12 17  1  1
 17 19  1  0
 17 20  1  0
 18 19  1  0
 18 22  1  0
 18 23  1  0
  9 10  1  0
  9 11  1  0
 10 12  1  0
 11  5  1  1
 33 34  1  0
 33 35  1  0
 34 36  1  0
 35 37  1  0
 36 42  1  1
 20 21  2  0
 21 22  1  0
M  CHG  2   2  -1  26  -1
M  END
>  <COMPND>  (185) 
    8629 

>  <AUTHOR>  (185) 
    GENERATED BY OPEN BABEL 3.1.1

>  <MASTER>  (185) 
        0    0    0    0    0    0    0    0   58    0   58    0

>  <minimizedAffinity>  (185) 
-6.56884

>  <CNNscore>  (185) 
0.5859906077

>  <CNNaffinity>  (185) 
4.2709350586

>  <CNN_VS>  (185) 
2.5027277470

>  <CNNaffinity_variance>  (185) 
0.0963524431

$$$$
186
     RDKit          3D

 43 45  0  0  0  0  0  0  0  0999 V2000
   22.0427   73.9975   -4.0287 P   0  0  2  0  0  0  0  0  0  0  0  0
   21.8555   75.0019   -2.7743 O   0  0  0  0  0  0  0  0  0  0  0  0
   22.1679   74.6688   -5.3648 O   0  0  0  0  0  0  0  0  0  0  0  0
   20.8143   72.9552   -3.8785 O   0  0  0  0  0  0  0  0  0  0  0  0
   19.9001   72.8280   -4.9537 C   0  0  0  0  0  0  0  0  0  0  0  0
   18.9230   70.9275   -6.0522 O   0  0  0  0  0  0  0  0  0  0  0  0
   21.6049   70.5233   -7.3308 O   0  0  0  0  0  0  0  0  0  0  0  0
   20.1738   71.7231   -9.3180 O   0  0  0  0  0  0  0  0  0  0  0  0
   20.9332   71.7400   -7.0084 C   0  0  1  0  0  0  0  0  0  0  0  0
   19.7997   71.9886   -7.9815 C   0  0  2  0  0  0  0  0  0  0  0  0
   20.1865   71.5305   -5.6970 C   0  0  1  0  0  0  0  0  0  0  0  0
   18.7325   71.0346   -7.4725 C   0  0  2  0  0  0  0  0  0  0  0  0
   22.0893   70.6327   -8.1647 H   0  0  0  0  0  0  0  0  0  0  0  0
   20.8543   72.3561   -9.5953 H   0  0  0  0  0  0  0  0  0  0  0  0
   16.5032   69.3676   -7.9512 O   0  0  0  0  0  0  0  0  0  0  0  0
   13.6807   72.9767   -8.4504 O   0  0  0  0  0  0  0  0  0  0  0  0
   17.4032   71.5119   -7.7300 N   0  0  0  0  0  0  0  0  0  0  0  0
   15.0996   71.1660   -8.1992 N   0  0  0  0  0  0  0  0  0  0  0  0
   16.3542   70.5913   -7.9589 C   0  0  0  0  0  0  0  0  0  0  0  0
   17.1503   72.8792   -7.7535 C   0  0  0  0  0  0  0  0  0  0  0  0
   15.9484   73.4112   -7.9853 C   0  0  0  0  0  0  0  0  0  0  0  0
   14.7982   72.5183   -8.2340 C   0  0  0  0  0  0  0  0  0  0  0  0
   14.3537   70.5439   -8.3617 H   0  0  0  0  0  0  0  0  0  0  0  0
   23.3248   73.1125   -3.5977 O   0  0  0  0  0  0  0  0  0  0  0  0
   23.4585   71.8619   -2.5823 P   0  0  2  0  0  0  0  0  0  0  0  0
   25.0586   71.6813   -2.4248 O   0  0  0  0  0  0  0  0  0  0  0  0
   22.7370   70.6245   -3.0317 O   0  0  0  0  0  0  0  0  0  0  0  0
   22.9712   72.4396   -1.1562 O   0  0  0  0  0  0  0  0  0  0  0  0
   22.5274   70.9485    0.6316 O   0  0  0  0  0  0  0  0  0  0  0  0
   20.3294   74.1975    1.9213 O   0  0  0  0  0  0  0  0  0  0  0  0
   22.7843   73.5276    3.2528 O   0  0  0  0  0  0  0  0  0  0  0  0
   20.3968   73.5253   -0.8935 O   0  0  0  0  0  0  0  0  0  0  0  0
   21.4258   73.5362    1.2842 C   0  0  1  0  0  0  0  0  0  0  0  0
   22.1311   72.6651    2.3256 C   0  0  1  0  0  0  0  0  0  0  0  0
   20.8935   72.6788    0.1375 C   0  0  2  0  0  0  0  0  0  0  0  0
   23.1470   71.7240    1.6642 C   0  0  1  0  0  0  0  0  0  0  0  0
   21.9708   71.7445   -0.4164 C   0  0  1  0  0  0  0  0  0  0  0  0
   20.6606   74.7440    2.6501 H   0  0  0  0  0  0  0  0  0  0  0  0
   22.1318   74.1169    3.6630 H   0  0  0  0  0  0  0  0  0  0  0  0
   19.7155   74.1116   -0.5302 H   0  0  0  0  0  0  0  0  0  0  0  0
   24.9129   71.3166    3.2213 O   0  0  0  0  0  0  0  0  0  0  0  0
   23.7477   70.7376    2.6634 C   0  0  0  0  0  0  0  0  0  0  0  0
   25.3058   70.7001    3.8594 H   0  0  0  0  0  0  0  0  0  0  0  0
 25 28  1  0
 25 24  1  0
 25 26  1  1
 25 27  2  0
  1  4  1  0
  1 24  1  0
  1  2  1  1
  1  3  2  0
  6 11  1  0
  6 12  1  0
 29 36  1  0
 29 37  1  0
  9  7  1  6
  7 13  1  0
 10  8  1  6
  8 14  1  0
 37 28  1  1
  4  5  1  0
 33 30  1  1
 30 38  1  0
 34 31  1  1
 31 39  1  0
 35 32  1  6
 32 40  1  0
 41 42  1  0
 41 43  1  0
 15 19  2  0
 16 22  2  0
 12 17  1  1
 17 19  1  0
 17 20  1  0
 18 19  1  0
 18 22  1  0
 18 23  1  0
  9 10  1  0
  9 11  1  0
 10 12  1  0
 11  5  1  6
 33 34  1  0
 33 35  1  0
 34 36  1  0
 35 37  1  0
 36 42  1  1
 20 21  2  0
 21 22  1  0
M  CHG  2   2  -1  26  -1
M  END
>  <COMPND>  (186) 
    8629 

>  <AUTHOR>  (186) 
    GENERATED BY OPEN BABEL 3.1.1

>  <MASTER>  (186) 
        0    0    0    0    0    0    0    0   58    0   58    0

>  <minimizedAffinity>  (186) 
-6.58989

>  <CNNscore>  (186) 
0.5242549777

>  <CNNaffinity>  (186) 
4.2907385826

>  <CNN_VS>  (186) 
2.2494411469

>  <CNNaffinity_variance>  (186) 
0.0712197721

$$$$
187
     RDKit          3D

 43 45  0  0  0  0  0  0  0  0999 V2000
   20.4856   72.4000   -3.9628 P   0  0  2  0  0  0  0  0  0  0  0  0
   21.3374   71.1502   -4.5374 O   0  0  0  0  0  0  0  0  0  0  0  0
   19.8134   72.1559   -2.6438 O   0  0  0  0  0  0  0  0  0  0  0  0
   19.5061   72.7982   -5.1875 O   0  0  0  0  0  0  0  0  0  0  0  0
   19.0814   74.1451   -5.3031 C   0  0  0  0  0  0  0  0  0  0  0  0
   18.7048   73.2612   -7.5055 O   0  0  0  0  0  0  0  0  0  0  0  0
   17.9398   76.0519   -8.2914 O   0  0  0  0  0  0  0  0  0  0  0  0
   15.5182   74.8370   -7.9804 O   0  0  0  0  0  0  0  0  0  0  0  0
   17.7071   75.3646   -7.0630 C   0  0  1  0  0  0  0  0  0  0  0  0
   16.6096   74.3355   -7.2359 C   0  0  2  0  0  0  0  0  0  0  0  0
   18.9214   74.4898   -6.7775 C   0  0  1  0  0  0  0  0  0  0  0  0
   17.3403   73.2132   -7.9534 C   0  0  2  0  0  0  0  0  0  0  0  0
   17.1777   76.6174   -8.4946 H   0  0  0  0  0  0  0  0  0  0  0  0
   15.0864   75.5483   -7.4822 H   0  0  0  0  0  0  0  0  0  0  0  0
   14.7592   72.3515   -8.7108 O   0  0  0  0  0  0  0  0  0  0  0  0
   15.3511   68.2350   -6.7245 O   0  0  0  0  0  0  0  0  0  0  0  0
   16.7943   71.9210   -7.6477 N   0  0  0  0  0  0  0  0  0  0  0  0
   15.0561   70.3025   -7.7213 N   0  0  0  0  0  0  0  0  0  0  0  0
   15.4873   71.5878   -8.0733 C   0  0  0  0  0  0  0  0  0  0  0  0
   17.5526   70.9995   -6.9337 C   0  0  0  0  0  0  0  0  0  0  0  0
   17.1263   69.7783   -6.6048 C   0  0  0  0  0  0  0  0  0  0  0  0
   15.7720   69.3513   -7.0117 C   0  0  0  0  0  0  0  0  0  0  0  0
   14.1485   70.0484   -8.0069 H   0  0  0  0  0  0  0  0  0  0  0  0
   21.5654   73.6029   -3.9552 O   0  0  0  0  0  0  0  0  0  0  0  0
   23.0817   73.6647   -3.3986 P   0  0  2  0  0  0  0  0  0  0  0  0
   23.3620   75.2522   -3.2611 O   0  0  0  0  0  0  0  0  0  0  0  0
   24.0792   72.9310   -4.2474 O   0  0  0  0  0  0  0  0  0  0  0  0
   22.9803   73.1355   -1.8772 O   0  0  0  0  0  0  0  0  0  0  0  0
   25.0093   72.1869   -1.1027 O   0  0  0  0  0  0  0  0  0  0  0  0
   22.5112   70.9936    1.9611 O   0  0  0  0  0  0  0  0  0  0  0  0
   24.4343   73.0748    2.4286 O   0  0  0  0  0  0  0  0  0  0  0  0
   21.5508   70.9896   -0.7697 O   0  0  0  0  0  0  0  0  0  0  0  0
   22.9959   71.8731    0.9427 C   0  0  1  0  0  0  0  0  0  0  0  0
   24.4439   72.2391    1.2746 C   0  0  1  0  0  0  0  0  0  0  0  0
   22.9165   71.1644   -0.4081 C   0  0  2  0  0  0  0  0  0  0  0  0
   25.1165   72.9599    0.0985 C   0  0  1  0  0  0  0  0  0  0  0  0
   23.6583   71.9407   -1.4977 C   0  0  1  0  0  0  0  0  0  0  0  0
   22.5584   71.4378    2.8213 H   0  0  0  0  0  0  0  0  0  0  0  0
   24.0065   72.6081    3.1637 H   0  0  0  0  0  0  0  0  0  0  0  0
   21.0923   70.4966   -0.0721 H   0  0  0  0  0  0  0  0  0  0  0  0
   27.3430   72.3390   -0.5068 O   0  0  0  0  0  0  0  0  0  0  0  0
   26.6050   73.1939    0.3469 C   0  0  0  0  0  0  0  0  0  0  0  0
   28.2922   72.4772   -0.3599 H   0  0  0  0  0  0  0  0  0  0  0  0
 25 28  1  0
 25 24  1  0
 25 26  1  1
 25 27  2  0
  1  4  1  0
  1 24  1  0
  1  2  1  6
  1  3  2  0
  6 11  1  0
  6 12  1  0
 29 36  1  0
 29 37  1  0
  9  7  1  6
  7 13  1  0
 10  8  1  6
  8 14  1  0
 37 28  1  1
  4  5  1  0
 33 30  1  1
 30 38  1  0
 34 31  1  1
 31 39  1  0
 35 32  1  6
 32 40  1  0
 41 42  1  0
 41 43  1  0
 15 19  2  0
 16 22  2  0
 12 17  1  1
 17 19  1  0
 17 20  1  0
 18 19  1  0
 18 22  1  0
 18 23  1  0
  9 10  1  0
  9 11  1  0
 10 12  1  0
 11  5  1  1
 33 34  1  0
 33 35  1  0
 34 36  1  0
 35 37  1  0
 36 42  1  1
 20 21  2  0
 21 22  1  0
M  CHG  2   2  -1  26  -1
M  END
>  <COMPND>  (187) 
    8629 

>  <AUTHOR>  (187) 
    GENERATED BY OPEN BABEL 3.1.1

>  <MASTER>  (187) 
        0    0    0    0    0    0    0    0   58    0   58    0

>  <minimizedAffinity>  (187) 
-6.46993

>  <CNNscore>  (187) 
0.4841666520

>  <CNNaffinity>  (187) 
4.1710062027

>  <CNN_VS>  (187) 
2.0194621086

>  <CNNaffinity_variance>  (187) 
0.0518587641

$$$$
188
     RDKit          3D

 43 45  0  0  0  0  0  0  0  0999 V2000
   22.6476   73.2352   -3.5322 P   0  0  2  0  0  0  0  0  0  0  0  0
   22.1755   74.7815   -3.5908 O   0  0  0  0  0  0  0  0  0  0  0  0
   23.7961   72.8886   -4.4335 O   0  0  0  0  0  0  0  0  0  0  0  0
   21.2828   72.4026   -3.7815 O   0  0  0  0  0  0  0  0  0  0  0  0
   20.5919   72.5875   -5.0047 C   0  0  0  0  0  0  0  0  0  0  0  0
   19.3629   70.7201   -5.8858 O   0  0  0  0  0  0  0  0  0  0  0  0
   21.6662   70.3314   -7.7659 O   0  0  0  0  0  0  0  0  0  0  0  0
   19.8235   71.5877   -9.3352 O   0  0  0  0  0  0  0  0  0  0  0  0
   21.1027   71.5438   -7.2681 C   0  0  1  0  0  0  0  0  0  0  0  0
   19.7758   71.8228   -7.9426 C   0  0  2  0  0  0  0  0  0  0  0  0
   20.6814   71.3068   -5.8232 C   0  0  1  0  0  0  0  0  0  0  0  0
   18.8466   70.8629   -7.2192 C   0  0  2  0  0  0  0  0  0  0  0  0
   21.9431   70.4582   -8.6874 H   0  0  0  0  0  0  0  0  0  0  0  0
   20.4274   72.2232   -9.7500 H   0  0  0  0  0  0  0  0  0  0  0  0
   16.5882   69.4769   -8.1973 O   0  0  0  0  0  0  0  0  0  0  0  0
   13.7269   72.8454   -6.8907 O   0  0  0  0  0  0  0  0  0  0  0  0
   17.4994   71.3542   -7.1474 N   0  0  0  0  0  0  0  0  0  0  0  0
   15.1653   71.1552   -7.5458 N   0  0  0  0  0  0  0  0  0  0  0  0
   16.4367   70.5805   -7.6692 C   0  0  0  0  0  0  0  0  0  0  0  0
   17.2428   72.5904   -6.5642 C   0  0  0  0  0  0  0  0  0  0  0  0
   16.0247   73.1249   -6.4554 C   0  0  0  0  0  0  0  0  0  0  0  0
   14.8595   72.3808   -6.9756 C   0  0  0  0  0  0  0  0  0  0  0  0
   14.4096   70.6344   -7.9027 H   0  0  0  0  0  0  0  0  0  0  0  0
   22.9333   73.0018   -1.9584 O   0  0  0  0  0  0  0  0  0  0  0  0
   24.2853   73.1702   -1.0886 P   0  0  2  0  0  0  0  0  0  0  0  0
   24.6794   74.7233   -1.3124 O   0  0  0  0  0  0  0  0  0  0  0  0
   25.3720   72.1978   -1.4458 O   0  0  0  0  0  0  0  0  0  0  0  0
   23.7954   73.0912    0.4472 O   0  0  0  0  0  0  0  0  0  0  0  0
   25.4479   72.8349    2.1266 O   0  0  0  0  0  0  0  0  0  0  0  0
   22.1332   71.6278    4.2729 O   0  0  0  0  0  0  0  0  0  0  0  0
   23.3391   74.1723    4.8382 O   0  0  0  0  0  0  0  0  0  0  0  0
   22.3950   70.8921    1.4855 O   0  0  0  0  0  0  0  0  0  0  0  0
   22.8486   72.4021    3.3064 C   0  0  1  0  0  0  0  0  0  0  0  0
   23.9542   73.1717    4.0316 C   0  0  1  0  0  0  0  0  0  0  0  0
   23.4447   71.4646    2.2580 C   0  0  2  0  0  0  0  0  0  0  0  0
   24.9282   73.8135    3.0343 C   0  0  1  0  0  0  0  0  0  0  0  0
   24.4364   72.1921    1.3484 C   0  0  1  0  0  0  0  0  0  0  0  0
   21.7518   72.2172    4.9412 H   0  0  0  0  0  0  0  0  0  0  0  0
   22.7263   73.7539    5.4632 H   0  0  0  0  0  0  0  0  0  0  0  0
   21.7742   70.4343    2.0728 H   0  0  0  0  0  0  0  0  0  0  0  0
   27.1774   74.5838    2.7964 O   0  0  0  0  0  0  0  0  0  0  0  0
   26.1253   74.4527    3.7346 C   0  0  0  0  0  0  0  0  0  0  0  0
   27.9460   74.9895    3.2280 H   0  0  0  0  0  0  0  0  0  0  0  0
 25 28  1  0
 25 24  1  0
 25 26  1  1
 25 27  2  0
  1  4  1  0
  1 24  1  0
  1  2  1  1
  1  3  2  0
  6 11  1  0
  6 12  1  0
 29 36  1  0
 29 37  1  0
  9  7  1  6
  7 13  1  0
 10  8  1  6
  8 14  1  0
 37 28  1  1
  4  5  1  0
 33 30  1  1
 30 38  1  0
 34 31  1  6
 31 39  1  0
 35 32  1  6
 32 40  1  0
 41 42  1  0
 41 43  1  0
 15 19  2  0
 16 22  2  0
 12 17  1  1
 17 19  1  0
 17 20  1  0
 18 19  1  0
 18 22  1  0
 18 23  1  0
  9 10  1  0
  9 11  1  0
 10 12  1  0
 11  5  1  1
 33 34  1  0
 33 35  1  0
 34 36  1  0
 35 37  1  0
 36 42  1  1
 20 21  2  0
 21 22  1  0
M  CHG  2   2  -1  26  -1
M  END
>  <COMPND>  (188) 
    8629 

>  <AUTHOR>  (188) 
    GENERATED BY OPEN BABEL 3.1.1

>  <MASTER>  (188) 
        0    0    0    0    0    0    0    0   58    0   58    0

>  <minimizedAffinity>  (188) 
-6.50328

>  <CNNscore>  (188) 
0.4488885403

>  <CNNaffinity>  (188) 
4.2204866409

>  <CNN_VS>  (188) 
1.8945280313

>  <CNNaffinity_variance>  (188) 
0.0257571787

$$$$
189
     RDKit          3D

 43 45  0  0  0  0  0  0  0  0999 V2000
   22.2564   73.4367   -3.7710 P   0  0  2  0  0  0  0  0  0  0  0  0
   21.9074   74.9823   -3.4443 O   0  0  0  0  0  0  0  0  0  0  0  0
   23.1186   73.2236   -4.9804 O   0  0  0  0  0  0  0  0  0  0  0  0
   20.8110   72.7103   -3.8018 O   0  0  0  0  0  0  0  0  0  0  0  0
   20.0676   72.7345   -5.0079 C   0  0  0  0  0  0  0  0  0  0  0  0
   19.0228   70.8294   -6.0340 O   0  0  0  0  0  0  0  0  0  0  0  0
   21.6165   70.4222   -7.4824 O   0  0  0  0  0  0  0  0  0  0  0  0
   20.0586   71.6140   -9.3768 O   0  0  0  0  0  0  0  0  0  0  0  0
   20.9662   71.6397   -7.1214 C   0  0  1  0  0  0  0  0  0  0  0  0
   19.7717   71.8841   -8.0198 C   0  0  2  0  0  0  0  0  0  0  0  0
   20.3063   71.4345   -5.7636 C   0  0  1  0  0  0  0  0  0  0  0  0
   18.7406   70.9313   -7.4393 C   0  0  2  0  0  0  0  0  0  0  0  0
   22.0457   70.5289   -8.3463 H   0  0  0  0  0  0  0  0  0  0  0  0
   20.7192   72.2464   -9.6999 H   0  0  0  0  0  0  0  0  0  0  0  0
   16.5990   69.3538   -8.3895 O   0  0  0  0  0  0  0  0  0  0  0  0
   13.6287   72.8625   -8.0621 O   0  0  0  0  0  0  0  0  0  0  0  0
   17.3970   71.4069   -7.6118 N   0  0  0  0  0  0  0  0  0  0  0  0
   15.1217   71.1021   -8.2255 N   0  0  0  0  0  0  0  0  0  0  0  0
   16.3954   70.5337   -8.0964 C   0  0  0  0  0  0  0  0  0  0  0  0
   17.0835   72.7258   -7.3014 C   0  0  0  0  0  0  0  0  0  0  0  0
   15.8642   73.2527   -7.4314 C   0  0  0  0  0  0  0  0  0  0  0  0
   14.7608   72.4074   -7.9314 C   0  0  0  0  0  0  0  0  0  0  0  0
   14.4081   70.5126   -8.5617 H   0  0  0  0  0  0  0  0  0  0  0  0
   22.8991   72.9084   -2.3851 O   0  0  0  0  0  0  0  0  0  0  0  0
   23.6322   71.5153   -2.0180 P   0  0  2  0  0  0  0  0  0  0  0  0
   25.0916   71.6734   -2.6982 O   0  0  0  0  0  0  0  0  0  0  0  0
   22.8777   70.2908   -2.4485 O   0  0  0  0  0  0  0  0  0  0  0  0
   23.9103   71.6059   -0.4307 O   0  0  0  0  0  0  0  0  0  0  0  0
   23.3122   73.2101    1.2080 O   0  0  0  0  0  0  0  0  0  0  0  0
   27.1528   72.3743    2.4737 O   0  0  0  0  0  0  0  0  0  0  0  0
   24.9167   71.4117    3.9973 O   0  0  0  0  0  0  0  0  0  0  0  0
   26.5640   72.5155   -0.3570 O   0  0  0  0  0  0  0  0  0  0  0  0
   25.8734   72.0762    1.9083 C   0  0  1  0  0  0  0  0  0  0  0  0
   24.8027   72.3799    2.9581 C   0  0  1  0  0  0  0  0  0  0  0  0
   25.6652   72.9367    0.6634 C   0  0  2  0  0  0  0  0  0  0  0  0
   23.3972   72.3407    2.3431 C   0  0  1  0  0  0  0  0  0  0  0  0
   24.2219   72.8642    0.1617 C   0  0  1  0  0  0  0  0  0  0  0  0
   27.2915   71.8309    3.2643 H   0  0  0  0  0  0  0  0  0  0  0  0
   25.8089   71.4465    4.3768 H   0  0  0  0  0  0  0  0  0  0  0  0
   27.4742   72.5663   -0.0271 H   0  0  0  0  0  0  0  0  0  0  0  0
   22.0489   71.7232    4.2166 O   0  0  0  0  0  0  0  0  0  0  0  0
   22.3268   72.7943    3.3335 C   0  0  0  0  0  0  0  0  0  0  0  0
   21.3694   71.9976    4.8528 H   0  0  0  0  0  0  0  0  0  0  0  0
 25 28  1  0
 25 24  1  0
 25 26  1  6
 25 27  2  0
  1  4  1  0
  1 24  1  0
  1  2  1  1
  1  3  2  0
  6 11  1  0
  6 12  1  0
 29 36  1  0
 29 37  1  0
  9  7  1  6
  7 13  1  0
 10  8  1  6
  8 14  1  0
 37 28  1  1
  4  5  1  0
 33 30  1  1
 30 38  1  0
 34 31  1  1
 31 39  1  0
 35 32  1  6
 32 40  1  0
 41 42  1  0
 41 43  1  0
 15 19  2  0
 16 22  2  0
 12 17  1  1
 17 19  1  0
 17 20  1  0
 18 19  1  0
 18 22  1  0
 18 23  1  0
  9 10  1  0
  9 11  1  0
 10 12  1  0
 11  5  1  6
 33 34  1  0
 33 35  1  0
 34 36  1  0
 35 37  1  0
 36 42  1  1
 20 21  2  0
 21 22  1  0
M  CHG  2   2  -1  26  -1
M  END
>  <COMPND>  (189) 
    8629 

>  <AUTHOR>  (189) 
    GENERATED BY OPEN BABEL 3.1.1

>  <MASTER>  (189) 
        0    0    0    0    0    0    0    0   58    0   58    0

>  <minimizedAffinity>  (189) 
-7.23640

>  <CNNscore>  (189) 
0.4177679420

>  <CNNaffinity>  (189) 
4.1750998497

>  <CNN_VS>  (189) 
1.7442228794

>  <CNNaffinity_variance>  (189) 
0.0199864525

$$$$
190
     RDKit          3D

 43 45  0  0  0  0  0  0  0  0999 V2000
   21.5462   71.8253   -4.5049 P   0  0  2  0  0  0  0  0  0  0  0  0
   21.0798   70.8441   -5.7037 O   0  0  0  0  0  0  0  0  0  0  0  0
   22.7426   72.6771   -4.8121 O   0  0  0  0  0  0  0  0  0  0  0  0
   21.6945   70.8389   -3.2310 O   0  0  0  0  0  0  0  0  0  0  0  0
   22.3403   71.3282   -2.0685 C   0  0  0  0  0  0  0  0  0  0  0  0
   21.9491   71.0742    0.2886 O   0  0  0  0  0  0  0  0  0  0  0  0
   19.5544   72.8343   -0.1093 O   0  0  0  0  0  0  0  0  0  0  0  0
   21.3923   74.5581    0.9335 O   0  0  0  0  0  0  0  0  0  0  0  0
   20.8307   72.8904   -0.7442 C   0  0  1  0  0  0  0  0  0  0  0  0
   21.8692   73.4416    0.2105 C   0  0  2  0  0  0  0  0  0  0  0  0
   21.3154   71.4607   -0.9505 C   0  0  1  0  0  0  0  0  0  0  0  0
   22.1458   72.2426    1.1017 C   0  0  2  0  0  0  0  0  0  0  0  0
   19.2242   73.7359    0.0326 H   0  0  0  0  0  0  0  0  0  0  0  0
   21.2314   75.2942    0.3228 H   0  0  0  0  0  0  0  0  0  0  0  0
   22.9630   70.8729    3.4327 O   0  0  0  0  0  0  0  0  0  0  0  0
   27.3227   72.2902    2.9581 O   0  0  0  0  0  0  0  0  0  0  0  0
   23.4885   72.2363    1.6101 N   0  0  0  0  0  0  0  0  0  0  0  0
   25.1332   71.5796    3.1944 N   0  0  0  0  0  0  0  0  0  0  0  0
   23.7938   71.5175    2.7893 C   0  0  0  0  0  0  0  0  0  0  0  0
   24.4861   72.9372    0.9411 C   0  0  0  0  0  0  0  0  0  0  0  0
   25.7583   72.9874    1.3412 C   0  0  0  0  0  0  0  0  0  0  0  0
   26.1608   72.2634    2.5643 C   0  0  0  0  0  0  0  0  0  0  0  0
   25.3692   71.0867    4.0136 H   0  0  0  0  0  0  0  0  0  0  0  0
   20.1994   72.6534   -4.1683 O   0  0  0  0  0  0  0  0  0  0  0  0
   18.6888   72.1532   -3.8836 P   0  0  2  0  0  0  0  0  0  0  0  0
   17.8581   73.5356   -3.7556 O   0  0  0  0  0  0  0  0  0  0  0  0
   18.5560   71.2391   -2.7002 O   0  0  0  0  0  0  0  0  0  0  0  0
   18.2005   71.5122   -5.2821 O   0  0  0  0  0  0  0  0  0  0  0  0
   18.6792   72.1536   -7.5127 O   0  0  0  0  0  0  0  0  0  0  0  0
   14.7476   70.9859   -7.9914 O   0  0  0  0  0  0  0  0  0  0  0  0
   16.8537   69.3386   -9.0396 O   0  0  0  0  0  0  0  0  0  0  0  0
   15.5543   72.3928   -5.5936 O   0  0  0  0  0  0  0  0  0  0  0  0
   16.0651   70.9303   -7.4379 C   0  0  1  0  0  0  0  0  0  0  0  0
   17.0532   70.6714   -8.5769 C   0  0  1  0  0  0  0  0  0  0  0  0
   16.3739   72.2586   -6.7498 C   0  0  2  0  0  0  0  0  0  0  0  0
   18.5018   70.8629   -8.1079 C   0  0  1  0  0  0  0  0  0  0  0  0
   17.8512   72.3668   -6.3678 C   0  0  1  0  0  0  0  0  0  0  0  0
   14.5450   70.1453   -8.4294 H   0  0  0  0  0  0  0  0  0  0  0  0
   15.9350   69.2308   -9.3324 H   0  0  0  0  0  0  0  0  0  0  0  0
   14.6216   72.3229   -5.8487 H   0  0  0  0  0  0  0  0  0  0  0  0
   18.8328   71.1371  -10.4582 O   0  0  0  0  0  0  0  0  0  0  0  0
   19.4950   70.7643   -9.2637 C   0  0  0  0  0  0  0  0  0  0  0  0
   19.4529   71.0794  -11.2025 H   0  0  0  0  0  0  0  0  0  0  0  0
 25 28  1  0
 25 24  1  0
 25 26  1  1
 25 27  2  0
  1  4  1  0
  1 24  1  0
  1  2  1  6
  1  3  2  0
  6 11  1  0
  6 12  1  0
 29 36  1  0
 29 37  1  0
  9  7  1  1
  7 13  1  0
 10  8  1  1
  8 14  1  0
 37 28  1  1
  4  5  1  0
 33 30  1  6
 30 38  1  0
 34 31  1  1
 31 39  1  0
 35 32  1  1
 32 40  1  0
 41 42  1  0
 41 43  1  0
 15 19  2  0
 16 22  2  0
 12 17  1  6
 17 19  1  0
 17 20  1  0
 18 19  1  0
 18 22  1  0
 18 23  1  0
  9 10  1  0
  9 11  1  0
 10 12  1  0
 11  5  1  6
 33 34  1  0
 33 35  1  0
 34 36  1  0
 35 37  1  0
 36 42  1  6
 20 21  2  0
 21 22  1  0
M  CHG  2   2  -1  26  -1
M  END
>  <COMPND>  (190) 
    8629 

>  <AUTHOR>  (190) 
    GENERATED BY OPEN BABEL 3.1.1

>  <MASTER>  (190) 
        0    0    0    0    0    0    0    0   58    0   58    0

>  <minimizedAffinity>  (190) 
-7.15529

>  <CNNscore>  (190) 
0.4069090188

>  <CNNaffinity>  (190) 
4.1601524353

>  <CNN_VS>  (190) 
1.6928035021

>  <CNNaffinity_variance>  (190) 
0.0695703849

$$$$
191
     RDKit          3D

 43 45  0  0  0  0  0  0  0  0999 V2000
   19.6111   74.4900   -3.3351 P   0  0  2  0  0  0  0  0  0  0  0  0
   19.6703   74.4224   -4.9504 O   0  0  0  0  0  0  0  0  0  0  0  0
   19.7249   75.8686   -2.7538 O   0  0  0  0  0  0  0  0  0  0  0  0
   20.7394   73.4319   -2.8604 O   0  0  0  0  0  0  0  0  0  0  0  0
   21.4421   73.6874   -1.6568 C   0  0  0  0  0  0  0  0  0  0  0  0
   21.3475   72.3145    0.3131 O   0  0  0  0  0  0  0  0  0  0  0  0
   19.0371   74.0246    1.1666 O   0  0  0  0  0  0  0  0  0  0  0  0
   21.1007   75.0386    2.6329 O   0  0  0  0  0  0  0  0  0  0  0  0
   20.2204   74.3939    0.4602 C   0  0  1  0  0  0  0  0  0  0  0  0
   21.4075   74.4196    1.4002 C   0  0  2  0  0  0  0  0  0  0  0  0
   20.5827   73.2498   -0.4786 C   0  0  1  0  0  0  0  0  0  0  0  0
   21.7222   72.9409    1.5508 C   0  0  2  0  0  0  0  0  0  0  0  0
   18.7859   74.7401    1.7723 H   0  0  0  0  0  0  0  0  0  0  0  0
   20.9081   75.9775    2.4842 H   0  0  0  0  0  0  0  0  0  0  0  0
   22.7530   70.5981    2.7452 O   0  0  0  0  0  0  0  0  0  0  0  0
   27.0901   72.1249    2.4282 O   0  0  0  0  0  0  0  0  0  0  0  0
   23.1168   72.6996    1.7921 N   0  0  0  0  0  0  0  0  0  0  0  0
   24.9117   71.3602    2.5862 N   0  0  0  0  0  0  0  0  0  0  0  0
   23.5297   71.4905    2.3987 C   0  0  0  0  0  0  0  0  0  0  0  0
   24.0587   73.6559    1.4282 C   0  0  0  0  0  0  0  0  0  0  0  0
   25.3728   73.5169    1.6151 C   0  0  0  0  0  0  0  0  0  0  0  0
   25.8873   72.2826    2.2428 C   0  0  0  0  0  0  0  0  0  0  0  0
   25.2226   70.5261    3.0075 H   0  0  0  0  0  0  0  0  0  0  0  0
   18.2288   73.7264   -2.9898 O   0  0  0  0  0  0  0  0  0  0  0  0
   17.7815   72.1888   -3.2110 P   0  0  2  0  0  0  0  0  0  0  0  0
   16.1841   72.2269   -2.9573 O   0  0  0  0  0  0  0  0  0  0  0  0
   18.5214   71.2034   -2.3535 O   0  0  0  0  0  0  0  0  0  0  0  0
   17.9364   71.9426   -4.7985 O   0  0  0  0  0  0  0  0  0  0  0  0
   17.5489   69.9338   -5.9948 O   0  0  0  0  0  0  0  0  0  0  0  0
   20.5953   71.4984   -8.3019 O   0  0  0  0  0  0  0  0  0  0  0  0
   17.9100   71.4829   -9.3203 O   0  0  0  0  0  0  0  0  0  0  0  0
   20.6681   71.7909   -5.4228 O   0  0  0  0  0  0  0  0  0  0  0  0
   19.4298   71.5489   -7.4745 C   0  0  1  0  0  0  0  0  0  0  0  0
   18.3174   70.7565   -8.1641 C   0  0  1  0  0  0  0  0  0  0  0  0
   19.7580   70.9407   -6.1122 C   0  0  2  0  0  0  0  0  0  0  0  0
   17.1258   70.5397   -7.2218 C   0  0  1  0  0  0  0  0  0  0  0  0
   18.4978   70.7216   -5.2731 C   0  0  1  0  0  0  0  0  0  0  0  0
   20.3938   71.8835   -9.1682 H   0  0  0  0  0  0  0  0  0  0  0  0
   18.6718   71.6135   -9.9067 H   0  0  0  0  0  0  0  0  0  0  0  0
   21.4617   71.9215   -5.9642 H   0  0  0  0  0  0  0  0  0  0  0  0
   15.2093   70.3978   -8.6417 O   0  0  0  0  0  0  0  0  0  0  0  0
   16.0726   69.6188   -7.8341 C   0  0  0  0  0  0  0  0  0  0  0  0
   14.5340   69.8247   -9.0382 H   0  0  0  0  0  0  0  0  0  0  0  0
 25 28  1  0
 25 24  1  0
 25 26  1  1
 25 27  2  0
  1  4  1  0
  1 24  1  0
  1  2  1  6
  1  3  2  0
  6 11  1  0
  6 12  1  0
 29 36  1  0
 29 37  1  0
  9  7  1  1
  7 13  1  0
 10  8  1  1
  8 14  1  0
 37 28  1  6
  4  5  1  0
 33 30  1  6
 30 38  1  0
 34 31  1  6
 31 39  1  0
 35 32  1  1
 32 40  1  0
 41 42  1  0
 41 43  1  0
 15 19  2  0
 16 22  2  0
 12 17  1  6
 17 19  1  0
 17 20  1  0
 18 19  1  0
 18 22  1  0
 18 23  1  0
  9 10  1  0
  9 11  1  0
 10 12  1  0
 11  5  1  6
 33 34  1  0
 33 35  1  0
 34 36  1  0
 35 37  1  0
 36 42  1  6
 20 21  2  0
 21 22  1  0
M  CHG  2   2  -1  26  -1
M  END
>  <COMPND>  (191) 
    8629 

>  <AUTHOR>  (191) 
    GENERATED BY OPEN BABEL 3.1.1

>  <MASTER>  (191) 
        0    0    0    0    0    0    0    0   58    0   58    0

>  <minimizedAffinity>  (191) 
-6.00182

>  <CNNscore>  (191) 
0.3968055248

>  <CNNaffinity>  (191) 
4.2061333656

>  <CNN_VS>  (191) 
1.6690169573

>  <CNNaffinity_variance>  (191) 
0.3105355799

$$$$
192
     RDKit          3D

 43 45  0  0  0  0  0  0  0  0999 V2000
   22.1943   73.0703   -4.6712 P   0  0  2  0  0  0  0  0  0  0  0  0
   23.7642   72.7715   -4.4196 O   0  0  0  0  0  0  0  0  0  0  0  0
   21.7396   74.4448   -4.2771 O   0  0  0  0  0  0  0  0  0  0  0  0
   21.4420   71.8428   -3.9329 O   0  0  0  0  0  0  0  0  0  0  0  0
   22.0535   71.2617   -2.7943 C   0  0  0  0  0  0  0  0  0  0  0  0
   21.7039   70.7249   -0.4784 O   0  0  0  0  0  0  0  0  0  0  0  0
   19.1204   72.2287   -0.7133 O   0  0  0  0  0  0  0  0  0  0  0  0
   20.7514   74.0372    0.5139 O   0  0  0  0  0  0  0  0  0  0  0  0
   20.3792   72.4960   -1.3293 C   0  0  1  0  0  0  0  0  0  0  0  0
   21.3510   73.0628   -0.3154 C   0  0  2  0  0  0  0  0  0  0  0  0
   21.0247   71.1603   -1.6765 C   0  0  1  0  0  0  0  0  0  0  0  0
   21.7678   71.8190    0.4510 C   0  0  2  0  0  0  0  0  0  0  0  0
   18.6890   73.0670   -0.4828 H   0  0  0  0  0  0  0  0  0  0  0  0
   20.5042   74.8084   -0.0197 H   0  0  0  0  0  0  0  0  0  0  0  0
   22.7444   70.3286    2.6425 O   0  0  0  0  0  0  0  0  0  0  0  0
   26.9124   72.2725    2.3422 O   0  0  0  0  0  0  0  0  0  0  0  0
   23.1043   71.9155    0.9664 N   0  0  0  0  0  0  0  0  0  0  0  0
   24.8190   71.2976    2.4911 N   0  0  0  0  0  0  0  0  0  0  0  0
   23.4939   71.1237    2.0717 C   0  0  0  0  0  0  0  0  0  0  0  0
   24.0131   72.7877    0.3770 C   0  0  0  0  0  0  0  0  0  0  0  0
   25.2728   72.9428    0.7897 C   0  0  0  0  0  0  0  0  0  0  0  0
   25.7597   72.1525    1.9388 C   0  0  0  0  0  0  0  0  0  0  0  0
   25.1126   70.7566    3.2597 H   0  0  0  0  0  0  0  0  0  0  0  0
   22.0048   72.7227   -6.2385 O   0  0  0  0  0  0  0  0  0  0  0  0
   20.8618   73.1636   -7.2930 P   0  0  2  0  0  0  0  0  0  0  0  0
   21.5110   72.7822   -8.7250 O   0  0  0  0  0  0  0  0  0  0  0  0
   20.4312   74.5966   -7.1703 O   0  0  0  0  0  0  0  0  0  0  0  0
   19.6762   72.0887   -7.0836 O   0  0  0  0  0  0  0  0  0  0  0  0
   17.5483   73.1265   -7.1912 O   0  0  0  0  0  0  0  0  0  0  0  0
   16.3903   69.3794   -5.8992 O   0  0  0  0  0  0  0  0  0  0  0  0
   15.8411   70.1797   -8.6022 O   0  0  0  0  0  0  0  0  0  0  0  0
   18.8265   70.5679   -4.8835 O   0  0  0  0  0  0  0  0  0  0  0  0
   17.1854   70.3180   -6.6287 C   0  0  1  0  0  0  0  0  0  0  0  0
   16.2682   71.0821   -7.5855 C   0  0  1  0  0  0  0  0  0  0  0  0
   17.8545   71.2762   -5.6451 C   0  0  2  0  0  0  0  0  0  0  0  0
   16.9935   72.2831   -8.2074 C   0  0  1  0  0  0  0  0  0  0  0  0
   18.5038   72.4605   -6.3634 C   0  0  1  0  0  0  0  0  0  0  0  0
   15.9630   68.7677   -6.5179 H   0  0  0  0  0  0  0  0  0  0  0  0
   15.3852   69.4257   -8.1962 H   0  0  0  0  0  0  0  0  0  0  0  0
   18.4029   69.8210   -4.4335 H   0  0  0  0  0  0  0  0  0  0  0  0
   14.7379   72.6427   -8.9088 O   0  0  0  0  0  0  0  0  0  0  0  0
   16.0529   73.1498   -9.0419 C   0  0  0  0  0  0  0  0  0  0  0  0
   14.1282   73.1847   -9.4344 H   0  0  0  0  0  0  0  0  0  0  0  0
 25 28  1  0
 25 24  1  0
 25 26  1  6
 25 27  2  0
  1  4  1  0
  1 24  1  0
  1  2  1  1
  1  3  2  0
  6 11  1  0
  6 12  1  0
 29 36  1  0
 29 37  1  0
  9  7  1  1
  7 13  1  0
 10  8  1  1
  8 14  1  0
 37 28  1  6
  4  5  1  0
 33 30  1  1
 30 38  1  0
 34 31  1  6
 31 39  1  0
 35 32  1  6
 32 40  1  0
 41 42  1  0
 41 43  1  0
 15 19  2  0
 16 22  2  0
 12 17  1  6
 17 19  1  0
 17 20  1  0
 18 19  1  0
 18 22  1  0
 18 23  1  0
  9 10  1  0
  9 11  1  0
 10 12  1  0
 11  5  1  6
 33 34  1  0
 33 35  1  0
 34 36  1  0
 35 37  1  0
 36 42  1  1
 20 21  2  0
 21 22  1  0
M  CHG  2   2  -1  26  -1
M  END
>  <COMPND>  (192) 
    8629 

>  <AUTHOR>  (192) 
    GENERATED BY OPEN BABEL 3.1.1

>  <MASTER>  (192) 
        0    0    0    0    0    0    0    0   58    0   58    0

>  <minimizedAffinity>  (192) 
-7.58163

>  <CNNscore>  (192) 
0.3911505938

>  <CNNaffinity>  (192) 
4.1060805321

>  <CNN_VS>  (192) 
1.6060957909

>  <CNNaffinity_variance>  (192) 
0.0711477622

$$$$
193
     RDKit          3D

 43 45  0  0  0  0  0  0  0  0999 V2000
   14.9100   74.1853   -2.3604 P   0  0  2  0  0  0  0  0  0  0  0  0
   13.4468   74.8650   -2.4805 O   0  0  0  0  0  0  0  0  0  0  0  0
   15.9567   75.0444   -1.7141 O   0  0  0  0  0  0  0  0  0  0  0  0
   15.2355   73.6954   -3.8677 O   0  0  0  0  0  0  0  0  0  0  0  0
   16.5270   73.1845   -4.1484 C   0  0  0  0  0  0  0  0  0  0  0  0
   16.4755   70.8993   -4.8895 O   0  0  0  0  0  0  0  0  0  0  0  0
   17.6903   70.2077   -2.2368 O   0  0  0  0  0  0  0  0  0  0  0  0
   19.8403   70.1332   -3.9127 O   0  0  0  0  0  0  0  0  0  0  0  0
   17.9149   71.3498   -3.0617 C   0  0  1  0  0  0  0  0  0  0  0  0
   18.7594   70.9741   -4.2614 C   0  0  2  0  0  0  0  0  0  0  0  0
   16.5895   71.7273   -3.7114 C   0  0  1  0  0  0  0  0  0  0  0  0
   17.7453   70.2820   -5.1562 C   0  0  2  0  0  0  0  0  0  0  0  0
   18.5228   69.9481   -1.8108 H   0  0  0  0  0  0  0  0  0  0  0  0
   20.4574   70.6189   -3.3434 H   0  0  0  0  0  0  0  0  0  0  0  0
   16.5223   68.8025   -7.2283 O   0  0  0  0  0  0  0  0  0  0  0  0
   19.0056   70.9406  -10.4692 O   0  0  0  0  0  0  0  0  0  0  0  0
   18.0530   70.4320   -6.5506 N   0  0  0  0  0  0  0  0  0  0  0  0
   17.7597   69.8684   -8.8403 N   0  0  0  0  0  0  0  0  0  0  0  0
   17.3821   69.6395   -7.5110 C   0  0  0  0  0  0  0  0  0  0  0  0
   19.0100   71.3569   -6.9535 C   0  0  0  0  0  0  0  0  0  0  0  0
   19.3595   71.5622   -8.2251 C   0  0  0  0  0  0  0  0  0  0  0  0
   18.7061   70.7751   -9.2907 C   0  0  0  0  0  0  0  0  0  0  0  0
   17.3059   69.3275   -9.5268 H   0  0  0  0  0  0  0  0  0  0  0  0
   14.6047   72.7997   -1.5860 O   0  0  0  0  0  0  0  0  0  0  0  0
   15.1359   72.2377   -0.1665 P   0  0  2  0  0  0  0  0  0  0  0  0
   14.4513   73.2355    0.9073 O   0  0  0  0  0  0  0  0  0  0  0  0
   16.6308   72.1461   -0.0613 O   0  0  0  0  0  0  0  0  0  0  0  0
   14.3643   70.8340    0.0317 O   0  0  0  0  0  0  0  0  0  0  0  0
   14.9959   68.7831    1.0375 O   0  0  0  0  0  0  0  0  0  0  0  0
   12.9832   67.3115   -2.2541 O   0  0  0  0  0  0  0  0  0  0  0  0
   11.7877   67.1033    0.3489 O   0  0  0  0  0  0  0  0  0  0  0  0
   14.6354   69.6747   -2.5095 O   0  0  0  0  0  0  0  0  0  0  0  0
   13.2391   68.2264   -1.1850 C   0  0  1  0  0  0  0  0  0  0  0  0
   13.1510   67.4581    0.1351 C   0  0  1  0  0  0  0  0  0  0  0  0
   14.6317   68.8278   -1.3652 C   0  0  2  0  0  0  0  0  0  0  0  0
   13.6726   68.3043    1.3044 C   0  0  1  0  0  0  0  0  0  0  0  0
   15.0744   69.6084   -0.1264 C   0  0  1  0  0  0  0  0  0  0  0  0
   12.1003   66.9264   -2.1459 H   0  0  0  0  0  0  0  0  0  0  0  0
   11.4705   66.5697   -0.3967 H   0  0  0  0  0  0  0  0  0  0  0  0
   14.3536   69.1687   -3.2870 H   0  0  0  0  0  0  0  0  0  0  0  0
   13.6019   66.1300    2.2927 O   0  0  0  0  0  0  0  0  0  0  0  0
   13.7413   67.5042    2.6033 C   0  0  0  0  0  0  0  0  0  0  0  0
   13.6440   65.6085    3.1100 H   0  0  0  0  0  0  0  0  0  0  0  0
 25 28  1  0
 25 24  1  0
 25 26  1  1
 25 27  2  0
  1  4  1  0
  1 24  1  0
  1  2  1  6
  1  3  2  0
  6 11  1  0
  6 12  1  0
 29 36  1  0
 29 37  1  0
  9  7  1  1
  7 13  1  0
 10  8  1  1
  8 14  1  0
 37 28  1  1
  4  5  1  0
 33 30  1  6
 30 38  1  0
 34 31  1  1
 31 39  1  0
 35 32  1  6
 32 40  1  0
 41 42  1  0
 41 43  1  0
 15 19  2  0
 16 22  2  0
 12 17  1  6
 17 19  1  0
 17 20  1  0
 18 19  1  0
 18 22  1  0
 18 23  1  0
  9 10  1  0
  9 11  1  0
 10 12  1  0
 11  5  1  6
 33 34  1  0
 33 35  1  0
 34 36  1  0
 35 37  1  0
 36 42  1  1
 20 21  2  0
 21 22  1  0
M  CHG  2   2  -1  26  -1
M  END
>  <COMPND>  (193) 
    8629 

>  <AUTHOR>  (193) 
    GENERATED BY OPEN BABEL 3.1.1

>  <MASTER>  (193) 
        0    0    0    0    0    0    0    0   58    0   58    0

>  <minimizedAffinity>  (193) 
-6.14930

>  <CNNscore>  (193) 
0.3865415156

>  <CNNaffinity>  (193) 
4.0662708282

>  <CNN_VS>  (193) 
1.5717824697

>  <CNNaffinity_variance>  (193) 
0.1946414858

$$$$
194
     RDKit          3D

 43 45  0  0  0  0  0  0  0  0999 V2000
   22.1003   72.9819   -4.7177 P   0  0  2  0  0  0  0  0  0  0  0  0
   23.6896   72.8066   -4.4711 O   0  0  0  0  0  0  0  0  0  0  0  0
   21.5452   74.3248   -4.3434 O   0  0  0  0  0  0  0  0  0  0  0  0
   21.4465   71.7139   -3.9545 O   0  0  0  0  0  0  0  0  0  0  0  0
   22.0762   71.2338   -2.7794 C   0  0  0  0  0  0  0  0  0  0  0  0
   21.7197   70.7282   -0.4575 O   0  0  0  0  0  0  0  0  0  0  0  0
   19.1463   72.2454   -0.7152 O   0  0  0  0  0  0  0  0  0  0  0  0
   20.7869   74.0585    0.4920 O   0  0  0  0  0  0  0  0  0  0  0  0
   20.4076   72.4969   -1.3325 C   0  0  1  0  0  0  0  0  0  0  0  0
   21.3815   73.0701   -0.3242 C   0  0  2  0  0  0  0  0  0  0  0  0
   21.0451   71.1529   -1.6620 C   0  0  1  0  0  0  0  0  0  0  0  0
   21.7891   71.8333    0.4583 C   0  0  2  0  0  0  0  0  0  0  0  0
   18.7198   73.0892   -0.4958 H   0  0  0  0  0  0  0  0  0  0  0  0
   20.5454   74.8246   -0.0516 H   0  0  0  0  0  0  0  0  0  0  0  0
   22.7481   70.3764    2.6799 O   0  0  0  0  0  0  0  0  0  0  0  0
   26.9339   72.2770    2.3514 O   0  0  0  0  0  0  0  0  0  0  0  0
   23.1255   71.9278    0.9746 N   0  0  0  0  0  0  0  0  0  0  0  0
   24.8316   71.3238    2.5144 N   0  0  0  0  0  0  0  0  0  0  0  0
   23.5058   71.1537    2.0957 C   0  0  0  0  0  0  0  0  0  0  0  0
   24.0432   72.7804    0.3706 C   0  0  0  0  0  0  0  0  0  0  0  0
   25.3034   72.9321    0.7830 C   0  0  0  0  0  0  0  0  0  0  0  0
   25.7810   72.1596    1.9480 C   0  0  0  0  0  0  0  0  0  0  0  0
   25.1189   70.7950    3.2939 H   0  0  0  0  0  0  0  0  0  0  0  0
   21.9296   72.5945   -6.2778 O   0  0  0  0  0  0  0  0  0  0  0  0
   21.0194   73.2511   -7.4412 P   0  0  2  0  0  0  0  0  0  0  0  0
   21.4232   72.3971   -8.7546 O   0  0  0  0  0  0  0  0  0  0  0  0
   21.1890   74.7353   -7.5912 O   0  0  0  0  0  0  0  0  0  0  0  0
   19.5143   72.7814   -7.0964 O   0  0  0  0  0  0  0  0  0  0  0  0
   18.8553   70.9061   -5.8058 O   0  0  0  0  0  0  0  0  0  0  0  0
   15.6897   71.0297   -8.4543 O   0  0  0  0  0  0  0  0  0  0  0  0
   15.2871   71.8282   -5.7252 O   0  0  0  0  0  0  0  0  0  0  0  0
   18.3693   71.6169   -9.3785 O   0  0  0  0  0  0  0  0  0  0  0  0
   16.7176   71.5796   -7.6259 C   0  0  1  0  0  0  0  0  0  0  0  0
   16.4525   71.1476   -6.1823 C   0  0  1  0  0  0  0  0  0  0  0  0
   18.0733   71.0609   -8.1019 C   0  0  2  0  0  0  0  0  0  0  0  0
   17.6496   71.4716   -5.2784 C   0  0  1  0  0  0  0  0  0  0  0  0
   19.1866   71.3944   -7.1072 C   0  0  1  0  0  0  0  0  0  0  0  0
   14.8264   71.3554   -8.1577 H   0  0  0  0  0  0  0  0  0  0  0  0
   14.5387   71.6155   -6.3047 H   0  0  0  0  0  0  0  0  0  0  0  0
   17.6573   71.3986   -9.9992 H   0  0  0  0  0  0  0  0  0  0  0  0
   16.5478   69.8375   -3.9276 O   0  0  0  0  0  0  0  0  0  0  0  0
   17.4717   70.9086   -3.8700 C   0  0  0  0  0  0  0  0  0  0  0  0
   16.4249   69.4691   -3.0383 H   0  0  0  0  0  0  0  0  0  0  0  0
 25 28  1  0
 25 24  1  0
 25 26  1  6
 25 27  2  0
  1  4  1  0
  1 24  1  0
  1  2  1  1
  1  3  2  0
  6 11  1  0
  6 12  1  0
 29 36  1  0
 29 37  1  0
  9  7  1  1
  7 13  1  0
 10  8  1  1
  8 14  1  0
 37 28  1  1
  4  5  1  0
 33 30  1  6
 30 38  1  0
 34 31  1  1
 31 39  1  0
 35 32  1  6
 32 40  1  0
 41 42  1  0
 41 43  1  0
 15 19  2  0
 16 22  2  0
 12 17  1  6
 17 19  1  0
 17 20  1  0
 18 19  1  0
 18 22  1  0
 18 23  1  0
  9 10  1  0
  9 11  1  0
 10 12  1  0
 11  5  1  6
 33 34  1  0
 33 35  1  0
 34 36  1  0
 35 37  1  0
 36 42  1  1
 20 21  2  0
 21 22  1  0
M  CHG  2   2  -1  26  -1
M  END
>  <COMPND>  (194) 
    8629 

>  <AUTHOR>  (194) 
    GENERATED BY OPEN BABEL 3.1.1

>  <MASTER>  (194) 
        0    0    0    0    0    0    0    0   58    0   58    0

>  <minimizedAffinity>  (194) 
-7.62567

>  <CNNscore>  (194) 
0.3785865903

>  <CNNaffinity>  (194) 
4.1667666435

>  <CNN_VS>  (194) 
1.5774819851

>  <CNNaffinity_variance>  (194) 
0.0909784585

$$$$
195
     RDKit          3D

 43 45  0  0  0  0  0  0  0  0999 V2000
   21.3965   71.4622   -2.6979 P   0  0  2  0  0  0  0  0  0  0  0  0
   20.7368   70.0582   -2.2385 O   0  0  0  0  0  0  0  0  0  0  0  0
   20.6206   72.6852   -2.3063 O   0  0  0  0  0  0  0  0  0  0  0  0
   21.6527   71.2704   -4.2839 O   0  0  0  0  0  0  0  0  0  0  0  0
   21.6648   72.4211   -5.1108 C   0  0  0  0  0  0  0  0  0  0  0  0
   20.3679   70.9506   -6.5000 O   0  0  0  0  0  0  0  0  0  0  0  0
   20.9797   72.8389   -8.7474 O   0  0  0  0  0  0  0  0  0  0  0  0
   18.4375   73.5424   -8.0553 O   0  0  0  0  0  0  0  0  0  0  0  0
   20.7328   73.1239   -7.3714 C   0  0  1  0  0  0  0  0  0  0  0  0
   19.2591   72.9693   -7.0587 C   0  0  2  0  0  0  0  0  0  0  0  0
   21.3529   72.0063   -6.5422 C   0  0  1  0  0  0  0  0  0  0  0  0
   19.1112   71.4595   -6.9760 C   0  0  2  0  0  0  0  0  0  0  0  0
   20.5932   73.5394   -9.2969 H   0  0  0  0  0  0  0  0  0  0  0  0
   18.5675   74.5034   -8.0685 H   0  0  0  0  0  0  0  0  0  0  0  0
   16.7898   70.0402   -7.7339 O   0  0  0  0  0  0  0  0  0  0  0  0
   15.1931   69.9804   -3.4109 O   0  0  0  0  0  0  0  0  0  0  0  0
   18.0726   71.0598   -6.0689 N   0  0  0  0  0  0  0  0  0  0  0  0
   15.9968   70.0114   -5.5807 N   0  0  0  0  0  0  0  0  0  0  0  0
   16.9476   70.3513   -6.5515 C   0  0  0  0  0  0  0  0  0  0  0  0
   18.1757   71.3701   -4.7173 C   0  0  0  0  0  0  0  0  0  0  0  0
   17.2596   71.0399   -3.8046 C   0  0  0  0  0  0  0  0  0  0  0  0
   16.0535   70.2984   -4.2260 C   0  0  0  0  0  0  0  0  0  0  0  0
   15.2042   69.5179   -5.8938 H   0  0  0  0  0  0  0  0  0  0  0  0
   22.8870   71.3837   -2.0770 O   0  0  0  0  0  0  0  0  0  0  0  0
   24.2409   72.1778   -2.4632 P   0  0  2  0  0  0  0  0  0  0  0  0
   23.7409   73.7083   -2.6223 O   0  0  0  0  0  0  0  0  0  0  0  0
   24.9533   71.6309   -3.6662 O   0  0  0  0  0  0  0  0  0  0  0  0
   25.1174   72.1741   -1.1079 O   0  0  0  0  0  0  0  0  0  0  0  0
   23.6705   73.0643    0.5447 O   0  0  0  0  0  0  0  0  0  0  0  0
   26.9919   72.3491    2.8916 O   0  0  0  0  0  0  0  0  0  0  0  0
   24.6789   70.6678    3.1579 O   0  0  0  0  0  0  0  0  0  0  0  0
   27.3183   73.3350    0.1895 O   0  0  0  0  0  0  0  0  0  0  0  0
   26.0664   72.0947    1.8313 C   0  0  1  0  0  0  0  0  0  0  0  0
   24.6777   71.9005    2.4433 C   0  0  1  0  0  0  0  0  0  0  0  0
   26.0693   73.2821    0.8705 C   0  0  2  0  0  0  0  0  0  0  0  0
   23.5914   71.8889    1.3594 C   0  0  1  0  0  0  0  0  0  0  0  0
   24.9201   73.1974   -0.1356 C   0  0  1  0  0  0  0  0  0  0  0  0
   26.9953   71.5987    3.5050 H   0  0  0  0  0  0  0  0  0  0  0  0
   25.3696   70.6880    3.8388 H   0  0  0  0  0  0  0  0  0  0  0  0
   28.0376   73.3888    0.8373 H   0  0  0  0  0  0  0  0  0  0  0  0
   22.2680   72.2408    3.3174 O   0  0  0  0  0  0  0  0  0  0  0  0
   22.1868   71.8547    1.9578 C   0  0  0  0  0  0  0  0  0  0  0  0
   21.3812   72.2239    3.7112 H   0  0  0  0  0  0  0  0  0  0  0  0
 25 28  1  0
 25 24  1  0
 25 26  1  6
 25 27  2  0
  1  4  1  0
  1 24  1  0
  1  2  1  1
  1  3  2  0
  6 11  1  0
  6 12  1  0
 29 36  1  0
 29 37  1  0
  9  7  1  6
  7 13  1  0
 10  8  1  6
  8 14  1  0
 37 28  1  6
  4  5  1  0
 33 30  1  1
 30 38  1  0
 34 31  1  6
 31 39  1  0
 35 32  1  6
 32 40  1  0
 41 42  1  0
 41 43  1  0
 15 19  2  0
 16 22  2  0
 12 17  1  1
 17 19  1  0
 17 20  1  0
 18 19  1  0
 18 22  1  0
 18 23  1  0
  9 10  1  0
  9 11  1  0
 10 12  1  0
 11  5  1  1
 33 34  1  0
 33 35  1  0
 34 36  1  0
 35 37  1  0
 36 42  1  1
 20 21  2  0
 21 22  1  0
M  CHG  2   2  -1  26  -1
M  END
>  <COMPND>  (195) 
    8629 

>  <AUTHOR>  (195) 
    GENERATED BY OPEN BABEL 3.1.1

>  <MASTER>  (195) 
        0    0    0    0    0    0    0    0   58    0   58    0

>  <minimizedAffinity>  (195) 
-6.68361

>  <CNNscore>  (195) 
0.3689505756

>  <CNNaffinity>  (195) 
4.0624461174

>  <CNN_VS>  (195) 
1.4988418818

>  <CNNaffinity_variance>  (195) 
0.0813435763

$$$$
196
     RDKit          3D

 43 45  0  0  0  0  0  0  0  0999 V2000
   18.4117   74.7289   -2.5550 P   0  0  2  0  0  0  0  0  0  0  0  0
   19.0254   76.2114   -2.3474 O   0  0  0  0  0  0  0  0  0  0  0  0
   17.7487   74.1420   -1.3436 O   0  0  0  0  0  0  0  0  0  0  0  0
   19.6475   73.8784   -3.1610 O   0  0  0  0  0  0  0  0  0  0  0  0
   19.4557   72.4987   -3.4209 C   0  0  0  0  0  0  0  0  0  0  0  0
   20.1859   70.8441   -5.0030 O   0  0  0  0  0  0  0  0  0  0  0  0
   22.5227   72.6481   -5.5281 O   0  0  0  0  0  0  0  0  0  0  0  0
   20.8852   73.1648   -7.6466 O   0  0  0  0  0  0  0  0  0  0  0  0
   21.1678   72.9880   -5.2382 C   0  0  1  0  0  0  0  0  0  0  0  0
   20.2899   72.7232   -6.4435 C   0  0  2  0  0  0  0  0  0  0  0  0
   20.6361   71.9777   -4.2293 C   0  0  1  0  0  0  0  0  0  0  0  0
   20.1291   71.2134   -6.3906 C   0  0  2  0  0  0  0  0  0  0  0  0
   22.8841   73.2798   -6.1703 H   0  0  0  0  0  0  0  0  0  0  0  0
   20.9657   74.1312   -7.6320 H   0  0  0  0  0  0  0  0  0  0  0  0
   19.6357   70.8407   -9.1466 O   0  0  0  0  0  0  0  0  0  0  0  0
   15.2828   69.5358   -8.3777 O   0  0  0  0  0  0  0  0  0  0  0  0
   18.8760   70.7765   -6.9385 N   0  0  0  0  0  0  0  0  0  0  0  0
   17.4688   70.1911   -8.7615 N   0  0  0  0  0  0  0  0  0  0  0  0
   18.7322   70.6219   -8.3370 C   0  0  0  0  0  0  0  0  0  0  0  0
   17.8063   70.5059   -6.0920 C   0  0  0  0  0  0  0  0  0  0  0  0
   16.6075   70.0971   -6.5128 C   0  0  0  0  0  0  0  0  0  0  0  0
   16.3739   69.9106   -7.9594 C   0  0  0  0  0  0  0  0  0  0  0  0
   17.3451   70.0768   -9.7318 H   0  0  0  0  0  0  0  0  0  0  0  0
   17.4376   74.9143   -3.8316 O   0  0  0  0  0  0  0  0  0  0  0  0
   17.4287   76.0229   -5.0080 P   0  0  2  0  0  0  0  0  0  0  0  0
   18.9177   75.9143   -5.6314 O   0  0  0  0  0  0  0  0  0  0  0  0
   17.0475   77.4014   -4.5516 O   0  0  0  0  0  0  0  0  0  0  0  0
   16.4646   75.4043   -6.1450 O   0  0  0  0  0  0  0  0  0  0  0  0
   15.1646   73.4255   -6.0399 O   0  0  0  0  0  0  0  0  0  0  0  0
   16.1160   73.3773  -10.0578 O   0  0  0  0  0  0  0  0  0  0  0  0
   13.4389   74.0223   -9.2422 O   0  0  0  0  0  0  0  0  0  0  0  0
   18.0844   74.2388   -8.1181 O   0  0  0  0  0  0  0  0  0  0  0  0
   15.7897   73.9815   -8.8033 C   0  0  1  0  0  0  0  0  0  0  0  0
   14.4164   73.4678   -8.3663 C   0  0  1  0  0  0  0  0  0  0  0  0
   16.8561   73.6059   -7.7760 C   0  0  2  0  0  0  0  0  0  0  0  0
   14.1153   73.8590   -6.9133 C   0  0  1  0  0  0  0  0  0  0  0  0
   16.4360   73.9953   -6.3576 C   0  0  1  0  0  0  0  0  0  0  0  0
   15.4430   73.6123  -10.7147 H   0  0  0  0  0  0  0  0  0  0  0  0
   13.6409   73.7682  -10.1565 H   0  0  0  0  0  0  0  0  0  0  0  0
   18.3397   73.9841   -9.0180 H   0  0  0  0  0  0  0  0  0  0  0  0
   11.7352   74.0392   -6.8043 O   0  0  0  0  0  0  0  0  0  0  0  0
   12.8222   73.2241   -6.4063 C   0  0  0  0  0  0  0  0  0  0  0  0
   10.9054   73.6473   -6.4888 H   0  0  0  0  0  0  0  0  0  0  0  0
 25 28  1  0
 25 24  1  0
 25 26  1  6
 25 27  2  0
  1  4  1  0
  1 24  1  0
  1  2  1  1
  1  3  2  0
  6 11  1  0
  6 12  1  0
 29 36  1  0
 29 37  1  0
  9  7  1  6
  7 13  1  0
 10  8  1  6
  8 14  1  0
 37 28  1  6
  4  5  1  0
 33 30  1  6
 30 38  1  0
 34 31  1  6
 31 39  1  0
 35 32  1  6
 32 40  1  0
 41 42  1  0
 41 43  1  0
 15 19  2  0
 16 22  2  0
 12 17  1  1
 17 19  1  0
 17 20  1  0
 18 19  1  0
 18 22  1  0
 18 23  1  0
  9 10  1  0
  9 11  1  0
 10 12  1  0
 11  5  1  6
 33 34  1  0
 33 35  1  0
 34 36  1  0
 35 37  1  0
 36 42  1  1
 20 21  2  0
 21 22  1  0
M  CHG  2   2  -1  26  -1
M  END
>  <COMPND>  (196) 
    8629 

>  <AUTHOR>  (196) 
    GENERATED BY OPEN BABEL 3.1.1

>  <MASTER>  (196) 
        0    0    0    0    0    0    0    0   58    0   58    0

>  <minimizedAffinity>  (196) 
-5.41412

>  <CNNscore>  (196) 
0.3629727662

>  <CNNaffinity>  (196) 
3.9519019127

>  <CNN_VS>  (196) 
1.4344327450

>  <CNNaffinity_variance>  (196) 
0.3652662337

$$$$
197
     RDKit          3D

 43 45  0  0  0  0  0  0  0  0999 V2000
   17.6800   72.8751   -1.8039 P   0  0  2  0  0  0  0  0  0  0  0  0
   18.5513   74.1786   -1.4050 O   0  0  0  0  0  0  0  0  0  0  0  0
   17.3912   71.9348   -0.6708 O   0  0  0  0  0  0  0  0  0  0  0  0
   18.4828   72.2398   -3.0569 O   0  0  0  0  0  0  0  0  0  0  0  0
   19.1507   73.1171   -3.9468 C   0  0  0  0  0  0  0  0  0  0  0  0
   19.8224   71.1540   -5.1587 O   0  0  0  0  0  0  0  0  0  0  0  0
   22.3021   72.6769   -5.8816 O   0  0  0  0  0  0  0  0  0  0  0  0
   20.7918   72.8928   -8.1420 O   0  0  0  0  0  0  0  0  0  0  0  0
   20.9647   73.1500   -5.7305 C   0  0  1  0  0  0  0  0  0  0  0  0
   20.1188   72.7215   -6.9114 C   0  0  2  0  0  0  0  0  0  0  0  0
   20.3218   72.3810   -4.5830 C   0  0  1  0  0  0  0  0  0  0  0  0
   19.8477   71.2613   -6.5915 C   0  0  2  0  0  0  0  0  0  0  0  0
   22.7333   73.1537   -6.6087 H   0  0  0  0  0  0  0  0  0  0  0  0
   20.9411   73.8380   -8.3003 H   0  0  0  0  0  0  0  0  0  0  0  0
   19.3848   70.6223   -9.3036 O   0  0  0  0  0  0  0  0  0  0  0  0
   14.9792   69.5428   -8.4871 O   0  0  0  0  0  0  0  0  0  0  0  0
   18.5892   70.8103   -7.1152 N   0  0  0  0  0  0  0  0  0  0  0  0
   17.1915   70.0852   -8.8948 N   0  0  0  0  0  0  0  0  0  0  0  0
   18.4620   70.5170   -8.4930 C   0  0  0  0  0  0  0  0  0  0  0  0
   17.4981   70.6627   -6.2658 C   0  0  0  0  0  0  0  0  0  0  0  0
   16.2929   70.2510   -6.6650 C   0  0  0  0  0  0  0  0  0  0  0  0
   16.0756   69.9238   -8.0890 C   0  0  0  0  0  0  0  0  0  0  0  0
   17.0792   69.8754   -9.8504 H   0  0  0  0  0  0  0  0  0  0  0  0
   16.3679   73.5137   -2.4992 O   0  0  0  0  0  0  0  0  0  0  0  0
   15.1725   72.8263   -3.3428 P   0  0  2  0  0  0  0  0  0  0  0  0
   13.9123   73.8013   -3.0625 O   0  0  0  0  0  0  0  0  0  0  0  0
   14.9283   71.3849   -3.0013 O   0  0  0  0  0  0  0  0  0  0  0  0
   15.5576   73.0917   -4.8875 O   0  0  0  0  0  0  0  0  0  0  0  0
   16.1262   75.0352   -6.1188 O   0  0  0  0  0  0  0  0  0  0  0  0
   13.6428   73.2144   -8.8698 O   0  0  0  0  0  0  0  0  0  0  0  0
   16.4762   73.2687   -9.3353 O   0  0  0  0  0  0  0  0  0  0  0  0
   13.0030   73.0998   -6.0489 O   0  0  0  0  0  0  0  0  0  0  0  0
   14.6201   73.2602   -7.8267 C   0  0  1  0  0  0  0  0  0  0  0  0
   15.8278   74.0498   -8.3355 C   0  0  1  0  0  0  0  0  0  0  0  0
   14.0111   73.9393   -6.6015 C   0  0  2  0  0  0  0  0  0  0  0  0
   16.8012   74.3704   -7.1932 C   0  0  1  0  0  0  0  0  0  0  0  0
   15.0722   74.2584   -5.5467 C   0  0  1  0  0  0  0  0  0  0  0  0
   14.0229   72.7839   -9.6506 H   0  0  0  0  0  0  0  0  0  0  0  0
   15.8506   73.0728  -10.0505 H   0  0  0  0  0  0  0  0  0  0  0  0
   12.3372   72.9054   -6.7263 H   0  0  0  0  0  0  0  0  0  0  0  0
   17.3985   76.2529   -8.5379 O   0  0  0  0  0  0  0  0  0  0  0  0
   17.9322   75.2909   -7.6469 C   0  0  0  0  0  0  0  0  0  0  0  0
   18.1070   76.8459   -8.8348 H   0  0  0  0  0  0  0  0  0  0  0  0
 25 28  1  0
 25 24  1  0
 25 26  1  1
 25 27  2  0
  1  4  1  0
  1 24  1  0
  1  2  1  1
  1  3  2  0
  6 11  1  0
  6 12  1  0
 29 36  1  0
 29 37  1  0
  9  7  1  6
  7 13  1  0
 10  8  1  6
  8 14  1  0
 37 28  1  6
  4  5  1  0
 33 30  1  6
 30 38  1  0
 34 31  1  6
 31 39  1  0
 35 32  1  1
 32 40  1  0
 41 42  1  0
 41 43  1  0
 15 19  2  0
 16 22  2  0
 12 17  1  6
 17 19  1  0
 17 20  1  0
 18 19  1  0
 18 22  1  0
 18 23  1  0
  9 10  1  0
  9 11  1  0
 10 12  1  0
 11  5  1  6
 33 34  1  0
 33 35  1  0
 34 36  1  0
 35 37  1  0
 36 42  1  6
 20 21  2  0
 21 22  1  0
M  CHG  2   2  -1  26  -1
M  END
>  <COMPND>  (197) 
    8629 

>  <AUTHOR>  (197) 
    GENERATED BY OPEN BABEL 3.1.1

>  <MASTER>  (197) 
        0    0    0    0    0    0    0    0   58    0   58    0

>  <minimizedAffinity>  (197) 
-5.82707

>  <CNNscore>  (197) 
0.3517636955

>  <CNNaffinity>  (197) 
3.8042144775

>  <CNN_VS>  (197) 
1.3381845951

>  <CNNaffinity_variance>  (197) 
0.8215754628

$$$$
198
     RDKit          3D

 43 45  0  0  0  0  0  0  0  0999 V2000
   21.6285   73.2188   -5.0405 P   0  0  2  0  0  0  0  0  0  0  0  0
   22.1235   72.5270   -6.4167 O   0  0  0  0  0  0  0  0  0  0  0  0
   22.1094   74.6242   -4.8290 O   0  0  0  0  0  0  0  0  0  0  0  0
   22.0478   72.1532   -3.8974 O   0  0  0  0  0  0  0  0  0  0  0  0
   22.2999   72.6309   -2.5875 C   0  0  0  0  0  0  0  0  0  0  0  0
   21.9625   71.2712   -0.6353 O   0  0  0  0  0  0  0  0  0  0  0  0
   19.2407   72.5179   -0.4669 O   0  0  0  0  0  0  0  0  0  0  0  0
   20.6481   73.9074    1.4106 O   0  0  0  0  0  0  0  0  0  0  0  0
   20.4764   73.1013   -0.8767 C   0  0  1  0  0  0  0  0  0  0  0  0
   21.3630   73.3534    0.3250 C   0  0  2  0  0  0  0  0  0  0  0  0
   21.2654   72.0430   -1.6376 C   0  0  1  0  0  0  0  0  0  0  0  0
   21.8927   71.9610    0.6234 C   0  0  2  0  0  0  0  0  0  0  0  0
   18.7192   73.1751    0.0210 H   0  0  0  0  0  0  0  0  0  0  0  0
   20.3319   74.7927    1.1717 H   0  0  0  0  0  0  0  0  0  0  0  0
   22.7894   70.1521    2.5986 O   0  0  0  0  0  0  0  0  0  0  0  0
   26.9323   72.1594    2.8170 O   0  0  0  0  0  0  0  0  0  0  0  0
   23.2012   71.9877    1.2137 N   0  0  0  0  0  0  0  0  0  0  0  0
   24.8516   71.1529    2.7056 N   0  0  0  0  0  0  0  0  0  0  0  0
   23.5513   71.0347    2.1984 C   0  0  0  0  0  0  0  0  0  0  0  0
   24.1217   72.9510    0.8153 C   0  0  0  0  0  0  0  0  0  0  0  0
   25.3573   73.0510    1.3097 C   0  0  0  0  0  0  0  0  0  0  0  0
   25.8025   72.0936    2.3427 C   0  0  0  0  0  0  0  0  0  0  0  0
   25.1176   70.4999    3.3930 H   0  0  0  0  0  0  0  0  0  0  0  0
   20.0213   73.0612   -5.1121 O   0  0  0  0  0  0  0  0  0  0  0  0
   19.0685   71.7784   -4.8682 P   0  0  2  0  0  0  0  0  0  0  0  0
   18.4731   72.0350   -3.3859 O   0  0  0  0  0  0  0  0  0  0  0  0
   19.7605   70.4569   -5.0374 O   0  0  0  0  0  0  0  0  0  0  0  0
   17.8136   72.0078   -5.8569 O   0  0  0  0  0  0  0  0  0  0  0  0
   15.5310   72.5044   -5.4574 O   0  0  0  0  0  0  0  0  0  0  0  0
   15.0870   69.7999   -8.5459 O   0  0  0  0  0  0  0  0  0  0  0  0
   14.6072   72.5907   -9.0250 O   0  0  0  0  0  0  0  0  0  0  0  0
   17.1247   69.3732   -6.5348 O   0  0  0  0  0  0  0  0  0  0  0  0
   15.7238   70.8536   -7.8182 C   0  0  1  0  0  0  0  0  0  0  0  0
   14.7485   72.0285   -7.7233 C   0  0  1  0  0  0  0  0  0  0  0  0
   16.0917   70.3465   -6.4250 C   0  0  2  0  0  0  0  0  0  0  0  0
   15.2528   73.0888   -6.7352 C   0  0  1  0  0  0  0  0  0  0  0  0
   16.5337   71.4875   -5.5071 C   0  0  1  0  0  0  0  0  0  0  0  0
   14.8512   70.1152   -9.4317 H   0  0  0  0  0  0  0  0  0  0  0  0
   14.2886   71.9108   -9.6393 H   0  0  0  0  0  0  0  0  0  0  0  0
   16.8326   68.6561   -7.1181 H   0  0  0  0  0  0  0  0  0  0  0  0
   12.9573   73.7221   -6.9309 O   0  0  0  0  0  0  0  0  0  0  0  0
   14.2230   74.1930   -6.5061 C   0  0  0  0  0  0  0  0  0  0  0  0
   12.2918   74.4143   -6.7907 H   0  0  0  0  0  0  0  0  0  0  0  0
 25 28  1  0
 25 24  1  0
 25 26  1  1
 25 27  2  0
  1  4  1  0
  1 24  1  0
  1  2  1  6
  1  3  2  0
  6 11  1  0
  6 12  1  0
 29 36  1  0
 29 37  1  0
  9  7  1  1
  7 13  1  0
 10  8  1  1
  8 14  1  0
 37 28  1  6
  4  5  1  0
 33 30  1  6
 30 38  1  0
 34 31  1  6
 31 39  1  0
 35 32  1  6
 32 40  1  0
 41 42  1  0
 41 43  1  0
 15 19  2  0
 16 22  2  0
 12 17  1  6
 17 19  1  0
 17 20  1  0
 18 19  1  0
 18 22  1  0
 18 23  1  0
  9 10  1  0
  9 11  1  0
 10 12  1  0
 11  5  1  6
 33 34  1  0
 33 35  1  0
 34 36  1  0
 35 37  1  0
 36 42  1  1
 20 21  2  0
 21 22  1  0
M  CHG  2   2  -1  26  -1
M  END
>  <COMPND>  (198) 
    8629 

>  <AUTHOR>  (198) 
    GENERATED BY OPEN BABEL 3.1.1

>  <MASTER>  (198) 
        0    0    0    0    0    0    0    0   58    0   58    0

>  <minimizedAffinity>  (198) 
-6.82169

>  <CNNscore>  (198) 
0.3359432220

>  <CNNaffinity>  (198) 
4.0712108612

>  <CNN_VS>  (198) 
1.3676956892

>  <CNNaffinity_variance>  (198) 
0.0498942509

$$$$
199
     RDKit          3D

 43 45  0  0  0  0  0  0  0  0999 V2000
   17.5858   70.9225   -4.2128 P   0  0  2  0  0  0  0  0  0  0  0  0
   16.8685   72.2943   -4.6831 O   0  0  0  0  0  0  0  0  0  0  0  0
   19.0519   71.0430   -3.9173 O   0  0  0  0  0  0  0  0  0  0  0  0
   17.1864   69.8602   -5.3660 O   0  0  0  0  0  0  0  0  0  0  0  0
   15.8424   69.8210   -5.8130 C   0  0  0  0  0  0  0  0  0  0  0  0
   14.8132   70.5252   -7.8670 O   0  0  0  0  0  0  0  0  0  0  0  0
   17.2225   69.3906   -9.2450 O   0  0  0  0  0  0  0  0  0  0  0  0
   17.7526   72.0656   -9.2271 O   0  0  0  0  0  0  0  0  0  0  0  0
   17.1346   70.0652   -7.9910 C   0  0  1  0  0  0  0  0  0  0  0  0
   16.9234   71.5494   -8.2060 C   0  0  2  0  0  0  0  0  0  0  0  0
   15.8279   69.6510   -7.3260 C   0  0  1  0  0  0  0  0  0  0  0  0
   15.4483   71.6090   -8.5647 C   0  0  2  0  0  0  0  0  0  0  0  0
   18.0493   69.6391   -9.6884 H   0  0  0  0  0  0  0  0  0  0  0  0
   18.6806   72.0056   -8.9514 H   0  0  0  0  0  0  0  0  0  0  0  0
   15.4794   73.9788  -10.1014 O   0  0  0  0  0  0  0  0  0  0  0  0
   13.0697   76.2885   -6.9234 O   0  0  0  0  0  0  0  0  0  0  0  0
   14.8365   72.8443   -8.1632 N   0  0  0  0  0  0  0  0  0  0  0  0
   14.2794   75.1269   -8.5178 N   0  0  0  0  0  0  0  0  0  0  0  0
   14.9103   73.9763   -9.0078 C   0  0  0  0  0  0  0  0  0  0  0  0
   14.1722   72.9244   -6.9441 C   0  0  0  0  0  0  0  0  0  0  0  0
   13.5768   74.0295   -6.4907 C   0  0  0  0  0  0  0  0  0  0  0  0
   13.6077   75.2565   -7.3125 C   0  0  0  0  0  0  0  0  0  0  0  0
   14.3182   75.9280   -9.0891 H   0  0  0  0  0  0  0  0  0  0  0  0
   16.6829   70.4522   -2.9571 O   0  0  0  0  0  0  0  0  0  0  0  0
   16.8490   70.7183   -1.3714 P   0  0  2  0  0  0  0  0  0  0  0  0
   16.6574   72.3195   -1.2418 O   0  0  0  0  0  0  0  0  0  0  0  0
   18.1329   70.1993   -0.7915 O   0  0  0  0  0  0  0  0  0  0  0  0
   15.5157   70.0934   -0.7105 O   0  0  0  0  0  0  0  0  0  0  0  0
   15.1458   68.1841    0.6439 O   0  0  0  0  0  0  0  0  0  0  0  0
   11.8155   67.9262   -1.7837 O   0  0  0  0  0  0  0  0  0  0  0  0
   11.5135   68.7296    0.9570 O   0  0  0  0  0  0  0  0  0  0  0  0
   14.3506   68.7728   -2.8954 O   0  0  0  0  0  0  0  0  0  0  0  0
   12.8325   68.5961   -1.0338 C   0  0  1  0  0  0  0  0  0  0  0  0
   12.7112   68.1661    0.4295 C   0  0  1  0  0  0  0  0  0  0  0  0
   14.2006   68.2131   -1.5951 C   0  0  2  0  0  0  0  0  0  0  0  0
   13.9250   68.6304    1.2458 C   0  0  1  0  0  0  0  0  0  0  0  0
   15.3362   68.6798   -0.6827 C   0  0  1  0  0  0  0  0  0  0  0  0
   10.9443   68.1655   -1.4326 H   0  0  0  0  0  0  0  0  0  0  0  0
   10.7549   68.4290    0.4324 H   0  0  0  0  0  0  0  0  0  0  0  0
   13.6259   68.4696   -3.4634 H   0  0  0  0  0  0  0  0  0  0  0  0
   12.9177   67.0632    2.7419 O   0  0  0  0  0  0  0  0  0  0  0  0
   13.9017   68.0785    2.6695 C   0  0  0  0  0  0  0  0  0  0  0  0
   12.8918   66.7025    3.6424 H   0  0  0  0  0  0  0  0  0  0  0  0
 25 28  1  0
 25 24  1  0
 25 26  1  6
 25 27  2  0
  1  4  1  0
  1 24  1  0
  1  2  1  6
  1  3  2  0
  6 11  1  0
  6 12  1  0
 29 36  1  0
 29 37  1  0
  9  7  1  6
  7 13  1  0
 10  8  1  6
  8 14  1  0
 37 28  1  1
  4  5  1  0
 33 30  1  6
 30 38  1  0
 34 31  1  1
 31 39  1  0
 35 32  1  6
 32 40  1  0
 41 42  1  0
 41 43  1  0
 15 19  2  0
 16 22  2  0
 12 17  1  1
 17 19  1  0
 17 20  1  0
 18 19  1  0
 18 22  1  0
 18 23  1  0
  9 10  1  0
  9 11  1  0
 10 12  1  0
 11  5  1  1
 33 34  1  0
 33 35  1  0
 34 36  1  0
 35 37  1  0
 36 42  1  1
 20 21  2  0
 21 22  1  0
M  CHG  2   2  -1  26  -1
M  END
>  <COMPND>  (199) 
    8629 

>  <AUTHOR>  (199) 
    GENERATED BY OPEN BABEL 3.1.1

>  <MASTER>  (199) 
        0    0    0    0    0    0    0    0   58    0   58    0

>  <minimizedAffinity>  (199) 
-6.38680

>  <CNNscore>  (199) 
0.3350631595

>  <CNNaffinity>  (199) 
3.8174965382

>  <CNN_VS>  (199) 
1.2791024446

>  <CNNaffinity_variance>  (199) 
0.1127571315

$$$$
200
     RDKit          3D

 43 45  0  0  0  0  0  0  0  0999 V2000
   22.6808   73.8820   -4.0413 P   0  0  2  0  0  0  0  0  0  0  0  0
   23.8129   72.8875   -4.6299 O   0  0  0  0  0  0  0  0  0  0  0  0
   22.9479   75.3431   -4.2541 O   0  0  0  0  0  0  0  0  0  0  0  0
   22.5162   73.4148   -2.5010 O   0  0  0  0  0  0  0  0  0  0  0  0
   21.8606   74.2865   -1.5964 C   0  0  0  0  0  0  0  0  0  0  0  0
   21.6237   72.4462   -0.0698 O   0  0  0  0  0  0  0  0  0  0  0  0
   18.9869   73.6566    0.6868 O   0  0  0  0  0  0  0  0  0  0  0  0
   20.6094   74.4391    2.7342 O   0  0  0  0  0  0  0  0  0  0  0  0
   20.2101   74.3035    0.3397 C   0  0  1  0  0  0  0  0  0  0  0  0
   21.2046   74.1926    1.4765 C   0  0  2  0  0  0  0  0  0  0  0  0
   20.8824   73.4810   -0.7524 C   0  0  1  0  0  0  0  0  0  0  0  0
   21.6914   72.7609    1.3307 C   0  0  2  0  0  0  0  0  0  0  0  0
   18.5392   74.1639    1.3826 H   0  0  0  0  0  0  0  0  0  0  0  0
   20.3163   75.3626    2.7779 H   0  0  0  0  0  0  0  0  0  0  0  0
   22.7144   70.3840    2.4629 O   0  0  0  0  0  0  0  0  0  0  0  0
   26.8975   72.2353    3.0249 O   0  0  0  0  0  0  0  0  0  0  0  0
   23.0444   72.5938    1.7812 N   0  0  0  0  0  0  0  0  0  0  0  0
   24.7965   71.3077    2.7416 N   0  0  0  0  0  0  0  0  0  0  0  0
   23.4568   71.3598    2.3358 C   0  0  0  0  0  0  0  0  0  0  0  0
   23.9465   73.6464    1.6708 C   0  0  0  0  0  0  0  0  0  0  0  0
   25.2203   73.5810    2.0638 C   0  0  0  0  0  0  0  0  0  0  0  0
   25.7314   72.3270    2.6539 C   0  0  0  0  0  0  0  0  0  0  0  0
   25.1061   70.4579    3.1313 H   0  0  0  0  0  0  0  0  0  0  0  0
   21.3245   73.3384   -4.7327 O   0  0  0  0  0  0  0  0  0  0  0  0
   21.0167   71.9687   -5.5339 P   0  0  2  0  0  0  0  0  0  0  0  0
   21.3559   70.8190   -4.4473 O   0  0  0  0  0  0  0  0  0  0  0  0
   21.7608   71.8339   -6.8308 O   0  0  0  0  0  0  0  0  0  0  0  0
   19.4095   71.9320   -5.6779 O   0  0  0  0  0  0  0  0  0  0  0  0
   17.8254   70.1826   -5.4617 O   0  0  0  0  0  0  0  0  0  0  0  0
   16.2019   72.1448   -8.7121 O   0  0  0  0  0  0  0  0  0  0  0  0
   14.9067   72.3248   -6.1551 O   0  0  0  0  0  0  0  0  0  0  0  0
   19.0751   71.8945   -8.4639 O   0  0  0  0  0  0  0  0  0  0  0  0
   16.8897   72.0421   -7.4623 C   0  0  1  0  0  0  0  0  0  0  0  0
   15.9457   71.3945   -6.4473 C   0  0  1  0  0  0  0  0  0  0  0  0
   18.1431   71.1896   -7.6509 C   0  0  2  0  0  0  0  0  0  0  0  0
   16.6931   71.0077   -5.1640 C   0  0  1  0  0  0  0  0  0  0  0  0
   18.7817   70.8200   -6.3109 C   0  0  1  0  0  0  0  0  0  0  0  0
   15.4053   72.6853   -8.5994 H   0  0  0  0  0  0  0  0  0  0  0  0
   14.4430   72.5611   -6.9739 H   0  0  0  0  0  0  0  0  0  0  0  0
   18.6590   72.1224   -9.3093 H   0  0  0  0  0  0  0  0  0  0  0  0
   16.5945   69.8113   -3.0981 O   0  0  0  0  0  0  0  0  0  0  0  0
   15.8072   70.2192   -4.2018 C   0  0  0  0  0  0  0  0  0  0  0  0
   16.0437   69.3085   -2.4771 H   0  0  0  0  0  0  0  0  0  0  0  0
 25 28  1  0
 25 24  1  0
 25 26  1  1
 25 27  2  0
  1  4  1  0
  1 24  1  0
  1  2  1  6
  1  3  2  0
  6 11  1  0
  6 12  1  0
 29 36  1  0
 29 37  1  0
  9  7  1  1
  7 13  1  0
 10  8  1  1
  8 14  1  0
 37 28  1  1
  4  5  1  0
 33 30  1  6
 30 38  1  0
 34 31  1  1
 31 39  1  0
 35 32  1  6
 32 40  1  0
 41 42  1  0
 41 43  1  0
 15 19  2  0
 16 22  2  0
 12 17  1  6
 17 19  1  0
 17 20  1  0
 18 19  1  0
 18 22  1  0
 18 23  1  0
  9 10  1  0
  9 11  1  0
 10 12  1  0
 11  5  1  1
 33 34  1  0
 33 35  1  0
 34 36  1  0
 35 37  1  0
 36 42  1  1
 20 21  2  0
 21 22  1  0
M  CHG  2   2  -1  26  -1
M  END
