1
     RDKit          3D

 43 45  0  0  0  0  0  0  0  0999 V2000
   22.6873   73.8894   -4.1852 P   0  0  2  0  0  0  0  0  0  0  0  0
   23.0445   75.4126   -4.5988 O   0  0  0  0  0  0  0  0  0  0  0  0
   22.7378   72.8987   -5.3112 O   0  0  0  0  0  0  0  0  0  0  0  0
   21.2649   74.0167   -3.4246 O   0  0  0  0  0  0  0  0  0  0  0  0
   20.0787   73.9621   -4.1956 C   0  0  0  0  0  0  0  0  0  0  0  0
   18.3146   72.4085   -4.6978 O   0  0  0  0  0  0  0  0  0  0  0  0
   19.1101   70.9797   -2.1843 O   0  0  0  0  0  0  0  0  0  0  0  0
   20.2668   69.4559   -4.1275 O   0  0  0  0  0  0  0  0  0  0  0  0
   19.9307   71.6522   -3.1398 C   0  0  1  0  0  0  0  0  0  0  0  0
   20.0515   70.8244   -4.4018 C   0  0  2  0  0  0  0  0  0  0  0  0
   19.1709   72.8760   -3.6330 C   0  0  1  0  0  0  0  0  0  0  0  0
   18.7154   71.0823   -5.0772 C   0  0  2  0  0  0  0  0  0  0  0  0
   19.5745   70.1940   -1.8547 H   0  0  0  0  0  0  0  0  0  0  0  0
   21.1301   69.3441   -3.6982 H   0  0  0  0  0  0  0  0  0  0  0  0
   16.6355   70.1753   -6.7589 O   0  0  0  0  0  0  0  0  0  0  0  0
   19.1602   70.8568  -10.5543 O   0  0  0  0  0  0  0  0  0  0  0  0
   18.8024   71.0123   -6.5084 N   0  0  0  0  0  0  0  0  0  0  0  0
   17.8953   70.5147   -8.6476 N   0  0  0  0  0  0  0  0  0  0  0  0
   17.7001   70.5415   -7.2604 C   0  0  0  0  0  0  0  0  0  0  0  0
   19.9681   71.4087   -7.1527 C   0  0  0  0  0  0  0  0  0  0  0  0
   20.1392   71.3775   -8.4757 C   0  0  0  0  0  0  0  0  0  0  0  0
   19.0362   70.8978   -9.3340 C   0  0  0  0  0  0  0  0  0  0  0  0
   17.1426   70.1887   -9.1920 H   0  0  0  0  0  0  0  0  0  0  0  0
   23.7194   73.5897   -2.9778 O   0  0  0  0  0  0  0  0  0  0  0  0
   23.7769   72.3807   -1.9061 P   0  0  2  0  0  0  0  0  0  0  0  0
   25.3350   72.3484   -1.4682 O   0  0  0  0  0  0  0  0  0  0  0  0
   23.2531   71.0727   -2.4245 O   0  0  0  0  0  0  0  0  0  0  0  0
   23.0012   72.9459   -0.6094 O   0  0  0  0  0  0  0  0  0  0  0  0
   22.3645   71.3446    1.0153 O   0  0  0  0  0  0  0  0  0  0  0  0
   20.2359   74.6695    2.2327 O   0  0  0  0  0  0  0  0  0  0  0  0
   20.4217   73.9861   -0.6015 O   0  0  0  0  0  0  0  0  0  0  0  0
   22.6229   73.8552    3.6785 O   0  0  0  0  0  0  0  0  0  0  0  0
   21.3316   73.9660    1.6474 C   0  0  2  0  0  0  0  0  0  0  0  0
   20.8335   73.1369    0.4633 C   0  0  2  0  0  0  0  0  0  0  0  0
   21.9352   73.0550    2.7187 C   0  0  1  0  0  0  0  0  0  0  0  0
   21.9272   72.1962   -0.0444 C   0  0  1  0  0  0  0  0  0  0  0  0
   22.9233   72.0622    2.1134 C   0  0  1  0  0  0  0  0  0  0  0  0
   19.8364   75.2550    1.5702 H   0  0  0  0  0  0  0  0  0  0  0  0
   19.7280   74.5860   -0.2863 H   0  0  0  0  0  0  0  0  0  0  0  0
   22.0051   74.4916    4.0711 H   0  0  0  0  0  0  0  0  0  0  0  0
   23.0667   69.7583    2.5295 O   0  0  0  0  0  0  0  0  0  0  0  0
   23.6382   71.1606    4.2342 O   0  0  0  0  0  0  0  0  0  0  0  0
   23.2523   70.9795    3.0891 C   0  0  0  0  0  0  0  0  0  0  0  0
  1  4  1  0
  1 24  1  0
  1  2  1  6
  1  3  2  0
 25 28  1  0
 25 24  1  0
 25 26  1  1
 25 27  2  0
  6 11  1  0
  6 12  1  0
 29 36  1  0
 29 37  1  0
  9  7  1  1
  7 13  1  0
 10  8  1  1
  8 14  1  0
  4  5  1  0
 36 28  1  1
 33 30  1  1
 30 38  1  0
 34 31  1  6
 31 39  1  0
 35 32  1  1
 32 40  1  0
 41 43  1  0
 15 19  2  0
 42 43  2  0
 16 22  2  0
 12 17  1  6
 17 19  1  0
 17 20  1  0
 18 19  1  0
 18 22  1  0
 18 23  1  0
  9 10  1  0
  9 11  1  0
 10 12  1  0
 11  5  1  6
 33 34  1  0
 33 35  1  0
 34 36  1  0
 35 37  1  0
 37 43  1  1
 20 21  2  0
 21 22  1  0
M  CHG  3   2  -1  26  -1  41  -1
M  END
>  <COMPND>  (1) 
    udp_gluA.pdb 

>  <AUTHOR>  (1) 
    GENERATED BY OPEN BABEL 3.1.1

>  <MASTER>  (1) 
        0    0    0    0    0    0    0    0   56    0   56    0

>  <minimizedAffinity>  (1) 
-7.01886

>  <CNNscore>  (1) 
0.7285934687

>  <CNNaffinity>  (1) 
4.4227738380

>  <CNN_VS>  (1) 
3.2224042416

>  <CNNaffinity_variance>  (1) 
0.0071746139

$$$$
2
     RDKit          3D

 43 45  0  0  0  0  0  0  0  0999 V2000
   20.8287   71.7531   -1.0562 P   0  0  2  0  0  0  0  0  0  0  0  0
   21.5103   70.8682    0.1148 O   0  0  0  0  0  0  0  0  0  0  0  0
   19.5581   72.4495   -0.6659 O   0  0  0  0  0  0  0  0  0  0  0  0
   20.7134   70.7267   -2.3016 O   0  0  0  0  0  0  0  0  0  0  0  0
   20.0094   71.1425   -3.4575 C   0  0  0  0  0  0  0  0  0  0  0  0
   20.5266   70.4819   -5.7100 O   0  0  0  0  0  0  0  0  0  0  0  0
   22.3423   72.8668   -5.7947 O   0  0  0  0  0  0  0  0  0  0  0  0
   20.1385   73.7478   -7.1374 O   0  0  0  0  0  0  0  0  0  0  0  0
   21.0790   72.7154   -5.1470 C   0  0  1  0  0  0  0  0  0  0  0  0
   19.9608   72.7367   -6.1675 C   0  0  2  0  0  0  0  0  0  0  0  0
   20.9936   71.2931   -4.6104 C   0  0  1  0  0  0  0  0  0  0  0  0
   20.0456   71.3392   -6.7573 C   0  0  2  0  0  0  0  0  0  0  0  0
   22.4201   73.7680   -6.1459 H   0  0  0  0  0  0  0  0  0  0  0  0
   20.0756   74.6180   -6.7125 H   0  0  0  0  0  0  0  0  0  0  0  0
   19.4189   70.7634   -9.4503 O   0  0  0  0  0  0  0  0  0  0  0  0
   15.1227   69.4914   -8.3692 O   0  0  0  0  0  0  0  0  0  0  0  0
   18.7708   70.8562   -7.2076 N   0  0  0  0  0  0  0  0  0  0  0  0
   17.2794   70.1314   -8.9094 N   0  0  0  0  0  0  0  0  0  0  0  0
   18.5593   70.5983   -8.5826 C   0  0  0  0  0  0  0  0  0  0  0  0
   17.7478   70.6414   -6.2921 C   0  0  0  0  0  0  0  0  0  0  0  0
   16.5330   70.1960   -6.6186 C   0  0  0  0  0  0  0  0  0  0  0  0
   16.2295   69.9029   -8.0348 C   0  0  0  0  0  0  0  0  0  0  0  0
   17.1077   69.9467   -9.8611 H   0  0  0  0  0  0  0  0  0  0  0  0
   22.0261   72.7403   -1.5086 O   0  0  0  0  0  0  0  0  0  0  0  0
   23.5712   72.4365   -1.8747 P   0  0  2  0  0  0  0  0  0  0  0  0
   24.0254   73.7597   -2.6890 O   0  0  0  0  0  0  0  0  0  0  0  0
   23.7865   71.1493   -2.6169 O   0  0  0  0  0  0  0  0  0  0  0  0
   24.3527   72.5364   -0.4670 O   0  0  0  0  0  0  0  0  0  0  0  0
   23.4638   72.6199    1.7267 O   0  0  0  0  0  0  0  0  0  0  0  0
   26.9346   74.8221    2.1416 O   0  0  0  0  0  0  0  0  0  0  0  0
   25.2385   75.1607   -0.2127 O   0  0  0  0  0  0  0  0  0  0  0  0
   26.8003   72.1037    3.1632 O   0  0  0  0  0  0  0  0  0  0  0  0
   26.0966   73.7995    1.6030 C   0  0  2  0  0  0  0  0  0  0  0  0
   24.8670   74.4348    0.9534 C   0  0  2  0  0  0  0  0  0  0  0  0
   25.6763   72.8790    2.7510 C   0  0  1  0  0  0  0  0  0  0  0  0
   23.8387   73.3696    0.5705 C   0  0  1  0  0  0  0  0  0  0  0  0
   24.5596   71.9306    2.3243 C   0  0  1  0  0  0  0  0  0  0  0  0
   27.2141   75.4194    1.4301 H   0  0  0  0  0  0  0  0  0  0  0  0
   25.8911   75.8382    0.0228 H   0  0  0  0  0  0  0  0  0  0  0  0
   27.5183   72.6955    3.4372 H   0  0  0  0  0  0  0  0  0  0  0  0
   22.5962   71.4864    3.5281 O   0  0  0  0  0  0  0  0  0  0  0  0
   24.5414   70.6364    4.3605 O   0  0  0  0  0  0  0  0  0  0  0  0
   23.9358   71.2763    3.5139 C   0  0  0  0  0  0  0  0  0  0  0  0
  1  4  1  0
  1 24  1  0
  1  2  1  1
  1  3  2  0
 25 28  1  0
 25 24  1  0
 25 26  1  6
 25 27  2  0
  6 11  1  0
  6 12  1  0
 29 36  1  0
 29 37  1  0
  9  7  1  6
  7 13  1  0
 10  8  1  6
  8 14  1  0
  4  5  1  0
 36 28  1  6
 33 30  1  1
 30 38  1  0
 34 31  1  6
 31 39  1  0
 35 32  1  6
 32 40  1  0
 41 43  1  0
 15 19  2  0
 42 43  2  0
 16 22  2  0
 12 17  1  1
 17 19  1  0
 17 20  1  0
 18 19  1  0
 18 22  1  0
 18 23  1  0
  9 10  1  0
  9 11  1  0
 10 12  1  0
 11  5  1  1
 33 34  1  0
 33 35  1  0
 34 36  1  0
 35 37  1  0
 37 43  1  1
 20 21  2  0
 21 22  1  0
M  CHG  3   2  -1  26  -1  41  -1
M  END
>  <COMPND>  (2) 
    udp_gluA.pdb 

>  <AUTHOR>  (2) 
    GENERATED BY OPEN BABEL 3.1.1

>  <MASTER>  (2) 
        0    0    0    0    0    0    0    0   56    0   56    0

>  <minimizedAffinity>  (2) 
-7.37670

>  <CNNscore>  (2) 
0.7273280621

>  <CNNaffinity>  (2) 
4.5494642258

>  <CNN_VS>  (2) 
3.3089530468

>  <CNNaffinity_variance>  (2) 
0.0693903863

$$$$
3
     RDKit          3D

 43 45  0  0  0  0  0  0  0  0999 V2000
   22.8344   71.8689   -2.8875 P   0  0  2  0  0  0  0  0  0  0  0  0
   23.6455   73.1268   -3.5030 O   0  0  0  0  0  0  0  0  0  0  0  0
   23.6859   70.8387   -2.2051 O   0  0  0  0  0  0  0  0  0  0  0  0
   21.9451   71.3349   -4.1292 O   0  0  0  0  0  0  0  0  0  0  0  0
   20.9166   72.1680   -4.6318 C   0  0  0  0  0  0  0  0  0  0  0  0
   20.7883   71.7622   -6.9975 O   0  0  0  0  0  0  0  0  0  0  0  0
   21.5553   74.6402   -7.3445 O   0  0  0  0  0  0  0  0  0  0  0  0
   18.8602   74.6879   -7.7571 O   0  0  0  0  0  0  0  0  0  0  0  0
   20.7309   74.0388   -6.3459 C   0  0  1  0  0  0  0  0  0  0  0  0
   19.3841   73.6694   -6.9308 C   0  0  2  0  0  0  0  0  0  0  0  0
   21.3179   72.6744   -6.0113 C   0  0  1  0  0  0  0  0  0  0  0  0
   19.7120   72.4019   -7.7015 C   0  0  2  0  0  0  0  0  0  0  0  0
   21.2000   75.5134   -7.5747 H   0  0  0  0  0  0  0  0  0  0  0  0
   18.6677   75.4730   -7.2200 H   0  0  0  0  0  0  0  0  0  0  0  0
   19.0792   70.8204   -9.9542 O   0  0  0  0  0  0  0  0  0  0  0  0
   15.4136   68.9745   -7.8565 O   0  0  0  0  0  0  0  0  0  0  0  0
   18.5978   71.4993   -7.7711 N   0  0  0  0  0  0  0  0  0  0  0  0
   17.2535   69.9033   -8.9077 N   0  0  0  0  0  0  0  0  0  0  0  0
   18.3682   70.7511   -8.9499 C   0  0  0  0  0  0  0  0  0  0  0  0
   17.7482   71.3608   -6.6803 C   0  0  0  0  0  0  0  0  0  0  0  0
   16.6897   70.5485   -6.6550 C   0  0  0  0  0  0  0  0  0  0  0  0
   16.3791   69.7321   -7.8467 C   0  0  0  0  0  0  0  0  0  0  0  0
   17.0721   69.3736   -9.7176 H   0  0  0  0  0  0  0  0  0  0  0  0
   21.7382   72.5760   -1.9329 O   0  0  0  0  0  0  0  0  0  0  0  0
   21.1398   72.1361   -0.4969 P   0  0  2  0  0  0  0  0  0  0  0  0
   20.6082   70.6306   -0.7632 O   0  0  0  0  0  0  0  0  0  0  0  0
   20.1004   73.0714    0.0497 O   0  0  0  0  0  0  0  0  0  0  0  0
   22.4351   71.9496    0.4465 O   0  0  0  0  0  0  0  0  0  0  0  0
   22.4804   73.1776    2.4711 O   0  0  0  0  0  0  0  0  0  0  0  0
   26.3985   71.9016    2.1740 O   0  0  0  0  0  0  0  0  0  0  0  0
   24.9783   72.8839   -0.1824 O   0  0  0  0  0  0  0  0  0  0  0  0
   24.5837   70.6175    4.0472 O   0  0  0  0  0  0  0  0  0  0  0  0
   24.9842   71.8193    1.9977 C   0  0  2  0  0  0  0  0  0  0  0  0
   24.5041   73.0005    1.1541 C   0  0  2  0  0  0  0  0  0  0  0  0
   24.3323   71.8538    3.3818 C   0  0  1  0  0  0  0  0  0  0  0  0
   22.9767   73.0748    1.1359 C   0  0  1  0  0  0  0  0  0  0  0  0
   22.8231   72.0558    3.2818 C   0  0  1  0  0  0  0  0  0  0  0  0
   26.8343   71.8814    1.3074 H   0  0  0  0  0  0  0  0  0  0  0  0
   25.9468   72.8360   -0.1783 H   0  0  0  0  0  0  0  0  0  0  0  0
   25.5409   70.4768    4.1172 H   0  0  0  0  0  0  0  0  0  0  0  0
   23.1865   72.9930    5.4011 O   0  0  0  0  0  0  0  0  0  0  0  0
   21.0888   72.2209    4.9511 O   0  0  0  0  0  0  0  0  0  0  0  0
   22.2467   72.4151    4.6126 C   0  0  0  0  0  0  0  0  0  0  0  0
  1  4  1  0
  1 24  1  0
  1  2  1  6
  1  3  2  0
 25 28  1  0
 25 24  1  0
 25 26  1  6
 25 27  2  0
  6 11  1  0
  6 12  1  0
 29 36  1  0
 29 37  1  0
  9  7  1  6
  7 13  1  0
 10  8  1  6
  8 14  1  0
  4  5  1  0
 36 28  1  1
 33 30  1  1
 30 38  1  0
 34 31  1  6
 31 39  1  0
 35 32  1  6
 32 40  1  0
 41 43  1  0
 15 19  2  0
 42 43  2  0
 16 22  2  0
 12 17  1  1
 17 19  1  0
 17 20  1  0
 18 19  1  0
 18 22  1  0
 18 23  1  0
  9 10  1  0
  9 11  1  0
 10 12  1  0
 11  5  1  1
 33 34  1  0
 33 35  1  0
 34 36  1  0
 35 37  1  0
 37 43  1  1
 20 21  2  0
 21 22  1  0
M  CHG  3   2  -1  26  -1  41  -1
M  END
>  <COMPND>  (3) 
    udp_gluA.pdb 

>  <AUTHOR>  (3) 
    GENERATED BY OPEN BABEL 3.1.1

>  <MASTER>  (3) 
        0    0    0    0    0    0    0    0   56    0   56    0

>  <minimizedAffinity>  (3) 
-7.27757

>  <CNNscore>  (3) 
0.7201538086

>  <CNNaffinity>  (3) 
4.3292703629

>  <CNN_VS>  (3) 
3.1177406311

>  <CNNaffinity_variance>  (3) 
0.0552451387

$$$$
4
     RDKit          3D

 43 45  0  0  0  0  0  0  0  0999 V2000
   23.0129   71.8778   -2.9611 P   0  0  2  0  0  0  0  0  0  0  0  0
   24.4599   72.0697   -3.6597 O   0  0  0  0  0  0  0  0  0  0  0  0
   22.4523   70.4878   -3.0364 O   0  0  0  0  0  0  0  0  0  0  0  0
   22.1034   73.0391   -3.6259 O   0  0  0  0  0  0  0  0  0  0  0  0
   21.0318   72.6590   -4.4696 C   0  0  0  0  0  0  0  0  0  0  0  0
   20.9200   71.9400   -6.7605 O   0  0  0  0  0  0  0  0  0  0  0  0
   21.4659   74.7970   -7.4893 O   0  0  0  0  0  0  0  0  0  0  0  0
   18.7724   74.5913   -7.8618 O   0  0  0  0  0  0  0  0  0  0  0  0
   20.6952   74.2716   -6.4083 C   0  0  1  0  0  0  0  0  0  0  0  0
   19.3766   73.7307   -6.9190 C   0  0  2  0  0  0  0  0  0  0  0  0
   21.3854   73.0096   -5.9092 C   0  0  1  0  0  0  0  0  0  0  0  0
   19.7942   72.4013   -7.5242 C   0  0  2  0  0  0  0  0  0  0  0  0
   21.0444   75.6041   -7.8249 H   0  0  0  0  0  0  0  0  0  0  0  0
   18.5246   75.4233   -7.4278 H   0  0  0  0  0  0  0  0  0  0  0  0
   18.9571   70.8167   -9.7071 O   0  0  0  0  0  0  0  0  0  0  0  0
   15.7814   68.6583   -7.1576 O   0  0  0  0  0  0  0  0  0  0  0  0
   18.7509   71.4174   -7.4587 N   0  0  0  0  0  0  0  0  0  0  0  0
   17.3755   69.7439   -8.4355 N   0  0  0  0  0  0  0  0  0  0  0  0
   18.4071   70.6752   -8.6133 C   0  0  0  0  0  0  0  0  0  0  0  0
   18.0818   71.1948   -6.2614 C   0  0  0  0  0  0  0  0  0  0  0  0
   17.1006   70.3035   -6.1073 C   0  0  0  0  0  0  0  0  0  0  0  0
   16.6800   69.4872   -7.2650 C   0  0  0  0  0  0  0  0  0  0  0  0
   17.1172   69.2166   -9.2257 H   0  0  0  0  0  0  0  0  0  0  0  0
   23.2594   72.4240   -1.4598 O   0  0  0  0  0  0  0  0  0  0  0  0
   22.2393   72.6213   -0.2213 P   0  0  2  0  0  0  0  0  0  0  0  0
   21.7395   71.1134    0.0900 O   0  0  0  0  0  0  0  0  0  0  0  0
   21.1304   73.5980   -0.4864 O   0  0  0  0  0  0  0  0  0  0  0  0
   23.1834   73.0036    1.0297 O   0  0  0  0  0  0  0  0  0  0  0  0
   25.2950   72.1634    1.6962 O   0  0  0  0  0  0  0  0  0  0  0  0
   23.5294   72.9858    5.3395 O   0  0  0  0  0  0  0  0  0  0  0  0
   21.9889   71.7333    3.1965 O   0  0  0  0  0  0  0  0  0  0  0  0
   25.5783   74.7542    4.2787 O   0  0  0  0  0  0  0  0  0  0  0  0
   23.7941   73.1691    3.9487 C   0  0  2  0  0  0  0  0  0  0  0  0
   23.4012   71.9059    3.1822 C   0  0  2  0  0  0  0  0  0  0  0  0
   25.2899   73.4476    3.7847 C   0  0  1  0  0  0  0  0  0  0  0  0
   23.8798   71.9753    1.7314 C   0  0  1  0  0  0  0  0  0  0  0  0
   25.7127   73.3754    2.3203 C   0  0  1  0  0  0  0  0  0  0  0  0
   22.5845   72.8073    5.4683 H   0  0  0  0  0  0  0  0  0  0  0  0
   21.6783   71.6887    4.1141 H   0  0  0  0  0  0  0  0  0  0  0  0
   25.3138   74.8135    5.2100 H   0  0  0  0  0  0  0  0  0  0  0  0
   27.6993   74.5323    1.8550 O   0  0  0  0  0  0  0  0  0  0  0  0
   27.8826   72.3227    2.3871 O   0  0  0  0  0  0  0  0  0  0  0  0
   27.2009   73.3192    2.1999 C   0  0  0  0  0  0  0  0  0  0  0  0
  1  4  1  0
  1 24  1  0
  1  2  1  6
  1  3  2  0
 25 28  1  0
 25 24  1  0
 25 26  1  1
 25 27  2  0
  6 11  1  0
  6 12  1  0
 29 36  1  0
 29 37  1  0
  9  7  1  6
  7 13  1  0
 10  8  1  6
  8 14  1  0
  4  5  1  0
 36 28  1  1
 33 30  1  1
 30 38  1  0
 34 31  1  6
 31 39  1  0
 35 32  1  6
 32 40  1  0
 41 43  1  0
 15 19  2  0
 42 43  2  0
 16 22  2  0
 12 17  1  1
 17 19  1  0
 17 20  1  0
 18 19  1  0
 18 22  1  0
 18 23  1  0
  9 10  1  0
  9 11  1  0
 10 12  1  0
 11  5  1  1
 33 34  1  0
 33 35  1  0
 34 36  1  0
 35 37  1  0
 37 43  1  1
 20 21  2  0
 21 22  1  0
M  CHG  3   2  -1  26  -1  41  -1
M  END
>  <COMPND>  (4) 
    udp_gluA.pdb 

>  <AUTHOR>  (4) 
    GENERATED BY OPEN BABEL 3.1.1

>  <MASTER>  (4) 
        0    0    0    0    0    0    0    0   56    0   56    0

>  <minimizedAffinity>  (4) 
-6.71528

>  <CNNscore>  (4) 
0.7152318358

>  <CNNaffinity>  (4) 
4.3301606178

>  <CNN_VS>  (4) 
3.0970687866

>  <CNNaffinity_variance>  (4) 
0.0533475801

$$$$
5
     RDKit          3D

 43 45  0  0  0  0  0  0  0  0999 V2000
   21.1688   72.4318   -1.0702 P   0  0  2  0  0  0  0  0  0  0  0  0
   21.6058   70.8747   -1.0147 O   0  0  0  0  0  0  0  0  0  0  0  0
   20.5073   72.9490    0.1735 O   0  0  0  0  0  0  0  0  0  0  0  0
   20.2958   72.5421   -2.4280 O   0  0  0  0  0  0  0  0  0  0  0  0
   20.1658   71.3921   -3.2436 C   0  0  0  0  0  0  0  0  0  0  0  0
   20.7451   70.6010   -5.4382 O   0  0  0  0  0  0  0  0  0  0  0  0
   22.6043   72.9486   -5.5907 O   0  0  0  0  0  0  0  0  0  0  0  0
   20.4616   73.7895   -7.0530 O   0  0  0  0  0  0  0  0  0  0  0  0
   21.3179   72.8530   -4.9788 C   0  0  1  0  0  0  0  0  0  0  0  0
   20.2344   72.8360   -6.0362 C   0  0  2  0  0  0  0  0  0  0  0  0
   21.1898   71.4638   -4.3690 C   0  0  1  0  0  0  0  0  0  0  0  0
   20.3138   71.4071   -6.5461 C   0  0  2  0  0  0  0  0  0  0  0  0
   22.7094   73.8280   -5.9875 H   0  0  0  0  0  0  0  0  0  0  0  0
   20.4002   74.6826   -6.6782 H   0  0  0  0  0  0  0  0  0  0  0  0
   19.6901   70.9253   -9.2582 O   0  0  0  0  0  0  0  0  0  0  0  0
   15.4187   69.5399   -8.2190 O   0  0  0  0  0  0  0  0  0  0  0  0
   19.0463   70.9204   -7.0123 N   0  0  0  0  0  0  0  0  0  0  0  0
   17.5630   70.2367   -8.7381 N   0  0  0  0  0  0  0  0  0  0  0  0
   18.8357   70.7122   -8.3959 C   0  0  0  0  0  0  0  0  0  0  0  0
   18.0293   70.6531   -6.1038 C   0  0  0  0  0  0  0  0  0  0  0  0
   16.8214   70.2001   -6.4451 C   0  0  0  0  0  0  0  0  0  0  0  0
   16.5193   69.9568   -7.8709 C   0  0  0  0  0  0  0  0  0  0  0  0
   17.3920   70.0861   -9.6959 H   0  0  0  0  0  0  0  0  0  0  0  0
   22.5462   73.1816   -1.4619 O   0  0  0  0  0  0  0  0  0  0  0  0
   24.0528   72.9918   -0.9072 P   0  0  2  0  0  0  0  0  0  0  0  0
   24.6982   74.4665   -1.0778 O   0  0  0  0  0  0  0  0  0  0  0  0
   24.8249   71.8967   -1.5843 O   0  0  0  0  0  0  0  0  0  0  0  0
   23.8818   72.8041    0.6859 O   0  0  0  0  0  0  0  0  0  0  0  0
   25.7189   71.9395    1.9052 O   0  0  0  0  0  0  0  0  0  0  0  0
   22.6383   71.5372    4.6285 O   0  0  0  0  0  0  0  0  0  0  0  0
   22.2215   70.8782    1.8131 O   0  0  0  0  0  0  0  0  0  0  0  0
   24.5937   73.6655    4.9412 O   0  0  0  0  0  0  0  0  0  0  0  0
   23.3535   72.1390    3.5495 C   0  0  2  0  0  0  0  0  0  0  0  0
   23.4901   71.1361    2.4036 C   0  0  2  0  0  0  0  0  0  0  0  0
   24.7346   72.5473    4.0670 C   0  0  1  0  0  0  0  0  0  0  0  0
   24.4427   71.6606    1.3282 C   0  0  1  0  0  0  0  0  0  0  0  0
   25.6655   72.9373    2.9224 C   0  0  1  0  0  0  0  0  0  0  0  0
   21.7572   71.2694    4.3232 H   0  0  0  0  0  0  0  0  0  0  0  0
   21.6119   70.5454    2.4899 H   0  0  0  0  0  0  0  0  0  0  0  0
   24.0033   73.4305    5.6741 H   0  0  0  0  0  0  0  0  0  0  0  0
   27.6351   74.2040    3.0547 O   0  0  0  0  0  0  0  0  0  0  0  0
   27.6670   72.1296    4.0008 O   0  0  0  0  0  0  0  0  0  0  0  0
   27.0816   73.0131    3.3927 C   0  0  0  0  0  0  0  0  0  0  0  0
  1  4  1  0
  1 24  1  0
  1  2  1  1
  1  3  2  0
 25 28  1  0
 25 24  1  0
 25 26  1  1
 25 27  2  0
  6 11  1  0
  6 12  1  0
 29 36  1  0
 29 37  1  0
  9  7  1  6
  7 13  1  0
 10  8  1  6
  8 14  1  0
  4  5  1  0
 36 28  1  1
 33 30  1  1
 30 38  1  0
 34 31  1  6
 31 39  1  0
 35 32  1  1
 32 40  1  0
 41 43  1  0
 15 19  2  0
 42 43  2  0
 16 22  2  0
 12 17  1  1
 17 19  1  0
 17 20  1  0
 18 19  1  0
 18 22  1  0
 18 23  1  0
  9 10  1  0
  9 11  1  0
 10 12  1  0
 11  5  1  1
 33 34  1  0
 33 35  1  0
 34 36  1  0
 35 37  1  0
 37 43  1  1
 20 21  2  0
 21 22  1  0
M  CHG  3   2  -1  26  -1  41  -1
M  END
>  <COMPND>  (5) 
    udp_gluA.pdb 

>  <AUTHOR>  (5) 
    GENERATED BY OPEN BABEL 3.1.1

>  <MASTER>  (5) 
        0    0    0    0    0    0    0    0   56    0   56    0

>  <minimizedAffinity>  (5) 
-6.97744

>  <CNNscore>  (5) 
0.6786943078

>  <CNNaffinity>  (5) 
4.4780988693

>  <CNN_VS>  (5) 
3.0392601490

>  <CNNaffinity_variance>  (5) 
0.0536732897

$$$$
6
     RDKit          3D

 43 45  0  0  0  0  0  0  0  0999 V2000
   22.1918   73.3224   -4.1444 P   0  0  2  0  0  0  0  0  0  0  0  0
   22.7809   74.7987   -4.4483 O   0  0  0  0  0  0  0  0  0  0  0  0
   22.2970   72.3514   -5.2837 O   0  0  0  0  0  0  0  0  0  0  0  0
   20.6952   73.6060   -3.5988 O   0  0  0  0  0  0  0  0  0  0  0  0
   19.7854   74.2870   -4.4433 C   0  0  0  0  0  0  0  0  0  0  0  0
   17.7588   73.4978   -5.4668 O   0  0  0  0  0  0  0  0  0  0  0  0
   17.0955   72.3037   -2.7974 O   0  0  0  0  0  0  0  0  0  0  0  0
   18.0018   70.1509   -4.2045 O   0  0  0  0  0  0  0  0  0  0  0  0
   18.3639   72.4306   -3.4405 C   0  0  1  0  0  0  0  0  0  0  0  0
   18.4821   71.4280   -4.5688 C   0  0  2  0  0  0  0  0  0  0  0  0
   18.3804   73.7563   -4.1892 C   0  0  1  0  0  0  0  0  0  0  0  0
   17.6461   72.0785   -5.6577 C   0  0  2  0  0  0  0  0  0  0  0  0
   17.0611   71.4639   -2.3123 H   0  0  0  0  0  0  0  0  0  0  0  0
   18.5674   69.7789   -3.5090 H   0  0  0  0  0  0  0  0  0  0  0  0
   16.0786   72.2882   -7.9977 O   0  0  0  0  0  0  0  0  0  0  0  0
   19.5238   70.7769  -10.6604 O   0  0  0  0  0  0  0  0  0  0  0  0
   18.1085   71.7465   -6.9756 N   0  0  0  0  0  0  0  0  0  0  0  0
   17.7957   71.5343   -9.3215 N   0  0  0  0  0  0  0  0  0  0  0  0
   17.2408   71.8874   -8.0844 C   0  0  0  0  0  0  0  0  0  0  0  0
   19.4075   71.2890   -7.1600 C   0  0  0  0  0  0  0  0  0  0  0  0
   19.9223   70.9564   -8.3455 C   0  0  0  0  0  0  0  0  0  0  0  0
   19.0814   71.0739   -9.5548 C   0  0  0  0  0  0  0  0  0  0  0  0
   17.2100   71.6221  -10.1080 H   0  0  0  0  0  0  0  0  0  0  0  0
   22.9882   72.8818   -2.8085 O   0  0  0  0  0  0  0  0  0  0  0  0
   23.6375   71.4651   -2.3785 P   0  0  2  0  0  0  0  0  0  0  0  0
   25.0984   71.5013   -3.0746 O   0  0  0  0  0  0  0  0  0  0  0  0
   22.8066   70.2700   -2.7463 O   0  0  0  0  0  0  0  0  0  0  0  0
   23.9348   71.6135   -0.7999 O   0  0  0  0  0  0  0  0  0  0  0  0
   23.2674   73.2771    0.7482 O   0  0  0  0  0  0  0  0  0  0  0  0
   26.9848   72.2157    2.2052 O   0  0  0  0  0  0  0  0  0  0  0  0
   26.5558   72.5348   -0.6668 O   0  0  0  0  0  0  0  0  0  0  0  0
   24.5748   71.2885    3.5407 O   0  0  0  0  0  0  0  0  0  0  0  0
   25.7322   72.0061    1.5532 C   0  0  2  0  0  0  0  0  0  0  0  0
   25.6276   72.9275    0.3376 C   0  0  2  0  0  0  0  0  0  0  0  0
   24.6190   72.3190    2.5556 C   0  0  1  0  0  0  0  0  0  0  0  0
   24.2161   72.8995   -0.2503 C   0  0  1  0  0  0  0  0  0  0  0  0
   23.2579   72.3972    1.8701 C   0  0  1  0  0  0  0  0  0  0  0  0
   27.7074   72.0229    1.5873 H   0  0  0  0  0  0  0  0  0  0  0  0
   27.4536   72.5501   -0.3005 H   0  0  0  0  0  0  0  0  0  0  0  0
   25.4353   71.2282    3.9844 H   0  0  0  0  0  0  0  0  0  0  0  0
   21.8317   72.1295    3.7129 O   0  0  0  0  0  0  0  0  0  0  0  0
   21.8370   74.1668    2.6890 O   0  0  0  0  0  0  0  0  0  0  0  0
   22.2434   73.0177    2.7745 C   0  0  0  0  0  0  0  0  0  0  0  0
  1  4  1  0
  1 24  1  0
  1  2  1  6
  1  3  2  0
 25 28  1  0
 25 24  1  0
 25 26  1  6
 25 27  2  0
  6 11  1  0
  6 12  1  0
 29 36  1  0
 29 37  1  0
  9  7  1  6
  7 13  1  0
 10  8  1  1
  8 14  1  0
  4  5  1  0
 36 28  1  1
 33 30  1  1
 30 38  1  0
 34 31  1  6
 31 39  1  0
 35 32  1  1
 32 40  1  0
 41 43  1  0
 15 19  2  0
 42 43  2  0
 16 22  2  0
 12 17  1  6
 17 19  1  0
 17 20  1  0
 18 19  1  0
 18 22  1  0
 18 23  1  0
  9 10  1  0
  9 11  1  0
 10 12  1  0
 11  5  1  6
 33 34  1  0
 33 35  1  0
 34 36  1  0
 35 37  1  0
 37 43  1  1
 20 21  2  0
 21 22  1  0
M  CHG  3   2  -1  26  -1  41  -1
M  END
>  <COMPND>  (6) 
    udp_gluA.pdb 

>  <AUTHOR>  (6) 
    GENERATED BY OPEN BABEL 3.1.1

>  <MASTER>  (6) 
        0    0    0    0    0    0    0    0   56    0   56    0

>  <minimizedAffinity>  (6) 
-6.98032

>  <CNNscore>  (6) 
0.5464580655

>  <CNNaffinity>  (6) 
4.3604431152

>  <CNN_VS>  (6) 
2.3827993870

>  <CNNaffinity_variance>  (6) 
0.0119081149

$$$$
7
     RDKit          3D

 43 45  0  0  0  0  0  0  0  0999 V2000
   22.5081   73.2995   -3.9995 P   0  0  2  0  0  0  0  0  0  0  0  0
   22.4033   74.7212   -3.2337 O   0  0  0  0  0  0  0  0  0  0  0  0
   23.8996   72.8856   -4.3795 O   0  0  0  0  0  0  0  0  0  0  0  0
   21.4578   73.4385   -5.2224 O   0  0  0  0  0  0  0  0  0  0  0  0
   20.2505   72.7013   -5.1638 C   0  0  0  0  0  0  0  0  0  0  0  0
   19.1378   70.7871   -6.0995 O   0  0  0  0  0  0  0  0  0  0  0  0
   21.6583   70.3145   -7.6536 O   0  0  0  0  0  0  0  0  0  0  0  0
   20.0294   71.4841   -9.5015 O   0  0  0  0  0  0  0  0  0  0  0  0
   21.0387   71.5484   -7.2903 C   0  0  1  0  0  0  0  0  0  0  0  0
   19.8085   71.7873   -8.1399 C   0  0  2  0  0  0  0  0  0  0  0  0
   20.4387   71.3816   -5.9008 C   0  0  1  0  0  0  0  0  0  0  0  0
   18.7930   70.8616   -7.4919 C   0  0  2  0  0  0  0  0  0  0  0  0
   22.0489   70.3965   -8.5381 H   0  0  0  0  0  0  0  0  0  0  0  0
   20.6828   72.1010   -9.8682 H   0  0  0  0  0  0  0  0  0  0  0  0
   16.6237   69.3374   -8.4653 O   0  0  0  0  0  0  0  0  0  0  0  0
   13.6798   72.8416   -7.9191 O   0  0  0  0  0  0  0  0  0  0  0  0
   17.4490   71.3509   -7.6147 N   0  0  0  0  0  0  0  0  0  0  0  0
   15.1598   71.0845   -8.1933 N   0  0  0  0  0  0  0  0  0  0  0  0
   16.4324   70.5036   -8.1155 C   0  0  0  0  0  0  0  0  0  0  0  0
   17.1486   72.6548   -7.2398 C   0  0  0  0  0  0  0  0  0  0  0  0
   15.9306   73.1943   -7.3196 C   0  0  0  0  0  0  0  0  0  0  0  0
   14.8123   72.3764   -7.8332 C   0  0  0  0  0  0  0  0  0  0  0  0
   14.4361   70.5146   -8.5409 H   0  0  0  0  0  0  0  0  0  0  0  0
   21.7568   72.2865   -2.9885 O   0  0  0  0  0  0  0  0  0  0  0  0
   22.3255   71.3815   -1.7756 P   0  0  2  0  0  0  0  0  0  0  0  0
   23.1611   70.2237   -2.5382 O   0  0  0  0  0  0  0  0  0  0  0  0
   21.2678   70.8678   -0.8421 O   0  0  0  0  0  0  0  0  0  0  0  0
   23.4504   72.2995   -1.0725 O   0  0  0  0  0  0  0  0  0  0  0  0
   23.0314   72.2721    1.2583 O   0  0  0  0  0  0  0  0  0  0  0  0
   26.3811   74.6798    1.0346 O   0  0  0  0  0  0  0  0  0  0  0  0
   24.2180   74.9678   -0.9077 O   0  0  0  0  0  0  0  0  0  0  0  0
   26.6169   71.9341    1.9599 O   0  0  0  0  0  0  0  0  0  0  0  0
   25.5097   73.6196    0.6415 C   0  0  2  0  0  0  0  0  0  0  0  0
   24.1380   74.1912    0.2819 C   0  0  2  0  0  0  0  0  0  0  0  0
   25.3894   72.6462    1.8162 C   0  0  1  0  0  0  0  0  0  0  0  0
   23.1154   73.0725    0.0786 C   0  0  1  0  0  0  0  0  0  0  0  0
   24.2648   71.6394    1.5925 C   0  0  1  0  0  0  0  0  0  0  0  0
   26.4727   75.3112    0.3037 H   0  0  0  0  0  0  0  0  0  0  0  0
   24.8654   75.6794   -0.7858 H   0  0  0  0  0  0  0  0  0  0  0  0
   27.3410   72.5635    2.1028 H   0  0  0  0  0  0  0  0  0  0  0  0
   22.7372   70.2972    2.7616 O   0  0  0  0  0  0  0  0  0  0  0  0
   24.6526   70.8838    3.8508 O   0  0  0  0  0  0  0  0  0  0  0  0
   23.9391   70.9176    2.8595 C   0  0  0  0  0  0  0  0  0  0  0  0
  1  4  1  0
  1 24  1  0
  1  2  1  1
  1  3  2  0
 25 28  1  0
 25 24  1  0
 25 26  1  6
 25 27  2  0
  6 11  1  0
  6 12  1  0
 29 36  1  0
 29 37  1  0
  9  7  1  6
  7 13  1  0
 10  8  1  6
  8 14  1  0
  4  5  1  0
 36 28  1  6
 33 30  1  1
 30 38  1  0
 34 31  1  6
 31 39  1  0
 35 32  1  6
 32 40  1  0
 41 43  1  0
 15 19  2  0
 42 43  2  0
 16 22  2  0
 12 17  1  1
 17 19  1  0
 17 20  1  0
 18 19  1  0
 18 22  1  0
 18 23  1  0
  9 10  1  0
  9 11  1  0
 10 12  1  0
 11  5  1  6
 33 34  1  0
 33 35  1  0
 34 36  1  0
 35 37  1  0
 37 43  1  1
 20 21  2  0
 21 22  1  0
M  CHG  3   2  -1  26  -1  41  -1
M  END
>  <COMPND>  (7) 
    udp_gluA.pdb 

>  <AUTHOR>  (7) 
    GENERATED BY OPEN BABEL 3.1.1

>  <MASTER>  (7) 
        0    0    0    0    0    0    0    0   56    0   56    0

>  <minimizedAffinity>  (7) 
-7.70752

>  <CNNscore>  (7) 
0.4715650082

>  <CNNaffinity>  (7) 
4.3196096420

>  <CNN_VS>  (7) 
2.0369768143

>  <CNNaffinity_variance>  (7) 
0.0139902905

$$$$
8
     RDKit          3D

 43 45  0  0  0  0  0  0  0  0999 V2000
   23.4823   73.1094   -3.8263 P   0  0  2  0  0  0  0  0  0  0  0  0
   23.9510   74.6583   -3.8310 O   0  0  0  0  0  0  0  0  0  0  0  0
   24.5910   72.1126   -3.6558 O   0  0  0  0  0  0  0  0  0  0  0  0
   22.6086   72.9637   -5.1802 O   0  0  0  0  0  0  0  0  0  0  0  0
   21.6677   71.9094   -5.2676 C   0  0  0  0  0  0  0  0  0  0  0  0
   20.1751   70.7734   -6.7707 O   0  0  0  0  0  0  0  0  0  0  0  0
   20.8507   72.9118   -8.7613 O   0  0  0  0  0  0  0  0  0  0  0  0
   18.4203   73.7174   -7.8233 O   0  0  0  0  0  0  0  0  0  0  0  0
   20.6974   73.0112   -7.3453 C   0  0  1  0  0  0  0  0  0  0  0  0
   19.2324   72.9379   -6.9703 C   0  0  2  0  0  0  0  0  0  0  0  0
   21.2499   71.7366   -6.7223 C   0  0  1  0  0  0  0  0  0  0  0  0
   18.9497   71.4502   -7.0925 C   0  0  2  0  0  0  0  0  0  0  0  0
   20.5046   73.7150   -9.1816 H   0  0  0  0  0  0  0  0  0  0  0  0
   18.6382   74.6561   -7.7081 H   0  0  0  0  0  0  0  0  0  0  0  0
   16.5869   70.1233   -7.8882 O   0  0  0  0  0  0  0  0  0  0  0  0
   15.0804   69.8134   -3.5432 O   0  0  0  0  0  0  0  0  0  0  0  0
   17.9231   71.0116   -6.1899 N   0  0  0  0  0  0  0  0  0  0  0  0
   15.8384   69.9711   -5.7235 N   0  0  0  0  0  0  0  0  0  0  0  0
   16.7752   70.3543   -6.6923 C   0  0  0  0  0  0  0  0  0  0  0  0
   18.0594   71.2318   -4.8247 C   0  0  0  0  0  0  0  0  0  0  0  0
   17.1580   70.8606   -3.9134 C   0  0  0  0  0  0  0  0  0  0  0  0
   15.9294   70.1687   -4.3552 C   0  0  0  0  0  0  0  0  0  0  0  0
   15.0298   69.5136   -6.0494 H   0  0  0  0  0  0  0  0  0  0  0  0
   22.3598   73.0734   -2.6637 O   0  0  0  0  0  0  0  0  0  0  0  0
   22.2230   73.9209   -1.2938 P   0  0  2  0  0  0  0  0  0  0  0  0
   20.8942   73.3018   -0.6071 O   0  0  0  0  0  0  0  0  0  0  0  0
   22.1810   75.4085   -1.4916 O   0  0  0  0  0  0  0  0  0  0  0  0
   23.4386   73.4025   -0.3687 O   0  0  0  0  0  0  0  0  0  0  0  0
   24.4781   75.1483    0.8482 O   0  0  0  0  0  0  0  0  0  0  0  0
   26.9833   71.9612    1.6446 O   0  0  0  0  0  0  0  0  0  0  0  0
   25.9358   72.3842   -1.0495 O   0  0  0  0  0  0  0  0  0  0  0  0
   25.1121   72.8872    3.6674 O   0  0  0  0  0  0  0  0  0  0  0  0
   25.7398   72.6016    1.3589 C   0  0  2  0  0  0  0  0  0  0  0  0
   25.8330   73.3235    0.0144 C   0  0  2  0  0  0  0  0  0  0  0  0
   25.4542   73.6018    2.4813 C   0  0  1  0  0  0  0  0  0  0  0  0
   24.6067   74.2072   -0.2182 C   0  0  1  0  0  0  0  0  0  0  0  0
   24.2976   74.5293    2.1200 C   0  0  1  0  0  0  0  0  0  0  0  0
   27.1858   71.3208    0.9444 H   0  0  0  0  0  0  0  0  0  0  0  0
   26.7116   71.8199   -0.9082 H   0  0  0  0  0  0  0  0  0  0  0  0
   25.8400   72.2931    3.9082 H   0  0  0  0  0  0  0  0  0  0  0  0
   23.6138   76.7454    2.4704 O   0  0  0  0  0  0  0  0  0  0  0  0
   24.6888   75.7043    4.1907 O   0  0  0  0  0  0  0  0  0  0  0  0
   24.2394   75.6936    3.0545 C   0  0  0  0  0  0  0  0  0  0  0  0
  1  4  1  0
  1 24  1  0
  1  2  1  6
  1  3  2  0
 25 28  1  0
 25 24  1  0
 25 26  1  1
 25 27  2  0
  6 11  1  0
  6 12  1  0
 29 36  1  0
 29 37  1  0
  9  7  1  6
  7 13  1  0
 10  8  1  6
  8 14  1  0
  4  5  1  0
 36 28  1  1
 33 30  1  1
 30 38  1  0
 34 31  1  6
 31 39  1  0
 35 32  1  1
 32 40  1  0
 41 43  1  0
 15 19  2  0
 42 43  2  0
 16 22  2  0
 12 17  1  1
 17 19  1  0
 17 20  1  0
 18 19  1  0
 18 22  1  0
 18 23  1  0
  9 10  1  0
  9 11  1  0
 10 12  1  0
 11  5  1  1
 33 34  1  0
 33 35  1  0
 34 36  1  0
 35 37  1  0
 37 43  1  1
 20 21  2  0
 21 22  1  0
M  CHG  3   2  -1  26  -1  41  -1
M  END
>  <COMPND>  (8) 
    udp_gluA.pdb 

>  <AUTHOR>  (8) 
    GENERATED BY OPEN BABEL 3.1.1

>  <MASTER>  (8) 
        0    0    0    0    0    0    0    0   56    0   56    0

>  <minimizedAffinity>  (8) 
-6.20024

>  <CNNscore>  (8) 
0.4309331477

>  <CNNaffinity>  (8) 
4.0630941391

>  <CNN_VS>  (8) 
1.7509219646

>  <CNNaffinity_variance>  (8) 
0.1062558442

$$$$
9
     RDKit          3D

 43 45  0  0  0  0  0  0  0  0999 V2000
   23.4704   73.2595   -3.8902 P   0  0  2  0  0  0  0  0  0  0  0  0
   23.9722   74.7951   -3.9857 O   0  0  0  0  0  0  0  0  0  0  0  0
   24.5621   72.2466   -3.7058 O   0  0  0  0  0  0  0  0  0  0  0  0
   22.5501   73.0689   -5.2072 O   0  0  0  0  0  0  0  0  0  0  0  0
   21.6086   72.0117   -5.2269 C   0  0  0  0  0  0  0  0  0  0  0  0
   20.1673   70.7308   -6.6621 O   0  0  0  0  0  0  0  0  0  0  0  0
   20.8082   72.7428   -8.7910 O   0  0  0  0  0  0  0  0  0  0  0  0
   18.3446   73.5422   -7.9380 O   0  0  0  0  0  0  0  0  0  0  0  0
   20.6343   72.9369   -7.3873 C   0  0  1  0  0  0  0  0  0  0  0  0
   19.1672   72.8480   -7.0237 C   0  0  2  0  0  0  0  0  0  0  0  0
   21.2142   71.7255   -6.6701 C   0  0  1  0  0  0  0  0  0  0  0  0
   18.9277   71.3480   -7.0438 C   0  0  2  0  0  0  0  0  0  0  0  0
   20.4452   73.5044   -9.2705 H   0  0  0  0  0  0  0  0  0  0  0  0
   18.5348   74.4926   -7.8870 H   0  0  0  0  0  0  0  0  0  0  0  0
   16.5184   70.0807   -7.7959 O   0  0  0  0  0  0  0  0  0  0  0  0
   15.0658   69.8445   -3.4281 O   0  0  0  0  0  0  0  0  0  0  0  0
   17.9024   70.9445   -6.1235 N   0  0  0  0  0  0  0  0  0  0  0  0
   15.7968   69.9652   -5.6199 N   0  0  0  0  0  0  0  0  0  0  0  0
   16.7299   70.3153   -6.6047 C   0  0  0  0  0  0  0  0  0  0  0  0
   18.0641   71.1709   -4.7621 C   0  0  0  0  0  0  0  0  0  0  0  0
   17.1658   70.8314   -3.8354 C   0  0  0  0  0  0  0  0  0  0  0  0
   15.9126   70.1703   -4.2546 C   0  0  0  0  0  0  0  0  0  0  0  0
   14.9714   69.5277   -5.9309 H   0  0  0  0  0  0  0  0  0  0  0  0
   22.3858   73.3060   -2.6926 O   0  0  0  0  0  0  0  0  0  0  0  0
   22.2220   74.3245   -1.4477 P   0  0  2  0  0  0  0  0  0  0  0  0
   20.6309   74.2938   -1.1516 O   0  0  0  0  0  0  0  0  0  0  0  0
   22.7783   75.6964   -1.6973 O   0  0  0  0  0  0  0  0  0  0  0  0
   22.8840   73.5510   -0.1963 O   0  0  0  0  0  0  0  0  0  0  0  0
   24.9304   72.3601   -0.1384 O   0  0  0  0  0  0  0  0  0  0  0  0
   22.7217   70.3767    2.7349 O   0  0  0  0  0  0  0  0  0  0  0  0
   21.4876   71.1805    0.2120 O   0  0  0  0  0  0  0  0  0  0  0  0
   24.8190   72.2275    3.5266 O   0  0  0  0  0  0  0  0  0  0  0  0
   23.1415   71.4986    1.9583 C   0  0  2  0  0  0  0  0  0  0  0  0
   22.8851   71.2202    0.4770 C   0  0  2  0  0  0  0  0  0  0  0  0
   24.6357   71.7144    2.2084 C   0  0  1  0  0  0  0  0  0  0  0  0
   23.5281   72.2948   -0.4009 C   0  0  1  0  0  0  0  0  0  0  0  0
   25.2299   72.7058    1.2121 C   0  0  1  0  0  0  0  0  0  0  0  0
   21.7749   70.2203    2.5920 H   0  0  0  0  0  0  0  0  0  0  0  0
   21.0731   70.5010    0.7659 H   0  0  0  0  0  0  0  0  0  0  0  0
   24.4450   71.6059    4.1705 H   0  0  0  0  0  0  0  0  0  0  0  0
   27.2412   73.0743    0.0631 O   0  0  0  0  0  0  0  0  0  0  0  0
   27.3924   72.3072    2.2050 O   0  0  0  0  0  0  0  0  0  0  0  0
   26.7229   72.6619    1.2464 C   0  0  0  0  0  0  0  0  0  0  0  0
  1  4  1  0
  1 24  1  0
  1  2  1  6
  1  3  2  0
 25 28  1  0
 25 24  1  0
 25 26  1  1
 25 27  2  0
  6 11  1  0
  6 12  1  0
 29 36  1  0
 29 37  1  0
  9  7  1  6
  7 13  1  0
 10  8  1  6
  8 14  1  0
  4  5  1  0
 36 28  1  1
 33 30  1  1
 30 38  1  0
 34 31  1  1
 31 39  1  0
 35 32  1  1
 32 40  1  0
 41 43  1  0
 15 19  2  0
 42 43  2  0
 16 22  2  0
 12 17  1  1
 17 19  1  0
 17 20  1  0
 18 19  1  0
 18 22  1  0
 18 23  1  0
  9 10  1  0
  9 11  1  0
 10 12  1  0
 11  5  1  1
 33 34  1  0
 33 35  1  0
 34 36  1  0
 35 37  1  0
 37 43  1  6
 20 21  2  0
 21 22  1  0
M  CHG  3   2  -1  26  -1  41  -1
M  END
>  <COMPND>  (9) 
    udp_gluA.pdb 

>  <AUTHOR>  (9) 
    GENERATED BY OPEN BABEL 3.1.1

>  <MASTER>  (9) 
        0    0    0    0    0    0    0    0   56    0   56    0

>  <minimizedAffinity>  (9) 
-7.38595

>  <CNNscore>  (9) 
0.4148021638

>  <CNNaffinity>  (9) 
4.1158027649

>  <CNN_VS>  (9) 
1.7072439194

>  <CNNaffinity_variance>  (9) 
0.1221986189

$$$$
10
     RDKit          3D

 43 45  0  0  0  0  0  0  0  0999 V2000
   22.5586   72.8396   -4.2776 P   0  0  2  0  0  0  0  0  0  0  0  0
   21.6879   74.2028   -4.2274 O   0  0  0  0  0  0  0  0  0  0  0  0
   24.0384   73.0266   -4.1139 O   0  0  0  0  0  0  0  0  0  0  0  0
   22.0881   72.1286   -5.6528 O   0  0  0  0  0  0  0  0  0  0  0  0
   20.8246   72.4699   -6.1926 C   0  0  0  0  0  0  0  0  0  0  0  0
   19.1108   70.7860   -6.1215 O   0  0  0  0  0  0  0  0  0  0  0  0
   19.6860   70.3424   -9.0307 O   0  0  0  0  0  0  0  0  0  0  0  0
   17.4257   71.8664   -9.0959 O   0  0  0  0  0  0  0  0  0  0  0  0
   19.6964   71.5585   -8.2828 C   0  0  1  0  0  0  0  0  0  0  0  0
   18.2801   71.9993   -7.9793 C   0  0  2  0  0  0  0  0  0  0  0  0
   20.2389   71.2510   -6.8937 C   0  0  1  0  0  0  0  0  0  0  0  0
   17.8990   71.0722   -6.8377 C   0  0  2  0  0  0  0  0  0  0  0  0
   19.3431   70.5136   -9.9222 H   0  0  0  0  0  0  0  0  0  0  0  0
   17.7096   72.4772   -9.7947 H   0  0  0  0  0  0  0  0  0  0  0  0
   15.9618   69.6337   -5.3699 O   0  0  0  0  0  0  0  0  0  0  0  0
   14.3278   73.4737   -3.4133 O   0  0  0  0  0  0  0  0  0  0  0  0
   16.9548   71.6710   -5.9374 N   0  0  0  0  0  0  0  0  0  0  0  0
   15.1492   71.5477   -4.3976 N   0  0  0  0  0  0  0  0  0  0  0  0
   16.0230   70.8587   -5.2488 C   0  0  0  0  0  0  0  0  0  0  0  0
   16.9586   73.0468   -5.7425 C   0  0  0  0  0  0  0  0  0  0  0  0
   16.1195   73.6893   -4.9278 C   0  0  0  0  0  0  0  0  0  0  0  0
   15.1142   72.9142   -4.1715 C   0  0  0  0  0  0  0  0  0  0  0  0
   14.4901   71.0036   -3.9089 H   0  0  0  0  0  0  0  0  0  0  0  0
   21.8656   71.9242   -3.1398 O   0  0  0  0  0  0  0  0  0  0  0  0
   21.5419   72.2275   -1.5851 P   0  0  2  0  0  0  0  0  0  0  0  0
   21.2790   70.7543   -0.9679 O   0  0  0  0  0  0  0  0  0  0  0  0
   20.4176   73.1985   -1.3682 O   0  0  0  0  0  0  0  0  0  0  0  0
   22.9542   72.6868   -0.9551 O   0  0  0  0  0  0  0  0  0  0  0  0
   22.9007   72.7337    1.4122 O   0  0  0  0  0  0  0  0  0  0  0  0
   26.6197   74.3505    0.6232 O   0  0  0  0  0  0  0  0  0  0  0  0
   24.3003   75.1206   -0.9773 O   0  0  0  0  0  0  0  0  0  0  0  0
   26.3907   71.6127    1.5734 O   0  0  0  0  0  0  0  0  0  0  0  0
   25.4888   73.5101    0.3938 C   0  0  2  0  0  0  0  0  0  0  0  0
   24.2360   74.3712    0.2305 C   0  0  2  0  0  0  0  0  0  0  0  0
   25.3405   72.5776    1.5980 C   0  0  1  0  0  0  0  0  0  0  0  0
   22.9755   73.5054    0.2129 C   0  0  1  0  0  0  0  0  0  0  0  0
   24.0029   71.8435    1.5728 C   0  0  1  0  0  0  0  0  0  0  0  0
   26.7338   74.9521   -0.1294 H   0  0  0  0  0  0  0  0  0  0  0  0
   25.0980   75.6721   -0.9731 H   0  0  0  0  0  0  0  0  0  0  0  0
   27.2475   72.0670    1.5889 H   0  0  0  0  0  0  0  0  0  0  0  0
   22.4061   71.2795    3.1956 O   0  0  0  0  0  0  0  0  0  0  0  0
   24.5654   70.6726    3.6060 O   0  0  0  0  0  0  0  0  0  0  0  0
   23.7256   71.2007    2.8927 C   0  0  0  0  0  0  0  0  0  0  0  0
  1  4  1  0
  1 24  1  0
  1  2  1  6
  1  3  2  0
 25 28  1  0
 25 24  1  0
 25 26  1  1
 25 27  2  0
  6 11  1  0
  6 12  1  0
 29 36  1  0
 29 37  1  0
  9  7  1  6
  7 13  1  0
 10  8  1  6
  8 14  1  0
  4  5  1  0
 36 28  1  6
 33 30  1  1
 30 38  1  0
 34 31  1  6
 31 39  1  0
 35 32  1  6
 32 40  1  0
 41 43  1  0
 15 19  2  0
 42 43  2  0
 16 22  2  0
 12 17  1  1
 17 19  1  0
 17 20  1  0
 18 19  1  0
 18 22  1  0
 18 23  1  0
  9 10  1  0
  9 11  1  0
 10 12  1  0
 11  5  1  1
 33 34  1  0
 33 35  1  0
 34 36  1  0
 35 37  1  0
 37 43  1  1
 20 21  2  0
 21 22  1  0
M  CHG  3   2  -1  26  -1  41  -1
M  END
>  <COMPND>  (10) 
    udp_gluA.pdb 

>  <AUTHOR>  (10) 
    GENERATED BY OPEN BABEL 3.1.1

>  <MASTER>  (10) 
        0    0    0    0    0    0    0    0   56    0   56    0

>  <minimizedAffinity>  (10) 
-6.57112

>  <CNNscore>  (10) 
0.4117461443

>  <CNNaffinity>  (10) 
4.2076096535

>  <CNN_VS>  (10) 
1.7324670553

>  <CNNaffinity_variance>  (10) 
0.0618929081

$$$$
11
     RDKit          3D

 43 45  0  0  0  0  0  0  0  0999 V2000
   14.0731   73.5705   -2.3616 P   0  0  2  0  0  0  0  0  0  0  0  0
   15.2294   74.1329   -1.3790 O   0  0  0  0  0  0  0  0  0  0  0  0
   12.8580   74.4437   -2.4750 O   0  0  0  0  0  0  0  0  0  0  0  0
   13.8095   72.0653   -1.8298 O   0  0  0  0  0  0  0  0  0  0  0  0
   14.7416   71.4929   -0.9309 C   0  0  0  0  0  0  0  0  0  0  0  0
   15.5282   69.2697   -0.4657 O   0  0  0  0  0  0  0  0  0  0  0  0
   15.0678   68.6989   -3.3733 O   0  0  0  0  0  0  0  0  0  0  0  0
   12.8766   67.5846   -2.1930 O   0  0  0  0  0  0  0  0  0  0  0  0
   14.3145   69.5236   -2.4840 C   0  0  1  0  0  0  0  0  0  0  0  0
   13.5022   68.6670   -1.5361 C   0  0  2  0  0  0  0  0  0  0  0  0
   15.2911   70.2081   -1.5374 C   0  0  1  0  0  0  0  0  0  0  0  0
   14.5549   68.2158   -0.5380 C   0  0  2  0  0  0  0  0  0  0  0  0
   14.4652   68.2509   -3.9879 H   0  0  0  0  0  0  0  0  0  0  0  0
   12.2152   67.9238   -2.8171 H   0  0  0  0  0  0  0  0  0  0  0  0
   13.5678   65.7332    0.3779 O   0  0  0  0  0  0  0  0  0  0  0  0
   12.4845   67.4792    4.5037 O   0  0  0  0  0  0  0  0  0  0  0  0
   14.0093   67.9935    0.7711 N   0  0  0  0  0  0  0  0  0  0  0  0
   13.0283   66.6054    2.4316 N   0  0  0  0  0  0  0  0  0  0  0  0
   13.5404   66.7080    1.1315 C   0  0  0  0  0  0  0  0  0  0  0  0
   13.9442   69.0406    1.6823 C   0  0  0  0  0  0  0  0  0  0  0  0
   13.4534   68.9274    2.9181 C   0  0  0  0  0  0  0  0  0  0  0  0
   12.9420   67.6180    3.3733 C   0  0  0  0  0  0  0  0  0  0  0  0
   12.6939   65.7206    2.7046 H   0  0  0  0  0  0  0  0  0  0  0  0
   14.8627   73.3317   -3.7517 O   0  0  0  0  0  0  0  0  0  0  0  0
   15.2679   74.3592   -4.9323 P   0  0  2  0  0  0  0  0  0  0  0  0
   16.3797   75.3056   -4.2335 O   0  0  0  0  0  0  0  0  0  0  0  0
   14.1072   75.1035   -5.5262 O   0  0  0  0  0  0  0  0  0  0  0  0
   16.0992   73.4644   -5.9862 O   0  0  0  0  0  0  0  0  0  0  0  0
   16.8245   71.2101   -5.9469 O   0  0  0  0  0  0  0  0  0  0  0  0
   19.9728   73.0728   -7.8670 O   0  0  0  0  0  0  0  0  0  0  0  0
   18.7097   74.3168   -5.5450 O   0  0  0  0  0  0  0  0  0  0  0  0
   18.0687   71.4873   -9.3874 O   0  0  0  0  0  0  0  0  0  0  0  0
   18.6100   72.8725   -7.4919 C   0  0  2  0  0  0  0  0  0  0  0  0
   18.4764   72.9798   -5.9726 C   0  0  2  0  0  0  0  0  0  0  0  0
   18.1888   71.4798   -7.9661 C   0  0  1  0  0  0  0  0  0  0  0  0
   17.0834   72.5462   -5.5139 C   0  0  1  0  0  0  0  0  0  0  0  0
   16.8475   71.0688   -7.3655 C   0  0  1  0  0  0  0  0  0  0  0  0
   20.2627   73.9517   -7.5758 H   0  0  0  0  0  0  0  0  0  0  0  0
   19.5918   74.5986   -5.8329 H   0  0  0  0  0  0  0  0  0  0  0  0
   18.9157   71.7474   -9.7821 H   0  0  0  0  0  0  0  0  0  0  0  0
   16.0254   69.0673   -6.4603 O   0  0  0  0  0  0  0  0  0  0  0  0
   16.8828   68.9792   -8.5712 O   0  0  0  0  0  0  0  0  0  0  0  0
   16.6042   69.6077   -7.5611 C   0  0  0  0  0  0  0  0  0  0  0  0
  1  4  1  0
  1 24  1  0
  1  2  1  1
  1  3  2  0
 25 28  1  0
 25 24  1  0
 25 26  1  1
 25 27  2  0
  6 11  1  0
  6 12  1  0
 29 36  1  0
 29 37  1  0
  9  7  1  6
  7 13  1  0
 10  8  1  6
  8 14  1  0
  4  5  1  0
 36 28  1  6
 33 30  1  1
 30 38  1  0
 34 31  1  6
 31 39  1  0
 35 32  1  6
 32 40  1  0
 41 43  1  0
 15 19  2  0
 42 43  2  0
 16 22  2  0
 12 17  1  1
 17 19  1  0
 17 20  1  0
 18 19  1  0
 18 22  1  0
 18 23  1  0
  9 10  1  0
  9 11  1  0
 10 12  1  0
 11  5  1  1
 33 34  1  0
 33 35  1  0
 34 36  1  0
 35 37  1  0
 37 43  1  1
 20 21  2  0
 21 22  1  0
M  CHG  3   2  -1  26  -1  41  -1
M  END
>  <COMPND>  (11) 
    udp_gluA.pdb 

>  <AUTHOR>  (11) 
    GENERATED BY OPEN BABEL 3.1.1

>  <MASTER>  (11) 
        0    0    0    0    0    0    0    0   56    0   56    0

>  <minimizedAffinity>  (11) 
-5.94548

>  <CNNscore>  (11) 
0.4029357731

>  <CNNaffinity>  (11) 
3.8625023365

>  <CNN_VS>  (11) 
1.5563403368

>  <CNNaffinity_variance>  (11) 
0.1628353596

$$$$
12
     RDKit          3D

 43 45  0  0  0  0  0  0  0  0999 V2000
   22.0691   72.6850   -4.4129 P   0  0  2  0  0  0  0  0  0  0  0  0
   21.6522   71.1265   -4.2864 O   0  0  0  0  0  0  0  0  0  0  0  0
   23.5054   72.9295   -4.7723 O   0  0  0  0  0  0  0  0  0  0  0  0
   21.5742   73.3342   -3.0159 O   0  0  0  0  0  0  0  0  0  0  0  0
   22.5401   73.6073   -2.0175 C   0  0  0  0  0  0  0  0  0  0  0  0
   24.1683   72.2549   -0.8782 O   0  0  0  0  0  0  0  0  0  0  0  0
   21.8557   71.0407    0.5945 O   0  0  0  0  0  0  0  0  0  0  0  0
   22.8555   72.8116    2.4113 O   0  0  0  0  0  0  0  0  0  0  0  0
   22.0430   72.3875    0.1591 C   0  0  1  0  0  0  0  0  0  0  0  0
   23.0555   73.0874    1.0407 C   0  0  2  0  0  0  0  0  0  0  0  0
   22.7602   72.3517   -1.1835 C   0  0  1  0  0  0  0  0  0  0  0  0
   24.3682   72.5296    0.5174 C   0  0  2  0  0  0  0  0  0  0  0  0
   21.3992   71.0379    1.4508 H   0  0  0  0  0  0  0  0  0  0  0  0
   22.0072   73.1872    2.6962 H   0  0  0  0  0  0  0  0  0  0  0  0
   26.8108   71.9418    1.8077 O   0  0  0  0  0  0  0  0  0  0  0  0
   28.4624   76.1693    1.0047 O   0  0  0  0  0  0  0  0  0  0  0  0
   25.4537   73.4582    0.6598 N   0  0  0  0  0  0  0  0  0  0  0  0
   27.6307   74.0482    1.4074 N   0  0  0  0  0  0  0  0  0  0  0  0
   26.6380   73.0628    1.3256 C   0  0  0  0  0  0  0  0  0  0  0  0
   25.3400   74.7427    0.1422 C   0  0  0  0  0  0  0  0  0  0  0  0
   26.2949   75.6710    0.2279 C   0  0  0  0  0  0  0  0  0  0  0  0
   27.5636   75.3391    0.9088 C   0  0  0  0  0  0  0  0  0  0  0  0
   28.4636   73.7970    1.8683 H   0  0  0  0  0  0  0  0  0  0  0  0
   21.0005   73.2611   -5.4801 O   0  0  0  0  0  0  0  0  0  0  0  0
   20.9141   73.1029   -7.0867 P   0  0  2  0  0  0  0  0  0  0  0  0
   21.8196   71.7932   -7.3786 O   0  0  0  0  0  0  0  0  0  0  0  0
   21.3326   74.3265   -7.8493 O   0  0  0  0  0  0  0  0  0  0  0  0
   19.4003   72.6227   -7.3699 O   0  0  0  0  0  0  0  0  0  0  0  0
   18.7486   70.7631   -6.0560 O   0  0  0  0  0  0  0  0  0  0  0  0
   15.5492   71.1261   -8.6444 O   0  0  0  0  0  0  0  0  0  0  0  0
   18.2858   71.4284   -9.6210 O   0  0  0  0  0  0  0  0  0  0  0  0
   15.3033   72.0134   -5.8870 O   0  0  0  0  0  0  0  0  0  0  0  0
   16.6390   71.5886   -7.8467 C   0  0  2  0  0  0  0  0  0  0  0  0
   17.9375   70.9421   -8.3300 C   0  0  2  0  0  0  0  0  0  0  0  0
   16.3597   71.1996   -6.3932 C   0  0  1  0  0  0  0  0  0  0  0  0
   19.0858   71.2314   -7.3623 C   0  0  1  0  0  0  0  0  0  0  0  0
   17.5924   71.3994   -5.5162 C   0  0  1  0  0  0  0  0  0  0  0  0
   15.7047   71.3620   -9.5725 H   0  0  0  0  0  0  0  0  0  0  0  0
   17.5615   71.2485  -10.2401 H   0  0  0  0  0  0  0  0  0  0  0  0
   14.5127   71.8956   -6.4365 H   0  0  0  0  0  0  0  0  0  0  0  0
   18.4599   71.0035   -3.3733 O   0  0  0  0  0  0  0  0  0  0  0  0
   16.4758   70.0070   -3.8926 O   0  0  0  0  0  0  0  0  0  0  0  0
   17.4205   70.7198   -4.1968 C   0  0  0  0  0  0  0  0  0  0  0  0
  1  4  1  0
  1 24  1  0
  1  2  1  1
  1  3  2  0
 25 28  1  0
 25 24  1  0
 25 26  1  6
 25 27  2  0
  6 11  1  0
  6 12  1  0
 29 36  1  0
 29 37  1  0
  9  7  1  1
  7 13  1  0
 10  8  1  1
  8 14  1  0
  4  5  1  0
 36 28  1  1
 33 30  1  6
 30 38  1  0
 34 31  1  6
 31 39  1  0
 35 32  1  1
 32 40  1  0
 41 43  1  0
 15 19  2  0
 42 43  2  0
 16 22  2  0
 12 17  1  6
 17 19  1  0
 17 20  1  0
 18 19  1  0
 18 22  1  0
 18 23  1  0
  9 10  1  0
  9 11  1  0
 10 12  1  0
 11  5  1  1
 33 34  1  0
 33 35  1  0
 34 36  1  0
 35 37  1  0
 37 43  1  1
 20 21  2  0
 21 22  1  0
M  CHG  3   2  -1  26  -1  41  -1
M  END
>  <COMPND>  (12) 
    udp_gluA.pdb 

>  <AUTHOR>  (12) 
    GENERATED BY OPEN BABEL 3.1.1

>  <MASTER>  (12) 
        0    0    0    0    0    0    0    0   56    0   56    0

>  <minimizedAffinity>  (12) 
-7.08591

>  <CNNscore>  (12) 
0.3845658004

>  <CNNaffinity>  (12) 
4.2023119926

>  <CNN_VS>  (12) 
1.6160655022

>  <CNNaffinity_variance>  (12) 
0.1294451654

$$$$
13
     RDKit          3D

 43 45  0  0  0  0  0  0  0  0999 V2000
   22.7887   73.3824   -3.9900 P   0  0  2  0  0  0  0  0  0  0  0  0
   22.5207   74.8867   -4.5231 O   0  0  0  0  0  0  0  0  0  0  0  0
   24.1158   72.7996   -4.3785 O   0  0  0  0  0  0  0  0  0  0  0  0
   21.4874   72.5575   -4.4840 O   0  0  0  0  0  0  0  0  0  0  0  0
   20.9330   72.8642   -5.7501 C   0  0  0  0  0  0  0  0  0  0  0  0
   19.9012   70.7066   -5.5100 O   0  0  0  0  0  0  0  0  0  0  0  0
   19.7306   70.6614   -8.5034 O   0  0  0  0  0  0  0  0  0  0  0  0
   17.1957   71.3513   -7.7725 O   0  0  0  0  0  0  0  0  0  0  0  0
   19.5863   71.7630   -7.6066 C   0  0  1  0  0  0  0  0  0  0  0  0
   18.2509   71.6897   -6.8970 C   0  0  2  0  0  0  0  0  0  0  0  0
   20.5679   71.5665   -6.4593 C   0  0  1  0  0  0  0  0  0  0  0  0
   18.5083   70.6192   -5.8502 C   0  0  2  0  0  0  0  0  0  0  0  0
   19.1133   70.7647   -9.2449 H   0  0  0  0  0  0  0  0  0  0  0  0
   17.0711   72.0640   -8.4194 H   0  0  0  0  0  0  0  0  0  0  0  0
   15.8904   69.6238   -5.4867 O   0  0  0  0  0  0  0  0  0  0  0  0
   15.5964   71.4267   -1.2550 O   0  0  0  0  0  0  0  0  0  0  0  0
   17.7247   70.8138   -4.6632 N   0  0  0  0  0  0  0  0  0  0  0  0
   15.7461   70.5235   -3.3798 N   0  0  0  0  0  0  0  0  0  0  0  0
   16.4200   70.2722   -4.5822 C   0  0  0  0  0  0  0  0  0  0  0  0
   18.2494   71.5320   -3.5957 C   0  0  0  0  0  0  0  0  0  0  0  0
   17.5950   71.7633   -2.4559 C   0  0  0  0  0  0  0  0  0  0  0  0
   16.2259   71.2327   -2.2905 C   0  0  0  0  0  0  0  0  0  0  0  0
   14.8353   70.1582   -3.3007 H   0  0  0  0  0  0  0  0  0  0  0  0
   22.5519   73.5145   -2.3965 O   0  0  0  0  0  0  0  0  0  0  0  0
   23.1740   74.5399   -1.3124 P   0  0  2  0  0  0  0  0  0  0  0  0
   21.8996   75.4400   -0.8809 O   0  0  0  0  0  0  0  0  0  0  0  0
   24.3475   75.3301   -1.8148 O   0  0  0  0  0  0  0  0  0  0  0  0
   23.4853   73.6282   -0.0184 O   0  0  0  0  0  0  0  0  0  0  0  0
   23.0807   73.9420    2.2939 O   0  0  0  0  0  0  0  0  0  0  0  0
   26.7194   71.9860    2.3351 O   0  0  0  0  0  0  0  0  0  0  0  0
   26.1963   74.0995    0.3874 O   0  0  0  0  0  0  0  0  0  0  0  0
   24.2854   70.5545    3.0260 O   0  0  0  0  0  0  0  0  0  0  0  0
   25.4225   72.3152    1.8376 C   0  0  2  0  0  0  0  0  0  0  0  0
   25.3654   73.8063    1.5046 C   0  0  2  0  0  0  0  0  0  0  0  0
   24.3989   71.9725    2.9225 C   0  0  1  0  0  0  0  0  0  0  0  0
   23.9339   74.2418    1.1886 C   0  0  1  0  0  0  0  0  0  0  0  0
   23.0248   72.5492    2.5940 C   0  0  1  0  0  0  0  0  0  0  0  0
   27.3866   72.1953    1.6625 H   0  0  0  0  0  0  0  0  0  0  0  0
   27.1061   73.8255    0.5808 H   0  0  0  0  0  0  0  0  0  0  0  0
   25.1534   70.1750    3.2347 H   0  0  0  0  0  0  0  0  0  0  0  0
   21.2244   73.5086    3.7514 O   0  0  0  0  0  0  0  0  0  0  0  0
   22.1942   71.6656    4.6799 O   0  0  0  0  0  0  0  0  0  0  0  0
   22.1291   72.4991    3.7888 C   0  0  0  0  0  0  0  0  0  0  0  0
  1  4  1  0
  1 24  1  0
  1  2  1  6
  1  3  2  0
 25 28  1  0
 25 24  1  0
 25 26  1  1
 25 27  2  0
  6 11  1  0
  6 12  1  0
 29 36  1  0
 29 37  1  0
  9  7  1  6
  7 13  1  0
 10  8  1  6
  8 14  1  0
  4  5  1  0
 36 28  1  6
 33 30  1  1
 30 38  1  0
 34 31  1  6
 31 39  1  0
 35 32  1  6
 32 40  1  0
 41 43  1  0
 15 19  2  0
 42 43  2  0
 16 22  2  0
 12 17  1  1
 17 19  1  0
 17 20  1  0
 18 19  1  0
 18 22  1  0
 18 23  1  0
  9 10  1  0
  9 11  1  0
 10 12  1  0
 11  5  1  1
 33 34  1  0
 33 35  1  0
 34 36  1  0
 35 37  1  0
 37 43  1  1
 20 21  2  0
 21 22  1  0
M  CHG  3   2  -1  26  -1  41  -1
M  END
>  <COMPND>  (13) 
    udp_gluA.pdb 

>  <AUTHOR>  (13) 
    GENERATED BY OPEN BABEL 3.1.1

>  <MASTER>  (13) 
        0    0    0    0    0    0    0    0   56    0   56    0

>  <minimizedAffinity>  (13) 
-6.21838

>  <CNNscore>  (13) 
0.3843657374

>  <CNNaffinity>  (13) 
4.0270538330

>  <CNN_VS>  (13) 
1.5478614569

>  <CNNaffinity_variance>  (13) 
0.0517288372

$$$$
14
     RDKit          3D

 43 45  0  0  0  0  0  0  0  0999 V2000
   22.3814   74.6703   -3.0520 P   0  0  2  0  0  0  0  0  0  0  0  0
   20.8933   75.2348   -2.7594 O   0  0  0  0  0  0  0  0  0  0  0  0
   23.4985   75.5587   -2.5886 O   0  0  0  0  0  0  0  0  0  0  0  0
   22.3640   74.3306   -4.6339 O   0  0  0  0  0  0  0  0  0  0  0  0
   21.1544   73.8797   -5.2152 C   0  0  0  0  0  0  0  0  0  0  0  0
   20.4532   71.5813   -5.1575 O   0  0  0  0  0  0  0  0  0  0  0  0
   21.7886   71.3007   -7.8276 O   0  0  0  0  0  0  0  0  0  0  0  0
   19.1548   71.5206   -8.4989 O   0  0  0  0  0  0  0  0  0  0  0  0
   21.0679   72.4097   -7.2899 C   0  0  1  0  0  0  0  0  0  0  0  0
   19.5817   72.1205   -7.2938 C   0  0  2  0  0  0  0  0  0  0  0  0
   21.3729   72.4904   -5.8003 C   0  0  1  0  0  0  0  0  0  0  0  0
   19.4372   71.1960   -6.0970 C   0  0  2  0  0  0  0  0  0  0  0  0
   21.6096   71.2288   -8.7787 H   0  0  0  0  0  0  0  0  0  0  0  0
   19.2666   72.1489   -9.2301 H   0  0  0  0  0  0  0  0  0  0  0  0
   17.1934   69.6111   -6.7531 O   0  0  0  0  0  0  0  0  0  0  0  0
   14.5560   71.7233   -3.6183 O   0  0  0  0  0  0  0  0  0  0  0  0
   18.1519   71.3107   -5.4680 N   0  0  0  0  0  0  0  0  0  0  0  0
   15.8817   70.6653   -5.1919 N   0  0  0  0  0  0  0  0  0  0  0  0
   17.0906   70.4664   -5.8717 C   0  0  0  0  0  0  0  0  0  0  0  0
   17.9529   72.2494   -4.4629 C   0  0  0  0  0  0  0  0  0  0  0  0
   16.7948   72.4272   -3.8241 C   0  0  0  0  0  0  0  0  0  0  0  0
   15.6353   71.5861   -4.1864 C   0  0  0  0  0  0  0  0  0  0  0  0
   15.1276   70.0906   -5.4570 H   0  0  0  0  0  0  0  0  0  0  0  0
   22.3560   73.2070   -2.3658 O   0  0  0  0  0  0  0  0  0  0  0  0
   23.5287   72.1153   -2.1500 P   0  0  2  0  0  0  0  0  0  0  0  0
   24.4670   72.3179   -3.4534 O   0  0  0  0  0  0  0  0  0  0  0  0
   23.0346   70.7110   -1.9560 O   0  0  0  0  0  0  0  0  0  0  0  0
   24.4045   72.6923   -0.9242 O   0  0  0  0  0  0  0  0  0  0  0  0
   23.4133   72.3869    1.2050 O   0  0  0  0  0  0  0  0  0  0  0  0
   26.5873   74.8739    2.1042 O   0  0  0  0  0  0  0  0  0  0  0  0
   24.9722   75.3391   -0.2853 O   0  0  0  0  0  0  0  0  0  0  0  0
   26.7183   72.0452    2.7614 O   0  0  0  0  0  0  0  0  0  0  0  0
   25.8969   73.8482    1.3905 C   0  0  2  0  0  0  0  0  0  0  0  0
   24.6336   74.4287    0.7545 C   0  0  2  0  0  0  0  0  0  0  0  0
   25.5329   72.7433    2.3847 C   0  0  1  0  0  0  0  0  0  0  0  0
   23.7521   73.3198    0.1782 C   0  0  1  0  0  0  0  0  0  0  0  0
   24.5524   71.7458    1.7746 C   0  0  1  0  0  0  0  0  0  0  0  0
   26.8288   75.5873    1.4925 H   0  0  0  0  0  0  0  0  0  0  0  0
   25.5318   76.0453    0.0733 H   0  0  0  0  0  0  0  0  0  0  0  0
   27.3508   72.6688    3.1511 H   0  0  0  0  0  0  0  0  0  0  0  0
   22.8885   70.1936    2.3437 O   0  0  0  0  0  0  0  0  0  0  0  0
   24.3637   70.7837    3.9792 O   0  0  0  0  0  0  0  0  0  0  0  0
   23.9541   70.8758    2.8316 C   0  0  0  0  0  0  0  0  0  0  0  0
  1  4  1  0
  1 24  1  0
  1  2  1  1
  1  3  2  0
 25 28  1  0
 25 24  1  0
 25 26  1  6
 25 27  2  0
  6 11  1  0
  6 12  1  0
 29 36  1  0
 29 37  1  0
  9  7  1  1
  7 13  1  0
 10  8  1  6
  8 14  1  0
  4  5  1  0
 36 28  1  6
 33 30  1  1
 30 38  1  0
 34 31  1  6
 31 39  1  0
 35 32  1  6
 32 40  1  0
 41 43  1  0
 15 19  2  0
 42 43  2  0
 16 22  2  0
 12 17  1  1
 17 19  1  0
 17 20  1  0
 18 19  1  0
 18 22  1  0
 18 23  1  0
  9 10  1  0
  9 11  1  0
 10 12  1  0
 11  5  1  1
 33 34  1  0
 33 35  1  0
 34 36  1  0
 35 37  1  0
 37 43  1  1
 20 21  2  0
 21 22  1  0
M  CHG  3   2  -1  26  -1  41  -1
M  END
>  <COMPND>  (14) 
    udp_gluA.pdb 

>  <AUTHOR>  (14) 
    GENERATED BY OPEN BABEL 3.1.1

>  <MASTER>  (14) 
        0    0    0    0    0    0    0    0   56    0   56    0

>  <minimizedAffinity>  (14) 
-6.40365

>  <CNNscore>  (14) 
0.3712638021

>  <CNNaffinity>  (14) 
4.1257920265

>  <CNN_VS>  (14) 
1.5317572355

>  <CNNaffinity_variance>  (14) 
0.0483249128

$$$$
15
     RDKit          3D

 43 45  0  0  0  0  0  0  0  0999 V2000
   22.4304   72.6662   -3.8541 P   0  0  2  0  0  0  0  0  0  0  0  0
   23.9543   72.6882   -4.3984 O   0  0  0  0  0  0  0  0  0  0  0  0
   21.9918   71.3640   -3.2509 O   0  0  0  0  0  0  0  0  0  0  0  0
   21.5598   73.1847   -5.1156 O   0  0  0  0  0  0  0  0  0  0  0  0
   20.2702   72.6366   -5.3181 C   0  0  0  0  0  0  0  0  0  0  0  0
   19.0827   70.7569   -6.2314 O   0  0  0  0  0  0  0  0  0  0  0  0
   21.5717   70.1851   -7.8028 O   0  0  0  0  0  0  0  0  0  0  0  0
   19.9695   71.3994   -9.6453 O   0  0  0  0  0  0  0  0  0  0  0  0
   20.9991   71.4425   -7.4430 C   0  0  1  0  0  0  0  0  0  0  0  0
   19.7710   71.7192   -8.2841 C   0  0  2  0  0  0  0  0  0  0  0  0
   20.4055   71.3062   -6.0475 C   0  0  1  0  0  0  0  0  0  0  0  0
   18.7290   70.8343   -7.6214 C   0  0  2  0  0  0  0  0  0  0  0  0
   21.9574   70.2474   -8.6911 H   0  0  0  0  0  0  0  0  0  0  0  0
   20.6412   71.9903  -10.0216 H   0  0  0  0  0  0  0  0  0  0  0  0
   16.4629   69.3310   -8.3837 O   0  0  0  0  0  0  0  0  0  0  0  0
   13.6873   72.9936   -8.0296 O   0  0  0  0  0  0  0  0  0  0  0  0
   17.4021   71.3700   -7.7365 N   0  0  0  0  0  0  0  0  0  0  0  0
   15.0828   71.1569   -8.2076 N   0  0  0  0  0  0  0  0  0  0  0  0
   16.3330   70.5294   -8.1270 C   0  0  0  0  0  0  0  0  0  0  0  0
   17.1698   72.7123   -7.4625 C   0  0  0  0  0  0  0  0  0  0  0  0
   15.9726   73.2961   -7.5435 C   0  0  0  0  0  0  0  0  0  0  0  0
   14.8026   72.4882   -7.9456 C   0  0  0  0  0  0  0  0  0  0  0  0
   14.3235   70.5923   -8.4796 H   0  0  0  0  0  0  0  0  0  0  0  0
   22.3884   73.9254   -2.8415 O   0  0  0  0  0  0  0  0  0  0  0  0
   21.3281   74.3254   -1.6885 P   0  0  2  0  0  0  0  0  0  0  0  0
   20.0287   73.4325   -2.0551 O   0  0  0  0  0  0  0  0  0  0  0  0
   21.0571   75.7984   -1.5853 O   0  0  0  0  0  0  0  0  0  0  0  0
   21.9151   73.6567   -0.3428 O   0  0  0  0  0  0  0  0  0  0  0  0
   24.2109   73.5946    0.2357 O   0  0  0  0  0  0  0  0  0  0  0  0
   22.7202   70.3832    2.3648 O   0  0  0  0  0  0  0  0  0  0  0  0
   21.8441   70.8765   -0.3782 O   0  0  0  0  0  0  0  0  0  0  0  0
   23.3720   72.8644    3.7322 O   0  0  0  0  0  0  0  0  0  0  0  0
   22.6814   71.6734    1.7549 C   0  0  2  0  0  0  0  0  0  0  0  0
   22.9346   71.5375    0.2533 C   0  0  2  0  0  0  0  0  0  0  0  0
   23.7679   72.5352    2.4020 C   0  0  1  0  0  0  0  0  0  0  0  0
   23.1287   72.9089   -0.3951 C   0  0  1  0  0  0  0  0  0  0  0  0
   23.9890   73.8295    1.6245 C   0  0  1  0  0  0  0  0  0  0  0  0
   22.0381   69.8178    1.9693 H   0  0  0  0  0  0  0  0  0  0  0  0
   21.7151   70.0057    0.0285 H   0  0  0  0  0  0  0  0  0  0  0  0
   23.2278   72.0492    4.2378 H   0  0  0  0  0  0  0  0  0  0  0  0
   26.2623   74.2180    1.1974 O   0  0  0  0  0  0  0  0  0  0  0  0
   25.3678   75.2064    3.0473 O   0  0  0  0  0  0  0  0  0  0  0  0
   25.2524   74.4992    2.0576 C   0  0  0  0  0  0  0  0  0  0  0  0
  1  4  1  0
  1 24  1  0
  1  2  1  6
  1  3  2  0
 25 28  1  0
 25 24  1  0
 25 26  1  6
 25 27  2  0
  6 11  1  0
  6 12  1  0
 29 36  1  0
 29 37  1  0
  9  7  1  6
  7 13  1  0
 10  8  1  6
  8 14  1  0
  4  5  1  0
 36 28  1  1
 33 30  1  1
 30 38  1  0
 34 31  1  6
 31 39  1  0
 35 32  1  1
 32 40  1  0
 41 43  1  0
 15 19  2  0
 42 43  2  0
 16 22  2  0
 12 17  1  1
 17 19  1  0
 17 20  1  0
 18 19  1  0
 18 22  1  0
 18 23  1  0
  9 10  1  0
  9 11  1  0
 10 12  1  0
 11  5  1  6
 33 34  1  0
 33 35  1  0
 34 36  1  0
 35 37  1  0
 37 43  1  1
 20 21  2  0
 21 22  1  0
M  CHG  3   2  -1  26  -1  41  -1
M  END
>  <COMPND>  (15) 
    udp_gluA.pdb 

>  <AUTHOR>  (15) 
    GENERATED BY OPEN BABEL 3.1.1

>  <MASTER>  (15) 
        0    0    0    0    0    0    0    0   56    0   56    0

>  <minimizedAffinity>  (15) 
-6.77378

>  <CNNscore>  (15) 
0.3600761890

>  <CNNaffinity>  (15) 
4.2188367844

>  <CNN_VS>  (15) 
1.5191026926

>  <CNNaffinity_variance>  (15) 
0.0031985310

$$$$
16
     RDKit          3D

 43 45  0  0  0  0  0  0  0  0999 V2000
   18.9811   73.3577   -2.3370 P   0  0  2  0  0  0  0  0  0  0  0  0
   18.0525   74.3636   -3.2000 O   0  0  0  0  0  0  0  0  0  0  0  0
   18.4139   72.9559   -1.0071 O   0  0  0  0  0  0  0  0  0  0  0  0
   20.4191   74.0980   -2.2929 O   0  0  0  0  0  0  0  0  0  0  0  0
   21.5209   73.4024   -1.7391 C   0  0  0  0  0  0  0  0  0  0  0  0
   23.8011   74.1417   -1.5600 O   0  0  0  0  0  0  0  0  0  0  0  0
   24.1455   73.1578   -4.3716 O   0  0  0  0  0  0  0  0  0  0  0  0
   25.2525   71.1485   -2.8974 O   0  0  0  0  0  0  0  0  0  0  0  0
   23.3565   72.6127   -3.3138 C   0  0  1  0  0  0  0  0  0  0  0  0
   24.2452   71.9330   -2.2937 C   0  0  2  0  0  0  0  0  0  0  0  0
   22.7803   73.7720   -2.5122 C   0  0  1  0  0  0  0  0  0  0  0  0
   24.8076   73.1174   -1.5264 C   0  0  2  0  0  0  0  0  0  0  0  0
   24.5243   72.4358   -4.8979 H   0  0  0  0  0  0  0  0  0  0  0  0
   24.8437   70.4077   -3.3730 H   0  0  0  0  0  0  0  0  0  0  0  0
   27.3975   72.5896   -0.5312 O   0  0  0  0  0  0  0  0  0  0  0  0
   25.8122   71.8914    3.7400 O   0  0  0  0  0  0  0  0  0  0  0  0
   25.1003   72.7951   -0.1585 N   0  0  0  0  0  0  0  0  0  0  0  0
   26.6054   72.2414    1.5949 N   0  0  0  0  0  0  0  0  0  0  0  0
   26.4357   72.5471    0.2382 C   0  0  0  0  0  0  0  0  0  0  0  0
   24.0719   72.7289    0.7738 C   0  0  0  0  0  0  0  0  0  0  0  0
   24.2492   72.4363    2.0636 C   0  0  0  0  0  0  0  0  0  0  0  0
   25.6140   72.1631    2.5597 C   0  0  0  0  0  0  0  0  0  0  0  0
   27.5261   72.0629    1.8943 H   0  0  0  0  0  0  0  0  0  0  0  0
   19.2349   72.1314   -3.3590 O   0  0  0  0  0  0  0  0  0  0  0  0
   19.7144   72.1182   -4.9029 P   0  0  2  0  0  0  0  0  0  0  0  0
   20.5914   70.7615   -5.0063 O   0  0  0  0  0  0  0  0  0  0  0  0
   20.4420   73.3592   -5.3323 O   0  0  0  0  0  0  0  0  0  0  0  0
   18.3750   71.8023   -5.7448 O   0  0  0  0  0  0  0  0  0  0  0  0
   17.5499   70.0468   -7.1036 O   0  0  0  0  0  0  0  0  0  0  0  0
   16.5470   73.3774   -9.3327 O   0  0  0  0  0  0  0  0  0  0  0  0
   19.1504   73.2039   -8.0187 O   0  0  0  0  0  0  0  0  0  0  0  0
   14.5034   71.9587   -7.8287 O   0  0  0  0  0  0  0  0  0  0  0  0
   16.7951   72.6345   -8.1392 C   0  0  2  0  0  0  0  0  0  0  0  0
   18.2354   72.1216   -8.1457 C   0  0  2  0  0  0  0  0  0  0  0  0
   15.8127   71.4618   -8.0993 C   0  0  1  0  0  0  0  0  0  0  0  0
   18.4698   71.1343   -7.0016 C   0  0  1  0  0  0  0  0  0  0  0  0
   16.1875   70.4578   -7.0130 C   0  0  1  0  0  0  0  0  0  0  0  0
   17.1599   74.1281   -9.3797 H   0  0  0  0  0  0  0  0  0  0  0  0
   19.0071   73.8344   -8.7413 H   0  0  0  0  0  0  0  0  0  0  0  0
   14.2528   72.5990   -8.5128 H   0  0  0  0  0  0  0  0  0  0  0  0
   14.7157   69.2027   -8.3398 O   0  0  0  0  0  0  0  0  0  0  0  0
   15.4686   68.2326   -6.4185 O   0  0  0  0  0  0  0  0  0  0  0  0
   15.4383   69.1777   -7.1925 C   0  0  0  0  0  0  0  0  0  0  0  0
  1  4  1  0
  1 24  1  0
  1  2  1  6
  1  3  2  0
 25 28  1  0
 25 24  1  0
 25 26  1  1
 25 27  2  0
  6 11  1  0
  6 12  1  0
 29 36  1  0
 29 37  1  0
  9  7  1  6
  7 13  1  0
 10  8  1  6
  8 14  1  0
  4  5  1  0
 36 28  1  1
 33 30  1  6
 30 38  1  0
 34 31  1  1
 31 39  1  0
 35 32  1  1
 32 40  1  0
 41 43  1  0
 15 19  2  0
 42 43  2  0
 16 22  2  0
 12 17  1  1
 17 19  1  0
 17 20  1  0
 18 19  1  0
 18 22  1  0
 18 23  1  0
  9 10  1  0
  9 11  1  0
 10 12  1  0
 11  5  1  1
 33 34  1  0
 33 35  1  0
 34 36  1  0
 35 37  1  0
 37 43  1  6
 20 21  2  0
 21 22  1  0
M  CHG  3   2  -1  26  -1  41  -1
M  END
>  <COMPND>  (16) 
    udp_gluA.pdb 

>  <AUTHOR>  (16) 
    GENERATED BY OPEN BABEL 3.1.1

>  <MASTER>  (16) 
        0    0    0    0    0    0    0    0   56    0   56    0

>  <minimizedAffinity>  (16) 
-7.25867

>  <CNNscore>  (16) 
0.3584429920

>  <CNNaffinity>  (16) 
4.0245733261

>  <CNN_VS>  (16) 
1.4425801039

>  <CNNaffinity_variance>  (16) 
0.1247096881

$$$$
17
     RDKit          3D

 43 45  0  0  0  0  0  0  0  0999 V2000
   21.7354   73.3817   -3.8167 P   0  0  2  0  0  0  0  0  0  0  0  0
   22.2986   74.7666   -3.1971 O   0  0  0  0  0  0  0  0  0  0  0  0
   22.1271   73.1194   -5.2413 O   0  0  0  0  0  0  0  0  0  0  0  0
   20.1451   73.4442   -3.5253 O   0  0  0  0  0  0  0  0  0  0  0  0
   19.2518   73.2857   -4.6123 C   0  0  0  0  0  0  0  0  0  0  0  0
   16.8934   72.8757   -4.8300 O   0  0  0  0  0  0  0  0  0  0  0  0
   17.4542   70.1471   -3.7202 O   0  0  0  0  0  0  0  0  0  0  0  0
   17.2321   69.6682   -6.3955 O   0  0  0  0  0  0  0  0  0  0  0  0
   18.2491   70.9476   -4.5953 C   0  0  1  0  0  0  0  0  0  0  0  0
   17.6531   70.9528   -5.9871 C   0  0  2  0  0  0  0  0  0  0  0  0
   18.0903   72.4024   -4.1752 C   0  0  1  0  0  0  0  0  0  0  0  0
   16.4964   71.9252   -5.8311 C   0  0  2  0  0  0  0  0  0  0  0  0
   17.5395   69.2130   -3.9691 H   0  0  0  0  0  0  0  0  0  0  0  0
   18.0044   69.0867   -6.4807 H   0  0  0  0  0  0  0  0  0  0  0  0
   14.8738   70.9042   -7.9050 O   0  0  0  0  0  0  0  0  0  0  0  0
   15.4326   74.7002  -10.4588 O   0  0  0  0  0  0  0  0  0  0  0  0
   16.2013   72.6256   -7.0490 N   0  0  0  0  0  0  0  0  0  0  0  0
   15.1545   72.7953   -9.1754 N   0  0  0  0  0  0  0  0  0  0  0  0
   15.3751   72.0234   -8.0272 C   0  0  0  0  0  0  0  0  0  0  0  0
   16.7261   73.8942   -7.2642 C   0  0  0  0  0  0  0  0  0  0  0  0
   16.5068   74.6178   -8.3637 C   0  0  0  0  0  0  0  0  0  0  0  0
   15.6550   74.0609   -9.4350 C   0  0  0  0  0  0  0  0  0  0  0  0
   14.5840   72.3962   -9.8715 H   0  0  0  0  0  0  0  0  0  0  0  0
   22.2551   72.2738   -2.7606 O   0  0  0  0  0  0  0  0  0  0  0  0
   23.6778   71.5172   -2.6298 P   0  0  2  0  0  0  0  0  0  0  0  0
   24.5627   72.1871   -3.8082 O   0  0  0  0  0  0  0  0  0  0  0  0
   23.5878   70.0202   -2.6990 O   0  0  0  0  0  0  0  0  0  0  0  0
   24.3203   72.0868   -1.2641 O   0  0  0  0  0  0  0  0  0  0  0  0
   23.2217   71.9655    0.8305 O   0  0  0  0  0  0  0  0  0  0  0  0
   25.8883   75.0580    1.4577 O   0  0  0  0  0  0  0  0  0  0  0  0
   24.4167   74.8589   -1.0581 O   0  0  0  0  0  0  0  0  0  0  0  0
   26.4046   72.4329    2.5949 O   0  0  0  0  0  0  0  0  0  0  0  0
   25.4251   73.8308    0.8944 C   0  0  2  0  0  0  0  0  0  0  0  0
   24.1418   74.0833    0.1027 C   0  0  2  0  0  0  0  0  0  0  0  0
   25.1590   72.8543    2.0423 C   0  0  1  0  0  0  0  0  0  0  0  0
   23.4923   72.7652   -0.3213 C   0  0  1  0  0  0  0  0  0  0  0  0
   24.3975   71.6227    1.5607 C   0  0  1  0  0  0  0  0  0  0  0  0
   26.0640   75.6944    0.7467 H   0  0  0  0  0  0  0  0  0  0  0  0
   24.8292   75.6966   -0.7964 H   0  0  0  0  0  0  0  0  0  0  0  0
   26.8993   73.2075    2.9050 H   0  0  0  0  0  0  0  0  0  0  0  0
   22.6008   70.4119    2.4591 O   0  0  0  0  0  0  0  0  0  0  0  0
   24.4637   70.6251    3.7566 O   0  0  0  0  0  0  0  0  0  0  0  0
   23.8592   70.8458    2.7178 C   0  0  0  0  0  0  0  0  0  0  0  0
  1  4  1  0
  1 24  1  0
  1  2  1  1
  1  3  2  0
 25 28  1  0
 25 24  1  0
 25 26  1  6
 25 27  2  0
  6 11  1  0
  6 12  1  0
 29 36  1  0
 29 37  1  0
  9  7  1  1
  7 13  1  0
 10  8  1  1
  8 14  1  0
  4  5  1  0
 36 28  1  6
 33 30  1  1
 30 38  1  0
 34 31  1  6
 31 39  1  0
 35 32  1  6
 32 40  1  0
 41 43  1  0
 15 19  2  0
 42 43  2  0
 16 22  2  0
 12 17  1  6
 17 19  1  0
 17 20  1  0
 18 19  1  0
 18 22  1  0
 18 23  1  0
  9 10  1  0
  9 11  1  0
 10 12  1  0
 11  5  1  6
 33 34  1  0
 33 35  1  0
 34 36  1  0
 35 37  1  0
 37 43  1  1
 20 21  2  0
 21 22  1  0
M  CHG  3   2  -1  26  -1  41  -1
M  END
>  <COMPND>  (17) 
    udp_gluA.pdb 

>  <AUTHOR>  (17) 
    GENERATED BY OPEN BABEL 3.1.1

>  <MASTER>  (17) 
        0    0    0    0    0    0    0    0   56    0   56    0

>  <minimizedAffinity>  (17) 
-6.99101

>  <CNNscore>  (17) 
0.3520681560

>  <CNNaffinity>  (17) 
4.0326576233

>  <CNN_VS>  (17) 
1.4197703600

>  <CNNaffinity_variance>  (17) 
0.0186674781

$$$$
18
     RDKit          3D

 43 45  0  0  0  0  0  0  0  0999 V2000
   22.1606   72.9626   -4.7068 P   0  0  2  0  0  0  0  0  0  0  0  0
   23.7666   72.8130   -4.5747 O   0  0  0  0  0  0  0  0  0  0  0  0
   21.6146   74.3032   -4.3113 O   0  0  0  0  0  0  0  0  0  0  0  0
   21.5833   71.6972   -3.8801 O   0  0  0  0  0  0  0  0  0  0  0  0
   22.2055   71.3475   -2.6574 C   0  0  0  0  0  0  0  0  0  0  0  0
   21.7860   70.8477   -0.3440 O   0  0  0  0  0  0  0  0  0  0  0  0
   19.2647   72.4419   -0.6494 O   0  0  0  0  0  0  0  0  0  0  0  0
   20.9347   74.2010    0.5966 O   0  0  0  0  0  0  0  0  0  0  0  0
   20.5465   72.6562   -1.2406 C   0  0  1  0  0  0  0  0  0  0  0  0
   21.5149   73.1977   -0.2103 C   0  0  2  0  0  0  0  0  0  0  0  0
   21.1497   71.2954   -1.5606 C   0  0  1  0  0  0  0  0  0  0  0  0
   21.8702   71.9475    0.5762 C   0  0  2  0  0  0  0  0  0  0  0  0
   18.8595   73.2974   -0.4361 H   0  0  0  0  0  0  0  0  0  0  0  0
   20.7270   74.9756    0.0499 H   0  0  0  0  0  0  0  0  0  0  0  0
   22.7829   70.3459    2.7160 O   0  0  0  0  0  0  0  0  0  0  0  0
   26.9839   72.2373    2.5795 O   0  0  0  0  0  0  0  0  0  0  0  0
   23.1978   72.0008    1.1198 N   0  0  0  0  0  0  0  0  0  0  0  0
   24.8741   71.2901    2.6466 N   0  0  0  0  0  0  0  0  0  0  0  0
   23.5548   71.1534    2.1953 C   0  0  0  0  0  0  0  0  0  0  0  0
   24.1301   72.8833    0.5879 C   0  0  0  0  0  0  0  0  0  0  0  0
   25.3840   73.0022    1.0287 C   0  0  0  0  0  0  0  0  0  0  0  0
   25.8372   72.1536    2.1502 C   0  0  0  0  0  0  0  0  0  0  0  0
   25.1453   70.7120    3.3960 H   0  0  0  0  0  0  0  0  0  0  0  0
   21.8829   72.5494   -6.2446 O   0  0  0  0  0  0  0  0  0  0  0  0
   20.9625   73.2407   -7.3798 P   0  0  2  0  0  0  0  0  0  0  0  0
   21.3843   72.4518   -8.7289 O   0  0  0  0  0  0  0  0  0  0  0  0
   21.1067   74.7326   -7.4652 O   0  0  0  0  0  0  0  0  0  0  0  0
   19.4660   72.7299   -7.0604 O   0  0  0  0  0  0  0  0  0  0  0  0
   18.7464   70.8198   -5.8593 O   0  0  0  0  0  0  0  0  0  0  0  0
   15.7222   71.2526   -8.6405 O   0  0  0  0  0  0  0  0  0  0  0  0
   18.5146   71.6092   -9.4216 O   0  0  0  0  0  0  0  0  0  0  0  0
   15.2857   72.0386   -5.8760 O   0  0  0  0  0  0  0  0  0  0  0  0
   16.7523   71.6939   -7.7562 C   0  0  2  0  0  0  0  0  0  0  0  0
   18.0861   71.0744   -8.1745 C   0  0  2  0  0  0  0  0  0  0  0  0
   16.3810   71.2510   -6.3392 C   0  0  1  0  0  0  0  0  0  0  0  0
   19.1650   71.3370   -7.1229 C   0  0  1  0  0  0  0  0  0  0  0  0
   17.5509   71.4280   -5.3756 C   0  0  1  0  0  0  0  0  0  0  0  0
   15.9367   71.5227   -9.5474 H   0  0  0  0  0  0  0  0  0  0  0  0
   17.8346   71.4464  -10.0935 H   0  0  0  0  0  0  0  0  0  0  0  0
   14.5344   71.9350   -6.4807 H   0  0  0  0  0  0  0  0  0  0  0  0
   18.2676   70.9773   -3.1882 O   0  0  0  0  0  0  0  0  0  0  0  0
   16.3508   69.9581   -3.8855 O   0  0  0  0  0  0  0  0  0  0  0  0
   17.2985   70.7003   -4.0954 C   0  0  0  0  0  0  0  0  0  0  0  0
  1  4  1  0
  1 24  1  0
  1  2  1  6
  1  3  2  0
 25 28  1  0
 25 24  1  0
 25 26  1  6
 25 27  2  0
  6 11  1  0
  6 12  1  0
 29 36  1  0
 29 37  1  0
  9  7  1  1
  7 13  1  0
 10  8  1  1
  8 14  1  0
  4  5  1  0
 36 28  1  1
 33 30  1  6
 30 38  1  0
 34 31  1  6
 31 39  1  0
 35 32  1  1
 32 40  1  0
 41 43  1  0
 15 19  2  0
 42 43  2  0
 16 22  2  0
 12 17  1  6
 17 19  1  0
 17 20  1  0
 18 19  1  0
 18 22  1  0
 18 23  1  0
  9 10  1  0
  9 11  1  0
 10 12  1  0
 11  5  1  6
 33 34  1  0
 33 35  1  0
 34 36  1  0
 35 37  1  0
 37 43  1  1
 20 21  2  0
 21 22  1  0
M  CHG  3   2  -1  26  -1  41  -1
M  END
>  <COMPND>  (18) 
    udp_gluA.pdb 

>  <AUTHOR>  (18) 
    GENERATED BY OPEN BABEL 3.1.1

>  <MASTER>  (18) 
        0    0    0    0    0    0    0    0   56    0   56    0

>  <minimizedAffinity>  (18) 
-7.71858

>  <CNNscore>  (18) 
0.3507121503

>  <CNNaffinity>  (18) 
4.1319904327

>  <CNN_VS>  (18) 
1.4491392374

>  <CNNaffinity_variance>  (18) 
0.0444673225

$$$$
19
     RDKit          3D

 43 45  0  0  0  0  0  0  0  0999 V2000
   22.8443   73.5345   -3.3995 P   0  0  2  0  0  0  0  0  0  0  0  0
   24.0864   73.0885   -4.3359 O   0  0  0  0  0  0  0  0  0  0  0  0
   22.7772   75.0019   -3.0925 O   0  0  0  0  0  0  0  0  0  0  0  0
   22.9517   72.5527   -2.1179 O   0  0  0  0  0  0  0  0  0  0  0  0
   23.2887   73.1141   -0.8626 C   0  0  0  0  0  0  0  0  0  0  0  0
   24.8049   72.1576    0.7387 O   0  0  0  0  0  0  0  0  0  0  0  0
   22.4270   70.7022    1.8427 O   0  0  0  0  0  0  0  0  0  0  0  0
   22.7317   72.7651    3.6000 O   0  0  0  0  0  0  0  0  0  0  0  0
   22.5070   72.0190    1.2967 C   0  0  1  0  0  0  0  0  0  0  0  0
   23.1868   72.9522    2.2762 C   0  0  2  0  0  0  0  0  0  0  0  0
   23.5002   71.9896    0.1430 C   0  0  1  0  0  0  0  0  0  0  0  0
   24.6495   72.5805    2.1026 C   0  0  2  0  0  0  0  0  0  0  0  0
   21.7981   70.6960    2.5818 H   0  0  0  0  0  0  0  0  0  0  0  0
   21.7959   73.0156    3.6586 H   0  0  0  0  0  0  0  0  0  0  0  0
   27.2979   72.3303    3.0513 O   0  0  0  0  0  0  0  0  0  0  0  0
   27.9338   76.8952    3.0213 O   0  0  0  0  0  0  0  0  0  0  0  0
   25.5294   73.6871    2.3515 N   0  0  0  0  0  0  0  0  0  0  0  0
   27.6118   74.6042    3.0364 N   0  0  0  0  0  0  0  0  0  0  0  0
   26.8411   73.4528    2.8276 C   0  0  0  0  0  0  0  0  0  0  0  0
   25.0919   74.9861    2.1227 C   0  0  0  0  0  0  0  0  0  0  0  0
   25.8382   76.0735    2.3262 C   0  0  0  0  0  0  0  0  0  0  0  0
   27.2205   75.9162    2.8240 C   0  0  0  0  0  0  0  0  0  0  0  0
   28.5279   74.4664    3.3697 H   0  0  0  0  0  0  0  0  0  0  0  0
   21.5629   72.9539   -4.1956 O   0  0  0  0  0  0  0  0  0  0  0  0
   20.0699   72.5977   -3.6878 P   0  0  2  0  0  0  0  0  0  0  0  0
   19.4544   74.0450   -3.3047 O   0  0  0  0  0  0  0  0  0  0  0  0
   20.0217   71.5910   -2.5751 O   0  0  0  0  0  0  0  0  0  0  0  0
   19.2775   72.1587   -5.0226 O   0  0  0  0  0  0  0  0  0  0  0  0
   18.2301   70.1431   -5.6934 O   0  0  0  0  0  0  0  0  0  0  0  0
   19.8673   71.4635   -9.2492 O   0  0  0  0  0  0  0  0  0  0  0  0
   21.3872   71.6461   -6.7611 O   0  0  0  0  0  0  0  0  0  0  0  0
   17.0124   71.7291   -8.7697 O   0  0  0  0  0  0  0  0  0  0  0  0
   19.2767   71.5993   -7.9567 C   0  0  2  0  0  0  0  0  0  0  0  0
   20.1690   70.9268   -6.9131 C   0  0  2  0  0  0  0  0  0  0  0  0
   17.9013   70.9292   -7.9924 C   0  0  1  0  0  0  0  0  0  0  0  0
   19.4637   70.8498   -5.5583 C   0  0  1  0  0  0  0  0  0  0  0  0
   17.3197   70.7760   -6.5899 C   0  0  1  0  0  0  0  0  0  0  0  0
   20.7425   71.8822   -9.2506 H   0  0  0  0  0  0  0  0  0  0  0  0
   21.8399   71.6991   -7.6171 H   0  0  0  0  0  0  0  0  0  0  0  0
   17.3710   71.8345   -9.6648 H   0  0  0  0  0  0  0  0  0  0  0  0
   15.8455   69.4495   -5.3375 O   0  0  0  0  0  0  0  0  0  0  0  0
   15.5528   69.4790   -7.5986 O   0  0  0  0  0  0  0  0  0  0  0  0
   16.1535   69.8421   -6.5985 C   0  0  0  0  0  0  0  0  0  0  0  0
  1  4  1  0
  1 24  1  0
  1  2  1  6
  1  3  2  0
 25 28  1  0
 25 24  1  0
 25 26  1  1
 25 27  2  0
  6 11  1  0
  6 12  1  0
 29 36  1  0
 29 37  1  0
  9  7  1  1
  7 13  1  0
 10  8  1  1
  8 14  1  0
  4  5  1  0
 36 28  1  6
 33 30  1  6
 30 38  1  0
 34 31  1  1
 31 39  1  0
 35 32  1  6
 32 40  1  0
 41 43  1  0
 15 19  2  0
 42 43  2  0
 16 22  2  0
 12 17  1  6
 17 19  1  0
 17 20  1  0
 18 19  1  0
 18 22  1  0
 18 23  1  0
  9 10  1  0
  9 11  1  0
 10 12  1  0
 11  5  1  6
 33 34  1  0
 33 35  1  0
 34 36  1  0
 35 37  1  0
 37 43  1  6
 20 21  2  0
 21 22  1  0
M  CHG  3   2  -1  26  -1  41  -1
M  END
>  <COMPND>  (19) 
    udp_gluA.pdb 

>  <AUTHOR>  (19) 
    GENERATED BY OPEN BABEL 3.1.1

>  <MASTER>  (19) 
        0    0    0    0    0    0    0    0   56    0   56    0

>  <minimizedAffinity>  (19) 
-6.42682

>  <CNNscore>  (19) 
0.3428554237

>  <CNNaffinity>  (19) 
4.1967024803

>  <CNN_VS>  (19) 
1.4388622046

>  <CNNaffinity_variance>  (19) 
0.1642067134

$$$$
20
     RDKit          3D

 43 45  0  0  0  0  0  0  0  0999 V2000
   23.8075   72.5742   -3.3014 P   0  0  2  0  0  0  0  0  0  0  0  0
   24.7832   71.2880   -3.1893 O   0  0  0  0  0  0  0  0  0  0  0  0
   24.0743   73.4715   -4.4742 O   0  0  0  0  0  0  0  0  0  0  0  0
   23.9142   73.2710   -1.8451 O   0  0  0  0  0  0  0  0  0  0  0  0
   24.4042   72.5021   -0.7619 C   0  0  0  0  0  0  0  0  0  0  0  0
   23.8276   71.7871    1.4593 O   0  0  0  0  0  0  0  0  0  0  0  0
   21.1381   73.0136    0.9555 O   0  0  0  0  0  0  0  0  0  0  0  0
   22.3813   74.9068    2.4741 O   0  0  0  0  0  0  0  0  0  0  0  0
   22.4266   73.4532    0.5254 C   0  0  1  0  0  0  0  0  0  0  0  0
   23.1886   74.0573    1.6859 C   0  0  2  0  0  0  0  0  0  0  0  0
   23.2605   72.2205    0.2040 C   0  0  1  0  0  0  0  0  0  0  0  0
   23.6468   72.8207    2.4402 C   0  0  2  0  0  0  0  0  0  0  0  0
   20.5871   73.7839    1.1666 H   0  0  0  0  0  0  0  0  0  0  0  0
   22.1158   75.6789    1.9493 H   0  0  0  0  0  0  0  0  0  0  0  0
   23.8561   73.8550    5.0600 O   0  0  0  0  0  0  0  0  0  0  0  0
   28.4565   73.5789    4.9974 O   0  0  0  0  0  0  0  0  0  0  0  0
   24.8869   73.0294    3.1327 N   0  0  0  0  0  0  0  0  0  0  0  0
   26.1472   73.7174    5.0259 N   0  0  0  0  0  0  0  0  0  0  0  0
   24.8820   73.5543    4.4467 C   0  0  0  0  0  0  0  0  0  0  0  0
   26.0895   72.7140    2.5120 C   0  0  0  0  0  0  0  0  0  0  0  0
   27.2877   72.8749    3.0770 C   0  0  0  0  0  0  0  0  0  0  0  0
   27.3706   73.4188    4.4483 C   0  0  0  0  0  0  0  0  0  0  0  0
   26.1694   74.0833    5.9397 H   0  0  0  0  0  0  0  0  0  0  0  0
   22.3323   71.9136   -3.2810 O   0  0  0  0  0  0  0  0  0  0  0  0
   20.8768   72.5741   -3.0383 P   0  0  2  0  0  0  0  0  0  0  0  0
   21.1971   74.1592   -2.9674 O   0  0  0  0  0  0  0  0  0  0  0  0
   20.1483   72.0361   -1.8409 O   0  0  0  0  0  0  0  0  0  0  0  0
   20.0998   72.3780   -4.4385 O   0  0  0  0  0  0  0  0  0  0  0  0
   19.1898   70.4647   -5.4969 O   0  0  0  0  0  0  0  0  0  0  0  0
   20.5773   72.6328   -8.7282 O   0  0  0  0  0  0  0  0  0  0  0  0
   22.1741   72.4217   -6.2910 O   0  0  0  0  0  0  0  0  0  0  0  0
   17.7313   72.5474   -8.1421 O   0  0  0  0  0  0  0  0  0  0  0  0
   20.0287   72.4450   -7.4237 C   0  0  2  0  0  0  0  0  0  0  0  0
   21.0115   71.6485   -6.5651 C   0  0  2  0  0  0  0  0  0  0  0  0
   18.7104   71.6819   -7.5705 C   0  0  1  0  0  0  0  0  0  0  0  0
   20.3680   71.2305   -5.2422 C   0  0  1  0  0  0  0  0  0  0  0  0
   18.1979   71.1904   -6.2198 C   0  0  1  0  0  0  0  0  0  0  0  0
   21.4160   73.1158   -8.6600 H   0  0  0  0  0  0  0  0  0  0  0  0
   22.5873   72.6906   -7.1260 H   0  0  0  0  0  0  0  0  0  0  0  0
   18.0453   72.8674   -9.0023 H   0  0  0  0  0  0  0  0  0  0  0  0
   16.5356   69.8798   -5.2096 O   0  0  0  0  0  0  0  0  0  0  0  0
   16.7752   69.6952   -7.4696 O   0  0  0  0  0  0  0  0  0  0  0  0
   17.1098   70.1826   -6.4002 C   0  0  0  0  0  0  0  0  0  0  0  0
  1  4  1  0
  1 24  1  0
  1  2  1  1
  1  3  2  0
 25 28  1  0
 25 24  1  0
 25 26  1  1
 25 27  2  0
  6 11  1  0
  6 12  1  0
 29 36  1  0
 29 37  1  0
  9  7  1  1
  7 13  1  0
 10  8  1  1
  8 14  1  0
  4  5  1  0
 36 28  1  6
 33 30  1  6
 30 38  1  0
 34 31  1  1
 31 39  1  0
 35 32  1  1
 32 40  1  0
 41 43  1  0
 15 19  2  0
 42 43  2  0
 16 22  2  0
 12 17  1  6
 17 19  1  0
 17 20  1  0
 18 19  1  0
 18 22  1  0
 18 23  1  0
  9 10  1  0
  9 11  1  0
 10 12  1  0
 11  5  1  6
 33 34  1  0
 33 35  1  0
 34 36  1  0
 35 37  1  0
 37 43  1  6
 20 21  2  0
 21 22  1  0
M  CHG  3   2  -1  26  -1  41  -1
M  END
>  <COMPND>  (20) 
    udp_gluA.pdb 

>  <AUTHOR>  (20) 
    GENERATED BY OPEN BABEL 3.1.1

>  <MASTER>  (20) 
        0    0    0    0    0    0    0    0   56    0   56    0

>  <minimizedAffinity>  (20) 
-6.52568

>  <CNNscore>  (20) 
0.3412503004

>  <CNNaffinity>  (20) 
4.0193948746

>  <CNN_VS>  (20) 
1.3716197014

>  <CNNaffinity_variance>  (20) 
0.0971524492

$$$$
21
     RDKit          3D

 43 45  0  0  0  0  0  0  0  0999 V2000
   20.9230   71.6683   -1.0469 P   0  0  2  0  0  0  0  0  0  0  0  0
   21.5264   70.8440    0.2082 O   0  0  0  0  0  0  0  0  0  0  0  0
   19.6559   72.4197   -0.7611 O   0  0  0  0  0  0  0  0  0  0  0  0
   20.8354   70.5670   -2.2291 O   0  0  0  0  0  0  0  0  0  0  0  0
   20.0950   70.8828   -3.3938 C   0  0  0  0  0  0  0  0  0  0  0  0
   20.6081   70.4266   -5.6973 O   0  0  0  0  0  0  0  0  0  0  0  0
   22.3543   72.8622   -5.5974 O   0  0  0  0  0  0  0  0  0  0  0  0
   20.1129   73.7868   -6.8452 O   0  0  0  0  0  0  0  0  0  0  0  0
   21.1023   72.6209   -4.9548 C   0  0  1  0  0  0  0  0  0  0  0  0
   19.9738   72.6941   -5.9614 C   0  0  2  0  0  0  0  0  0  0  0  0
   21.0628   71.1571   -4.5377 C   0  0  1  0  0  0  0  0  0  0  0  0
   20.0923   71.3534   -6.6660 C   0  0  2  0  0  0  0  0  0  0  0  0
   22.4029   73.7913   -5.8730 H   0  0  0  0  0  0  0  0  0  0  0  0
   20.0296   74.6167   -6.3489 H   0  0  0  0  0  0  0  0  0  0  0  0
   19.5136   70.8161   -9.3776 O   0  0  0  0  0  0  0  0  0  0  0  0
   15.2049   69.5115   -8.3890 O   0  0  0  0  0  0  0  0  0  0  0  0
   18.8274   70.8724   -7.1450 N   0  0  0  0  0  0  0  0  0  0  0  0
   17.3679   70.1678   -8.8828 N   0  0  0  0  0  0  0  0  0  0  0  0
   18.6402   70.6346   -8.5273 C   0  0  0  0  0  0  0  0  0  0  0  0
   17.7899   70.6398   -6.2504 C   0  0  0  0  0  0  0  0  0  0  0  0
   16.5826   70.1947   -6.6042 C   0  0  0  0  0  0  0  0  0  0  0  0
   16.3043   69.9220   -8.0296 C   0  0  0  0  0  0  0  0  0  0  0  0
   17.2130   69.9969   -9.8399 H   0  0  0  0  0  0  0  0  0  0  0  0
   22.1664   72.5943   -1.5044 O   0  0  0  0  0  0  0  0  0  0  0  0
   23.6825   72.2095   -1.9129 P   0  0  2  0  0  0  0  0  0  0  0  0
   24.0703   73.3412   -3.0035 O   0  0  0  0  0  0  0  0  0  0  0  0
   23.8502   70.7990   -2.3991 O   0  0  0  0  0  0  0  0  0  0  0  0
   24.5630   72.5786   -0.6125 O   0  0  0  0  0  0  0  0  0  0  0  0
   23.5858   72.6384    1.5440 O   0  0  0  0  0  0  0  0  0  0  0  0
   27.0283   74.8489    2.1193 O   0  0  0  0  0  0  0  0  0  0  0  0
   25.4276   75.2034   -0.2986 O   0  0  0  0  0  0  0  0  0  0  0  0
   26.8634   72.1207    3.1096 O   0  0  0  0  0  0  0  0  0  0  0  0
   26.2168   73.8284    1.5378 C   0  0  2  0  0  0  0  0  0  0  0  0
   25.0121   74.4654    0.8448 C   0  0  2  0  0  0  0  0  0  0  0  0
   25.7540   72.8958    2.6594 C   0  0  1  0  0  0  0  0  0  0  0  0
   24.0042   73.4002    0.4109 C   0  0  1  0  0  0  0  0  0  0  0  0
   24.6592   71.9474    2.1792 C   0  0  1  0  0  0  0  0  0  0  0  0
   27.3341   75.4538    1.4252 H   0  0  0  0  0  0  0  0  0  0  0  0
   26.0675   75.8810   -0.0306 H   0  0  0  0  0  0  0  0  0  0  0  0
   27.5675   72.7124    3.4179 H   0  0  0  0  0  0  0  0  0  0  0  0
   22.6435   71.4143    3.2535 O   0  0  0  0  0  0  0  0  0  0  0  0
   24.5693   70.6901    4.2365 O   0  0  0  0  0  0  0  0  0  0  0  0
   23.9904   71.2800    3.3365 C   0  0  0  0  0  0  0  0  0  0  0  0
  1  4  1  0
  1 24  1  0
  1  2  1  1
  1  3  2  0
 25 28  1  0
 25 24  1  0
 25 26  1  6
 25 27  2  0
  6 11  1  0
  6 12  1  0
 29 36  1  0
 29 37  1  0
  9  7  1  6
  7 13  1  0
 10  8  1  6
  8 14  1  0
  4  5  1  0
 36 28  1  6
 33 30  1  1
 30 38  1  0
 34 31  1  6
 31 39  1  0
 35 32  1  6
 32 40  1  0
 41 43  1  0
 15 19  2  0
 42 43  2  0
 16 22  2  0
 12 17  1  1
 17 19  1  0
 17 20  1  0
 18 19  1  0
 18 22  1  0
 18 23  1  0
  9 10  1  0
  9 11  1  0
 10 12  1  0
 11  5  1  1
 33 34  1  0
 33 35  1  0
 34 36  1  0
 35 37  1  0
 37 43  1  1
 20 21  2  0
 21 22  1  0
M  CHG  3   2  -1  26  -1  41  -1
M  END
>  <COMPND>  (21) 
    udp_gluA.pdb 

>  <AUTHOR>  (21) 
    GENERATED BY OPEN BABEL 3.1.1

>  <MASTER>  (21) 
        0    0    0    0    0    0    0    0   56    0   56    0

>  <minimizedAffinity>  (21) 
-7.43447

>  <CNNscore>  (21) 
0.7557912469

>  <CNNaffinity>  (21) 
4.5806355476

>  <CNN_VS>  (21) 
3.4620041847

>  <CNNaffinity_variance>  (21) 
0.0667883232

$$$$
22
     RDKit          3D

 43 45  0  0  0  0  0  0  0  0999 V2000
   21.7890   74.1423   -2.3048 P   0  0  2  0  0  0  0  0  0  0  0  0
   20.2289   74.3537   -1.9304 O   0  0  0  0  0  0  0  0  0  0  0  0
   22.4747   75.3519   -2.8691 O   0  0  0  0  0  0  0  0  0  0  0  0
   21.7871   72.8301   -3.2514 O   0  0  0  0  0  0  0  0  0  0  0  0
   20.7338   72.6708   -4.1840 C   0  0  0  0  0  0  0  0  0  0  0  0
   20.8393   71.9244   -6.4664 O   0  0  0  0  0  0  0  0  0  0  0  0
   21.5824   74.7456   -7.1594 O   0  0  0  0  0  0  0  0  0  0  0  0
   18.9385   74.6464   -7.8199 O   0  0  0  0  0  0  0  0  0  0  0  0
   20.6777   74.2681   -6.1634 C   0  0  1  0  0  0  0  0  0  0  0  0
   19.4000   73.7751   -6.8088 C   0  0  2  0  0  0  0  0  0  0  0  0
   21.2554   72.9858   -5.5801 C   0  0  1  0  0  0  0  0  0  0  0  0
   19.8234   72.4210   -7.3522 C   0  0  2  0  0  0  0  0  0  0  0  0
   21.2345   75.5646   -7.5467 H   0  0  0  0  0  0  0  0  0  0  0  0
   18.6811   75.4941   -7.4235 H   0  0  0  0  0  0  0  0  0  0  0  0
   19.1155   70.8936   -9.6199 O   0  0  0  0  0  0  0  0  0  0  0  0
   15.6403   68.8505   -7.3854 O   0  0  0  0  0  0  0  0  0  0  0  0
   18.7379   71.4823   -7.3907 N   0  0  0  0  0  0  0  0  0  0  0  0
   17.3847   69.8782   -8.5051 N   0  0  0  0  0  0  0  0  0  0  0  0
   18.4661   70.7659   -8.5802 C   0  0  0  0  0  0  0  0  0  0  0  0
   17.9574   71.2777   -6.2594 C   0  0  0  0  0  0  0  0  0  0  0  0
   16.9300   70.4281   -6.2030 C   0  0  0  0  0  0  0  0  0  0  0  0
   16.5789   69.6411   -7.4033 C   0  0  0  0  0  0  0  0  0  0  0  0
   17.1749   69.3696   -9.3216 H   0  0  0  0  0  0  0  0  0  0  0  0
   22.4225   73.5926   -0.9230 O   0  0  0  0  0  0  0  0  0  0  0  0
   23.5629   72.4805   -0.6465 P   0  0  2  0  0  0  0  0  0  0  0  0
   24.8256   73.0254   -1.5003 O   0  0  0  0  0  0  0  0  0  0  0  0
   23.1487   71.0771   -0.9824 O   0  0  0  0  0  0  0  0  0  0  0  0
   23.9866   72.7030    0.8940 O   0  0  0  0  0  0  0  0  0  0  0  0
   25.7092   71.9543    2.3368 O   0  0  0  0  0  0  0  0  0  0  0  0
   22.3773   71.6075    4.7548 O   0  0  0  0  0  0  0  0  0  0  0  0
   22.2642   70.7923    1.9517 O   0  0  0  0  0  0  0  0  0  0  0  0
   24.2421   73.8030    5.1462 O   0  0  0  0  0  0  0  0  0  0  0  0
   23.1848   72.1724    3.7220 C   0  0  2  0  0  0  0  0  0  0  0  0
   23.4600   71.1158    2.6517 C   0  0  2  0  0  0  0  0  0  0  0  0
   24.4965   72.6454    4.3526 C   0  0  1  0  0  0  0  0  0  0  0  0
   24.5049   71.6103    1.6506 C   0  0  1  0  0  0  0  0  0  0  0  0
   25.5300   73.0015    3.2878 C   0  0  1  0  0  0  0  0  0  0  0  0
   21.5381   71.2998    4.3775 H   0  0  0  0  0  0  0  0  0  0  0  0
   21.5966   70.4781    2.5810 H   0  0  0  0  0  0  0  0  0  0  0  0
   23.5858   73.5898    5.8278 H   0  0  0  0  0  0  0  0  0  0  0  0
   27.7797   72.3385    3.2598 O   0  0  0  0  0  0  0  0  0  0  0  0
   27.1680   73.8764    4.8282 O   0  0  0  0  0  0  0  0  0  0  0  0
   26.8888   73.1411    3.8931 C   0  0  0  0  0  0  0  0  0  0  0  0
  1  4  1  0
  1 24  1  0
  1  2  1  1
  1  3  2  0
 25 28  1  0
 25 24  1  0
 25 26  1  6
 25 27  2  0
  6 11  1  0
  6 12  1  0
 29 36  1  0
 29 37  1  0
  9  7  1  6
  7 13  1  0
 10  8  1  6
  8 14  1  0
  4  5  1  0
 36 28  1  1
 33 30  1  1
 30 38  1  0
 34 31  1  6
 31 39  1  0
 35 32  1  6
 32 40  1  0
 41 43  1  0
 15 19  2  0
 42 43  2  0
 16 22  2  0
 12 17  1  1
 17 19  1  0
 17 20  1  0
 18 19  1  0
 18 22  1  0
 18 23  1  0
  9 10  1  0
  9 11  1  0
 10 12  1  0
 11  5  1  1
 33 34  1  0
 33 35  1  0
 34 36  1  0
 35 37  1  0
 37 43  1  1
 20 21  2  0
 21 22  1  0
M  CHG  3   2  -1  26  -1  41  -1
M  END
>  <COMPND>  (22) 
    udp_gluA.pdb 

>  <AUTHOR>  (22) 
    GENERATED BY OPEN BABEL 3.1.1

>  <MASTER>  (22) 
        0    0    0    0    0    0    0    0   56    0   56    0

>  <minimizedAffinity>  (22) 
-6.52292

>  <CNNscore>  (22) 
0.7202838063

>  <CNNaffinity>  (22) 
4.3849339485

>  <CNN_VS>  (22) 
3.1583969593

>  <CNNaffinity_variance>  (22) 
0.0911538973

$$$$
23
     RDKit          3D

 43 45  0  0  0  0  0  0  0  0999 V2000
   20.7040   71.2788   -2.2715 P   0  0  2  0  0  0  0  0  0  0  0  0
   20.5095   70.3675   -3.5946 O   0  0  0  0  0  0  0  0  0  0  0  0
   20.7331   70.5192   -0.9776 O   0  0  0  0  0  0  0  0  0  0  0  0
   19.5473   72.4028   -2.4005 O   0  0  0  0  0  0  0  0  0  0  0  0
   19.2343   72.9064   -3.6861 C   0  0  0  0  0  0  0  0  0  0  0  0
   17.4254   73.0675   -5.2608 O   0  0  0  0  0  0  0  0  0  0  0  0
   15.6837   71.9480   -3.0917 O   0  0  0  0  0  0  0  0  0  0  0  0
   16.1433   69.7719   -4.6694 O   0  0  0  0  0  0  0  0  0  0  0  0
   17.0430   71.6445   -3.4061 C   0  0  1  0  0  0  0  0  0  0  0  0
   17.1146   70.7971   -4.6587 C   0  0  2  0  0  0  0  0  0  0  0  0
   17.7205   72.9326   -3.8537 C   0  0  1  0  0  0  0  0  0  0  0  0
   16.8881   71.8287   -5.7507 C   0  0  2  0  0  0  0  0  0  0  0  0
   15.2301   71.1402   -2.8031 H   0  0  0  0  0  0  0  0  0  0  0  0
   16.3314   69.1409   -3.9564 H   0  0  0  0  0  0  0  0  0  0  0  0
   15.7280   70.2876   -7.8137 O   0  0  0  0  0  0  0  0  0  0  0  0
   19.5270   70.5682  -10.4085 O   0  0  0  0  0  0  0  0  0  0  0  0
   17.5516   71.4841   -6.9762 N   0  0  0  0  0  0  0  0  0  0  0  0
   17.6216   70.4280   -9.1036 N   0  0  0  0  0  0  0  0  0  0  0  0
   16.8798   70.7051   -7.9478 C   0  0  0  0  0  0  0  0  0  0  0  0
   18.8516   71.9175   -7.2066 C   0  0  0  0  0  0  0  0  0  0  0  0
   19.5457   71.6455   -8.3134 C   0  0  0  0  0  0  0  0  0  0  0  0
   18.9169   70.8363   -9.3779 C   0  0  0  0  0  0  0  0  0  0  0  0
   17.1756   69.8854   -9.7936 H   0  0  0  0  0  0  0  0  0  0  0  0
   22.0534   72.1072   -2.5965 O   0  0  0  0  0  0  0  0  0  0  0  0
   23.5954   71.6303   -2.6885 P   0  0  2  0  0  0  0  0  0  0  0  0
   24.1408   72.3945   -4.0072 O   0  0  0  0  0  0  0  0  0  0  0  0
   23.7786   70.1404   -2.7171 O   0  0  0  0  0  0  0  0  0  0  0  0
   24.3273   72.3713   -1.4566 O   0  0  0  0  0  0  0  0  0  0  0  0
   23.1219   72.2260    0.5770 O   0  0  0  0  0  0  0  0  0  0  0  0
   26.1307   74.8770    1.5707 O   0  0  0  0  0  0  0  0  0  0  0  0
   24.7695   75.0801   -1.0062 O   0  0  0  0  0  0  0  0  0  0  0  0
   26.2491   72.1227    2.4932 O   0  0  0  0  0  0  0  0  0  0  0  0
   25.5413   73.7719    0.8856 C   0  0  2  0  0  0  0  0  0  0  0  0
   24.3410   74.2556    0.0715 C   0  0  2  0  0  0  0  0  0  0  0  0
   25.0964   72.7488    1.9332 C   0  0  1  0  0  0  0  0  0  0  0  0
   23.5487   73.0741   -0.4898 C   0  0  1  0  0  0  0  0  0  0  0  0
   24.2070   71.6723    1.3180 C   0  0  1  0  0  0  0  0  0  0  0  0
   26.4211   75.5403    0.9250 H   0  0  0  0  0  0  0  0  0  0  0  0
   25.2732   75.8317   -0.6573 H   0  0  0  0  0  0  0  0  0  0  0  0
   26.8237   72.7971    2.8880 H   0  0  0  0  0  0  0  0  0  0  0  0
   24.3675   69.9818    2.9360 O   0  0  0  0  0  0  0  0  0  0  0  0
   22.3505   71.0220    2.7152 O   0  0  0  0  0  0  0  0  0  0  0  0
   23.5177   70.8817    2.3820 C   0  0  0  0  0  0  0  0  0  0  0  0
  1  4  1  0
  1 24  1  0
  1  2  1  6
  1  3  2  0
 25 28  1  0
 25 24  1  0
 25 26  1  6
 25 27  2  0
  6 11  1  0
  6 12  1  0
 29 36  1  0
 29 37  1  0
  9  7  1  6
  7 13  1  0
 10  8  1  1
  8 14  1  0
  4  5  1  0
 36 28  1  6
 33 30  1  1
 30 38  1  0
 34 31  1  6
 31 39  1  0
 35 32  1  6
 32 40  1  0
 41 43  1  0
 15 19  2  0
 42 43  2  0
 16 22  2  0
 12 17  1  6
 17 19  1  0
 17 20  1  0
 18 19  1  0
 18 22  1  0
 18 23  1  0
  9 10  1  0
  9 11  1  0
 10 12  1  0
 11  5  1  6
 33 34  1  0
 33 35  1  0
 34 36  1  0
 35 37  1  0
 37 43  1  1
 20 21  2  0
 21 22  1  0
M  CHG  3   2  -1  26  -1  41  -1
M  END
>  <COMPND>  (23) 
    udp_gluA.pdb 

>  <AUTHOR>  (23) 
    GENERATED BY OPEN BABEL 3.1.1

>  <MASTER>  (23) 
        0    0    0    0    0    0    0    0   56    0   56    0

>  <minimizedAffinity>  (23) 
-7.16660

>  <CNNscore>  (23) 
0.7086633444

>  <CNNaffinity>  (23) 
4.7024450302

>  <CNN_VS>  (23) 
3.3324503899

>  <CNNaffinity_variance>  (23) 
0.2037679702

$$$$
24
     RDKit          3D

 43 45  0  0  0  0  0  0  0  0999 V2000
   17.0859   71.3623   -1.0574 P   0  0  2  0  0  0  0  0  0  0  0  0
   18.1178   70.3194   -1.7402 O   0  0  0  0  0  0  0  0  0  0  0  0
   17.7088   72.6301   -0.5508 O   0  0  0  0  0  0  0  0  0  0  0  0
   16.3074   70.4720    0.0468 O   0  0  0  0  0  0  0  0  0  0  0  0
   14.9119   70.2825   -0.0991 C   0  0  0  0  0  0  0  0  0  0  0  0
   14.4249   68.0269    0.5738 O   0  0  0  0  0  0  0  0  0  0  0  0
   13.5382   67.5722   -2.2543 O   0  0  0  0  0  0  0  0  0  0  0  0
   11.1747   67.8988   -0.9340 O   0  0  0  0  0  0  0  0  0  0  0  0
   13.4003   68.7370   -1.4403 C   0  0  1  0  0  0  0  0  0  0  0  0
   12.3224   68.5239   -0.3986 C   0  0  2  0  0  0  0  0  0  0  0  0
   14.6521   68.8615   -0.5825 C   0  0  1  0  0  0  0  0  0  0  0  0
   13.0379   67.6565    0.6228 C   0  0  2  0  0  0  0  0  0  0  0  0
   12.7501   67.4715   -2.8115 H   0  0  0  0  0  0  0  0  0  0  0  0
   10.7549   68.4909   -1.5784 H   0  0  0  0  0  0  0  0  0  0  0  0
   10.7902   66.3401    1.7142 O   0  0  0  0  0  0  0  0  0  0  0  0
   11.2437   68.5211    5.7493 O   0  0  0  0  0  0  0  0  0  0  0  0
   12.5467   67.8615    1.9561 N   0  0  0  0  0  0  0  0  0  0  0  0
   11.0176   67.4284    3.7225 N   0  0  0  0  0  0  0  0  0  0  0  0
   11.4096   67.1501    2.4065 C   0  0  0  0  0  0  0  0  0  0  0  0
   13.1897   68.7569    2.8021 C   0  0  0  0  0  0  0  0  0  0  0  0
   12.8044   69.0115    4.0541 C   0  0  0  0  0  0  0  0  0  0  0  0
   11.6245   68.3106    4.6017 C   0  0  0  0  0  0  0  0  0  0  0  0
   10.2271   66.9466    4.0578 H   0  0  0  0  0  0  0  0  0  0  0  0
   15.9693   71.5733   -2.2070 O   0  0  0  0  0  0  0  0  0  0  0  0
   15.8396   70.9414   -3.6894 P   0  0  2  0  0  0  0  0  0  0  0  0
   14.6083   71.7685   -4.3376 O   0  0  0  0  0  0  0  0  0  0  0  0
   15.6621   69.4508   -3.7101 O   0  0  0  0  0  0  0  0  0  0  0  0
   17.1447   71.4713   -4.4758 O   0  0  0  0  0  0  0  0  0  0  0  0
   17.3594   69.7992   -6.1393 O   0  0  0  0  0  0  0  0  0  0  0  0
   20.0063   72.6707   -7.4871 O   0  0  0  0  0  0  0  0  0  0  0  0
   19.8703   71.9984   -4.6474 O   0  0  0  0  0  0  0  0  0  0  0  0
   17.4218   72.3475   -8.7782 O   0  0  0  0  0  0  0  0  0  0  0  0
   18.8347   72.1824   -6.8336 C   0  0  2  0  0  0  0  0  0  0  0  0
   19.2374   71.2578   -5.6845 C   0  0  2  0  0  0  0  0  0  0  0  0
   18.0018   71.4180   -7.8650 C   0  0  1  0  0  0  0  0  0  0  0  0
   18.0174   70.5373   -5.1089 C   0  0  1  0  0  0  0  0  0  0  0  0
   16.8812   70.6248   -7.1989 C   0  0  1  0  0  0  0  0  0  0  0  0
   20.5513   73.1601   -6.8509 H   0  0  0  0  0  0  0  0  0  0  0  0
   20.6451   72.4584   -5.0057 H   0  0  0  0  0  0  0  0  0  0  0  0
   18.1245   72.8590   -9.2090 H   0  0  0  0  0  0  0  0  0  0  0  0
   17.2532   69.0974   -8.9396 O   0  0  0  0  0  0  0  0  0  0  0  0
   15.1047   69.3503   -8.2191 O   0  0  0  0  0  0  0  0  0  0  0  0
   16.2903   69.6381   -8.1525 C   0  0  0  0  0  0  0  0  0  0  0  0
  1  4  1  0
  1 24  1  0
  1  2  1  6
  1  3  2  0
 25 28  1  0
 25 24  1  0
 25 26  1  6
 25 27  2  0
  6 11  1  0
  6 12  1  0
 29 36  1  0
 29 37  1  0
  9  7  1  6
  7 13  1  0
 10  8  1  6
  8 14  1  0
  4  5  1  0
 36 28  1  6
 33 30  1  6
 30 38  1  0
 34 31  1  1
 31 39  1  0
 35 32  1  6
 32 40  1  0
 41 43  1  0
 15 19  2  0
 42 43  2  0
 16 22  2  0
 12 17  1  1
 17 19  1  0
 17 20  1  0
 18 19  1  0
 18 22  1  0
 18 23  1  0
  9 10  1  0
  9 11  1  0
 10 12  1  0
 11  5  1  1
 33 34  1  0
 33 35  1  0
 34 36  1  0
 35 37  1  0
 37 43  1  6
 20 21  2  0
 21 22  1  0
M  CHG  3   2  -1  26  -1  41  -1
M  END
>  <COMPND>  (24) 
    udp_gluA.pdb 

>  <AUTHOR>  (24) 
    GENERATED BY OPEN BABEL 3.1.1

>  <MASTER>  (24) 
        0    0    0    0    0    0    0    0   56    0   56    0

>  <minimizedAffinity>  (24) 
-6.59210

>  <CNNscore>  (24) 
0.6383463144

>  <CNNaffinity>  (24) 
4.1723608971

>  <CNN_VS>  (24) 
2.6634111404

>  <CNNaffinity_variance>  (24) 
0.0706807226

$$$$
25
     RDKit          3D

 43 45  0  0  0  0  0  0  0  0999 V2000
   20.5554   75.1037   -3.2021 P   0  0  2  0  0  0  0  0  0  0  0  0
   21.0779   75.5603   -1.7402 O   0  0  0  0  0  0  0  0  0  0  0  0
   20.5059   76.1981   -4.2276 O   0  0  0  0  0  0  0  0  0  0  0  0
   19.1501   74.3616   -2.8981 O   0  0  0  0  0  0  0  0  0  0  0  0
   18.4645   73.7455   -3.9727 C   0  0  0  0  0  0  0  0  0  0  0  0
   17.4020   71.7054   -4.6705 O   0  0  0  0  0  0  0  0  0  0  0  0
   18.4798   70.4989   -2.1458 O   0  0  0  0  0  0  0  0  0  0  0  0
   20.2289   69.5946   -4.0323 O   0  0  0  0  0  0  0  0  0  0  0  0
   19.0720   71.4715   -3.0070 C   0  0  1  0  0  0  0  0  0  0  0  0
   19.5626   70.8149   -4.2800 C   0  0  2  0  0  0  0  0  0  0  0  0
   17.9637   72.3789   -3.5232 C   0  0  1  0  0  0  0  0  0  0  0  0
   18.2704   70.6284   -5.0569 C   0  0  2  0  0  0  0  0  0  0  0  0
   19.1687   69.9074   -1.8035 H   0  0  0  0  0  0  0  0  0  0  0  0
   21.0448   69.7668   -3.5357 H   0  0  0  0  0  0  0  0  0  0  0  0
   16.5619   69.4219   -6.9547 O   0  0  0  0  0  0  0  0  0  0  0  0
   19.1449   70.8848  -10.4806 O   0  0  0  0  0  0  0  0  0  0  0  0
   18.4728   70.6785   -6.4772 N   0  0  0  0  0  0  0  0  0  0  0  0
   17.8506   70.1508   -8.7089 N   0  0  0  0  0  0  0  0  0  0  0  0
   17.5553   70.0389   -7.3439 C   0  0  0  0  0  0  0  0  0  0  0  0
   19.5683   71.3562   -6.9982 C   0  0  0  0  0  0  0  0  0  0  0  0
   19.8365   71.4543   -8.3018 C   0  0  0  0  0  0  0  0  0  0  0  0
   18.9278   70.8134   -9.2748 C   0  0  0  0  0  0  0  0  0  0  0  0
   17.2271   69.7119   -9.3318 H   0  0  0  0  0  0  0  0  0  0  0  0
   21.5410   73.8774   -3.5731 O   0  0  0  0  0  0  0  0  0  0  0  0
   23.1528   73.8046   -3.6750 P   0  0  2  0  0  0  0  0  0  0  0  0
   23.5785   75.3482   -3.9125 O   0  0  0  0  0  0  0  0  0  0  0  0
   23.6615   72.8550   -4.7207 O   0  0  0  0  0  0  0  0  0  0  0  0
   23.6433   73.4733   -2.1743 O   0  0  0  0  0  0  0  0  0  0  0  0
   25.4694   72.3268   -1.1946 O   0  0  0  0  0  0  0  0  0  0  0  0
   22.3162   71.0395    1.1439 O   0  0  0  0  0  0  0  0  0  0  0  0
   22.0191   71.2548   -1.7543 O   0  0  0  0  0  0  0  0  0  0  0  0
   24.1791   73.0218    2.1691 O   0  0  0  0  0  0  0  0  0  0  0  0
   23.0443   71.9581    0.3290 C   0  0  2  0  0  0  0  0  0  0  0  0
   23.2567   71.3537   -1.0591 C   0  0  2  0  0  0  0  0  0  0  0  0
   24.3910   72.2253    1.0050 C   0  0  1  0  0  0  0  0  0  0  0  0
   24.2246   72.2035   -1.8836 C   0  0  1  0  0  0  0  0  0  0  0  0
   25.3446   72.9675    0.0731 C   0  0  1  0  0  0  0  0  0  0  0  0
   21.4565   70.8546    0.7341 H   0  0  0  0  0  0  0  0  0  0  0  0
   21.4001   70.7170   -1.2367 H   0  0  0  0  0  0  0  0  0  0  0  0
   23.5737   72.5608    2.7705 H   0  0  0  0  0  0  0  0  0  0  0  0
   27.5831   72.3736   -0.2978 O   0  0  0  0  0  0  0  0  0  0  0  0
   27.0838   73.3515    1.7006 O   0  0  0  0  0  0  0  0  0  0  0  0
   26.7402   72.9331    0.6052 C   0  0  0  0  0  0  0  0  0  0  0  0
  1  4  1  0
  1 24  1  0
  1  2  1  1
  1  3  2  0
 25 28  1  0
 25 24  1  0
 25 26  1  6
 25 27  2  0
  6 11  1  0
  6 12  1  0
 29 36  1  0
 29 37  1  0
  9  7  1  1
  7 13  1  0
 10  8  1  1
  8 14  1  0
  4  5  1  0
 36 28  1  1
 33 30  1  1
 30 38  1  0
 34 31  1  6
 31 39  1  0
 35 32  1  1
 32 40  1  0
 41 43  1  0
 15 19  2  0
 42 43  2  0
 16 22  2  0
 12 17  1  6
 17 19  1  0
 17 20  1  0
 18 19  1  0
 18 22  1  0
 18 23  1  0
  9 10  1  0
  9 11  1  0
 10 12  1  0
 11  5  1  6
 33 34  1  0
 33 35  1  0
 34 36  1  0
 35 37  1  0
 37 43  1  1
 20 21  2  0
 21 22  1  0
M  CHG  3   2  -1  26  -1  41  -1
M  END
>  <COMPND>  (25) 
    udp_gluA.pdb 

>  <AUTHOR>  (25) 
    GENERATED BY OPEN BABEL 3.1.1

>  <MASTER>  (25) 
        0    0    0    0    0    0    0    0   56    0   56    0

>  <minimizedAffinity>  (25) 
-7.14802

>  <CNNscore>  (25) 
0.5735967755

>  <CNNaffinity>  (25) 
4.3915052414

>  <CNN_VS>  (25) 
2.5189533234

>  <CNNaffinity_variance>  (25) 
0.0444861911

$$$$
26
     RDKit          3D

 43 45  0  0  0  0  0  0  0  0999 V2000
   22.4556   71.2862   -1.7062 P   0  0  2  0  0  0  0  0  0  0  0  0
   23.3325   70.2196   -2.5502 O   0  0  0  0  0  0  0  0  0  0  0  0
   21.3599   70.6878   -0.8736 O   0  0  0  0  0  0  0  0  0  0  0  0
   21.9852   72.3665   -2.8151 O   0  0  0  0  0  0  0  0  0  0  0  0
   21.1873   71.9214   -3.8967 C   0  0  0  0  0  0  0  0  0  0  0  0
   19.2563   72.8532   -4.9833 O   0  0  0  0  0  0  0  0  0  0  0  0
   17.7082   71.9851   -2.5664 O   0  0  0  0  0  0  0  0  0  0  0  0
   17.1171   70.0394   -4.3831 O   0  0  0  0  0  0  0  0  0  0  0  0
   18.8055   71.3424   -3.2155 C   0  0  1  0  0  0  0  0  0  0  0  0
   18.3505   70.7144   -4.5158 C   0  0  2  0  0  0  0  0  0  0  0  0
   19.7623   72.4227   -3.7011 C   0  0  1  0  0  0  0  0  0  0  0  0
   18.2609   71.9210   -5.4344 C   0  0  2  0  0  0  0  0  0  0  0  0
   17.0832   71.3149   -2.2474 H   0  0  0  0  0  0  0  0  0  0  0  0
   17.2266   69.2796   -3.7892 H   0  0  0  0  0  0  0  0  0  0  0  0
   16.2991   71.0284   -7.2596 O   0  0  0  0  0  0  0  0  0  0  0  0
   19.3767   70.6657  -10.6714 O   0  0  0  0  0  0  0  0  0  0  0  0
   18.5220   71.5863   -6.8058 N   0  0  0  0  0  0  0  0  0  0  0  0
   17.8340   70.8476   -8.9568 N   0  0  0  0  0  0  0  0  0  0  0  0
   17.4657   71.1476   -7.6387 C   0  0  0  0  0  0  0  0  0  0  0  0
   19.8111   71.6954   -7.3129 C   0  0  0  0  0  0  0  0  0  0  0  0
   20.1467   71.4060   -8.5717 C   0  0  0  0  0  0  0  0  0  0  0  0
   19.1022   70.9398   -9.5071 C   0  0  0  0  0  0  0  0  0  0  0  0
   17.1159   70.5382   -9.5552 H   0  0  0  0  0  0  0  0  0  0  0  0
   23.5761   72.0928   -0.8655 O   0  0  0  0  0  0  0  0  0  0  0  0
   23.5718   73.5899   -0.2553 P   0  0  2  0  0  0  0  0  0  0  0  0
   21.9954   73.9133   -0.0800 O   0  0  0  0  0  0  0  0  0  0  0  0
   24.3209   74.5942   -1.0825 O   0  0  0  0  0  0  0  0  0  0  0  0
   24.1225   73.4194    1.2514 O   0  0  0  0  0  0  0  0  0  0  0  0
   25.8002   72.2285    2.4244 O   0  0  0  0  0  0  0  0  0  0  0  0
   22.4662   71.4953    4.7513 O   0  0  0  0  0  0  0  0  0  0  0  0
   22.2845   71.4156    1.8367 O   0  0  0  0  0  0  0  0  0  0  0  0
   24.4728   73.4033    5.6369 O   0  0  0  0  0  0  0  0  0  0  0  0
   23.3032   72.2494    3.8746 C   0  0  2  0  0  0  0  0  0  0  0  0
   23.5028   71.4790    2.5692 C   0  0  2  0  0  0  0  0  0  0  0  0
   24.6465   72.4674    4.5746 C   0  0  1  0  0  0  0  0  0  0  0  0
   24.5723   72.1423    1.7004 C   0  0  1  0  0  0  0  0  0  0  0  0
   25.6952   73.0137    3.6100 C   0  0  1  0  0  0  0  0  0  0  0  0
   21.6066   71.3444    4.3276 H   0  0  0  0  0  0  0  0  0  0  0  0
   21.6013   70.9960    2.3821 H   0  0  0  0  0  0  0  0  0  0  0  0
   23.8076   73.0676    6.2580 H   0  0  0  0  0  0  0  0  0  0  0  0
   27.2462   73.8647    5.1500 O   0  0  0  0  0  0  0  0  0  0  0  0
   27.9068   72.0884    3.8820 O   0  0  0  0  0  0  0  0  0  0  0  0
   27.0635   72.9130    4.2014 C   0  0  0  0  0  0  0  0  0  0  0  0
  1  4  1  0
  1 24  1  0
  1  2  1  6
  1  3  2  0
 25 28  1  0
 25 24  1  0
 25 26  1  1
 25 27  2  0
  6 11  1  0
  6 12  1  0
 29 36  1  0
 29 37  1  0
  9  7  1  6
  7 13  1  0
 10  8  1  1
  8 14  1  0
  4  5  1  0
 36 28  1  1
 33 30  1  1
 30 38  1  0
 34 31  1  6
 31 39  1  0
 35 32  1  1
 32 40  1  0
 41 43  1  0
 15 19  2  0
 42 43  2  0
 16 22  2  0
 12 17  1  6
 17 19  1  0
 17 20  1  0
 18 19  1  0
 18 22  1  0
 18 23  1  0
  9 10  1  0
  9 11  1  0
 10 12  1  0
 11  5  1  6
 33 34  1  0
 33 35  1  0
 34 36  1  0
 35 37  1  0
 37 43  1  1
 20 21  2  0
 21 22  1  0
M  CHG  3   2  -1  26  -1  41  -1
M  END
>  <COMPND>  (26) 
    udp_gluA.pdb 

>  <AUTHOR>  (26) 
    GENERATED BY OPEN BABEL 3.1.1

>  <MASTER>  (26) 
        0    0    0    0    0    0    0    0   56    0   56    0

>  <minimizedAffinity>  (26) 
-6.59426

>  <CNNscore>  (26) 
0.5632508993

>  <CNNaffinity>  (26) 
4.2478380203

>  <CNN_VS>  (26) 
2.3925986290

>  <CNNaffinity_variance>  (26) 
0.0573291183

$$$$
27
     RDKit          3D

 43 45  0  0  0  0  0  0  0  0999 V2000
   17.1764   73.0023   -1.6441 P   0  0  2  0  0  0  0  0  0  0  0  0
   17.9039   73.0477   -0.1993 O   0  0  0  0  0  0  0  0  0  0  0  0
   16.8737   74.3443   -2.2435 O   0  0  0  0  0  0  0  0  0  0  0  0
   15.9013   72.0349   -1.4069 O   0  0  0  0  0  0  0  0  0  0  0  0
   16.0399   70.9383   -0.5222 C   0  0  0  0  0  0  0  0  0  0  0  0
   15.6661   68.5691   -0.3654 O   0  0  0  0  0  0  0  0  0  0  0  0
   14.8802   68.6897   -3.2567 O   0  0  0  0  0  0  0  0  0  0  0  0
   12.4686   68.6045   -1.9868 O   0  0  0  0  0  0  0  0  0  0  0  0
   14.6547   69.6435   -2.2184 C   0  0  1  0  0  0  0  0  0  0  0  0
   13.5643   69.1569   -1.2875 C   0  0  2  0  0  0  0  0  0  0  0  0
   15.8747   69.6435   -1.3074 C   0  0  1  0  0  0  0  0  0  0  0  0
   14.3018   68.1272   -0.4488 C   0  0  2  0  0  0  0  0  0  0  0  0
   14.1139   68.6717   -3.8517 H   0  0  0  0  0  0  0  0  0  0  0  0
   12.0323   69.2995   -2.5051 H   0  0  0  0  0  0  0  0  0  0  0  0
   13.4497   65.7052    0.7277 O   0  0  0  0  0  0  0  0  0  0  0  0
   12.2601   67.8163    4.6485 O   0  0  0  0  0  0  0  0  0  0  0  0
   13.7654   68.0152    0.8780 N   0  0  0  0  0  0  0  0  0  0  0  0
   12.8570   66.7591    2.6790 N   0  0  0  0  0  0  0  0  0  0  0  0
   13.3666   66.7514    1.3739 C   0  0  0  0  0  0  0  0  0  0  0  0
   13.6402   69.1477    1.6734 C   0  0  0  0  0  0  0  0  0  0  0  0
   13.1528   69.1393    2.9156 C   0  0  0  0  0  0  0  0  0  0  0  0
   12.7126   67.8594    3.5085 C   0  0  0  0  0  0  0  0  0  0  0  0
   12.5709   65.8911    3.0452 H   0  0  0  0  0  0  0  0  0  0  0  0
   18.1726   72.0815   -2.5231 O   0  0  0  0  0  0  0  0  0  0  0  0
   19.6212   72.3995   -3.1666 P   0  0  2  0  0  0  0  0  0  0  0  0
   20.5057   71.1125   -2.7406 O   0  0  0  0  0  0  0  0  0  0  0  0
   20.2052   73.7175   -2.7473 O   0  0  0  0  0  0  0  0  0  0  0  0
   19.4069   72.2379   -4.7573 O   0  0  0  0  0  0  0  0  0  0  0  0
   18.6398   70.2249   -5.7415 O   0  0  0  0  0  0  0  0  0  0  0  0
   20.4764   72.0797   -8.9437 O   0  0  0  0  0  0  0  0  0  0  0  0
   21.7182   72.1165   -6.2997 O   0  0  0  0  0  0  0  0  0  0  0  0
   17.5760   72.0316   -8.7525 O   0  0  0  0  0  0  0  0  0  0  0  0
   19.7509   72.0152   -7.7159 C   0  0  2  0  0  0  0  0  0  0  0  0
   20.5998   71.3123   -6.6563 C   0  0  2  0  0  0  0  0  0  0  0  0
   18.4607   71.2324   -7.9695 C   0  0  1  0  0  0  0  0  0  0  0  0
   19.7763   71.0198   -5.4012 C   0  0  1  0  0  0  0  0  0  0  0  0
   17.7626   70.8703   -6.6618 C   0  0  1  0  0  0  0  0  0  0  0  0
   21.3006   72.5728   -8.8070 H   0  0  0  0  0  0  0  0  0  0  0  0
   22.2451   72.3062   -7.0914 H   0  0  0  0  0  0  0  0  0  0  0  0
   18.0084   72.2691   -9.5877 H   0  0  0  0  0  0  0  0  0  0  0  0
   16.6931   69.4489   -8.1906 O   0  0  0  0  0  0  0  0  0  0  0  0
   15.9480   69.4084   -6.0360 O   0  0  0  0  0  0  0  0  0  0  0  0
   16.7034   69.8422   -6.8929 C   0  0  0  0  0  0  0  0  0  0  0  0
  1  4  1  0
  1 24  1  0
  1  2  1  1
  1  3  2  0
 25 28  1  0
 25 24  1  0
 25 26  1  1
 25 27  2  0
  6 11  1  0
  6 12  1  0
 29 36  1  0
 29 37  1  0
  9  7  1  6
  7 13  1  0
 10  8  1  6
  8 14  1  0
  4  5  1  0
 36 28  1  6
 33 30  1  6
 30 38  1  0
 34 31  1  1
 31 39  1  0
 35 32  1  6
 32 40  1  0
 41 43  1  0
 15 19  2  0
 42 43  2  0
 16 22  2  0
 12 17  1  1
 17 19  1  0
 17 20  1  0
 18 19  1  0
 18 22  1  0
 18 23  1  0
  9 10  1  0
  9 11  1  0
 10 12  1  0
 11  5  1  1
 33 34  1  0
 33 35  1  0
 34 36  1  0
 35 37  1  0
 37 43  1  6
 20 21  2  0
 21 22  1  0
M  CHG  3   2  -1  26  -1  41  -1
M  END
>  <COMPND>  (27) 
    udp_gluA.pdb 

>  <AUTHOR>  (27) 
    GENERATED BY OPEN BABEL 3.1.1

>  <MASTER>  (27) 
        0    0    0    0    0    0    0    0   56    0   56    0

>  <minimizedAffinity>  (27) 
-6.73682

>  <CNNscore>  (27) 
0.5320545435

>  <CNNaffinity>  (27) 
4.2129178047

>  <CNN_VS>  (27) 
2.2415020466

>  <CNNaffinity_variance>  (27) 
0.1278347075

$$$$
28
     RDKit          3D

 43 45  0  0  0  0  0  0  0  0999 V2000
   22.4158   73.3716   -4.0639 P   0  0  2  0  0  0  0  0  0  0  0  0
   22.3384   74.8208   -3.3478 O   0  0  0  0  0  0  0  0  0  0  0  0
   23.7935   72.9401   -4.4734 O   0  0  0  0  0  0  0  0  0  0  0  0
   21.3265   73.4689   -5.2564 O   0  0  0  0  0  0  0  0  0  0  0  0
   20.1555   72.6780   -5.1685 C   0  0  0  0  0  0  0  0  0  0  0  0
   19.0828   70.8018   -6.2205 O   0  0  0  0  0  0  0  0  0  0  0  0
   21.6796   70.3575   -7.6526 O   0  0  0  0  0  0  0  0  0  0  0  0
   20.1584   71.5953   -9.5473 O   0  0  0  0  0  0  0  0  0  0  0  0
   21.0489   71.5845   -7.2848 C   0  0  1  0  0  0  0  0  0  0  0  0
   19.8672   71.8585   -8.1907 C   0  0  2  0  0  0  0  0  0  0  0  0
   20.3748   71.3800   -5.9349 C   0  0  1  0  0  0  0  0  0  0  0  0
   18.8131   70.9213   -7.6264 C   0  0  2  0  0  0  0  0  0  0  0  0
   22.1172   70.4635   -8.5122 H   0  0  0  0  0  0  0  0  0  0  0  0
   20.8342   72.2180   -9.8597 H   0  0  0  0  0  0  0  0  0  0  0  0
   16.5300   69.2973   -7.9821 O   0  0  0  0  0  0  0  0  0  0  0  0
   13.7500   72.9597   -8.3029 O   0  0  0  0  0  0  0  0  0  0  0  0
   17.4805   71.4243   -7.8051 N   0  0  0  0  0  0  0  0  0  0  0  0
   15.1477   71.1230   -8.1425 N   0  0  0  0  0  0  0  0  0  0  0  0
   16.4030   70.5232   -7.9758 C   0  0  0  0  0  0  0  0  0  0  0  0
   17.2510   72.7948   -7.8083 C   0  0  0  0  0  0  0  0  0  0  0  0
   16.0488   73.3516   -7.9682 C   0  0  0  0  0  0  0  0  0  0  0  0
   14.8699   72.4803   -8.1536 C   0  0  0  0  0  0  0  0  0  0  0  0
   14.3824   70.5159   -8.2653 H   0  0  0  0  0  0  0  0  0  0  0  0
   21.6960   72.3986   -2.9926 O   0  0  0  0  0  0  0  0  0  0  0  0
   22.3151   71.4005   -1.8816 P   0  0  2  0  0  0  0  0  0  0  0  0
   23.0682   70.2777   -2.7718 O   0  0  0  0  0  0  0  0  0  0  0  0
   21.3048   70.8499   -0.9172 O   0  0  0  0  0  0  0  0  0  0  0  0
   23.5073   72.2423   -1.1943 O   0  0  0  0  0  0  0  0  0  0  0  0
   23.0207   72.4887    1.1104 O   0  0  0  0  0  0  0  0  0  0  0  0
   26.5837   74.5533    0.7781 O   0  0  0  0  0  0  0  0  0  0  0  0
   24.5133   74.8345   -1.2636 O   0  0  0  0  0  0  0  0  0  0  0  0
   26.5379   71.9054    1.9772 O   0  0  0  0  0  0  0  0  0  0  0  0
   25.6297   73.5405    0.4584 C   0  0  2  0  0  0  0  0  0  0  0  0
   24.3277   74.1927   -0.0073 C   0  0  2  0  0  0  0  0  0  0  0  0
   25.3862   72.7058    1.7177 C   0  0  1  0  0  0  0  0  0  0  0  0
   23.2122   73.1547   -0.1383 C   0  0  1  0  0  0  0  0  0  0  0  0
   24.1801   71.7858    1.5516 C   0  0  1  0  0  0  0  0  0  0  0  0
   26.7543   75.0966   -0.0074 H   0  0  0  0  0  0  0  0  0  0  0  0
   25.2199   75.4942   -1.1879 H   0  0  0  0  0  0  0  0  0  0  0  0
   27.3127   72.4790    2.0848 H   0  0  0  0  0  0  0  0  0  0  0  0
   24.4445   71.8082    3.8821 O   0  0  0  0  0  0  0  0  0  0  0  0
   22.8973   70.3694    3.0246 O   0  0  0  0  0  0  0  0  0  0  0  0
   23.7528   71.2281    2.8702 C   0  0  0  0  0  0  0  0  0  0  0  0
  1  4  1  0
  1 24  1  0
  1  2  1  1
  1  3  2  0
 25 28  1  0
 25 24  1  0
 25 26  1  6
 25 27  2  0
  6 11  1  0
  6 12  1  0
 29 36  1  0
 29 37  1  0
  9  7  1  6
  7 13  1  0
 10  8  1  6
  8 14  1  0
  4  5  1  0
 36 28  1  6
 33 30  1  1
 30 38  1  0
 34 31  1  6
 31 39  1  0
 35 32  1  6
 32 40  1  0
 41 43  1  0
 15 19  2  0
 42 43  2  0
 16 22  2  0
 12 17  1  1
 17 19  1  0
 17 20  1  0
 18 19  1  0
 18 22  1  0
 18 23  1  0
  9 10  1  0
  9 11  1  0
 10 12  1  0
 11  5  1  6
 33 34  1  0
 33 35  1  0
 34 36  1  0
 35 37  1  0
 37 43  1  1
 20 21  2  0
 21 22  1  0
M  CHG  3   2  -1  26  -1  41  -1
M  END
>  <COMPND>  (28) 
    udp_gluA.pdb 

>  <AUTHOR>  (28) 
    GENERATED BY OPEN BABEL 3.1.1

>  <MASTER>  (28) 
        0    0    0    0    0    0    0    0   56    0   56    0

>  <minimizedAffinity>  (28) 
-7.43707

>  <CNNscore>  (28) 
0.5163917542

>  <CNNaffinity>  (28) 
4.3334417343

>  <CNN_VS>  (28) 
2.2377536297

>  <CNNaffinity_variance>  (28) 
0.0457331128

$$$$
29
     RDKit          3D

 43 45  0  0  0  0  0  0  0  0999 V2000
   23.3154   72.9161   -3.9109 P   0  0  2  0  0  0  0  0  0  0  0  0
   23.6085   74.5065   -3.9704 O   0  0  0  0  0  0  0  0  0  0  0  0
   24.4897   72.0697   -3.5153 O   0  0  0  0  0  0  0  0  0  0  0  0
   22.6666   72.5862   -5.3559 O   0  0  0  0  0  0  0  0  0  0  0  0
   21.3011   72.8931   -5.5699 C   0  0  0  0  0  0  0  0  0  0  0  0
   20.4306   72.2170   -7.7060 O   0  0  0  0  0  0  0  0  0  0  0  0
   20.5258   75.1191   -8.4547 O   0  0  0  0  0  0  0  0  0  0  0  0
   17.8892   74.7406   -7.8704 O   0  0  0  0  0  0  0  0  0  0  0  0
   20.2150   74.5202   -7.1964 C   0  0  1  0  0  0  0  0  0  0  0  0
   18.8332   73.9028   -7.2368 C   0  0  2  0  0  0  0  0  0  0  0  0
   21.1057   73.2971   -7.0256 C   0  0  1  0  0  0  0  0  0  0  0  0
   19.0844   72.6176   -8.0070 C   0  0  2  0  0  0  0  0  0  0  0  0
   19.9691   75.9029   -8.5864 H   0  0  0  0  0  0  0  0  0  0  0  0
   17.7641   75.5446   -7.3414 H   0  0  0  0  0  0  0  0  0  0  0  0
   17.7662   72.4747   -5.5134 O   0  0  0  0  0  0  0  0  0  0  0  0
   15.6642   68.5319   -6.6446 O   0  0  0  0  0  0  0  0  0  0  0  0
   18.1871   71.5647   -7.6236 N   0  0  0  0  0  0  0  0  0  0  0  0
   16.7213   70.5106   -6.0788 N   0  0  0  0  0  0  0  0  0  0  0  0
   17.5770   71.5871   -6.3472 C   0  0  0  0  0  0  0  0  0  0  0  0
   17.9182   70.5265   -8.5073 C   0  0  0  0  0  0  0  0  0  0  0  0
   17.1003   69.5073   -8.2372 C   0  0  0  0  0  0  0  0  0  0  0  0
   16.4231   69.4548   -6.9249 C   0  0  0  0  0  0  0  0  0  0  0  0
   16.2865   70.5032   -5.1955 H   0  0  0  0  0  0  0  0  0  0  0  0
   22.0479   72.8178   -2.9125 O   0  0  0  0  0  0  0  0  0  0  0  0
   21.7203   71.7865   -1.7113 P   0  0  2  0  0  0  0  0  0  0  0  0
   22.0314   70.3409   -2.3699 O   0  0  0  0  0  0  0  0  0  0  0  0
   20.3374   71.9224   -1.1430 O   0  0  0  0  0  0  0  0  0  0  0  0
   22.9082   72.0115   -0.6433 O   0  0  0  0  0  0  0  0  0  0  0  0
   22.7299   72.3609    1.6924 O   0  0  0  0  0  0  0  0  0  0  0  0
   26.2021   74.4132    0.7980 O   0  0  0  0  0  0  0  0  0  0  0  0
   23.8771   74.5993   -0.9610 O   0  0  0  0  0  0  0  0  0  0  0  0
   26.3352   71.8221    2.1092 O   0  0  0  0  0  0  0  0  0  0  0  0
   25.2216   73.3858    0.6533 C   0  0  2  0  0  0  0  0  0  0  0  0
   23.8645   74.0145    0.3361 C   0  0  2  0  0  0  0  0  0  0  0  0
   25.1534   72.6084    1.9697 C   0  0  1  0  0  0  0  0  0  0  0  0
   22.7492   72.9702    0.4009 C   0  0  1  0  0  0  0  0  0  0  0  0
   23.9427   71.6802    2.0064 C   0  0  1  0  0  0  0  0  0  0  0  0
   26.2630   74.9207   -0.0266 H   0  0  0  0  0  0  0  0  0  0  0  0
   24.5827   75.2627   -1.0093 H   0  0  0  0  0  0  0  0  0  0  0  0
   27.1132   72.4009    2.0872 H   0  0  0  0  0  0  0  0  0  0  0  0
   22.4060   71.3815    3.7531 O   0  0  0  0  0  0  0  0  0  0  0  0
   24.5401   70.6627    4.1110 O   0  0  0  0  0  0  0  0  0  0  0  0
   23.6983   71.1819    3.3936 C   0  0  0  0  0  0  0  0  0  0  0  0
  1  4  1  0
  1 24  1  0
  1  2  1  6
  1  3  2  0
 25 28  1  0
 25 24  1  0
 25 26  1  6
 25 27  2  0
  6 11  1  0
  6 12  1  0
 29 36  1  0
 29 37  1  0
  9  7  1  6
  7 13  1  0
 10  8  1  6
  8 14  1  0
  4  5  1  0
 36 28  1  6
 33 30  1  1
 30 38  1  0
 34 31  1  6
 31 39  1  0
 35 32  1  6
 32 40  1  0
 41 43  1  0
 15 19  2  0
 42 43  2  0
 16 22  2  0
 12 17  1  1
 17 19  1  0
 17 20  1  0
 18 19  1  0
 18 22  1  0
 18 23  1  0
  9 10  1  0
  9 11  1  0
 10 12  1  0
 11  5  1  1
 33 34  1  0
 33 35  1  0
 34 36  1  0
 35 37  1  0
 37 43  1  1
 20 21  2  0
 21 22  1  0
M  CHG  3   2  -1  26  -1  41  -1
M  END
>  <COMPND>  (29) 
    udp_gluA.pdb 

>  <AUTHOR>  (29) 
    GENERATED BY OPEN BABEL 3.1.1

>  <MASTER>  (29) 
        0    0    0    0    0    0    0    0   56    0   56    0

>  <minimizedAffinity>  (29) 
-7.29258

>  <CNNscore>  (29) 
0.4739824235

>  <CNNaffinity>  (29) 
4.1499934196

>  <CNN_VS>  (29) 
1.9670239687

>  <CNNaffinity_variance>  (29) 
0.1038179621

$$$$
30
     RDKit          3D

 43 45  0  0  0  0  0  0  0  0999 V2000
   22.0236   74.3523   -4.0492 P   0  0  2  0  0  0  0  0  0  0  0  0
   20.9001   75.2718   -3.3343 O   0  0  0  0  0  0  0  0  0  0  0  0
   23.3544   75.0169   -4.2468 O   0  0  0  0  0  0  0  0  0  0  0  0
   21.2953   73.8242   -5.3940 O   0  0  0  0  0  0  0  0  0  0  0  0
   20.1152   73.0527   -5.2654 C   0  0  0  0  0  0  0  0  0  0  0  0
   19.0611   71.0645   -6.1105 O   0  0  0  0  0  0  0  0  0  0  0  0
   21.6610   70.4978   -7.4929 O   0  0  0  0  0  0  0  0  0  0  0  0
   20.1249   71.5121   -9.5049 O   0  0  0  0  0  0  0  0  0  0  0  0
   21.0178   71.7503   -7.2558 C   0  0  1  0  0  0  0  0  0  0  0  0
   19.8324   71.9146   -8.1832 C   0  0  2  0  0  0  0  0  0  0  0  0
   20.3473   71.6831   -5.8905 C   0  0  1  0  0  0  0  0  0  0  0  0
   18.7888   71.0316   -7.5204 C   0  0  2  0  0  0  0  0  0  0  0  0
   22.0966   70.5167   -8.3598 H   0  0  0  0  0  0  0  0  0  0  0  0
   20.7938   72.1052   -9.8829 H   0  0  0  0  0  0  0  0  0  0  0  0
   16.5674   69.3481   -7.9762 O   0  0  0  0  0  0  0  0  0  0  0  0
   13.7016   72.9349   -8.3839 O   0  0  0  0  0  0  0  0  0  0  0  0
   17.4507   71.4990   -7.7486 N   0  0  0  0  0  0  0  0  0  0  0  0
   15.1424   71.1362   -8.1799 N   0  0  0  0  0  0  0  0  0  0  0  0
   16.4062   70.5699   -7.9674 C   0  0  0  0  0  0  0  0  0  0  0  0
   17.1836   72.8627   -7.7524 C   0  0  0  0  0  0  0  0  0  0  0  0
   15.9737   73.3874   -7.9563 C   0  0  0  0  0  0  0  0  0  0  0  0
   14.8276   72.4853   -8.1935 C   0  0  0  0  0  0  0  0  0  0  0  0
   14.3996   70.5092   -8.3365 H   0  0  0  0  0  0  0  0  0  0  0  0
   22.0617   73.0337   -3.1149 O   0  0  0  0  0  0  0  0  0  0  0  0
   23.2988   72.1159   -2.6242 P   0  0  2  0  0  0  0  0  0  0  0  0
   24.3380   72.2033   -3.8623 O   0  0  0  0  0  0  0  0  0  0  0  0
   22.9128   70.7173   -2.2383 O   0  0  0  0  0  0  0  0  0  0  0  0
   23.9975   72.9670   -1.4453 O   0  0  0  0  0  0  0  0  0  0  0  0
   24.4564   72.4007    0.8081 O   0  0  0  0  0  0  0  0  0  0  0  0
   23.6695   76.4458    1.1014 O   0  0  0  0  0  0  0  0  0  0  0  0
   22.0240   74.7369   -0.6034 O   0  0  0  0  0  0  0  0  0  0  0  0
   26.4066   75.4774    1.2474 O   0  0  0  0  0  0  0  0  0  0  0  0
   24.1358   75.2510    0.4745 C   0  0  2  0  0  0  0  0  0  0  0  0
   22.9795   74.2603    0.3371 C   0  0  2  0  0  0  0  0  0  0  0  0
   25.2429   74.6589    1.3495 C   0  0  1  0  0  0  0  0  0  0  0  0
   23.4842   72.8898   -0.1166 C   0  0  1  0  0  0  0  0  0  0  0  0
   25.6026   73.2425    0.9103 C   0  0  1  0  0  0  0  0  0  0  0  0
   22.9651   76.8399    0.5631 H   0  0  0  0  0  0  0  0  0  0  0  0
   21.6996   75.6063   -0.3218 H   0  0  0  0  0  0  0  0  0  0  0  0
   26.1911   76.3818    1.5240 H   0  0  0  0  0  0  0  0  0  0  0  0
   27.7396   72.8780    1.8059 O   0  0  0  0  0  0  0  0  0  0  0  0
   25.9934   71.8147    2.8155 O   0  0  0  0  0  0  0  0  0  0  0  0
   26.4296   72.5587    1.9499 C   0  0  0  0  0  0  0  0  0  0  0  0
  1  4  1  0
  1 24  1  0
  1  2  1  1
  1  3  2  0
 25 28  1  0
 25 24  1  0
 25 26  1  6
 25 27  2  0
  6 11  1  0
  6 12  1  0
 29 36  1  0
 29 37  1  0
  9  7  1  6
  7 13  1  0
 10  8  1  6
  8 14  1  0
  4  5  1  0
 36 28  1  6
 33 30  1  1
 30 38  1  0
 34 31  1  6
 31 39  1  0
 35 32  1  6
 32 40  1  0
 41 43  1  0
 15 19  2  0
 42 43  2  0
 16 22  2  0
 12 17  1  1
 17 19  1  0
 17 20  1  0
 18 19  1  0
 18 22  1  0
 18 23  1  0
  9 10  1  0
  9 11  1  0
 10 12  1  0
 11  5  1  6
 33 34  1  0
 33 35  1  0
 34 36  1  0
 35 37  1  0
 37 43  1  1
 20 21  2  0
 21 22  1  0
M  CHG  3   2  -1  26  -1  41  -1
M  END
>  <COMPND>  (30) 
    udp_gluA.pdb 

>  <AUTHOR>  (30) 
    GENERATED BY OPEN BABEL 3.1.1

>  <MASTER>  (30) 
        0    0    0    0    0    0    0    0   56    0   56    0

>  <minimizedAffinity>  (30) 
-6.35424

>  <CNNscore>  (30) 
0.4571233690

>  <CNNaffinity>  (30) 
4.2546062469

>  <CNN_VS>  (30) 
1.9448798895

>  <CNNaffinity_variance>  (30) 
0.1524729431

$$$$
31
     RDKit          3D

 43 45  0  0  0  0  0  0  0  0999 V2000
   21.3755   72.3428   -1.1090 P   0  0  2  0  0  0  0  0  0  0  0  0
   21.9301   70.9709   -0.4538 O   0  0  0  0  0  0  0  0  0  0  0  0
   20.2880   73.0225   -0.3299 O   0  0  0  0  0  0  0  0  0  0  0  0
   20.9970   71.9239   -2.6253 O   0  0  0  0  0  0  0  0  0  0  0  0
   21.4052   72.7720   -3.6829 C   0  0  0  0  0  0  0  0  0  0  0  0
   20.6327   70.8381   -4.8833 O   0  0  0  0  0  0  0  0  0  0  0  0
   21.8693   72.0836   -7.3146 O   0  0  0  0  0  0  0  0  0  0  0  0
   19.2231   72.6622   -7.6291 O   0  0  0  0  0  0  0  0  0  0  0  0
   21.2028   72.7099   -6.2182 C   0  0  1  0  0  0  0  0  0  0  0  0
   19.7088   72.4843   -6.3150 C   0  0  2  0  0  0  0  0  0  0  0  0
   21.5594   71.9435   -4.9518 C   0  0  1  0  0  0  0  0  0  0  0  0
   19.5743   71.0507   -5.8309 C   0  0  2  0  0  0  0  0  0  0  0  0
   21.6566   72.5559   -8.1352 H   0  0  0  0  0  0  0  0  0  0  0  0
   19.3307   73.5907   -7.8907 H   0  0  0  0  0  0  0  0  0  0  0  0
   17.2140   70.2889   -7.1819 O   0  0  0  0  0  0  0  0  0  0  0  0
   14.7998   70.1371   -3.2585 O   0  0  0  0  0  0  0  0  0  0  0  0
   18.3149   70.8056   -5.1870 N   0  0  0  0  0  0  0  0  0  0  0  0
   16.0136   70.2150   -5.2266 N   0  0  0  0  0  0  0  0  0  0  0  0
   17.1899   70.4277   -5.9575 C   0  0  0  0  0  0  0  0  0  0  0  0
   18.2034   70.9382   -3.8082 C   0  0  0  0  0  0  0  0  0  0  0  0
   17.0755   70.7320   -3.1256 C   0  0  0  0  0  0  0  0  0  0  0  0
   15.8536   70.3351   -3.8557 C   0  0  0  0  0  0  0  0  0  0  0  0
   15.2164   69.9531   -5.7416 H   0  0  0  0  0  0  0  0  0  0  0  0
   22.7181   73.2226   -1.2994 O   0  0  0  0  0  0  0  0  0  0  0  0
   24.2135   73.0159   -0.7210 P   0  0  2  0  0  0  0  0  0  0  0  0
   24.8547   74.4993   -0.8148 O   0  0  0  0  0  0  0  0  0  0  0  0
   25.0057   71.9541   -1.4273 O   0  0  0  0  0  0  0  0  0  0  0  0
   24.0096   72.7597    0.8586 O   0  0  0  0  0  0  0  0  0  0  0  0
   25.9574   71.9002    1.8962 O   0  0  0  0  0  0  0  0  0  0  0  0
   23.1973   71.6610    4.9609 O   0  0  0  0  0  0  0  0  0  0  0  0
   22.4542   70.9111    2.2369 O   0  0  0  0  0  0  0  0  0  0  0  0
   25.2117   73.7570    4.9716 O   0  0  0  0  0  0  0  0  0  0  0  0
   23.7964   72.2086    3.7865 C   0  0  2  0  0  0  0  0  0  0  0  0
   23.7856   71.1628    2.6713 C   0  0  2  0  0  0  0  0  0  0  0  0
   25.2338   72.6056    4.1300 C   0  0  1  0  0  0  0  0  0  0  0  0
   24.6196   71.6281    1.4768 C   0  0  1  0  0  0  0  0  0  0  0  0
   26.0362   72.9345    2.8744 C   0  0  1  0  0  0  0  0  0  0  0  0
   22.2828   71.4014    4.7666 H   0  0  0  0  0  0  0  0  0  0  0  0
   21.9193   70.6157    2.9899 H   0  0  0  0  0  0  0  0  0  0  0  0
   24.7038   73.5610    5.7744 H   0  0  0  0  0  0  0  0  0  0  0  0
   27.8102   72.1559    4.1966 O   0  0  0  0  0  0  0  0  0  0  0  0
   28.3063   73.7034    2.5971 O   0  0  0  0  0  0  0  0  0  0  0  0
   27.4974   72.9968    3.1798 C   0  0  0  0  0  0  0  0  0  0  0  0
  1  4  1  0
  1 24  1  0
  1  2  1  1
  1  3  2  0
 25 28  1  0
 25 24  1  0
 25 26  1  1
 25 27  2  0
  6 11  1  0
  6 12  1  0
 29 36  1  0
 29 37  1  0
  9  7  1  6
  7 13  1  0
 10  8  1  6
  8 14  1  0
  4  5  1  0
 36 28  1  1
 33 30  1  1
 30 38  1  0
 34 31  1  6
 31 39  1  0
 35 32  1  1
 32 40  1  0
 41 43  1  0
 15 19  2  0
 42 43  2  0
 16 22  2  0
 12 17  1  1
 17 19  1  0
 17 20  1  0
 18 19  1  0
 18 22  1  0
 18 23  1  0
  9 10  1  0
  9 11  1  0
 10 12  1  0
 11  5  1  1
 33 34  1  0
 33 35  1  0
 34 36  1  0
 35 37  1  0
 37 43  1  1
 20 21  2  0
 21 22  1  0
M  CHG  3   2  -1  26  -1  41  -1
M  END
>  <COMPND>  (31) 
    udp_gluA.pdb 

>  <AUTHOR>  (31) 
    GENERATED BY OPEN BABEL 3.1.1

>  <MASTER>  (31) 
        0    0    0    0    0    0    0    0   56    0   56    0

>  <minimizedAffinity>  (31) 
-6.44050

>  <CNNscore>  (31) 
0.4035017490

>  <CNNaffinity>  (31) 
4.1267638206

>  <CNN_VS>  (31) 
1.6651563644

>  <CNNaffinity_variance>  (31) 
0.0514680855

$$$$
32
     RDKit          3D

 43 45  0  0  0  0  0  0  0  0999 V2000
   22.4084   73.0083   -4.1364 P   0  0  2  0  0  0  0  0  0  0  0  0
   21.8718   74.5262   -4.3010 O   0  0  0  0  0  0  0  0  0  0  0  0
   23.8824   72.8303   -4.3542 O   0  0  0  0  0  0  0  0  0  0  0  0
   21.4451   72.1479   -5.1109 O   0  0  0  0  0  0  0  0  0  0  0  0
   20.0519   72.3970   -5.0763 C   0  0  0  0  0  0  0  0  0  0  0  0
   19.1116   70.8631   -3.4823 O   0  0  0  0  0  0  0  0  0  0  0  0
   17.5689   69.7106   -5.7809 O   0  0  0  0  0  0  0  0  0  0  0  0
   15.7135   71.2818   -4.5461 O   0  0  0  0  0  0  0  0  0  0  0  0
   17.9292   71.0682   -5.5245 C   0  0  1  0  0  0  0  0  0  0  0  0
   17.0740   71.6362   -4.4118 C   0  0  2  0  0  0  0  0  0  0  0  0
   19.3160   71.0756   -4.8960 C   0  0  1  0  0  0  0  0  0  0  0  0
   17.7176   71.0279   -3.1775 C   0  0  2  0  0  0  0  0  0  0  0  0
   16.6862   69.6804   -6.1828 H   0  0  0  0  0  0  0  0  0  0  0  0
   15.3496   71.6937   -5.3460 H   0  0  0  0  0  0  0  0  0  0  0  0
   15.5327   70.9569   -1.3892 O   0  0  0  0  0  0  0  0  0  0  0  0
   17.3288   74.3011    1.2251 O   0  0  0  0  0  0  0  0  0  0  0  0
   17.5888   71.8690   -2.0213 N   0  0  0  0  0  0  0  0  0  0  0  0
   16.4289   72.6233   -0.0894 N   0  0  0  0  0  0  0  0  0  0  0  0
   16.4511   71.7537   -1.1878 C   0  0  0  0  0  0  0  0  0  0  0  0
   18.5821   72.7934   -1.7219 C   0  0  0  0  0  0  0  0  0  0  0  0
   18.5469   73.6154   -0.6713 C   0  0  0  0  0  0  0  0  0  0  0  0
   17.3923   73.5596    0.2491 C   0  0  0  0  0  0  0  0  0  0  0  0
   15.6458   72.5630    0.5042 H   0  0  0  0  0  0  0  0  0  0  0  0
   21.8915   72.5988   -2.6606 O   0  0  0  0  0  0  0  0  0  0  0  0
   22.3380   71.3976   -1.6750 P   0  0  2  0  0  0  0  0  0  0  0  0
   23.0386   70.3374   -2.6778 O   0  0  0  0  0  0  0  0  0  0  0  0
   21.2182   70.8257   -0.8546 O   0  0  0  0  0  0  0  0  0  0  0  0
   23.5564   72.0079   -0.8117 O   0  0  0  0  0  0  0  0  0  0  0  0
   23.1958   72.3603    1.5024 O   0  0  0  0  0  0  0  0  0  0  0  0
   26.6530   74.5261    0.8510 O   0  0  0  0  0  0  0  0  0  0  0  0
   24.4582   74.6259   -1.0744 O   0  0  0  0  0  0  0  0  0  0  0  0
   26.7770   71.9462    2.1850 O   0  0  0  0  0  0  0  0  0  0  0  0
   25.7209   73.4654    0.6416 C   0  0  2  0  0  0  0  0  0  0  0  0
   24.3703   74.0462    0.2221 C   0  0  2  0  0  0  0  0  0  0  0  0
   25.5827   72.6913    1.9545 C   0  0  1  0  0  0  0  0  0  0  0  0
   23.2890   72.9648    0.2119 C   0  0  1  0  0  0  0  0  0  0  0  0
   24.4046   71.7225    1.9086 C   0  0  1  0  0  0  0  0  0  0  0  0
   26.7570   75.0322    0.0298 H   0  0  0  0  0  0  0  0  0  0  0  0
   25.1426   75.3129   -1.0752 H   0  0  0  0  0  0  0  0  0  0  0  0
   27.5345   72.5512    2.2162 H   0  0  0  0  0  0  0  0  0  0  0  0
   22.7629   70.8950    3.3652 O   0  0  0  0  0  0  0  0  0  0  0  0
   24.8749   71.1154    4.1959 O   0  0  0  0  0  0  0  0  0  0  0  0
   24.0761   71.2216    3.2774 C   0  0  0  0  0  0  0  0  0  0  0  0
  1  4  1  0
  1 24  1  0
  1  2  1  6
  1  3  2  0
 25 28  1  0
 25 24  1  0
 25 26  1  6
 25 27  2  0
  6 11  1  0
  6 12  1  0
 29 36  1  0
 29 37  1  0
  9  7  1  1
  7 13  1  0
 10  8  1  6
  8 14  1  0
  4  5  1  0
 36 28  1  6
 33 30  1  1
 30 38  1  0
 34 31  1  6
 31 39  1  0
 35 32  1  6
 32 40  1  0
 41 43  1  0
 15 19  2  0
 42 43  2  0
 16 22  2  0
 12 17  1  1
 17 19  1  0
 17 20  1  0
 18 19  1  0
 18 22  1  0
 18 23  1  0
  9 10  1  0
  9 11  1  0
 10 12  1  0
 11  5  1  1
 33 34  1  0
 33 35  1  0
 34 36  1  0
 35 37  1  0
 37 43  1  1
 20 21  2  0
 21 22  1  0
M  CHG  3   2  -1  26  -1  41  -1
M  END
>  <COMPND>  (32) 
    udp_gluA.pdb 

>  <AUTHOR>  (32) 
    GENERATED BY OPEN BABEL 3.1.1

>  <MASTER>  (32) 
        0    0    0    0    0    0    0    0   56    0   56    0

>  <minimizedAffinity>  (32) 
-6.11932

>  <CNNscore>  (32) 
0.3857258856

>  <CNNaffinity>  (32) 
4.0169615746

>  <CNN_VS>  (32) 
1.5494461060

>  <CNNaffinity_variance>  (32) 
0.1594357193

$$$$
33
     RDKit          3D

 43 45  0  0  0  0  0  0  0  0999 V2000
   20.4475   73.1231   -4.9605 P   0  0  2  0  0  0  0  0  0  0  0  0
   19.4098   73.3491   -3.7394 O   0  0  0  0  0  0  0  0  0  0  0  0
   20.6810   74.3274   -5.8247 O   0  0  0  0  0  0  0  0  0  0  0  0
   19.8748   71.8140   -5.7197 O   0  0  0  0  0  0  0  0  0  0  0  0
   19.2339   71.9841   -6.9706 C   0  0  0  0  0  0  0  0  0  0  0  0
   17.8014   70.2847   -6.0554 O   0  0  0  0  0  0  0  0  0  0  0  0
   16.9327   69.7595   -8.8769 O   0  0  0  0  0  0  0  0  0  0  0  0
   14.8783   71.2564   -7.8898 O   0  0  0  0  0  0  0  0  0  0  0  0
   17.2689   70.9978   -8.2505 C   0  0  1  0  0  0  0  0  0  0  0  0
   16.1578   71.4322   -7.3184 C   0  0  2  0  0  0  0  0  0  0  0  0
   18.4144   70.7383   -7.2817 C   0  0  1  0  0  0  0  0  0  0  0  0
   16.3883   70.5360   -6.1136 C   0  0  2  0  0  0  0  0  0  0  0  0
   16.2028   69.9000   -9.5007 H   0  0  0  0  0  0  0  0  0  0  0  0
   14.7806   71.8488   -8.6524 H   0  0  0  0  0  0  0  0  0  0  0  0
   15.3984   69.1235   -3.8772 O   0  0  0  0  0  0  0  0  0  0  0  0
   14.8227   73.0012   -1.4532 O   0  0  0  0  0  0  0  0  0  0  0  0
   15.9725   71.1515   -4.8852 N   0  0  0  0  0  0  0  0  0  0  0  0
   15.1117   71.0562   -2.6724 N   0  0  0  0  0  0  0  0  0  0  0  0
   15.4901   70.3513   -3.8226 C   0  0  0  0  0  0  0  0  0  0  0  0
   16.0461   72.5317   -4.7413 C   0  0  0  0  0  0  0  0  0  0  0  0
   15.6818   73.1893   -3.6388 C   0  0  0  0  0  0  0  0  0  0  0  0
   15.1660   72.4275   -2.4825 C   0  0  0  0  0  0  0  0  0  0  0  0
   14.7707   70.5207   -1.9199 H   0  0  0  0  0  0  0  0  0  0  0  0
   21.7680   72.5625   -4.2156 O   0  0  0  0  0  0  0  0  0  0  0  0
   21.9348   71.5070   -3.0024 P   0  0  2  0  0  0  0  0  0  0  0  0
   23.5183   71.1715   -3.0193 O   0  0  0  0  0  0  0  0  0  0  0  0
   21.0461   70.3017   -3.1082 O   0  0  0  0  0  0  0  0  0  0  0  0
   21.7184   72.3830   -1.6651 O   0  0  0  0  0  0  0  0  0  0  0  0
   21.7222   71.1768    0.3730 O   0  0  0  0  0  0  0  0  0  0  0  0
   20.3113   74.8665    1.5825 O   0  0  0  0  0  0  0  0  0  0  0  0
   19.3689   73.6644   -0.9077 O   0  0  0  0  0  0  0  0  0  0  0  0
   23.0515   74.0898    2.1644 O   0  0  0  0  0  0  0  0  0  0  0  0
   21.0777   73.9607    0.7888 C   0  0  2  0  0  0  0  0  0  0  0  0
   20.1404   72.9853    0.0764 C   0  0  2  0  0  0  0  0  0  0  0  0
   22.0269   73.2028    1.7197 C   0  0  1  0  0  0  0  0  0  0  0  0
   20.9293   71.8617   -0.5973 C   0  0  1  0  0  0  0  0  0  0  0  0
   22.6796   72.0213    1.0081 C   0  0  1  0  0  0  0  0  0  0  0  0
   19.7006   75.3595    1.0121 H   0  0  0  0  0  0  0  0  0  0  0  0
   18.8659   74.3789   -0.4872 H   0  0  0  0  0  0  0  0  0  0  0  0
   22.6494   74.8465    2.6190 H   0  0  0  0  0  0  0  0  0  0  0  0
   24.5838   71.5403    2.2904 O   0  0  0  0  0  0  0  0  0  0  0  0
   22.8216   70.1041    2.4661 O   0  0  0  0  0  0  0  0  0  0  0  0
   23.3345   71.1061    1.9909 C   0  0  0  0  0  0  0  0  0  0  0  0
  1  4  1  0
  1 24  1  0
  1  2  1  1
  1  3  2  0
 25 28  1  0
 25 24  1  0
 25 26  1  1
 25 27  2  0
  6 11  1  0
  6 12  1  0
 29 36  1  0
 29 37  1  0
  9  7  1  1
  7 13  1  0
 10  8  1  6
  8 14  1  0
  4  5  1  0
 36 28  1  6
 33 30  1  1
 30 38  1  0
 34 31  1  6
 31 39  1  0
 35 32  1  6
 32 40  1  0
 41 43  1  0
 15 19  2  0
 42 43  2  0
 16 22  2  0
 12 17  1  1
 17 19  1  0
 17 20  1  0
 18 19  1  0
 18 22  1  0
 18 23  1  0
  9 10  1  0
  9 11  1  0
 10 12  1  0
 11  5  1  1
 33 34  1  0
 33 35  1  0
 34 36  1  0
 35 37  1  0
 37 43  1  1
 20 21  2  0
 21 22  1  0
M  CHG  3   2  -1  26  -1  41  -1
M  END
>  <COMPND>  (33) 
    udp_gluA.pdb 

>  <AUTHOR>  (33) 
    GENERATED BY OPEN BABEL 3.1.1

>  <MASTER>  (33) 
        0    0    0    0    0    0    0    0   56    0   56    0

>  <minimizedAffinity>  (33) 
-5.98105

>  <CNNscore>  (33) 
0.3757305443

>  <CNNaffinity>  (33) 
4.1652441025

>  <CNN_VS>  (33) 
1.5650094748

>  <CNNaffinity_variance>  (33) 
0.1073661596

$$$$
34
     RDKit          3D

 43 45  0  0  0  0  0  0  0  0999 V2000
   21.4387   73.2867   -4.6946 P   0  0  2  0  0  0  0  0  0  0  0  0
   21.3461   74.3811   -3.5060 O   0  0  0  0  0  0  0  0  0  0  0  0
   21.8410   73.8363   -6.0318 O   0  0  0  0  0  0  0  0  0  0  0  0
   20.0056   72.5373   -4.6453 O   0  0  0  0  0  0  0  0  0  0  0  0
   19.3729   72.2071   -5.8681 C   0  0  0  0  0  0  0  0  0  0  0  0
   17.0025   72.5821   -5.7321 O   0  0  0  0  0  0  0  0  0  0  0  0
   16.7098   69.6021   -5.8910 O   0  0  0  0  0  0  0  0  0  0  0  0
   16.1394   70.3934   -8.4374 O   0  0  0  0  0  0  0  0  0  0  0  0
   17.6564   70.4529   -6.5381 C   0  0  1  0  0  0  0  0  0  0  0  0
   16.9921   71.2135   -7.6661 C   0  0  2  0  0  0  0  0  0  0  0  0
   18.0210   71.5711   -5.5711 C   0  0  1  0  0  0  0  0  0  0  0  0
   16.2383   72.2975   -6.9146 C   0  0  2  0  0  0  0  0  0  0  0  0
   16.4617   68.8797   -6.4896 H   0  0  0  0  0  0  0  0  0  0  0  0
   16.6666   69.7200   -8.8962 H   0  0  0  0  0  0  0  0  0  0  0  0
   14.1079   72.8197   -8.6937 O   0  0  0  0  0  0  0  0  0  0  0  0
   15.8123   76.9542   -9.8095 O   0  0  0  0  0  0  0  0  0  0  0  0
   16.1005   73.5023   -7.6828 N   0  0  0  0  0  0  0  0  0  0  0  0
   14.9594   74.8780   -9.2485 N   0  0  0  0  0  0  0  0  0  0  0  0
   14.9926   73.6652   -8.5477 C   0  0  0  0  0  0  0  0  0  0  0  0
   17.0545   74.5069   -7.5743 C   0  0  0  0  0  0  0  0  0  0  0  0
   17.0092   75.6575   -8.2487 C   0  0  0  0  0  0  0  0  0  0  0  0
   15.8846   75.9065   -9.1744 C   0  0  0  0  0  0  0  0  0  0  0  0
   14.1985   75.0134   -9.8585 H   0  0  0  0  0  0  0  0  0  0  0  0
   22.4490   72.1791   -4.0902 O   0  0  0  0  0  0  0  0  0  0  0  0
   22.3022   71.1889   -2.8208 P   0  0  2  0  0  0  0  0  0  0  0  0
   23.7747   70.5285   -2.6946 O   0  0  0  0  0  0  0  0  0  0  0  0
   21.1859   70.1925   -2.9429 O   0  0  0  0  0  0  0  0  0  0  0  0
   22.1861   72.1715   -1.5466 O   0  0  0  0  0  0  0  0  0  0  0  0
   21.9770   71.1165    0.5635 O   0  0  0  0  0  0  0  0  0  0  0  0
   21.0698   75.0388    1.4911 O   0  0  0  0  0  0  0  0  0  0  0  0
   20.0228   73.8130   -0.9452 O   0  0  0  0  0  0  0  0  0  0  0  0
   23.6613   73.9323    2.2057 O   0  0  0  0  0  0  0  0  0  0  0  0
   21.7191   73.9844    0.7808 C   0  0  2  0  0  0  0  0  0  0  0  0
   20.6703   73.1019    0.1035 C   0  0  2  0  0  0  0  0  0  0  0  0
   22.5326   73.1673    1.7871 C   0  0  1  0  0  0  0  0  0  0  0  0
   21.3088   71.8373   -0.4725 C   0  0  1  0  0  0  0  0  0  0  0  0
   23.0290   71.8616    1.1727 C   0  0  1  0  0  0  0  0  0  0  0  0
   20.5465   75.5717    0.8719 H   0  0  0  0  0  0  0  0  0  0  0  0
   19.6156   74.6169   -0.5869 H   0  0  0  0  0  0  0  0  0  0  0  0
   23.3591   74.7661    2.5984 H   0  0  0  0  0  0  0  0  0  0  0  0
   24.7933   71.2584    2.5958 O   0  0  0  0  0  0  0  0  0  0  0  0
   22.8902   70.0077    2.7106 O   0  0  0  0  0  0  0  0  0  0  0  0
   23.5281   70.9332    2.2316 C   0  0  0  0  0  0  0  0  0  0  0  0
  1  4  1  0
  1 24  1  0
  1  2  1  1
  1  3  2  0
 25 28  1  0
 25 24  1  0
 25 26  1  1
 25 27  2  0
  6 11  1  0
  6 12  1  0
 29 36  1  0
 29 37  1  0
  9  7  1  1
  7 13  1  0
 10  8  1  1
  8 14  1  0
  4  5  1  0
 36 28  1  6
 33 30  1  1
 30 38  1  0
 34 31  1  6
 31 39  1  0
 35 32  1  6
 32 40  1  0
 41 43  1  0
 15 19  2  0
 42 43  2  0
 16 22  2  0
 12 17  1  6
 17 19  1  0
 17 20  1  0
 18 19  1  0
 18 22  1  0
 18 23  1  0
  9 10  1  0
  9 11  1  0
 10 12  1  0
 11  5  1  6
 33 34  1  0
 33 35  1  0
 34 36  1  0
 35 37  1  0
 37 43  1  1
 20 21  2  0
 21 22  1  0
M  CHG  3   2  -1  26  -1  41  -1
M  END
>  <COMPND>  (34) 
    udp_gluA.pdb 

>  <AUTHOR>  (34) 
    GENERATED BY OPEN BABEL 3.1.1

>  <MASTER>  (34) 
        0    0    0    0    0    0    0    0   56    0   56    0

>  <minimizedAffinity>  (34) 
-6.49452

>  <CNNscore>  (34) 
0.3708336353

>  <CNNaffinity>  (34) 
4.0392365456

>  <CNN_VS>  (34) 
1.4978847504

>  <CNNaffinity_variance>  (34) 
0.0533813834

$$$$
35
     RDKit          3D

 43 45  0  0  0  0  0  0  0  0999 V2000
   21.7524   73.3107   -4.7784 P   0  0  2  0  0  0  0  0  0  0  0  0
   23.2644   72.7400   -4.8629 O   0  0  0  0  0  0  0  0  0  0  0  0
   21.5724   74.7073   -5.2969 O   0  0  0  0  0  0  0  0  0  0  0  0
   21.3343   73.0756   -3.2331 O   0  0  0  0  0  0  0  0  0  0  0  0
   21.7012   71.8579   -2.6111 C   0  0  0  0  0  0  0  0  0  0  0  0
   21.5333   71.0069   -0.3694 O   0  0  0  0  0  0  0  0  0  0  0  0
   18.9443   72.5092   -0.1918 O   0  0  0  0  0  0  0  0  0  0  0  0
   20.6741   74.1438    1.1393 O   0  0  0  0  0  0  0  0  0  0  0  0
   20.1524   72.8671   -0.8632 C   0  0  1  0  0  0  0  0  0  0  0  0
   21.2019   73.2970    0.1399 C   0  0  2  0  0  0  0  0  0  0  0  0
   20.7636   71.5971   -1.4392 C   0  0  1  0  0  0  0  0  0  0  0  0
   21.6745   71.9634    0.6930 C   0  0  2  0  0  0  0  0  0  0  0  0
   18.5354   73.3047    0.1847 H   0  0  0  0  0  0  0  0  0  0  0  0
   20.3876   74.9793    0.7370 H   0  0  0  0  0  0  0  0  0  0  0  0
   22.7444   70.4065    2.7925 O   0  0  0  0  0  0  0  0  0  0  0  0
   26.9576   72.1809    2.2060 O   0  0  0  0  0  0  0  0  0  0  0  0
   23.0478   71.9988    1.1099 N   0  0  0  0  0  0  0  0  0  0  0  0
   24.8416   71.2925    2.4991 N   0  0  0  0  0  0  0  0  0  0  0  0
   23.4832   71.1765    2.1760 C   0  0  0  0  0  0  0  0  0  0  0  0
   23.9470   72.8391    0.4648 C   0  0  0  0  0  0  0  0  0  0  0  0
   25.2389   72.9386    0.7840 C   0  0  0  0  0  0  0  0  0  0  0  0
   25.7743   72.1141    1.8871 C   0  0  0  0  0  0  0  0  0  0  0  0
   25.1676   70.7313    3.2394 H   0  0  0  0  0  0  0  0  0  0  0  0
   20.8957   72.1859   -5.5618 O   0  0  0  0  0  0  0  0  0  0  0  0
   20.6757   71.9292   -7.1427 P   0  0  2  0  0  0  0  0  0  0  0  0
   21.6439   70.6690   -7.4509 O   0  0  0  0  0  0  0  0  0  0  0  0
   20.9333   73.1319   -8.0036 O   0  0  0  0  0  0  0  0  0  0  0  0
   19.1814   71.3320   -7.2564 O   0  0  0  0  0  0  0  0  0  0  0  0
   17.2251   72.6635   -7.1607 O   0  0  0  0  0  0  0  0  0  0  0  0
   15.7735   68.9560   -6.0583 O   0  0  0  0  0  0  0  0  0  0  0  0
   18.3309   69.9135   -5.0203 O   0  0  0  0  0  0  0  0  0  0  0  0
   15.2571   69.9912   -8.7252 O   0  0  0  0  0  0  0  0  0  0  0  0
   16.6278   69.8687   -6.7476 C   0  0  2  0  0  0  0  0  0  0  0  0
   17.3966   70.7157   -5.7331 C   0  0  2  0  0  0  0  0  0  0  0  0
   15.7525   70.7605   -7.6310 C   0  0  1  0  0  0  0  0  0  0  0  0
   18.1453   71.8546   -6.4269 C   0  0  1  0  0  0  0  0  0  0  0  0
   16.5420   71.9433   -8.1843 C   0  0  1  0  0  0  0  0  0  0  0  0
   16.3078   68.3788   -5.4903 H   0  0  0  0  0  0  0  0  0  0  0  0
   17.8627   69.1887   -4.5778 H   0  0  0  0  0  0  0  0  0  0  0  0
   14.7527   69.2350   -8.3867 H   0  0  0  0  0  0  0  0  0  0  0  0
   14.3287   72.6297   -8.5472 O   0  0  0  0  0  0  0  0  0  0  0  0
   15.9814   73.9826   -9.3455 O   0  0  0  0  0  0  0  0  0  0  0  0
   15.6236   72.9707   -8.7615 C   0  0  0  0  0  0  0  0  0  0  0  0
  1  4  1  0
  1 24  1  0
  1  2  1  1
  1  3  2  0
 25 28  1  0
 25 24  1  0
 25 26  1  6
 25 27  2  0
  6 11  1  0
  6 12  1  0
 29 36  1  0
 29 37  1  0
  9  7  1  1
  7 13  1  0
 10  8  1  1
  8 14  1  0
  4  5  1  0
 36 28  1  6
 33 30  1  1
 30 38  1  0
 34 31  1  6
 31 39  1  0
 35 32  1  6
 32 40  1  0
 41 43  1  0
 15 19  2  0
 42 43  2  0
 16 22  2  0
 12 17  1  6
 17 19  1  0
 17 20  1  0
 18 19  1  0
 18 22  1  0
 18 23  1  0
  9 10  1  0
  9 11  1  0
 10 12  1  0
 11  5  1  6
 33 34  1  0
 33 35  1  0
 34 36  1  0
 35 37  1  0
 37 43  1  1
 20 21  2  0
 21 22  1  0
M  CHG  3   2  -1  26  -1  41  -1
M  END
>  <COMPND>  (35) 
    udp_gluA.pdb 

>  <AUTHOR>  (35) 
    GENERATED BY OPEN BABEL 3.1.1

>  <MASTER>  (35) 
        0    0    0    0    0    0    0    0   56    0   56    0

>  <minimizedAffinity>  (35) 
-7.94214

>  <CNNscore>  (35) 
0.3632969260

>  <CNNaffinity>  (35) 
4.1212911606

>  <CNN_VS>  (35) 
1.4972524643

>  <CNNaffinity_variance>  (35) 
0.0901420563

$$$$
36
     RDKit          3D

 43 45  0  0  0  0  0  0  0  0999 V2000
   22.0822   72.9127   -4.7352 P   0  0  2  0  0  0  0  0  0  0  0  0
   23.6934   72.9439   -4.5875 O   0  0  0  0  0  0  0  0  0  0  0  0
   21.3828   74.1713   -4.3126 O   0  0  0  0  0  0  0  0  0  0  0  0
   21.6458   71.5682   -3.9480 O   0  0  0  0  0  0  0  0  0  0  0  0
   22.2716   71.2749   -2.7123 C   0  0  0  0  0  0  0  0  0  0  0  0
   21.8443   70.7346   -0.4094 O   0  0  0  0  0  0  0  0  0  0  0  0
   19.2688   72.2366   -0.7282 O   0  0  0  0  0  0  0  0  0  0  0  0
   20.8571   74.0432    0.5561 O   0  0  0  0  0  0  0  0  0  0  0  0
   20.5484   72.5052   -1.3017 C   0  0  1  0  0  0  0  0  0  0  0  0
   21.4838   73.0711   -0.2543 C   0  0  2  0  0  0  0  0  0  0  0  0
   21.2059   71.1714   -1.6288 C   0  0  1  0  0  0  0  0  0  0  0  0
   21.8766   71.8265    0.5233 C   0  0  2  0  0  0  0  0  0  0  0  0
   18.8293   73.0741   -0.5108 H   0  0  0  0  0  0  0  0  0  0  0  0
   20.6269   74.8155    0.0151 H   0  0  0  0  0  0  0  0  0  0  0  0
   22.7825   70.3273    2.7387 O   0  0  0  0  0  0  0  0  0  0  0  0
   26.9545   72.2806    2.5864 O   0  0  0  0  0  0  0  0  0  0  0  0
   23.1949   71.9235    1.0832 N   0  0  0  0  0  0  0  0  0  0  0  0
   24.8592   71.3023    2.6613 N   0  0  0  0  0  0  0  0  0  0  0  0
   23.5491   71.1259    2.1970 C   0  0  0  0  0  0  0  0  0  0  0  0
   24.1209   72.7992    0.5296 C   0  0  0  0  0  0  0  0  0  0  0  0
   25.3660   72.9563    0.9831 C   0  0  0  0  0  0  0  0  0  0  0  0
   25.8158   72.1609    2.1444 C   0  0  0  0  0  0  0  0  0  0  0  0
   25.1283   70.7593    3.4372 H   0  0  0  0  0  0  0  0  0  0  0  0
   21.8677   72.5115   -6.2862 O   0  0  0  0  0  0  0  0  0  0  0  0
   20.9803   73.2016   -7.4482 P   0  0  2  0  0  0  0  0  0  0  0  0
   21.4045   72.3782   -8.7757 O   0  0  0  0  0  0  0  0  0  0  0  0
   21.1595   74.6881   -7.5589 O   0  0  0  0  0  0  0  0  0  0  0  0
   19.4680   72.7304   -7.1426 O   0  0  0  0  0  0  0  0  0  0  0  0
   18.7373   70.8279   -5.9362 O   0  0  0  0  0  0  0  0  0  0  0  0
   15.6442   71.3586   -8.6230 O   0  0  0  0  0  0  0  0  0  0  0  0
   18.4203   71.6541   -9.4835 O   0  0  0  0  0  0  0  0  0  0  0  0
   15.3086   72.1306   -5.8405 O   0  0  0  0  0  0  0  0  0  0  0  0
   16.7104   71.7670   -7.7660 C   0  0  2  0  0  0  0  0  0  0  0  0
   18.0157   71.1190   -8.2287 C   0  0  2  0  0  0  0  0  0  0  0  0
   16.3701   71.3208   -6.3423 C   0  0  1  0  0  0  0  0  0  0  0  0
   19.1311   71.3459   -7.2074 C   0  0  1  0  0  0  0  0  0  0  0  0
   17.5719   71.4607   -5.4124 C   0  0  1  0  0  0  0  0  0  0  0  0
   15.8385   71.6315   -9.5336 H   0  0  0  0  0  0  0  0  0  0  0  0
   17.7171   71.5139  -10.1363 H   0  0  0  0  0  0  0  0  0  0  0  0
   14.5375   72.0506   -6.4235 H   0  0  0  0  0  0  0  0  0  0  0  0
   16.2891   69.8785   -4.2494 O   0  0  0  0  0  0  0  0  0  0  0  0
   18.0011   70.8673   -3.1135 O   0  0  0  0  0  0  0  0  0  0  0  0
   17.3394   70.7281   -4.1312 C   0  0  0  0  0  0  0  0  0  0  0  0
  1  4  1  0
  1 24  1  0
  1  2  1  6
  1  3  2  0
 25 28  1  0
 25 24  1  0
 25 26  1  6
 25 27  2  0
  6 11  1  0
  6 12  1  0
 29 36  1  0
 29 37  1  0
  9  7  1  1
  7 13  1  0
 10  8  1  1
  8 14  1  0
  4  5  1  0
 36 28  1  1
 33 30  1  6
 30 38  1  0
 34 31  1  6
 31 39  1  0
 35 32  1  1
 32 40  1  0
 41 43  1  0
 15 19  2  0
 42 43  2  0
 16 22  2  0
 12 17  1  6
 17 19  1  0
 17 20  1  0
 18 19  1  0
 18 22  1  0
 18 23  1  0
  9 10  1  0
  9 11  1  0
 10 12  1  0
 11  5  1  6
 33 34  1  0
 33 35  1  0
 34 36  1  0
 35 37  1  0
 37 43  1  1
 20 21  2  0
 21 22  1  0
M  CHG  3   2  -1  26  -1  41  -1
M  END
>  <COMPND>  (36) 
    udp_gluA.pdb 

>  <AUTHOR>  (36) 
    GENERATED BY OPEN BABEL 3.1.1

>  <MASTER>  (36) 
        0    0    0    0    0    0    0    0   56    0   56    0

>  <minimizedAffinity>  (36) 
-7.77630

>  <CNNscore>  (36) 
0.3541668355

>  <CNNaffinity>  (36) 
4.1384682655

>  <CNN_VS>  (36) 
1.4657082558

>  <CNNaffinity_variance>  (36) 
0.0455891751

$$$$
37
     RDKit          3D

 43 45  0  0  0  0  0  0  0  0999 V2000
   23.6117   72.4345   -3.3169 P   0  0  2  0  0  0  0  0  0  0  0  0
   23.6162   73.9146   -2.6625 O   0  0  0  0  0  0  0  0  0  0  0  0
   24.9034   71.6814   -3.1892 O   0  0  0  0  0  0  0  0  0  0  0  0
   23.0878   72.6795   -4.8280 O   0  0  0  0  0  0  0  0  0  0  0  0
   21.6919   72.7158   -5.0621 C   0  0  0  0  0  0  0  0  0  0  0  0
   20.4959   71.1289   -6.4145 O   0  0  0  0  0  0  0  0  0  0  0  0
   21.0063   72.9847   -8.7139 O   0  0  0  0  0  0  0  0  0  0  0  0
   18.4214   73.5499   -8.0544 O   0  0  0  0  0  0  0  0  0  0  0  0
   20.7335   73.2934   -7.3469 C   0  0  1  0  0  0  0  0  0  0  0  0
   19.2700   73.0581   -7.0383 C   0  0  2  0  0  0  0  0  0  0  0  0
   21.4146   72.2411   -6.4826 C   0  0  1  0  0  0  0  0  0  0  0  0
   19.2139   71.5453   -6.9109 C   0  0  2  0  0  0  0  0  0  0  0  0
   20.5812   73.6436   -9.2856 H   0  0  0  0  0  0  0  0  0  0  0  0
   18.4929   74.5170   -8.0954 H   0  0  0  0  0  0  0  0  0  0  0  0
   16.6896   70.5494   -7.6936 O   0  0  0  0  0  0  0  0  0  0  0  0
   15.3851   69.9033   -3.3204 O   0  0  0  0  0  0  0  0  0  0  0  0
   18.1956   71.1097   -5.9976 N   0  0  0  0  0  0  0  0  0  0  0  0
   16.0419   70.2295   -5.5148 N   0  0  0  0  0  0  0  0  0  0  0  0
   16.9619   70.6264   -6.4941 C   0  0  0  0  0  0  0  0  0  0  0  0
   18.4240   71.1620   -4.6279 C   0  0  0  0  0  0  0  0  0  0  0  0
   17.5374   70.7801   -3.7066 C   0  0  0  0  0  0  0  0  0  0  0  0
   16.2231   70.2635   -4.1416 C   0  0  0  0  0  0  0  0  0  0  0  0
   15.1750   69.8913   -5.8362 H   0  0  0  0  0  0  0  0  0  0  0  0
   22.3459   71.7262   -2.6037 O   0  0  0  0  0  0  0  0  0  0  0  0
   21.6622   71.9788   -1.1607 P   0  0  2  0  0  0  0  0  0  0  0  0
   20.8164   70.6217   -0.9095 O   0  0  0  0  0  0  0  0  0  0  0  0
   20.8497   73.2384   -1.0762 O   0  0  0  0  0  0  0  0  0  0  0  0
   22.8833   71.8980   -0.1095 O   0  0  0  0  0  0  0  0  0  0  0  0
   22.5421   73.2144    1.8295 O   0  0  0  0  0  0  0  0  0  0  0  0
   26.4671   72.0165    2.3065 O   0  0  0  0  0  0  0  0  0  0  0  0
   25.4845   72.8616   -0.3116 O   0  0  0  0  0  0  0  0  0  0  0  0
   24.3610   70.7747    3.8793 O   0  0  0  0  0  0  0  0  0  0  0  0
   25.1098   71.8942    1.8815 C   0  0  2  0  0  0  0  0  0  0  0  0
   24.7738   73.0260    0.9101 C   0  0  2  0  0  0  0  0  0  0  0  0
   24.2168   71.9746    3.1217 C   0  0  1  0  0  0  0  0  0  0  0  0
   23.2742   73.0645    0.6125 C   0  0  1  0  0  0  0  0  0  0  0  0
   22.7481   72.1375    2.7410 C   0  0  1  0  0  0  0  0  0  0  0  0
   27.0533   71.9682    1.5350 H   0  0  0  0  0  0  0  0  0  0  0  0
   26.4368   72.8361   -0.1302 H   0  0  0  0  0  0  0  0  0  0  0  0
   25.2915   70.6591    4.1278 H   0  0  0  0  0  0  0  0  0  0  0  0
   21.3596   73.7528    3.7231 O   0  0  0  0  0  0  0  0  0  0  0  0
   21.7982   71.8774    4.9436 O   0  0  0  0  0  0  0  0  0  0  0  0
   21.9343   72.5416    3.9271 C   0  0  0  0  0  0  0  0  0  0  0  0
  1  4  1  0
  1 24  1  0
  1  2  1  1
  1  3  2  0
 25 28  1  0
 25 24  1  0
 25 26  1  1
 25 27  2  0
  6 11  1  0
  6 12  1  0
 29 36  1  0
 29 37  1  0
  9  7  1  6
  7 13  1  0
 10  8  1  6
  8 14  1  0
  4  5  1  0
 36 28  1  1
 33 30  1  1
 30 38  1  0
 34 31  1  6
 31 39  1  0
 35 32  1  6
 32 40  1  0
 41 43  1  0
 15 19  2  0
 42 43  2  0
 16 22  2  0
 12 17  1  1
 17 19  1  0
 17 20  1  0
 18 19  1  0
 18 22  1  0
 18 23  1  0
  9 10  1  0
  9 11  1  0
 10 12  1  0
 11  5  1  1
 33 34  1  0
 33 35  1  0
 34 36  1  0
 35 37  1  0
 37 43  1  1
 20 21  2  0
 21 22  1  0
M  CHG  3   2  -1  26  -1  41  -1
M  END
>  <COMPND>  (37) 
    udp_gluA.pdb 

>  <AUTHOR>  (37) 
    GENERATED BY OPEN BABEL 3.1.1

>  <MASTER>  (37) 
        0    0    0    0    0    0    0    0   56    0   56    0

>  <minimizedAffinity>  (37) 
-7.32852

>  <CNNscore>  (37) 
0.3498288691

>  <CNNaffinity>  (37) 
4.0108027458

>  <CNN_VS>  (37) 
1.4030945301

>  <CNNaffinity_variance>  (37) 
0.1772480309

$$$$
38
     RDKit          3D

 43 45  0  0  0  0  0  0  0  0999 V2000
   22.9574   72.2986   -2.9304 P   0  0  2  0  0  0  0  0  0  0  0  0
   24.0974   72.3837   -4.0759 O   0  0  0  0  0  0  0  0  0  0  0  0
   22.8465   70.9687   -2.2444 O   0  0  0  0  0  0  0  0  0  0  0  0
   21.6185   72.8187   -3.6754 O   0  0  0  0  0  0  0  0  0  0  0  0
   20.5948   71.8824   -3.9577 C   0  0  0  0  0  0  0  0  0  0  0  0
   19.5309   70.8234   -5.8350 O   0  0  0  0  0  0  0  0  0  0  0  0
   21.8813   71.7479   -7.4512 O   0  0  0  0  0  0  0  0  0  0  0  0
   19.9626   73.5773   -8.0897 O   0  0  0  0  0  0  0  0  0  0  0  0
   21.2154   72.4005   -6.3699 C   0  0  1  0  0  0  0  0  0  0  0  0
   19.8797   72.9454   -6.8294 C   0  0  2  0  0  0  0  0  0  0  0  0
   20.7965   71.3359   -5.3652 C   0  0  1  0  0  0  0  0  0  0  0  0
   19.0211   71.6925   -6.8588 C   0  0  2  0  0  0  0  0  0  0  0  0
   22.1585   72.4081   -8.1063 H   0  0  0  0  0  0  0  0  0  0  0  0
   20.5193   74.3691   -8.0184 H   0  0  0  0  0  0  0  0  0  0  0  0
   16.8592   70.3269   -8.0580 O   0  0  0  0  0  0  0  0  0  0  0  0
   13.7568   72.8388   -5.7536 O   0  0  0  0  0  0  0  0  0  0  0  0
   17.6383   71.9693   -6.5903 N   0  0  0  0  0  0  0  0  0  0  0  0
   15.3161   71.5799   -6.9099 N   0  0  0  0  0  0  0  0  0  0  0  0
   16.6292   71.2253   -7.2462 C   0  0  0  0  0  0  0  0  0  0  0  0
   17.2934   72.9661   -5.6856 C   0  0  0  0  0  0  0  0  0  0  0  0
   16.0374   73.2926   -5.3751 C   0  0  0  0  0  0  0  0  0  0  0  0
   14.9236   72.5640   -6.0170 C   0  0  0  0  0  0  0  0  0  0  0  0
   14.5963   71.0772   -7.3554 H   0  0  0  0  0  0  0  0  0  0  0  0
   23.3317   73.5310   -1.9537 O   0  0  0  0  0  0  0  0  0  0  0  0
   22.5111   74.2075   -0.7361 P   0  0  2  0  0  0  0  0  0  0  0  0
   21.1154   73.3875   -0.7302 O   0  0  0  0  0  0  0  0  0  0  0  0
   22.3533   75.6960   -0.8517 O   0  0  0  0  0  0  0  0  0  0  0  0
   23.2772   73.7169    0.5962 O   0  0  0  0  0  0  0  0  0  0  0  0
   25.4210   72.8239    1.0607 O   0  0  0  0  0  0  0  0  0  0  0  0
   23.0113   70.5539    3.5322 O   0  0  0  0  0  0  0  0  0  0  0  0
   22.1681   71.1748    0.8049 O   0  0  0  0  0  0  0  0  0  0  0  0
   24.6511   72.6807    4.6452 O   0  0  0  0  0  0  0  0  0  0  0  0
   23.4098   71.7227    2.8159 C   0  0  2  0  0  0  0  0  0  0  0  0
   23.4732   71.4098    1.3207 C   0  0  2  0  0  0  0  0  0  0  0  0
   24.7877   72.1457    3.3301 C   0  0  1  0  0  0  0  0  0  0  0  0
   24.1142   72.5629    0.5472 C   0  0  1  0  0  0  0  0  0  0  0  0
   25.4145   73.2094    2.4334 C   0  0  1  0  0  0  0  0  0  0  0  0
   22.1380   70.2666    3.2222 H   0  0  0  0  0  0  0  0  0  0  0  0
   21.7553   70.4445    1.2914 H   0  0  0  0  0  0  0  0  0  0  0  0
   24.2531   72.0135    5.2260 H   0  0  0  0  0  0  0  0  0  0  0  0
   27.3339   72.3062    3.4342 O   0  0  0  0  0  0  0  0  0  0  0  0
   27.5480   74.3361    2.4178 O   0  0  0  0  0  0  0  0  0  0  0  0
   26.8669   73.3749    2.7422 C   0  0  0  0  0  0  0  0  0  0  0  0
  1  4  1  0
  1 24  1  0
  1  2  1  6
  1  3  2  0
 25 28  1  0
 25 24  1  0
 25 26  1  1
 25 27  2  0
  6 11  1  0
  6 12  1  0
 29 36  1  0
 29 37  1  0
  9  7  1  6
  7 13  1  0
 10  8  1  6
  8 14  1  0
  4  5  1  0
 36 28  1  1
 33 30  1  1
 30 38  1  0
 34 31  1  6
 31 39  1  0
 35 32  1  1
 32 40  1  0
 41 43  1  0
 15 19  2  0
 42 43  2  0
 16 22  2  0
 12 17  1  1
 17 19  1  0
 17 20  1  0
 18 19  1  0
 18 22  1  0
 18 23  1  0
  9 10  1  0
  9 11  1  0
 10 12  1  0
 11  5  1  1
 33 34  1  0
 33 35  1  0
 34 36  1  0
 35 37  1  0
 37 43  1  1
 20 21  2  0
 21 22  1  0
M  CHG  3   2  -1  26  -1  41  -1
M  END
>  <COMPND>  (38) 
    udp_gluA.pdb 

>  <AUTHOR>  (38) 
    GENERATED BY OPEN BABEL 3.1.1

>  <MASTER>  (38) 
        0    0    0    0    0    0    0    0   56    0   56    0

>  <minimizedAffinity>  (38) 
-6.34307

>  <CNNscore>  (38) 
0.3469189107

>  <CNNaffinity>  (38) 
4.2347574234

>  <CNN_VS>  (38) 
1.4691174030

>  <CNNaffinity_variance>  (38) 
0.0214633495

$$$$
39
     RDKit          3D

 43 45  0  0  0  0  0  0  0  0999 V2000
   22.0286   72.6375   -4.7430 P   0  0  2  0  0  0  0  0  0  0  0  0
   21.6011   74.0396   -4.0574 O   0  0  0  0  0  0  0  0  0  0  0  0
   22.1218   72.6668   -6.2405 O   0  0  0  0  0  0  0  0  0  0  0  0
   20.9835   71.5681   -4.1249 O   0  0  0  0  0  0  0  0  0  0  0  0
   20.3079   70.6937   -5.0101 C   0  0  0  0  0  0  0  0  0  0  0  0
   18.4999   71.7927   -3.8694 O   0  0  0  0  0  0  0  0  0  0  0  0
   16.6829   69.8865   -5.3034 O   0  0  0  0  0  0  0  0  0  0  0  0
   16.4262   72.1714   -6.7695 O   0  0  0  0  0  0  0  0  0  0  0  0
   17.8844   70.5072   -5.7614 C   0  0  1  0  0  0  0  0  0  0  0  0
   17.6352   71.9687   -6.0683 C   0  0  2  0  0  0  0  0  0  0  0  0
   18.8487   70.5884   -4.5859 C   0  0  1  0  0  0  0  0  0  0  0  0
   17.6158   72.5838   -4.6793 C   0  0  2  0  0  0  0  0  0  0  0  0
   16.0511   69.8235   -6.0373 H   0  0  0  0  0  0  0  0  0  0  0  0
   16.4890   71.7617   -7.6472 H   0  0  0  0  0  0  0  0  0  0  0  0
   19.0892   73.7763   -6.7730 O   0  0  0  0  0  0  0  0  0  0  0  0
   19.3146   77.8132   -4.5602 O   0  0  0  0  0  0  0  0  0  0  0  0
   18.0723   73.9448   -4.6763 N   0  0  0  0  0  0  0  0  0  0  0  0
   19.2010   75.7855   -5.6684 N   0  0  0  0  0  0  0  0  0  0  0  0
   18.8053   74.4459   -5.7780 C   0  0  0  0  0  0  0  0  0  0  0  0
   17.7920   74.7680   -3.5924 C   0  0  0  0  0  0  0  0  0  0  0  0
   18.1758   76.0429   -3.5024 C   0  0  0  0  0  0  0  0  0  0  0  0
   18.9467   76.6435   -4.6107 C   0  0  0  0  0  0  0  0  0  0  0  0
   19.7143   76.1562   -6.4223 H   0  0  0  0  0  0  0  0  0  0  0  0
   23.4111   72.2717   -3.9894 O   0  0  0  0  0  0  0  0  0  0  0  0
   23.6892   71.4840   -2.6053 P   0  0  2  0  0  0  0  0  0  0  0  0
   25.2139   71.8931   -2.2469 O   0  0  0  0  0  0  0  0  0  0  0  0
   23.4471   70.0042   -2.6795 O   0  0  0  0  0  0  0  0  0  0  0  0
   22.7922   72.2550   -1.5083 O   0  0  0  0  0  0  0  0  0  0  0  0
   22.3511   70.9952    0.4481 O   0  0  0  0  0  0  0  0  0  0  0  0
   19.8554   74.2472    0.9619 O   0  0  0  0  0  0  0  0  0  0  0  0
   20.1095   72.9744   -1.6554 O   0  0  0  0  0  0  0  0  0  0  0  0
   22.3256   74.0490    2.4817 O   0  0  0  0  0  0  0  0  0  0  0  0
   21.0233   73.5585    0.5149 C   0  0  2  0  0  0  0  0  0  0  0  0
   20.6207   72.4358   -0.4416 C   0  0  2  0  0  0  0  0  0  0  0  0
   21.7320   72.9830    1.7430 C   0  0  1  0  0  0  0  0  0  0  0  0
   21.8143   71.5344   -0.7604 C   0  0  1  0  0  0  0  0  0  0  0  0
   22.8266   71.9976    1.3437 C   0  0  1  0  0  0  0  0  0  0  0  0
   19.3885   74.6216    0.1983 H   0  0  0  0  0  0  0  0  0  0  0  0
   19.3520   73.5477   -1.4605 H   0  0  0  0  0  0  0  0  0  0  0  0
   21.6395   74.6834    2.7418 H   0  0  0  0  0  0  0  0  0  0  0  0
   24.0972   71.9456    3.3146 O   0  0  0  0  0  0  0  0  0  0  0  0
   22.9667   70.0460    2.7554 O   0  0  0  0  0  0  0  0  0  0  0  0
   23.2822   71.2036    2.5245 C   0  0  0  0  0  0  0  0  0  0  0  0
  1  4  1  0
  1 24  1  0
  1  2  1  1
  1  3  2  0
 25 28  1  0
 25 24  1  0
 25 26  1  1
 25 27  2  0
  6 11  1  0
  6 12  1  0
 29 36  1  0
 29 37  1  0
  9  7  1  1
  7 13  1  0
 10  8  1  1
  8 14  1  0
  4  5  1  0
 36 28  1  1
 33 30  1  1
 30 38  1  0
 34 31  1  6
 31 39  1  0
 35 32  1  6
 32 40  1  0
 41 43  1  0
 15 19  2  0
 42 43  2  0
 16 22  2  0
 12 17  1  6
 17 19  1  0
 17 20  1  0
 18 19  1  0
 18 22  1  0
 18 23  1  0
  9 10  1  0
  9 11  1  0
 10 12  1  0
 11  5  1  6
 33 34  1  0
 33 35  1  0
 34 36  1  0
 35 37  1  0
 37 43  1  1
 20 21  2  0
 21 22  1  0
M  CHG  3   2  -1  26  -1  41  -1
M  END
>  <COMPND>  (39) 
    udp_gluA.pdb 

>  <AUTHOR>  (39) 
    GENERATED BY OPEN BABEL 3.1.1

>  <MASTER>  (39) 
        0    0    0    0    0    0    0    0   56    0   56    0

>  <minimizedAffinity>  (39) 
-5.93450

>  <CNNscore>  (39) 
0.3449653089

>  <CNNaffinity>  (39) 
3.7399172783

>  <CNN_VS>  (39) 
1.2901417017

>  <CNNaffinity_variance>  (39) 
0.3378464282

$$$$
40
     RDKit          3D

 43 45  0  0  0  0  0  0  0  0999 V2000
   22.3584   73.2744   -4.3135 P   0  0  2  0  0  0  0  0  0  0  0  0
   21.9664   74.6490   -5.0723 O   0  0  0  0  0  0  0  0  0  0  0  0
   23.7770   72.8256   -4.5084 O   0  0  0  0  0  0  0  0  0  0  0  0
   21.2190   72.2290   -4.7898 O   0  0  0  0  0  0  0  0  0  0  0  0
   20.0262   72.7405   -5.3555 C   0  0  0  0  0  0  0  0  0  0  0  0
   17.6401   72.8295   -5.0791 O   0  0  0  0  0  0  0  0  0  0  0  0
   17.8891   70.1846   -3.6885 O   0  0  0  0  0  0  0  0  0  0  0  0
   17.0285   69.4713   -6.1758 O   0  0  0  0  0  0  0  0  0  0  0  0
   18.6223   70.6917   -4.8037 C   0  0  1  0  0  0  0  0  0  0  0  0
   17.7621   70.6715   -6.0495 C   0  0  2  0  0  0  0  0  0  0  0  0
   18.8344   72.1838   -4.5872 C   0  0  1  0  0  0  0  0  0  0  0  0
   16.8700   71.8825   -5.8364 C   0  0  2  0  0  0  0  0  0  0  0  0
   17.7413   69.2325   -3.8043 H   0  0  0  0  0  0  0  0  0  0  0  0
   17.6411   68.7306   -6.3099 H   0  0  0  0  0  0  0  0  0  0  0  0
   18.3189   71.6935   -8.2533 O   0  0  0  0  0  0  0  0  0  0  0  0
   15.2294   74.2563  -10.5184 O   0  0  0  0  0  0  0  0  0  0  0  0
   16.4670   72.4907   -7.0728 N   0  0  0  0  0  0  0  0  0  0  0  0
   16.7793   72.9709   -9.3789 N   0  0  0  0  0  0  0  0  0  0  0  0
   17.2668   72.3349   -8.2296 C   0  0  0  0  0  0  0  0  0  0  0  0
   15.2917   73.2296   -7.1316 C   0  0  0  0  0  0  0  0  0  0  0  0
   14.8399   73.8299   -8.2344 C   0  0  0  0  0  0  0  0  0  0  0  0
   15.6167   73.7170   -9.4863 C   0  0  0  0  0  0  0  0  0  0  0  0
   17.3201   72.8784  -10.1964 H   0  0  0  0  0  0  0  0  0  0  0  0
   21.9534   73.5790   -2.7786 O   0  0  0  0  0  0  0  0  0  0  0  0
   22.6701   74.4913   -1.6527 P   0  0  2  0  0  0  0  0  0  0  0  0
   21.5018   75.5218   -1.2129 O   0  0  0  0  0  0  0  0  0  0  0  0
   23.9376   75.1525   -2.1111 O   0  0  0  0  0  0  0  0  0  0  0  0
   22.8474   73.5111   -0.3837 O   0  0  0  0  0  0  0  0  0  0  0  0
   24.8883   72.3136   -0.2854 O   0  0  0  0  0  0  0  0  0  0  0  0
   22.6637   70.4247    2.6388 O   0  0  0  0  0  0  0  0  0  0  0  0
   21.4396   71.1596    0.0901 O   0  0  0  0  0  0  0  0  0  0  0  0
   24.7670   72.2889    3.3816 O   0  0  0  0  0  0  0  0  0  0  0  0
   23.0904   71.5216    1.8308 C   0  0  2  0  0  0  0  0  0  0  0  0
   22.8365   71.2011    0.3576 C   0  0  2  0  0  0  0  0  0  0  0  0
   24.5849   71.7382    2.0785 C   0  0  1  0  0  0  0  0  0  0  0  0
   23.4865   72.2467   -0.5496 C   0  0  1  0  0  0  0  0  0  0  0  0
   25.1859   72.6974    1.0552 C   0  0  1  0  0  0  0  0  0  0  0  0
   21.7166   70.2683    2.4980 H   0  0  0  0  0  0  0  0  0  0  0  0
   21.0207   70.4984    0.6625 H   0  0  0  0  0  0  0  0  0  0  0  0
   24.3887   71.6880    4.0424 H   0  0  0  0  0  0  0  0  0  0  0  0
   27.2028   73.0696   -0.0828 O   0  0  0  0  0  0  0  0  0  0  0  0
   27.3433   72.2824    2.0526 O   0  0  0  0  0  0  0  0  0  0  0  0
   26.6786   72.6482    1.0948 C   0  0  0  0  0  0  0  0  0  0  0  0
  1  4  1  0
  1 24  1  0
  1  2  1  6
  1  3  2  0
 25 28  1  0
 25 24  1  0
 25 26  1  1
 25 27  2  0
  6 11  1  0
  6 12  1  0
 29 36  1  0
 29 37  1  0
  9  7  1  1
  7 13  1  0
 10  8  1  1
  8 14  1  0
  4  5  1  0
 36 28  1  1
 33 30  1  1
 30 38  1  0
 34 31  1  1
 31 39  1  0
 35 32  1  1
 32 40  1  0
 41 43  1  0
 15 19  2  0
 42 43  2  0
 16 22  2  0
 12 17  1  6
 17 19  1  0
 17 20  1  0
 18 19  1  0
 18 22  1  0
 18 23  1  0
  9 10  1  0
  9 11  1  0
 10 12  1  0
 11  5  1  6
 33 34  1  0
 33 35  1  0
 34 36  1  0
 35 37  1  0
 37 43  1  6
 20 21  2  0
 21 22  1  0
M  CHG  3   2  -1  26  -1  41  -1
M  END
>  <COMPND>  (40) 
    udp_gluA.pdb 

>  <AUTHOR>  (40) 
    GENERATED BY OPEN BABEL 3.1.1

>  <MASTER>  (40) 
        0    0    0    0    0    0    0    0   56    0   56    0

>  <minimizedAffinity>  (40) 
-7.24807

>  <CNNscore>  (40) 
0.3440092802

>  <CNNaffinity>  (40) 
4.0607500076

>  <CNN_VS>  (40) 
1.3969357014

>  <CNNaffinity_variance>  (40) 
0.0184498150

$$$$
41
     RDKit          3D

 43 45  0  0  0  0  0  0  0  0999 V2000
   20.9483   71.8073   -1.2215 P   0  0  2  0  0  0  0  0  0  0  0  0
   20.3204   70.3642   -0.8445 O   0  0  0  0  0  0  0  0  0  0  0  0
   20.6897   72.8925   -0.2178 O   0  0  0  0  0  0  0  0  0  0  0  0
   20.4020   72.0898   -2.7181 O   0  0  0  0  0  0  0  0  0  0  0  0
   20.2924   70.9996   -3.6148 C   0  0  0  0  0  0  0  0  0  0  0  0
   20.6760   70.4897   -5.9322 O   0  0  0  0  0  0  0  0  0  0  0  0
   22.3858   72.9522   -5.9988 O   0  0  0  0  0  0  0  0  0  0  0  0
   20.0601   73.8107   -7.1347 O   0  0  0  0  0  0  0  0  0  0  0  0
   21.1779   72.7100   -5.2770 C   0  0  1  0  0  0  0  0  0  0  0  0
   19.9910   72.7399   -6.2164 C   0  0  2  0  0  0  0  0  0  0  0  0
   21.1866   71.2574   -4.8207 C   0  0  1  0  0  0  0  0  0  0  0  0
   20.0892   71.3828   -6.8921 C   0  0  2  0  0  0  0  0  0  0  0  0
   22.4031   73.8743   -6.3006 H   0  0  0  0  0  0  0  0  0  0  0  0
   19.9929   74.6522   -6.6558 H   0  0  0  0  0  0  0  0  0  0  0  0
   19.3390   70.8243   -9.5570 O   0  0  0  0  0  0  0  0  0  0  0  0
   15.1401   69.4219   -8.2736 O   0  0  0  0  0  0  0  0  0  0  0  0
   18.8062   70.8710   -7.2827 N   0  0  0  0  0  0  0  0  0  0  0  0
   17.2481   70.1273   -8.9153 N   0  0  0  0  0  0  0  0  0  0  0  0
   18.5304   70.6248   -8.6485 C   0  0  0  0  0  0  0  0  0  0  0  0
   17.8381   70.6167   -6.3187 C   0  0  0  0  0  0  0  0  0  0  0  0
   16.6203   70.1424   -6.5884 C   0  0  0  0  0  0  0  0  0  0  0  0
   16.2515   69.8591   -7.9909 C   0  0  0  0  0  0  0  0  0  0  0  0
   17.0321   69.9501   -9.8594 H   0  0  0  0  0  0  0  0  0  0  0  0
   22.5110   71.4715   -1.4624 O   0  0  0  0  0  0  0  0  0  0  0  0
   23.7372   72.4108   -1.9395 P   0  0  2  0  0  0  0  0  0  0  0  0
   23.0163   73.8231   -2.2652 O   0  0  0  0  0  0  0  0  0  0  0  0
   24.5373   71.8478   -3.0784 O   0  0  0  0  0  0  0  0  0  0  0  0
   24.5873   72.6876   -0.5967 O   0  0  0  0  0  0  0  0  0  0  0  0
   23.5980   72.6418    1.5547 O   0  0  0  0  0  0  0  0  0  0  0  0
   27.0112   74.8644    2.2461 O   0  0  0  0  0  0  0  0  0  0  0  0
   25.4193   75.3060   -0.1633 O   0  0  0  0  0  0  0  0  0  0  0  0
   26.8731   72.0938    3.1153 O   0  0  0  0  0  0  0  0  0  0  0  0
   26.2148   73.8611    1.6158 C   0  0  2  0  0  0  0  0  0  0  0  0
   25.0064   74.5140    0.9443 C   0  0  2  0  0  0  0  0  0  0  0  0
   25.7570   72.8751    2.6929 C   0  0  1  0  0  0  0  0  0  0  0  0
   24.0134   73.4573    0.4584 C   0  0  1  0  0  0  0  0  0  0  0  0
   24.6760   71.9361    2.1653 C   0  0  1  0  0  0  0  0  0  0  0  0
   27.3136   75.5026    1.5808 H   0  0  0  0  0  0  0  0  0  0  0  0
   26.0497   75.9785    0.1377 H   0  0  0  0  0  0  0  0  0  0  0  0
   27.5685   72.6795    3.4532 H   0  0  0  0  0  0  0  0  0  0  0  0
   22.6600   71.2994    3.1811 O   0  0  0  0  0  0  0  0  0  0  0  0
   24.5908   70.6157    4.1829 O   0  0  0  0  0  0  0  0  0  0  0  0
   24.0089   71.2110    3.2884 C   0  0  0  0  0  0  0  0  0  0  0  0
  1  4  1  0
  1 24  1  0
  1  2  1  1
  1  3  2  0
 25 28  1  0
 25 24  1  0
 25 26  1  6
 25 27  2  0
  6 11  1  0
  6 12  1  0
 29 36  1  0
 29 37  1  0
  9  7  1  6
  7 13  1  0
 10  8  1  6
  8 14  1  0
  4  5  1  0
 36 28  1  6
 33 30  1  1
 30 38  1  0
 34 31  1  6
 31 39  1  0
 35 32  1  6
 32 40  1  0
 41 43  1  0
 15 19  2  0
 42 43  2  0
 16 22  2  0
 12 17  1  1
 17 19  1  0
 17 20  1  0
 18 19  1  0
 18 22  1  0
 18 23  1  0
  9 10  1  0
  9 11  1  0
 10 12  1  0
 11  5  1  1
 33 34  1  0
 33 35  1  0
 34 36  1  0
 35 37  1  0
 37 43  1  1
 20 21  2  0
 21 22  1  0
M  CHG  3   2  -1  26  -1  41  -1
M  END
>  <COMPND>  (41) 
    udp_gluA.pdb 

>  <AUTHOR>  (41) 
    GENERATED BY OPEN BABEL 3.1.1

>  <MASTER>  (41) 
        0    0    0    0    0    0    0    0   56    0   56    0

>  <minimizedAffinity>  (41) 
-7.43064

>  <CNNscore>  (41) 
0.7734241486

>  <CNNaffinity>  (41) 
4.6129240990

>  <CNN_VS>  (41) 
3.5677468777

>  <CNNaffinity_variance>  (41) 
0.0755424723

$$$$
42
     RDKit          3D

 43 45  0  0  0  0  0  0  0  0999 V2000
   23.2041   72.8934   -3.0868 P   0  0  2  0  0  0  0  0  0  0  0  0
   23.5619   74.2322   -2.2510 O   0  0  0  0  0  0  0  0  0  0  0  0
   24.3078   72.3809   -3.9649 O   0  0  0  0  0  0  0  0  0  0  0  0
   21.8212   73.2640   -3.8406 O   0  0  0  0  0  0  0  0  0  0  0  0
   21.2512   72.3084   -4.7161 C   0  0  0  0  0  0  0  0  0  0  0  0
   20.9378   71.7423   -7.0310 O   0  0  0  0  0  0  0  0  0  0  0  0
   21.5039   74.6273   -7.6207 O   0  0  0  0  0  0  0  0  0  0  0  0
   18.7847   74.5078   -7.7860 O   0  0  0  0  0  0  0  0  0  0  0  0
   20.8071   74.0506   -6.5160 C   0  0  1  0  0  0  0  0  0  0  0  0
   19.4375   73.5742   -6.9512 C   0  0  2  0  0  0  0  0  0  0  0  0
   21.4991   72.7434   -6.1547 C   0  0  1  0  0  0  0  0  0  0  0  0
   19.7684   72.2777   -7.6706 C   0  0  2  0  0  0  0  0  0  0  0  0
   21.0799   75.4639   -7.8698 H   0  0  0  0  0  0  0  0  0  0  0  0
   18.5954   75.3153   -7.2820 H   0  0  0  0  0  0  0  0  0  0  0  0
   18.7780   70.7912   -9.8582 O   0  0  0  0  0  0  0  0  0  0  0  0
   15.6909   68.6149   -7.2167 O   0  0  0  0  0  0  0  0  0  0  0  0
   18.7064   71.3158   -7.5827 N   0  0  0  0  0  0  0  0  0  0  0  0
   17.2407   69.7094   -8.5407 N   0  0  0  0  0  0  0  0  0  0  0  0
   18.2837   70.6231   -8.7418 C   0  0  0  0  0  0  0  0  0  0  0  0
   18.0967   71.0656   -6.3593 C   0  0  0  0  0  0  0  0  0  0  0  0
   17.1037   70.1917   -6.1832 C   0  0  0  0  0  0  0  0  0  0  0  0
   16.6025   69.4268   -7.3439 C   0  0  0  0  0  0  0  0  0  0  0  0
   16.9280   69.2166   -9.3335 H   0  0  0  0  0  0  0  0  0  0  0  0
   22.7261   71.8639   -1.9360 O   0  0  0  0  0  0  0  0  0  0  0  0
   21.6581   72.0363   -0.7346 P   0  0  2  0  0  0  0  0  0  0  0  0
   20.7864   70.6748   -0.8164 O   0  0  0  0  0  0  0  0  0  0  0  0
   20.8454   73.2964   -0.8092 O   0  0  0  0  0  0  0  0  0  0  0  0
   22.5302   71.8810    0.6137 O   0  0  0  0  0  0  0  0  0  0  0  0
   22.5892   73.1934    2.5843 O   0  0  0  0  0  0  0  0  0  0  0  0
   26.5189   71.9553    2.2809 O   0  0  0  0  0  0  0  0  0  0  0  0
   25.0513   72.8198   -0.0925 O   0  0  0  0  0  0  0  0  0  0  0  0
   24.7491   70.7283    4.2336 O   0  0  0  0  0  0  0  0  0  0  0  0
   25.1034   71.8479    2.1298 C   0  0  2  0  0  0  0  0  0  0  0  0
   24.5954   72.9865    1.2451 C   0  0  2  0  0  0  0  0  0  0  0  0
   24.4716   71.9324    3.5211 C   0  0  1  0  0  0  0  0  0  0  0  0
   23.0670   73.0408    1.2472 C   0  0  1  0  0  0  0  0  0  0  0  0
   22.9586   72.1110    3.4359 C   0  0  1  0  0  0  0  0  0  0  0  0
   26.9421   71.9042    1.4093 H   0  0  0  0  0  0  0  0  0  0  0  0
   26.0203   72.7843   -0.1013 H   0  0  0  0  0  0  0  0  0  0  0  0
   25.7090   70.6027    4.2948 H   0  0  0  0  0  0  0  0  0  0  0  0
   21.0777   72.2146    4.8335 O   0  0  0  0  0  0  0  0  0  0  0  0
   23.0327   73.0507    5.6569 O   0  0  0  0  0  0  0  0  0  0  0  0
   22.3972   72.5186    4.7591 C   0  0  0  0  0  0  0  0  0  0  0  0
  1  4  1  0
  1 24  1  0
  1  2  1  1
  1  3  2  0
 25 28  1  0
 25 24  1  0
 25 26  1  6
 25 27  2  0
  6 11  1  0
  6 12  1  0
 29 36  1  0
 29 37  1  0
  9  7  1  6
  7 13  1  0
 10  8  1  6
  8 14  1  0
  4  5  1  0
 36 28  1  1
 33 30  1  1
 30 38  1  0
 34 31  1  6
 31 39  1  0
 35 32  1  1
 32 40  1  0
 41 43  1  0
 15 19  2  0
 42 43  2  0
 16 22  2  0
 12 17  1  1
 17 19  1  0
 17 20  1  0
 18 19  1  0
 18 22  1  0
 18 23  1  0
  9 10  1  0
  9 11  1  0
 10 12  1  0
 11  5  1  1
 33 34  1  0
 33 35  1  0
 34 36  1  0
 35 37  1  0
 37 43  1  1
 20 21  2  0
 21 22  1  0
M  CHG  3   2  -1  26  -1  41  -1
M  END
>  <COMPND>  (42) 
    udp_gluA.pdb 

>  <AUTHOR>  (42) 
    GENERATED BY OPEN BABEL 3.1.1

>  <MASTER>  (42) 
        0    0    0    0    0    0    0    0   56    0   56    0

>  <minimizedAffinity>  (42) 
-7.47292

>  <CNNscore>  (42) 
0.6891033649

>  <CNNaffinity>  (42) 
4.3233976364

>  <CNN_VS>  (42) 
2.9792678356

>  <CNNaffinity_variance>  (42) 
0.0762910619

$$$$
43
     RDKit          3D

 43 45  0  0  0  0  0  0  0  0999 V2000
   21.7249   74.1643   -3.8330 P   0  0  2  0  0  0  0  0  0  0  0  0
   22.4427   75.5562   -3.4254 O   0  0  0  0  0  0  0  0  0  0  0  0
   22.0088   73.6898   -5.2280 O   0  0  0  0  0  0  0  0  0  0  0  0
   20.1658   74.4130   -3.4791 O   0  0  0  0  0  0  0  0  0  0  0  0
   19.1903   74.0746   -4.4478 C   0  0  0  0  0  0  0  0  0  0  0  0
   17.7240   72.2780   -5.0803 O   0  0  0  0  0  0  0  0  0  0  0  0
   18.4400   71.0175   -2.4554 O   0  0  0  0  0  0  0  0  0  0  0  0
   19.9980   69.6426   -4.2213 O   0  0  0  0  0  0  0  0  0  0  0  0
   19.2553   71.7844   -3.3418 C   0  0  1  0  0  0  0  0  0  0  0  0
   19.6239   70.9621   -4.5585 C   0  0  2  0  0  0  0  0  0  0  0  0
   18.3886   72.8796   -3.9482 C   0  0  1  0  0  0  0  0  0  0  0  0
   18.3442   71.0164   -5.3753 C   0  0  2  0  0  0  0  0  0  0  0  0
   18.9721   70.3113   -2.0557 H   0  0  0  0  0  0  0  0  0  0  0  0
   20.8179   69.6617   -3.7023 H   0  0  0  0  0  0  0  0  0  0  0  0
   16.5301   69.9406   -7.2538 O   0  0  0  0  0  0  0  0  0  0  0  0
   19.3985   70.7610  -10.7670 O   0  0  0  0  0  0  0  0  0  0  0  0
   18.5914   70.9365   -6.7872 N   0  0  0  0  0  0  0  0  0  0  0  0
   17.9609   70.3493   -9.0017 N   0  0  0  0  0  0  0  0  0  0  0  0
   17.6142   70.3778   -7.6444 C   0  0  0  0  0  0  0  0  0  0  0  0
   19.7891   71.4095   -7.3094 C   0  0  0  0  0  0  0  0  0  0  0  0
   20.1053   71.3757   -8.6054 C   0  0  0  0  0  0  0  0  0  0  0  0
   19.1395   70.8068   -9.5683 C   0  0  0  0  0  0  0  0  0  0  0  0
   17.2972   69.9629   -9.6177 H   0  0  0  0  0  0  0  0  0  0  0  0
   22.2054   73.1532   -2.6670 O   0  0  0  0  0  0  0  0  0  0  0  0
   23.2391   71.9105   -2.6991 P   0  0  2  0  0  0  0  0  0  0  0  0
   24.3922   72.4148   -3.7171 O   0  0  0  0  0  0  0  0  0  0  0  0
   22.6132   70.5985   -3.0746 O   0  0  0  0  0  0  0  0  0  0  0  0
   23.9424   71.9256   -1.2474 O   0  0  0  0  0  0  0  0  0  0  0  0
   23.2253   72.0787    1.0046 O   0  0  0  0  0  0  0  0  0  0  0  0
   26.4888   74.6119    0.9876 O   0  0  0  0  0  0  0  0  0  0  0  0
   24.5878   74.6310   -1.2306 O   0  0  0  0  0  0  0  0  0  0  0  0
   26.6988   71.9696    2.1814 O   0  0  0  0  0  0  0  0  0  0  0  0
   25.7138   73.4823    0.5857 C   0  0  2  0  0  0  0  0  0  0  0  0
   24.3812   73.9565    0.0052 C   0  0  2  0  0  0  0  0  0  0  0  0
   25.4761   72.6087    1.8195 C   0  0  1  0  0  0  0  0  0  0  0  0
   23.4336   72.7780   -0.2230 C   0  0  1  0  0  0  0  0  0  0  0  0
   24.4262   71.5352    1.5481 C   0  0  1  0  0  0  0  0  0  0  0  0
   26.6524   75.1817    0.2196 H   0  0  0  0  0  0  0  0  0  0  0  0
   25.1884   75.3799   -1.0932 H   0  0  0  0  0  0  0  0  0  0  0  0
   27.3756   72.6419    2.3567 H   0  0  0  0  0  0  0  0  0  0  0  0
   22.7272   70.3752    2.6748 O   0  0  0  0  0  0  0  0  0  0  0  0
   24.6070   70.8792    3.8629 O   0  0  0  0  0  0  0  0  0  0  0  0
   23.9642   70.9103    2.8242 C   0  0  0  0  0  0  0  0  0  0  0  0
  1  4  1  0
  1 24  1  0
  1  2  1  1
  1  3  2  0
 25 28  1  0
 25 24  1  0
 25 26  1  6
 25 27  2  0
  6 11  1  0
  6 12  1  0
 29 36  1  0
 29 37  1  0
  9  7  1  1
  7 13  1  0
 10  8  1  1
  8 14  1  0
  4  5  1  0
 36 28  1  6
 33 30  1  1
 30 38  1  0
 34 31  1  6
 31 39  1  0
 35 32  1  6
 32 40  1  0
 41 43  1  0
 15 19  2  0
 42 43  2  0
 16 22  2  0
 12 17  1  6
 17 19  1  0
 17 20  1  0
 18 19  1  0
 18 22  1  0
 18 23  1  0
  9 10  1  0
  9 11  1  0
 10 12  1  0
 11  5  1  6
 33 34  1  0
 33 35  1  0
 34 36  1  0
 35 37  1  0
 37 43  1  1
 20 21  2  0
 21 22  1  0
M  CHG  3   2  -1  26  -1  41  -1
M  END
>  <COMPND>  (43) 
    udp_gluA.pdb 

>  <AUTHOR>  (43) 
    GENERATED BY OPEN BABEL 3.1.1

>  <MASTER>  (43) 
        0    0    0    0    0    0    0    0   56    0   56    0

>  <minimizedAffinity>  (43) 
-7.33353

>  <CNNscore>  (43) 
0.6567066312

>  <CNNaffinity>  (43) 
4.4116535187

>  <CNN_VS>  (43) 
2.8971621990

>  <CNNaffinity_variance>  (43) 
0.0200392418

$$$$
44
     RDKit          3D

 43 45  0  0  0  0  0  0  0  0999 V2000
   19.9657   71.6439   -1.7412 P   0  0  2  0  0  0  0  0  0  0  0  0
   20.0291   70.1045   -1.2462 O   0  0  0  0  0  0  0  0  0  0  0  0
   20.5816   72.6378   -0.8006 O   0  0  0  0  0  0  0  0  0  0  0  0
   18.4019   71.8774   -2.0848 O   0  0  0  0  0  0  0  0  0  0  0  0
   17.4531   70.9583   -1.5754 C   0  0  0  0  0  0  0  0  0  0  0  0
   15.8374   69.3671   -2.3724 O   0  0  0  0  0  0  0  0  0  0  0  0
   14.6970   71.6171   -3.9936 O   0  0  0  0  0  0  0  0  0  0  0  0
   12.9828   71.4791   -1.8774 O   0  0  0  0  0  0  0  0  0  0  0  0
   15.2699   71.6453   -2.6861 C   0  0  1  0  0  0  0  0  0  0  0  0
   14.3115   71.0425   -1.6809 C   0  0  2  0  0  0  0  0  0  0  0  0
   16.4257   70.6546   -2.6582 C   0  0  1  0  0  0  0  0  0  0  0  0
   14.4818   69.5546   -1.9358 C   0  0  2  0  0  0  0  0  0  0  0  0
   13.9561   72.2424   -4.0360 H   0  0  0  0  0  0  0  0  0  0  0  0
   12.9265   72.4322   -1.7027 H   0  0  0  0  0  0  0  0  0  0  0  0
   13.5857   66.8763   -1.9520 O   0  0  0  0  0  0  0  0  0  0  0  0
   13.6580   66.6324    2.6501 O   0  0  0  0  0  0  0  0  0  0  0  0
   14.2581   68.7675   -0.7562 N   0  0  0  0  0  0  0  0  0  0  0  0
   13.6216   66.7577    0.3401 N   0  0  0  0  0  0  0  0  0  0  0  0
   13.8072   67.4315   -0.8742 C   0  0  0  0  0  0  0  0  0  0  0  0
   14.4863   69.3184    0.4989 C   0  0  0  0  0  0  0  0  0  0  0  0
   14.3050   68.6637    1.6474 C   0  0  0  0  0  0  0  0  0  0  0  0
   13.8345   67.2634    1.6123 C   0  0  0  0  0  0  0  0  0  0  0  0
   13.3061   65.8268    0.2835 H   0  0  0  0  0  0  0  0  0  0  0  0
   20.6538   71.5839   -3.2026 O   0  0  0  0  0  0  0  0  0  0  0  0
   20.9703   72.7510   -4.2756 P   0  0  2  0  0  0  0  0  0  0  0  0
   22.4499   72.3704   -4.8105 O   0  0  0  0  0  0  0  0  0  0  0  0
   20.8507   74.1426   -3.7250 O   0  0  0  0  0  0  0  0  0  0  0  0
   19.9940   72.4377   -5.5211 O   0  0  0  0  0  0  0  0  0  0  0  0
   18.4829   70.6604   -5.9295 O   0  0  0  0  0  0  0  0  0  0  0  0
   19.9064   71.4432   -9.7280 O   0  0  0  0  0  0  0  0  0  0  0  0
   21.7251   71.4133   -7.4420 O   0  0  0  0  0  0  0  0  0  0  0  0
   17.2467   72.3267   -8.9556 O   0  0  0  0  0  0  0  0  0  0  0  0
   19.5191   71.7590   -8.3907 C   0  0  2  0  0  0  0  0  0  0  0  0
   20.3763   70.9612   -7.4078 C   0  0  2  0  0  0  0  0  0  0  0  0
   18.0421   71.3932   -8.2273 C   0  0  1  0  0  0  0  0  0  0  0  0
   19.8419   71.0961   -5.9813 C   0  0  1  0  0  0  0  0  0  0  0  0
   17.6180   71.4298   -6.7619 C   0  0  1  0  0  0  0  0  0  0  0  0
   20.8417   71.6672   -9.8554 H   0  0  0  0  0  0  0  0  0  0  0  0
   22.0705   71.3308   -8.3444 H   0  0  0  0  0  0  0  0  0  0  0  0
   17.5068   72.3134   -9.8900 H   0  0  0  0  0  0  0  0  0  0  0  0
   16.4278   69.6251   -5.8519 O   0  0  0  0  0  0  0  0  0  0  0  0
   15.2310   71.1816   -7.0113 O   0  0  0  0  0  0  0  0  0  0  0  0
   16.2936   70.7637   -6.5762 C   0  0  0  0  0  0  0  0  0  0  0  0
  1  4  1  0
  1 24  1  0
  1  2  1  1
  1  3  2  0
 25 28  1  0
 25 24  1  0
 25 26  1  6
 25 27  2  0
  6 11  1  0
  6 12  1  0
 29 36  1  0
 29 37  1  0
  9  7  1  6
  7 13  1  0
 10  8  1  6
  8 14  1  0
  4  5  1  0
 36 28  1  6
 33 30  1  6
 30 38  1  0
 34 31  1  1
 31 39  1  0
 35 32  1  6
 32 40  1  0
 41 43  1  0
 15 19  2  0
 42 43  2  0
 16 22  2  0
 12 17  1  1
 17 19  1  0
 17 20  1  0
 18 19  1  0
 18 22  1  0
 18 23  1  0
  9 10  1  0
  9 11  1  0
 10 12  1  0
 11  5  1  1
 33 34  1  0
 33 35  1  0
 34 36  1  0
 35 37  1  0
 37 43  1  6
 20 21  2  0
 21 22  1  0
M  CHG  3   2  -1  26  -1  41  -1
M  END
>  <COMPND>  (44) 
    udp_gluA.pdb 

>  <AUTHOR>  (44) 
    GENERATED BY OPEN BABEL 3.1.1

>  <MASTER>  (44) 
        0    0    0    0    0    0    0    0   56    0   56    0

>  <minimizedAffinity>  (44) 
-6.73394

>  <CNNscore>  (44) 
0.6321946979

>  <CNNaffinity>  (44) 
4.3566060066

>  <CNN_VS>  (44) 
2.7542231083

>  <CNNaffinity_variance>  (44) 
0.1004174128

$$$$
45
     RDKit          3D

 43 45  0  0  0  0  0  0  0  0999 V2000
   16.5298   73.2083   -1.4402 P   0  0  2  0  0  0  0  0  0  0  0  0
   17.8428   72.8571   -0.5617 O   0  0  0  0  0  0  0  0  0  0  0  0
   15.9953   74.5979   -1.2530 O   0  0  0  0  0  0  0  0  0  0  0  0
   15.5007   72.0076   -1.0978 O   0  0  0  0  0  0  0  0  0  0  0  0
   15.9741   70.9049   -0.3464 C   0  0  0  0  0  0  0  0  0  0  0  0
   15.5935   68.5327   -0.2730 O   0  0  0  0  0  0  0  0  0  0  0  0
   14.8583   68.7487   -3.1720 O   0  0  0  0  0  0  0  0  0  0  0  0
   12.4247   68.6280   -1.9475 O   0  0  0  0  0  0  0  0  0  0  0  0
   14.6163   69.6689   -2.1074 C   0  0  1  0  0  0  0  0  0  0  0  0
   13.5091   69.1549   -1.2119 C   0  0  2  0  0  0  0  0  0  0  0  0
   15.8203   69.6366   -1.1759 C   0  0  1  0  0  0  0  0  0  0  0  0
   14.2302   68.0969   -0.3943 C   0  0  2  0  0  0  0  0  0  0  0  0
   14.1023   68.7518   -3.7805 H   0  0  0  0  0  0  0  0  0  0  0  0
   11.9987   69.3404   -2.4505 H   0  0  0  0  0  0  0  0  0  0  0  0
   13.4271   65.6283    0.7182 O   0  0  0  0  0  0  0  0  0  0  0  0
   12.0958   67.6264    4.6526 O   0  0  0  0  0  0  0  0  0  0  0  0
   13.6705   67.9433    0.9187 N   0  0  0  0  0  0  0  0  0  0  0  0
   12.7638   66.6260    2.6763 N   0  0  0  0  0  0  0  0  0  0  0  0
   13.2997   66.6588    1.3821 C   0  0  0  0  0  0  0  0  0  0  0  0
   13.4955   69.0559    1.7326 C   0  0  0  0  0  0  0  0  0  0  0  0
   12.9835   69.0088    2.9641 C   0  0  0  0  0  0  0  0  0  0  0  0
   12.5698   67.7051    3.5232 C   0  0  0  0  0  0  0  0  0  0  0  0
   12.4964   65.7429    3.0199 H   0  0  0  0  0  0  0  0  0  0  0  0
   16.9998   72.8651   -2.9483 O   0  0  0  0  0  0  0  0  0  0  0  0
   17.7609   73.7663   -4.0538 P   0  0  2  0  0  0  0  0  0  0  0  0
   19.2742   73.8492   -3.4853 O   0  0  0  0  0  0  0  0  0  0  0  0
   17.1213   75.1008   -4.3068 O   0  0  0  0  0  0  0  0  0  0  0  0
   17.8658   72.8170   -5.3539 O   0  0  0  0  0  0  0  0  0  0  0  0
   17.2019   70.5629   -5.6500 O   0  0  0  0  0  0  0  0  0  0  0  0
   20.4825   70.8082   -8.1491 O   0  0  0  0  0  0  0  0  0  0  0  0
   20.5364   72.0553   -5.5078 O   0  0  0  0  0  0  0  0  0  0  0  0
   17.7973   70.7990   -9.2628 O   0  0  0  0  0  0  0  0  0  0  0  0
   19.3255   71.2909   -7.4662 C   0  0  2  0  0  0  0  0  0  0  0  0
   19.5288   71.1566   -5.9569 C   0  0  2  0  0  0  0  0  0  0  0  0
   18.1263   70.4546   -7.9183 C   0  0  1  0  0  0  0  0  0  0  0  0
   18.2306   71.4464   -5.2021 C   0  0  1  0  0  0  0  0  0  0  0  0
   16.9064   70.7082   -7.0373 C   0  0  1  0  0  0  0  0  0  0  0  0
   21.2575   71.3248   -7.8775 H   0  0  0  0  0  0  0  0  0  0  0  0
   21.3629   71.8772   -5.9828 H   0  0  0  0  0  0  0  0  0  0  0  0
   18.5654   70.6423   -9.8339 H   0  0  0  0  0  0  0  0  0  0  0  0
   15.6711   68.9221   -6.1511 O   0  0  0  0  0  0  0  0  0  0  0  0
   15.2509   69.5048   -8.3151 O   0  0  0  0  0  0  0  0  0  0  0  0
   15.8597   69.6674   -7.2682 C   0  0  0  0  0  0  0  0  0  0  0  0
  1  4  1  0
  1 24  1  0
  1  2  1  1
  1  3  2  0
 25 28  1  0
 25 24  1  0
 25 26  1  1
 25 27  2  0
  6 11  1  0
  6 12  1  0
 29 36  1  0
 29 37  1  0
  9  7  1  6
  7 13  1  0
 10  8  1  6
  8 14  1  0
  4  5  1  0
 36 28  1  6
 33 30  1  6
 30 38  1  0
 34 31  1  1
 31 39  1  0
 35 32  1  6
 32 40  1  0
 41 43  1  0
 15 19  2  0
 42 43  2  0
 16 22  2  0
 12 17  1  1
 17 19  1  0
 17 20  1  0
 18 19  1  0
 18 22  1  0
 18 23  1  0
  9 10  1  0
  9 11  1  0
 10 12  1  0
 11  5  1  1
 33 34  1  0
 33 35  1  0
 34 36  1  0
 35 37  1  0
 37 43  1  6
 20 21  2  0
 21 22  1  0
M  CHG  3   2  -1  26  -1  41  -1
M  END
>  <COMPND>  (45) 
    udp_gluA.pdb 

>  <AUTHOR>  (45) 
    GENERATED BY OPEN BABEL 3.1.1

>  <MASTER>  (45) 
        0    0    0    0    0    0    0    0   56    0   56    0

>  <minimizedAffinity>  (45) 
-6.24953

>  <CNNscore>  (45) 
0.5863031149

>  <CNNaffinity>  (45) 
4.2301397324

>  <CNN_VS>  (45) 
2.4801440239

>  <CNNaffinity_variance>  (45) 
0.1921576858

$$$$
46
     RDKit          3D

 43 45  0  0  0  0  0  0  0  0999 V2000
   21.8577   74.8031   -2.8606 P   0  0  2  0  0  0  0  0  0  0  0  0
   22.1073   76.3155   -2.3416 O   0  0  0  0  0  0  0  0  0  0  0  0
   22.5847   74.4379   -4.1215 O   0  0  0  0  0  0  0  0  0  0  0  0
   20.2459   74.6723   -2.9158 O   0  0  0  0  0  0  0  0  0  0  0  0
   19.6620   73.9569   -3.9890 C   0  0  0  0  0  0  0  0  0  0  0  0
   18.0921   72.2088   -4.4961 O   0  0  0  0  0  0  0  0  0  0  0  0
   19.0631   70.8666   -1.9967 O   0  0  0  0  0  0  0  0  0  0  0  0
   20.3830   69.5044   -3.9559 O   0  0  0  0  0  0  0  0  0  0  0  0
   19.7937   71.6383   -2.9502 C   0  0  1  0  0  0  0  0  0  0  0  0
   20.0058   70.8397   -4.2189 C   0  0  2  0  0  0  0  0  0  0  0  0
   18.8920   72.7669   -3.4311 C   0  0  1  0  0  0  0  0  0  0  0  0
   18.6453   70.9422   -4.8872 C   0  0  2  0  0  0  0  0  0  0  0  0
   19.6190   70.1391   -1.6749 H   0  0  0  0  0  0  0  0  0  0  0  0
   21.2554   69.4926   -3.5308 H   0  0  0  0  0  0  0  0  0  0  0  0
   16.7725   69.6450   -6.5564 O   0  0  0  0  0  0  0  0  0  0  0  0
   19.0830   70.8183  -10.3681 O   0  0  0  0  0  0  0  0  0  0  0  0
   18.7332   70.8932   -6.3192 N   0  0  0  0  0  0  0  0  0  0  0  0
   17.9256   70.2298   -8.4532 N   0  0  0  0  0  0  0  0  0  0  0  0
   17.7398   70.2152   -7.0645 C   0  0  0  0  0  0  0  0  0  0  0  0
   19.7925   71.5132   -6.9707 C   0  0  0  0  0  0  0  0  0  0  0  0
   19.9560   71.5186   -8.2951 C   0  0  0  0  0  0  0  0  0  0  0  0
   18.9628   70.8319   -9.1468 C   0  0  0  0  0  0  0  0  0  0  0  0
   17.2478   69.7624   -8.9931 H   0  0  0  0  0  0  0  0  0  0  0  0
   22.2510   73.9082   -1.5732 O   0  0  0  0  0  0  0  0  0  0  0  0
   21.6883   73.9237   -0.0577 P   0  0  2  0  0  0  0  0  0  0  0  0
   20.6584   72.6751   -0.0328 O   0  0  0  0  0  0  0  0  0  0  0  0
   21.0837   75.2325    0.3613 O   0  0  0  0  0  0  0  0  0  0  0  0
   22.9343   73.4418    0.8465 O   0  0  0  0  0  0  0  0  0  0  0  0
   25.0024   72.5609    0.1007 O   0  0  0  0  0  0  0  0  0  0  0  0
   24.6132   70.7720    3.8043 O   0  0  0  0  0  0  0  0  0  0  0  0
   22.3113   70.9981    2.0197 O   0  0  0  0  0  0  0  0  0  0  0  0
   26.4582   72.9890    3.4414 O   0  0  0  0  0  0  0  0  0  0  0  0
   24.4502   71.8048    2.8324 C   0  0  2  0  0  0  0  0  0  0  0  0
   23.6566   71.2665    1.6416 C   0  0  2  0  0  0  0  0  0  0  0  0
   25.8421   72.2562    2.3840 C   0  0  1  0  0  0  0  0  0  0  0  0
   23.6588   72.2673    0.4853 C   0  0  1  0  0  0  0  0  0  0  0  0
   25.7670   73.1506    1.1499 C   0  0  1  0  0  0  0  0  0  0  0  0
   23.7415   70.4692    4.1039 H   0  0  0  0  0  0  0  0  0  0  0  0
   22.3025   70.3640    2.7532 H   0  0  0  0  0  0  0  0  0  0  0  0
   26.5119   72.4310    4.2330 H   0  0  0  0  0  0  0  0  0  0  0  0
   27.3225   72.3728   -0.4239 O   0  0  0  0  0  0  0  0  0  0  0  0
   27.9283   74.1755    0.8340 O   0  0  0  0  0  0  0  0  0  0  0  0
   27.1168   73.3140    0.5304 C   0  0  0  0  0  0  0  0  0  0  0  0
  1  4  1  0
  1 24  1  0
  1  2  1  1
  1  3  2  0
 25 28  1  0
 25 24  1  0
 25 26  1  6
 25 27  2  0
  6 11  1  0
  6 12  1  0
 29 36  1  0
 29 37  1  0
  9  7  1  1
  7 13  1  0
 10  8  1  1
  8 14  1  0
  4  5  1  0
 36 28  1  1
 33 30  1  1
 30 38  1  0
 34 31  1  1
 31 39  1  0
 35 32  1  1
 32 40  1  0
 41 43  1  0
 15 19  2  0
 42 43  2  0
 16 22  2  0
 12 17  1  6
 17 19  1  0
 17 20  1  0
 18 19  1  0
 18 22  1  0
 18 23  1  0
  9 10  1  0
  9 11  1  0
 10 12  1  0
 11  5  1  6
 33 34  1  0
 33 35  1  0
 34 36  1  0
 35 37  1  0
 37 43  1  6
 20 21  2  0
 21 22  1  0
M  CHG  3   2  -1  26  -1  41  -1
M  END
>  <COMPND>  (46) 
    udp_gluA.pdb 

>  <AUTHOR>  (46) 
    GENERATED BY OPEN BABEL 3.1.1

>  <MASTER>  (46) 
        0    0    0    0    0    0    0    0   56    0   56    0

>  <minimizedAffinity>  (46) 
-6.51811

>  <CNNscore>  (46) 
0.5756622553

>  <CNNaffinity>  (46) 
4.4044923782

>  <CNN_VS>  (46) 
2.5355000496

>  <CNNaffinity_variance>  (46) 
0.0366630256

$$$$
47
     RDKit          3D

 43 45  0  0  0  0  0  0  0  0999 V2000
   22.5262   73.0586   -4.2245 P   0  0  2  0  0  0  0  0  0  0  0  0
   21.8552   73.8605   -5.4597 O   0  0  0  0  0  0  0  0  0  0  0  0
   24.0184   72.9179   -4.2964 O   0  0  0  0  0  0  0  0  0  0  0  0
   21.6920   71.6737   -4.1615 O   0  0  0  0  0  0  0  0  0  0  0  0
   20.4302   71.6730   -3.5195 C   0  0  0  0  0  0  0  0  0  0  0  0
   18.3908   70.6425   -4.2658 O   0  0  0  0  0  0  0  0  0  0  0  0
   17.9498   73.1241   -5.8902 O   0  0  0  0  0  0  0  0  0  0  0  0
   16.3222   73.5230   -3.7389 O   0  0  0  0  0  0  0  0  0  0  0  0
   18.5334   72.9840   -4.5947 C   0  0  1  0  0  0  0  0  0  0  0  0
   17.4602   72.7052   -3.5638 C   0  0  2  0  0  0  0  0  0  0  0  0
   19.3350   71.6896   -4.5781 C   0  0  1  0  0  0  0  0  0  0  0  0
   17.1659   71.2344   -3.8046 C   0  0  2  0  0  0  0  0  0  0  0  0
   17.4324   73.9444   -5.9251 H   0  0  0  0  0  0  0  0  0  0  0  0
   16.5612   74.4492   -3.5742 H   0  0  0  0  0  0  0  0  0  0  0  0
   15.2076   69.2005   -3.7365 O   0  0  0  0  0  0  0  0  0  0  0  0
   15.6134   68.7101    0.8284 O   0  0  0  0  0  0  0  0  0  0  0  0
   16.7407   70.5581   -2.6119 N   0  0  0  0  0  0  0  0  0  0  0  0
   15.4109   68.9589   -1.4629 N   0  0  0  0  0  0  0  0  0  0  0  0
   15.7497   69.5509   -2.6867 C   0  0  0  0  0  0  0  0  0  0  0  0
   17.3042   70.8927   -1.3865 C   0  0  0  0  0  0  0  0  0  0  0  0
   16.9710   70.3194   -0.2285 C   0  0  0  0  0  0  0  0  0  0  0  0
   15.9428   69.2583   -0.2191 C   0  0  0  0  0  0  0  0  0  0  0  0
   14.7216   68.2563   -1.4894 H   0  0  0  0  0  0  0  0  0  0  0  0
   21.9875   73.8664   -2.9321 O   0  0  0  0  0  0  0  0  0  0  0  0
   22.7828   74.5737   -1.7152 P   0  0  2  0  0  0  0  0  0  0  0  0
   21.7699   75.7445   -1.2425 O   0  0  0  0  0  0  0  0  0  0  0  0
   24.1586   75.0545   -2.0756 O   0  0  0  0  0  0  0  0  0  0  0  0
   22.7434   73.4933   -0.5178 O   0  0  0  0  0  0  0  0  0  0  0  0
   24.8263   72.3760   -0.3678 O   0  0  0  0  0  0  0  0  0  0  0  0
   22.6152   70.4244    2.5253 O   0  0  0  0  0  0  0  0  0  0  0  0
   21.4173   71.0929   -0.0540 O   0  0  0  0  0  0  0  0  0  0  0  0
   24.6295   72.3736    3.2960 O   0  0  0  0  0  0  0  0  0  0  0  0
   23.0162   71.5309    1.7173 C   0  0  2  0  0  0  0  0  0  0  0  0
   22.8057   71.1901    0.2419 C   0  0  2  0  0  0  0  0  0  0  0  0
   24.4959   71.8067    1.9940 C   0  0  1  0  0  0  0  0  0  0  0  0
   23.4339   72.2532   -0.6603 C   0  0  1  0  0  0  0  0  0  0  0  0
   25.0809   72.7809    0.9754 C   0  0  1  0  0  0  0  0  0  0  0  0
   21.6779   70.2306    2.3663 H   0  0  0  0  0  0  0  0  0  0  0  0
   21.0122   70.4202    0.5151 H   0  0  0  0  0  0  0  0  0  0  0  0
   24.2607   71.7635    3.9537 H   0  0  0  0  0  0  0  0  0  0  0  0
   27.0934   73.5906    0.0836 O   0  0  0  0  0  0  0  0  0  0  0  0
   27.2407   72.1656    1.8575 O   0  0  0  0  0  0  0  0  0  0  0  0
   26.5733   72.7895    1.0461 C   0  0  0  0  0  0  0  0  0  0  0  0
  1  4  1  0
  1 24  1  0
  1  2  1  6
  1  3  2  0
 25 28  1  0
 25 24  1  0
 25 26  1  1
 25 27  2  0
  6 11  1  0
  6 12  1  0
 29 36  1  0
 29 37  1  0
  9  7  1  6
  7 13  1  0
 10  8  1  6
  8 14  1  0
  4  5  1  0
 36 28  1  1
 33 30  1  1
 30 38  1  0
 34 31  1  1
 31 39  1  0
 35 32  1  1
 32 40  1  0
 41 43  1  0
 15 19  2  0
 42 43  2  0
 16 22  2  0
 12 17  1  1
 17 19  1  0
 17 20  1  0
 18 19  1  0
 18 22  1  0
 18 23  1  0
  9 10  1  0
  9 11  1  0
 10 12  1  0
 11  5  1  1
 33 34  1  0
 33 35  1  0
 34 36  1  0
 35 37  1  0
 37 43  1  6
 20 21  2  0
 21 22  1  0
M  CHG  3   2  -1  26  -1  41  -1
M  END
>  <COMPND>  (47) 
    udp_gluA.pdb 

>  <AUTHOR>  (47) 
    GENERATED BY OPEN BABEL 3.1.1

>  <MASTER>  (47) 
        0    0    0    0    0    0    0    0   56    0   56    0

>  <minimizedAffinity>  (47) 
-6.61666

>  <CNNscore>  (47) 
0.4928366244

>  <CNNaffinity>  (47) 
4.0418982506

>  <CNN_VS>  (47) 
1.9919954538

>  <CNNaffinity_variance>  (47) 
0.3026079237

$$$$
48
     RDKit          3D

 43 45  0  0  0  0  0  0  0  0999 V2000
   20.3585   72.2725   -0.9825 P   0  0  2  0  0  0  0  0  0  0  0  0
   20.6328   70.7487   -0.5116 O   0  0  0  0  0  0  0  0  0  0  0  0
   19.9608   73.2135    0.1167 O   0  0  0  0  0  0  0  0  0  0  0  0
   19.2976   72.1195   -2.1945 O   0  0  0  0  0  0  0  0  0  0  0  0
   18.2374   71.1920   -2.0520 C   0  0  0  0  0  0  0  0  0  0  0  0
   17.5120   72.5015   -3.9326 O   0  0  0  0  0  0  0  0  0  0  0  0
   14.8949   71.0579   -3.6915 O   0  0  0  0  0  0  0  0  0  0  0  0
   16.1058   69.7551   -5.7585 O   0  0  0  0  0  0  0  0  0  0  0  0
   16.2189   70.5714   -3.4709 C   0  0  1  0  0  0  0  0  0  0  0  0
   16.9308   70.3715   -4.7921 C   0  0  2  0  0  0  0  0  0  0  0  0
   17.0318   71.6921   -2.8373 C   0  0  1  0  0  0  0  0  0  0  0  0
   17.3066   71.7951   -5.1663 C   0  0  2  0  0  0  0  0  0  0  0  0
   14.3565   70.3591   -4.0959 H   0  0  0  0  0  0  0  0  0  0  0  0
   15.8948   68.8514   -5.4744 H   0  0  0  0  0  0  0  0  0  0  0  0
   17.6056   73.3278   -7.5196 O   0  0  0  0  0  0  0  0  0  0  0  0
   21.9710   71.9574   -8.0758 O   0  0  0  0  0  0  0  0  0  0  0  0
   18.5105   71.8571   -5.9459 N   0  0  0  0  0  0  0  0  0  0  0  0
   19.7792   72.6430   -7.7949 N   0  0  0  0  0  0  0  0  0  0  0  0
   18.5561   72.6576   -7.1117 C   0  0  0  0  0  0  0  0  0  0  0  0
   19.6292   71.1323   -5.5532 C   0  0  0  0  0  0  0  0  0  0  0  0
   20.7882   71.1285   -6.2146 C   0  0  0  0  0  0  0  0  0  0  0  0
   20.9191   71.9380   -7.4439 C   0  0  0  0  0  0  0  0  0  0  0  0
   19.8344   73.1911   -8.6109 H   0  0  0  0  0  0  0  0  0  0  0  0
   21.7273   72.6685   -1.7456 O   0  0  0  0  0  0  0  0  0  0  0  0
   23.1771   71.9534   -1.7645 P   0  0  2  0  0  0  0  0  0  0  0  0
   24.1436   73.0931   -2.3867 O   0  0  0  0  0  0  0  0  0  0  0  0
   23.2091   70.6457   -2.5013 O   0  0  0  0  0  0  0  0  0  0  0  0
   23.6067   71.8580   -0.2125 O   0  0  0  0  0  0  0  0  0  0  0  0
   22.8903   73.1686    1.6256 O   0  0  0  0  0  0  0  0  0  0  0  0
   26.7557   72.2148    2.7289 O   0  0  0  0  0  0  0  0  0  0  0  0
   26.1468   72.9756   -0.0251 O   0  0  0  0  0  0  0  0  0  0  0  0
   24.5058   70.8618    3.9774 O   0  0  0  0  0  0  0  0  0  0  0  0
   25.4910   72.0068    2.1003 C   0  0  2  0  0  0  0  0  0  0  0  0
   25.2454   73.1074    1.0679 C   0  0  2  0  0  0  0  0  0  0  0  0
   24.4119   72.0439    3.1848 C   0  0  1  0  0  0  0  0  0  0  0  0
   23.8111   73.0524    0.5401 C   0  0  1  0  0  0  0  0  0  0  0  0
   23.0138   72.1142    2.5775 C   0  0  1  0  0  0  0  0  0  0  0  0
   27.4571   72.1953    2.0589 H   0  0  0  0  0  0  0  0  0  0  0  0
   27.0589   73.0094    0.3026 H   0  0  0  0  0  0  0  0  0  0  0  0
   25.3911   70.8050    4.3697 H   0  0  0  0  0  0  0  0  0  0  0  0
   21.2862   73.5623    3.2253 O   0  0  0  0  0  0  0  0  0  0  0  0
   21.8354   71.8864    4.6706 O   0  0  0  0  0  0  0  0  0  0  0  0
   22.0025   72.4788    3.6150 C   0  0  0  0  0  0  0  0  0  0  0  0
  1  4  1  0
  1 24  1  0
  1  2  1  1
  1  3  2  0
 25 28  1  0
 25 24  1  0
 25 26  1  6
 25 27  2  0
  6 11  1  0
  6 12  1  0
 29 36  1  0
 29 37  1  0
  9  7  1  6
  7 13  1  0
 10  8  1  6
  8 14  1  0
  4  5  1  0
 36 28  1  1
 33 30  1  1
 30 38  1  0
 34 31  1  6
 31 39  1  0
 35 32  1  6
 32 40  1  0
 41 43  1  0
 15 19  2  0
 42 43  2  0
 16 22  2  0
 12 17  1  6
 17 19  1  0
 17 20  1  0
 18 19  1  0
 18 22  1  0
 18 23  1  0
  9 10  1  0
  9 11  1  0
 10 12  1  0
 11  5  1  6
 33 34  1  0
 33 35  1  0
 34 36  1  0
 35 37  1  0
 37 43  1  1
 20 21  2  0
 21 22  1  0
M  CHG  3   2  -1  26  -1  41  -1
M  END
>  <COMPND>  (48) 
    udp_gluA.pdb 

>  <AUTHOR>  (48) 
    GENERATED BY OPEN BABEL 3.1.1

>  <MASTER>  (48) 
        0    0    0    0    0    0    0    0   56    0   56    0

>  <minimizedAffinity>  (48) 
-6.41317

>  <CNNscore>  (48) 
0.4728306532

>  <CNNaffinity>  (48) 
4.2738709450

>  <CNN_VS>  (48) 
2.0208172798

>  <CNNaffinity_variance>  (48) 
0.1333518773

$$$$
49
     RDKit          3D

 43 45  0  0  0  0  0  0  0  0999 V2000
   22.5339   73.3355   -3.9867 P   0  0  2  0  0  0  0  0  0  0  0  0
   22.4678   74.7663   -3.2336 O   0  0  0  0  0  0  0  0  0  0  0  0
   23.9117   72.8893   -4.3795 O   0  0  0  0  0  0  0  0  0  0  0  0
   21.4716   73.4846   -5.1980 O   0  0  0  0  0  0  0  0  0  0  0  0
   20.2767   72.7270   -5.1465 C   0  0  0  0  0  0  0  0  0  0  0  0
   19.1953   70.7977   -6.0880 O   0  0  0  0  0  0  0  0  0  0  0  0
   21.7029   70.4019   -7.6839 O   0  0  0  0  0  0  0  0  0  0  0  0
   20.0199   71.5535   -9.4943 O   0  0  0  0  0  0  0  0  0  0  0  0
   21.0601   71.6168   -7.2974 C   0  0  1  0  0  0  0  0  0  0  0  0
   19.8122   71.8362   -8.1263 C   0  0  2  0  0  0  0  0  0  0  0  0
   20.4848   71.4204   -5.9014 C   0  0  1  0  0  0  0  0  0  0  0  0
   18.8284   70.8797   -7.4743 C   0  0  2  0  0  0  0  0  0  0  0  0
   22.0784   70.5031   -8.5730 H   0  0  0  0  0  0  0  0  0  0  0  0
   20.6533   72.1896   -9.8633 H   0  0  0  0  0  0  0  0  0  0  0  0
   16.6814   69.3163   -8.4350 O   0  0  0  0  0  0  0  0  0  0  0  0
   13.6645   72.7432   -7.8042 O   0  0  0  0  0  0  0  0  0  0  0  0
   17.4716   71.3384   -7.5718 N   0  0  0  0  0  0  0  0  0  0  0  0
   15.1810   71.0249   -8.1209 N   0  0  0  0  0  0  0  0  0  0  0  0
   16.4679   70.4734   -8.0684 C   0  0  0  0  0  0  0  0  0  0  0  0
   17.1462   72.6303   -7.1769 C   0  0  0  0  0  0  0  0  0  0  0  0
   15.9149   73.1419   -7.2327 C   0  0  0  0  0  0  0  0  0  0  0  0
   14.8087   72.3040   -7.7402 C   0  0  0  0  0  0  0  0  0  0  0  0
   14.4659   70.4423   -8.4650 H   0  0  0  0  0  0  0  0  0  0  0  0
   21.7743   72.3479   -2.9568 O   0  0  0  0  0  0  0  0  0  0  0  0
   22.3480   71.3800   -1.7959 P   0  0  2  0  0  0  0  0  0  0  0  0
   23.1975   70.2763   -2.6209 O   0  0  0  0  0  0  0  0  0  0  0  0
   21.2924   70.8031   -0.8977 O   0  0  0  0  0  0  0  0  0  0  0  0
   23.4615   72.2668   -1.0368 O   0  0  0  0  0  0  0  0  0  0  0  0
   23.0092   72.2579    1.2880 O   0  0  0  0  0  0  0  0  0  0  0  0
   26.3057   74.7396    1.0824 O   0  0  0  0  0  0  0  0  0  0  0  0
   24.1652   74.9539   -0.8942 O   0  0  0  0  0  0  0  0  0  0  0  0
   26.5909   72.0114    2.0450 O   0  0  0  0  0  0  0  0  0  0  0  0
   25.4647   73.6548    0.6900 C   0  0  2  0  0  0  0  0  0  0  0  0
   24.0857   74.1901    0.3037 C   0  0  2  0  0  0  0  0  0  0  0  0
   25.3496   72.6931    1.8749 C   0  0  1  0  0  0  0  0  0  0  0  0
   23.0920   73.0456    0.0997 C   0  0  1  0  0  0  0  0  0  0  0  0
   24.2517   71.6580    1.6476 C   0  0  1  0  0  0  0  0  0  0  0  0
   26.3935   75.3640    0.3450 H   0  0  0  0  0  0  0  0  0  0  0  0
   24.7942   75.6817   -0.7719 H   0  0  0  0  0  0  0  0  0  0  0  0
   27.2982   72.6591    2.1904 H   0  0  0  0  0  0  0  0  0  0  0  0
   22.6333   70.5291    2.9156 O   0  0  0  0  0  0  0  0  0  0  0  0
   24.7063   70.7542    3.8380 O   0  0  0  0  0  0  0  0  0  0  0  0
   23.9243   70.9442    2.9187 C   0  0  0  0  0  0  0  0  0  0  0  0
  1  4  1  0
  1 24  1  0
  1  2  1  1
  1  3  2  0
 25 28  1  0
 25 24  1  0
 25 26  1  6
 25 27  2  0
  6 11  1  0
  6 12  1  0
 29 36  1  0
 29 37  1  0
  9  7  1  6
  7 13  1  0
 10  8  1  6
  8 14  1  0
  4  5  1  0
 36 28  1  6
 33 30  1  1
 30 38  1  0
 34 31  1  6
 31 39  1  0
 35 32  1  6
 32 40  1  0
 41 43  1  0
 15 19  2  0
 42 43  2  0
 16 22  2  0
 12 17  1  1
 17 19  1  0
 17 20  1  0
 18 19  1  0
 18 22  1  0
 18 23  1  0
  9 10  1  0
  9 11  1  0
 10 12  1  0
 11  5  1  6
 33 34  1  0
 33 35  1  0
 34 36  1  0
 35 37  1  0
 37 43  1  1
 20 21  2  0
 21 22  1  0
M  CHG  3   2  -1  26  -1  41  -1
M  END
>  <COMPND>  (49) 
    udp_gluA.pdb 

>  <AUTHOR>  (49) 
    GENERATED BY OPEN BABEL 3.1.1

>  <MASTER>  (49) 
        0    0    0    0    0    0    0    0   56    0   56    0

>  <minimizedAffinity>  (49) 
-7.64213

>  <CNNscore>  (49) 
0.4696307182

>  <CNNaffinity>  (49) 
4.3147735596

>  <CNN_VS>  (49) 
2.0263502598

>  <CNNaffinity_variance>  (49) 
0.0150693338

$$$$
50
     RDKit          3D

 43 45  0  0  0  0  0  0  0  0999 V2000
   19.8055   74.1826   -3.0190 P   0  0  2  0  0  0  0  0  0  0  0  0
   20.0234   74.1334   -4.6218 O   0  0  0  0  0  0  0  0  0  0  0  0
   19.2372   75.4692   -2.4961 O   0  0  0  0  0  0  0  0  0  0  0  0
   21.2454   73.7547   -2.4178 O   0  0  0  0  0  0  0  0  0  0  0  0
   21.6230   74.2534   -1.1476 C   0  0  0  0  0  0  0  0  0  0  0  0
   21.4237   72.6120    0.5969 O   0  0  0  0  0  0  0  0  0  0  0  0
   19.0784   74.2053    1.5728 O   0  0  0  0  0  0  0  0  0  0  0  0
   21.0690   74.9743    3.2704 O   0  0  0  0  0  0  0  0  0  0  0  0
   20.2981   74.6596    0.9860 C   0  0  1  0  0  0  0  0  0  0  0  0
   21.4349   74.5368    1.9785 C   0  0  2  0  0  0  0  0  0  0  0  0
   20.7036   73.6595   -0.0882 C   0  0  1  0  0  0  0  0  0  0  0  0
   21.7375   73.0488    1.9289 C   0  0  2  0  0  0  0  0  0  0  0  0
   18.7992   74.8284    2.2624 H   0  0  0  0  0  0  0  0  0  0  0  0
   20.8869   75.9274    3.2495 H   0  0  0  0  0  0  0  0  0  0  0  0
   22.7068   70.5292    2.7585 O   0  0  0  0  0  0  0  0  0  0  0  0
   27.0506   72.0587    2.9474 O   0  0  0  0  0  0  0  0  0  0  0  0
   23.1171   72.7608    2.2018 N   0  0  0  0  0  0  0  0  0  0  0  0
   24.8692   71.2936    2.8528 N   0  0  0  0  0  0  0  0  0  0  0  0
   23.4991   71.4620    2.6132 C   0  0  0  0  0  0  0  0  0  0  0  0
   24.0749   73.7575    2.0599 C   0  0  0  0  0  0  0  0  0  0  0  0
   25.3773   73.5819    2.2919 C   0  0  0  0  0  0  0  0  0  0  0  0
   25.8594   72.2544    2.7261 C   0  0  0  0  0  0  0  0  0  0  0  0
   25.1589   70.3983    3.1422 H   0  0  0  0  0  0  0  0  0  0  0  0
   18.8921   72.8791   -2.7368 O   0  0  0  0  0  0  0  0  0  0  0  0
   17.3938   72.5086   -3.2180 P   0  0  2  0  0  0  0  0  0  0  0  0
   16.6817   73.9556   -3.3574 O   0  0  0  0  0  0  0  0  0  0  0  0
   16.6754   71.5506   -2.3124 O   0  0  0  0  0  0  0  0  0  0  0  0
   17.5675   71.9923   -4.7364 O   0  0  0  0  0  0  0  0  0  0  0  0
   16.9724   69.9048   -5.6837 O   0  0  0  0  0  0  0  0  0  0  0  0
   20.2557   70.9557   -7.9604 O   0  0  0  0  0  0  0  0  0  0  0  0
   20.2603   71.3812   -5.0702 O   0  0  0  0  0  0  0  0  0  0  0  0
   17.5771   71.1979   -9.0637 O   0  0  0  0  0  0  0  0  0  0  0  0
   19.0817   71.1872   -7.1819 C   0  0  2  0  0  0  0  0  0  0  0  0
   19.2819   70.6251   -5.7743 C   0  0  2  0  0  0  0  0  0  0  0  0
   17.9100   70.4863   -7.8732 C   0  0  1  0  0  0  0  0  0  0  0  0
   17.9723   70.6473   -4.9849 C   0  0  1  0  0  0  0  0  0  0  0  0
   16.6791   70.4394   -6.9726 C   0  0  1  0  0  0  0  0  0  0  0  0
   21.0137   71.3918   -7.5403 H   0  0  0  0  0  0  0  0  0  0  0  0
   21.0939   71.3717   -5.5656 H   0  0  0  0  0  0  0  0  0  0  0  0
   18.3522   71.2351   -9.6456 H   0  0  0  0  0  0  0  0  0  0  0  0
   15.5816   68.3815   -6.7226 O   0  0  0  0  0  0  0  0  0  0  0  0
   14.9967   69.6611   -8.5170 O   0  0  0  0  0  0  0  0  0  0  0  0
   15.6649   69.4827   -7.5097 C   0  0  0  0  0  0  0  0  0  0  0  0
  1  4  1  0
  1 24  1  0
  1  2  1  6
  1  3  2  0
 25 28  1  0
 25 24  1  0
 25 26  1  6
 25 27  2  0
  6 11  1  0
  6 12  1  0
 29 36  1  0
 29 37  1  0
  9  7  1  1
  7 13  1  0
 10  8  1  1
  8 14  1  0
  4  5  1  0
 36 28  1  6
 33 30  1  6
 30 38  1  0
 34 31  1  1
 31 39  1  0
 35 32  1  6
 32 40  1  0
 41 43  1  0
 15 19  2  0
 42 43  2  0
 16 22  2  0
 12 17  1  6
 17 19  1  0
 17 20  1  0
 18 19  1  0
 18 22  1  0
 18 23  1  0
  9 10  1  0
  9 11  1  0
 10 12  1  0
 11  5  1  6
 33 34  1  0
 33 35  1  0
 34 36  1  0
 35 37  1  0
 37 43  1  6
 20 21  2  0
 21 22  1  0
M  CHG  3   2  -1  26  -1  41  -1
M  END
>  <COMPND>  (50) 
    udp_gluA.pdb 

>  <AUTHOR>  (50) 
    GENERATED BY OPEN BABEL 3.1.1

>  <MASTER>  (50) 
        0    0    0    0    0    0    0    0   56    0   56    0

>  <minimizedAffinity>  (50) 
-5.98996

>  <CNNscore>  (50) 
0.4243116379

>  <CNNaffinity>  (50) 
4.2603693008

>  <CNN_VS>  (50) 
1.8077242374

>  <CNNaffinity_variance>  (50) 
0.1316065341

$$$$
51
     RDKit          3D

 43 45  0  0  0  0  0  0  0  0999 V2000
   22.2525   73.5373   -4.7292 P   0  0  2  0  0  0  0  0  0  0  0  0
   21.0060   73.0652   -3.8114 O   0  0  0  0  0  0  0  0  0  0  0  0
   22.5703   75.0022   -4.6612 O   0  0  0  0  0  0  0  0  0  0  0  0
   21.8920   72.9640   -6.1987 O   0  0  0  0  0  0  0  0  0  0  0  0
   20.5302   72.7671   -6.5323 C   0  0  0  0  0  0  0  0  0  0  0  0
   19.0292   70.8932   -6.4189 O   0  0  0  0  0  0  0  0  0  0  0  0
   20.6217   69.7189   -8.6719 O   0  0  0  0  0  0  0  0  0  0  0  0
   18.4237   70.7072   -9.9477 O   0  0  0  0  0  0  0  0  0  0  0  0
   20.2793   71.0822   -8.4219 C   0  0  1  0  0  0  0  0  0  0  0  0
   18.8186   71.3225   -8.7394 C   0  0  2  0  0  0  0  0  0  0  0  0
   20.3196   71.3083   -6.9168 C   0  0  1  0  0  0  0  0  0  0  0  0
   18.1293   70.7231   -7.5255 C   0  0  2  0  0  0  0  0  0  0  0  0
   20.6028   69.5504   -9.6274 H   0  0  0  0  0  0  0  0  0  0  0  0
   18.8897   71.1239  -10.6901 H   0  0  0  0  0  0  0  0  0  0  0  0
   15.6067   69.8694   -8.4658 O   0  0  0  0  0  0  0  0  0  0  0  0
   13.4318   73.3069   -6.2984 O   0  0  0  0  0  0  0  0  0  0  0  0
   16.8875   71.3765   -7.2222 N   0  0  0  0  0  0  0  0  0  0  0  0
   14.5260   71.5828   -7.3862 N   0  0  0  0  0  0  0  0  0  0  0  0
   15.6756   70.8668   -7.7452 C   0  0  0  0  0  0  0  0  0  0  0  0
   16.8779   72.5071   -6.4144 C   0  0  0  0  0  0  0  0  0  0  0  0
   15.7741   73.1788   -6.0808 C   0  0  0  0  0  0  0  0  0  0  0  0
   14.4663   72.7126   -6.5864 C   0  0  0  0  0  0  0  0  0  0  0  0
   13.6703   71.2482   -7.7400 H   0  0  0  0  0  0  0  0  0  0  0  0
   23.4493   72.5654   -4.2436 O   0  0  0  0  0  0  0  0  0  0  0  0
   23.6327   71.7030   -2.8885 P   0  0  2  0  0  0  0  0  0  0  0  0
   25.1958   71.2841   -2.9253 O   0  0  0  0  0  0  0  0  0  0  0  0
   22.6851   70.5453   -2.7623 O   0  0  0  0  0  0  0  0  0  0  0  0
   23.5292   72.7857   -1.6971 O   0  0  0  0  0  0  0  0  0  0  0  0
   25.1934   72.3888   -0.0594 O   0  0  0  0  0  0  0  0  0  0  0  0
   23.0636   75.4935    1.6415 O   0  0  0  0  0  0  0  0  0  0  0  0
   21.6714   73.2983    0.3084 O   0  0  0  0  0  0  0  0  0  0  0  0
   25.6579   75.9953    0.4296 O   0  0  0  0  0  0  0  0  0  0  0  0
   23.6167   74.7236    0.5741 C   0  0  2  0  0  0  0  0  0  0  0  0
   23.0583   73.3012    0.6263 C   0  0  2  0  0  0  0  0  0  0  0  0
   25.1376   74.7049    0.7431 C   0  0  1  0  0  0  0  0  0  0  0  0
   23.7959   72.3876   -0.3536 C   0  0  1  0  0  0  0  0  0  0  0  0
   25.7881   73.6790   -0.1804 C   0  0  1  0  0  0  0  0  0  0  0  0
   22.0977   75.5194    1.5550 H   0  0  0  0  0  0  0  0  0  0  0  0
   21.1973   73.8762    0.9261 H   0  0  0  0  0  0  0  0  0  0  0  0
   25.2518   76.6576    1.0103 H   0  0  0  0  0  0  0  0  0  0  0  0
   27.6538   72.2629   -0.3042 O   0  0  0  0  0  0  0  0  0  0  0  0
   27.8809   74.1785    0.9115 O   0  0  0  0  0  0  0  0  0  0  0  0
   27.2073   73.4328    0.2164 C   0  0  0  0  0  0  0  0  0  0  0  0
  1  4  1  0
  1 24  1  0
  1  2  1  1
  1  3  2  0
 25 28  1  0
 25 24  1  0
 25 26  1  6
 25 27  2  0
  6 11  1  0
  6 12  1  0
 29 36  1  0
 29 37  1  0
  9  7  1  1
  7 13  1  0
 10  8  1  6
  8 14  1  0
  4  5  1  0
 36 28  1  6
 33 30  1  1
 30 38  1  0
 34 31  1  6
 31 39  1  0
 35 32  1  6
 32 40  1  0
 41 43  1  0
 15 19  2  0
 42 43  2  0
 16 22  2  0
 12 17  1  1
 17 19  1  0
 17 20  1  0
 18 19  1  0
 18 22  1  0
 18 23  1  0
  9 10  1  0
  9 11  1  0
 10 12  1  0
 11  5  1  6
 33 34  1  0
 33 35  1  0
 34 36  1  0
 35 37  1  0
 37 43  1  1
 20 21  2  0
 21 22  1  0
M  CHG  3   2  -1  26  -1  41  -1
M  END
>  <COMPND>  (51) 
    udp_gluA.pdb 

>  <AUTHOR>  (51) 
    GENERATED BY OPEN BABEL 3.1.1

>  <MASTER>  (51) 
        0    0    0    0    0    0    0    0   56    0   56    0

>  <minimizedAffinity>  (51) 
-6.35875

>  <CNNscore>  (51) 
0.4124447107

>  <CNNaffinity>  (51) 
4.2396225929

>  <CNN_VS>  (51) 
1.7486099005

>  <CNNaffinity_variance>  (51) 
0.0371416584

$$$$
52
     RDKit          3D

 43 45  0  0  0  0  0  0  0  0999 V2000
   21.2435   73.6542   -2.4539 P   0  0  2  0  0  0  0  0  0  0  0  0
   20.2887   72.6306   -1.6417 O   0  0  0  0  0  0  0  0  0  0  0  0
   20.7547   75.0720   -2.5040 O   0  0  0  0  0  0  0  0  0  0  0  0
   21.4562   72.9332   -3.8866 O   0  0  0  0  0  0  0  0  0  0  0  0
   21.0553   73.6225   -5.0565 C   0  0  0  0  0  0  0  0  0  0  0  0
   20.4784   71.4468   -5.8999 O   0  0  0  0  0  0  0  0  0  0  0  0
   21.0277   72.5635   -8.6281 O   0  0  0  0  0  0  0  0  0  0  0  0
   18.3051   72.6341   -8.4924 O   0  0  0  0  0  0  0  0  0  0  0  0
   20.4467   73.2017   -7.4906 C   0  0  1  0  0  0  0  0  0  0  0  0
   19.0291   72.7125   -7.2824 C   0  0  2  0  0  0  0  0  0  0  0  0
   21.1508   72.6768   -6.2469 C   0  0  1  0  0  0  0  0  0  0  0  0
   19.2554   71.3512   -6.6471 C   0  0  2  0  0  0  0  0  0  0  0  0
   20.5939   72.8830   -9.4352 H   0  0  0  0  0  0  0  0  0  0  0  0
   18.1871   73.5259   -8.8569 H   0  0  0  0  0  0  0  0  0  0  0  0
   16.8083   70.2100   -7.4754 O   0  0  0  0  0  0  0  0  0  0  0  0
   15.2492   69.9603   -3.1452 O   0  0  0  0  0  0  0  0  0  0  0  0
   18.1924   70.9782   -5.7572 N   0  0  0  0  0  0  0  0  0  0  0  0
   16.0337   70.0877   -5.3180 N   0  0  0  0  0  0  0  0  0  0  0  0
   17.0035   70.4127   -6.2755 C   0  0  0  0  0  0  0  0  0  0  0  0
   18.3338   71.1719   -4.3884 C   0  0  0  0  0  0  0  0  0  0  0  0
   17.4006   70.8570   -3.4880 C   0  0  0  0  0  0  0  0  0  0  0  0
   16.1282   70.2620   -3.9468 C   0  0  0  0  0  0  0  0  0  0  0  0
   15.1964   69.6944   -5.6551 H   0  0  0  0  0  0  0  0  0  0  0  0
   22.6778   73.4615   -1.7337 O   0  0  0  0  0  0  0  0  0  0  0  0
   23.3569   72.1628   -1.0512 P   0  0  2  0  0  0  0  0  0  0  0  0
   24.9378   72.5081   -1.0910 O   0  0  0  0  0  0  0  0  0  0  0  0
   22.9915   70.8616   -1.7050 O   0  0  0  0  0  0  0  0  0  0  0  0
   22.9571   72.2638    0.5084 O   0  0  0  0  0  0  0  0  0  0  0  0
   24.5410   73.3800    1.8702 O   0  0  0  0  0  0  0  0  0  0  0  0
   21.9946   71.7644    4.6940 O   0  0  0  0  0  0  0  0  0  0  0  0
   22.8086   70.1988    2.3658 O   0  0  0  0  0  0  0  0  0  0  0  0
   21.8745   74.6021    4.0744 O   0  0  0  0  0  0  0  0  0  0  0  0
   22.3515   72.3294    3.4325 C   0  0  2  0  0  0  0  0  0  0  0  0
   23.3901   71.4397    2.7488 C   0  0  2  0  0  0  0  0  0  0  0  0
   22.9289   73.7239    3.6852 C   0  0  1  0  0  0  0  0  0  0  0  0
   23.9651   72.1243    1.5080 C   0  0  1  0  0  0  0  0  0  0  0  0
   23.5950   74.2864    2.4328 C   0  0  1  0  0  0  0  0  0  0  0  0
   21.6252   70.8776    4.5585 H   0  0  0  0  0  0  0  0  0  0  0  0
   22.4415   69.7591    3.1482 H   0  0  0  0  0  0  0  0  0  0  0  0
   21.4422   74.2554    4.8704 H   0  0  0  0  0  0  0  0  0  0  0  0
   24.5276   75.6347    4.1102 O   0  0  0  0  0  0  0  0  0  0  0  0
   24.9594   76.2164    1.9482 O   0  0  0  0  0  0  0  0  0  0  0  0
   24.4306   75.4791    2.7666 C   0  0  0  0  0  0  0  0  0  0  0  0
  1  4  1  0
  1 24  1  0
  1  2  1  1
  1  3  2  0
 25 28  1  0
 25 24  1  0
 25 26  1  1
 25 27  2  0
  6 11  1  0
  6 12  1  0
 29 36  1  0
 29 37  1  0
  9  7  1  6
  7 13  1  0
 10  8  1  6
  8 14  1  0
  4  5  1  0
 36 28  1  6
 33 30  1  1
 30 38  1  0
 34 31  1  6
 31 39  1  0
 35 32  1  6
 32 40  1  0
 41 43  1  0
 15 19  2  0
 42 43  2  0
 16 22  2  0
 12 17  1  1
 17 19  1  0
 17 20  1  0
 18 19  1  0
 18 22  1  0
 18 23  1  0
  9 10  1  0
  9 11  1  0
 10 12  1  0
 11  5  1  1
 33 34  1  0
 33 35  1  0
 34 36  1  0
 35 37  1  0
 37 43  1  1
 20 21  2  0
 21 22  1  0
M  CHG  3   2  -1  26  -1  41  -1
M  END
>  <COMPND>  (52) 
    udp_gluA.pdb 

>  <AUTHOR>  (52) 
    GENERATED BY OPEN BABEL 3.1.1

>  <MASTER>  (52) 
        0    0    0    0    0    0    0    0   56    0   56    0

>  <minimizedAffinity>  (52) 
-5.95881

>  <CNNscore>  (52) 
0.4082732797

>  <CNNaffinity>  (52) 
4.0532627106

>  <CNN_VS>  (52) 
1.6548389196

>  <CNNaffinity_variance>  (52) 
0.0746661797

$$$$
53
     RDKit          3D

 43 45  0  0  0  0  0  0  0  0999 V2000
   21.5964   74.6163   -4.2885 P   0  0  2  0  0  0  0  0  0  0  0  0
   20.9539   76.0931   -4.4478 O   0  0  0  0  0  0  0  0  0  0  0  0
   23.0867   74.5528   -4.4517 O   0  0  0  0  0  0  0  0  0  0  0  0
   20.7379   73.7064   -5.3146 O   0  0  0  0  0  0  0  0  0  0  0  0
   19.9840   72.6274   -4.7931 C   0  0  0  0  0  0  0  0  0  0  0  0
   19.0001   70.7813   -5.9769 O   0  0  0  0  0  0  0  0  0  0  0  0
   21.6500   70.4907   -7.3499 O   0  0  0  0  0  0  0  0  0  0  0  0
   20.1480   71.7857   -9.2215 O   0  0  0  0  0  0  0  0  0  0  0  0
   20.9718   71.6771   -6.9364 C   0  0  1  0  0  0  0  0  0  0  0  0
   19.8093   71.9661   -7.8624 C   0  0  2  0  0  0  0  0  0  0  0  0
   20.2650   71.3800   -5.6209 C   0  0  1  0  0  0  0  0  0  0  0  0
   18.7681   70.9695   -7.3819 C   0  0  2  0  0  0  0  0  0  0  0  0
   22.1092   70.6560   -8.1886 H   0  0  0  0  0  0  0  0  0  0  0  0
   20.8133   72.4437   -9.4790 H   0  0  0  0  0  0  0  0  0  0  0  0
   16.6453   69.3889   -8.3676 O   0  0  0  0  0  0  0  0  0  0  0  0
   13.6623   72.8908   -8.0797 O   0  0  0  0  0  0  0  0  0  0  0  0
   17.4266   71.4429   -7.5744 N   0  0  0  0  0  0  0  0  0  0  0  0
   15.1619   71.1348   -8.2243 N   0  0  0  0  0  0  0  0  0  0  0  0
   16.4342   70.5674   -8.0753 C   0  0  0  0  0  0  0  0  0  0  0  0
   17.1048   72.7593   -7.2670 C   0  0  0  0  0  0  0  0  0  0  0  0
   15.8875   73.2857   -7.4142 C   0  0  0  0  0  0  0  0  0  0  0  0
   14.7937   72.4383   -7.9328 C   0  0  0  0  0  0  0  0  0  0  0  0
   14.4549   70.5452   -8.5734 H   0  0  0  0  0  0  0  0  0  0  0  0
   21.0565   74.1399   -2.8413 O   0  0  0  0  0  0  0  0  0  0  0  0
   21.1947   74.8190   -1.3807 P   0  0  2  0  0  0  0  0  0  0  0  0
   19.6693   75.2155   -1.0114 O   0  0  0  0  0  0  0  0  0  0  0  0
   22.1627   75.9651   -1.3235 O   0  0  0  0  0  0  0  0  0  0  0  0
   21.5479   73.5944   -0.3917 O   0  0  0  0  0  0  0  0  0  0  0  0
   23.8979   73.3010   -0.4181 O   0  0  0  0  0  0  0  0  0  0  0  0
   22.7107   70.3422    2.2095 O   0  0  0  0  0  0  0  0  0  0  0  0
   21.2010   70.8388   -0.2418 O   0  0  0  0  0  0  0  0  0  0  0  0
   23.9342   72.7805    3.2137 O   0  0  0  0  0  0  0  0  0  0  0  0
   22.6392   71.6085    1.5541 C   0  0  2  0  0  0  0  0  0  0  0  0
   22.4772   71.3971    0.0486 C   0  0  2  0  0  0  0  0  0  0  0  0
   23.9352   72.3671    1.8486 C   0  0  1  0  0  0  0  0  0  0  0  0
   22.6273   72.7173   -0.7085 C   0  0  1  0  0  0  0  0  0  0  0  0
   24.0700   73.6037    0.9646 C   0  0  1  0  0  0  0  0  0  0  0  0
   21.8976   69.8420    2.0364 H   0  0  0  0  0  0  0  0  0  0  0  0
   21.0989   70.0009    0.2356 H   0  0  0  0  0  0  0  0  0  0  0  0
   23.8487   72.0028    3.7870 H   0  0  0  0  0  0  0  0  0  0  0  0
   26.0815   73.9923   -0.1775 O   0  0  0  0  0  0  0  0  0  0  0  0
   25.9765   74.6590    2.0005 O   0  0  0  0  0  0  0  0  0  0  0  0
   25.4614   74.1453    1.0188 C   0  0  0  0  0  0  0  0  0  0  0  0
  1  4  1  0
  1 24  1  0
  1  2  1  6
  1  3  2  0
 25 28  1  0
 25 24  1  0
 25 26  1  1
 25 27  2  0
  6 11  1  0
  6 12  1  0
 29 36  1  0
 29 37  1  0
  9  7  1  6
  7 13  1  0
 10  8  1  6
  8 14  1  0
  4  5  1  0
 36 28  1  1
 33 30  1  1
 30 38  1  0
 34 31  1  1
 31 39  1  0
 35 32  1  1
 32 40  1  0
 41 43  1  0
 15 19  2  0
 42 43  2  0
 16 22  2  0
 12 17  1  1
 17 19  1  0
 17 20  1  0
 18 19  1  0
 18 22  1  0
 18 23  1  0
  9 10  1  0
  9 11  1  0
 10 12  1  0
 11  5  1  6
 33 34  1  0
 33 35  1  0
 34 36  1  0
 35 37  1  0
 37 43  1  6
 20 21  2  0
 21 22  1  0
M  CHG  3   2  -1  26  -1  41  -1
M  END
>  <COMPND>  (53) 
    udp_gluA.pdb 

>  <AUTHOR>  (53) 
    GENERATED BY OPEN BABEL 3.1.1

>  <MASTER>  (53) 
        0    0    0    0    0    0    0    0   56    0   56    0

>  <minimizedAffinity>  (53) 
-6.35157

>  <CNNscore>  (53) 
0.4001475871

>  <CNNaffinity>  (53) 
4.1987504959

>  <CNN_VS>  (53) 
1.6801198721

>  <CNNaffinity_variance>  (53) 
0.0606914572

$$$$
54
     RDKit          3D

 43 45  0  0  0  0  0  0  0  0999 V2000
   22.0539   72.9071   -4.7039 P   0  0  2  0  0  0  0  0  0  0  0  0
   23.6690   72.9518   -4.6117 O   0  0  0  0  0  0  0  0  0  0  0  0
   21.3584   74.1556   -4.2463 O   0  0  0  0  0  0  0  0  0  0  0  0
   21.6570   71.5520   -3.9138 O   0  0  0  0  0  0  0  0  0  0  0  0
   22.2877   71.2821   -2.6753 C   0  0  0  0  0  0  0  0  0  0  0  0
   21.8663   70.7317   -0.3738 O   0  0  0  0  0  0  0  0  0  0  0  0
   19.2805   72.2177   -0.6855 O   0  0  0  0  0  0  0  0  0  0  0  0
   20.8581   74.0307    0.6029 O   0  0  0  0  0  0  0  0  0  0  0  0
   20.5578   72.4965   -1.2594 C   0  0  1  0  0  0  0  0  0  0  0  0
   21.4905   73.0653   -0.2111 C   0  0  2  0  0  0  0  0  0  0  0  0
   21.2238   71.1681   -1.5912 C   0  0  1  0  0  0  0  0  0  0  0  0
   21.8922   71.8210    0.5623 C   0  0  2  0  0  0  0  0  0  0  0  0
   18.8357   73.0515   -0.4651 H   0  0  0  0  0  0  0  0  0  0  0  0
   20.6222   74.8031    0.0646 H   0  0  0  0  0  0  0  0  0  0  0  0
   22.8190   70.3010    2.7548 O   0  0  0  0  0  0  0  0  0  0  0  0
   26.9684   72.3033    2.6229 O   0  0  0  0  0  0  0  0  0  0  0  0
   23.2103   71.9249    1.1213 N   0  0  0  0  0  0  0  0  0  0  0  0
   24.8845   71.3004    2.6877 N   0  0  0  0  0  0  0  0  0  0  0  0
   23.5756   71.1158    2.2231 C   0  0  0  0  0  0  0  0  0  0  0  0
   24.1254   72.8187    0.5785 C   0  0  0  0  0  0  0  0  0  0  0  0
   25.3695   72.9835    1.0321 C   0  0  0  0  0  0  0  0  0  0  0  0
   25.8304   72.1770    2.1812 C   0  0  0  0  0  0  0  0  0  0  0  0
   25.1611   70.7496    3.4554 H   0  0  0  0  0  0  0  0  0  0  0  0
   21.7893   72.5170   -6.2500 O   0  0  0  0  0  0  0  0  0  0  0  0
   20.9681   73.2837   -7.4126 P   0  0  2  0  0  0  0  0  0  0  0  0
   21.4816   72.5604   -8.7666 O   0  0  0  0  0  0  0  0  0  0  0  0
   21.1383   74.7753   -7.4055 O   0  0  0  0  0  0  0  0  0  0  0  0
   19.4448   72.7828   -7.2360 O   0  0  0  0  0  0  0  0  0  0  0  0
   18.7816   70.8905   -5.9756 O   0  0  0  0  0  0  0  0  0  0  0  0
   15.6563   71.2548   -8.6528 O   0  0  0  0  0  0  0  0  0  0  0  0
   18.4162   71.6138   -9.5407 O   0  0  0  0  0  0  0  0  0  0  0  0
   15.3146   72.0883   -5.8889 O   0  0  0  0  0  0  0  0  0  0  0  0
   16.7147   71.7182   -7.8144 C   0  0  2  0  0  0  0  0  0  0  0  0
   18.0365   71.0993   -8.2696 C   0  0  2  0  0  0  0  0  0  0  0  0
   16.3976   71.2990   -6.3772 C   0  0  1  0  0  0  0  0  0  0  0  0
   19.1509   71.3872   -7.2626 C   0  0  1  0  0  0  0  0  0  0  0  0
   17.6003   71.5004   -5.4599 C   0  0  1  0  0  0  0  0  0  0  0  0
   15.8360   71.5098   -9.5715 H   0  0  0  0  0  0  0  0  0  0  0  0
   17.7135   71.4349  -10.1845 H   0  0  0  0  0  0  0  0  0  0  0  0
   14.5426   71.9692   -6.4640 H   0  0  0  0  0  0  0  0  0  0  0  0
   16.3525   69.9357   -4.2367 O   0  0  0  0  0  0  0  0  0  0  0  0
   18.0803   70.9604   -3.1579 O   0  0  0  0  0  0  0  0  0  0  0  0
   17.3991   70.7945   -4.1586 C   0  0  0  0  0  0  0  0  0  0  0  0
  1  4  1  0
  1 24  1  0
  1  2  1  6
  1  3  2  0
 25 28  1  0
 25 24  1  0
 25 26  1  6
 25 27  2  0
  6 11  1  0
  6 12  1  0
 29 36  1  0
 29 37  1  0
  9  7  1  1
  7 13  1  0
 10  8  1  1
  8 14  1  0
  4  5  1  0
 36 28  1  1
 33 30  1  6
 30 38  1  0
 34 31  1  6
 31 39  1  0
 35 32  1  1
 32 40  1  0
 41 43  1  0
 15 19  2  0
 42 43  2  0
 16 22  2  0
 12 17  1  6
 17 19  1  0
 17 20  1  0
 18 19  1  0
 18 22  1  0
 18 23  1  0
  9 10  1  0
  9 11  1  0
 10 12  1  0
 11  5  1  6
 33 34  1  0
 33 35  1  0
 34 36  1  0
 35 37  1  0
 37 43  1  1
 20 21  2  0
 21 22  1  0
M  CHG  3   2  -1  26  -1  41  -1
M  END
>  <COMPND>  (54) 
    udp_gluA.pdb 

>  <AUTHOR>  (54) 
    GENERATED BY OPEN BABEL 3.1.1

>  <MASTER>  (54) 
        0    0    0    0    0    0    0    0   56    0   56    0

>  <minimizedAffinity>  (54) 
-7.77173

>  <CNNscore>  (54) 
0.3422471285

>  <CNNaffinity>  (54) 
4.1182813644

>  <CNN_VS>  (54) 
1.4094699621

>  <CNNaffinity_variance>  (54) 
0.0449560843

$$$$
55
     RDKit          3D

 43 45  0  0  0  0  0  0  0  0999 V2000
   22.0840   74.2884   -4.4930 P   0  0  2  0  0  0  0  0  0  0  0  0
   22.7402   72.9047   -5.0161 O   0  0  0  0  0  0  0  0  0  0  0  0
   21.7077   75.2594   -5.5735 O   0  0  0  0  0  0  0  0  0  0  0  0
   23.1444   74.8318   -3.3983 O   0  0  0  0  0  0  0  0  0  0  0  0
   23.0235   74.3851   -2.0602 C   0  0  0  0  0  0  0  0  0  0  0  0
   24.8173   73.2077   -0.9768 O   0  0  0  0  0  0  0  0  0  0  0  0
   23.3838   70.6902   -1.7506 O   0  0  0  0  0  0  0  0  0  0  0  0
   22.7107   70.9757    0.8765 O   0  0  0  0  0  0  0  0  0  0  0  0
   22.8449   71.9494   -1.3475 C   0  0  1  0  0  0  0  0  0  0  0  0
   23.0221   72.1422    0.1437 C   0  0  2  0  0  0  0  0  0  0  0  0
   23.7344   73.0454   -1.9183 C   0  0  1  0  0  0  0  0  0  0  0  0
   24.4906   72.5191    0.2407 C   0  0  2  0  0  0  0  0  0  0  0  0
   22.8321   69.9741   -1.3976 H   0  0  0  0  0  0  0  0  0  0  0  0
   21.7651   70.7781    0.7831 H   0  0  0  0  0  0  0  0  0  0  0  0
   25.1633   71.6204    2.8323 O   0  0  0  0  0  0  0  0  0  0  0  0
   25.5106   75.9283    4.4341 O   0  0  0  0  0  0  0  0  0  0  0  0
   24.7619   73.3843    1.3537 N   0  0  0  0  0  0  0  0  0  0  0  0
   25.3346   73.7668    3.6279 N   0  0  0  0  0  0  0  0  0  0  0  0
   25.0905   72.8312    2.6140 C   0  0  0  0  0  0  0  0  0  0  0  0
   24.7030   74.7630    1.1909 C   0  0  0  0  0  0  0  0  0  0  0  0
   24.9384   75.6422    2.1668 C   0  0  0  0  0  0  0  0  0  0  0  0
   25.2876   75.1468    3.5144 C   0  0  0  0  0  0  0  0  0  0  0  0
   25.5633   73.4056    4.5148 H   0  0  0  0  0  0  0  0  0  0  0  0
   20.8483   73.7825   -3.5821 O   0  0  0  0  0  0  0  0  0  0  0  0
   19.7010   72.6798   -3.8674 P   0  0  2  0  0  0  0  0  0  0  0  0
   18.3282   73.5104   -3.6532 O   0  0  0  0  0  0  0  0  0  0  0  0
   19.8130   71.4424   -3.0246 O   0  0  0  0  0  0  0  0  0  0  0  0
   19.7734   72.4158   -5.4572 O   0  0  0  0  0  0  0  0  0  0  0  0
   18.4831   70.4974   -5.9710 O   0  0  0  0  0  0  0  0  0  0  0  0
   19.9707   71.5292   -9.6845 O   0  0  0  0  0  0  0  0  0  0  0  0
   21.6846   71.6351   -7.3210 O   0  0  0  0  0  0  0  0  0  0  0  0
   17.2007   72.1002   -9.0122 O   0  0  0  0  0  0  0  0  0  0  0  0
   19.4957   71.7659   -8.3592 C   0  0  2  0  0  0  0  0  0  0  0  0
   20.3928   71.0395   -7.3567 C   0  0  2  0  0  0  0  0  0  0  0  0
   18.0618   71.2389   -8.2697 C   0  0  1  0  0  0  0  0  0  0  0  0
   19.7876   71.0783   -5.9528 C   0  0  1  0  0  0  0  0  0  0  0  0
   17.5752   71.1908   -6.8242 C   0  0  1  0  0  0  0  0  0  0  0  0
   20.8806   71.8560   -9.7652 H   0  0  0  0  0  0  0  0  0  0  0  0
   22.0744   71.6142   -8.2087 H   0  0  0  0  0  0  0  0  0  0  0  0
   17.4996   72.1397   -9.9341 H   0  0  0  0  0  0  0  0  0  0  0  0
   16.2188   69.8322   -5.4766 O   0  0  0  0  0  0  0  0  0  0  0  0
   15.5037   70.2311   -7.6047 O   0  0  0  0  0  0  0  0  0  0  0  0
   16.3245   70.3812   -6.7121 C   0  0  0  0  0  0  0  0  0  0  0  0
  1  4  1  0
  1 24  1  0
  1  2  1  6
  1  3  2  0
 25 28  1  0
 25 24  1  0
 25 26  1  6
 25 27  2  0
  6 11  1  0
  6 12  1  0
 29 36  1  0
 29 37  1  0
  9  7  1  6
  7 13  1  0
 10  8  1  1
  8 14  1  0
  4  5  1  0
 36 28  1  6
 33 30  1  6
 30 38  1  0
 34 31  1  1
 31 39  1  0
 35 32  1  6
 32 40  1  0
 41 43  1  0
 15 19  2  0
 42 43  2  0
 16 22  2  0
 12 17  1  1
 17 19  1  0
 17 20  1  0
 18 19  1  0
 18 22  1  0
 18 23  1  0
  9 10  1  0
  9 11  1  0
 10 12  1  0
 11  5  1  1
 33 34  1  0
 33 35  1  0
 34 36  1  0
 35 37  1  0
 37 43  1  6
 20 21  2  0
 21 22  1  0
M  CHG  3   2  -1  26  -1  41  -1
M  END
>  <COMPND>  (55) 
    udp_gluA.pdb 

>  <AUTHOR>  (55) 
    GENERATED BY OPEN BABEL 3.1.1

>  <MASTER>  (55) 
        0    0    0    0    0    0    0    0   56    0   56    0

>  <minimizedAffinity>  (55) 
-6.17819

>  <CNNscore>  (55) 
0.3408483267

>  <CNNaffinity>  (55) 
4.0785055161

>  <CNN_VS>  (55) 
1.3901517391

>  <CNNaffinity_variance>  (55) 
0.0359998308

$$$$
56
     RDKit          3D

 43 45  0  0  0  0  0  0  0  0999 V2000
   21.2938   72.0540   -3.1472 P   0  0  2  0  0  0  0  0  0  0  0  0
   21.3906   70.4685   -3.4567 O   0  0  0  0  0  0  0  0  0  0  0  0
   19.9490   72.5271   -2.6788 O   0  0  0  0  0  0  0  0  0  0  0  0
   21.8515   72.7483   -4.4981 O   0  0  0  0  0  0  0  0  0  0  0  0
   21.2031   73.9120   -4.9774 C   0  0  0  0  0  0  0  0  0  0  0  0
   20.5267   72.6348   -6.8981 O   0  0  0  0  0  0  0  0  0  0  0  0
   20.7865   75.1851   -8.4536 O   0  0  0  0  0  0  0  0  0  0  0  0
   18.0946   74.9988   -8.0600 O   0  0  0  0  0  0  0  0  0  0  0  0
   20.3345   74.9858   -7.1140 C   0  0  1  0  0  0  0  0  0  0  0  0
   18.9447   74.3852   -7.1137 C   0  0  2  0  0  0  0  0  0  0  0  0
   21.1650   73.8673   -6.4996 C   0  0  1  0  0  0  0  0  0  0  0  0
   19.2301   72.9295   -7.4413 C   0  0  2  0  0  0  0  0  0  0  0  0
   20.2704   75.8954   -8.8670 H   0  0  0  0  0  0  0  0  0  0  0  0
   17.9433   75.9235   -7.8070 H   0  0  0  0  0  0  0  0  0  0  0  0
   16.7038   72.3575   -8.5671 O   0  0  0  0  0  0  0  0  0  0  0  0
   15.6148   69.4934   -5.1240 O   0  0  0  0  0  0  0  0  0  0  0  0
   18.2667   72.0380   -6.8600 N   0  0  0  0  0  0  0  0  0  0  0  0
   16.1634   70.9323   -6.8506 N   0  0  0  0  0  0  0  0  0  0  0  0
   17.0269   71.8199   -7.5061 C   0  0  0  0  0  0  0  0  0  0  0  0
   18.5541   71.3897   -5.6650 C   0  0  0  0  0  0  0  0  0  0  0  0
   17.7210   70.5463   -5.0523 C   0  0  0  0  0  0  0  0  0  0  0  0
   16.4044   70.2643   -5.6610 C   0  0  0  0  0  0  0  0  0  0  0  0
   15.2933   70.7662   -7.2803 H   0  0  0  0  0  0  0  0  0  0  0  0
   22.4960   72.2920   -2.0933 O   0  0  0  0  0  0  0  0  0  0  0  0
   24.0663   72.5984   -2.3258 P   0  0  2  0  0  0  0  0  0  0  0  0
   24.0806   74.1634   -2.7389 O   0  0  0  0  0  0  0  0  0  0  0  0
   24.7302   71.6903   -3.3199 O   0  0  0  0  0  0  0  0  0  0  0  0
   24.7136   72.5613   -0.8486 O   0  0  0  0  0  0  0  0  0  0  0  0
   24.7347   74.4885    0.5279 O   0  0  0  0  0  0  0  0  0  0  0  0
   27.6738   72.1725    2.2789 O   0  0  0  0  0  0  0  0  0  0  0  0
   27.4797   72.3689   -0.6294 O   0  0  0  0  0  0  0  0  0  0  0  0
   25.0628   72.4112    3.5345 O   0  0  0  0  0  0  0  0  0  0  0  0
   26.4592   72.4205    1.5711 C   0  0  2  0  0  0  0  0  0  0  0  0
   26.7638   73.1904    0.2858 C   0  0  2  0  0  0  0  0  0  0  0  0
   25.5420   73.2426    2.4792 C   0  0  1  0  0  0  0  0  0  0  0  0
   25.4751   73.6732   -0.3813 C   0  0  1  0  0  0  0  0  0  0  0  0
   24.3446   73.7933    1.7101 C   0  0  1  0  0  0  0  0  0  0  0  0
   28.2727   71.6513    1.7212 H   0  0  0  0  0  0  0  0  0  0  0  0
   28.2985   72.0588   -0.2126 H   0  0  0  0  0  0  0  0  0  0  0  0
   25.8152   72.0542    4.0318 H   0  0  0  0  0  0  0  0  0  0  0  0
   23.5956   76.0137    1.8127 O   0  0  0  0  0  0  0  0  0  0  0  0
   23.1741   74.6892    3.6203 O   0  0  0  0  0  0  0  0  0  0  0  0
   23.6439   74.8477    2.5035 C   0  0  0  0  0  0  0  0  0  0  0  0
  1  4  1  0
  1 24  1  0
  1  2  1  6
  1  3  2  0
 25 28  1  0
 25 24  1  0
 25 26  1  6
 25 27  2  0
  6 11  1  0
  6 12  1  0
 29 36  1  0
 29 37  1  0
  9  7  1  6
  7 13  1  0
 10  8  1  6
  8 14  1  0
  4  5  1  0
 36 28  1  1
 33 30  1  1
 30 38  1  0
 34 31  1  6
 31 39  1  0
 35 32  1  1
 32 40  1  0
 41 43  1  0
 15 19  2  0
 42 43  2  0
 16 22  2  0
 12 17  1  1
 17 19  1  0
 17 20  1  0
 18 19  1  0
 18 22  1  0
 18 23  1  0
  9 10  1  0
  9 11  1  0
 10 12  1  0
 11  5  1  1
 33 34  1  0
 33 35  1  0
 34 36  1  0
 35 37  1  0
 37 43  1  1
 20 21  2  0
 21 22  1  0
M  CHG  3   2  -1  26  -1  41  -1
M  END
>  <COMPND>  (56) 
    udp_gluA.pdb 

>  <AUTHOR>  (56) 
    GENERATED BY OPEN BABEL 3.1.1

>  <MASTER>  (56) 
        0    0    0    0    0    0    0    0   56    0   56    0

>  <minimizedAffinity>  (56) 
-6.01051

>  <CNNscore>  (56) 
0.3293347657

>  <CNNaffinity>  (56) 
4.0659818649

>  <CNN_VS>  (56) 
1.3390691280

>  <CNNaffinity_variance>  (56) 
0.0381592400

$$$$
57
     RDKit          3D

 43 45  0  0  0  0  0  0  0  0999 V2000
   22.3716   73.0723   -4.6089 P   0  0  2  0  0  0  0  0  0  0  0  0
   23.8505   72.6244   -4.1282 O   0  0  0  0  0  0  0  0  0  0  0  0
   22.1370   74.5542   -4.6390 O   0  0  0  0  0  0  0  0  0  0  0  0
   21.3790   72.2230   -3.6543 O   0  0  0  0  0  0  0  0  0  0  0  0
   21.9415   71.4567   -2.6051 C   0  0  0  0  0  0  0  0  0  0  0  0
   21.6306   70.8880   -0.2905 O   0  0  0  0  0  0  0  0  0  0  0  0
   19.0891   72.4729   -0.4349 O   0  0  0  0  0  0  0  0  0  0  0  0
   20.8043   74.2071    0.7843 O   0  0  0  0  0  0  0  0  0  0  0  0
   20.3415   72.7129   -1.0772 C   0  0  1  0  0  0  0  0  0  0  0  0
   21.3528   73.2313   -0.0768 C   0  0  2  0  0  0  0  0  0  0  0  0
   20.9371   71.3659   -1.4635 C   0  0  1  0  0  0  0  0  0  0  0  0
   21.7505   71.9615    0.6564 C   0  0  2  0  0  0  0  0  0  0  0  0
   18.6893   73.3192   -0.1788 H   0  0  0  0  0  0  0  0  0  0  0  0
   20.5677   74.9956    0.2703 H   0  0  0  0  0  0  0  0  0  0  0  0
   22.7330   70.4008    2.7954 O   0  0  0  0  0  0  0  0  0  0  0  0
   26.9503   72.2241    2.4285 O   0  0  0  0  0  0  0  0  0  0  0  0
   23.1011   72.0084    1.1405 N   0  0  0  0  0  0  0  0  0  0  0  0
   24.8323   71.3111    2.6113 N   0  0  0  0  0  0  0  0  0  0  0  0
   23.4927   71.1831    2.2211 C   0  0  0  0  0  0  0  0  0  0  0  0
   24.0217   72.8629    0.5461 C   0  0  0  0  0  0  0  0  0  0  0  0
   25.2952   72.9738    0.9290 C   0  0  0  0  0  0  0  0  0  0  0  0
   25.7849   72.1470    2.0515 C   0  0  0  0  0  0  0  0  0  0  0  0
   25.1277   70.7481    3.3629 H   0  0  0  0  0  0  0  0  0  0  0  0
   22.2170   72.3369   -6.0400 O   0  0  0  0  0  0  0  0  0  0  0  0
   20.9449   72.1927   -7.0273 P   0  0  2  0  0  0  0  0  0  0  0  0
   21.2449   70.8123   -7.8178 O   0  0  0  0  0  0  0  0  0  0  0  0
   20.7196   73.3795   -7.9187 O   0  0  0  0  0  0  0  0  0  0  0  0
   19.7079   71.8431   -6.0526 O   0  0  0  0  0  0  0  0  0  0  0  0
   17.4437   71.8054   -6.7463 O   0  0  0  0  0  0  0  0  0  0  0  0
   17.0669   72.4338   -2.6804 O   0  0  0  0  0  0  0  0  0  0  0  0
   19.1158   73.8435   -4.2131 O   0  0  0  0  0  0  0  0  0  0  0  0
   16.5141   69.8125   -3.8093 O   0  0  0  0  0  0  0  0  0  0  0  0
   17.6704   71.9253   -3.8701 C   0  0  2  0  0  0  0  0  0  0  0  0
   18.0549   73.0877   -4.7858 C   0  0  2  0  0  0  0  0  0  0  0  0
   16.6547   71.0148   -4.5637 C   0  0  1  0  0  0  0  0  0  0  0  0
   18.4912   72.5797   -6.1608 C   0  0  1  0  0  0  0  0  0  0  0  0
   17.1037   70.6542   -5.9769 C   0  0  1  0  0  0  0  0  0  0  0  0
   17.6940   73.0154   -2.2226 H   0  0  0  0  0  0  0  0  0  0  0  0
   18.8459   74.1687   -3.3403 H   0  0  0  0  0  0  0  0  0  0  0  0
   16.2288   70.0280   -2.9076 H   0  0  0  0  0  0  0  0  0  0  0  0
   15.7725   68.7652   -6.3784 O   0  0  0  0  0  0  0  0  0  0  0  0
   15.3266   70.6324   -7.6087 O   0  0  0  0  0  0  0  0  0  0  0  0
   15.9783   70.0520   -6.7535 C   0  0  0  0  0  0  0  0  0  0  0  0
  1  4  1  0
  1 24  1  0
  1  2  1  1
  1  3  2  0
 25 28  1  0
 25 24  1  0
 25 26  1  6
 25 27  2  0
  6 11  1  0
  6 12  1  0
 29 36  1  0
 29 37  1  0
  9  7  1  1
  7 13  1  0
 10  8  1  1
  8 14  1  0
  4  5  1  0
 36 28  1  1
 33 30  1  1
 30 38  1  0
 34 31  1  1
 31 39  1  0
 35 32  1  1
 32 40  1  0
 41 43  1  0
 15 19  2  0
 42 43  2  0
 16 22  2  0
 12 17  1  6
 17 19  1  0
 17 20  1  0
 18 19  1  0
 18 22  1  0
 18 23  1  0
  9 10  1  0
  9 11  1  0
 10 12  1  0
 11  5  1  6
 33 34  1  0
 33 35  1  0
 34 36  1  0
 35 37  1  0
 37 43  1  6
 20 21  2  0
 21 22  1  0
M  CHG  3   2  -1  26  -1  41  -1
M  END
>  <COMPND>  (57) 
    udp_gluA.pdb 

>  <AUTHOR>  (57) 
    GENERATED BY OPEN BABEL 3.1.1

>  <MASTER>  (57) 
        0    0    0    0    0    0    0    0   56    0   56    0

>  <minimizedAffinity>  (57) 
-7.01082

>  <CNNscore>  (57) 
0.3275133073

>  <CNNaffinity>  (57) 
4.1214208603

>  <CNN_VS>  (57) 
1.3498201370

>  <CNNaffinity_variance>  (57) 
0.0991231501

$$$$
58
     RDKit          3D

 43 45  0  0  0  0  0  0  0  0999 V2000
   21.1528   73.9199   -1.7040 P   0  0  2  0  0  0  0  0  0  0  0  0
   20.7703   75.4595   -1.3847 O   0  0  0  0  0  0  0  0  0  0  0  0
   19.9903   72.9714   -1.7341 O   0  0  0  0  0  0  0  0  0  0  0  0
   22.3121   73.5765   -0.6289 O   0  0  0  0  0  0  0  0  0  0  0  0
   21.9291   73.1364    0.6611 C   0  0  0  0  0  0  0  0  0  0  0  0
   24.0446   71.9994    0.5647 O   0  0  0  0  0  0  0  0  0  0  0  0
   22.9271   70.1367    2.6319 O   0  0  0  0  0  0  0  0  0  0  0  0
   24.5025   71.7965    4.1148 O   0  0  0  0  0  0  0  0  0  0  0  0
   22.7237   71.5414    2.4768 C   0  0  1  0  0  0  0  0  0  0  0  0
   23.9586   72.3011    2.9131 C   0  0  2  0  0  0  0  0  0  0  0  0
   22.6719   71.8468    0.9861 C   0  0  1  0  0  0  0  0  0  0  0  0
   24.8848   72.1064    1.7248 C   0  0  2  0  0  0  0  0  0  0  0  0
   22.9637   69.9173    3.5764 H   0  0  0  0  0  0  0  0  0  0  0  0
   23.8756   71.9446    4.8408 H   0  0  0  0  0  0  0  0  0  0  0  0
   27.4469   72.2744    2.9013 O   0  0  0  0  0  0  0  0  0  0  0  0
   28.2626   76.3815    0.9750 O   0  0  0  0  0  0  0  0  0  0  0  0
   25.7876   73.2084    1.5475 N   0  0  0  0  0  0  0  0  0  0  0  0
   27.8503   74.3203    1.9416 N   0  0  0  0  0  0  0  0  0  0  0  0
   27.0517   73.1946    2.1830 C   0  0  0  0  0  0  0  0  0  0  0  0
   25.4191   74.2856    0.7507 C   0  0  0  0  0  0  0  0  0  0  0  0
   26.1911   75.3514    0.5299 C   0  0  0  0  0  0  0  0  0  0  0  0
   27.5272   75.4160    1.1578 C   0  0  0  0  0  0  0  0  0  0  0  0
   28.7341   74.3344    2.3751 H   0  0  0  0  0  0  0  0  0  0  0  0
   21.9683   74.0297   -3.0953 O   0  0  0  0  0  0  0  0  0  0  0  0
   22.6156   72.8878   -4.0392 P   0  0  2  0  0  0  0  0  0  0  0  0
   22.4888   71.5483   -3.1392 O   0  0  0  0  0  0  0  0  0  0  0  0
   24.0107   73.1909   -4.5038 O   0  0  0  0  0  0  0  0  0  0  0  0
   21.5439   72.6830   -5.2274 O   0  0  0  0  0  0  0  0  0  0  0  0
   19.7388   71.2601   -4.6563 O   0  0  0  0  0  0  0  0  0  0  0  0
   19.1513   71.7764   -8.7129 O   0  0  0  0  0  0  0  0  0  0  0  0
   21.8377   71.3460   -7.6486 O   0  0  0  0  0  0  0  0  0  0  0  0
   17.4669   73.1802   -6.8043 O   0  0  0  0  0  0  0  0  0  0  0  0
   19.5623   72.1498   -7.3978 C   0  0  2  0  0  0  0  0  0  0  0  0
   20.6369   71.1812   -6.9031 C   0  0  2  0  0  0  0  0  0  0  0  0
   18.3351   72.0945   -6.4852 C   0  0  1  0  0  0  0  0  0  0  0  0
   20.9363   71.4070   -5.4205 C   0  0  1  0  0  0  0  0  0  0  0  0
   18.7291   72.2009   -5.0148 C   0  0  1  0  0  0  0  0  0  0  0  0
   19.9150   71.8043   -9.3107 H   0  0  0  0  0  0  0  0  0  0  0  0
   21.6550   71.2044   -8.5904 H   0  0  0  0  0  0  0  0  0  0  0  0
   17.2088   73.1244   -7.7376 H   0  0  0  0  0  0  0  0  0  0  0  0
   17.9609   70.8562   -3.2531 O   0  0  0  0  0  0  0  0  0  0  0  0
   16.4668   72.3064   -4.1826 O   0  0  0  0  0  0  0  0  0  0  0  0
   17.5865   71.8200   -4.1306 C   0  0  0  0  0  0  0  0  0  0  0  0
  1  4  1  0
  1 24  1  0
  1  2  1  1
  1  3  2  0
 25 28  1  0
 25 24  1  0
 25 26  1  1
 25 27  2  0
  6 11  1  0
  6 12  1  0
 29 36  1  0
 29 37  1  0
  9  7  1  6
  7 13  1  0
 10  8  1  1
  8 14  1  0
  4  5  1  0
 36 28  1  6
 33 30  1  6
 30 38  1  0
 34 31  1  6
 31 39  1  0
 35 32  1  6
 32 40  1  0
 41 43  1  0
 15 19  2  0
 42 43  2  0
 16 22  2  0
 12 17  1  6
 17 19  1  0
 17 20  1  0
 18 19  1  0
 18 22  1  0
 18 23  1  0
  9 10  1  0
  9 11  1  0
 10 12  1  0
 11  5  1  1
 33 34  1  0
 33 35  1  0
 34 36  1  0
 35 37  1  0
 37 43  1  1
 20 21  2  0
 21 22  1  0
M  CHG  3   2  -1  26  -1  41  -1
M  END
>  <COMPND>  (58) 
    udp_gluA.pdb 

>  <AUTHOR>  (58) 
    GENERATED BY OPEN BABEL 3.1.1

>  <MASTER>  (58) 
        0    0    0    0    0    0    0    0   56    0   56    0

>  <minimizedAffinity>  (58) 
-6.29546

>  <CNNscore>  (58) 
0.3266802728

>  <CNNaffinity>  (58) 
3.8832728863

>  <CNN_VS>  (58) 
1.2685886621

>  <CNNaffinity_variance>  (58) 
0.2845247090

$$$$
59
     RDKit          3D

 43 45  0  0  0  0  0  0  0  0999 V2000
   21.3268   75.1293   -3.3164 P   0  0  2  0  0  0  0  0  0  0  0  0
   22.6540   75.5912   -4.1189 O   0  0  0  0  0  0  0  0  0  0  0  0
   20.5298   76.2483   -2.7126 O   0  0  0  0  0  0  0  0  0  0  0  0
   21.8693   74.0132   -2.2781 O   0  0  0  0  0  0  0  0  0  0  0  0
   23.2358   73.6467   -2.3324 C   0  0  0  0  0  0  0  0  0  0  0  0
   23.6691   71.8618   -0.7819 O   0  0  0  0  0  0  0  0  0  0  0  0
   22.3770   70.0510   -2.7926 O   0  0  0  0  0  0  0  0  0  0  0  0
   20.3888   70.4266   -0.9645 O   0  0  0  0  0  0  0  0  0  0  0  0
   22.0515   71.3981   -2.4490 C   0  0  1  0  0  0  0  0  0  0  0  0
   21.3594   71.4430   -1.1031 C   0  0  2  0  0  0  0  0  0  0  0  0
   23.3516   72.1373   -2.1635 C   0  0  1  0  0  0  0  0  0  0  0  0
   22.5247   71.2737   -0.1434 C   0  0  2  0  0  0  0  0  0  0  0  0
   21.5619   69.5587   -2.9794 H   0  0  0  0  0  0  0  0  0  0  0  0
   19.6682   70.5792   -1.5965 H   0  0  0  0  0  0  0  0  0  0  0  0
   23.1078   70.1420    2.3777 O   0  0  0  0  0  0  0  0  0  0  0  0
   21.6239   73.8926    4.6082 O   0  0  0  0  0  0  0  0  0  0  0  0
   22.3007   71.9325    1.1123 N   0  0  0  0  0  0  0  0  0  0  0  0
   22.3672   72.0107    3.4862 N   0  0  0  0  0  0  0  0  0  0  0  0
   22.6281   71.2759    2.3222 C   0  0  0  0  0  0  0  0  0  0  0  0
   21.7644   73.2142    1.1371 C   0  0  0  0  0  0  0  0  0  0  0  0
   21.5216   73.9020    2.2546 C   0  0  0  0  0  0  0  0  0  0  0  0
   21.8344   73.2874    3.5614 C   0  0  0  0  0  0  0  0  0  0  0  0
   22.5850   71.5735    4.3411 H   0  0  0  0  0  0  0  0  0  0  0  0
   20.5283   74.2488   -4.4118 O   0  0  0  0  0  0  0  0  0  0  0  0
   20.9088   73.8443   -5.9302 P   0  0  2  0  0  0  0  0  0  0  0  0
   22.1260   72.7944   -5.7393 O   0  0  0  0  0  0  0  0  0  0  0  0
   21.2328   75.0124   -6.8159 O   0  0  0  0  0  0  0  0  0  0  0  0
   19.6699   72.9436   -6.4364 O   0  0  0  0  0  0  0  0  0  0  0  0
   18.8729   70.7350   -6.1268 O   0  0  0  0  0  0  0  0  0  0  0  0
   18.5144   71.1923  -10.2171 O   0  0  0  0  0  0  0  0  0  0  0  0
   20.8831   72.1766   -8.8189 O   0  0  0  0  0  0  0  0  0  0  0  0
   16.1553   71.3153   -8.5227 O   0  0  0  0  0  0  0  0  0  0  0  0
   18.5227   71.6168   -8.8541 C   0  0  2  0  0  0  0  0  0  0  0  0
   19.8935   71.3348   -8.2386 C   0  0  2  0  0  0  0  0  0  0  0  0
   17.4349   70.8391   -8.1099 C   0  0  1  0  0  0  0  0  0  0  0  0
   19.8713   71.5615   -6.7263 C   0  0  1  0  0  0  0  0  0  0  0  0
   17.5574   71.0169   -6.5993 C   0  0  1  0  0  0  0  0  0  0  0  0
   19.1979   71.6733  -10.7098 H   0  0  0  0  0  0  0  0  0  0  0  0
   20.9024   72.0382   -9.7785 H   0  0  0  0  0  0  0  0  0  0  0  0
   16.0646   71.2079   -9.4825 H   0  0  0  0  0  0  0  0  0  0  0  0
   16.3152   69.0311   -6.7211 O   0  0  0  0  0  0  0  0  0  0  0  0
   16.4343   70.0606   -4.6900 O   0  0  0  0  0  0  0  0  0  0  0  0
   16.7192   70.0128   -5.8773 C   0  0  0  0  0  0  0  0  0  0  0  0
  1  4  1  0
  1 24  1  0
  1  2  1  6
  1  3  2  0
 25 28  1  0
 25 24  1  0
 25 26  1  1
 25 27  2  0
  6 11  1  0
  6 12  1  0
 29 36  1  0
 29 37  1  0
  9  7  1  1
  7 13  1  0
 10  8  1  6
  8 14  1  0
  4  5  1  0
 36 28  1  6
 33 30  1  6
 30 38  1  0
 34 31  1  6
 31 39  1  0
 35 32  1  6
 32 40  1  0
 41 43  1  0
 15 19  2  0
 42 43  2  0
 16 22  2  0
 12 17  1  1
 17 19  1  0
 17 20  1  0
 18 19  1  0
 18 22  1  0
 18 23  1  0
  9 10  1  0
  9 11  1  0
 10 12  1  0
 11  5  1  1
 33 34  1  0
 33 35  1  0
 34 36  1  0
 35 37  1  0
 37 43  1  1
 20 21  2  0
 21 22  1  0
M  CHG  3   2  -1  26  -1  41  -1
M  END
>  <COMPND>  (59) 
    udp_gluA.pdb 

>  <AUTHOR>  (59) 
    GENERATED BY OPEN BABEL 3.1.1

>  <MASTER>  (59) 
        0    0    0    0    0    0    0    0   56    0   56    0

>  <minimizedAffinity>  (59) 
-7.28007

>  <CNNscore>  (59) 
0.3178484142

>  <CNNaffinity>  (59) 
3.9250473976

>  <CNN_VS>  (59) 
1.2475700378

>  <CNNaffinity_variance>  (59) 
0.1421685517

$$$$
60
     RDKit          3D

 43 45  0  0  0  0  0  0  0  0999 V2000
   21.6715   73.5151   -4.3394 P   0  0  2  0  0  0  0  0  0  0  0  0
   22.1908   74.6135   -3.2705 O   0  0  0  0  0  0  0  0  0  0  0  0
   21.7687   73.9346   -5.7769 O   0  0  0  0  0  0  0  0  0  0  0  0
   20.1879   73.1357   -3.8170 O   0  0  0  0  0  0  0  0  0  0  0  0
   19.1441   73.0258   -4.7671 C   0  0  0  0  0  0  0  0  0  0  0  0
   16.7542   72.7864   -4.6736 O   0  0  0  0  0  0  0  0  0  0  0  0
   17.2582   70.0725   -3.5023 O   0  0  0  0  0  0  0  0  0  0  0  0
   16.6689   69.4992   -6.1023 O   0  0  0  0  0  0  0  0  0  0  0  0
   17.9908   70.7730   -4.5079 C   0  0  1  0  0  0  0  0  0  0  0  0
   17.2265   70.7645   -5.8148 C   0  0  2  0  0  0  0  0  0  0  0  0
   17.9879   72.2521   -4.1467 C   0  0  1  0  0  0  0  0  0  0  0  0
   16.1692   71.8273   -5.5687 C   0  0  2  0  0  0  0  0  0  0  0  0
   17.2462   69.1250   -3.7115 H   0  0  0  0  0  0  0  0  0  0  0  0
   17.3820   68.8579   -6.2512 H   0  0  0  0  0  0  0  0  0  0  0  0
   13.5647   72.7955   -6.0742 O   0  0  0  0  0  0  0  0  0  0  0  0
   14.7629   74.3767  -10.2346 O   0  0  0  0  0  0  0  0  0  0  0  0
   15.7731   72.4959   -6.7757 N   0  0  0  0  0  0  0  0  0  0  0  0
   14.1637   73.5812   -8.1462 N   0  0  0  0  0  0  0  0  0  0  0  0
   14.4395   72.9432   -6.9297 C   0  0  0  0  0  0  0  0  0  0  0  0
   16.7002   72.7042   -7.7896 C   0  0  0  0  0  0  0  0  0  0  0  0
   16.4225   73.3141   -8.9435 C   0  0  0  0  0  0  0  0  0  0  0  0
   15.0519   73.8109   -9.1845 C   0  0  0  0  0  0  0  0  0  0  0  0
   13.2413   73.8995   -8.2774 H   0  0  0  0  0  0  0  0  0  0  0  0
   22.5366   72.2031   -3.9609 O   0  0  0  0  0  0  0  0  0  0  0  0
   22.3919   71.1518   -2.7413 P   0  0  2  0  0  0  0  0  0  0  0  0
   23.8191   70.3880   -2.7400 O   0  0  0  0  0  0  0  0  0  0  0  0
   21.2033   70.2412   -2.8510 O   0  0  0  0  0  0  0  0  0  0  0  0
   22.4165   72.0630   -1.4103 O   0  0  0  0  0  0  0  0  0  0  0  0
   22.2016   71.0835    0.7353 O   0  0  0  0  0  0  0  0  0  0  0  0
   21.2642   75.0307    1.5154 O   0  0  0  0  0  0  0  0  0  0  0  0
   20.2394   73.7111   -0.8810 O   0  0  0  0  0  0  0  0  0  0  0  0
   23.8583   73.9676    2.2842 O   0  0  0  0  0  0  0  0  0  0  0  0
   21.9244   73.9556    0.8474 C   0  0  2  0  0  0  0  0  0  0  0  0
   20.8852   73.0425    0.1964 C   0  0  2  0  0  0  0  0  0  0  0  0
   22.7370   73.1806    1.8871 C   0  0  1  0  0  0  0  0  0  0  0  0
   21.5350   71.7621   -0.3299 C   0  0  1  0  0  0  0  0  0  0  0  0
   23.2453   71.8569    1.3232 C   0  0  1  0  0  0  0  0  0  0  0  0
   20.7413   75.5375    0.8743 H   0  0  0  0  0  0  0  0  0  0  0  0
   19.8251   74.5247   -0.5543 H   0  0  0  0  0  0  0  0  0  0  0  0
   23.5486   74.8131    2.6449 H   0  0  0  0  0  0  0  0  0  0  0  0
   22.8848   69.9432    2.6305 O   0  0  0  0  0  0  0  0  0  0  0  0
   24.7825   71.1395    3.0388 O   0  0  0  0  0  0  0  0  0  0  0  0
   23.7439   70.9706    2.4177 C   0  0  0  0  0  0  0  0  0  0  0  0
  1  4  1  0
  1 24  1  0
  1  2  1  1
  1  3  2  0
 25 28  1  0
 25 24  1  0
 25 26  1  1
 25 27  2  0
  6 11  1  0
  6 12  1  0
 29 36  1  0
 29 37  1  0
  9  7  1  1
  7 13  1  0
 10  8  1  1
  8 14  1  0
  4  5  1  0
 36 28  1  6
 33 30  1  1
 30 38  1  0
 34 31  1  6
 31 39  1  0
 35 32  1  6
 32 40  1  0
 41 43  1  0
 15 19  2  0
 42 43  2  0
 16 22  2  0
 12 17  1  6
 17 19  1  0
 17 20  1  0
 18 19  1  0
 18 22  1  0
 18 23  1  0
  9 10  1  0
  9 11  1  0
 10 12  1  0
 11  5  1  6
 33 34  1  0
 33 35  1  0
 34 36  1  0
 35 37  1  0
 37 43  1  1
 20 21  2  0
 21 22  1  0
M  CHG  3   2  -1  26  -1  41  -1
M  END
>  <COMPND>  (60) 
    udp_gluA.pdb 

>  <AUTHOR>  (60) 
    GENERATED BY OPEN BABEL 3.1.1

>  <MASTER>  (60) 
        0    0    0    0    0    0    0    0   56    0   56    0

>  <minimizedAffinity>  (60) 
-6.28089

>  <CNNscore>  (60) 
0.3176479638

>  <CNNaffinity>  (60) 
4.0287175179

>  <CNN_VS>  (60) 
1.2797138691

>  <CNNaffinity_variance>  (60) 
0.0262215938

$$$$
61
     RDKit          3D

 43 45  0  0  0  0  0  0  0  0999 V2000
   21.0281   71.6373   -1.5602 P   0  0  2  0  0  0  0  0  0  0  0  0
   20.3516   70.2027   -1.2390 O   0  0  0  0  0  0  0  0  0  0  0  0
   20.8161   72.6872   -0.5092 O   0  0  0  0  0  0  0  0  0  0  0  0
   20.4813   72.0024   -3.0385 O   0  0  0  0  0  0  0  0  0  0  0  0
   20.3431   70.9588   -3.9852 C   0  0  0  0  0  0  0  0  0  0  0  0
   20.5175   70.5810   -6.3526 O   0  0  0  0  0  0  0  0  0  0  0  0
   21.9807   73.1956   -6.4739 O   0  0  0  0  0  0  0  0  0  0  0  0
   19.4777   73.8740   -7.3167 O   0  0  0  0  0  0  0  0  0  0  0  0
   20.8851   72.8109   -5.6431 C   0  0  1  0  0  0  0  0  0  0  0  0
   19.6054   72.7655   -6.4509 C   0  0  2  0  0  0  0  0  0  0  0  0
   21.0743   71.3486   -5.2635 C   0  0  1  0  0  0  0  0  0  0  0  0
   19.7518   71.4521   -7.2002 C   0  0  2  0  0  0  0  0  0  0  0  0
   21.8820   74.1265   -6.7294 H   0  0  0  0  0  0  0  0  0  0  0  0
   19.3872   74.6854   -6.7919 H   0  0  0  0  0  0  0  0  0  0  0  0
   18.9893   70.4503   -9.7283 O   0  0  0  0  0  0  0  0  0  0  0  0
   14.8680   69.1115   -8.1578 O   0  0  0  0  0  0  0  0  0  0  0  0
   18.4854   70.8367   -7.4799 N   0  0  0  0  0  0  0  0  0  0  0  0
   16.9370   69.7854   -8.9440 N   0  0  0  0  0  0  0  0  0  0  0  0
   18.2016   70.3669   -8.7841 C   0  0  0  0  0  0  0  0  0  0  0  0
   17.5414   70.7021   -6.4692 C   0  0  0  0  0  0  0  0  0  0  0  0
   16.3402   70.1454   -6.6368 C   0  0  0  0  0  0  0  0  0  0  0  0
   15.9645   69.6297   -7.9695 C   0  0  0  0  0  0  0  0  0  0  0  0
   16.7158   69.4527   -9.8438 H   0  0  0  0  0  0  0  0  0  0  0  0
   22.5759   71.2566   -1.8291 O   0  0  0  0  0  0  0  0  0  0  0  0
   23.9344   72.0969   -1.5800 P   0  0  2  0  0  0  0  0  0  0  0  0
   23.4705   73.6292   -1.8192 O   0  0  0  0  0  0  0  0  0  0  0  0
   25.0925   71.6615   -2.4305 O   0  0  0  0  0  0  0  0  0  0  0  0
   24.1942   71.9934    0.0087 O   0  0  0  0  0  0  0  0  0  0  0  0
   23.2259   73.2837    1.7427 O   0  0  0  0  0  0  0  0  0  0  0  0
   26.9159   72.3509    3.3494 O   0  0  0  0  0  0  0  0  0  0  0  0
   26.6763   73.1289    0.5437 O   0  0  0  0  0  0  0  0  0  0  0  0
   24.5305   70.9708    4.2746 O   0  0  0  0  0  0  0  0  0  0  0  0
   25.7490   72.1382    2.5549 C   0  0  2  0  0  0  0  0  0  0  0  0
   25.6350   73.2451    1.5065 C   0  0  2  0  0  0  0  0  0  0  0  0
   24.5337   72.1584    3.4847 C   0  0  1  0  0  0  0  0  0  0  0  0
   24.2852   73.1833    0.7902 C   0  0  1  0  0  0  0  0  0  0  0  0
   23.2294   72.2228    2.6953 C   0  0  1  0  0  0  0  0  0  0  0  0
   27.7012   72.3421    2.7797 H   0  0  0  0  0  0  0  0  0  0  0  0
   27.5357   73.1671    0.9914 H   0  0  0  0  0  0  0  0  0  0  0  0
   25.3554   70.9176    4.7819 H   0  0  0  0  0  0  0  0  0  0  0  0
   21.6216   73.8153    3.3121 O   0  0  0  0  0  0  0  0  0  0  0  0
   21.6216   71.8414    4.4534 O   0  0  0  0  0  0  0  0  0  0  0  0
   22.0846   72.5714    3.5898 C   0  0  0  0  0  0  0  0  0  0  0  0
  1  4  1  0
  1 24  1  0
  1  2  1  1
  1  3  2  0
 25 28  1  0
 25 24  1  0
 25 26  1  1
 25 27  2  0
  6 11  1  0
  6 12  1  0
 29 36  1  0
 29 37  1  0
  9  7  1  6
  7 13  1  0
 10  8  1  6
  8 14  1  0
  4  5  1  0
 36 28  1  1
 33 30  1  1
 30 38  1  0
 34 31  1  6
 31 39  1  0
 35 32  1  6
 32 40  1  0
 41 43  1  0
 15 19  2  0
 42 43  2  0
 16 22  2  0
 12 17  1  1
 17 19  1  0
 17 20  1  0
 18 19  1  0
 18 22  1  0
 18 23  1  0
  9 10  1  0
  9 11  1  0
 10 12  1  0
 11  5  1  1
 33 34  1  0
 33 35  1  0
 34 36  1  0
 35 37  1  0
 37 43  1  1
 20 21  2  0
 21 22  1  0
M  CHG  3   2  -1  26  -1  41  -1
M  END
>  <COMPND>  (61) 
    udp_gluA.pdb 

>  <AUTHOR>  (61) 
    GENERATED BY OPEN BABEL 3.1.1

>  <MASTER>  (61) 
        0    0    0    0    0    0    0    0   56    0   56    0

>  <minimizedAffinity>  (61) 
-7.25812

>  <CNNscore>  (61) 
0.7628971338

>  <CNNaffinity>  (61) 
4.5347776413

>  <CNN_VS>  (61) 
3.4595689774

>  <CNNaffinity_variance>  (61) 
0.1007790342

$$$$
62
     RDKit          3D

 43 45  0  0  0  0  0  0  0  0999 V2000
   20.2579   74.2710   -3.2586 P   0  0  2  0  0  0  0  0  0  0  0  0
   20.3342   73.8259   -1.7046 O   0  0  0  0  0  0  0  0  0  0  0  0
   19.7347   75.6573   -3.4956 O   0  0  0  0  0  0  0  0  0  0  0  0
   19.4263   73.0760   -3.9646 O   0  0  0  0  0  0  0  0  0  0  0  0
   18.7528   72.1423   -3.1405 C   0  0  0  0  0  0  0  0  0  0  0  0
   17.0155   72.6378   -4.7261 O   0  0  0  0  0  0  0  0  0  0  0  0
   15.1290   71.3583   -2.7779 O   0  0  0  0  0  0  0  0  0  0  0  0
   15.5038   69.3884   -4.6259 O   0  0  0  0  0  0  0  0  0  0  0  0
   16.4763   71.0075   -3.0945 C   0  0  1  0  0  0  0  0  0  0  0  0
   16.5380   70.3338   -4.4490 C   0  0  2  0  0  0  0  0  0  0  0  0
   17.2508   72.2945   -3.3433 C   0  0  1  0  0  0  0  0  0  0  0  0
   16.4175   71.5162   -5.3952 C   0  0  2  0  0  0  0  0  0  0  0  0
   14.6144   70.5519   -2.6148 H   0  0  0  0  0  0  0  0  0  0  0  0
   15.6254   68.6556   -4.0012 H   0  0  0  0  0  0  0  0  0  0  0  0
   15.2974   70.1765   -7.6149 O   0  0  0  0  0  0  0  0  0  0  0  0
   19.1318   70.7262  -10.1128 O   0  0  0  0  0  0  0  0  0  0  0  0
   17.1010   71.2953   -6.6381 N   0  0  0  0  0  0  0  0  0  0  0  0
   17.2086   70.4507   -8.8565 N   0  0  0  0  0  0  0  0  0  0  0  0
   16.4483   70.6108   -7.6906 C   0  0  0  0  0  0  0  0  0  0  0  0
   18.4014   71.7555   -6.8059 C   0  0  0  0  0  0  0  0  0  0  0  0
   19.1132   71.5954   -7.9233 C   0  0  0  0  0  0  0  0  0  0  0  0
   18.5050   70.8900   -9.0704 C   0  0  0  0  0  0  0  0  0  0  0  0
   16.7761   69.9753   -9.6024 H   0  0  0  0  0  0  0  0  0  0  0  0
   21.7668   74.0221   -3.7819 O   0  0  0  0  0  0  0  0  0  0  0  0
   22.7768   72.7798   -3.5576 P   0  0  2  0  0  0  0  0  0  0  0  0
   24.0145   73.1270   -4.5413 O   0  0  0  0  0  0  0  0  0  0  0  0
   22.1579   71.4326   -3.7943 O   0  0  0  0  0  0  0  0  0  0  0  0
   23.3656   72.9942   -2.0711 O   0  0  0  0  0  0  0  0  0  0  0  0
   25.1900   72.0723   -0.8749 O   0  0  0  0  0  0  0  0  0  0  0  0
   22.2967   72.3191    2.0638 O   0  0  0  0  0  0  0  0  0  0  0  0
   21.6049   71.4016   -0.6221 O   0  0  0  0  0  0  0  0  0  0  0  0
   24.4786   74.2391    1.9993 O   0  0  0  0  0  0  0  0  0  0  0  0
   22.9873   72.7143    0.8785 C   0  0  2  0  0  0  0  0  0  0  0  0
   22.9339   71.5813   -0.1467 C   0  0  2  0  0  0  0  0  0  0  0  0
   24.4379   73.0220    1.2567 C   0  0  1  0  0  0  0  0  0  0  0  0
   23.8523   71.8741   -1.3340 C   0  0  1  0  0  0  0  0  0  0  0  0
   25.3157   73.1767    0.0181 C   0  0  1  0  0  0  0  0  0  0  0  0
   21.3724   72.1184    1.8479 H   0  0  0  0  0  0  0  0  0  0  0  0
   21.0167   71.2157    0.1261 H   0  0  0  0  0  0  0  0  0  0  0  0
   23.9237   74.1540    2.7903 H   0  0  0  0  0  0  0  0  0  0  0  0
   27.4779   72.4551   -0.5351 O   0  0  0  0  0  0  0  0  0  0  0  0
   27.2455   73.6727    1.3787 O   0  0  0  0  0  0  0  0  0  0  0  0
   26.7633   73.1469    0.3868 C   0  0  0  0  0  0  0  0  0  0  0  0
  1  4  1  0
  1 24  1  0
  1  2  1  1
  1  3  2  0
 25 28  1  0
 25 24  1  0
 25 26  1  6
 25 27  2  0
  6 11  1  0
  6 12  1  0
 29 36  1  0
 29 37  1  0
  9  7  1  6
  7 13  1  0
 10  8  1  1
  8 14  1  0
  4  5  1  0
 36 28  1  1
 33 30  1  1
 30 38  1  0
 34 31  1  6
 31 39  1  0
 35 32  1  6
 32 40  1  0
 41 43  1  0
 15 19  2  0
 42 43  2  0
 16 22  2  0
 12 17  1  6
 17 19  1  0
 17 20  1  0
 18 19  1  0
 18 22  1  0
 18 23  1  0
  9 10  1  0
  9 11  1  0
 10 12  1  0
 11  5  1  6
 33 34  1  0
 33 35  1  0
 34 36  1  0
 35 37  1  0
 37 43  1  1
 20 21  2  0
 21 22  1  0
M  CHG  3   2  -1  26  -1  41  -1
M  END
>  <COMPND>  (62) 
    udp_gluA.pdb 

>  <AUTHOR>  (62) 
    GENERATED BY OPEN BABEL 3.1.1

>  <MASTER>  (62) 
        0    0    0    0    0    0    0    0   56    0   56    0

>  <minimizedAffinity>  (62) 
-6.31576

>  <CNNscore>  (62) 
0.7434597611

>  <CNNaffinity>  (62) 
4.6277446747

>  <CNN_VS>  (62) 
3.4405419827

>  <CNNaffinity_variance>  (62) 
0.0610344596

$$$$
63
     RDKit          3D

 43 45  0  0  0  0  0  0  0  0999 V2000
   22.5239   73.7779   -4.0401 P   0  0  2  0  0  0  0  0  0  0  0  0
   22.9161   75.3218   -4.3252 O   0  0  0  0  0  0  0  0  0  0  0  0
   22.6113   72.8714   -5.2327 O   0  0  0  0  0  0  0  0  0  0  0  0
   21.0718   73.8701   -3.3325 O   0  0  0  0  0  0  0  0  0  0  0  0
   19.9171   73.8298   -4.1509 C   0  0  0  0  0  0  0  0  0  0  0  0
   18.1899   72.2768   -4.7692 O   0  0  0  0  0  0  0  0  0  0  0  0
   18.8968   70.7817   -2.2679 O   0  0  0  0  0  0  0  0  0  0  0  0
   20.1458   69.3253   -4.2056 O   0  0  0  0  0  0  0  0  0  0  0  0
   19.7488   71.4888   -3.1693 C   0  0  1  0  0  0  0  0  0  0  0  0
   19.9286   70.6995   -4.4487 C   0  0  2  0  0  0  0  0  0  0  0  0
   18.9978   72.7200   -3.6574 C   0  0  1  0  0  0  0  0  0  0  0  0
   18.6185   70.9657   -5.1703 C   0  0  2  0  0  0  0  0  0  0  0  0
   19.3551   69.9906   -1.9426 H   0  0  0  0  0  0  0  0  0  0  0  0
   20.9920   69.2083   -3.7450 H   0  0  0  0  0  0  0  0  0  0  0  0
   16.6279   70.0635   -6.9592 O   0  0  0  0  0  0  0  0  0  0  0  0
   19.2861   70.9062  -10.6290 O   0  0  0  0  0  0  0  0  0  0  0  0
   18.7639   70.9385   -6.5982 N   0  0  0  0  0  0  0  0  0  0  0  0
   17.9541   70.4831   -8.7852 N   0  0  0  0  0  0  0  0  0  0  0  0
   17.7033   70.4662   -7.4069 C   0  0  0  0  0  0  0  0  0  0  0  0
   19.9453   71.3776   -7.1835 C   0  0  0  0  0  0  0  0  0  0  0  0
   20.1697   71.3878   -8.4989 C   0  0  0  0  0  0  0  0  0  0  0  0
   19.1127   70.9097   -9.4141 C   0  0  0  0  0  0  0  0  0  0  0  0
   17.2311   70.1570   -9.3685 H   0  0  0  0  0  0  0  0  0  0  0  0
   23.4998   73.3758   -2.8158 O   0  0  0  0  0  0  0  0  0  0  0  0
   23.9019   71.9322   -2.2090 P   0  0  2  0  0  0  0  0  0  0  0  0
   25.1564   71.4814   -3.1274 O   0  0  0  0  0  0  0  0  0  0  0  0
   22.7734   70.9426   -2.1747 O   0  0  0  0  0  0  0  0  0  0  0  0
   24.5491   72.2598   -0.7681 O   0  0  0  0  0  0  0  0  0  0  0  0
   23.4440   72.1703    1.3248 O   0  0  0  0  0  0  0  0  0  0  0  0
   26.3971   74.9663    2.0523 O   0  0  0  0  0  0  0  0  0  0  0  0
   24.9130   75.0004   -0.4638 O   0  0  0  0  0  0  0  0  0  0  0  0
   26.6573   72.2646    3.0934 O   0  0  0  0  0  0  0  0  0  0  0  0
   25.8174   73.8105    1.4473 C   0  0  2  0  0  0  0  0  0  0  0  0
   24.5644   74.2140    0.6696 C   0  0  2  0  0  0  0  0  0  0  0  0
   25.4583   72.8239    2.5606 C   0  0  1  0  0  0  0  0  0  0  0  0
   23.7906   72.9808    0.2012 C   0  0  1  0  0  0  0  0  0  0  0  0
   24.5812   71.6896    2.0382 C   0  0  1  0  0  0  0  0  0  0  0  0
   26.6335   75.6077    1.3638 H   0  0  0  0  0  0  0  0  0  0  0  0
   25.4046   75.7845   -0.1739 H   0  0  0  0  0  0  0  0  0  0  0  0
   27.2246   72.9762    3.4292 H   0  0  0  0  0  0  0  0  0  0  0  0
   22.7397   70.4709    2.8287 O   0  0  0  0  0  0  0  0  0  0  0  0
   24.5008   70.7352    4.2527 O   0  0  0  0  0  0  0  0  0  0  0  0
   23.9705   70.9275    3.1688 C   0  0  0  0  0  0  0  0  0  0  0  0
  1  4  1  0
  1 24  1  0
  1  2  1  6
  1  3  2  0
 25 28  1  0
 25 24  1  0
 25 26  1  6
 25 27  2  0
  6 11  1  0
  6 12  1  0
 29 36  1  0
 29 37  1  0
  9  7  1  1
  7 13  1  0
 10  8  1  1
  8 14  1  0
  4  5  1  0
 36 28  1  6
 33 30  1  1
 30 38  1  0
 34 31  1  6
 31 39  1  0
 35 32  1  6
 32 40  1  0
 41 43  1  0
 15 19  2  0
 42 43  2  0
 16 22  2  0
 12 17  1  6
 17 19  1  0
 17 20  1  0
 18 19  1  0
 18 22  1  0
 18 23  1  0
  9 10  1  0
  9 11  1  0
 10 12  1  0
 11  5  1  6
 33 34  1  0
 33 35  1  0
 34 36  1  0
 35 37  1  0
 37 43  1  1
 20 21  2  0
 21 22  1  0
M  CHG  3   2  -1  26  -1  41  -1
M  END
>  <COMPND>  (63) 
    udp_gluA.pdb 

>  <AUTHOR>  (63) 
    GENERATED BY OPEN BABEL 3.1.1

>  <MASTER>  (63) 
        0    0    0    0    0    0    0    0   56    0   56    0

>  <minimizedAffinity>  (63) 
-7.64777

>  <CNNscore>  (63) 
0.7370226383

>  <CNNaffinity>  (63) 
4.5032429695

>  <CNN_VS>  (63) 
3.3189918995

>  <CNNaffinity_variance>  (63) 
0.0119699994

$$$$
64
     RDKit          3D

 43 45  0  0  0  0  0  0  0  0999 V2000
   23.0241   72.8719   -3.1441 P   0  0  2  0  0  0  0  0  0  0  0  0
   23.3341   74.2245   -2.3116 O   0  0  0  0  0  0  0  0  0  0  0  0
   24.1434   72.3993   -4.0247 O   0  0  0  0  0  0  0  0  0  0  0  0
   21.6260   73.1892   -3.8942 O   0  0  0  0  0  0  0  0  0  0  0  0
   21.1405   72.2565   -4.8423 C   0  0  0  0  0  0  0  0  0  0  0  0
   20.8721   71.8451   -7.1952 O   0  0  0  0  0  0  0  0  0  0  0  0
   21.4954   74.7521   -7.5853 O   0  0  0  0  0  0  0  0  0  0  0  0
   18.7791   74.6887   -7.8179 O   0  0  0  0  0  0  0  0  0  0  0  0
   20.7645   74.1176   -6.5356 C   0  0  1  0  0  0  0  0  0  0  0  0
   19.3982   73.6929   -7.0308 C   0  0  2  0  0  0  0  0  0  0  0  0
   21.4281   72.7786   -6.2441 C   0  0  1  0  0  0  0  0  0  0  0  0
   19.7259   72.4398   -7.8246 C   0  0  2  0  0  0  0  0  0  0  0  0
   21.0900   75.6099   -7.7893 H   0  0  0  0  0  0  0  0  0  0  0  0
   18.5906   75.4653   -7.2672 H   0  0  0  0  0  0  0  0  0  0  0  0
   19.0357   70.8041  -10.0211 O   0  0  0  0  0  0  0  0  0  0  0  0
   15.5700   68.8396   -7.7029 O   0  0  0  0  0  0  0  0  0  0  0  0
   18.6477   71.4920   -7.8223 N   0  0  0  0  0  0  0  0  0  0  0  0
   17.3096   69.8280   -8.8648 N   0  0  0  0  0  0  0  0  0  0  0  0
   18.3845   70.7195   -8.9782 C   0  0  0  0  0  0  0  0  0  0  0  0
   17.8658   71.3338   -6.6846 C   0  0  0  0  0  0  0  0  0  0  0  0
   16.8446   70.4798   -6.5915 C   0  0  0  0  0  0  0  0  0  0  0  0
   16.5027   69.6357   -7.7551 C   0  0  0  0  0  0  0  0  0  0  0  0
   17.1058   69.2807   -9.6574 H   0  0  0  0  0  0  0  0  0  0  0  0
   22.5883   71.8273   -1.9900 O   0  0  0  0  0  0  0  0  0  0  0  0
   21.4866   71.9451   -0.8127 P   0  0  2  0  0  0  0  0  0  0  0  0
   20.6722   70.5509   -0.9274 O   0  0  0  0  0  0  0  0  0  0  0  0
   20.6260   73.1725   -0.8953 O   0  0  0  0  0  0  0  0  0  0  0  0
   22.3325   71.8113    0.5543 O   0  0  0  0  0  0  0  0  0  0  0  0
   22.3761   73.1733    2.4914 O   0  0  0  0  0  0  0  0  0  0  0  0
   26.2908   71.8679    2.2934 O   0  0  0  0  0  0  0  0  0  0  0  0
   24.8806   72.6930   -0.1284 O   0  0  0  0  0  0  0  0  0  0  0  0
   24.4664   70.7192    4.2435 O   0  0  0  0  0  0  0  0  0  0  0  0
   24.8767   71.7783    2.1187 C   0  0  2  0  0  0  0  0  0  0  0  0
   24.4029   72.9012    1.1956 C   0  0  2  0  0  0  0  0  0  0  0  0
   24.2210   71.9084    3.4952 C   0  0  1  0  0  0  0  0  0  0  0  0
   22.8758   72.9789    1.1678 C   0  0  1  0  0  0  0  0  0  0  0  0
   22.7127   72.1079    3.3772 C   0  0  1  0  0  0  0  0  0  0  0  0
   26.7289   71.7878    1.4315 H   0  0  0  0  0  0  0  0  0  0  0  0
   25.8489   72.6424   -0.1182 H   0  0  0  0  0  0  0  0  0  0  0  0
   25.4229   70.5805    4.3258 H   0  0  0  0  0  0  0  0  0  0  0  0
   22.8233   73.6184    5.1683 O   0  0  0  0  0  0  0  0  0  0  0  0
   21.1705   72.0489    5.2318 O   0  0  0  0  0  0  0  0  0  0  0  0
   22.1337   72.5582    4.6788 C   0  0  0  0  0  0  0  0  0  0  0  0
  1  4  1  0
  1 24  1  0
  1  2  1  1
  1  3  2  0
 25 28  1  0
 25 24  1  0
 25 26  1  6
 25 27  2  0
  6 11  1  0
  6 12  1  0
 29 36  1  0
 29 37  1  0
  9  7  1  6
  7 13  1  0
 10  8  1  6
  8 14  1  0
  4  5  1  0
 36 28  1  1
 33 30  1  1
 30 38  1  0
 34 31  1  6
 31 39  1  0
 35 32  1  1
 32 40  1  0
 41 43  1  0
 15 19  2  0
 42 43  2  0
 16 22  2  0
 12 17  1  1
 17 19  1  0
 17 20  1  0
 18 19  1  0
 18 22  1  0
 18 23  1  0
  9 10  1  0
  9 11  1  0
 10 12  1  0
 11  5  1  1
 33 34  1  0
 33 35  1  0
 34 36  1  0
 35 37  1  0
 37 43  1  1
 20 21  2  0
 21 22  1  0
M  CHG  3   2  -1  26  -1  41  -1
M  END
>  <COMPND>  (64) 
    udp_gluA.pdb 

>  <AUTHOR>  (64) 
    GENERATED BY OPEN BABEL 3.1.1

>  <MASTER>  (64) 
        0    0    0    0    0    0    0    0   56    0   56    0

>  <minimizedAffinity>  (64) 
-7.43869

>  <CNNscore>  (64) 
0.6817217469

>  <CNNaffinity>  (64) 
4.3489608765

>  <CNN_VS>  (64) 
2.9647812843

>  <CNNaffinity_variance>  (64) 
0.0552246869

$$$$
65
     RDKit          3D

 43 45  0  0  0  0  0  0  0  0999 V2000
   21.8135   71.4228   -1.4432 P   0  0  2  0  0  0  0  0  0  0  0  0
   23.1053   70.7662   -2.1635 O   0  0  0  0  0  0  0  0  0  0  0  0
   21.6731   71.1064    0.0169 O   0  0  0  0  0  0  0  0  0  0  0  0
   20.5747   70.9730   -2.3819 O   0  0  0  0  0  0  0  0  0  0  0  0
   20.3476   71.6808   -3.5868 C   0  0  0  0  0  0  0  0  0  0  0  0
   18.6240   72.7105   -4.9085 O   0  0  0  0  0  0  0  0  0  0  0  0
   16.7146   71.8208   -2.7745 O   0  0  0  0  0  0  0  0  0  0  0  0
   16.3396   69.9533   -4.7259 O   0  0  0  0  0  0  0  0  0  0  0  0
   17.8760   71.1617   -3.2798 C   0  0  1  0  0  0  0  0  0  0  0  0
   17.5981   70.5901   -4.6539 C   0  0  2  0  0  0  0  0  0  0  0  0
   18.9243   72.2236   -3.5825 C   0  0  1  0  0  0  0  0  0  0  0  0
   17.6788   71.8269   -5.5323 C   0  0  2  0  0  0  0  0  0  0  0  0
   16.0305   71.1624   -2.5737 H   0  0  0  0  0  0  0  0  0  0  0  0
   16.3390   69.1722   -4.1498 H   0  0  0  0  0  0  0  0  0  0  0  0
   15.9804   71.0557   -7.6530 O   0  0  0  0  0  0  0  0  0  0  0  0
   19.5120   70.6976  -10.5931 O   0  0  0  0  0  0  0  0  0  0  0  0
   18.1279   71.5263   -6.8622 N   0  0  0  0  0  0  0  0  0  0  0  0
   17.7411   70.8771   -9.1150 N   0  0  0  0  0  0  0  0  0  0  0  0
   17.1928   71.1482   -7.8545 C   0  0  0  0  0  0  0  0  0  0  0  0
   19.4798   71.6086   -7.1729 C   0  0  0  0  0  0  0  0  0  0  0  0
   19.9875   71.3473   -8.3790 C   0  0  0  0  0  0  0  0  0  0  0  0
   19.0781   70.9446   -9.4719 C   0  0  0  0  0  0  0  0  0  0  0  0
   17.1098   70.6099   -9.8217 H   0  0  0  0  0  0  0  0  0  0  0  0
   21.9713   72.9961   -1.7791 O   0  0  0  0  0  0  0  0  0  0  0  0
   22.0848   74.2828   -0.8069 P   0  0  2  0  0  0  0  0  0  0  0  0
   20.7518   74.1760    0.1053 O   0  0  0  0  0  0  0  0  0  0  0  0
   22.2361   75.5897   -1.5302 O   0  0  0  0  0  0  0  0  0  0  0  0
   23.2958   73.9302    0.1990 O   0  0  0  0  0  0  0  0  0  0  0  0
   23.0663   73.0009    2.3653 O   0  0  0  0  0  0  0  0  0  0  0  0
   26.6738   74.9894    2.6814 O   0  0  0  0  0  0  0  0  0  0  0  0
   24.4175   76.2260    1.2976 O   0  0  0  0  0  0  0  0  0  0  0  0
   26.6213   72.0947    2.4189 O   0  0  0  0  0  0  0  0  0  0  0  0
   25.6420   74.2592    2.0179 C   0  0  2  0  0  0  0  0  0  0  0  0
   24.3327   75.0455    2.0876 C   0  0  2  0  0  0  0  0  0  0  0  0
   25.4902   72.9091    2.7222 C   0  0  1  0  0  0  0  0  0  0  0  0
   23.1590   74.1987    1.5932 C   0  0  1  0  0  0  0  0  0  0  0  0
   24.2289   72.1815    2.2660 C   0  0  1  0  0  0  0  0  0  0  0  0
   26.7882   75.8514    2.2510 H   0  0  0  0  0  0  0  0  0  0  0  0
   25.1604   76.7679    1.6057 H   0  0  0  0  0  0  0  0  0  0  0  0
   27.4308   72.5465    2.7042 H   0  0  0  0  0  0  0  0  0  0  0  0
   22.6300   70.6385    3.0171 O   0  0  0  0  0  0  0  0  0  0  0  0
   24.7015   70.5341    3.9642 O   0  0  0  0  0  0  0  0  0  0  0  0
   23.9147   71.0413    3.1789 C   0  0  0  0  0  0  0  0  0  0  0  0
  1  4  1  0
  1 24  1  0
  1  2  1  6
  1  3  2  0
 25 28  1  0
 25 24  1  0
 25 26  1  1
 25 27  2  0
  6 11  1  0
  6 12  1  0
 29 36  1  0
 29 37  1  0
  9  7  1  6
  7 13  1  0
 10  8  1  1
  8 14  1  0
  4  5  1  0
 36 28  1  6
 33 30  1  1
 30 38  1  0
 34 31  1  6
 31 39  1  0
 35 32  1  6
 32 40  1  0
 41 43  1  0
 15 19  2  0
 42 43  2  0
 16 22  2  0
 12 17  1  6
 17 19  1  0
 17 20  1  0
 18 19  1  0
 18 22  1  0
 18 23  1  0
  9 10  1  0
  9 11  1  0
 10 12  1  0
 11  5  1  6
 33 34  1  0
 33 35  1  0
 34 36  1  0
 35 37  1  0
 37 43  1  1
 20 21  2  0
 21 22  1  0
M  CHG  3   2  -1  26  -1  41  -1
M  END
>  <COMPND>  (65) 
    udp_gluA.pdb 

>  <AUTHOR>  (65) 
    GENERATED BY OPEN BABEL 3.1.1

>  <MASTER>  (65) 
        0    0    0    0    0    0    0    0   56    0   56    0

>  <minimizedAffinity>  (65) 
-6.60445

>  <CNNscore>  (65) 
0.6698564887

>  <CNNaffinity>  (65) 
4.4655575752

>  <CNN_VS>  (65) 
2.9912827015

>  <CNNaffinity_variance>  (65) 
0.2169620544

$$$$
66
     RDKit          3D

 43 45  0  0  0  0  0  0  0  0999 V2000
   16.1343   72.7295   -1.2477 P   0  0  2  0  0  0  0  0  0  0  0  0
   17.5341   72.1886   -0.6421 O   0  0  0  0  0  0  0  0  0  0  0  0
   15.7222   74.0916   -0.7716 O   0  0  0  0  0  0  0  0  0  0  0  0
   15.0899   71.5323   -0.9410 O   0  0  0  0  0  0  0  0  0  0  0  0
   15.5063   70.4700   -0.1029 C   0  0  0  0  0  0  0  0  0  0  0  0
   14.9289   68.1503    0.1490 O   0  0  0  0  0  0  0  0  0  0  0  0
   14.3499   68.1670   -2.7931 O   0  0  0  0  0  0  0  0  0  0  0  0
   11.8602   68.3445   -1.6949 O   0  0  0  0  0  0  0  0  0  0  0  0
   14.1351   69.1933   -1.8240 C   0  0  1  0  0  0  0  0  0  0  0  0
   12.9487   68.8480   -0.9491 C   0  0  2  0  0  0  0  0  0  0  0  0
   15.2876   69.1494   -0.8300 C   0  0  1  0  0  0  0  0  0  0  0  0
   13.5415   67.8130   -0.0081 C   0  0  2  0  0  0  0  0  0  0  0  0
   13.6260   68.1754   -3.4393 H   0  0  0  0  0  0  0  0  0  0  0  0
   11.5182   69.0408   -2.2781 H   0  0  0  0  0  0  0  0  0  0  0  0
   10.9824   66.7415    0.5205 O   0  0  0  0  0  0  0  0  0  0  0  0
   11.2198   67.8937    4.9769 O   0  0  0  0  0  0  0  0  0  0  0  0
   12.9104   67.8196    1.2813 N   0  0  0  0  0  0  0  0  0  0  0  0
   11.1026   67.3173    2.7393 N   0  0  0  0  0  0  0  0  0  0  0  0
   11.6225   67.2554    1.4397 C   0  0  0  0  0  0  0  0  0  0  0  0
   13.5661   68.3784    2.3716 C   0  0  0  0  0  0  0  0  0  0  0  0
   13.0578   68.4299    3.6043 C   0  0  0  0  0  0  0  0  0  0  0  0
   11.7164   67.8633    3.8550 C   0  0  0  0  0  0  0  0  0  0  0  0
   10.2064   66.9327    2.8739 H   0  0  0  0  0  0  0  0  0  0  0  0
   16.3607   72.6141   -2.8440 O   0  0  0  0  0  0  0  0  0  0  0  0
   17.2536   71.5882   -3.7180 P   0  0  2  0  0  0  0  0  0  0  0  0
   17.1319   72.1790   -5.2201 O   0  0  0  0  0  0  0  0  0  0  0  0
   16.8461   70.1494   -3.5845 O   0  0  0  0  0  0  0  0  0  0  0  0
   18.7758   71.8961   -3.2814 O   0  0  0  0  0  0  0  0  0  0  0  0
   20.8770   71.3545   -4.2306 O   0  0  0  0  0  0  0  0  0  0  0  0
   21.6610   70.9921   -0.1906 O   0  0  0  0  0  0  0  0  0  0  0  0
   19.1642   69.9709   -1.3119 O   0  0  0  0  0  0  0  0  0  0  0  0
   22.6115   73.3141   -1.6589 O   0  0  0  0  0  0  0  0  0  0  0  0
   21.0256   71.5264   -1.3519 C   0  0  2  0  0  0  0  0  0  0  0  0
   20.2755   70.4127   -2.0830 C   0  0  2  0  0  0  0  0  0  0  0  0
   22.1105   72.1187   -2.2543 C   0  0  1  0  0  0  0  0  0  0  0  0
   19.7763   70.8929   -3.4464 C   0  0  1  0  0  0  0  0  0  0  0  0
   21.5616   72.4558   -3.6376 C   0  0  1  0  0  0  0  0  0  0  0  0
   20.9910   70.6100    0.3979 H   0  0  0  0  0  0  0  0  0  0  0  0
   19.4737   69.6651   -0.4453 H   0  0  0  0  0  0  0  0  0  0  0  0
   22.9637   73.1134   -0.7777 H   0  0  0  0  0  0  0  0  0  0  0  0
   22.2284   72.6396   -5.8789 O   0  0  0  0  0  0  0  0  0  0  0  0
   23.8279   72.9688   -4.2875 O   0  0  0  0  0  0  0  0  0  0  0  0
   22.6739   72.7170   -4.6004 C   0  0  0  0  0  0  0  0  0  0  0  0
  1  4  1  0
  1 24  1  0
  1  2  1  1
  1  3  2  0
 25 28  1  0
 25 24  1  0
 25 26  1  6
 25 27  2  0
  6 11  1  0
  6 12  1  0
 29 36  1  0
 29 37  1  0
  9  7  1  6
  7 13  1  0
 10  8  1  6
  8 14  1  0
  4  5  1  0
 36 28  1  1
 33 30  1  1
 30 38  1  0
 34 31  1  1
 31 39  1  0
 35 32  1  1
 32 40  1  0
 41 43  1  0
 15 19  2  0
 42 43  2  0
 16 22  2  0
 12 17  1  1
 17 19  1  0
 17 20  1  0
 18 19  1  0
 18 22  1  0
 18 23  1  0
  9 10  1  0
  9 11  1  0
 10 12  1  0
 11  5  1  1
 33 34  1  0
 33 35  1  0
 34 36  1  0
 35 37  1  0
 37 43  1  6
 20 21  2  0
 21 22  1  0
M  CHG  3   2  -1  26  -1  41  -1
M  END
>  <COMPND>  (66) 
    udp_gluA.pdb 

>  <AUTHOR>  (66) 
    GENERATED BY OPEN BABEL 3.1.1

>  <MASTER>  (66) 
        0    0    0    0    0    0    0    0   56    0   56    0

>  <minimizedAffinity>  (66) 
-6.51384

>  <CNNscore>  (66) 
0.6251227856

>  <CNNaffinity>  (66) 
4.2328271866

>  <CNN_VS>  (66) 
2.6460366249

>  <CNNaffinity_variance>  (66) 
0.1364161670

$$$$
67
     RDKit          3D

 43 45  0  0  0  0  0  0  0  0999 V2000
   19.5419   73.8232   -1.5419 P   0  0  2  0  0  0  0  0  0  0  0  0
   19.5972   73.4426    0.0300 O   0  0  0  0  0  0  0  0  0  0  0  0
   18.2341   74.3903   -2.0108 O   0  0  0  0  0  0  0  0  0  0  0  0
   20.0288   72.4716   -2.2862 O   0  0  0  0  0  0  0  0  0  0  0  0
   19.4494   72.1412   -3.5351 C   0  0  0  0  0  0  0  0  0  0  0  0
   20.0907   70.7185   -5.3633 O   0  0  0  0  0  0  0  0  0  0  0  0
   22.2414   72.7296   -5.9302 O   0  0  0  0  0  0  0  0  0  0  0  0
   20.3437   73.3467   -7.7886 O   0  0  0  0  0  0  0  0  0  0  0  0
   20.9099   72.9390   -5.4594 C   0  0  1  0  0  0  0  0  0  0  0  0
   19.9183   72.7404   -6.5862 C   0  0  2  0  0  0  0  0  0  0  0  0
   20.5582   71.7935   -4.5200 C   0  0  1  0  0  0  0  0  0  0  0  0
   19.8534   71.2259   -6.6859 C   0  0  2  0  0  0  0  0  0  0  0  0
   22.4887   73.4492   -6.5324 H   0  0  0  0  0  0  0  0  0  0  0  0
   20.3683   74.3101   -7.6739 H   0  0  0  0  0  0  0  0  0  0  0  0
   19.1789   70.8161   -9.3977 O   0  0  0  0  0  0  0  0  0  0  0  0
   14.9144   69.4402   -8.3184 O   0  0  0  0  0  0  0  0  0  0  0  0
   18.5739   70.7611   -7.1417 N   0  0  0  0  0  0  0  0  0  0  0  0
   17.0552   70.1322   -8.8576 N   0  0  0  0  0  0  0  0  0  0  0  0
   18.3377   70.5888   -8.5261 C   0  0  0  0  0  0  0  0  0  0  0  0
   17.5705   70.4797   -6.2225 C   0  0  0  0  0  0  0  0  0  0  0  0
   16.3530   70.0451   -6.5537 C   0  0  0  0  0  0  0  0  0  0  0  0
   16.0243   69.8395   -7.9795 C   0  0  0  0  0  0  0  0  0  0  0  0
   16.8665   70.0066   -9.8157 H   0  0  0  0  0  0  0  0  0  0  0  0
   20.8076   74.8125   -1.7205 O   0  0  0  0  0  0  0  0  0  0  0  0
   22.3962   74.5125   -1.7306 P   0  0  2  0  0  0  0  0  0  0  0  0
   23.0425   75.9266   -1.2798 O   0  0  0  0  0  0  0  0  0  0  0  0
   22.9148   73.9839   -3.0365 O   0  0  0  0  0  0  0  0  0  0  0  0
   22.6361   73.5349   -0.4700 O   0  0  0  0  0  0  0  0  0  0  0  0
   24.7619   72.4941   -0.3865 O   0  0  0  0  0  0  0  0  0  0  0  0
   22.7021   70.4351    2.5437 O   0  0  0  0  0  0  0  0  0  0  0  0
   21.4119   71.0828    0.0039 O   0  0  0  0  0  0  0  0  0  0  0  0
   24.6634   72.4502    3.2810 O   0  0  0  0  0  0  0  0  0  0  0  0
   23.0405   71.5632    1.7369 C   0  0  2  0  0  0  0  0  0  0  0  0
   22.8032   71.2286    0.2640 C   0  0  2  0  0  0  0  0  0  0  0  0
   24.5159   71.8910    1.9772 C   0  0  1  0  0  0  0  0  0  0  0  0
   23.3676   72.3226   -0.6434 C   0  0  1  0  0  0  0  0  0  0  0  0
   25.0372   72.8955    0.9537 C   0  0  1  0  0  0  0  0  0  0  0  0
   21.7687   70.2083    2.4075 H   0  0  0  0  0  0  0  0  0  0  0  0
   21.0472   70.3903    0.5765 H   0  0  0  0  0  0  0  0  0  0  0  0
   24.3350   71.8208    3.9419 H   0  0  0  0  0  0  0  0  0  0  0  0
   27.0336   71.9798    1.7767 O   0  0  0  0  0  0  0  0  0  0  0  0
   27.2101   73.7748    0.3818 O   0  0  0  0  0  0  0  0  0  0  0  0
   26.5297   72.9587    0.9851 C   0  0  0  0  0  0  0  0  0  0  0  0
  1  4  1  0
  1 24  1  0
  1  2  1  1
  1  3  2  0
 25 28  1  0
 25 24  1  0
 25 26  1  1
 25 27  2  0
  6 11  1  0
  6 12  1  0
 29 36  1  0
 29 37  1  0
  9  7  1  6
  7 13  1  0
 10  8  1  6
  8 14  1  0
  4  5  1  0
 36 28  1  1
 33 30  1  1
 30 38  1  0
 34 31  1  1
 31 39  1  0
 35 32  1  1
 32 40  1  0
 41 43  1  0
 15 19  2  0
 42 43  2  0
 16 22  2  0
 12 17  1  1
 17 19  1  0
 17 20  1  0
 18 19  1  0
 18 22  1  0
 18 23  1  0
  9 10  1  0
  9 11  1  0
 10 12  1  0
 11  5  1  1
 33 34  1  0
 33 35  1  0
 34 36  1  0
 35 37  1  0
 37 43  1  6
 20 21  2  0
 21 22  1  0
M  CHG  3   2  -1  26  -1  41  -1
M  END
>  <COMPND>  (67) 
    udp_gluA.pdb 

>  <AUTHOR>  (67) 
    GENERATED BY OPEN BABEL 3.1.1

>  <MASTER>  (67) 
        0    0    0    0    0    0    0    0   56    0   56    0

>  <minimizedAffinity>  (67) 
-7.04121

>  <CNNscore>  (67) 
0.5952924490

>  <CNNaffinity>  (67) 
4.2410078049

>  <CNN_VS>  (67) 
2.5246398449

>  <CNNaffinity_variance>  (67) 
0.0165566485

$$$$
68
     RDKit          3D

 43 45  0  0  0  0  0  0  0  0999 V2000
   17.0588   73.1876   -1.4119 P   0  0  2  0  0  0  0  0  0  0  0  0
   18.2230   72.7763   -0.3658 O   0  0  0  0  0  0  0  0  0  0  0  0
   16.6461   74.6295   -1.3658 O   0  0  0  0  0  0  0  0  0  0  0  0
   15.8843   72.1112   -1.1291 O   0  0  0  0  0  0  0  0  0  0  0  0
   16.1941   70.9559   -0.3715 C   0  0  0  0  0  0  0  0  0  0  0  0
   15.7249   68.5985   -0.3725 O   0  0  0  0  0  0  0  0  0  0  0  0
   14.9777   68.9374   -3.2566 O   0  0  0  0  0  0  0  0  0  0  0  0
   12.5501   68.8674   -2.0164 O   0  0  0  0  0  0  0  0  0  0  0  0
   14.7782   69.8303   -2.1605 C   0  0  1  0  0  0  0  0  0  0  0  0
   13.6587   69.3288   -1.2730 C   0  0  2  0  0  0  0  0  0  0  0  0
   15.9867   69.7223   -1.2407 C   0  0  1  0  0  0  0  0  0  0  0  0
   14.3453   68.2182   -0.4966 C   0  0  2  0  0  0  0  0  0  0  0  0
   14.2180   68.9888   -3.8583 H   0  0  0  0  0  0  0  0  0  0  0  0
   12.1477   69.6114   -2.4923 H   0  0  0  0  0  0  0  0  0  0  0  0
   13.5298   65.7335    0.5700 O   0  0  0  0  0  0  0  0  0  0  0  0
   12.2272   67.6621    4.5484 O   0  0  0  0  0  0  0  0  0  0  0  0
   13.7897   68.0423    0.8154 N   0  0  0  0  0  0  0  0  0  0  0  0
   12.8809   66.6965    2.5501 N   0  0  0  0  0  0  0  0  0  0  0  0
   13.4120   66.7514    1.2547 C   0  0  0  0  0  0  0  0  0  0  0  0
   13.6254   69.1397    1.6518 C   0  0  0  0  0  0  0  0  0  0  0  0
   13.1178   69.0717    2.8841 C   0  0  0  0  0  0  0  0  0  0  0  0
   12.6974   67.7600    3.4190 C   0  0  0  0  0  0  0  0  0  0  0  0
   12.6088   65.8087    2.8773 H   0  0  0  0  0  0  0  0  0  0  0  0
   17.6602   72.7044   -2.8324 O   0  0  0  0  0  0  0  0  0  0  0  0
   19.1659   72.3087   -3.2682 P   0  0  2  0  0  0  0  0  0  0  0  0
   19.3231   70.7933   -2.7212 O   0  0  0  0  0  0  0  0  0  0  0  0
   20.2194   73.2571   -2.7737 O   0  0  0  0  0  0  0  0  0  0  0  0
   19.1011   72.1576   -4.8730 O   0  0  0  0  0  0  0  0  0  0  0  0
   18.4024   70.1484   -5.9143 O   0  0  0  0  0  0  0  0  0  0  0  0
   20.4930   71.9927   -8.9633 O   0  0  0  0  0  0  0  0  0  0  0  0
   21.5250   72.0235   -6.2305 O   0  0  0  0  0  0  0  0  0  0  0  0
   17.5863   71.9601   -8.9988 O   0  0  0  0  0  0  0  0  0  0  0  0
   19.6736   71.9324   -7.7958 C   0  0  2  0  0  0  0  0  0  0  0  0
   20.4336   71.2252   -6.6733 C   0  0  2  0  0  0  0  0  0  0  0  0
   18.4029   71.1563   -8.1494 C   0  0  1  0  0  0  0  0  0  0  0  0
   19.5132   70.9374   -5.4864 C   0  0  1  0  0  0  0  0  0  0  0  0
   17.6031   70.7983   -6.9002 C   0  0  1  0  0  0  0  0  0  0  0  0
   21.3067   72.4815   -8.7626 H   0  0  0  0  0  0  0  0  0  0  0  0
   22.1130   72.2102   -6.9787 H   0  0  0  0  0  0  0  0  0  0  0  0
   18.0838   72.1951   -9.7977 H   0  0  0  0  0  0  0  0  0  0  0  0
   15.9665   69.3337   -6.0769 O   0  0  0  0  0  0  0  0  0  0  0  0
   16.2724   69.3878   -8.3358 O   0  0  0  0  0  0  0  0  0  0  0  0
   16.5596   69.7758   -7.2134 C   0  0  0  0  0  0  0  0  0  0  0  0
  1  4  1  0
  1 24  1  0
  1  2  1  1
  1  3  2  0
 25 28  1  0
 25 24  1  0
 25 26  1  1
 25 27  2  0
  6 11  1  0
  6 12  1  0
 29 36  1  0
 29 37  1  0
  9  7  1  6
  7 13  1  0
 10  8  1  6
  8 14  1  0
  4  5  1  0
 36 28  1  6
 33 30  1  6
 30 38  1  0
 34 31  1  1
 31 39  1  0
 35 32  1  6
 32 40  1  0
 41 43  1  0
 15 19  2  0
 42 43  2  0
 16 22  2  0
 12 17  1  1
 17 19  1  0
 17 20  1  0
 18 19  1  0
 18 22  1  0
 18 23  1  0
  9 10  1  0
  9 11  1  0
 10 12  1  0
 11  5  1  1
 33 34  1  0
 33 35  1  0
 34 36  1  0
 35 37  1  0
 37 43  1  6
 20 21  2  0
 21 22  1  0
M  CHG  3   2  -1  26  -1  41  -1
M  END
>  <COMPND>  (68) 
    udp_gluA.pdb 

>  <AUTHOR>  (68) 
    GENERATED BY OPEN BABEL 3.1.1

>  <MASTER>  (68) 
        0    0    0    0    0    0    0    0   56    0   56    0

>  <minimizedAffinity>  (68) 
-6.77173

>  <CNNscore>  (68) 
0.5713210702

>  <CNNaffinity>  (68) 
4.2570886612

>  <CNN_VS>  (68) 
2.4321644306

>  <CNNaffinity_variance>  (68) 
0.1237462536

$$$$
69
     RDKit          3D

 43 45  0  0  0  0  0  0  0  0999 V2000
   21.7341   72.6802   -3.9302 P   0  0  2  0  0  0  0  0  0  0  0  0
   23.0615   73.0859   -4.7622 O   0  0  0  0  0  0  0  0  0  0  0  0
   21.1286   71.3600   -4.3077 O   0  0  0  0  0  0  0  0  0  0  0  0
   20.7672   73.9677   -4.0892 O   0  0  0  0  0  0  0  0  0  0  0  0
   19.5651   73.8240   -4.8232 C   0  0  0  0  0  0  0  0  0  0  0  0
   19.6792   72.7517   -6.9714 O   0  0  0  0  0  0  0  0  0  0  0  0
   19.5614   75.5081   -8.1461 O   0  0  0  0  0  0  0  0  0  0  0  0
   16.9999   74.6224   -8.4465 O   0  0  0  0  0  0  0  0  0  0  0  0
   18.9086   74.9915   -6.9861 C   0  0  1  0  0  0  0  0  0  0  0  0
   17.7652   74.0844   -7.3885 C   0  0  2  0  0  0  0  0  0  0  0  0
   19.8618   74.0194   -6.3044 C   0  0  1  0  0  0  0  0  0  0  0  0
   18.4957   72.8122   -7.7832 C   0  0  2  0  0  0  0  0  0  0  0  0
   18.9717   76.1319   -8.5986 H   0  0  0  0  0  0  0  0  0  0  0  0
   16.5546   75.4304   -8.1451 H   0  0  0  0  0  0  0  0  0  0  0  0
   18.6414   70.4635   -9.3448 O   0  0  0  0  0  0  0  0  0  0  0  0
   15.4308   68.3530   -6.7989 O   0  0  0  0  0  0  0  0  0  0  0  0
   17.7092   71.6340   -7.5506 N   0  0  0  0  0  0  0  0  0  0  0  0
   17.0415   69.4149   -8.0759 N   0  0  0  0  0  0  0  0  0  0  0  0
   17.8587   70.5077   -8.3939 C   0  0  0  0  0  0  0  0  0  0  0  0
   16.8039   71.6013   -6.4969 C   0  0  0  0  0  0  0  0  0  0  0  0
   16.0318   70.5524   -6.2062 C   0  0  0  0  0  0  0  0  0  0  0  0
   16.1260   69.3355   -7.0391 C   0  0  0  0  0  0  0  0  0  0  0  0
   17.1263   68.6198   -8.6502 H   0  0  0  0  0  0  0  0  0  0  0  0
   22.2241   72.7813   -2.3932 O   0  0  0  0  0  0  0  0  0  0  0  0
   22.1972   74.0157   -1.3496 P   0  0  2  0  0  0  0  0  0  0  0  0
   20.6811   73.9883   -0.7832 O   0  0  0  0  0  0  0  0  0  0  0  0
   22.6126   75.3315   -1.9413 O   0  0  0  0  0  0  0  0  0  0  0  0
   23.1041   73.5232   -0.1096 O   0  0  0  0  0  0  0  0  0  0  0  0
   25.1548   72.3833    0.2132 O   0  0  0  0  0  0  0  0  0  0  0  0
   22.7020   70.4915    2.9469 O   0  0  0  0  0  0  0  0  0  0  0  0
   21.7158   71.1441    0.2756 O   0  0  0  0  0  0  0  0  0  0  0  0
   24.6751   72.4257    3.8506 O   0  0  0  0  0  0  0  0  0  0  0  0
   23.1783   71.5838    2.1607 C   0  0  2  0  0  0  0  0  0  0  0  0
   23.0783   71.2284    0.6770 C   0  0  2  0  0  0  0  0  0  0  0  0
   24.6355   71.8454    2.5482 C   0  0  1  0  0  0  0  0  0  0  0  0
   23.7877   72.2736   -0.1849 C   0  0  1  0  0  0  0  0  0  0  0  0
   25.3098   72.8007    1.5678 C   0  0  1  0  0  0  0  0  0  0  0  0
   21.7775   70.3070    2.7178 H   0  0  0  0  0  0  0  0  0  0  0  0
   21.2594   70.4829    0.8186 H   0  0  0  0  0  0  0  0  0  0  0  0
   24.2489   71.8276    4.4842 H   0  0  0  0  0  0  0  0  0  0  0  0
   27.4107   73.3714    0.6949 O   0  0  0  0  0  0  0  0  0  0  0  0
   27.3749   72.3321    2.7241 O   0  0  0  0  0  0  0  0  0  0  0  0
   26.7922   72.7925    1.7538 C   0  0  0  0  0  0  0  0  0  0  0  0
  1  4  1  0
  1 24  1  0
  1  2  1  6
  1  3  2  0
 25 28  1  0
 25 24  1  0
 25 26  1  1
 25 27  2  0
  6 11  1  0
  6 12  1  0
 29 36  1  0
 29 37  1  0
  9  7  1  6
  7 13  1  0
 10  8  1  6
  8 14  1  0
  4  5  1  0
 36 28  1  1
 33 30  1  1
 30 38  1  0
 34 31  1  6
 31 39  1  0
 35 32  1  1
 32 40  1  0
 41 43  1  0
 15 19  2  0
 42 43  2  0
 16 22  2  0
 12 17  1  1
 17 19  1  0
 17 20  1  0
 18 19  1  0
 18 22  1  0
 18 23  1  0
  9 10  1  0
  9 11  1  0
 10 12  1  0
 11  5  1  1
 33 34  1  0
 33 35  1  0
 34 36  1  0
 35 37  1  0
 37 43  1  1
 20 21  2  0
 21 22  1  0
M  CHG  3   2  -1  26  -1  41  -1
M  END
>  <COMPND>  (69) 
    udp_gluA.pdb 

>  <AUTHOR>  (69) 
    GENERATED BY OPEN BABEL 3.1.1

>  <MASTER>  (69) 
        0    0    0    0    0    0    0    0   56    0   56    0

>  <minimizedAffinity>  (69) 
-6.94489

>  <CNNscore>  (69) 
0.5153814554

>  <CNNaffinity>  (69) 
4.2063531876

>  <CNN_VS>  (69) 
2.1678764820

>  <CNNaffinity_variance>  (69) 
0.0456867665

$$$$
70
     RDKit          3D

 43 45  0  0  0  0  0  0  0  0999 V2000
   22.3738   73.4255   -3.9485 P   0  0  2  0  0  0  0  0  0  0  0  0
   22.3562   74.9218   -3.3324 O   0  0  0  0  0  0  0  0  0  0  0  0
   23.7261   72.9293   -4.3691 O   0  0  0  0  0  0  0  0  0  0  0  0
   21.2491   73.4706   -5.1108 O   0  0  0  0  0  0  0  0  0  0  0  0
   20.1279   72.6131   -5.0004 C   0  0  0  0  0  0  0  0  0  0  0  0
   19.1023   70.7692   -6.1518 O   0  0  0  0  0  0  0  0  0  0  0  0
   21.7198   70.4458   -7.5786 O   0  0  0  0  0  0  0  0  0  0  0  0
   20.1904   71.7436   -9.4261 O   0  0  0  0  0  0  0  0  0  0  0  0
   21.0614   71.6409   -7.1582 C   0  0  1  0  0  0  0  0  0  0  0  0
   19.8822   71.9352   -8.0612 C   0  0  2  0  0  0  0  0  0  0  0  0
   20.3800   71.3582   -5.8263 C   0  0  1  0  0  0  0  0  0  0  0  0
   18.8424   70.9512   -7.5528 C   0  0  2  0  0  0  0  0  0  0  0  0
   22.1626   70.6018   -8.4279 H   0  0  0  0  0  0  0  0  0  0  0  0
   20.8561   72.3938   -9.7016 H   0  0  0  0  0  0  0  0  0  0  0  0
   16.6039   69.3062   -8.0624 O   0  0  0  0  0  0  0  0  0  0  0  0
   13.7449   72.9196   -8.1760 O   0  0  0  0  0  0  0  0  0  0  0  0
   17.5015   71.4359   -7.7198 N   0  0  0  0  0  0  0  0  0  0  0  0
   15.1823   71.1075   -8.1195 N   0  0  0  0  0  0  0  0  0  0  0  0
   16.4482   70.5254   -7.9726 C   0  0  0  0  0  0  0  0  0  0  0  0
   17.2402   72.7978   -7.6313 C   0  0  0  0  0  0  0  0  0  0  0  0
   16.0282   73.3377   -7.7734 C   0  0  0  0  0  0  0  0  0  0  0  0
   14.8731   72.4558   -8.0406 C   0  0  0  0  0  0  0  0  0  0  0  0
   14.4334   70.4938   -8.2982 H   0  0  0  0  0  0  0  0  0  0  0  0
   21.6648   72.5480   -2.7907 O   0  0  0  0  0  0  0  0  0  0  0  0
   22.2672   71.4390   -1.7804 P   0  0  2  0  0  0  0  0  0  0  0  0
   22.9661   70.3718   -2.7768 O   0  0  0  0  0  0  0  0  0  0  0  0
   21.2545   70.8420   -0.8466 O   0  0  0  0  0  0  0  0  0  0  0  0
   23.4991   72.1791   -1.0476 O   0  0  0  0  0  0  0  0  0  0  0  0
   23.1458   72.3957    1.2843 O   0  0  0  0  0  0  0  0  0  0  0  0
   26.6291   74.5538    0.7577 O   0  0  0  0  0  0  0  0  0  0  0  0
   24.4333   74.7968   -1.1537 O   0  0  0  0  0  0  0  0  0  0  0  0
   26.7224   71.8968    1.9335 O   0  0  0  0  0  0  0  0  0  0  0  0
   25.6835   73.5193    0.4867 C   0  0  2  0  0  0  0  0  0  0  0  0
   24.3398   74.1411    0.1056 C   0  0  2  0  0  0  0  0  0  0  0  0
   25.5373   72.6692    1.7507 C   0  0  1  0  0  0  0  0  0  0  0  0
   23.2451   73.0757    0.0324 C   0  0  1  0  0  0  0  0  0  0  0  0
   24.3471   71.7196    1.6489 C   0  0  1  0  0  0  0  0  0  0  0  0
   26.7384   75.1072   -0.0317 H   0  0  0  0  0  0  0  0  0  0  0  0
   25.1263   75.4740   -1.1145 H   0  0  0  0  0  0  0  0  0  0  0  0
   27.4875   72.4893    1.9997 H   0  0  0  0  0  0  0  0  0  0  0  0
   22.8321   70.4780    2.9392 O   0  0  0  0  0  0  0  0  0  0  0  0
   24.7066   71.2447    3.9870 O   0  0  0  0  0  0  0  0  0  0  0  0
   24.0141   71.1412    2.9856 C   0  0  0  0  0  0  0  0  0  0  0  0
  1  4  1  0
  1 24  1  0
  1  2  1  1
  1  3  2  0
 25 28  1  0
 25 24  1  0
 25 26  1  6
 25 27  2  0
  6 11  1  0
  6 12  1  0
 29 36  1  0
 29 37  1  0
  9  7  1  6
  7 13  1  0
 10  8  1  6
  8 14  1  0
  4  5  1  0
 36 28  1  6
 33 30  1  1
 30 38  1  0
 34 31  1  6
 31 39  1  0
 35 32  1  6
 32 40  1  0
 41 43  1  0
 15 19  2  0
 42 43  2  0
 16 22  2  0
 12 17  1  1
 17 19  1  0
 17 20  1  0
 18 19  1  0
 18 22  1  0
 18 23  1  0
  9 10  1  0
  9 11  1  0
 10 12  1  0
 11  5  1  6
 33 34  1  0
 33 35  1  0
 34 36  1  0
 35 37  1  0
 37 43  1  1
 20 21  2  0
 21 22  1  0
M  CHG  3   2  -1  26  -1  41  -1
M  END
>  <COMPND>  (70) 
    udp_gluA.pdb 

>  <AUTHOR>  (70) 
    GENERATED BY OPEN BABEL 3.1.1

>  <MASTER>  (70) 
        0    0    0    0    0    0    0    0   56    0   56    0

>  <minimizedAffinity>  (70) 
-7.58843

>  <CNNscore>  (70) 
0.5019530654

>  <CNNaffinity>  (70) 
4.3045864105

>  <CNN_VS>  (70) 
2.1607003212

>  <CNNaffinity_variance>  (70) 
0.0445380211

$$$$
71
     RDKit          3D

 43 45  0  0  0  0  0  0  0  0999 V2000
   23.9242   72.1586   -3.0442 P   0  0  2  0  0  0  0  0  0  0  0  0
   23.9813   73.4390   -4.0321 O   0  0  0  0  0  0  0  0  0  0  0  0
   25.1952   71.3651   -2.9614 O   0  0  0  0  0  0  0  0  0  0  0  0
   22.6179   71.3429   -3.5403 O   0  0  0  0  0  0  0  0  0  0  0  0
   21.5851   72.0551   -4.1967 C   0  0  0  0  0  0  0  0  0  0  0  0
   20.1836   70.7323   -5.6333 O   0  0  0  0  0  0  0  0  0  0  0  0
   21.6443   72.0064   -7.9212 O   0  0  0  0  0  0  0  0  0  0  0  0
   19.3099   73.4140   -7.8467 O   0  0  0  0  0  0  0  0  0  0  0  0
   21.2617   72.5709   -6.6668 C   0  0  1  0  0  0  0  0  0  0  0  0
   19.7711   72.8352   -6.6439 C   0  0  2  0  0  0  0  0  0  0  0  0
   21.4106   71.4931   -5.6017 C   0  0  1  0  0  0  0  0  0  0  0  0
   19.2076   71.4437   -6.4108 C   0  0  2  0  0  0  0  0  0  0  0  0
   21.5574   72.6765   -8.6177 H   0  0  0  0  0  0  0  0  0  0  0  0
   19.6966   74.2983   -7.9490 H   0  0  0  0  0  0  0  0  0  0  0  0
   17.1417   69.5444   -6.7287 O   0  0  0  0  0  0  0  0  0  0  0  0
   14.4856   71.6390   -3.5980 O   0  0  0  0  0  0  0  0  0  0  0  0
   17.9656   71.4689   -5.6914 N   0  0  0  0  0  0  0  0  0  0  0  0
   15.8204   70.5900   -5.1699 N   0  0  0  0  0  0  0  0  0  0  0  0
   16.9938   70.4674   -5.9255 C   0  0  0  0  0  0  0  0  0  0  0  0
   17.7207   72.4756   -4.7654 C   0  0  0  0  0  0  0  0  0  0  0  0
   16.5973   72.5792   -4.0526 C   0  0  0  0  0  0  0  0  0  0  0  0
   15.5308   71.5734   -4.2379 C   0  0  0  0  0  0  0  0  0  0  0  0
   15.1282   69.9055   -5.3171 H   0  0  0  0  0  0  0  0  0  0  0  0
   23.4400   72.8027   -1.6429 O   0  0  0  0  0  0  0  0  0  0  0  0
   23.8059   74.2117   -0.9398 P   0  0  2  0  0  0  0  0  0  0  0  0
   23.0348   75.2962   -1.8614 O   0  0  0  0  0  0  0  0  0  0  0  0
   25.2788   74.4619   -0.7916 O   0  0  0  0  0  0  0  0  0  0  0  0
   22.9856   74.2011    0.4493 O   0  0  0  0  0  0  0  0  0  0  0  0
   22.4722   72.0937    1.4003 O   0  0  0  0  0  0  0  0  0  0  0  0
   20.0026   74.6113    3.5523 O   0  0  0  0  0  0  0  0  0  0  0  0
   20.3173   74.9551    0.6683 O   0  0  0  0  0  0  0  0  0  0  0  0
   22.4247   73.5562    4.7650 O   0  0  0  0  0  0  0  0  0  0  0  0
   21.1745   74.2449    2.8240 C   0  0  2  0  0  0  0  0  0  0  0  0
   20.7862   73.8312    1.4043 C   0  0  2  0  0  0  0  0  0  0  0  0
   21.8400   73.0770    3.5555 C   0  0  1  0  0  0  0  0  0  0  0  0
   21.9775   73.2160    0.6686 C   0  0  1  0  0  0  0  0  0  0  0  0
   22.9336   72.4375    2.7049 C   0  0  1  0  0  0  0  0  0  0  0  0
   19.5627   75.3520    3.1059 H   0  0  0  0  0  0  0  0  0  0  0  0
   19.5615   75.3506    1.1295 H   0  0  0  0  0  0  0  0  0  0  0  0
   21.7392   73.9659    5.3155 H   0  0  0  0  0  0  0  0  0  0  0  0
   22.9736   70.1060    2.4515 O   0  0  0  0  0  0  0  0  0  0  0  0
   23.9364   70.9646    4.3316 O   0  0  0  0  0  0  0  0  0  0  0  0
   23.3448   71.1185    3.2737 C   0  0  0  0  0  0  0  0  0  0  0  0
  1  4  1  0
  1 24  1  0
  1  2  1  6
  1  3  2  0
 25 28  1  0
 25 24  1  0
 25 26  1  6
 25 27  2  0
  6 11  1  0
  6 12  1  0
 29 36  1  0
 29 37  1  0
  9  7  1  6
  7 13  1  0
 10  8  1  6
  8 14  1  0
  4  5  1  0
 36 28  1  1
 33 30  1  1
 30 38  1  0
 34 31  1  6
 31 39  1  0
 35 32  1  1
 32 40  1  0
 41 43  1  0
 15 19  2  0
 42 43  2  0
 16 22  2  0
 12 17  1  1
 17 19  1  0
 17 20  1  0
 18 19  1  0
 18 22  1  0
 18 23  1  0
  9 10  1  0
  9 11  1  0
 10 12  1  0
 11  5  1  1
 33 34  1  0
 33 35  1  0
 34 36  1  0
 35 37  1  0
 37 43  1  1
 20 21  2  0
 21 22  1  0
M  CHG  3   2  -1  26  -1  41  -1
M  END
>  <COMPND>  (71) 
    udp_gluA.pdb 

>  <AUTHOR>  (71) 
    GENERATED BY OPEN BABEL 3.1.1

>  <MASTER>  (71) 
        0    0    0    0    0    0    0    0   56    0   56    0

>  <minimizedAffinity>  (71) 
-6.56414

>  <CNNscore>  (71) 
0.4588709474

>  <CNNaffinity>  (71) 
4.1060423851

>  <CNN_VS>  (71) 
1.8841435909

>  <CNNaffinity_variance>  (71) 
0.0546356626

$$$$
72
     RDKit          3D

 43 45  0  0  0  0  0  0  0  0999 V2000
   22.6959   71.5967    1.7020 P   0  0  2  0  0  0  0  0  0  0  0  0
   22.7725   70.3196    2.6931 O   0  0  0  0  0  0  0  0  0  0  0  0
   22.0699   72.8238    2.2971 O   0  0  0  0  0  0  0  0  0  0  0  0
   21.9778   71.0152    0.3738 O   0  0  0  0  0  0  0  0  0  0  0  0
   21.9355   71.8296   -0.7835 C   0  0  0  0  0  0  0  0  0  0  0  0
   22.1110   70.4140   -2.7181 O   0  0  0  0  0  0  0  0  0  0  0  0
   24.7305   71.7746   -3.2459 O   0  0  0  0  0  0  0  0  0  0  0  0
   23.0471   73.0265   -4.9880 O   0  0  0  0  0  0  0  0  0  0  0  0
   23.5224   72.3163   -2.7116 C   0  0  1  0  0  0  0  0  0  0  0  0
   22.4923   72.4825   -3.8087 C   0  0  2  0  0  0  0  0  0  0  0  0
   22.8804   71.2536   -1.8302 C   0  0  1  0  0  0  0  0  0  0  0  0
   21.9998   71.0578   -3.9974 C   0  0  2  0  0  0  0  0  0  0  0  0
   25.1588   72.4356   -3.8127 H   0  0  0  0  0  0  0  0  0  0  0  0
   23.3454   73.9340   -4.8162 H   0  0  0  0  0  0  0  0  0  0  0  0
   21.1829   71.0121   -6.7005 O   0  0  0  0  0  0  0  0  0  0  0  0
   16.7251   70.8494   -5.5406 O   0  0  0  0  0  0  0  0  0  0  0  0
   20.6321   71.0035   -4.4301 N   0  0  0  0  0  0  0  0  0  0  0  0
   18.9634   70.9321   -6.1203 N   0  0  0  0  0  0  0  0  0  0  0  0
   20.3292   70.9847   -5.8121 C   0  0  0  0  0  0  0  0  0  0  0  0
   19.6084   70.9679   -3.4910 C   0  0  0  0  0  0  0  0  0  0  0  0
   18.3112   70.9178   -3.8000 C   0  0  0  0  0  0  0  0  0  0  0  0
   17.9094   70.8959   -5.2218 C   0  0  0  0  0  0  0  0  0  0  0  0
   18.7278   70.9202   -7.0761 H   0  0  0  0  0  0  0  0  0  0  0  0
   24.2312   71.7843    1.2325 O   0  0  0  0  0  0  0  0  0  0  0  0
   25.1476   73.1100    1.1044 P   0  0  2  0  0  0  0  0  0  0  0  0
   24.1509   74.1833    0.4153 O   0  0  0  0  0  0  0  0  0  0  0  0
   26.4363   72.8986    0.3639 O   0  0  0  0  0  0  0  0  0  0  0  0
   25.3244   73.6333    2.6201 O   0  0  0  0  0  0  0  0  0  0  0  0
   26.8950   72.3899    3.8835 O   0  0  0  0  0  0  0  0  0  0  0  0
   25.1949   74.7908    6.7841 O   0  0  0  0  0  0  0  0  0  0  0  0
   23.5291   73.5301    4.7420 O   0  0  0  0  0  0  0  0  0  0  0  0
   27.8498   75.3922    5.7641 O   0  0  0  0  0  0  0  0  0  0  0  0
   25.6498   74.4538    5.4736 C   0  0  2  0  0  0  0  0  0  0  0  0
   24.8985   73.2201    4.9725 C   0  0  2  0  0  0  0  0  0  0  0  0
   27.1509   74.1668    5.5534 C   0  0  1  0  0  0  0  0  0  0  0  0
   25.5150   72.6933    3.6759 C   0  0  1  0  0  0  0  0  0  0  0  0
   27.6649   73.5271    4.2668 C   0  0  1  0  0  0  0  0  0  0  0  0
   24.2431   74.9773    6.7582 H   0  0  0  0  0  0  0  0  0  0  0  0
   23.1316   73.8653    5.5606 H   0  0  0  0  0  0  0  0  0  0  0  0
   27.5319   75.8096    6.5799 H   0  0  0  0  0  0  0  0  0  0  0  0
   29.9684   73.9346    4.4387 O   0  0  0  0  0  0  0  0  0  0  0  0
   29.2772   71.7709    4.6374 O   0  0  0  0  0  0  0  0  0  0  0  0
   29.0306   72.9555    4.4676 C   0  0  0  0  0  0  0  0  0  0  0  0
  1  4  1  0
  1 24  1  0
  1  2  1  1
  1  3  2  0
 25 28  1  0
 25 24  1  0
 25 26  1  6
 25 27  2  0
  6 11  1  0
  6 12  1  0
 29 36  1  0
 29 37  1  0
  9  7  1  6
  7 13  1  0
 10  8  1  6
  8 14  1  0
  4  5  1  0
 36 28  1  6
 33 30  1  1
 30 38  1  0
 34 31  1  6
 31 39  1  0
 35 32  1  6
 32 40  1  0
 41 43  1  0
 15 19  2  0
 42 43  2  0
 16 22  2  0
 12 17  1  1
 17 19  1  0
 17 20  1  0
 18 19  1  0
 18 22  1  0
 18 23  1  0
  9 10  1  0
  9 11  1  0
 10 12  1  0
 11  5  1  1
 33 34  1  0
 33 35  1  0
 34 36  1  0
 35 37  1  0
 37 43  1  1
 20 21  2  0
 21 22  1  0
M  CHG  3   2  -1  26  -1  41  -1
M  END
>  <COMPND>  (72) 
    udp_gluA.pdb 

>  <AUTHOR>  (72) 
    GENERATED BY OPEN BABEL 3.1.1

>  <MASTER>  (72) 
        0    0    0    0    0    0    0    0   56    0   56    0

>  <minimizedAffinity>  (72) 
-6.73016

>  <CNNscore>  (72) 
0.4544458091

>  <CNNaffinity>  (72) 
4.0543832779

>  <CNN_VS>  (72) 
1.8424974680

>  <CNNaffinity_variance>  (72) 
0.1418122798

$$$$
73
     RDKit          3D

 43 45  0  0  0  0  0  0  0  0999 V2000
   21.6358   74.1631   -3.8164 P   0  0  2  0  0  0  0  0  0  0  0  0
   20.1175   74.6975   -3.6492 O   0  0  0  0  0  0  0  0  0  0  0  0
   22.5681   75.1110   -4.5122 O   0  0  0  0  0  0  0  0  0  0  0  0
   21.4626   72.7118   -4.5104 O   0  0  0  0  0  0  0  0  0  0  0  0
   20.2115   72.3823   -5.0855 C   0  0  0  0  0  0  0  0  0  0  0  0
   19.0555   70.5878   -6.1905 O   0  0  0  0  0  0  0  0  0  0  0  0
   21.5757   70.1813   -7.7637 O   0  0  0  0  0  0  0  0  0  0  0  0
   19.9953   71.5509   -9.5136 O   0  0  0  0  0  0  0  0  0  0  0  0
   20.9867   71.3960   -7.2988 C   0  0  1  0  0  0  0  0  0  0  0  0
   19.7709   71.7414   -8.1324 C   0  0  2  0  0  0  0  0  0  0  0  0
   20.3704   71.1265   -5.9329 C   0  0  1  0  0  0  0  0  0  0  0  0
   18.7251   70.7918   -7.5734 C   0  0  2  0  0  0  0  0  0  0  0  0
   21.9761   70.3286   -8.6353 H   0  0  0  0  0  0  0  0  0  0  0  0
   20.6684   72.1787   -9.8214 H   0  0  0  0  0  0  0  0  0  0  0  0
   16.4649   69.3181   -8.4078 O   0  0  0  0  0  0  0  0  0  0  0  0
   13.6744   72.9475   -7.8744 O   0  0  0  0  0  0  0  0  0  0  0  0
   17.3959   71.3269   -7.6619 N   0  0  0  0  0  0  0  0  0  0  0  0
   15.0774   71.1274   -8.1423 N   0  0  0  0  0  0  0  0  0  0  0  0
   16.3301   70.5020   -8.0928 C   0  0  0  0  0  0  0  0  0  0  0  0
   17.1582   72.6533   -7.3226 C   0  0  0  0  0  0  0  0  0  0  0  0
   15.9586   73.2354   -7.3747 C   0  0  0  0  0  0  0  0  0  0  0  0
   14.7917   72.4432   -7.8156 C   0  0  0  0  0  0  0  0  0  0  0  0
   14.3202   70.5737   -8.4414 H   0  0  0  0  0  0  0  0  0  0  0  0
   22.0593   73.7931   -2.3010 O   0  0  0  0  0  0  0  0  0  0  0  0
   22.6575   74.7106   -1.1119 P   0  0  2  0  0  0  0  0  0  0  0  0
   21.3503   75.4775   -0.5432 O   0  0  0  0  0  0  0  0  0  0  0  0
   23.7721   75.6215   -1.5384 O   0  0  0  0  0  0  0  0  0  0  0  0
   23.0547   73.6656    0.0511 O   0  0  0  0  0  0  0  0  0  0  0  0
   25.0349   72.3713   -0.0599 O   0  0  0  0  0  0  0  0  0  0  0  0
   22.7758   70.2208    2.6493 O   0  0  0  0  0  0  0  0  0  0  0  0
   21.5409   71.3408    0.2504 O   0  0  0  0  0  0  0  0  0  0  0  0
   24.9833   71.8706    3.5745 O   0  0  0  0  0  0  0  0  0  0  0  0
   23.2409   71.3931    1.9805 C   0  0  2  0  0  0  0  0  0  0  0  0
   22.9430   71.2813    0.4851 C   0  0  2  0  0  0  0  0  0  0  0  0
   24.7489   71.5051    2.2159 C   0  0  1  0  0  0  0  0  0  0  0  0
   23.6266   72.4054   -0.2945 C   0  0  1  0  0  0  0  0  0  0  0  0
   25.3771   72.5612    1.3112 C   0  0  1  0  0  0  0  0  0  0  0  0
   21.8196   70.1289    2.5137 H   0  0  0  0  0  0  0  0  0  0  0  0
   21.1007   70.6304    0.7423 H   0  0  0  0  0  0  0  0  0  0  0  0
   24.5883   71.2065    4.1608 H   0  0  0  0  0  0  0  0  0  0  0  0
   27.3396   72.4137    0.0353 O   0  0  0  0  0  0  0  0  0  0  0  0
   27.5679   72.3687    2.3035 O   0  0  0  0  0  0  0  0  0  0  0  0
   26.8660   72.4374    1.3057 C   0  0  0  0  0  0  0  0  0  0  0  0
  1  4  1  0
  1 24  1  0
  1  2  1  1
  1  3  2  0
 25 28  1  0
 25 24  1  0
 25 26  1  1
 25 27  2  0
  6 11  1  0
  6 12  1  0
 29 36  1  0
 29 37  1  0
  9  7  1  6
  7 13  1  0
 10  8  1  6
  8 14  1  0
  4  5  1  0
 36 28  1  1
 33 30  1  1
 30 38  1  0
 34 31  1  1
 31 39  1  0
 35 32  1  1
 32 40  1  0
 41 43  1  0
 15 19  2  0
 42 43  2  0
 16 22  2  0
 12 17  1  1
 17 19  1  0
 17 20  1  0
 18 19  1  0
 18 22  1  0
 18 23  1  0
  9 10  1  0
  9 11  1  0
 10 12  1  0
 11  5  1  1
 33 34  1  0
 33 35  1  0
 34 36  1  0
 35 37  1  0
 37 43  1  6
 20 21  2  0
 21 22  1  0
M  CHG  3   2  -1  26  -1  41  -1
M  END
>  <COMPND>  (73) 
    udp_gluA.pdb 

>  <AUTHOR>  (73) 
    GENERATED BY OPEN BABEL 3.1.1

>  <MASTER>  (73) 
        0    0    0    0    0    0    0    0   56    0   56    0

>  <minimizedAffinity>  (73) 
-7.09964

>  <CNNscore>  (73) 
0.4341270328

>  <CNNaffinity>  (73) 
4.2027053833

>  <CNN_VS>  (73) 
1.8245080709

>  <CNNaffinity_variance>  (73) 
0.0138549525

$$$$
74
     RDKit          3D

 43 45  0  0  0  0  0  0  0  0999 V2000
   18.5592   73.2567   -1.9763 P   0  0  2  0  0  0  0  0  0  0  0  0
   18.9183   74.8126   -1.7134 O   0  0  0  0  0  0  0  0  0  0  0  0
   17.9677   72.5356   -0.8007 O   0  0  0  0  0  0  0  0  0  0  0  0
   19.9327   72.6349   -2.5636 O   0  0  0  0  0  0  0  0  0  0  0  0
   19.8790   71.3875   -3.2311 C   0  0  0  0  0  0  0  0  0  0  0  0
   20.5078   70.4803   -5.3664 O   0  0  0  0  0  0  0  0  0  0  0  0
   22.5153   72.7031   -5.5108 O   0  0  0  0  0  0  0  0  0  0  0  0
   20.4988   73.6170   -7.1029 O   0  0  0  0  0  0  0  0  0  0  0  0
   21.1987   72.7091   -4.9586 C   0  0  1  0  0  0  0  0  0  0  0  0
   20.1660   72.7181   -6.0657 C   0  0  2  0  0  0  0  0  0  0  0  0
   20.9561   71.3542   -4.3077 C   0  0  1  0  0  0  0  0  0  0  0  0
   20.1792   71.2689   -6.5212 C   0  0  2  0  0  0  0  0  0  0  0  0
   22.6933   73.5588   -5.9324 H   0  0  0  0  0  0  0  0  0  0  0  0
   20.4762   74.5257   -6.7629 H   0  0  0  0  0  0  0  0  0  0  0  0
   19.5600   71.0270   -9.2661 O   0  0  0  0  0  0  0  0  0  0  0  0
   15.2635   69.6257   -8.3606 O   0  0  0  0  0  0  0  0  0  0  0  0
   18.9064   70.8429   -7.0306 N   0  0  0  0  0  0  0  0  0  0  0  0
   17.4204   70.3303   -8.8125 N   0  0  0  0  0  0  0  0  0  0  0  0
   18.6987   70.7554   -8.4275 C   0  0  0  0  0  0  0  0  0  0  0  0
   17.8815   70.5159   -6.1511 C   0  0  0  0  0  0  0  0  0  0  0  0
   16.6683   70.1121   -6.5331 C   0  0  0  0  0  0  0  0  0  0  0  0
   16.3688   69.9946   -7.9753 C   0  0  0  0  0  0  0  0  0  0  0  0
   17.2513   70.2635   -9.7801 H   0  0  0  0  0  0  0  0  0  0  0  0
   17.6031   73.3199   -3.2781 O   0  0  0  0  0  0  0  0  0  0  0  0
   16.0397   72.9536   -3.4656 P   0  0  2  0  0  0  0  0  0  0  0  0
   15.2809   74.2281   -2.8172 O   0  0  0  0  0  0  0  0  0  0  0  0
   15.6420   71.6314   -2.8760 O   0  0  0  0  0  0  0  0  0  0  0  0
   15.7756   73.0861   -5.0515 O   0  0  0  0  0  0  0  0  0  0  0  0
   16.0979   75.1201   -6.2211 O   0  0  0  0  0  0  0  0  0  0  0  0
   13.5647   73.0786   -8.7673 O   0  0  0  0  0  0  0  0  0  0  0  0
   13.1213   73.0249   -5.8802 O   0  0  0  0  0  0  0  0  0  0  0  0
   16.3918   73.3147   -9.4017 O   0  0  0  0  0  0  0  0  0  0  0  0
   14.5999   73.2175   -7.7941 C   0  0  2  0  0  0  0  0  0  0  0  0
   14.0376   73.8897   -6.5413 C   0  0  2  0  0  0  0  0  0  0  0  0
   15.7111   74.0743   -8.4047 C   0  0  1  0  0  0  0  0  0  0  0  0
   15.1590   74.2629   -5.5707 C   0  0  1  0  0  0  0  0  0  0  0  0
   16.7225   74.5103   -7.3485 C   0  0  1  0  0  0  0  0  0  0  0  0
   12.8472   72.5376   -8.4014 H   0  0  0  0  0  0  0  0  0  0  0  0
   12.4072   72.7838   -6.4904 H   0  0  0  0  0  0  0  0  0  0  0  0
   15.7592   73.0309  -10.0800 H   0  0  0  0  0  0  0  0  0  0  0  0
   16.9216   76.3877   -8.7403 O   0  0  0  0  0  0  0  0  0  0  0  0
   18.7740   75.7612   -7.5676 O   0  0  0  0  0  0  0  0  0  0  0  0
   17.6024   75.5977   -7.8735 C   0  0  0  0  0  0  0  0  0  0  0  0
  1  4  1  0
  1 24  1  0
  1  2  1  1
  1  3  2  0
 25 28  1  0
 25 24  1  0
 25 26  1  1
 25 27  2  0
  6 11  1  0
  6 12  1  0
 29 36  1  0
 29 37  1  0
  9  7  1  6
  7 13  1  0
 10  8  1  6
  8 14  1  0
  4  5  1  0
 36 28  1  6
 33 30  1  6
 30 38  1  0
 34 31  1  1
 31 39  1  0
 35 32  1  6
 32 40  1  0
 41 43  1  0
 15 19  2  0
 42 43  2  0
 16 22  2  0
 12 17  1  1
 17 19  1  0
 17 20  1  0
 18 19  1  0
 18 22  1  0
 18 23  1  0
  9 10  1  0
  9 11  1  0
 10 12  1  0
 11  5  1  1
 33 34  1  0
 33 35  1  0
 34 36  1  0
 35 37  1  0
 37 43  1  6
 20 21  2  0
 21 22  1  0
M  CHG  3   2  -1  26  -1  41  -1
M  END
>  <COMPND>  (74) 
    udp_gluA.pdb 

>  <AUTHOR>  (74) 
    GENERATED BY OPEN BABEL 3.1.1

>  <MASTER>  (74) 
        0    0    0    0    0    0    0    0   56    0   56    0

>  <minimizedAffinity>  (74) 
-5.77613

>  <CNNscore>  (74) 
0.3983403742

>  <CNNaffinity>  (74) 
3.8727359772

>  <CNN_VS>  (74) 
1.5426671505

>  <CNNaffinity_variance>  (74) 
0.7149277925

$$$$
75
     RDKit          3D

 43 45  0  0  0  0  0  0  0  0999 V2000
   20.7653   73.8922   -1.8232 P   0  0  2  0  0  0  0  0  0  0  0  0
   20.3951   75.4513   -2.0492 O   0  0  0  0  0  0  0  0  0  0  0  0
   19.6382   72.9317   -2.0662 O   0  0  0  0  0  0  0  0  0  0  0  0
   21.4107   73.8572   -0.3399 O   0  0  0  0  0  0  0  0  0  0  0  0
   22.8127   73.7037   -0.2161 C   0  0  0  0  0  0  0  0  0  0  0  0
   24.5430   72.1548    0.4042 O   0  0  0  0  0  0  0  0  0  0  0  0
   22.4780   70.8244    2.1240 O   0  0  0  0  0  0  0  0  0  0  0  0
   23.8994   72.2939    3.9285 O   0  0  0  0  0  0  0  0  0  0  0  0
   22.6590   72.2117    1.8388 C   0  0  1  0  0  0  0  0  0  0  0  0
   23.8567   72.7498    2.5925 C   0  0  2  0  0  0  0  0  0  0  0  0
   23.1107   72.3385    0.3903 C   0  0  1  0  0  0  0  0  0  0  0  0
   25.0145   72.2273    1.7591 C   0  0  2  0  0  0  0  0  0  0  0  0
   22.1892   70.7182    3.0443 H   0  0  0  0  0  0  0  0  0  0  0  0
   23.1421   72.6539    4.4173 H   0  0  0  0  0  0  0  0  0  0  0  0
   27.0287   72.0927    3.7343 O   0  0  0  0  0  0  0  0  0  0  0  0
   29.3626   75.5937    1.8529 O   0  0  0  0  0  0  0  0  0  0  0  0
   26.1597   73.0916    1.8093 N   0  0  0  0  0  0  0  0  0  0  0  0
   28.1887   73.8372    2.7959 N   0  0  0  0  0  0  0  0  0  0  0  0
   27.1130   72.9407    2.8439 C   0  0  0  0  0  0  0  0  0  0  0  0
   26.3306   74.0734    0.8410 C   0  0  0  0  0  0  0  0  0  0  0  0
   27.3612   74.9205    0.8083 C   0  0  0  0  0  0  0  0  0  0  0  0
   28.4015   74.8305    1.8538 C   0  0  0  0  0  0  0  0  0  0  0  0
   28.8643   73.7529    3.5070 H   0  0  0  0  0  0  0  0  0  0  0  0
   22.0486   73.6811   -2.7830 O   0  0  0  0  0  0  0  0  0  0  0  0
   22.3729   72.5457   -3.8873 P   0  0  2  0  0  0  0  0  0  0  0  0
   22.3523   71.1754   -3.0258 O   0  0  0  0  0  0  0  0  0  0  0  0
   23.6439   72.7761   -4.6524 O   0  0  0  0  0  0  0  0  0  0  0  0
   21.0453   72.4723   -4.8009 O   0  0  0  0  0  0  0  0  0  0  0  0
   19.3144   70.8565   -4.8480 O   0  0  0  0  0  0  0  0  0  0  0  0
   19.4435   72.0655   -8.7963 O   0  0  0  0  0  0  0  0  0  0  0  0
   21.9142   71.6211   -7.3022 O   0  0  0  0  0  0  0  0  0  0  0  0
   17.3038   72.9867   -7.0574 O   0  0  0  0  0  0  0  0  0  0  0  0
   19.5641   72.2183   -7.3821 C   0  0  2  0  0  0  0  0  0  0  0  0
   20.6179   71.2466   -6.8504 C   0  0  2  0  0  0  0  0  0  0  0  0
   18.2001   71.9189   -6.7561 C   0  0  1  0  0  0  0  0  0  0  0  0
   20.6127   71.2167   -5.3214 C   0  0  1  0  0  0  0  0  0  0  0  0
   18.3014   71.7802   -5.2398 C   0  0  1  0  0  0  0  0  0  0  0  0
   20.2985   72.2508   -9.2158 H   0  0  0  0  0  0  0  0  0  0  0  0
   21.9247   71.6424   -8.2716 H   0  0  0  0  0  0  0  0  0  0  0  0
   17.2305   73.0857   -8.0195 H   0  0  0  0  0  0  0  0  0  0  0  0
   16.1658   72.1349   -4.3370 O   0  0  0  0  0  0  0  0  0  0  0  0
   16.8614   69.9734   -4.5445 O   0  0  0  0  0  0  0  0  0  0  0  0
   17.0575   71.1720   -4.6785 C   0  0  0  0  0  0  0  0  0  0  0  0
  1  4  1  0
  1 24  1  0
  1  2  1  6
  1  3  2  0
 25 28  1  0
 25 24  1  0
 25 26  1  1
 25 27  2  0
  6 11  1  0
  6 12  1  0
 29 36  1  0
 29 37  1  0
  9  7  1  1
  7 13  1  0
 10  8  1  1
  8 14  1  0
  4  5  1  0
 36 28  1  1
 33 30  1  6
 30 38  1  0
 34 31  1  1
 31 39  1  0
 35 32  1  1
 32 40  1  0
 41 43  1  0
 15 19  2  0
 42 43  2  0
 16 22  2  0
 12 17  1  6
 17 19  1  0
 17 20  1  0
 18 19  1  0
 18 22  1  0
 18 23  1  0
  9 10  1  0
  9 11  1  0
 10 12  1  0
 11  5  1  1
 33 34  1  0
 33 35  1  0
 34 36  1  0
 35 37  1  0
 37 43  1  6
 20 21  2  0
 21 22  1  0
M  CHG  3   2  -1  26  -1  41  -1
M  END
>  <COMPND>  (75) 
    udp_gluA.pdb 

>  <AUTHOR>  (75) 
    GENERATED BY OPEN BABEL 3.1.1

>  <MASTER>  (75) 
        0    0    0    0    0    0    0    0   56    0   56    0

>  <minimizedAffinity>  (75) 
-6.14411

>  <CNNscore>  (75) 
0.3854911029

>  <CNNaffinity>  (75) 
4.0348067284

>  <CNN_VS>  (75) 
1.5553821325

>  <CNNaffinity_variance>  (75) 
0.2194673270

$$$$
76
     RDKit          3D

 43 45  0  0  0  0  0  0  0  0999 V2000
   23.5669   72.2725   -2.7698 P   0  0  2  0  0  0  0  0  0  0  0  0
   24.8432   71.7227   -3.5991 O   0  0  0  0  0  0  0  0  0  0  0  0
   22.7510   71.2141   -2.0874 O   0  0  0  0  0  0  0  0  0  0  0  0
   22.7735   73.1898   -3.8408 O   0  0  0  0  0  0  0  0  0  0  0  0
   21.4667   72.8036   -4.2248 C   0  0  0  0  0  0  0  0  0  0  0  0
   20.6399   70.8233   -5.3077 O   0  0  0  0  0  0  0  0  0  0  0  0
   21.7253   71.9852   -7.8500 O   0  0  0  0  0  0  0  0  0  0  0  0
   19.0613   72.5389   -8.0315 O   0  0  0  0  0  0  0  0  0  0  0  0
   21.1188   72.6479   -6.7402 C   0  0  1  0  0  0  0  0  0  0  0  0
   19.6233   72.4116   -6.7421 C   0  0  2  0  0  0  0  0  0  0  0  0
   21.5532   71.9300   -5.4697 C   0  0  1  0  0  0  0  0  0  0  0  0
   19.5271   70.9959   -6.1994 C   0  0  2  0  0  0  0  0  0  0  0  0
   21.4623   72.4261   -8.6734 H   0  0  0  0  0  0  0  0  0  0  0  0
   19.1472   73.4576   -8.3323 H   0  0  0  0  0  0  0  0  0  0  0  0
   17.0930   70.1929   -7.3856 O   0  0  0  0  0  0  0  0  0  0  0  0
   14.9158   70.1524   -3.3233 O   0  0  0  0  0  0  0  0  0  0  0  0
   18.3087   70.7682   -5.4752 N   0  0  0  0  0  0  0  0  0  0  0  0
   16.0107   70.1745   -5.3614 N   0  0  0  0  0  0  0  0  0  0  0  0
   17.1410   70.3671   -6.1665 C   0  0  0  0  0  0  0  0  0  0  0  0
   18.2787   70.9407   -4.0967 C   0  0  0  0  0  0  0  0  0  0  0  0
   17.1936   70.7532   -3.3428 C   0  0  0  0  0  0  0  0  0  0  0  0
   15.9318   70.3341   -3.9873 C   0  0  0  0  0  0  0  0  0  0  0  0
   15.1851   69.8969   -5.8204 H   0  0  0  0  0  0  0  0  0  0  0  0
   24.2239   73.3629   -1.7736 O   0  0  0  0  0  0  0  0  0  0  0  0
   23.5431   74.3942   -0.7312 P   0  0  2  0  0  0  0  0  0  0  0  0
   21.9608   74.2349   -1.0334 O   0  0  0  0  0  0  0  0  0  0  0  0
   24.0539   75.8021   -0.8355 O   0  0  0  0  0  0  0  0  0  0  0  0
   23.7521   73.7116    0.7154 O   0  0  0  0  0  0  0  0  0  0  0  0
   25.7442   72.6466    1.4273 O   0  0  0  0  0  0  0  0  0  0  0  0
   22.9157   70.8315    3.8300 O   0  0  0  0  0  0  0  0  0  0  0  0
   22.3646   71.3182    1.0027 O   0  0  0  0  0  0  0  0  0  0  0  0
   24.6791   72.8632    4.9317 O   0  0  0  0  0  0  0  0  0  0  0  0
   23.4928   71.8945    3.0718 C   0  0  2  0  0  0  0  0  0  0  0  0
   23.6419   71.4605    1.6134 C   0  0  2  0  0  0  0  0  0  0  0  0
   24.8625   72.2156    3.6741 C   0  0  1  0  0  0  0  0  0  0  0  0
   24.4623   72.4789    0.8206 C   0  0  1  0  0  0  0  0  0  0  0  0
   25.6691   73.1373    2.7640 C   0  0  1  0  0  0  0  0  0  0  0  0
   22.0443   70.6101    3.4654 H   0  0  0  0  0  0  0  0  0  0  0  0
   21.8385   70.6735    1.5008 H   0  0  0  0  0  0  0  0  0  0  0  0
   24.1668   72.2871    5.5204 H   0  0  0  0  0  0  0  0  0  0  0  0
   27.3972   72.1217    3.9821 O   0  0  0  0  0  0  0  0  0  0  0  0
   27.9033   74.0429    2.8632 O   0  0  0  0  0  0  0  0  0  0  0  0
   27.1015   73.1795    3.1868 C   0  0  0  0  0  0  0  0  0  0  0  0
  1  4  1  0
  1 24  1  0
  1  2  1  6
  1  3  2  0
 25 28  1  0
 25 24  1  0
 25 26  1  6
 25 27  2  0
  6 11  1  0
  6 12  1  0
 29 36  1  0
 29 37  1  0
  9  7  1  6
  7 13  1  0
 10  8  1  6
  8 14  1  0
  4  5  1  0
 36 28  1  1
 33 30  1  1
 30 38  1  0
 34 31  1  6
 31 39  1  0
 35 32  1  1
 32 40  1  0
 41 43  1  0
 15 19  2  0
 42 43  2  0
 16 22  2  0
 12 17  1  1
 17 19  1  0
 17 20  1  0
 18 19  1  0
 18 22  1  0
 18 23  1  0
  9 10  1  0
  9 11  1  0
 10 12  1  0
 11  5  1  1
 33 34  1  0
 33 35  1  0
 34 36  1  0
 35 37  1  0
 37 43  1  1
 20 21  2  0
 21 22  1  0
M  CHG  3   2  -1  26  -1  41  -1
M  END
>  <COMPND>  (76) 
    udp_gluA.pdb 

>  <AUTHOR>  (76) 
    GENERATED BY OPEN BABEL 3.1.1

>  <MASTER>  (76) 
        0    0    0    0    0    0    0    0   56    0   56    0

>  <minimizedAffinity>  (76) 
-6.68474

>  <CNNscore>  (76) 
0.3809911609

>  <CNNaffinity>  (76) 
4.0975646973

>  <CNN_VS>  (76) 
1.5611358881

>  <CNNaffinity_variance>  (76) 
0.0551706180

$$$$
77
     RDKit          3D

 43 45  0  0  0  0  0  0  0  0999 V2000
   22.6609   73.2277   -3.8259 P   0  0  2  0  0  0  0  0  0  0  0  0
   22.0009   74.7051   -3.8043 O   0  0  0  0  0  0  0  0  0  0  0  0
   24.0035   73.1432   -4.4908 O   0  0  0  0  0  0  0  0  0  0  0  0
   21.5023   72.2938   -4.4611 O   0  0  0  0  0  0  0  0  0  0  0  0
   20.3310   72.9142   -4.9588 C   0  0  0  0  0  0  0  0  0  0  0  0
   19.1620   72.3829   -6.9908 O   0  0  0  0  0  0  0  0  0  0  0  0
   21.0635   74.2571   -8.3556 O   0  0  0  0  0  0  0  0  0  0  0  0
   18.8126   75.7747   -8.0985 O   0  0  0  0  0  0  0  0  0  0  0  0
   20.4823   74.3484   -7.0547 C   0  0  1  0  0  0  0  0  0  0  0  0
   19.0241   74.7422   -7.1585 C   0  0  2  0  0  0  0  0  0  0  0  0
   20.3922   72.9411   -6.4806 C   0  0  1  0  0  0  0  0  0  0  0  0
   18.3726   73.4333   -7.5711 C   0  0  2  0  0  0  0  0  0  0  0  0
   21.1314   75.1443   -8.7428 H   0  0  0  0  0  0  0  0  0  0  0  0
   19.2464   76.5864   -7.7903 H   0  0  0  0  0  0  0  0  0  0  0  0
   16.0866   73.5252   -9.2272 O   0  0  0  0  0  0  0  0  0  0  0  0
   13.2422   72.9868   -5.6407 O   0  0  0  0  0  0  0  0  0  0  0  0
   17.0226   73.3196   -7.0964 N   0  0  0  0  0  0  0  0  0  0  0  0
   14.6721   73.2579   -7.4392 N   0  0  0  0  0  0  0  0  0  0  0  0
   15.9451   73.3787   -8.0117 C   0  0  0  0  0  0  0  0  0  0  0  0
   16.7766   73.1501   -5.7393 C   0  0  0  0  0  0  0  0  0  0  0  0
   15.5575   73.0364   -5.2085 C   0  0  0  0  0  0  0  0  0  0  0  0
   14.3773   73.0887   -6.0960 C   0  0  0  0  0  0  0  0  0  0  0  0
   13.9060   73.2981   -8.0564 H   0  0  0  0  0  0  0  0  0  0  0  0
   22.6542   72.8044   -2.2659 O   0  0  0  0  0  0  0  0  0  0  0  0
   22.5246   71.3559   -1.5597 P   0  0  2  0  0  0  0  0  0  0  0  0
   23.4521   70.4077   -2.4876 O   0  0  0  0  0  0  0  0  0  0  0  0
   21.1121   70.8731   -1.3994 O   0  0  0  0  0  0  0  0  0  0  0  0
   23.3440   71.4996   -0.1775 O   0  0  0  0  0  0  0  0  0  0  0  0
   22.8221   73.1186    1.4705 O   0  0  0  0  0  0  0  0  0  0  0  0
   26.7604   72.2481    2.3647 O   0  0  0  0  0  0  0  0  0  0  0  0
   25.9057   72.5573   -0.4117 O   0  0  0  0  0  0  0  0  0  0  0  0
   24.6195   71.1890    4.0216 O   0  0  0  0  0  0  0  0  0  0  0  0
   25.4394   71.9757    1.8971 C   0  0  2  0  0  0  0  0  0  0  0  0
   25.1131   72.8959    0.7205 C   0  0  2  0  0  0  0  0  0  0  0  0
   24.4679   72.2249    3.0529 C   0  0  1  0  0  0  0  0  0  0  0  0
   23.6349   72.7961    0.3414 C   0  0  1  0  0  0  0  0  0  0  0  0
   23.0199   72.2343    2.5714 C   0  0  1  0  0  0  0  0  0  0  0  0
   27.3953   72.0966    1.6469 H   0  0  0  0  0  0  0  0  0  0  0  0
   26.8450   72.6182   -0.1782 H   0  0  0  0  0  0  0  0  0  0  0  0
   25.5369   71.1722    4.3362 H   0  0  0  0  0  0  0  0  0  0  0  0
   21.8007   71.8493    4.5378 O   0  0  0  0  0  0  0  0  0  0  0  0
   21.7133   73.9495    3.6542 O   0  0  0  0  0  0  0  0  0  0  0  0
   22.1159   72.7963    3.6198 C   0  0  0  0  0  0  0  0  0  0  0  0
  1  4  1  0
  1 24  1  0
  1  2  1  1
  1  3  2  0
 25 28  1  0
 25 24  1  0
 25 26  1  6
 25 27  2  0
  6 11  1  0
  6 12  1  0
 29 36  1  0
 29 37  1  0
  9  7  1  6
  7 13  1  0
 10  8  1  6
  8 14  1  0
  4  5  1  0
 36 28  1  1
 33 30  1  1
 30 38  1  0
 34 31  1  6
 31 39  1  0
 35 32  1  1
 32 40  1  0
 41 43  1  0
 15 19  2  0
 42 43  2  0
 16 22  2  0
 12 17  1  1
 17 19  1  0
 17 20  1  0
 18 19  1  0
 18 22  1  0
 18 23  1  0
  9 10  1  0
  9 11  1  0
 10 12  1  0
 11  5  1  1
 33 34  1  0
 33 35  1  0
 34 36  1  0
 35 37  1  0
 37 43  1  1
 20 21  2  0
 21 22  1  0
M  CHG  3   2  -1  26  -1  41  -1
M  END
>  <COMPND>  (77) 
    udp_gluA.pdb 

>  <AUTHOR>  (77) 
    GENERATED BY OPEN BABEL 3.1.1

>  <MASTER>  (77) 
        0    0    0    0    0    0    0    0   56    0   56    0

>  <minimizedAffinity>  (77) 
-6.32010

>  <CNNscore>  (77) 
0.3683761358

>  <CNNaffinity>  (77) 
4.2133474350

>  <CNN_VS>  (77) 
1.5520966053

>  <CNNaffinity_variance>  (77) 
0.2700713575

$$$$
78
     RDKit          3D

 43 45  0  0  0  0  0  0  0  0999 V2000
   22.8725   71.6777    2.0509 P   0  0  2  0  0  0  0  0  0  0  0  0
   22.9868   70.1561    2.5898 O   0  0  0  0  0  0  0  0  0  0  0  0
   21.4996   72.2777    2.1335 O   0  0  0  0  0  0  0  0  0  0  0  0
   23.5244   71.6158    0.5713 O   0  0  0  0  0  0  0  0  0  0  0  0
   22.6600   71.6381   -0.5498 C   0  0  0  0  0  0  0  0  0  0  0  0
   22.3996   70.6991   -2.7471 O   0  0  0  0  0  0  0  0  0  0  0  0
   25.3237   71.2461   -3.1245 O   0  0  0  0  0  0  0  0  0  0  0  0
   24.1531   73.3139   -4.4624 O   0  0  0  0  0  0  0  0  0  0  0  0
   24.3452   72.0099   -2.4191 C   0  0  1  0  0  0  0  0  0  0  0  0
   23.4374   72.7281   -3.3951 C   0  0  2  0  0  0  0  0  0  0  0  0
   23.3851   71.0377   -1.7473 C   0  0  1  0  0  0  0  0  0  0  0  0
   22.5177   71.6088   -3.8525 C   0  0  2  0  0  0  0  0  0  0  0  0
   25.9486   71.8457   -3.5622 H   0  0  0  0  0  0  0  0  0  0  0  0
   24.7237   74.0204   -4.1198 H   0  0  0  0  0  0  0  0  0  0  0  0
   21.8523   72.7210   -6.3618 O   0  0  0  0  0  0  0  0  0  0  0  0
   17.4706   73.4001   -5.1037 O   0  0  0  0  0  0  0  0  0  0  0  0
   21.2105   72.0843   -4.2075 N   0  0  0  0  0  0  0  0  0  0  0  0
   19.6708   73.0591   -5.7325 N   0  0  0  0  0  0  0  0  0  0  0  0
   20.9818   72.6255   -5.4947 C   0  0  0  0  0  0  0  0  0  0  0  0
   20.1720   72.0107   -3.2871 C   0  0  0  0  0  0  0  0  0  0  0  0
   18.9277   72.4280   -3.5283 C   0  0  0  0  0  0  0  0  0  0  0  0
   18.6050   73.0072   -4.8488 C   0  0  0  0  0  0  0  0  0  0  0  0
   19.4878   73.4416   -6.6210 H   0  0  0  0  0  0  0  0  0  0  0  0
   23.9993   72.4533    2.9122 O   0  0  0  0  0  0  0  0  0  0  0  0
   24.0681   73.9801    3.4393 P   0  0  2  0  0  0  0  0  0  0  0  0
   23.5394   74.8339    2.1698 O   0  0  0  0  0  0  0  0  0  0  0  0
   25.4188   74.3965    3.9454 O   0  0  0  0  0  0  0  0  0  0  0  0
   22.8821   74.0913    4.5272 O   0  0  0  0  0  0  0  0  0  0  0  0
   23.4280   74.2704    6.8248 O   0  0  0  0  0  0  0  0  0  0  0  0
   19.4422   73.1960    6.9891 O   0  0  0  0  0  0  0  0  0  0  0  0
   21.2445   71.9125    5.0815 O   0  0  0  0  0  0  0  0  0  0  0  0
   20.2359   75.9427    7.5149 O   0  0  0  0  0  0  0  0  0  0  0  0
   20.6023   73.8190    6.4376 C   0  0  2  0  0  0  0  0  0  0  0  0
   21.6637   72.7577    6.1467 C   0  0  2  0  0  0  0  0  0  0  0  0
   21.1269   74.8303    7.4594 C   0  0  1  0  0  0  0  0  0  0  0  0
   22.9974   73.4059    5.7728 C   0  0  1  0  0  0  0  0  0  0  0  0
   22.5157   75.3361    7.0801 C   0  0  1  0  0  0  0  0  0  0  0  0
   19.0912   72.5489    6.3571 H   0  0  0  0  0  0  0  0  0  0  0  0
   20.3986   71.4981    5.3118 H   0  0  0  0  0  0  0  0  0  0  0  0
   19.3482   75.6344    7.7552 H   0  0  0  0  0  0  0  0  0  0  0  0
   22.5618   75.7015    9.3966 O   0  0  0  0  0  0  0  0  0  0  0  0
   24.0742   76.8477    8.1325 O   0  0  0  0  0  0  0  0  0  0  0  0
   23.1504   76.0536    8.2267 C   0  0  0  0  0  0  0  0  0  0  0  0
  1  4  1  0
  1 24  1  0
  1  2  1  1
  1  3  2  0
 25 28  1  0
 25 24  1  0
 25 26  1  6
 25 27  2  0
  6 11  1  0
  6 12  1  0
 29 36  1  0
 29 37  1  0
  9  7  1  6
  7 13  1  0
 10  8  1  6
  8 14  1  0
  4  5  1  0
 36 28  1  6
 33 30  1  1
 30 38  1  0
 34 31  1  6
 31 39  1  0
 35 32  1  6
 32 40  1  0
 41 43  1  0
 15 19  2  0
 42 43  2  0
 16 22  2  0
 12 17  1  1
 17 19  1  0
 17 20  1  0
 18 19  1  0
 18 22  1  0
 18 23  1  0
  9 10  1  0
  9 11  1  0
 10 12  1  0
 11  5  1  1
 33 34  1  0
 33 35  1  0
 34 36  1  0
 35 37  1  0
 37 43  1  1
 20 21  2  0
 21 22  1  0
M  CHG  3   2  -1  26  -1  41  -1
M  END
>  <COMPND>  (78) 
    udp_gluA.pdb 

>  <AUTHOR>  (78) 
    GENERATED BY OPEN BABEL 3.1.1

>  <MASTER>  (78) 
        0    0    0    0    0    0    0    0   56    0   56    0

>  <minimizedAffinity>  (78) 
-6.38898

>  <CNNscore>  (78) 
0.3654978871

>  <CNNaffinity>  (78) 
3.8056144714

>  <CNN_VS>  (78) 
1.3909440041

>  <CNNaffinity_variance>  (78) 
0.2393766642

$$$$
79
     RDKit          3D

 43 45  0  0  0  0  0  0  0  0999 V2000
   22.1032   72.8931   -4.7023 P   0  0  2  0  0  0  0  0  0  0  0  0
   23.7118   72.8004   -4.5515 O   0  0  0  0  0  0  0  0  0  0  0  0
   21.5011   74.1998   -4.2758 O   0  0  0  0  0  0  0  0  0  0  0  0
   21.5636   71.5827   -3.9215 O   0  0  0  0  0  0  0  0  0  0  0  0
   22.1828   71.2201   -2.7010 C   0  0  0  0  0  0  0  0  0  0  0  0
   21.7696   70.7642   -0.3774 O   0  0  0  0  0  0  0  0  0  0  0  0
   19.2349   72.3309   -0.7124 O   0  0  0  0  0  0  0  0  0  0  0  0
   20.8914   74.1289    0.4955 O   0  0  0  0  0  0  0  0  0  0  0  0
   20.5143   72.5437   -1.3093 C   0  0  1  0  0  0  0  0  0  0  0  0
   21.4792   73.1141   -0.2914 C   0  0  2  0  0  0  0  0  0  0  0  0
   21.1285   71.1817   -1.6021 C   0  0  1  0  0  0  0  0  0  0  0  0
   21.8456   71.8832    0.5201 C   0  0  2  0  0  0  0  0  0  0  0  0
   18.8228   73.1872   -0.5161 H   0  0  0  0  0  0  0  0  0  0  0  0
   20.6768   74.8904   -0.0666 H   0  0  0  0  0  0  0  0  0  0  0  0
   22.7663   70.3509    2.7066 O   0  0  0  0  0  0  0  0  0  0  0  0
   26.9590   72.2553    2.5105 O   0  0  0  0  0  0  0  0  0  0  0  0
   23.1732   71.9587    1.0610 N   0  0  0  0  0  0  0  0  0  0  0  0
   24.8534   71.3016    2.6075 N   0  0  0  0  0  0  0  0  0  0  0  0
   23.5344   71.1456    2.1613 C   0  0  0  0  0  0  0  0  0  0  0  0
   24.1014   72.8287    0.5020 C   0  0  0  0  0  0  0  0  0  0  0  0
   25.3551   72.9662    0.9382 C   0  0  0  0  0  0  0  0  0  0  0  0
   25.8125   72.1538    2.0846 C   0  0  0  0  0  0  0  0  0  0  0  0
   25.1275   70.7475    3.3738 H   0  0  0  0  0  0  0  0  0  0  0  0
   21.8620   72.5157   -6.2554 O   0  0  0  0  0  0  0  0  0  0  0  0
   20.9651   73.2309   -7.3946 P   0  0  2  0  0  0  0  0  0  0  0  0
   21.3841   72.4420   -8.7446 O   0  0  0  0  0  0  0  0  0  0  0  0
   21.1383   74.7203   -7.4698 O   0  0  0  0  0  0  0  0  0  0  0  0
   19.4564   72.7468   -7.0917 O   0  0  0  0  0  0  0  0  0  0  0  0
   18.7274   70.8449   -5.8831 O   0  0  0  0  0  0  0  0  0  0  0  0
   15.6638   71.3323   -8.6116 O   0  0  0  0  0  0  0  0  0  0  0  0
   18.4477   71.6474   -9.4390 O   0  0  0  0  0  0  0  0  0  0  0  0
   15.2864   72.1176   -5.8382 O   0  0  0  0  0  0  0  0  0  0  0  0
   16.7155   71.7551   -7.7438 C   0  0  2  0  0  0  0  0  0  0  0  0
   18.0321   71.1161   -8.1862 C   0  0  2  0  0  0  0  0  0  0  0  0
   16.3613   71.3143   -6.3218 C   0  0  1  0  0  0  0  0  0  0  0  0
   19.1326   71.3589   -7.1524 C   0  0  1  0  0  0  0  0  0  0  0  0
   17.5500   71.4704   -5.3778 C   0  0  1  0  0  0  0  0  0  0  0  0
   15.8670   71.6015   -9.5213 H   0  0  0  0  0  0  0  0  0  0  0  0
   17.7540   71.4971  -10.0997 H   0  0  0  0  0  0  0  0  0  0  0  0
   14.5235   72.0273   -6.4303 H   0  0  0  0  0  0  0  0  0  0  0  0
   16.2834   69.8650   -4.2289 O   0  0  0  0  0  0  0  0  0  0  0  0
   17.9424   70.9092   -3.0642 O   0  0  0  0  0  0  0  0  0  0  0  0
   17.3079   70.7433   -4.0952 C   0  0  0  0  0  0  0  0  0  0  0  0
  1  4  1  0
  1 24  1  0
  1  2  1  6
  1  3  2  0
 25 28  1  0
 25 24  1  0
 25 26  1  6
 25 27  2  0
  6 11  1  0
  6 12  1  0
 29 36  1  0
 29 37  1  0
  9  7  1  1
  7 13  1  0
 10  8  1  1
  8 14  1  0
  4  5  1  0
 36 28  1  1
 33 30  1  6
 30 38  1  0
 34 31  1  6
 31 39  1  0
 35 32  1  1
 32 40  1  0
 41 43  1  0
 15 19  2  0
 42 43  2  0
 16 22  2  0
 12 17  1  6
 17 19  1  0
 17 20  1  0
 18 19  1  0
 18 22  1  0
 18 23  1  0
  9 10  1  0
  9 11  1  0
 10 12  1  0
 11  5  1  6
 33 34  1  0
 33 35  1  0
 34 36  1  0
 35 37  1  0
 37 43  1  1
 20 21  2  0
 21 22  1  0
M  CHG  3   2  -1  26  -1  41  -1
M  END
>  <COMPND>  (79) 
    udp_gluA.pdb 

>  <AUTHOR>  (79) 
    GENERATED BY OPEN BABEL 3.1.1

>  <MASTER>  (79) 
        0    0    0    0    0    0    0    0   56    0   56    0

>  <minimizedAffinity>  (79) 
-7.77481

>  <CNNscore>  (79) 
0.3598033190

>  <CNNaffinity>  (79) 
4.1471638680

>  <CNN_VS>  (79) 
1.4921633005

>  <CNNaffinity_variance>  (79) 
0.0483726002

$$$$
80
     RDKit          3D

 43 45  0  0  0  0  0  0  0  0999 V2000
   23.4661   72.7656   -1.5533 P   0  0  2  0  0  0  0  0  0  0  0  0
   24.8450   71.9671   -1.8362 O   0  0  0  0  0  0  0  0  0  0  0  0
   23.5298   74.2452   -1.7947 O   0  0  0  0  0  0  0  0  0  0  0  0
   23.0570   72.3153   -0.0540 O   0  0  0  0  0  0  0  0  0  0  0  0
   23.0651   73.2917    0.9712 C   0  0  0  0  0  0  0  0  0  0  0  0
   24.2403   73.8963    2.9790 O   0  0  0  0  0  0  0  0  0  0  0  0
   26.2455   71.8021    2.2140 O   0  0  0  0  0  0  0  0  0  0  0  0
   24.7569   70.5354    4.1155 O   0  0  0  0  0  0  0  0  0  0  0  0
   24.8282   71.8021    2.0412 C   0  0  1  0  0  0  0  0  0  0  0  0
   24.1385   71.5612    3.3673 C   0  0  2  0  0  0  0  0  0  0  0  0
   24.3953   73.2238    1.7104 C   0  0  1  0  0  0  0  0  0  0  0  0
   24.2530   72.9215    4.0340 C   0  0  2  0  0  0  0  0  0  0  0  0
   26.5457   70.9041    2.4262 H   0  0  0  0  0  0  0  0  0  0  0  0
   24.6564   69.6899    3.6495 H   0  0  0  0  0  0  0  0  0  0  0  0
   24.5048   74.2781    6.4983 O   0  0  0  0  0  0  0  0  0  0  0  0
   19.9988   73.8841    7.3839 O   0  0  0  0  0  0  0  0  0  0  0  0
   23.1619   73.1871    4.9283 N   0  0  0  0  0  0  0  0  0  0  0  0
   22.2605   74.0797    6.9375 N   0  0  0  0  0  0  0  0  0  0  0  0
   23.3957   73.8760    6.1419 C   0  0  0  0  0  0  0  0  0  0  0  0
   21.8782   72.7687    4.5997 C   0  0  0  0  0  0  0  0  0  0  0  0
   20.8061   72.9702    5.3682 C   0  0  0  0  0  0  0  0  0  0  0  0
   20.9641   73.6817    6.6535 C   0  0  0  0  0  0  0  0  0  0  0  0
   22.3986   74.5554    7.7884 H   0  0  0  0  0  0  0  0  0  0  0  0
   22.3957   71.9785   -2.4739 O   0  0  0  0  0  0  0  0  0  0  0  0
   20.7800   71.9434   -2.4288 P   0  0  2  0  0  0  0  0  0  0  0  0
   20.4017   73.3127   -1.6528 O   0  0  0  0  0  0  0  0  0  0  0  0
   20.2082   70.7022   -1.8072 O   0  0  0  0  0  0  0  0  0  0  0  0
   20.3223   72.2001   -3.9543 O   0  0  0  0  0  0  0  0  0  0  0  0
   19.6333   70.5584   -5.5162 O   0  0  0  0  0  0  0  0  0  0  0  0
   21.1212   73.5077   -7.9974 O   0  0  0  0  0  0  0  0  0  0  0  0
   22.5295   72.7897   -5.5407 O   0  0  0  0  0  0  0  0  0  0  0  0
   18.2502   73.1471   -7.7180 O   0  0  0  0  0  0  0  0  0  0  0  0
   20.4847   72.9839   -6.8319 C   0  0  2  0  0  0  0  0  0  0  0  0
   21.4485   72.0511   -6.0980 C   0  0  2  0  0  0  0  0  0  0  0  0
   19.2379   72.2169   -7.2782 C   0  0  1  0  0  0  0  0  0  0  0  0
   20.7320   71.2952   -4.9781 C   0  0  1  0  0  0  0  0  0  0  0  0
   18.6546   71.3893   -6.1366 C   0  0  1  0  0  0  0  0  0  0  0  0
   21.9165   73.9993   -7.7384 H   0  0  0  0  0  0  0  0  0  0  0  0
   22.9884   73.2720   -6.2457 H   0  0  0  0  0  0  0  0  0  0  0  0
   18.6089   73.6804   -8.4445 H   0  0  0  0  0  0  0  0  0  0  0  0
   17.7468   70.2916   -8.0001 O   0  0  0  0  0  0  0  0  0  0  0  0
   16.8654   69.7802   -5.9603 O   0  0  0  0  0  0  0  0  0  0  0  0
   17.6563   70.4043   -6.6517 C   0  0  0  0  0  0  0  0  0  0  0  0
  1  4  1  0
  1 24  1  0
  1  2  1  6
  1  3  2  0
 25 28  1  0
 25 24  1  0
 25 26  1  1
 25 27  2  0
  6 11  1  0
  6 12  1  0
 29 36  1  0
 29 37  1  0
  9  7  1  1
  7 13  1  0
 10  8  1  1
  8 14  1  0
  4  5  1  0
 36 28  1  1
 33 30  1  6
 30 38  1  0
 34 31  1  1
 31 39  1  0
 35 32  1  1
 32 40  1  0
 41 43  1  0
 15 19  2  0
 42 43  2  0
 16 22  2  0
 12 17  1  1
 17 19  1  0
 17 20  1  0
 18 19  1  0
 18 22  1  0
 18 23  1  0
  9 10  1  0
  9 11  1  0
 10 12  1  0
 11  5  1  1
 33 34  1  0
 33 35  1  0
 34 36  1  0
 35 37  1  0
 37 43  1  6
 20 21  2  0
 21 22  1  0
M  CHG  3   2  -1  26  -1  41  -1
M  END
>  <COMPND>  (80) 
    udp_gluA.pdb 

>  <AUTHOR>  (80) 
    GENERATED BY OPEN BABEL 3.1.1

>  <MASTER>  (80) 
        0    0    0    0    0    0    0    0   56    0   56    0

>  <minimizedAffinity>  (80) 
-6.44544

>  <CNNscore>  (80) 
0.3284651041

>  <CNNaffinity>  (80) 
3.8126537800

>  <CNN_VS>  (80) 
1.2523237467

>  <CNNaffinity_variance>  (80) 
0.1717752069

$$$$
81
     RDKit          3D

 43 45  0  0  0  0  0  0  0  0999 V2000
   21.0735   71.8558   -1.0895 P   0  0  2  0  0  0  0  0  0  0  0  0
   21.6324   70.9568    0.1346 O   0  0  0  0  0  0  0  0  0  0  0  0
   20.0997   72.9274   -0.6956 O   0  0  0  0  0  0  0  0  0  0  0  0
   20.5268   70.7664   -2.1536 O   0  0  0  0  0  0  0  0  0  0  0  0
   19.9026   71.2308   -3.3365 C   0  0  0  0  0  0  0  0  0  0  0  0
   20.4796   70.4389   -5.5314 O   0  0  0  0  0  0  0  0  0  0  0  0
   22.3923   72.7447   -5.6575 O   0  0  0  0  0  0  0  0  0  0  0  0
   20.2797   73.6418   -7.1300 O   0  0  0  0  0  0  0  0  0  0  0  0
   21.0997   72.6748   -5.0552 C   0  0  1  0  0  0  0  0  0  0  0  0
   20.0238   72.6881   -6.1203 C   0  0  2  0  0  0  0  0  0  0  0  0
   20.9360   71.2855   -4.4542 C   0  0  1  0  0  0  0  0  0  0  0  0
   20.0746   71.2606   -6.6377 C   0  0  2  0  0  0  0  0  0  0  0  0
   22.5201   73.6236   -6.0485 H   0  0  0  0  0  0  0  0  0  0  0  0
   20.2357   74.5340   -6.7506 H   0  0  0  0  0  0  0  0  0  0  0  0
   19.4724   70.7682   -9.3527 O   0  0  0  0  0  0  0  0  0  0  0  0
   15.1501   69.5158   -8.3559 O   0  0  0  0  0  0  0  0  0  0  0  0
   18.7998   70.8052   -7.1156 N   0  0  0  0  0  0  0  0  0  0  0  0
   17.3199   70.1459   -8.8538 N   0  0  0  0  0  0  0  0  0  0  0  0
   18.6012   70.5886   -8.4997 C   0  0  0  0  0  0  0  0  0  0  0  0
   17.7640   70.5764   -6.2180 C   0  0  0  0  0  0  0  0  0  0  0  0
   16.5482   70.1544   -6.5705 C   0  0  0  0  0  0  0  0  0  0  0  0
   16.2576   69.9049   -7.9977 C   0  0  0  0  0  0  0  0  0  0  0  0
   17.1570   69.9901   -9.8122 H   0  0  0  0  0  0  0  0  0  0  0  0
   22.4262   72.3990   -1.7880 O   0  0  0  0  0  0  0  0  0  0  0  0
   23.8034   71.6414   -2.1663 P   0  0  2  0  0  0  0  0  0  0  0  0
   24.4772   72.6240   -3.2621 O   0  0  0  0  0  0  0  0  0  0  0  0
   23.6196   70.2268   -2.6343 O   0  0  0  0  0  0  0  0  0  0  0  0
   24.7300   71.7976   -0.8550 O   0  0  0  0  0  0  0  0  0  0  0  0
   24.2646   73.7196    0.4483 O   0  0  0  0  0  0  0  0  0  0  0  0
   27.7523   72.3489    2.1876 O   0  0  0  0  0  0  0  0  0  0  0  0
   27.4509   72.3582   -0.7182 O   0  0  0  0  0  0  0  0  0  0  0  0
   25.1998   71.9392    3.5171 O   0  0  0  0  0  0  0  0  0  0  0  0
   26.5007   72.2332    1.5106 C   0  0  2  0  0  0  0  0  0  0  0  0
   26.5612   72.9990    0.1887 C   0  0  2  0  0  0  0  0  0  0  0  0
   25.4167   72.8208    2.4171 C   0  0  1  0  0  0  0  0  0  0  0  0
   25.1764   73.0916   -0.4537 C   0  0  1  0  0  0  0  0  0  0  0  0
   24.0996   72.9985    1.6672 C   0  0  1  0  0  0  0  0  0  0  0  0
   28.4566   71.9818    1.6304 H   0  0  0  0  0  0  0  0  0  0  0  0
   28.3314   72.2958   -0.3169 H   0  0  0  0  0  0  0  0  0  0  0  0
   26.0306   71.8175    4.0027 H   0  0  0  0  0  0  0  0  0  0  0  0
   22.1221   74.2599    1.6661 O   0  0  0  0  0  0  0  0  0  0  0  0
   23.2979   74.1709    3.6177 O   0  0  0  0  0  0  0  0  0  0  0  0
   23.1597   73.8623    2.4435 C   0  0  0  0  0  0  0  0  0  0  0  0
  1  4  1  0
  1 24  1  0
  1  2  1  1
  1  3  2  0
 25 28  1  0
 25 24  1  0
 25 26  1  6
 25 27  2  0
  6 11  1  0
  6 12  1  0
 29 36  1  0
 29 37  1  0
  9  7  1  6
  7 13  1  0
 10  8  1  6
  8 14  1  0
  4  5  1  0
 36 28  1  1
 33 30  1  1
 30 38  1  0
 34 31  1  6
 31 39  1  0
 35 32  1  1
 32 40  1  0
 41 43  1  0
 15 19  2  0
 42 43  2  0
 16 22  2  0
 12 17  1  1
 17 19  1  0
 17 20  1  0
 18 19  1  0
 18 22  1  0
 18 23  1  0
  9 10  1  0
  9 11  1  0
 10 12  1  0
 11  5  1  1
 33 34  1  0
 33 35  1  0
 34 36  1  0
 35 37  1  0
 37 43  1  1
 20 21  2  0
 21 22  1  0
M  CHG  3   2  -1  26  -1  41  -1
M  END
>  <COMPND>  (81) 
    udp_gluA.pdb 

>  <AUTHOR>  (81) 
    GENERATED BY OPEN BABEL 3.1.1

>  <MASTER>  (81) 
        0    0    0    0    0    0    0    0   56    0   56    0

>  <minimizedAffinity>  (81) 
-7.37389

>  <CNNscore>  (81) 
0.7813647985

>  <CNNaffinity>  (81) 
4.5669841766

>  <CNN_VS>  (81) 
3.5684807301

>  <CNNaffinity_variance>  (81) 
0.0638196319

$$$$
82
     RDKit          3D

 43 45  0  0  0  0  0  0  0  0999 V2000
   22.9955   72.6142   -3.3072 P   0  0  2  0  0  0  0  0  0  0  0  0
   24.0812   73.0313   -4.4324 O   0  0  0  0  0  0  0  0  0  0  0  0
   23.1889   71.2488   -2.7155 O   0  0  0  0  0  0  0  0  0  0  0  0
   21.5702   72.8720   -4.0283 O   0  0  0  0  0  0  0  0  0  0  0  0
   21.0909   71.9043   -4.9440 C   0  0  0  0  0  0  0  0  0  0  0  0
   20.6776   71.4941   -7.2760 O   0  0  0  0  0  0  0  0  0  0  0  0
   21.4270   74.3630   -7.7225 O   0  0  0  0  0  0  0  0  0  0  0  0
   18.7026   74.4380   -7.8114 O   0  0  0  0  0  0  0  0  0  0  0  0
   20.7213   73.7728   -6.6306 C   0  0  1  0  0  0  0  0  0  0  0  0
   19.3108   73.4161   -7.0497 C   0  0  2  0  0  0  0  0  0  0  0  0
   21.3302   72.4031   -6.3633 C   0  0  1  0  0  0  0  0  0  0  0  0
   19.5316   72.1434   -7.8492 C   0  0  2  0  0  0  0  0  0  0  0  0
   21.0557   75.2393   -7.9120 H   0  0  0  0  0  0  0  0  0  0  0  0
   18.5834   75.2264   -7.2580 H   0  0  0  0  0  0  0  0  0  0  0  0
   18.6725   70.4975   -9.9775 O   0  0  0  0  0  0  0  0  0  0  0  0
   15.2081   68.7643   -7.4799 O   0  0  0  0  0  0  0  0  0  0  0  0
   18.4080   71.2523   -7.7823 N   0  0  0  0  0  0  0  0  0  0  0  0
   16.9472   69.6366   -8.7319 N   0  0  0  0  0  0  0  0  0  0  0  0
   18.0602   70.4693   -8.9083 C   0  0  0  0  0  0  0  0  0  0  0  0
   17.6653   71.1593   -6.6115 C   0  0  0  0  0  0  0  0  0  0  0  0
   16.6071   70.3610   -6.4584 C   0  0  0  0  0  0  0  0  0  0  0  0
   16.1768   69.5102   -7.5873 C   0  0  0  0  0  0  0  0  0  0  0  0
   16.6846   69.0833   -9.5027 H   0  0  0  0  0  0  0  0  0  0  0  0
   23.0898   73.8283   -2.2442 O   0  0  0  0  0  0  0  0  0  0  0  0
   22.1347   74.2287   -1.0028 P   0  0  2  0  0  0  0  0  0  0  0  0
   20.8607   73.2468   -1.1846 O   0  0  0  0  0  0  0  0  0  0  0  0
   21.7869   75.6878   -0.9391 O   0  0  0  0  0  0  0  0  0  0  0  0
   22.9002   73.6655    0.3008 O   0  0  0  0  0  0  0  0  0  0  0  0
   25.0939   72.9045    0.7671 O   0  0  0  0  0  0  0  0  0  0  0  0
   22.7968   70.1793    2.8564 O   0  0  0  0  0  0  0  0  0  0  0  0
   22.0088   71.0338    0.1762 O   0  0  0  0  0  0  0  0  0  0  0  0
   24.2016   72.2936    4.2732 O   0  0  0  0  0  0  0  0  0  0  0  0
   23.1197   71.4504    2.2924 C   0  0  2  0  0  0  0  0  0  0  0  0
   23.2677   71.3151    0.7767 C   0  0  2  0  0  0  0  0  0  0  0  0
   24.4348   71.9240    2.9155 C   0  0  1  0  0  0  0  0  0  0  0  0
   23.8356   72.5970    0.1659 C   0  0  1  0  0  0  0  0  0  0  0  0
   25.0010   73.1302    2.1719 C   0  0  1  0  0  0  0  0  0  0  0  0
   21.9644   69.8583    2.4752 H   0  0  0  0  0  0  0  0  0  0  0  0
   21.6426   70.2217    0.5593 H   0  0  0  0  0  0  0  0  0  0  0  0
   23.8409   71.5346    4.7576 H   0  0  0  0  0  0  0  0  0  0  0  0
   27.1764   72.2725    2.3543 O   0  0  0  0  0  0  0  0  0  0  0  0
   26.8500   74.4298    3.0167 O   0  0  0  0  0  0  0  0  0  0  0  0
   26.4205   73.3782    2.5665 C   0  0  0  0  0  0  0  0  0  0  0  0
  1  4  1  0
  1 24  1  0
  1  2  1  6
  1  3  2  0
 25 28  1  0
 25 24  1  0
 25 26  1  6
 25 27  2  0
  6 11  1  0
  6 12  1  0
 29 36  1  0
 29 37  1  0
  9  7  1  6
  7 13  1  0
 10  8  1  6
  8 14  1  0
  4  5  1  0
 36 28  1  1
 33 30  1  1
 30 38  1  0
 34 31  1  6
 31 39  1  0
 35 32  1  1
 32 40  1  0
 41 43  1  0
 15 19  2  0
 42 43  2  0
 16 22  2  0
 12 17  1  1
 17 19  1  0
 17 20  1  0
 18 19  1  0
 18 22  1  0
 18 23  1  0
  9 10  1  0
  9 11  1  0
 10 12  1  0
 11  5  1  1
 33 34  1  0
 33 35  1  0
 34 36  1  0
 35 37  1  0
 37 43  1  1
 20 21  2  0
 21 22  1  0
M  CHG  3   2  -1  26  -1  41  -1
M  END
>  <COMPND>  (82) 
    udp_gluA.pdb 

>  <AUTHOR>  (82) 
    GENERATED BY OPEN BABEL 3.1.1

>  <MASTER>  (82) 
        0    0    0    0    0    0    0    0   56    0   56    0

>  <minimizedAffinity>  (82) 
-7.38476

>  <CNNscore>  (82) 
0.7454118729

>  <CNNaffinity>  (82) 
4.4193348885

>  <CNN_VS>  (82) 
3.2942247391

>  <CNNaffinity_variance>  (82) 
0.0366790965

$$$$
83
     RDKit          3D

 43 45  0  0  0  0  0  0  0  0999 V2000
   23.0604   73.8720   -3.3292 P   0  0  2  0  0  0  0  0  0  0  0  0
   22.3466   75.3078   -3.1100 O   0  0  0  0  0  0  0  0  0  0  0  0
   24.3108   73.9061   -4.1581 O   0  0  0  0  0  0  0  0  0  0  0  0
   21.8714   72.9286   -3.8897 O   0  0  0  0  0  0  0  0  0  0  0  0
   20.6174   73.5199   -4.1767 C   0  0  0  0  0  0  0  0  0  0  0  0
   18.5989   72.3519   -4.7588 O   0  0  0  0  0  0  0  0  0  0  0  0
   19.0645   70.7025   -2.2983 O   0  0  0  0  0  0  0  0  0  0  0  0
   19.9434   69.0614   -4.2909 O   0  0  0  0  0  0  0  0  0  0  0  0
   20.0144   71.2420   -3.2176 C   0  0  1  0  0  0  0  0  0  0  0  0
   19.9972   70.4553   -4.5111 C   0  0  2  0  0  0  0  0  0  0  0  0
   19.5100   72.6063   -3.6677 C   0  0  1  0  0  0  0  0  0  0  0  0
   18.7464   70.9891   -5.1882 C   0  0  2  0  0  0  0  0  0  0  0  0
   19.3652   69.8305   -1.9967 H   0  0  0  0  0  0  0  0  0  0  0  0
   20.7621   68.7705   -3.8582 H   0  0  0  0  0  0  0  0  0  0  0  0
   16.6886   70.1018   -6.9071 O   0  0  0  0  0  0  0  0  0  0  0  0
   19.2280   70.9162  -10.6664 O   0  0  0  0  0  0  0  0  0  0  0  0
   18.8431   70.9586   -6.6202 N   0  0  0  0  0  0  0  0  0  0  0  0
   17.9557   70.5073   -8.7778 N   0  0  0  0  0  0  0  0  0  0  0  0
   17.7516   70.4944   -7.3917 C   0  0  0  0  0  0  0  0  0  0  0  0
   20.0077   71.3866   -7.2460 C   0  0  0  0  0  0  0  0  0  0  0  0
   20.1874   71.3930   -8.5683 C   0  0  0  0  0  0  0  0  0  0  0  0
   19.0958   70.9229   -9.4463 C   0  0  0  0  0  0  0  0  0  0  0  0
   17.2105   70.1866   -9.3356 H   0  0  0  0  0  0  0  0  0  0  0  0
   23.2683   73.3357   -1.8186 O   0  0  0  0  0  0  0  0  0  0  0  0
   24.5928   73.2499   -0.8956 P   0  0  2  0  0  0  0  0  0  0  0  0
   25.1118   74.7825   -0.8500 O   0  0  0  0  0  0  0  0  0  0  0  0
   25.6171   72.2642   -1.3786 O   0  0  0  0  0  0  0  0  0  0  0  0
   24.0375   72.9636    0.5917 O   0  0  0  0  0  0  0  0  0  0  0  0
   25.5882   72.0013    2.1011 O   0  0  0  0  0  0  0  0  0  0  0  0
   22.0370   71.5977    4.1733 O   0  0  0  0  0  0  0  0  0  0  0  0
   22.1487   71.0509    1.3057 O   0  0  0  0  0  0  0  0  0  0  0  0
   23.9460   73.6533    4.9359 O   0  0  0  0  0  0  0  0  0  0  0  0
   22.9584   72.2150    3.2743 C   0  0  2  0  0  0  0  0  0  0  0  0
   23.2873   71.2492    2.1357 C   0  0  2  0  0  0  0  0  0  0  0  0
   24.2248   72.5627    4.0600 C   0  0  1  0  0  0  0  0  0  0  0  0
   24.4391   71.7818    1.2821 C   0  0  1  0  0  0  0  0  0  0  0  0
   25.3653   72.9640    3.1290 C   0  0  1  0  0  0  0  0  0  0  0  0
   21.2242   71.3678    3.6961 H   0  0  0  0  0  0  0  0  0  0  0  0
   21.4138   70.7132    1.8409 H   0  0  0  0  0  0  0  0  0  0  0  0
   23.2216   73.4109    5.5337 H   0  0  0  0  0  0  0  0  0  0  0  0
   26.7452   74.0620    4.6756 O   0  0  0  0  0  0  0  0  0  0  0  0
   27.5452   72.1376    3.7505 O   0  0  0  0  0  0  0  0  0  0  0  0
   26.6673   72.9801    3.8616 C   0  0  0  0  0  0  0  0  0  0  0  0
  1  4  1  0
  1 24  1  0
  1  2  1  1
  1  3  2  0
 25 28  1  0
 25 24  1  0
 25 26  1  1
 25 27  2  0
  6 11  1  0
  6 12  1  0
 29 36  1  0
 29 37  1  0
  9  7  1  1
  7 13  1  0
 10  8  1  1
  8 14  1  0
  4  5  1  0
 36 28  1  1
 33 30  1  1
 30 38  1  0
 34 31  1  6
 31 39  1  0
 35 32  1  1
 32 40  1  0
 41 43  1  0
 15 19  2  0
 42 43  2  0
 16 22  2  0
 12 17  1  6
 17 19  1  0
 17 20  1  0
 18 19  1  0
 18 22  1  0
 18 23  1  0
  9 10  1  0
  9 11  1  0
 10 12  1  0
 11  5  1  6
 33 34  1  0
 33 35  1  0
 34 36  1  0
 35 37  1  0
 37 43  1  1
 20 21  2  0
 21 22  1  0
M  CHG  3   2  -1  26  -1  41  -1
M  END
>  <COMPND>  (83) 
    udp_gluA.pdb 

>  <AUTHOR>  (83) 
    GENERATED BY OPEN BABEL 3.1.1

>  <MASTER>  (83) 
        0    0    0    0    0    0    0    0   56    0   56    0

>  <minimizedAffinity>  (83) 
-6.51036

>  <CNNscore>  (83) 
0.7242994905

>  <CNNaffinity>  (83) 
4.4647397995

>  <CNN_VS>  (83) 
3.2338087559

>  <CNNaffinity_variance>  (83) 
0.0354475826

$$$$
84
     RDKit          3D

 43 45  0  0  0  0  0  0  0  0999 V2000
   22.7138   72.1403   -3.0434 P   0  0  2  0  0  0  0  0  0  0  0  0
   23.8214   73.1985   -2.5216 O   0  0  0  0  0  0  0  0  0  0  0  0
   23.0945   70.6970   -2.8895 O   0  0  0  0  0  0  0  0  0  0  0  0
   22.3940   72.6254   -4.5535 O   0  0  0  0  0  0  0  0  0  0  0  0
   21.4716   71.8764   -5.3232 C   0  0  0  0  0  0  0  0  0  0  0  0
   20.7720   71.4402   -7.5811 O   0  0  0  0  0  0  0  0  0  0  0  0
   21.3452   74.3337   -8.1203 O   0  0  0  0  0  0  0  0  0  0  0  0
   18.6318   74.3040   -7.8508 O   0  0  0  0  0  0  0  0  0  0  0  0
   20.8122   73.7218   -6.9456 C   0  0  1  0  0  0  0  0  0  0  0  0
   19.3737   73.3095   -7.1761 C   0  0  2  0  0  0  0  0  0  0  0  0
   21.5032   72.3776   -6.7613 C   0  0  1  0  0  0  0  0  0  0  0  0
   19.5366   72.0426   -7.9985 C   0  0  2  0  0  0  0  0  0  0  0  0
   20.9188   75.1943   -8.2589 H   0  0  0  0  0  0  0  0  0  0  0  0
   18.5560   75.0897   -7.2861 H   0  0  0  0  0  0  0  0  0  0  0  0
   18.5037   70.3196   -9.9837 O   0  0  0  0  0  0  0  0  0  0  0  0
   15.4306   68.5040   -7.0677 O   0  0  0  0  0  0  0  0  0  0  0  0
   18.4667   71.1095   -7.7853 N   0  0  0  0  0  0  0  0  0  0  0  0
   16.9734   69.4177   -8.5297 N   0  0  0  0  0  0  0  0  0  0  0  0
   18.0224   70.2897   -8.8495 C   0  0  0  0  0  0  0  0  0  0  0  0
   17.8706   71.0120   -6.5338 C   0  0  0  0  0  0  0  0  0  0  0  0
   16.8717   70.1759   -6.2442 C   0  0  0  0  0  0  0  0  0  0  0  0
   16.3481   69.2852   -7.3005 C   0  0  0  0  0  0  0  0  0  0  0  0
   16.6457   68.8383   -9.2552 H   0  0  0  0  0  0  0  0  0  0  0  0
   21.3851   72.5763   -2.2327 O   0  0  0  0  0  0  0  0  0  0  0  0
   20.7783   72.0520   -0.8289 P   0  0  2  0  0  0  0  0  0  0  0  0
   20.5318   70.4750   -1.0985 O   0  0  0  0  0  0  0  0  0  0  0  0
   19.5601   72.7983   -0.3675 O   0  0  0  0  0  0  0  0  0  0  0  0
   22.0217   72.1001    0.1979 O   0  0  0  0  0  0  0  0  0  0  0  0
   22.2333   72.5006    2.5225 O   0  0  0  0  0  0  0  0  0  0  0  0
   25.5384   74.4758    1.0248 O   0  0  0  0  0  0  0  0  0  0  0  0
   22.9591   74.6642   -0.3338 O   0  0  0  0  0  0  0  0  0  0  0  0
   25.8508   71.9104    2.3560 O   0  0  0  0  0  0  0  0  0  0  0  0
   24.5341   73.4621    1.0663 C   0  0  2  0  0  0  0  0  0  0  0  0
   23.1517   74.1067    0.9611 C   0  0  2  0  0  0  0  0  0  0  0  0
   24.6725   72.7133    2.3937 C   0  0  1  0  0  0  0  0  0  0  0  0
   22.0485   73.0827    1.2316 C   0  0  1  0  0  0  0  0  0  0  0  0
   23.4723   71.8063    2.6495 C   0  0  1  0  0  0  0  0  0  0  0  0
   25.4699   74.9651    0.1899 H   0  0  0  0  0  0  0  0  0  0  0  0
   23.6558   75.3147   -0.5122 H   0  0  0  0  0  0  0  0  0  0  0  0
   26.6222   72.4756    2.1937 H   0  0  0  0  0  0  0  0  0  0  0  0
   24.5242   70.5527    4.3297 O   0  0  0  0  0  0  0  0  0  0  0  0
   22.5932   71.6282    4.8893 O   0  0  0  0  0  0  0  0  0  0  0  0
   23.4520   71.3409    4.0691 C   0  0  0  0  0  0  0  0  0  0  0  0
  1  4  1  0
  1 24  1  0
  1  2  1  1
  1  3  2  0
 25 28  1  0
 25 24  1  0
 25 26  1  6
 25 27  2  0
  6 11  1  0
  6 12  1  0
 29 36  1  0
 29 37  1  0
  9  7  1  6
  7 13  1  0
 10  8  1  6
  8 14  1  0
  4  5  1  0
 36 28  1  6
 33 30  1  1
 30 38  1  0
 34 31  1  6
 31 39  1  0
 35 32  1  6
 32 40  1  0
 41 43  1  0
 15 19  2  0
 42 43  2  0
 16 22  2  0
 12 17  1  1
 17 19  1  0
 17 20  1  0
 18 19  1  0
 18 22  1  0
 18 23  1  0
  9 10  1  0
  9 11  1  0
 10 12  1  0
 11  5  1  1
 33 34  1  0
 33 35  1  0
 34 36  1  0
 35 37  1  0
 37 43  1  1
 20 21  2  0
 21 22  1  0
M  CHG  3   2  -1  26  -1  41  -1
M  END
>  <COMPND>  (84) 
    udp_gluA.pdb 

>  <AUTHOR>  (84) 
    GENERATED BY OPEN BABEL 3.1.1

>  <MASTER>  (84) 
        0    0    0    0    0    0    0    0   56    0   56    0

>  <minimizedAffinity>  (84) 
-6.99608

>  <CNNscore>  (84) 
0.6723779440

>  <CNNaffinity>  (84) 
4.2734022141

>  <CNN_VS>  (84) 
2.8733413219

>  <CNNaffinity_variance>  (84) 
0.0523525588

$$$$
85
     RDKit          3D

 43 45  0  0  0  0  0  0  0  0999 V2000
   20.3788   71.6126   -1.3583 P   0  0  2  0  0  0  0  0  0  0  0  0
   21.7522   70.7871   -1.1320 O   0  0  0  0  0  0  0  0  0  0  0  0
   20.1190   72.6975   -0.3547 O   0  0  0  0  0  0  0  0  0  0  0  0
   19.2459   70.4618   -1.4582 O   0  0  0  0  0  0  0  0  0  0  0  0
   17.9197   70.7841   -1.0814 C   0  0  0  0  0  0  0  0  0  0  0  0
   16.3221   69.3560   -2.1704 O   0  0  0  0  0  0  0  0  0  0  0  0
   15.4956   71.7809   -3.7288 O   0  0  0  0  0  0  0  0  0  0  0  0
   13.5471   71.6004   -1.8297 O   0  0  0  0  0  0  0  0  0  0  0  0
   15.9168   71.6814   -2.3682 C   0  0  1  0  0  0  0  0  0  0  0  0
   14.8195   71.0697   -1.5232 C   0  0  2  0  0  0  0  0  0  0  0  0
   17.0072   70.6216   -2.2903 C   0  0  1  0  0  0  0  0  0  0  0  0
   14.9377   69.5958   -1.8716 C   0  0  2  0  0  0  0  0  0  0  0  0
   14.7989   72.4522   -3.8037 H   0  0  0  0  0  0  0  0  0  0  0  0
   13.5224   72.5404   -1.5894 H   0  0  0  0  0  0  0  0  0  0  0  0
   13.6788   67.0883   -2.1951 O   0  0  0  0  0  0  0  0  0  0  0  0
   13.4543   66.4090    2.3582 O   0  0  0  0  0  0  0  0  0  0  0  0
   14.5395   68.7428   -0.7878 N   0  0  0  0  0  0  0  0  0  0  0  0
   13.5673   66.7528    0.0730 N   0  0  0  0  0  0  0  0  0  0  0  0
   13.9140   67.5029   -1.0585 C   0  0  0  0  0  0  0  0  0  0  0  0
   14.7705   69.1357    0.5249 C   0  0  0  0  0  0  0  0  0  0  0  0
   14.4345   68.4100    1.5932 C   0  0  0  0  0  0  0  0  0  0  0  0
   13.7759   67.1018    1.3975 C   0  0  0  0  0  0  0  0  0  0  0  0
   13.1286   65.8867   -0.0902 H   0  0  0  0  0  0  0  0  0  0  0  0
   20.5113   72.1256   -2.8854 O   0  0  0  0  0  0  0  0  0  0  0  0
   19.7722   73.3320   -3.6677 P   0  0  2  0  0  0  0  0  0  0  0  0
   21.0021   74.2631   -4.1582 O   0  0  0  0  0  0  0  0  0  0  0  0
   18.7381   74.0526   -2.8521 O   0  0  0  0  0  0  0  0  0  0  0  0
   19.2075   72.6576   -5.0201 O   0  0  0  0  0  0  0  0  0  0  0  0
   18.5224   70.4433   -5.5062 O   0  0  0  0  0  0  0  0  0  0  0  0
   20.2181   71.6046   -9.0901 O   0  0  0  0  0  0  0  0  0  0  0  0
   21.4977   72.2909   -6.5552 O   0  0  0  0  0  0  0  0  0  0  0  0
   17.3267   71.4760   -8.8177 O   0  0  0  0  0  0  0  0  0  0  0  0
   19.5157   71.7878   -7.8608 C   0  0  2  0  0  0  0  0  0  0  0  0
   20.4137   71.3795   -6.6927 C   0  0  2  0  0  0  0  0  0  0  0  0
   18.2606   70.9130   -7.8983 C   0  0  1  0  0  0  0  0  0  0  0  0
   19.6248   71.3427   -5.3830 C   0  0  1  0  0  0  0  0  0  0  0  0
   17.6011   70.8258   -6.5250 C   0  0  1  0  0  0  0  0  0  0  0  0
   21.0198   72.1509   -9.0891 H   0  0  0  0  0  0  0  0  0  0  0  0
   22.0025   72.3194   -7.3827 H   0  0  0  0  0  0  0  0  0  0  0  0
   17.7341   71.5372   -9.6958 H   0  0  0  0  0  0  0  0  0  0  0  0
   16.6404   68.9940   -7.6310 O   0  0  0  0  0  0  0  0  0  0  0  0
   15.8185   69.5113   -5.5680 O   0  0  0  0  0  0  0  0  0  0  0  0
   16.5888   69.7275   -6.4915 C   0  0  0  0  0  0  0  0  0  0  0  0
  1  4  1  0
  1 24  1  0
  1  2  1  1
  1  3  2  0
 25 28  1  0
 25 24  1  0
 25 26  1  6
 25 27  2  0
  6 11  1  0
  6 12  1  0
 29 36  1  0
 29 37  1  0
  9  7  1  6
  7 13  1  0
 10  8  1  6
  8 14  1  0
  4  5  1  0
 36 28  1  6
 33 30  1  6
 30 38  1  0
 34 31  1  1
 31 39  1  0
 35 32  1  6
 32 40  1  0
 41 43  1  0
 15 19  2  0
 42 43  2  0
 16 22  2  0
 12 17  1  1
 17 19  1  0
 17 20  1  0
 18 19  1  0
 18 22  1  0
 18 23  1  0
  9 10  1  0
  9 11  1  0
 10 12  1  0
 11  5  1  1
 33 34  1  0
 33 35  1  0
 34 36  1  0
 35 37  1  0
 37 43  1  6
 20 21  2  0
 21 22  1  0
M  CHG  3   2  -1  26  -1  41  -1
M  END
>  <COMPND>  (85) 
    udp_gluA.pdb 

>  <AUTHOR>  (85) 
    GENERATED BY OPEN BABEL 3.1.1

>  <MASTER>  (85) 
        0    0    0    0    0    0    0    0   56    0   56    0

>  <minimizedAffinity>  (85) 
-6.26347

>  <CNNscore>  (85) 
0.6266880035

>  <CNNaffinity>  (85) 
4.3995614052

>  <CNN_VS>  (85) 
2.7571523190

>  <CNNaffinity_variance>  (85) 
0.1154688746

$$$$
86
     RDKit          3D

 43 45  0  0  0  0  0  0  0  0999 V2000
   19.6152   73.8071   -1.5330 P   0  0  2  0  0  0  0  0  0  0  0  0
   19.6140   73.4798    0.0518 O   0  0  0  0  0  0  0  0  0  0  0  0
   18.3126   74.3176   -2.0755 O   0  0  0  0  0  0  0  0  0  0  0  0
   20.1738   72.4478   -2.2100 O   0  0  0  0  0  0  0  0  0  0  0  0
   19.6029   72.0169   -3.4318 C   0  0  0  0  0  0  0  0  0  0  0  0
   20.2942   70.7490   -5.3533 O   0  0  0  0  0  0  0  0  0  0  0  0
   22.3305   72.9023   -5.8097 O   0  0  0  0  0  0  0  0  0  0  0  0
   20.3803   73.5358   -7.6073 O   0  0  0  0  0  0  0  0  0  0  0  0
   20.9958   73.0111   -5.3143 C   0  0  1  0  0  0  0  0  0  0  0  0
   20.0019   72.8327   -6.4424 C   0  0  2  0  0  0  0  0  0  0  0  0
   20.7158   71.7913   -4.4471 C   0  0  1  0  0  0  0  0  0  0  0  0
   20.0143   71.3263   -6.6385 C   0  0  2  0  0  0  0  0  0  0  0  0
   22.5326   73.6707   -6.3669 H   0  0  0  0  0  0  0  0  0  0  0  0
   20.3563   74.4899   -7.4313 H   0  0  0  0  0  0  0  0  0  0  0  0
   19.4049   70.8535   -9.3554 O   0  0  0  0  0  0  0  0  0  0  0  0
   15.1506   69.4014   -8.3374 O   0  0  0  0  0  0  0  0  0  0  0  0
   18.7551   70.8249   -7.1114 N   0  0  0  0  0  0  0  0  0  0  0  0
   17.2862   70.1317   -8.8458 N   0  0  0  0  0  0  0  0  0  0  0  0
   18.5512   70.6228   -8.4969 C   0  0  0  0  0  0  0  0  0  0  0  0
   17.7395   70.5373   -6.2076 C   0  0  0  0  0  0  0  0  0  0  0  0
   16.5390   70.0696   -6.5553 C   0  0  0  0  0  0  0  0  0  0  0  0
   16.2442   69.8315   -7.9835 C   0  0  0  0  0  0  0  0  0  0  0  0
   17.1200   69.9849   -9.8051 H   0  0  0  0  0  0  0  0  0  0  0  0
   20.8575   74.8291   -1.6916 O   0  0  0  0  0  0  0  0  0  0  0  0
   22.4533   74.5775   -1.6304 P   0  0  2  0  0  0  0  0  0  0  0  0
   23.0285   75.9847   -1.0740 O   0  0  0  0  0  0  0  0  0  0  0  0
   23.0571   74.1337   -2.9313 O   0  0  0  0  0  0  0  0  0  0  0  0
   22.6581   73.5429   -0.4097 O   0  0  0  0  0  0  0  0  0  0  0  0
   24.7774   72.4857   -0.4100 O   0  0  0  0  0  0  0  0  0  0  0  0
   22.7976   70.3992    2.5556 O   0  0  0  0  0  0  0  0  0  0  0  0
   21.4311   71.0930    0.0685 O   0  0  0  0  0  0  0  0  0  0  0  0
   24.7970   72.3892    3.2578 O   0  0  0  0  0  0  0  0  0  0  0  0
   23.1184   71.5364    1.7544 C   0  0  2  0  0  0  0  0  0  0  0  0
   22.8311   71.2250    0.2854 C   0  0  2  0  0  0  0  0  0  0  0  0
   24.6032   71.8501    1.9516 C   0  0  1  0  0  0  0  0  0  0  0  0
   23.3743   72.3280   -0.6240 C   0  0  1  0  0  0  0  0  0  0  0  0
   25.0989   72.8656    0.9262 C   0  0  1  0  0  0  0  0  0  0  0  0
   21.8585   70.1811    2.4464 H   0  0  0  0  0  0  0  0  0  0  0  0
   21.0797   70.3949    0.6426 H   0  0  0  0  0  0  0  0  0  0  0  0
   24.4853   71.7526    3.9199 H   0  0  0  0  0  0  0  0  0  0  0  0
   27.0502   73.8010    1.8313 O   0  0  0  0  0  0  0  0  0  0  0  0
   27.3090   72.2569    0.1736 O   0  0  0  0  0  0  0  0  0  0  0  0
   26.5920   72.9176    0.9101 C   0  0  0  0  0  0  0  0  0  0  0  0
  1  4  1  0
  1 24  1  0
  1  2  1  1
  1  3  2  0
 25 28  1  0
 25 24  1  0
 25 26  1  1
 25 27  2  0
  6 11  1  0
  6 12  1  0
 29 36  1  0
 29 37  1  0
  9  7  1  6
  7 13  1  0
 10  8  1  6
  8 14  1  0
  4  5  1  0
 36 28  1  1
 33 30  1  1
 30 38  1  0
 34 31  1  1
 31 39  1  0
 35 32  1  1
 32 40  1  0
 41 43  1  0
 15 19  2  0
 42 43  2  0
 16 22  2  0
 12 17  1  1
 17 19  1  0
 17 20  1  0
 18 19  1  0
 18 22  1  0
 18 23  1  0
  9 10  1  0
  9 11  1  0
 10 12  1  0
 11  5  1  1
 33 34  1  0
 33 35  1  0
 34 36  1  0
 35 37  1  0
 37 43  1  6
 20 21  2  0
 21 22  1  0
M  CHG  3   2  -1  26  -1  41  -1
M  END
>  <COMPND>  (86) 
    udp_gluA.pdb 

>  <AUTHOR>  (86) 
    GENERATED BY OPEN BABEL 3.1.1

>  <MASTER>  (86) 
        0    0    0    0    0    0    0    0   56    0   56    0

>  <minimizedAffinity>  (86) 
-6.95749

>  <CNNscore>  (86) 
0.6254983544

>  <CNNaffinity>  (86) 
4.2874135971

>  <CNN_VS>  (86) 
2.6817700863

>  <CNNaffinity_variance>  (86) 
0.0273086373

$$$$
87
     RDKit          3D

 43 45  0  0  0  0  0  0  0  0999 V2000
   21.3410   71.1695   -2.0407 P   0  0  2  0  0  0  0  0  0  0  0  0
   21.9571   70.3712   -3.3063 O   0  0  0  0  0  0  0  0  0  0  0  0
   20.4098   70.3684   -1.1786 O   0  0  0  0  0  0  0  0  0  0  0  0
   20.7144   72.5103   -2.6946 O   0  0  0  0  0  0  0  0  0  0  0  0
   19.8910   72.3831   -3.8393 C   0  0  0  0  0  0  0  0  0  0  0  0
   20.3806   71.6957   -6.0899 O   0  0  0  0  0  0  0  0  0  0  0  0
   21.5645   74.4246   -6.4679 O   0  0  0  0  0  0  0  0  0  0  0  0
   19.1201   74.6663   -7.6522 O   0  0  0  0  0  0  0  0  0  0  0  0
   20.4256   74.0319   -5.7015 C   0  0  1  0  0  0  0  0  0  0  0  0
   19.2615   73.7165   -6.6166 C   0  0  2  0  0  0  0  0  0  0  0  0
   20.7218   72.6727   -5.0827 C   0  0  1  0  0  0  0  0  0  0  0  0
   19.6322   72.3374   -7.1347 C   0  0  2  0  0  0  0  0  0  0  0  0
   21.3989   75.2906   -6.8732 H   0  0  0  0  0  0  0  0  0  0  0  0
   18.8838   75.5272   -7.2713 H   0  0  0  0  0  0  0  0  0  0  0  0
   19.4400   70.5985   -9.3519 O   0  0  0  0  0  0  0  0  0  0  0  0
   15.1601   69.3229   -8.2120 O   0  0  0  0  0  0  0  0  0  0  0  0
   18.4792   71.5389   -7.4411 N   0  0  0  0  0  0  0  0  0  0  0  0
   17.3082   69.9656   -8.7826 N   0  0  0  0  0  0  0  0  0  0  0  0
   18.4850   70.6983   -8.5793 C   0  0  0  0  0  0  0  0  0  0  0  0
   17.3605   71.5918   -6.6186 C   0  0  0  0  0  0  0  0  0  0  0  0
   16.2461   70.8874   -6.8253 C   0  0  0  0  0  0  0  0  0  0  0  0
   16.1698   69.9853   -7.9931 C   0  0  0  0  0  0  0  0  0  0  0  0
   17.2877   69.3748   -9.5699 H   0  0  0  0  0  0  0  0  0  0  0  0
   22.6584   71.7172   -1.2808 O   0  0  0  0  0  0  0  0  0  0  0  0
   24.0569   72.2867   -1.8582 P   0  0  2  0  0  0  0  0  0  0  0  0
   23.6036   73.5868   -2.7094 O   0  0  0  0  0  0  0  0  0  0  0  0
   24.8548   71.2833   -2.6395 O   0  0  0  0  0  0  0  0  0  0  0  0
   24.8170   72.8889   -0.5689 O   0  0  0  0  0  0  0  0  0  0  0  0
   23.4986   72.6778    1.3872 O   0  0  0  0  0  0  0  0  0  0  0  0
   26.7275   74.8465    2.7796 O   0  0  0  0  0  0  0  0  0  0  0  0
   25.5335   75.4680    0.1868 O   0  0  0  0  0  0  0  0  0  0  0  0
   26.4908   72.0175    3.4053 O   0  0  0  0  0  0  0  0  0  0  0  0
   26.0554   73.8929    1.9568 C   0  0  2  0  0  0  0  0  0  0  0  0
   24.9605   74.5932    1.1518 C   0  0  2  0  0  0  0  0  0  0  0  0
   25.4456   72.8270    2.8699 C   0  0  1  0  0  0  0  0  0  0  0  0
   24.0720   73.5751    0.4356 C   0  0  1  0  0  0  0  0  0  0  0  0
   24.4753   71.9293    2.1075 C   0  0  1  0  0  0  0  0  0  0  0  0
   27.1232   75.5340    2.2210 H   0  0  0  0  0  0  0  0  0  0  0  0
   26.0988   76.1165    0.6343 H   0  0  0  0  0  0  0  0  0  0  0  0
   27.1155   72.5769    3.8930 H   0  0  0  0  0  0  0  0  0  0  0  0
   23.8236   71.5450    4.3277 O   0  0  0  0  0  0  0  0  0  0  0  0
   22.9102   70.2010    2.7281 O   0  0  0  0  0  0  0  0  0  0  0  0
   23.6479   71.1197    3.0521 C   0  0  0  0  0  0  0  0  0  0  0  0
  1  4  1  0
  1 24  1  0
  1  2  1  6
  1  3  2  0
 25 28  1  0
 25 24  1  0
 25 26  1  6
 25 27  2  0
  6 11  1  0
  6 12  1  0
 29 36  1  0
 29 37  1  0
  9  7  1  6
  7 13  1  0
 10  8  1  6
  8 14  1  0
  4  5  1  0
 36 28  1  6
 33 30  1  1
 30 38  1  0
 34 31  1  6
 31 39  1  0
 35 32  1  6
 32 40  1  0
 41 43  1  0
 15 19  2  0
 42 43  2  0
 16 22  2  0
 12 17  1  1
 17 19  1  0
 17 20  1  0
 18 19  1  0
 18 22  1  0
 18 23  1  0
  9 10  1  0
  9 11  1  0
 10 12  1  0
 11  5  1  1
 33 34  1  0
 33 35  1  0
 34 36  1  0
 35 37  1  0
 37 43  1  1
 20 21  2  0
 21 22  1  0
M  CHG  3   2  -1  26  -1  41  -1
M  END
>  <COMPND>  (87) 
    udp_gluA.pdb 

>  <AUTHOR>  (87) 
    GENERATED BY OPEN BABEL 3.1.1

>  <MASTER>  (87) 
        0    0    0    0    0    0    0    0   56    0   56    0

>  <minimizedAffinity>  (87) 
-7.22413

>  <CNNscore>  (87) 
0.6098676920

>  <CNNaffinity>  (87) 
4.3696269989

>  <CNN_VS>  (87) 
2.6648943424

>  <CNNaffinity_variance>  (87) 
0.0819246545

$$$$
88
     RDKit          3D

 43 45  0  0  0  0  0  0  0  0999 V2000
   23.1838   73.4972   -3.4384 P   0  0  2  0  0  0  0  0  0  0  0  0
   23.2455   75.0162   -3.9932 O   0  0  0  0  0  0  0  0  0  0  0  0
   24.1465   72.5463   -4.0870 O   0  0  0  0  0  0  0  0  0  0  0  0
   21.6191   73.1032   -3.5578 O   0  0  0  0  0  0  0  0  0  0  0  0
   20.8321   73.7499   -4.5412 C   0  0  0  0  0  0  0  0  0  0  0  0
   18.6168   73.5042   -5.4411 O   0  0  0  0  0  0  0  0  0  0  0  0
   17.8526   72.3955   -2.7619 O   0  0  0  0  0  0  0  0  0  0  0  0
   18.1305   70.1472   -4.2798 O   0  0  0  0  0  0  0  0  0  0  0  0
   19.0727   72.2442   -3.4878 C   0  0  1  0  0  0  0  0  0  0  0  0
   18.8787   71.2879   -4.6454 C   0  0  2  0  0  0  0  0  0  0  0  0
   19.3593   73.5571   -4.2036 C   0  0  1  0  0  0  0  0  0  0  0  0
   18.1570   72.1607   -5.6580 C   0  0  2  0  0  0  0  0  0  0  0  0
   17.6485   71.5690   -2.2960 H   0  0  0  0  0  0  0  0  0  0  0  0
   18.6326   69.6246   -3.6342 H   0  0  0  0  0  0  0  0  0  0  0  0
   16.3837   72.5210   -7.8264 O   0  0  0  0  0  0  0  0  0  0  0  0
   19.3674   70.6682  -10.8111 O   0  0  0  0  0  0  0  0  0  0  0  0
   18.4450   71.7815   -7.0123 N   0  0  0  0  0  0  0  0  0  0  0  0
   17.8711   71.5970   -9.3107 N   0  0  0  0  0  0  0  0  0  0  0  0
   17.4852   72.0061   -8.0274 C   0  0  0  0  0  0  0  0  0  0  0  0
   19.6662   71.1963   -7.3239 C   0  0  0  0  0  0  0  0  0  0  0  0
   20.0197   70.8117   -8.5519 C   0  0  0  0  0  0  0  0  0  0  0  0
   19.0737   71.0101   -9.6696 C   0  0  0  0  0  0  0  0  0  0  0  0
   17.2185   71.7412  -10.0337 H   0  0  0  0  0  0  0  0  0  0  0  0
   23.3911   73.6837   -1.8463 O   0  0  0  0  0  0  0  0  0  0  0  0
   22.8135   74.7946   -0.8236 P   0  0  2  0  0  0  0  0  0  0  0  0
   21.2794   74.9793   -1.3060 O   0  0  0  0  0  0  0  0  0  0  0  0
   23.6073   76.0683   -0.7853 O   0  0  0  0  0  0  0  0  0  0  0  0
   22.7056   74.0302    0.5929 O   0  0  0  0  0  0  0  0  0  0  0  0
   24.1125   74.0541    2.4980 O   0  0  0  0  0  0  0  0  0  0  0  0
   22.7587   70.1509    2.5016 O   0  0  0  0  0  0  0  0  0  0  0  0
   23.5421   71.4442    0.0020 O   0  0  0  0  0  0  0  0  0  0  0  0
   21.6771   72.0723    4.3962 O   0  0  0  0  0  0  0  0  0  0  0  0
   22.6809   71.5569    2.2674 C   0  0  2  0  0  0  0  0  0  0  0  0
   23.7870   71.9763    1.2988 C   0  0  2  0  0  0  0  0  0  0  0  0
   22.8510   72.2703    3.6106 C   0  0  1  0  0  0  0  0  0  0  0  0
   23.8812   73.4997    1.2024 C   0  0  1  0  0  0  0  0  0  0  0  0
   23.0646   73.7694    3.4221 C   0  0  1  0  0  0  0  0  0  0  0  0
   22.6533   69.6767    1.6618 H   0  0  0  0  0  0  0  0  0  0  0  0
   23.4809   70.4779    0.0558 H   0  0  0  0  0  0  0  0  0  0  0  0
   21.5296   71.1221    4.5234 H   0  0  0  0  0  0  0  0  0  0  0  0
   22.5145   74.6751    5.5146 O   0  0  0  0  0  0  0  0  0  0  0  0
   24.7225   74.6336    4.9472 O   0  0  0  0  0  0  0  0  0  0  0  0
   23.5521   74.3988    4.6864 C   0  0  0  0  0  0  0  0  0  0  0  0
  1  4  1  0
  1 24  1  0
  1  2  1  6
  1  3  2  0
 25 28  1  0
 25 24  1  0
 25 26  1  6
 25 27  2  0
  6 11  1  0
  6 12  1  0
 29 36  1  0
 29 37  1  0
  9  7  1  6
  7 13  1  0
 10  8  1  1
  8 14  1  0
  4  5  1  0
 36 28  1  1
 33 30  1  1
 30 38  1  0
 34 31  1  6
 31 39  1  0
 35 32  1  1
 32 40  1  0
 41 43  1  0
 15 19  2  0
 42 43  2  0
 16 22  2  0
 12 17  1  6
 17 19  1  0
 17 20  1  0
 18 19  1  0
 18 22  1  0
 18 23  1  0
  9 10  1  0
  9 11  1  0
 10 12  1  0
 11  5  1  6
 33 34  1  0
 33 35  1  0
 34 36  1  0
 35 37  1  0
 37 43  1  1
 20 21  2  0
 21 22  1  0
M  CHG  3   2  -1  26  -1  41  -1
M  END
>  <COMPND>  (88) 
    udp_gluA.pdb 

>  <AUTHOR>  (88) 
    GENERATED BY OPEN BABEL 3.1.1

>  <MASTER>  (88) 
        0    0    0    0    0    0    0    0   56    0   56    0

>  <minimizedAffinity>  (88) 
-6.51536

>  <CNNscore>  (88) 
0.5642049313

>  <CNNaffinity>  (88) 
4.2093052864

>  <CNN_VS>  (88) 
2.3749108315

>  <CNNaffinity_variance>  (88) 
0.0847836286

$$$$
89
     RDKit          3D

 43 45  0  0  0  0  0  0  0  0999 V2000
   23.6528   71.5169   -2.4404 P   0  0  2  0  0  0  0  0  0  0  0  0
   25.2454   71.6430   -2.6982 O   0  0  0  0  0  0  0  0  0  0  0  0
   23.0896   70.1372   -2.6169 O   0  0  0  0  0  0  0  0  0  0  0  0
   23.0140   72.6629   -3.3874 O   0  0  0  0  0  0  0  0  0  0  0  0
   22.0696   72.2792   -4.3699 C   0  0  0  0  0  0  0  0  0  0  0  0
   19.9313   73.1058   -5.0925 O   0  0  0  0  0  0  0  0  0  0  0  0
   18.8902   72.2009   -2.4300 O   0  0  0  0  0  0  0  0  0  0  0  0
   18.0734   70.2050   -4.0988 O   0  0  0  0  0  0  0  0  0  0  0  0
   19.8812   71.6005   -3.2643 C   0  0  1  0  0  0  0  0  0  0  0  0
   19.2286   70.9342   -4.4569 C   0  0  2  0  0  0  0  0  0  0  0  0
   20.6813   72.7169   -3.9213 C   0  0  1  0  0  0  0  0  0  0  0  0
   18.9164   72.1226   -5.3503 C   0  0  2  0  0  0  0  0  0  0  0  0
   18.3661   71.5071   -1.9992 H   0  0  0  0  0  0  0  0  0  0  0  0
   18.3249   69.4594   -3.5307 H   0  0  0  0  0  0  0  0  0  0  0  0
   16.8350   72.7007   -7.1698 O   0  0  0  0  0  0  0  0  0  0  0  0
   19.1164   70.7661  -10.6764 O   0  0  0  0  0  0  0  0  0  0  0  0
   18.9404   71.7813   -6.7445 N   0  0  0  0  0  0  0  0  0  0  0  0
   17.9728   71.7357   -8.9143 N   0  0  0  0  0  0  0  0  0  0  0  0
   17.8430   72.1169   -7.5724 C   0  0  0  0  0  0  0  0  0  0  0  0
   20.0417   71.1235   -7.2787 C   0  0  0  0  0  0  0  0  0  0  0  0
   20.1510   70.7668   -8.5599 C   0  0  0  0  0  0  0  0  0  0  0  0
   19.0479   71.0796   -9.4918 C   0  0  0  0  0  0  0  0  0  0  0  0
   17.2206   71.9568   -9.5097 H   0  0  0  0  0  0  0  0  0  0  0  0
   23.4756   72.1317   -0.9560 O   0  0  0  0  0  0  0  0  0  0  0  0
   22.1484   72.4336   -0.0836 P   0  0  2  0  0  0  0  0  0  0  0  0
   21.4456   70.9802    0.0355 O   0  0  0  0  0  0  0  0  0  0  0  0
   21.2644   73.5028   -0.6573 O   0  0  0  0  0  0  0  0  0  0  0  0
   22.6966   72.7436    1.4016 O   0  0  0  0  0  0  0  0  0  0  0  0
   24.7245   71.6000    1.8363 O   0  0  0  0  0  0  0  0  0  0  0  0
   23.9112   73.2970    5.5142 O   0  0  0  0  0  0  0  0  0  0  0  0
   21.7727   72.0796    3.9396 O   0  0  0  0  0  0  0  0  0  0  0  0
   25.9705   74.4338    3.8060 O   0  0  0  0  0  0  0  0  0  0  0  0
   23.9123   73.2137    4.0891 C   0  0  2  0  0  0  0  0  0  0  0  0
   23.1603   71.9572    3.6493 C   0  0  2  0  0  0  0  0  0  0  0  0
   25.3677   73.1545    3.6199 C   0  0  1  0  0  0  0  0  0  0  0  0
   23.3357   71.7112    2.1501 C   0  0  1  0  0  0  0  0  0  0  0  0
   25.4623   72.7809    2.1434 C   0  0  1  0  0  0  0  0  0  0  0  0
   22.9965   73.3357    5.8353 H   0  0  0  0  0  0  0  0  0  0  0  0
   21.6541   72.2361    4.8892 H   0  0  0  0  0  0  0  0  0  0  0  0
   25.9167   74.6835    4.7417 H   0  0  0  0  0  0  0  0  0  0  0  0
   27.6412   72.3330    2.8874 O   0  0  0  0  0  0  0  0  0  0  0  0
   27.2581   72.1904    0.6442 O   0  0  0  0  0  0  0  0  0  0  0  0
   26.8621   72.4059    1.7798 C   0  0  0  0  0  0  0  0  0  0  0  0
  1  4  1  0
  1 24  1  0
  1  2  1  6
  1  3  2  0
 25 28  1  0
 25 24  1  0
 25 26  1  1
 25 27  2  0
  6 11  1  0
  6 12  1  0
 29 36  1  0
 29 37  1  0
  9  7  1  1
  7 13  1  0
 10  8  1  1
  8 14  1  0
  4  5  1  0
 36 28  1  6
 33 30  1  1
 30 38  1  0
 34 31  1  6
 31 39  1  0
 35 32  1  6
 32 40  1  0
 41 43  1  0
 15 19  2  0
 42 43  2  0
 16 22  2  0
 12 17  1  6
 17 19  1  0
 17 20  1  0
 18 19  1  0
 18 22  1  0
 18 23  1  0
  9 10  1  0
  9 11  1  0
 10 12  1  0
 11  5  1  6
 33 34  1  0
 33 35  1  0
 34 36  1  0
 35 37  1  0
 37 43  1  1
 20 21  2  0
 21 22  1  0
M  CHG  3   2  -1  26  -1  41  -1
M  END
>  <COMPND>  (89) 
    udp_gluA.pdb 

>  <AUTHOR>  (89) 
    GENERATED BY OPEN BABEL 3.1.1

>  <MASTER>  (89) 
        0    0    0    0    0    0    0    0   56    0   56    0

>  <minimizedAffinity>  (89) 
-6.96744

>  <CNNscore>  (89) 
0.5380695462

>  <CNNaffinity>  (89) 
4.1591777802

>  <CNN_VS>  (89) 
2.2379269600

>  <CNNaffinity_variance>  (89) 
0.0951447785

$$$$
90
     RDKit          3D

 43 45  0  0  0  0  0  0  0  0999 V2000
   17.0134   73.2284   -0.6793 P   0  0  2  0  0  0  0  0  0  0  0  0
   18.4836   73.2399   -0.0031 O   0  0  0  0  0  0  0  0  0  0  0  0
   16.2186   74.4869   -0.4888 O   0  0  0  0  0  0  0  0  0  0  0  0
   16.3340   71.8752   -0.1091 O   0  0  0  0  0  0  0  0  0  0  0  0
   15.1699   71.3825   -0.7468 C   0  0  0  0  0  0  0  0  0  0  0  0
   15.5971   69.0479   -0.3662 O   0  0  0  0  0  0  0  0  0  0  0  0
   14.9895   68.6532   -3.2760 O   0  0  0  0  0  0  0  0  0  0  0  0
   12.6725   67.8677   -2.0715 O   0  0  0  0  0  0  0  0  0  0  0  0
   14.3980   69.5590   -2.3441 C   0  0  1  0  0  0  0  0  0  0  0  0
   13.4783   68.8136   -1.4003 C   0  0  2  0  0  0  0  0  0  0  0  0
   15.4920   70.0466   -1.4040 C   0  0  1  0  0  0  0  0  0  0  0  0
   14.4652   68.1669   -0.4433 C   0  0  2  0  0  0  0  0  0  0  0  0
   14.3096   68.3281   -3.8873 H   0  0  0  0  0  0  0  0  0  0  0  0
   12.0615   68.3288   -2.6682 H   0  0  0  0  0  0  0  0  0  0  0  0
   13.4729   65.7207    0.5605 O   0  0  0  0  0  0  0  0  0  0  0  0
   12.3913   67.6156    4.6205 O   0  0  0  0  0  0  0  0  0  0  0  0
   13.9186   67.9928    0.8726 N   0  0  0  0  0  0  0  0  0  0  0  0
   12.9342   66.6670    2.5813 N   0  0  0  0  0  0  0  0  0  0  0  0
   13.4471   66.7220    1.2786 C   0  0  0  0  0  0  0  0  0  0  0  0
   13.8551   69.0720    1.7457 C   0  0  0  0  0  0  0  0  0  0  0  0
   13.3636   69.0041    2.9845 C   0  0  0  0  0  0  0  0  0  0  0  0
   12.8495   67.7128    3.4861 C   0  0  0  0  0  0  0  0  0  0  0  0
   12.5980   65.7932    2.8857 H   0  0  0  0  0  0  0  0  0  0  0  0
   17.3260   72.8564   -2.2210 O   0  0  0  0  0  0  0  0  0  0  0  0
   18.6344   72.2041   -2.9112 P   0  0  2  0  0  0  0  0  0  0  0  0
   18.7667   70.7703   -2.1717 O   0  0  0  0  0  0  0  0  0  0  0  0
   19.8657   73.0591   -2.8274 O   0  0  0  0  0  0  0  0  0  0  0  0
   18.1690   71.8460   -4.4137 O   0  0  0  0  0  0  0  0  0  0  0  0
   17.7900   69.8600   -5.6472 O   0  0  0  0  0  0  0  0  0  0  0  0
   19.7579   72.2083   -8.4186 O   0  0  0  0  0  0  0  0  0  0  0  0
   20.6496   72.1380   -5.6375 O   0  0  0  0  0  0  0  0  0  0  0  0
   16.8857   71.8085   -8.6218 O   0  0  0  0  0  0  0  0  0  0  0  0
   18.9007   71.9449   -7.3079 C   0  0  2  0  0  0  0  0  0  0  0  0
   19.6944   71.2476   -6.2028 C   0  0  2  0  0  0  0  0  0  0  0  0
   17.7610   71.0461   -7.7928 C   0  0  1  0  0  0  0  0  0  0  0  0
   18.7661   70.7449   -5.0963 C   0  0  1  0  0  0  0  0  0  0  0  0
   16.9584   70.4841   -6.6230 C   0  0  1  0  0  0  0  0  0  0  0  0
   20.4900   72.7779   -8.1343 H   0  0  0  0  0  0  0  0  0  0  0  0
   21.2418   72.4611   -6.3341 H   0  0  0  0  0  0  0  0  0  0  0  0
   17.3842   72.1720   -9.3702 H   0  0  0  0  0  0  0  0  0  0  0  0
   15.9915   69.3391   -8.4273 O   0  0  0  0  0  0  0  0  0  0  0  0
   15.5030   68.5817   -6.3328 O   0  0  0  0  0  0  0  0  0  0  0  0
   16.0743   69.3673   -7.0740 C   0  0  0  0  0  0  0  0  0  0  0  0
  1  4  1  0
  1 24  1  0
  1  2  1  1
  1  3  2  0
 25 28  1  0
 25 24  1  0
 25 26  1  1
 25 27  2  0
  6 11  1  0
  6 12  1  0
 29 36  1  0
 29 37  1  0
  9  7  1  6
  7 13  1  0
 10  8  1  6
  8 14  1  0
  4  5  1  0
 36 28  1  6
 33 30  1  6
 30 38  1  0
 34 31  1  1
 31 39  1  0
 35 32  1  6
 32 40  1  0
 41 43  1  0
 15 19  2  0
 42 43  2  0
 16 22  2  0
 12 17  1  1
 17 19  1  0
 17 20  1  0
 18 19  1  0
 18 22  1  0
 18 23  1  0
  9 10  1  0
  9 11  1  0
 10 12  1  0
 11  5  1  1
 33 34  1  0
 33 35  1  0
 34 36  1  0
 35 37  1  0
 37 43  1  6
 20 21  2  0
 21 22  1  0
M  CHG  3   2  -1  26  -1  41  -1
M  END
>  <COMPND>  (90) 
    udp_gluA.pdb 

>  <AUTHOR>  (90) 
    GENERATED BY OPEN BABEL 3.1.1

>  <MASTER>  (90) 
        0    0    0    0    0    0    0    0   56    0   56    0

>  <minimizedAffinity>  (90) 
-6.71969

>  <CNNscore>  (90) 
0.5072210431

>  <CNNaffinity>  (90) 
4.0944657326

>  <CNN_VS>  (90) 
2.0767991543

>  <CNNaffinity_variance>  (90) 
0.2609146237

$$$$
91
     RDKit          3D

 43 45  0  0  0  0  0  0  0  0999 V2000
   21.7154   73.8133   -3.5072 P   0  0  2  0  0  0  0  0  0  0  0  0
   20.5313   73.2741   -2.5449 O   0  0  0  0  0  0  0  0  0  0  0  0
   21.8457   75.3066   -3.5756 O   0  0  0  0  0  0  0  0  0  0  0  0
   21.4412   73.0667   -4.9162 O   0  0  0  0  0  0  0  0  0  0  0  0
   20.1622   72.5046   -5.1459 C   0  0  0  0  0  0  0  0  0  0  0  0
   19.0076   70.6717   -6.1875 O   0  0  0  0  0  0  0  0  0  0  0  0
   21.5439   70.1825   -7.7104 O   0  0  0  0  0  0  0  0  0  0  0  0
   19.9942   71.4858   -9.5368 O   0  0  0  0  0  0  0  0  0  0  0  0
   20.9575   71.4196   -7.3052 C   0  0  1  0  0  0  0  0  0  0  0  0
   19.7543   71.7366   -8.1678 C   0  0  2  0  0  0  0  0  0  0  0  0
   20.3228   71.2127   -5.9368 C   0  0  1  0  0  0  0  0  0  0  0  0
   18.6954   70.8184   -7.5819 C   0  0  2  0  0  0  0  0  0  0  0  0
   21.9559   70.2898   -8.5824 H   0  0  0  0  0  0  0  0  0  0  0  0
   20.6752   72.0957   -9.8627 H   0  0  0  0  0  0  0  0  0  0  0  0
   16.4304   69.3182   -8.3538 O   0  0  0  0  0  0  0  0  0  0  0  0
   13.6637   72.9910   -8.0388 O   0  0  0  0  0  0  0  0  0  0  0  0
   17.3710   71.3575   -7.7096 N   0  0  0  0  0  0  0  0  0  0  0  0
   15.0548   71.1491   -8.1972 N   0  0  0  0  0  0  0  0  0  0  0  0
   16.3023   70.5182   -8.1040 C   0  0  0  0  0  0  0  0  0  0  0  0
   17.1409   72.7019   -7.4440 C   0  0  0  0  0  0  0  0  0  0  0  0
   15.9461   73.2889   -7.5370 C   0  0  0  0  0  0  0  0  0  0  0  0
   14.7766   72.4826   -7.9439 C   0  0  0  0  0  0  0  0  0  0  0  0
   14.2957   70.5856   -8.4721 H   0  0  0  0  0  0  0  0  0  0  0  0
   23.0213   73.0487   -2.9390 O   0  0  0  0  0  0  0  0  0  0  0  0
   23.1927   71.5754   -2.2957 P   0  0  2  0  0  0  0  0  0  0  0  0
   24.7969   71.3594   -2.2883 O   0  0  0  0  0  0  0  0  0  0  0  0
   22.4270   70.4991   -3.0092 O   0  0  0  0  0  0  0  0  0  0  0  0
   22.7994   71.7590   -0.7419 O   0  0  0  0  0  0  0  0  0  0  0  0
   24.0026   73.6406    0.0459 O   0  0  0  0  0  0  0  0  0  0  0  0
   21.8452   72.5582    3.3988 O   0  0  0  0  0  0  0  0  0  0  0  0
   23.1086   70.5208    1.7294 O   0  0  0  0  0  0  0  0  0  0  0  0
   21.0380   74.8664    1.8267 O   0  0  0  0  0  0  0  0  0  0  0  0
   22.0932   72.7075    2.0009 C   0  0  2  0  0  0  0  0  0  0  0  0
   23.3456   71.9193    1.6164 C   0  0  2  0  0  0  0  0  0  0  0  0
   22.2924   74.1971    1.7123 C   0  0  1  0  0  0  0  0  0  0  0  0
   23.7739   72.2377    0.1832 C   0  0  1  0  0  0  0  0  0  0  0  0
   22.8398   74.4238    0.3061 C   0  0  1  0  0  0  0  0  0  0  0  0
   21.7155   71.6193    3.6060 H   0  0  0  0  0  0  0  0  0  0  0  0
   22.8362   70.3117    2.6362 H   0  0  0  0  0  0  0  0  0  0  0  0
   20.6786   74.7299    2.7172 H   0  0  0  0  0  0  0  0  0  0  0  0
   23.5475   76.3954    1.3613 O   0  0  0  0  0  0  0  0  0  0  0  0
   23.5310   76.3842   -0.9188 O   0  0  0  0  0  0  0  0  0  0  0  0
   23.3365   75.8242    0.1496 C   0  0  0  0  0  0  0  0  0  0  0  0
  1  4  1  0
  1 24  1  0
  1  2  1  1
  1  3  2  0
 25 28  1  0
 25 24  1  0
 25 26  1  1
 25 27  2  0
  6 11  1  0
  6 12  1  0
 29 36  1  0
 29 37  1  0
  9  7  1  6
  7 13  1  0
 10  8  1  6
  8 14  1  0
  4  5  1  0
 36 28  1  6
 33 30  1  1
 30 38  1  0
 34 31  1  6
 31 39  1  0
 35 32  1  6
 32 40  1  0
 41 43  1  0
 15 19  2  0
 42 43  2  0
 16 22  2  0
 12 17  1  1
 17 19  1  0
 17 20  1  0
 18 19  1  0
 18 22  1  0
 18 23  1  0
  9 10  1  0
  9 11  1  0
 10 12  1  0
 11  5  1  6
 33 34  1  0
 33 35  1  0
 34 36  1  0
 35 37  1  0
 37 43  1  1
 20 21  2  0
 21 22  1  0
M  CHG  3   2  -1  26  -1  41  -1
M  END
>  <COMPND>  (91) 
    udp_gluA.pdb 

>  <AUTHOR>  (91) 
    GENERATED BY OPEN BABEL 3.1.1

>  <MASTER>  (91) 
        0    0    0    0    0    0    0    0   56    0   56    0

>  <minimizedAffinity>  (91) 
-5.99325

>  <CNNscore>  (91) 
0.4813720584

>  <CNNaffinity>  (91) 
4.2583212852

>  <CNN_VS>  (91) 
2.0498368740

>  <CNNaffinity_variance>  (91) 
0.0125148324

$$$$
92
     RDKit          3D

 43 45  0  0  0  0  0  0  0  0999 V2000
   21.1444   74.0520   -3.6305 P   0  0  2  0  0  0  0  0  0  0  0  0
   19.5389   74.2518   -3.6666 O   0  0  0  0  0  0  0  0  0  0  0  0
   21.9304   75.2920   -3.3202 O   0  0  0  0  0  0  0  0  0  0  0  0
   21.4797   73.3436   -5.0461 O   0  0  0  0  0  0  0  0  0  0  0  0
   20.4109   73.0606   -5.9304 C   0  0  0  0  0  0  0  0  0  0  0  0
   19.1603   71.0565   -6.3747 O   0  0  0  0  0  0  0  0  0  0  0  0
   21.5740   70.1060   -7.8786 O   0  0  0  0  0  0  0  0  0  0  0  0
   19.9146   70.9346   -9.8776 O   0  0  0  0  0  0  0  0  0  0  0  0
   21.0347   71.4239   -7.7756 C   0  0  1  0  0  0  0  0  0  0  0  0
   19.7770   71.5423   -8.6101 C   0  0  2  0  0  0  0  0  0  0  0  0
   20.4972   71.6024   -6.3623 C   0  0  1  0  0  0  0  0  0  0  0  0
   18.7507   70.8432   -7.7349 C   0  0  2  0  0  0  0  0  0  0  0  0
   21.9237   69.9684   -8.7733 H   0  0  0  0  0  0  0  0  0  0  0  0
   20.5785   71.4161  -10.3966 H   0  0  0  0  0  0  0  0  0  0  0  0
   16.3871   69.3028   -7.6052 O   0  0  0  0  0  0  0  0  0  0  0  0
   13.7300   72.9770   -8.4323 O   0  0  0  0  0  0  0  0  0  0  0  0
   17.4279   71.3718   -7.9125 N   0  0  0  0  0  0  0  0  0  0  0  0
   15.0660   71.1341   -8.0182 N   0  0  0  0  0  0  0  0  0  0  0  0
   16.3071   70.5123   -7.8280 C   0  0  0  0  0  0  0  0  0  0  0  0
   17.2506   72.7266   -8.1655 C   0  0  0  0  0  0  0  0  0  0  0  0
   16.0613   73.3048   -8.3445 C   0  0  0  0  0  0  0  0  0  0  0  0
   14.8394   72.4770   -8.2729 C   0  0  0  0  0  0  0  0  0  0  0  0
   14.2710   70.5556   -7.9660 H   0  0  0  0  0  0  0  0  0  0  0  0
   21.3367   72.8493   -2.5678 O   0  0  0  0  0  0  0  0  0  0  0  0
   20.7378   72.6413   -1.0806 P   0  0  2  0  0  0  0  0  0  0  0  0
   20.6468   74.1511   -0.5039 O   0  0  0  0  0  0  0  0  0  0  0  0
   21.5319   71.6987   -0.2233 O   0  0  0  0  0  0  0  0  0  0  0  0
   19.2034   72.2018   -1.3150 O   0  0  0  0  0  0  0  0  0  0  0  0
   17.6505   70.6385   -0.4468 O   0  0  0  0  0  0  0  0  0  0  0  0
   17.1721   70.1263   -4.5183 O   0  0  0  0  0  0  0  0  0  0  0  0
   19.8395   70.4365   -3.3681 O   0  0  0  0  0  0  0  0  0  0  0  0
   15.1806   71.5900   -2.9878 O   0  0  0  0  0  0  0  0  0  0  0  0
   17.4495   70.8504   -3.3196 C   0  0  2  0  0  0  0  0  0  0  0  0
   18.6526   70.2268   -2.6118 C   0  0  2  0  0  0  0  0  0  0  0  0
   16.2095   70.7778   -2.4256 C   0  0  1  0  0  0  0  0  0  0  0  0
   18.8382   70.8263   -1.2172 C   0  0  1  0  0  0  0  0  0  0  0  0
   16.5096   71.2774   -1.0153 C   0  0  1  0  0  0  0  0  0  0  0  0
   17.9462   70.1585   -5.1022 H   0  0  0  0  0  0  0  0  0  0  0  0
   19.7287   70.0588   -4.2543 H   0  0  0  0  0  0  0  0  0  0  0  0
   14.9802   71.2825   -3.8856 H   0  0  0  0  0  0  0  0  0  0  0  0
   14.4256   71.8331   -0.0934 O   0  0  0  0  0  0  0  0  0  0  0  0
   15.3943   69.8952    0.6178 O   0  0  0  0  0  0  0  0  0  0  0  0
   15.4113   70.9018   -0.0746 C   0  0  0  0  0  0  0  0  0  0  0  0
  1  4  1  0
  1 24  1  0
  1  2  1  6
  1  3  2  0
 25 28  1  0
 25 24  1  0
 25 26  1  1
 25 27  2  0
  6 11  1  0
  6 12  1  0
 29 36  1  0
 29 37  1  0
  9  7  1  1
  7 13  1  0
 10  8  1  6
  8 14  1  0
  4  5  1  0
 36 28  1  6
 33 30  1  6
 30 38  1  0
 34 31  1  6
 31 39  1  0
 35 32  1  6
 32 40  1  0
 41 43  1  0
 15 19  2  0
 42 43  2  0
 16 22  2  0
 12 17  1  1
 17 19  1  0
 17 20  1  0
 18 19  1  0
 18 22  1  0
 18 23  1  0
  9 10  1  0
  9 11  1  0
 10 12  1  0
 11  5  1  6
 33 34  1  0
 33 35  1  0
 34 36  1  0
 35 37  1  0
 37 43  1  1
 20 21  2  0
 21 22  1  0
M  CHG  3   2  -1  26  -1  41  -1
M  END
>  <COMPND>  (92) 
    udp_gluA.pdb 

>  <AUTHOR>  (92) 
    GENERATED BY OPEN BABEL 3.1.1

>  <MASTER>  (92) 
        0    0    0    0    0    0    0    0   56    0   56    0

>  <minimizedAffinity>  (92) 
-5.45457

>  <CNNscore>  (92) 
0.4611977637

>  <CNNaffinity>  (92) 
4.2061042786

>  <CNN_VS>  (92) 
1.9398459196

>  <CNNaffinity_variance>  (92) 
0.0324752815

$$$$
93
     RDKit          3D

 43 45  0  0  0  0  0  0  0  0999 V2000
   21.6442   74.4105   -1.2722 P   0  0  2  0  0  0  0  0  0  0  0  0
   22.5860   75.3278   -0.3286 O   0  0  0  0  0  0  0  0  0  0  0  0
   20.5063   75.1360   -1.9285 O   0  0  0  0  0  0  0  0  0  0  0  0
   21.2303   73.1700   -0.3195 O   0  0  0  0  0  0  0  0  0  0  0  0
   21.7966   73.0940    0.9759 C   0  0  0  0  0  0  0  0  0  0  0  0
   23.9156   72.0561    0.5173 O   0  0  0  0  0  0  0  0  0  0  0  0
   23.1196   69.9741    2.5231 O   0  0  0  0  0  0  0  0  0  0  0  0
   24.8192   71.5580    3.9509 O   0  0  0  0  0  0  0  0  0  0  0  0
   22.8578   71.3777    2.5252 C   0  0  1  0  0  0  0  0  0  0  0  0
   24.1149   72.1448    2.8766 C   0  0  2  0  0  0  0  0  0  0  0  0
   22.6112   71.8117    1.0868 C   0  0  1  0  0  0  0  0  0  0  0  0
   24.8907   72.0936    1.5714 C   0  0  2  0  0  0  0  0  0  0  0  0
   23.2803   69.6735    3.4317 H   0  0  0  0  0  0  0  0  0  0  0  0
   24.2838   71.6158    4.7584 H   0  0  0  0  0  0  0  0  0  0  0  0
   27.4852   72.0096    0.4588 O   0  0  0  0  0  0  0  0  0  0  0  0
   28.0275   76.5636    0.9178 O   0  0  0  0  0  0  0  0  0  0  0  0
   25.7319   73.2424    1.3886 N   0  0  0  0  0  0  0  0  0  0  0  0
   27.7533   74.2777    0.6894 N   0  0  0  0  0  0  0  0  0  0  0  0
   27.0190   73.0916    0.8203 C   0  0  0  0  0  0  0  0  0  0  0  0
   25.2801   74.5004    1.7683 C   0  0  0  0  0  0  0  0  0  0  0  0
   25.9915   75.6218    1.6372 C   0  0  0  0  0  0  0  0  0  0  0  0
   27.3469   75.5513    1.0531 C   0  0  0  0  0  0  0  0  0  0  0  0
   28.6532   74.1976    0.2982 H   0  0  0  0  0  0  0  0  0  0  0  0
   22.6993   73.7436   -2.2993 O   0  0  0  0  0  0  0  0  0  0  0  0
   22.8380   73.8641   -3.9055 P   0  0  2  0  0  0  0  0  0  0  0  0
   24.1199   72.9328   -4.2369 O   0  0  0  0  0  0  0  0  0  0  0  0
   22.9507   75.2736   -4.4099 O   0  0  0  0  0  0  0  0  0  0  0  0
   21.5771   73.0434   -4.4879 O   0  0  0  0  0  0  0  0  0  0  0  0
   20.9659   71.1186   -3.2508 O   0  0  0  0  0  0  0  0  0  0  0  0
   18.7056   70.6671   -6.6794 O   0  0  0  0  0  0  0  0  0  0  0  0
   21.4804   71.5663   -6.8427 O   0  0  0  0  0  0  0  0  0  0  0  0
   17.4499   71.5453   -4.2090 O   0  0  0  0  0  0  0  0  0  0  0  0
   19.3769   71.3889   -5.6468 C   0  0  2  0  0  0  0  0  0  0  0  0
   20.8669   71.0466   -5.6687 C   0  0  2  0  0  0  0  0  0  0  0  0
   18.7574   70.9839   -4.3073 C   0  0  1  0  0  0  0  0  0  0  0  0
   21.5775   71.6178   -4.4408 C   0  0  1  0  0  0  0  0  0  0  0  0
   19.5930   71.4852   -3.1329 C   0  0  1  0  0  0  0  0  0  0  0  0
   19.0826   70.9082   -7.5403 H   0  0  0  0  0  0  0  0  0  0  0  0
   21.0342   71.2083   -7.6257 H   0  0  0  0  0  0  0  0  0  0  0  0
   16.9079   71.2343   -4.9509 H   0  0  0  0  0  0  0  0  0  0  0  0
   17.9018   71.1551   -1.5415 O   0  0  0  0  0  0  0  0  0  0  0  0
   19.8782   70.0708   -1.1991 O   0  0  0  0  0  0  0  0  0  0  0  0
   19.1757   70.8188   -1.8624 C   0  0  0  0  0  0  0  0  0  0  0  0
  1  4  1  0
  1 24  1  0
  1  2  1  1
  1  3  2  0
 25 28  1  0
 25 24  1  0
 25 26  1  6
 25 27  2  0
  6 11  1  0
  6 12  1  0
 29 36  1  0
 29 37  1  0
  9  7  1  6
  7 13  1  0
 10  8  1  1
  8 14  1  0
  4  5  1  0
 36 28  1  1
 33 30  1  6
 30 38  1  0
 34 31  1  6
 31 39  1  0
 35 32  1  1
 32 40  1  0
 41 43  1  0
 15 19  2  0
 42 43  2  0
 16 22  2  0
 12 17  1  6
 17 19  1  0
 17 20  1  0
 18 19  1  0
 18 22  1  0
 18 23  1  0
  9 10  1  0
  9 11  1  0
 10 12  1  0
 11  5  1  1
 33 34  1  0
 33 35  1  0
 34 36  1  0
 35 37  1  0
 37 43  1  1
 20 21  2  0
 21 22  1  0
M  CHG  3   2  -1  26  -1  41  -1
M  END
>  <COMPND>  (93) 
    udp_gluA.pdb 

>  <AUTHOR>  (93) 
    GENERATED BY OPEN BABEL 3.1.1

>  <MASTER>  (93) 
        0    0    0    0    0    0    0    0   56    0   56    0

>  <minimizedAffinity>  (93) 
-6.30847

>  <CNNscore>  (93) 
0.4581293464

>  <CNNaffinity>  (93) 
3.9460129738

>  <CNN_VS>  (93) 
1.8077843189

>  <CNNaffinity_variance>  (93) 
0.5802520514

$$$$
94
     RDKit          3D

 43 45  0  0  0  0  0  0  0  0999 V2000
   23.1971   73.2200   -3.7888 P   0  0  2  0  0  0  0  0  0  0  0  0
   23.4313   74.8000   -4.0490 O   0  0  0  0  0  0  0  0  0  0  0  0
   24.3400   72.3353   -4.1922 O   0  0  0  0  0  0  0  0  0  0  0  0
   21.7820   72.9129   -4.5107 O   0  0  0  0  0  0  0  0  0  0  0  0
   21.3126   71.5775   -4.5379 C   0  0  0  0  0  0  0  0  0  0  0  0
   19.2459   70.5075   -5.1392 O   0  0  0  0  0  0  0  0  0  0  0  0
   18.9209   72.6916   -7.1678 O   0  0  0  0  0  0  0  0  0  0  0  0
   17.2809   73.5063   -5.1472 O   0  0  0  0  0  0  0  0  0  0  0  0
   19.4814   72.7528   -5.8561 C   0  0  1  0  0  0  0  0  0  0  0  0
   18.3847   72.6906   -4.8141 C   0  0  2  0  0  0  0  0  0  0  0  0
   20.2331   71.4527   -5.6054 C   0  0  1  0  0  0  0  0  0  0  0  0
   18.0382   71.2115   -4.8087 C   0  0  2  0  0  0  0  0  0  0  0  0
   18.4354   73.5117   -7.3509 H   0  0  0  0  0  0  0  0  0  0  0  0
   17.5526   74.4380   -5.1367 H   0  0  0  0  0  0  0  0  0  0  0  0
   15.6087   69.8339   -4.3890 O   0  0  0  0  0  0  0  0  0  0  0  0
   16.3498   69.5373    0.1505 O   0  0  0  0  0  0  0  0  0  0  0  0
   17.5718   70.7626   -3.5274 N   0  0  0  0  0  0  0  0  0  0  0  0
   15.9796   69.6884   -2.1284 N   0  0  0  0  0  0  0  0  0  0  0  0
   16.3368   70.0796   -3.4254 C   0  0  0  0  0  0  0  0  0  0  0  0
   18.3347   70.9981   -2.3901 C   0  0  0  0  0  0  0  0  0  0  0  0
   17.9812   70.6189   -1.1605 C   0  0  0  0  0  0  0  0  0  0  0  0
   16.7046   69.9005   -0.9669 C   0  0  0  0  0  0  0  0  0  0  0  0
   15.1228   69.2130   -2.0319 H   0  0  0  0  0  0  0  0  0  0  0  0
   22.8233   73.1626   -2.2172 O   0  0  0  0  0  0  0  0  0  0  0  0
   22.7400   71.9163   -1.1908 P   0  0  2  0  0  0  0  0  0  0  0  0
   23.4324   70.7092   -2.0178 O   0  0  0  0  0  0  0  0  0  0  0  0
   21.3537   71.6143   -0.7000 O   0  0  0  0  0  0  0  0  0  0  0  0
   23.7993   72.2728   -0.0274 O   0  0  0  0  0  0  0  0  0  0  0  0
   23.2687   72.6131    2.2555 O   0  0  0  0  0  0  0  0  0  0  0  0
   26.7541   74.7971    1.8679 O   0  0  0  0  0  0  0  0  0  0  0  0
   24.7055   74.8959   -0.2125 O   0  0  0  0  0  0  0  0  0  0  0  0
   26.7923   72.2118    3.1966 O   0  0  0  0  0  0  0  0  0  0  0  0
   25.8448   73.7332    1.5864 C   0  0  2  0  0  0  0  0  0  0  0  0
   24.5257   74.3100    1.0717 C   0  0  2  0  0  0  0  0  0  0  0  0
   25.6146   72.9526    2.8824 C   0  0  1  0  0  0  0  0  0  0  0  0
   23.4533   73.2238    0.9779 C   0  0  1  0  0  0  0  0  0  0  0  0
   24.4476   71.9788    2.7464 C   0  0  1  0  0  0  0  0  0  0  0  0
   26.9155   75.3074    1.0586 H   0  0  0  0  0  0  0  0  0  0  0  0
   25.3849   75.5859   -0.1604 H   0  0  0  0  0  0  0  0  0  0  0  0
   27.5427   72.8199    3.2857 H   0  0  0  0  0  0  0  0  0  0  0  0
   24.7491   70.3807    4.4366 O   0  0  0  0  0  0  0  0  0  0  0  0
   23.1434   71.9636    4.7763 O   0  0  0  0  0  0  0  0  0  0  0  0
   24.0222   71.4703    4.0854 C   0  0  0  0  0  0  0  0  0  0  0  0
  1  4  1  0
  1 24  1  0
  1  2  1  6
  1  3  2  0
 25 28  1  0
 25 24  1  0
 25 26  1  6
 25 27  2  0
  6 11  1  0
  6 12  1  0
 29 36  1  0
 29 37  1  0
  9  7  1  6
  7 13  1  0
 10  8  1  6
  8 14  1  0
  4  5  1  0
 36 28  1  6
 33 30  1  1
 30 38  1  0
 34 31  1  6
 31 39  1  0
 35 32  1  6
 32 40  1  0
 41 43  1  0
 15 19  2  0
 42 43  2  0
 16 22  2  0
 12 17  1  1
 17 19  1  0
 17 20  1  0
 18 19  1  0
 18 22  1  0
 18 23  1  0
  9 10  1  0
  9 11  1  0
 10 12  1  0
 11  5  1  1
 33 34  1  0
 33 35  1  0
 34 36  1  0
 35 37  1  0
 37 43  1  1
 20 21  2  0
 21 22  1  0
M  CHG  3   2  -1  26  -1  41  -1
M  END
>  <COMPND>  (94) 
    udp_gluA.pdb 

>  <AUTHOR>  (94) 
    GENERATED BY OPEN BABEL 3.1.1

>  <MASTER>  (94) 
        0    0    0    0    0    0    0    0   56    0   56    0

>  <minimizedAffinity>  (94) 
-6.39413

>  <CNNscore>  (94) 
0.4561927915

>  <CNNaffinity>  (94) 
4.0774884224

>  <CNN_VS>  (94) 
1.8601207733

>  <CNNaffinity_variance>  (94) 
0.0581661239

$$$$
95
     RDKit          3D

 43 45  0  0  0  0  0  0  0  0999 V2000
   21.3956   72.3893   -0.4225 P   0  0  2  0  0  0  0  0  0  0  0  0
   20.1990   73.0345    0.4554 O   0  0  0  0  0  0  0  0  0  0  0  0
   22.3615   73.3806   -1.0023 O   0  0  0  0  0  0  0  0  0  0  0  0
   20.6289   71.4474   -1.4915 O   0  0  0  0  0  0  0  0  0  0  0  0
   20.2982   71.9908   -2.7564 C   0  0  0  0  0  0  0  0  0  0  0  0
   20.9966   70.7836   -4.7141 O   0  0  0  0  0  0  0  0  0  0  0  0
   23.2223   72.7820   -4.9248 O   0  0  0  0  0  0  0  0  0  0  0  0
   21.4374   73.6801   -6.7806 O   0  0  0  0  0  0  0  0  0  0  0  0
   21.8740   72.9730   -4.4955 C   0  0  1  0  0  0  0  0  0  0  0  0
   20.9365   72.9445   -5.6840 C   0  0  2  0  0  0  0  0  0  0  0  0
   21.4468   71.7324   -3.7230 C   0  0  1  0  0  0  0  0  0  0  0  0
   20.8395   71.4563   -5.9736 C   0  0  2  0  0  0  0  0  0  0  0  0
   23.5175   73.5620   -5.4209 H   0  0  0  0  0  0  0  0  0  0  0  0
   21.4799   74.6210   -6.5464 H   0  0  0  0  0  0  0  0  0  0  0  0
   20.2422   71.5629   -8.7319 O   0  0  0  0  0  0  0  0  0  0  0  0
   15.9502   70.0283   -8.0480 O   0  0  0  0  0  0  0  0  0  0  0  0
   19.5738   71.0903   -6.5437 N   0  0  0  0  0  0  0  0  0  0  0  0
   18.1048   70.7995   -8.3885 N   0  0  0  0  0  0  0  0  0  0  0  0
   19.3769   71.1805   -7.9419 C   0  0  0  0  0  0  0  0  0  0  0  0
   18.5451   70.6466   -5.7215 C   0  0  0  0  0  0  0  0  0  0  0  0
   17.3379   70.2868   -6.1619 C   0  0  0  0  0  0  0  0  0  0  0  0
   17.0498   70.3524   -7.6097 C   0  0  0  0  0  0  0  0  0  0  0  0
   17.9433   70.8557   -9.3581 H   0  0  0  0  0  0  0  0  0  0  0  0
   22.0567   71.3210    0.5947 O   0  0  0  0  0  0  0  0  0  0  0  0
   22.7211   71.5169    2.0554 P   0  0  2  0  0  0  0  0  0  0  0  0
   22.8411   70.0021    2.6134 O   0  0  0  0  0  0  0  0  0  0  0  0
   21.9643   72.4496    2.9562 O   0  0  0  0  0  0  0  0  0  0  0  0
   24.2425   71.9625    1.7566 O   0  0  0  0  0  0  0  0  0  0  0  0
   24.9628   74.0217    2.6785 O   0  0  0  0  0  0  0  0  0  0  0  0
   27.9796   73.2100   -0.0248 O   0  0  0  0  0  0  0  0  0  0  0  0
   25.1856   72.7453   -0.7402 O   0  0  0  0  0  0  0  0  0  0  0  0
   28.4252   72.8161    2.8208 O   0  0  0  0  0  0  0  0  0  0  0  0
   26.9527   72.8947    0.9154 C   0  0  2  0  0  0  0  0  0  0  0  0
   25.6168   73.4485    0.4191 C   0  0  2  0  0  0  0  0  0  0  0  0
   27.3274   73.5305    2.2560 C   0  0  1  0  0  0  0  0  0  0  0  0
   24.5413   73.3335    1.5003 C   0  0  1  0  0  0  0  0  0  0  0  0
   26.1605   73.4879    3.2384 C   0  0  1  0  0  0  0  0  0  0  0  0
   27.7630   72.8162   -0.8846 H   0  0  0  0  0  0  0  0  0  0  0  0
   25.8634   72.8138   -1.4303 H   0  0  0  0  0  0  0  0  0  0  0  0
   29.1746   72.8355    2.2053 H   0  0  0  0  0  0  0  0  0  0  0  0
   27.2947   73.8165    5.2650 O   0  0  0  0  0  0  0  0  0  0  0  0
   25.9080   75.4863    4.5665 O   0  0  0  0  0  0  0  0  0  0  0  0
   26.4155   74.3867    4.4043 C   0  0  0  0  0  0  0  0  0  0  0  0
  1  4  1  0
  1 24  1  0
  1  2  1  1
  1  3  2  0
 25 28  1  0
 25 24  1  0
 25 26  1  1
 25 27  2  0
  6 11  1  0
  6 12  1  0
 29 36  1  0
 29 37  1  0
  9  7  1  6
  7 13  1  0
 10  8  1  6
  8 14  1  0
  4  5  1  0
 36 28  1  1
 33 30  1  6
 30 38  1  0
 34 31  1  6
 31 39  1  0
 35 32  1  1
 32 40  1  0
 41 43  1  0
 15 19  2  0
 42 43  2  0
 16 22  2  0
 12 17  1  1
 17 19  1  0
 17 20  1  0
 18 19  1  0
 18 22  1  0
 18 23  1  0
  9 10  1  0
  9 11  1  0
 10 12  1  0
 11  5  1  1
 33 34  1  0
 33 35  1  0
 34 36  1  0
 35 37  1  0
 37 43  1  1
 20 21  2  0
 21 22  1  0
M  CHG  3   2  -1  26  -1  41  -1
M  END
>  <COMPND>  (95) 
    udp_gluA.pdb 

>  <AUTHOR>  (95) 
    GENERATED BY OPEN BABEL 3.1.1

>  <MASTER>  (95) 
        0    0    0    0    0    0    0    0   56    0   56    0

>  <minimizedAffinity>  (95) 
-6.59943

>  <CNNscore>  (95) 
0.4558658898

>  <CNNaffinity>  (95) 
4.2018456459

>  <CNN_VS>  (95) 
1.9154781103

>  <CNNaffinity_variance>  (95) 
0.0652038902

$$$$
96
     RDKit          3D

 43 45  0  0  0  0  0  0  0  0999 V2000
   22.1190   74.5254   -4.0719 P   0  0  2  0  0  0  0  0  0  0  0  0
   20.8740   75.4010   -3.5222 O   0  0  0  0  0  0  0  0  0  0  0  0
   23.4331   75.2488   -4.1132 O   0  0  0  0  0  0  0  0  0  0  0  0
   21.5913   73.9457   -5.4873 O   0  0  0  0  0  0  0  0  0  0  0  0
   20.3243   73.3153   -5.5296 C   0  0  0  0  0  0  0  0  0  0  0  0
   19.1971   71.2598   -6.0609 O   0  0  0  0  0  0  0  0  0  0  0  0
   21.6901   70.4916   -7.5395 O   0  0  0  0  0  0  0  0  0  0  0  0
   20.0276   71.2889   -9.5486 O   0  0  0  0  0  0  0  0  0  0  0  0
   21.0758   71.7738   -7.4089 C   0  0  1  0  0  0  0  0  0  0  0  0
   19.8306   71.8483   -8.2668 C   0  0  2  0  0  0  0  0  0  0  0  0
   20.5008   71.8782   -6.0030 C   0  0  1  0  0  0  0  0  0  0  0  0
   18.8276   71.0666   -7.4355 C   0  0  2  0  0  0  0  0  0  0  0  0
   22.0649   70.4015   -8.4301 H   0  0  0  0  0  0  0  0  0  0  0  0
   20.6738   71.8223  -10.0383 H   0  0  0  0  0  0  0  0  0  0  0  0
   16.6541   69.3975   -8.1183 O   0  0  0  0  0  0  0  0  0  0  0  0
   13.7051   72.9397   -8.1417 O   0  0  0  0  0  0  0  0  0  0  0  0
   17.4811   71.5264   -7.6262 N   0  0  0  0  0  0  0  0  0  0  0  0
   15.1876   71.1635   -8.1303 N   0  0  0  0  0  0  0  0  0  0  0  0
   16.4626   70.6057   -7.9679 C   0  0  0  0  0  0  0  0  0  0  0  0
   17.1804   72.8744   -7.4732 C   0  0  0  0  0  0  0  0  0  0  0  0
   15.9602   73.3912   -7.6312 C   0  0  0  0  0  0  0  0  0  0  0  0
   14.8397   72.4972   -7.9895 C   0  0  0  0  0  0  0  0  0  0  0  0
   14.4624   70.5423   -8.3704 H   0  0  0  0  0  0  0  0  0  0  0  0
   22.0972   73.2229   -3.1149 O   0  0  0  0  0  0  0  0  0  0  0  0
   23.1634   72.0213   -2.9332 P   0  0  2  0  0  0  0  0  0  0  0  0
   24.2296   72.2902   -4.1212 O   0  0  0  0  0  0  0  0  0  0  0  0
   22.5537   70.6495   -2.9483 O   0  0  0  0  0  0  0  0  0  0  0  0
   23.9622   72.3841   -1.5794 O   0  0  0  0  0  0  0  0  0  0  0  0
   22.9598   72.2886    0.5643 O   0  0  0  0  0  0  0  0  0  0  0  0
   26.1395   74.8393    1.2359 O   0  0  0  0  0  0  0  0  0  0  0  0
   24.5375   75.0781   -1.1953 O   0  0  0  0  0  0  0  0  0  0  0  0
   26.2561   72.0865    2.1630 O   0  0  0  0  0  0  0  0  0  0  0  0
   25.4484   73.7522    0.6208 C   0  0  2  0  0  0  0  0  0  0  0  0
   24.1904   74.2732   -0.0744 C   0  0  2  0  0  0  0  0  0  0  0  0
   25.0752   72.7493    1.7149 C   0  0  1  0  0  0  0  0  0  0  0  0
   23.3071   73.1172   -0.5458 C   0  0  1  0  0  0  0  0  0  0  0  0
   24.0937   71.7012    1.1986 C   0  0  1  0  0  0  0  0  0  0  0  0
   26.3867   75.4896    0.5597 H   0  0  0  0  0  0  0  0  0  0  0  0
   25.0983   75.8135   -0.9036 H   0  0  0  0  0  0  0  0  0  0  0  0
   26.8893   72.7425    2.4940 H   0  0  0  0  0  0  0  0  0  0  0  0
   24.4119   70.1427    2.9224 O   0  0  0  0  0  0  0  0  0  0  0  0
   22.3200   71.0185    2.6850 O   0  0  0  0  0  0  0  0  0  0  0  0
   23.4869   70.9392    2.3315 C   0  0  0  0  0  0  0  0  0  0  0  0
  1  4  1  0
  1 24  1  0
  1  2  1  1
  1  3  2  0
 25 28  1  0
 25 24  1  0
 25 26  1  6
 25 27  2  0
  6 11  1  0
  6 12  1  0
 29 36  1  0
 29 37  1  0
  9  7  1  1
  7 13  1  0
 10  8  1  6
  8 14  1  0
  4  5  1  0
 36 28  1  6
 33 30  1  1
 30 38  1  0
 34 31  1  6
 31 39  1  0
 35 32  1  6
 32 40  1  0
 41 43  1  0
 15 19  2  0
 42 43  2  0
 16 22  2  0
 12 17  1  1
 17 19  1  0
 17 20  1  0
 18 19  1  0
 18 22  1  0
 18 23  1  0
  9 10  1  0
  9 11  1  0
 10 12  1  0
 11  5  1  6
 33 34  1  0
 33 35  1  0
 34 36  1  0
 35 37  1  0
 37 43  1  1
 20 21  2  0
 21 22  1  0
M  CHG  3   2  -1  26  -1  41  -1
M  END
>  <COMPND>  (96) 
    udp_gluA.pdb 

>  <AUTHOR>  (96) 
    GENERATED BY OPEN BABEL 3.1.1

>  <MASTER>  (96) 
        0    0    0    0    0    0    0    0   56    0   56    0

>  <minimizedAffinity>  (96) 
-7.14097

>  <CNNscore>  (96) 
0.4418116510

>  <CNNaffinity>  (96) 
4.2877473831

>  <CNN_VS>  (96) 
1.8943767548

>  <CNNaffinity_variance>  (96) 
0.0434177481

$$$$
97
     RDKit          3D

 43 45  0  0  0  0  0  0  0  0999 V2000
   20.7878   75.6473   -2.2380 P   0  0  2  0  0  0  0  0  0  0  0  0
   19.4048   75.8862   -1.4323 O   0  0  0  0  0  0  0  0  0  0  0  0
   21.4324   76.8923   -2.7731 O   0  0  0  0  0  0  0  0  0  0  0  0
   20.4071   74.5244   -3.3389 O   0  0  0  0  0  0  0  0  0  0  0  0
   20.3815   74.8975   -4.7044 C   0  0  0  0  0  0  0  0  0  0  0  0
   22.4176   73.6374   -4.4945 O   0  0  0  0  0  0  0  0  0  0  0  0
   21.7901   72.5251   -7.2076 O   0  0  0  0  0  0  0  0  0  0  0  0
   21.0113   70.5105   -5.5430 O   0  0  0  0  0  0  0  0  0  0  0  0
   20.9018   72.8644   -6.1425 C   0  0  1  0  0  0  0  0  0  0  0  0
   20.9861   71.8300   -5.0401 C   0  0  2  0  0  0  0  0  0  0  0  0
   21.4470   74.1084   -5.4544 C   0  0  1  0  0  0  0  0  0  0  0  0
   22.2803   72.2154   -4.3442 C   0  0  2  0  0  0  0  0  0  0  0  0
   21.4625   71.7329   -7.6623 H   0  0  0  0  0  0  0  0  0  0  0  0
   20.1655   70.3133   -5.9762 H   0  0  0  0  0  0  0  0  0  0  0  0
   24.5681   72.2080   -2.6882 O   0  0  0  0  0  0  0  0  0  0  0  0
   22.1130   70.9618    1.0081 O   0  0  0  0  0  0  0  0  0  0  0  0
   22.2675   71.8928   -2.9454 N   0  0  0  0  0  0  0  0  0  0  0  0
   23.3433   71.5863   -0.8490 N   0  0  0  0  0  0  0  0  0  0  0  0
   23.4724   71.9187   -2.2040 C   0  0  0  0  0  0  0  0  0  0  0  0
   21.0718   71.5575   -2.3219 C   0  0  0  0  0  0  0  0  0  0  0  0
   20.9645   71.2432   -1.0295 C   0  0  0  0  0  0  0  0  0  0  0  0
   22.1765   71.2455   -0.1842 C   0  0  0  0  0  0  0  0  0  0  0  0
   24.1690   71.5955   -0.3128 H   0  0  0  0  0  0  0  0  0  0  0  0
   21.6886   74.8253   -1.1770 O   0  0  0  0  0  0  0  0  0  0  0  0
   22.0096   75.1034    0.3829 P   0  0  2  0  0  0  0  0  0  0  0  0
   20.8361   74.2959    1.1517 O   0  0  0  0  0  0  0  0  0  0  0  0
   22.0980   76.5581    0.7436 O   0  0  0  0  0  0  0  0  0  0  0  0
   23.3499   74.2569    0.6821 O   0  0  0  0  0  0  0  0  0  0  0  0
   23.6478   74.3550    3.0296 O   0  0  0  0  0  0  0  0  0  0  0  0
   26.7474   71.8718    1.8920 O   0  0  0  0  0  0  0  0  0  0  0  0
   26.1086   74.2549    0.3276 O   0  0  0  0  0  0  0  0  0  0  0  0
   24.3732   70.7603    3.1485 O   0  0  0  0  0  0  0  0  0  0  0  0
   25.4458   72.4526    1.8105 C   0  0  2  0  0  0  0  0  0  0  0  0
   25.5712   73.9635    1.6125 C   0  0  2  0  0  0  0  0  0  0  0  0
   24.7086   72.1463    3.1161 C   0  0  1  0  0  0  0  0  0  0  0  0
   24.2106   74.6480    1.7502 C   0  0  1  0  0  0  0  0  0  0  0  0
   23.4244   72.9618    3.2353 C   0  0  1  0  0  0  0  0  0  0  0  0
   27.2347   72.0537    1.0730 H   0  0  0  0  0  0  0  0  0  0  0  0
   26.9719   73.8233    0.2332 H   0  0  0  0  0  0  0  0  0  0  0  0
   25.1819   70.2300    3.0733 H   0  0  0  0  0  0  0  0  0  0  0  0
   22.1610   71.7830    4.8213 O   0  0  0  0  0  0  0  0  0  0  0  0
   23.0821   73.7600    5.4863 O   0  0  0  0  0  0  0  0  0  0  0  0
   22.8906   72.9099    4.6297 C   0  0  0  0  0  0  0  0  0  0  0  0
  1  4  1  0
  1 24  1  0
  1  2  1  1
  1  3  2  0
 25 28  1  0
 25 24  1  0
 25 26  1  1
 25 27  2  0
  6 11  1  0
  6 12  1  0
 29 36  1  0
 29 37  1  0
  9  7  1  6
  7 13  1  0
 10  8  1  6
  8 14  1  0
  4  5  1  0
 36 28  1  6
 33 30  1  1
 30 38  1  0
 34 31  1  6
 31 39  1  0
 35 32  1  6
 32 40  1  0
 41 43  1  0
 15 19  2  0
 42 43  2  0
 16 22  2  0
 12 17  1  1
 17 19  1  0
 17 20  1  0
 18 19  1  0
 18 22  1  0
 18 23  1  0
  9 10  1  0
  9 11  1  0
 10 12  1  0
 11  5  1  1
 33 34  1  0
 33 35  1  0
 34 36  1  0
 35 37  1  0
 37 43  1  1
 20 21  2  0
 21 22  1  0
M  CHG  3   2  -1  26  -1  41  -1
M  END
>  <COMPND>  (97) 
    udp_gluA.pdb 

>  <AUTHOR>  (97) 
    GENERATED BY OPEN BABEL 3.1.1

>  <MASTER>  (97) 
        0    0    0    0    0    0    0    0   56    0   56    0

>  <minimizedAffinity>  (97) 
-5.46574

>  <CNNscore>  (97) 
0.4150040448

>  <CNNaffinity>  (97) 
3.5641365051

>  <CNN_VS>  (97) 
1.4791311026

>  <CNNaffinity_variance>  (97) 
0.8987363577

$$$$
98
     RDKit          3D

 43 45  0  0  0  0  0  0  0  0999 V2000
   18.7486   73.1770   -1.2978 P   0  0  2  0  0  0  0  0  0  0  0  0
   17.7697   72.1443   -0.5271 O   0  0  0  0  0  0  0  0  0  0  0  0
   18.3529   74.6209   -1.1959 O   0  0  0  0  0  0  0  0  0  0  0  0
   18.8416   72.5782   -2.7980 O   0  0  0  0  0  0  0  0  0  0  0  0
   19.3770   73.3974   -3.8210 C   0  0  0  0  0  0  0  0  0  0  0  0
   19.3219   71.7206   -5.5424 O   0  0  0  0  0  0  0  0  0  0  0  0
   22.1310   72.5515   -6.1829 O   0  0  0  0  0  0  0  0  0  0  0  0
   20.6811   73.8101   -8.1193 O   0  0  0  0  0  0  0  0  0  0  0  0
   21.0271   73.3506   -5.7569 C   0  0  1  0  0  0  0  0  0  0  0  0
   20.0413   73.5303   -6.8918 C   0  0  2  0  0  0  0  0  0  0  0  0
   20.2168   72.5374   -4.7567 C   0  0  1  0  0  0  0  0  0  0  0  0
   19.3215   72.1925   -6.8990 C   0  0  2  0  0  0  0  0  0  0  0  0
   22.6636   73.0501   -6.8227 H   0  0  0  0  0  0  0  0  0  0  0  0
   21.1242   74.6718   -8.0639 H   0  0  0  0  0  0  0  0  0  0  0  0
   17.9382   70.1645   -8.2956 O   0  0  0  0  0  0  0  0  0  0  0  0
   14.1180   72.7253   -8.5982 O   0  0  0  0  0  0  0  0  0  0  0  0
   17.9646   72.3028   -7.3546 N   0  0  0  0  0  0  0  0  0  0  0  0
   16.0372   71.4422   -8.4459 N   0  0  0  0  0  0  0  0  0  0  0  0
   17.3628   71.2256   -8.0472 C   0  0  0  0  0  0  0  0  0  0  0  0
   17.2442   73.4663   -7.1130 C   0  0  0  0  0  0  0  0  0  0  0  0
   15.9813   73.6580   -7.4991 C   0  0  0  0  0  0  0  0  0  0  0  0
   15.2797   72.5819   -8.2293 C   0  0  0  0  0  0  0  0  0  0  0  0
   15.5977   70.7072   -8.9316 H   0  0  0  0  0  0  0  0  0  0  0  0
   20.2010   72.8316   -0.6780 O   0  0  0  0  0  0  0  0  0  0  0  0
   21.1045   71.4942   -0.7724 P   0  0  2  0  0  0  0  0  0  0  0  0
   22.1829   71.8570   -1.9238 O   0  0  0  0  0  0  0  0  0  0  0  0
   20.3220   70.2394   -1.0312 O   0  0  0  0  0  0  0  0  0  0  0  0
   21.9589   71.4801    0.5959 O   0  0  0  0  0  0  0  0  0  0  0  0
   22.0794   72.9221    2.4708 O   0  0  0  0  0  0  0  0  0  0  0  0
   26.0359   71.8336    1.9918 O   0  0  0  0  0  0  0  0  0  0  0  0
   24.3849   72.4755   -0.3313 O   0  0  0  0  0  0  0  0  0  0  0  0
   24.4498   70.6656    4.1298 O   0  0  0  0  0  0  0  0  0  0  0  0
   24.6203   71.6567    1.9403 C   0  0  2  0  0  0  0  0  0  0  0  0
   24.0059   72.7115    1.0197 C   0  0  2  0  0  0  0  0  0  0  0  0
   24.0730   71.8068    3.3615 C   0  0  1  0  0  0  0  0  0  0  0  0
   22.4797   72.7012    1.1179 C   0  0  1  0  0  0  0  0  0  0  0  0
   22.5509   71.9154    3.3638 C   0  0  1  0  0  0  0  0  0  0  0  0
   26.4060   71.7425    1.0995 H   0  0  0  0  0  0  0  0  0  0  0  0
   25.3522   72.4805   -0.4009 H   0  0  0  0  0  0  0  0  0  0  0  0
   25.4164   70.5850    4.1362 H   0  0  0  0  0  0  0  0  0  0  0  0
   23.0493   72.9905    5.3879 O   0  0  0  0  0  0  0  0  0  0  0  0
   20.9114   72.2513    5.1018 O   0  0  0  0  0  0  0  0  0  0  0  0
   22.0546   72.3861    4.6921 C   0  0  0  0  0  0  0  0  0  0  0  0
  1  4  1  0
  1 24  1  0
  1  2  1  1
  1  3  2  0
 25 28  1  0
 25 24  1  0
 25 26  1  6
 25 27  2  0
  6 11  1  0
  6 12  1  0
 29 36  1  0
 29 37  1  0
  9  7  1  6
  7 13  1  0
 10  8  1  6
  8 14  1  0
  4  5  1  0
 36 28  1  1
 33 30  1  1
 30 38  1  0
 34 31  1  6
 31 39  1  0
 35 32  1  1
 32 40  1  0
 41 43  1  0
 15 19  2  0
 42 43  2  0
 16 22  2  0
 12 17  1  1
 17 19  1  0
 17 20  1  0
 18 19  1  0
 18 22  1  0
 18 23  1  0
  9 10  1  0
  9 11  1  0
 10 12  1  0
 11  5  1  1
 33 34  1  0
 33 35  1  0
 34 36  1  0
 35 37  1  0
 37 43  1  1
 20 21  2  0
 21 22  1  0
M  CHG  3   2  -1  26  -1  41  -1
M  END
>  <COMPND>  (98) 
    udp_gluA.pdb 

>  <AUTHOR>  (98) 
    GENERATED BY OPEN BABEL 3.1.1

>  <MASTER>  (98) 
        0    0    0    0    0    0    0    0   56    0   56    0

>  <minimizedAffinity>  (98) 
-6.72819

>  <CNNscore>  (98) 
0.3886515796

>  <CNNaffinity>  (98) 
4.1890926361

>  <CNN_VS>  (98) 
1.6280974150

>  <CNNaffinity_variance>  (98) 
0.0422292873

$$$$
99
     RDKit          3D

 43 45  0  0  0  0  0  0  0  0999 V2000
   23.9323   72.2740   -3.2238 P   0  0  2  0  0  0  0  0  0  0  0  0
   25.1703   71.2330   -3.1717 O   0  0  0  0  0  0  0  0  0  0  0  0
   23.9352   73.2034   -4.4019 O   0  0  0  0  0  0  0  0  0  0  0  0
   23.9594   72.9830   -1.7696 O   0  0  0  0  0  0  0  0  0  0  0  0
   24.7289   72.3873   -0.7412 C   0  0  0  0  0  0  0  0  0  0  0  0
   24.8826   74.0178    1.0181 O   0  0  0  0  0  0  0  0  0  0  0  0
   27.8445   73.9671    0.5532 O   0  0  0  0  0  0  0  0  0  0  0  0
   27.5622   72.4023    2.7685 O   0  0  0  0  0  0  0  0  0  0  0  0
   26.9002   72.8986    0.4821 C   0  0  1  0  0  0  0  0  0  0  0  0
   26.4724   72.4837    1.8739 C   0  0  2  0  0  0  0  0  0  0  0  0
   25.6059   73.4532   -0.0970 C   0  0  1  0  0  0  0  0  0  0  0  0
   25.4930   73.5844    2.2441 C   0  0  2  0  0  0  0  0  0  0  0  0
   28.6799   73.6370    0.9203 H   0  0  0  0  0  0  0  0  0  0  0  0
   28.1563   71.6871    2.4901 H   0  0  0  0  0  0  0  0  0  0  0  0
   24.8183   70.8714    2.6450 O   0  0  0  0  0  0  0  0  0  0  0  0
   21.5446   71.9485    5.7055 O   0  0  0  0  0  0  0  0  0  0  0  0
   24.4683   73.1277    3.1399 N   0  0  0  0  0  0  0  0  0  0  0  0
   23.1878   71.4105    4.1682 N   0  0  0  0  0  0  0  0  0  0  0  0
   24.2084   71.7427    3.2676 C   0  0  0  0  0  0  0  0  0  0  0  0
   23.7351   74.0464    3.8810 C   0  0  0  0  0  0  0  0  0  0  0  0
   22.7654   73.7145    4.7356 C   0  0  0  0  0  0  0  0  0  0  0  0
   22.4305   72.2881    4.9270 C   0  0  0  0  0  0  0  0  0  0  0  0
   22.9872   70.4522    4.2725 H   0  0  0  0  0  0  0  0  0  0  0  0
   22.6406   71.3066   -3.1324 O   0  0  0  0  0  0  0  0  0  0  0  0
   21.1069   71.6193   -2.7280 P   0  0  2  0  0  0  0  0  0  0  0  0
   21.2125   73.0284   -1.9384 O   0  0  0  0  0  0  0  0  0  0  0  0
   20.4395   70.5227   -1.9495 O   0  0  0  0  0  0  0  0  0  0  0  0
   20.3828   71.9869   -4.1219 O   0  0  0  0  0  0  0  0  0  0  0  0
   19.0980   70.4576   -5.3945 O   0  0  0  0  0  0  0  0  0  0  0  0
   20.2242   73.2041   -8.2678 O   0  0  0  0  0  0  0  0  0  0  0  0
   22.1386   72.2954   -6.2569 O   0  0  0  0  0  0  0  0  0  0  0  0
   17.5122   73.2165   -7.2209 O   0  0  0  0  0  0  0  0  0  0  0  0
   19.8635   72.7602   -6.9598 C   0  0  2  0  0  0  0  0  0  0  0  0
   20.8633   71.7062   -6.4833 C   0  0  2  0  0  0  0  0  0  0  0  0
   18.4562   72.1636   -7.0342 C   0  0  1  0  0  0  0  0  0  0  0  0
   20.3847   71.0428   -5.1912 C   0  0  1  0  0  0  0  0  0  0  0  0
   18.1015   71.4117   -5.7546 C   0  0  1  0  0  0  0  0  0  0  0  0
   21.1152   73.5872   -8.2452 H   0  0  0  0  0  0  0  0  0  0  0  0
   22.4482   72.7185   -7.0727 H   0  0  0  0  0  0  0  0  0  0  0  0
   17.7268   73.7031   -8.0321 H   0  0  0  0  0  0  0  0  0  0  0  0
   15.7592   71.2899   -5.7356 O   0  0  0  0  0  0  0  0  0  0  0  0
   16.8953   69.3881   -6.2758 O   0  0  0  0  0  0  0  0  0  0  0  0
   16.8854   70.5672   -5.9554 C   0  0  0  0  0  0  0  0  0  0  0  0
  1  4  1  0
  1 24  1  0
  1  2  1  6
  1  3  2  0
 25 28  1  0
 25 24  1  0
 25 26  1  1
 25 27  2  0
  6 11  1  0
  6 12  1  0
 29 36  1  0
 29 37  1  0
  9  7  1  1
  7 13  1  0
 10  8  1  1
  8 14  1  0
  4  5  1  0
 36 28  1  1
 33 30  1  6
 30 38  1  0
 34 31  1  1
 31 39  1  0
 35 32  1  1
 32 40  1  0
 41 43  1  0
 15 19  2  0
 42 43  2  0
 16 22  2  0
 12 17  1  1
 17 19  1  0
 17 20  1  0
 18 19  1  0
 18 22  1  0
 18 23  1  0
  9 10  1  0
  9 11  1  0
 10 12  1  0
 11  5  1  1
 33 34  1  0
 33 35  1  0
 34 36  1  0
 35 37  1  0
 37 43  1  6
 20 21  2  0
 21 22  1  0
M  CHG  3   2  -1  26  -1  41  -1
M  END
>  <COMPND>  (99) 
    udp_gluA.pdb 

>  <AUTHOR>  (99) 
    GENERATED BY OPEN BABEL 3.1.1

>  <MASTER>  (99) 
        0    0    0    0    0    0    0    0   56    0   56    0

>  <minimizedAffinity>  (99) 
-7.18275

>  <CNNscore>  (99) 
0.3765337765

>  <CNNaffinity>  (99) 
3.9512169361

>  <CNN_VS>  (99) 
1.4877666235

>  <CNNaffinity_variance>  (99) 
0.2619259953

$$$$
100
     RDKit          3D

 43 45  0  0  0  0  0  0  0  0999 V2000
   22.0784   72.9391   -4.7521 P   0  0  2  0  0  0  0  0  0  0  0  0
   23.6851   72.8605   -4.5749 O   0  0  0  0  0  0  0  0  0  0  0  0
   21.4613   74.2499   -4.3614 O   0  0  0  0  0  0  0  0  0  0  0  0
   21.5355   71.6410   -3.9533 O   0  0  0  0  0  0  0  0  0  0  0  0
   22.1622   71.2863   -2.7343 C   0  0  0  0  0  0  0  0  0  0  0  0
   21.7534   70.7839   -0.4195 O   0  0  0  0  0  0  0  0  0  0  0  0
   19.2123   72.3470   -0.7215 O   0  0  0  0  0  0  0  0  0  0  0  0
   20.8633   74.1276    0.5193 O   0  0  0  0  0  0  0  0  0  0  0  0
   20.4903   72.5763   -1.3155 C   0  0  1  0  0  0  0  0  0  0  0  0
   21.4540   73.1305   -0.2877 C   0  0  2  0  0  0  0  0  0  0  0  0
   21.1093   71.2225   -1.6353 C   0  0  1  0  0  0  0  0  0  0  0  0
   21.8260   71.8855    0.4994 C   0  0  2  0  0  0  0  0  0  0  0  0
   18.7972   73.1978   -0.5083 H   0  0  0  0  0  0  0  0  0  0  0  0
   20.6451   74.8990   -0.0277 H   0  0  0  0  0  0  0  0  0  0  0  0
   22.7304   70.3745    2.7075 O   0  0  0  0  0  0  0  0  0  0  0  0
   26.9415   72.2355    2.4887 O   0  0  0  0  0  0  0  0  0  0  0  0
   23.1539   71.9556    1.0403 N   0  0  0  0  0  0  0  0  0  0  0  0
   24.8266   71.3036    2.5970 N   0  0  0  0  0  0  0  0  0  0  0  0
   23.5065   71.1543    2.1519 C   0  0  0  0  0  0  0  0  0  0  0  0
   24.0909   72.8088    0.4702 C   0  0  0  0  0  0  0  0  0  0  0  0
   25.3455   72.9402    0.9055 C   0  0  0  0  0  0  0  0  0  0  0  0
   25.7943   72.1392    2.0633 C   0  0  0  0  0  0  0  0  0  0  0  0
   25.0948   70.7575    3.3711 H   0  0  0  0  0  0  0  0  0  0  0  0
   21.8636   72.5288   -6.3008 O   0  0  0  0  0  0  0  0  0  0  0  0
   20.9619   73.2015   -7.4618 P   0  0  2  0  0  0  0  0  0  0  0  0
   21.3503   72.3412   -8.7769 O   0  0  0  0  0  0  0  0  0  0  0  0
   21.1562   74.6826   -7.6121 O   0  0  0  0  0  0  0  0  0  0  0  0
   19.4504   72.7562   -7.1158 O   0  0  0  0  0  0  0  0  0  0  0  0
   18.6733   70.8776   -5.9008 O   0  0  0  0  0  0  0  0  0  0  0  0
   15.6142   71.4450   -8.6189 O   0  0  0  0  0  0  0  0  0  0  0  0
   18.4028   71.6810   -9.4572 O   0  0  0  0  0  0  0  0  0  0  0  0
   15.2693   72.2456   -5.8457 O   0  0  0  0  0  0  0  0  0  0  0  0
   16.6806   71.8400   -7.7559 C   0  0  2  0  0  0  0  0  0  0  0  0
   17.9772   71.1637   -8.2019 C   0  0  2  0  0  0  0  0  0  0  0  0
   16.3195   71.4118   -6.3317 C   0  0  1  0  0  0  0  0  0  0  0  0
   19.0879   71.3778   -7.1726 C   0  0  1  0  0  0  0  0  0  0  0  0
   17.5156   71.5366   -5.3924 C   0  0  1  0  0  0  0  0  0  0  0  0
   15.8215   71.7067   -9.5299 H   0  0  0  0  0  0  0  0  0  0  0  0
   17.7027   71.5488  -10.1151 H   0  0  0  0  0  0  0  0  0  0  0  0
   14.5019   72.1755   -6.4348 H   0  0  0  0  0  0  0  0  0  0  0  0
   16.3016   69.8718   -4.2716 O   0  0  0  0  0  0  0  0  0  0  0  0
   17.8282   71.0458   -3.0508 O   0  0  0  0  0  0  0  0  0  0  0  0
   17.2582   70.8188   -4.1075 C   0  0  0  0  0  0  0  0  0  0  0  0
  1  4  1  0
  1 24  1  0
  1  2  1  6
  1  3  2  0
 25 28  1  0
 25 24  1  0
 25 26  1  6
 25 27  2  0
  6 11  1  0
  6 12  1  0
 29 36  1  0
 29 37  1  0
  9  7  1  1
  7 13  1  0
 10  8  1  1
  8 14  1  0
  4  5  1  0
 36 28  1  1
 33 30  1  6
 30 38  1  0
 34 31  1  6
 31 39  1  0
 35 32  1  1
 32 40  1  0
 41 43  1  0
 15 19  2  0
 42 43  2  0
 16 22  2  0
 12 17  1  6
 17 19  1  0
 17 20  1  0
 18 19  1  0
 18 22  1  0
 18 23  1  0
  9 10  1  0
  9 11  1  0
 10 12  1  0
 11  5  1  6
 33 34  1  0
 33 35  1  0
 34 36  1  0
 35 37  1  0
 37 43  1  1
 20 21  2  0
 21 22  1  0
M  CHG  3   2  -1  26  -1  41  -1
M  END
>  <COMPND>  (100) 
    udp_gluA.pdb 

>  <AUTHOR>  (100) 
    GENERATED BY OPEN BABEL 3.1.1

>  <MASTER>  (100) 
        0    0    0    0    0    0    0    0   56    0   56    0

>  <minimizedAffinity>  (100) 
-7.71166

>  <CNNscore>  (100) 
0.3516310751

>  <CNNaffinity>  (100) 
4.1508660316

>  <CNN_VS>  (100) 
1.4595735073

>  <CNNaffinity_variance>  (100) 
0.0525750890

$$$$
101
     RDKit          3D

 43 45  0  0  0  0  0  0  0  0999 V2000
   20.6959   72.3289   -1.3815 P   0  0  2  0  0  0  0  0  0  0  0  0
   21.0060   70.8218   -0.8800 O   0  0  0  0  0  0  0  0  0  0  0  0
   19.9962   73.1989   -0.3788 O   0  0  0  0  0  0  0  0  0  0  0  0
   19.9253   72.1193   -2.7887 O   0  0  0  0  0  0  0  0  0  0  0  0
   20.1315   70.9121   -3.4992 C   0  0  0  0  0  0  0  0  0  0  0  0
   20.5956   70.4275   -5.8073 O   0  0  0  0  0  0  0  0  0  0  0  0
   22.3194   72.8810   -5.7829 O   0  0  0  0  0  0  0  0  0  0  0  0
   20.0405   73.7658   -6.9912 O   0  0  0  0  0  0  0  0  0  0  0  0
   21.0851   72.6370   -5.1079 C   0  0  1  0  0  0  0  0  0  0  0  0
   19.9329   72.6847   -6.0889 C   0  0  2  0  0  0  0  0  0  0  0  0
   21.0698   71.1791   -4.6691 C   0  0  1  0  0  0  0  0  0  0  0  0
   20.0483   71.3351   -6.7768 C   0  0  2  0  0  0  0  0  0  0  0  0
   22.3523   73.8064   -6.0728 H   0  0  0  0  0  0  0  0  0  0  0  0
   19.9605   74.6019   -6.5050 H   0  0  0  0  0  0  0  0  0  0  0  0
   19.4316   70.6966   -9.4580 O   0  0  0  0  0  0  0  0  0  0  0  0
   15.1400   69.4243   -8.3593 O   0  0  0  0  0  0  0  0  0  0  0  0
   18.7775   70.8351   -7.2193 N   0  0  0  0  0  0  0  0  0  0  0  0
   17.2944   70.0645   -8.9084 N   0  0  0  0  0  0  0  0  0  0  0  0
   18.5709   70.5457   -8.5889 C   0  0  0  0  0  0  0  0  0  0  0  0
   17.7534   70.6346   -6.3018 C   0  0  0  0  0  0  0  0  0  0  0  0
   16.5420   70.1752   -6.6213 C   0  0  0  0  0  0  0  0  0  0  0  0
   16.2437   69.8493   -8.0314 C   0  0  0  0  0  0  0  0  0  0  0  0
   17.1261   69.8579   -9.8562 H   0  0  0  0  0  0  0  0  0  0  0  0
   22.1502   72.8653   -1.8399 O   0  0  0  0  0  0  0  0  0  0  0  0
   23.5579   72.0916   -2.0219 P   0  0  2  0  0  0  0  0  0  0  0  0
   24.2248   72.8322   -3.2975 O   0  0  0  0  0  0  0  0  0  0  0  0
   23.4280   70.6032   -2.1692 O   0  0  0  0  0  0  0  0  0  0  0  0
   24.4505   72.5645   -0.7641 O   0  0  0  0  0  0  0  0  0  0  0  0
   23.4843   72.3978    1.3918 O   0  0  0  0  0  0  0  0  0  0  0  0
   26.7524   74.8179    2.1201 O   0  0  0  0  0  0  0  0  0  0  0  0
   25.1151   75.2190   -0.2659 O   0  0  0  0  0  0  0  0  0  0  0  0
   26.8009   72.0221    2.9152 O   0  0  0  0  0  0  0  0  0  0  0  0
   26.0173   73.7821    1.4684 C   0  0  2  0  0  0  0  0  0  0  0  0
   24.7636   74.3728    0.8227 C   0  0  2  0  0  0  0  0  0  0  0  0
   25.6332   72.7403    2.5215 C   0  0  1  0  0  0  0  0  0  0  0  0
   23.8370   73.2671    0.3151 C   0  0  1  0  0  0  0  0  0  0  0  0
   24.6108   71.7475    1.9760 C   0  0  1  0  0  0  0  0  0  0  0  0
   27.0073   75.4918    1.4703 H   0  0  0  0  0  0  0  0  0  0  0  0
   25.7033   75.9227    0.0490 H   0  0  0  0  0  0  0  0  0  0  0  0
   27.4598   72.6426    3.2642 H   0  0  0  0  0  0  0  0  0  0  0  0
   22.8266   70.4015    2.6876 O   0  0  0  0  0  0  0  0  0  0  0  0
   24.4886   70.8078    4.1949 O   0  0  0  0  0  0  0  0  0  0  0  0
   24.0013   70.9512    3.0836 C   0  0  0  0  0  0  0  0  0  0  0  0
  1  4  1  0
  1 24  1  0
  1  2  1  1
  1  3  2  0
 25 28  1  0
 25 24  1  0
 25 26  1  6
 25 27  2  0
  6 11  1  0
  6 12  1  0
 29 36  1  0
 29 37  1  0
  9  7  1  6
  7 13  1  0
 10  8  1  6
  8 14  1  0
  4  5  1  0
 36 28  1  6
 33 30  1  1
 30 38  1  0
 34 31  1  6
 31 39  1  0
 35 32  1  6
 32 40  1  0
 41 43  1  0
 15 19  2  0
 42 43  2  0
 16 22  2  0
 12 17  1  1
 17 19  1  0
 17 20  1  0
 18 19  1  0
 18 22  1  0
 18 23  1  0
  9 10  1  0
  9 11  1  0
 10 12  1  0
 11  5  1  1
 33 34  1  0
 33 35  1  0
 34 36  1  0
 35 37  1  0
 37 43  1  1
 20 21  2  0
 21 22  1  0
M  CHG  3   2  -1  26  -1  41  -1
M  END
>  <COMPND>  (101) 
    udp_gluA.pdb 

>  <AUTHOR>  (101) 
    GENERATED BY OPEN BABEL 3.1.1

>  <MASTER>  (101) 
        0    0    0    0    0    0    0    0   56    0   56    0

>  <minimizedAffinity>  (101) 
-7.66173

>  <CNNscore>  (101) 
0.8057079315

>  <CNNaffinity>  (101) 
4.6481094360

>  <CNN_VS>  (101) 
3.7450187206

>  <CNNaffinity_variance>  (101) 
0.0701491386

$$$$
102
     RDKit          3D

 43 45  0  0  0  0  0  0  0  0999 V2000
   22.2283   71.9778   -0.0393 P   0  0  2  0  0  0  0  0  0  0  0  0
   22.3198   70.9427    1.2012 O   0  0  0  0  0  0  0  0  0  0  0  0
   21.6741   73.3297    0.3031 O   0  0  0  0  0  0  0  0  0  0  0  0
   21.4206   71.1541   -1.1739 O   0  0  0  0  0  0  0  0  0  0  0  0
   20.9843   71.8458   -2.3296 C   0  0  0  0  0  0  0  0  0  0  0  0
   21.5654   70.8703   -4.4482 O   0  0  0  0  0  0  0  0  0  0  0  0
   23.6798   72.9885   -4.6333 O   0  0  0  0  0  0  0  0  0  0  0  0
   21.7091   73.9716   -6.2413 O   0  0  0  0  0  0  0  0  0  0  0  0
   22.3656   73.0693   -4.0810 C   0  0  1  0  0  0  0  0  0  0  0  0
   21.3335   73.1092   -5.1880 C   0  0  2  0  0  0  0  0  0  0  0  0
   22.0574   71.7400   -3.4056 C   0  0  1  0  0  0  0  0  0  0  0  0
   21.2748   71.6530   -5.6171 C   0  0  2  0  0  0  0  0  0  0  0  0
   23.8993   73.8267   -5.0703 H   0  0  0  0  0  0  0  0  0  0  0  0
   21.7316   74.8864   -5.9178 H   0  0  0  0  0  0  0  0  0  0  0  0
   20.4808   71.8967   -8.3165 O   0  0  0  0  0  0  0  0  0  0  0  0
   16.2905   70.1950   -7.4277 O   0  0  0  0  0  0  0  0  0  0  0  0
   19.9821   71.2812   -6.1185 N   0  0  0  0  0  0  0  0  0  0  0  0
   18.3942   71.0499   -7.8711 N   0  0  0  0  0  0  0  0  0  0  0  0
   19.6843   71.4440   -7.4921 C   0  0  0  0  0  0  0  0  0  0  0  0
   19.0265   70.7604   -5.2545 C   0  0  0  0  0  0  0  0  0  0  0  0
   17.8012   70.3891   -5.6304 C   0  0  0  0  0  0  0  0  0  0  0  0
   17.4094   70.5275   -7.0484 C   0  0  0  0  0  0  0  0  0  0  0  0
   18.1629   71.1558   -8.8222 H   0  0  0  0  0  0  0  0  0  0  0  0
   23.7405   71.9949   -0.6100 O   0  0  0  0  0  0  0  0  0  0  0  0
   24.9918   72.9610   -0.2718 P   0  0  2  0  0  0  0  0  0  0  0  0
   24.5571   74.3739   -0.9315 O   0  0  0  0  0  0  0  0  0  0  0  0
   26.3179   72.4397   -0.7449 O   0  0  0  0  0  0  0  0  0  0  0  0
   24.8990   73.2090    1.3195 O   0  0  0  0  0  0  0  0  0  0  0  0
   27.0343   73.2635    2.3427 O   0  0  0  0  0  0  0  0  0  0  0  0
   24.5266   73.4182    5.6222 O   0  0  0  0  0  0  0  0  0  0  0  0
   23.9408   71.6226    3.3935 O   0  0  0  0  0  0  0  0  0  0  0  0
   25.8972   75.8174    4.7189 O   0  0  0  0  0  0  0  0  0  0  0  0
   24.9228   73.6597    4.2721 C   0  0  2  0  0  0  0  0  0  0  0  0
   25.1655   72.3267    3.5638 C   0  0  2  0  0  0  0  0  0  0  0  0
   26.2077   74.4905    4.2978 C   0  0  1  0  0  0  0  0  0  0  0  0
   25.8094   72.5445    2.1938 C   0  0  1  0  0  0  0  0  0  0  0  0
   26.8564   74.5559    2.9181 C   0  0  1  0  0  0  0  0  0  0  0  0
   23.7118   72.8916    5.6309 H   0  0  0  0  0  0  0  0  0  0  0  0
   23.5266   71.4812    4.2588 H   0  0  0  0  0  0  0  0  0  0  0  0
   25.4835   75.7899    5.5958 H   0  0  0  0  0  0  0  0  0  0  0  0
   28.2527   76.4162    3.2203 O   0  0  0  0  0  0  0  0  0  0  0  0
   29.2638   74.3945    2.9207 O   0  0  0  0  0  0  0  0  0  0  0  0
   28.2538   75.0760    3.0132 C   0  0  0  0  0  0  0  0  0  0  0  0
  1  4  1  0
  1 24  1  0
  1  2  1  1
  1  3  2  0
 25 28  1  0
 25 24  1  0
 25 26  1  6
 25 27  2  0
  6 11  1  0
  6 12  1  0
 29 36  1  0
 29 37  1  0
  9  7  1  6
  7 13  1  0
 10  8  1  6
  8 14  1  0
  4  5  1  0
 36 28  1  6
 33 30  1  1
 30 38  1  0
 34 31  1  6
 31 39  1  0
 35 32  1  6
 32 40  1  0
 41 43  1  0
 15 19  2  0
 42 43  2  0
 16 22  2  0
 12 17  1  1
 17 19  1  0
 17 20  1  0
 18 19  1  0
 18 22  1  0
 18 23  1  0
  9 10  1  0
  9 11  1  0
 10 12  1  0
 11  5  1  1
 33 34  1  0
 33 35  1  0
 34 36  1  0
 35 37  1  0
 37 43  1  1
 20 21  2  0
 21 22  1  0
M  CHG  3   2  -1  26  -1  41  -1
M  END
>  <COMPND>  (102) 
    udp_gluA.pdb 

>  <AUTHOR>  (102) 
    GENERATED BY OPEN BABEL 3.1.1

>  <MASTER>  (102) 
        0    0    0    0    0    0    0    0   56    0   56    0

>  <minimizedAffinity>  (102) 
-6.28996

>  <CNNscore>  (102) 
0.6832317710

>  <CNNaffinity>  (102) 
4.3093314171

>  <CNN_VS>  (102) 
2.9442720413

>  <CNNaffinity_variance>  (102) 
0.0477235578

$$$$
103
     RDKit          3D

 43 45  0  0  0  0  0  0  0  0999 V2000
   23.1145   72.7618   -3.1752 P   0  0  2  0  0  0  0  0  0  0  0  0
   23.3385   74.0937   -2.2836 O   0  0  0  0  0  0  0  0  0  0  0  0
   24.3301   72.2807   -3.9119 O   0  0  0  0  0  0  0  0  0  0  0  0
   21.8322   73.1207   -4.0942 O   0  0  0  0  0  0  0  0  0  0  0  0
   21.3524   72.1416   -4.9975 C   0  0  0  0  0  0  0  0  0  0  0  0
   20.8587   71.7300   -7.3136 O   0  0  0  0  0  0  0  0  0  0  0  0
   21.4548   74.6340   -7.7644 O   0  0  0  0  0  0  0  0  0  0  0  0
   18.7285   74.5826   -7.7366 O   0  0  0  0  0  0  0  0  0  0  0  0
   20.8247   74.0034   -6.6491 C   0  0  1  0  0  0  0  0  0  0  0  0
   19.4155   73.5845   -7.0111 C   0  0  2  0  0  0  0  0  0  0  0  0
   21.5072   72.6616   -6.4209 C   0  0  1  0  0  0  0  0  0  0  0  0
   19.6604   72.3294   -7.8313 C   0  0  2  0  0  0  0  0  0  0  0  0
   21.0356   75.4934   -7.9297 H   0  0  0  0  0  0  0  0  0  0  0  0
   18.5969   75.3604   -7.1712 H   0  0  0  0  0  0  0  0  0  0  0  0
   18.7501   70.7023   -9.9527 O   0  0  0  0  0  0  0  0  0  0  0  0
   15.5195   68.7478   -7.3095 O   0  0  0  0  0  0  0  0  0  0  0  0
   18.5831   71.3865   -7.7251 N   0  0  0  0  0  0  0  0  0  0  0  0
   17.1413   69.7311   -8.6345 N   0  0  0  0  0  0  0  0  0  0  0  0
   18.2040   70.6181   -8.8511 C   0  0  0  0  0  0  0  0  0  0  0  0
   17.9159   71.2291   -6.5164 C   0  0  0  0  0  0  0  0  0  0  0  0
   16.9048   70.3794   -6.3252 C   0  0  0  0  0  0  0  0  0  0  0  0
   16.4463   69.5398   -7.4513 C   0  0  0  0  0  0  0  0  0  0  0  0
   16.8581   69.1868   -9.4044 H   0  0  0  0  0  0  0  0  0  0  0  0
   22.5129   71.7075   -2.1077 O   0  0  0  0  0  0  0  0  0  0  0  0
   21.3714   71.8777   -0.9756 P   0  0  2  0  0  0  0  0  0  0  0  0
   20.5683   70.4741   -1.0463 O   0  0  0  0  0  0  0  0  0  0  0  0
   20.5081   73.0936   -1.1496 O   0  0  0  0  0  0  0  0  0  0  0  0
   22.1712   71.8192    0.4241 O   0  0  0  0  0  0  0  0  0  0  0  0
   22.1361   73.3624    2.2204 O   0  0  0  0  0  0  0  0  0  0  0  0
   25.9687   71.8441    2.4914 O   0  0  0  0  0  0  0  0  0  0  0  0
   24.8150   72.4966   -0.1120 O   0  0  0  0  0  0  0  0  0  0  0  0
   23.9243   70.9896    4.3731 O   0  0  0  0  0  0  0  0  0  0  0  0
   24.5711   71.8104    2.2022 C   0  0  2  0  0  0  0  0  0  0  0  0
   24.2431   72.8593    1.1393 C   0  0  2  0  0  0  0  0  0  0  0  0
   23.8129   72.1099    3.4974 C   0  0  1  0  0  0  0  0  0  0  0  0
   22.7309   73.0123    0.9701 C   0  0  1  0  0  0  0  0  0  0  0  0
   22.3342   72.3741    3.2289 C   0  0  1  0  0  0  0  0  0  0  0  0
   26.4710   71.6565    1.6827 H   0  0  0  0  0  0  0  0  0  0  0  0
   25.7745   72.3975   -0.0120 H   0  0  0  0  0  0  0  0  0  0  0  0
   24.8607   70.8107    4.5519 H   0  0  0  0  0  0  0  0  0  0  0  0
   21.2042   72.0150    5.2526 O   0  0  0  0  0  0  0  0  0  0  0  0
   21.5789   74.1793    4.6404 O   0  0  0  0  0  0  0  0  0  0  0  0
   21.6777   72.9803    4.4262 C   0  0  0  0  0  0  0  0  0  0  0  0
  1  4  1  0
  1 24  1  0
  1  2  1  1
  1  3  2  0
 25 28  1  0
 25 24  1  0
 25 26  1  1
 25 27  2  0
  6 11  1  0
  6 12  1  0
 29 36  1  0
 29 37  1  0
  9  7  1  6
  7 13  1  0
 10  8  1  6
  8 14  1  0
  4  5  1  0
 36 28  1  1
 33 30  1  1
 30 38  1  0
 34 31  1  6
 31 39  1  0
 35 32  1  1
 32 40  1  0
 41 43  1  0
 15 19  2  0
 42 43  2  0
 16 22  2  0
 12 17  1  1
 17 19  1  0
 17 20  1  0
 18 19  1  0
 18 22  1  0
 18 23  1  0
  9 10  1  0
  9 11  1  0
 10 12  1  0
 11  5  1  1
 33 34  1  0
 33 35  1  0
 34 36  1  0
 35 37  1  0
 37 43  1  1
 20 21  2  0
 21 22  1  0
M  CHG  3   2  -1  26  -1  41  -1
M  END
>  <COMPND>  (103) 
    udp_gluA.pdb 

>  <AUTHOR>  (103) 
    GENERATED BY OPEN BABEL 3.1.1

>  <MASTER>  (103) 
        0    0    0    0    0    0    0    0   56    0   56    0

>  <minimizedAffinity>  (103) 
-7.31964

>  <CNNscore>  (103) 
0.6400718689

>  <CNNaffinity>  (103) 
4.2884840965

>  <CNN_VS>  (103) 
2.7449381351

>  <CNNaffinity_variance>  (103) 
0.0801503211

$$$$
104
     RDKit          3D

 43 45  0  0  0  0  0  0  0  0999 V2000
   19.3586   74.7406   -2.0652 P   0  0  2  0  0  0  0  0  0  0  0  0
   18.0999   73.9342   -1.4453 O   0  0  0  0  0  0  0  0  0  0  0  0
   19.2499   76.2356   -1.9951 O   0  0  0  0  0  0  0  0  0  0  0  0
   19.5268   74.1171   -3.5487 O   0  0  0  0  0  0  0  0  0  0  0  0
   19.2941   72.7325   -3.7307 C   0  0  0  0  0  0  0  0  0  0  0  0
   19.9461   70.9680   -5.2270 O   0  0  0  0  0  0  0  0  0  0  0  0
   22.2951   72.6909   -5.9375 O   0  0  0  0  0  0  0  0  0  0  0  0
   20.5989   73.1026   -8.0326 O   0  0  0  0  0  0  0  0  0  0  0  0
   20.9549   73.0734   -5.6275 C   0  0  1  0  0  0  0  0  0  0  0  0
   20.0360   72.7495   -6.7864 C   0  0  2  0  0  0  0  0  0  0  0  0
   20.4392   72.1393   -4.5413 C   0  0  1  0  0  0  0  0  0  0  0  0
   19.8508   71.2495   -6.6324 C   0  0  2  0  0  0  0  0  0  0  0  0
   22.6462   73.2737   -6.6295 H   0  0  0  0  0  0  0  0  0  0  0  0
   20.6963   74.0670   -8.0817 H   0  0  0  0  0  0  0  0  0  0  0  0
   19.2794   70.6631   -9.3353 O   0  0  0  0  0  0  0  0  0  0  0  0
   14.9159   69.5437   -8.3601 O   0  0  0  0  0  0  0  0  0  0  0  0
   18.5737   70.8029   -7.1125 N   0  0  0  0  0  0  0  0  0  0  0  0
   17.1064   70.1071   -8.8472 N   0  0  0  0  0  0  0  0  0  0  0  0
   18.3916   70.5360   -8.4901 C   0  0  0  0  0  0  0  0  0  0  0  0
   17.5196   70.6321   -6.2235 C   0  0  0  0  0  0  0  0  0  0  0  0
   16.3002   70.2225   -6.5788 C   0  0  0  0  0  0  0  0  0  0  0  0
   16.0261   69.9229   -7.9995 C   0  0  0  0  0  0  0  0  0  0  0  0
   16.9548   69.9170   -9.8012 H   0  0  0  0  0  0  0  0  0  0  0  0
   20.6177   74.1187   -1.2648 O   0  0  0  0  0  0  0  0  0  0  0  0
   22.1972   74.4541   -1.3454 P   0  0  2  0  0  0  0  0  0  0  0  0
   22.2710   76.0020   -0.8775 O   0  0  0  0  0  0  0  0  0  0  0  0
   22.8166   74.1830   -2.6859 O   0  0  0  0  0  0  0  0  0  0  0  0
   22.8538   73.6281   -0.1252 O   0  0  0  0  0  0  0  0  0  0  0  0
   24.9253   72.4803   -0.0982 O   0  0  0  0  0  0  0  0  0  0  0  0
   22.7220   70.3027    2.6352 O   0  0  0  0  0  0  0  0  0  0  0  0
   21.5053   71.2099    0.1390 O   0  0  0  0  0  0  0  0  0  0  0  0
   24.7661   72.1548    3.5529 O   0  0  0  0  0  0  0  0  0  0  0  0
   23.1273   71.4723    1.9240 C   0  0  2  0  0  0  0  0  0  0  0  0
   22.8977   71.2660    0.4266 C   0  0  2  0  0  0  0  0  0  0  0  0
   24.6127   71.7071    2.2074 C   0  0  1  0  0  0  0  0  0  0  0  0
   23.5286   72.3984   -0.3847 C   0  0  1  0  0  0  0  0  0  0  0  0
   25.1982   72.7616    1.2727 C   0  0  1  0  0  0  0  0  0  0  0  0
   21.7810   70.1336    2.4702 H   0  0  0  0  0  0  0  0  0  0  0  0
   21.0985   70.4936    0.6506 H   0  0  0  0  0  0  0  0  0  0  0  0
   24.3972   71.4925    4.1581 H   0  0  0  0  0  0  0  0  0  0  0  0
   27.2146   73.4269    0.2760 O   0  0  0  0  0  0  0  0  0  0  0  0
   27.3568   72.2057    2.1963 O   0  0  0  0  0  0  0  0  0  0  0  0
   26.6913   72.7484    1.3271 C   0  0  0  0  0  0  0  0  0  0  0  0
  1  4  1  0
  1 24  1  0
  1  2  1  1
  1  3  2  0
 25 28  1  0
 25 24  1  0
 25 26  1  1
 25 27  2  0
  6 11  1  0
  6 12  1  0
 29 36  1  0
 29 37  1  0
  9  7  1  6
  7 13  1  0
 10  8  1  6
  8 14  1  0
  4  5  1  0
 36 28  1  1
 33 30  1  1
 30 38  1  0
 34 31  1  1
 31 39  1  0
 35 32  1  1
 32 40  1  0
 41 43  1  0
 15 19  2  0
 42 43  2  0
 16 22  2  0
 12 17  1  1
 17 19  1  0
 17 20  1  0
 18 19  1  0
 18 22  1  0
 18 23  1  0
  9 10  1  0
  9 11  1  0
 10 12  1  0
 11  5  1  6
 33 34  1  0
 33 35  1  0
 34 36  1  0
 35 37  1  0
 37 43  1  6
 20 21  2  0
 21 22  1  0
M  CHG  3   2  -1  26  -1  41  -1
M  END
>  <COMPND>  (104) 
    udp_gluA.pdb 

>  <AUTHOR>  (104) 
    GENERATED BY OPEN BABEL 3.1.1

>  <MASTER>  (104) 
        0    0    0    0    0    0    0    0   56    0   56    0

>  <minimizedAffinity>  (104) 
-6.96783

>  <CNNscore>  (104) 
0.5993172526

>  <CNNaffinity>  (104) 
4.2240242958

>  <CNN_VS>  (104) 
2.5315306187

>  <CNNaffinity_variance>  (104) 
0.0121713402

$$$$
105
     RDKit          3D

 43 45  0  0  0  0  0  0  0  0999 V2000
   15.5079   72.5991   -2.6480 P   0  0  2  0  0  0  0  0  0  0  0  0
   16.8992   72.4777   -1.8305 O   0  0  0  0  0  0  0  0  0  0  0  0
   14.8902   73.9667   -2.6480 O   0  0  0  0  0  0  0  0  0  0  0  0
   14.5922   71.4146   -2.0346 O   0  0  0  0  0  0  0  0  0  0  0  0
   15.0683   70.7088   -0.9034 C   0  0  0  0  0  0  0  0  0  0  0  0
   15.0434   68.5024    0.0499 O   0  0  0  0  0  0  0  0  0  0  0  0
   14.1004   67.5552   -2.6344 O   0  0  0  0  0  0  0  0  0  0  0  0
   11.7940   67.6188   -1.1809 O   0  0  0  0  0  0  0  0  0  0  0  0
   13.7955   68.7682   -1.9458 C   0  0  1  0  0  0  0  0  0  0  0  0
   12.8347   68.4975   -0.8075 C   0  0  2  0  0  0  0  0  0  0  0  0
   15.0484   69.2159   -1.2056 C   0  0  1  0  0  0  0  0  0  0  0  0
   13.7534   67.9017    0.2457 C   0  0  2  0  0  0  0  0  0  0  0  0
   13.3147   67.2495   -3.1150 H   0  0  0  0  0  0  0  0  0  0  0  0
   11.2373   68.0440   -1.8527 H   0  0  0  0  0  0  0  0  0  0  0  0
   12.8014   65.9456    2.0467 O   0  0  0  0  0  0  0  0  0  0  0  0
   12.0684   69.0784    5.3470 O   0  0  0  0  0  0  0  0  0  0  0  0
   13.3073   68.1786    1.5818 N   0  0  0  0  0  0  0  0  0  0  0  0
   12.4363   67.5079    3.6884 N   0  0  0  0  0  0  0  0  0  0  0  0
   12.8477   67.1238    2.4053 C   0  0  0  0  0  0  0  0  0  0  0  0
   13.3294   69.4815    2.0644 C   0  0  0  0  0  0  0  0  0  0  0  0
   12.9341   69.8322    3.2898 C   0  0  0  0  0  0  0  0  0  0  0  0
   12.4391   68.7902    4.2131 C   0  0  0  0  0  0  0  0  0  0  0  0
   12.1103   66.7911    4.2793 H   0  0  0  0  0  0  0  0  0  0  0  0
   15.8972   72.0362   -4.1124 O   0  0  0  0  0  0  0  0  0  0  0  0
   16.7548   70.7401   -4.5578 P   0  0  2  0  0  0  0  0  0  0  0  0
   15.6804   69.5335   -4.4581 O   0  0  0  0  0  0  0  0  0  0  0  0
   18.0047   70.5232   -3.7549 O   0  0  0  0  0  0  0  0  0  0  0  0
   17.0011   70.9363   -6.1400 O   0  0  0  0  0  0  0  0  0  0  0  0
   18.8405   72.4269   -6.2033 O   0  0  0  0  0  0  0  0  0  0  0  0
   18.4533   71.3998  -10.1862 O   0  0  0  0  0  0  0  0  0  0  0  0
   16.0883   71.9527   -8.5628 O   0  0  0  0  0  0  0  0  0  0  0  0
   20.5943   70.2569   -8.5861 O   0  0  0  0  0  0  0  0  0  0  0  0
   18.3835   71.1956   -8.7750 C   0  0  2  0  0  0  0  0  0  0  0  0
   17.4266   72.2155   -8.1571 C   0  0  2  0  0  0  0  0  0  0  0  0
   19.7914   71.3713   -8.2016 C   0  0  1  0  0  0  0  0  0  0  0  0
   17.5003   72.1795   -6.6300 C   0  0  1  0  0  0  0  0  0  0  0  0
   19.7663   71.4518   -6.6779 C   0  0  1  0  0  0  0  0  0  0  0  0
   17.5697   71.2932  -10.5726 H   0  0  0  0  0  0  0  0  0  0  0  0
   16.0342   71.9737   -9.5308 H   0  0  0  0  0  0  0  0  0  0  0  0
   20.6184   70.1942   -9.5537 H   0  0  0  0  0  0  0  0  0  0  0  0
   21.8698   72.3680   -7.1652 O   0  0  0  0  0  0  0  0  0  0  0  0
   21.3900   71.9733   -4.9713 O   0  0  0  0  0  0  0  0  0  0  0  0
   21.0740   71.9464   -6.1513 C   0  0  0  0  0  0  0  0  0  0  0  0
  1  4  1  0
  1 24  1  0
  1  2  1  1
  1  3  2  0
 25 28  1  0
 25 24  1  0
 25 26  1  6
 25 27  2  0
  6 11  1  0
  6 12  1  0
 29 36  1  0
 29 37  1  0
  9  7  1  1
  7 13  1  0
 10  8  1  6
  8 14  1  0
  4  5  1  0
 36 28  1  6
 33 30  1  6
 30 38  1  0
 34 31  1  1
 31 39  1  0
 35 32  1  1
 32 40  1  0
 41 43  1  0
 15 19  2  0
 42 43  2  0
 16 22  2  0
 12 17  1  1
 17 19  1  0
 17 20  1  0
 18 19  1  0
 18 22  1  0
 18 23  1  0
  9 10  1  0
  9 11  1  0
 10 12  1  0
 11  5  1  1
 33 34  1  0
 33 35  1  0
 34 36  1  0
 35 37  1  0
 37 43  1  6
 20 21  2  0
 21 22  1  0
M  CHG  3   2  -1  26  -1  41  -1
M  END
>  <COMPND>  (105) 
    udp_gluA.pdb 

>  <AUTHOR>  (105) 
    GENERATED BY OPEN BABEL 3.1.1

>  <MASTER>  (105) 
        0    0    0    0    0    0    0    0   56    0   56    0

>  <minimizedAffinity>  (105) 
-6.50260

>  <CNNscore>  (105) 
0.5847533345

>  <CNNaffinity>  (105) 
4.0600481033

>  <CNN_VS>  (105) 
2.3741266727

>  <CNNaffinity_variance>  (105) 
0.1049437299

$$$$
106
     RDKit          3D

 43 45  0  0  0  0  0  0  0  0999 V2000
   22.4761   72.4690   -3.8312 P   0  0  2  0  0  0  0  0  0  0  0  0
   22.4803   70.8740   -3.5575 O   0  0  0  0  0  0  0  0  0  0  0  0
   23.5623   72.9581   -4.7436 O   0  0  0  0  0  0  0  0  0  0  0  0
   22.4585   73.1175   -2.3489 O   0  0  0  0  0  0  0  0  0  0  0  0
   21.4002   73.9934   -2.0066 C   0  0  0  0  0  0  0  0  0  0  0  0
   21.2930   72.3041   -0.3000 O   0  0  0  0  0  0  0  0  0  0  0  0
   18.8385   73.7177    0.6841 O   0  0  0  0  0  0  0  0  0  0  0  0
   20.7578   74.5781    2.4196 O   0  0  0  0  0  0  0  0  0  0  0  0
   20.0311   74.2641    0.1206 C   0  0  1  0  0  0  0  0  0  0  0  0
   21.1640   74.1944    1.1226 C   0  0  2  0  0  0  0  0  0  0  0  0
   20.5120   73.3170   -0.9703 C   0  0  1  0  0  0  0  0  0  0  0  0
   21.5646   72.7310    1.0444 C   0  0  2  0  0  0  0  0  0  0  0  0
   18.5123   74.3056    1.3838 H   0  0  0  0  0  0  0  0  0  0  0  0
   20.5133   75.5174    2.4172 H   0  0  0  0  0  0  0  0  0  0  0  0
   22.5728   70.6932    2.7199 O   0  0  0  0  0  0  0  0  0  0  0  0
   26.9276   72.0481    2.0539 O   0  0  0  0  0  0  0  0  0  0  0  0
   22.9576   72.5284    1.3262 N   0  0  0  0  0  0  0  0  0  0  0  0
   24.7407   71.3706    2.3874 N   0  0  0  0  0  0  0  0  0  0  0  0
   23.3588   71.4752    2.1817 C   0  0  0  0  0  0  0  0  0  0  0  0
   23.9093   73.3659    0.7571 C   0  0  0  0  0  0  0  0  0  0  0  0
   25.2231   73.2536    0.9624 C   0  0  0  0  0  0  0  0  0  0  0  0
   25.7256   72.1797    1.8442 C   0  0  0  0  0  0  0  0  0  0  0  0
   25.0440   70.6461    2.9810 H   0  0  0  0  0  0  0  0  0  0  0  0
   20.9748   72.7417   -4.3649 O   0  0  0  0  0  0  0  0  0  0  0  0
   20.4266   73.6931   -5.5514 P   0  0  2  0  0  0  0  0  0  0  0  0
   21.6553   73.7155   -6.6051 O   0  0  0  0  0  0  0  0  0  0  0  0
   19.9789   75.0513   -5.0945 O   0  0  0  0  0  0  0  0  0  0  0  0
   19.2816   72.8206   -6.2796 O   0  0  0  0  0  0  0  0  0  0  0  0
   18.5006   70.5964   -6.0510 O   0  0  0  0  0  0  0  0  0  0  0  0
   18.3813   71.1124  -10.1483 O   0  0  0  0  0  0  0  0  0  0  0  0
   20.6469   72.1080   -8.5957 O   0  0  0  0  0  0  0  0  0  0  0  0
   15.9233   71.1757   -8.5974 O   0  0  0  0  0  0  0  0  0  0  0  0
   18.3015   71.5157   -8.7812 C   0  0  2  0  0  0  0  0  0  0  0  0
   19.6370   71.2434   -8.0885 C   0  0  2  0  0  0  0  0  0  0  0  0
   17.1828   70.7112   -8.1154 C   0  0  1  0  0  0  0  0  0  0  0  0
   19.5207   71.4462   -6.5771 C   0  0  1  0  0  0  0  0  0  0  0  0
   17.2119   70.8671   -6.5977 C   0  0  1  0  0  0  0  0  0  0  0  0
   19.0859   71.6105  -10.5919 H   0  0  0  0  0  0  0  0  0  0  0  0
   20.7258   71.9848   -9.5543 H   0  0  0  0  0  0  0  0  0  0  0  0
   15.8919   71.0820   -9.5623 H   0  0  0  0  0  0  0  0  0  0  0  0
   15.9952   68.8751   -6.8275 O   0  0  0  0  0  0  0  0  0  0  0  0
   16.0016   69.8584   -4.7703 O   0  0  0  0  0  0  0  0  0  0  0  0
   16.3470   69.8402   -5.9422 C   0  0  0  0  0  0  0  0  0  0  0  0
  1  4  1  0
  1 24  1  0
  1  2  1  1
  1  3  2  0
 25 28  1  0
 25 24  1  0
 25 26  1  6
 25 27  2  0
  6 11  1  0
  6 12  1  0
 29 36  1  0
 29 37  1  0
  9  7  1  1
  7 13  1  0
 10  8  1  1
  8 14  1  0
  4  5  1  0
 36 28  1  6
 33 30  1  6
 30 38  1  0
 34 31  1  6
 31 39  1  0
 35 32  1  6
 32 40  1  0
 41 43  1  0
 15 19  2  0
 42 43  2  0
 16 22  2  0
 12 17  1  6
 17 19  1  0
 17 20  1  0
 18 19  1  0
 18 22  1  0
 18 23  1  0
  9 10  1  0
  9 11  1  0
 10 12  1  0
 11  5  1  6
 33 34  1  0
 33 35  1  0
 34 36  1  0
 35 37  1  0
 37 43  1  1
 20 21  2  0
 21 22  1  0
M  CHG  3   2  -1  26  -1  41  -1
M  END
>  <COMPND>  (106) 
    udp_gluA.pdb 

>  <AUTHOR>  (106) 
    GENERATED BY OPEN BABEL 3.1.1

>  <MASTER>  (106) 
        0    0    0    0    0    0    0    0   56    0   56    0

>  <minimizedAffinity>  (106) 
-7.17970

>  <CNNscore>  (106) 
0.5658428073

>  <CNNaffinity>  (106) 
4.4557690620

>  <CNN_VS>  (106) 
2.5212647915

>  <CNNaffinity_variance>  (106) 
0.1937896460

$$$$
107
     RDKit          3D

 43 45  0  0  0  0  0  0  0  0999 V2000
   18.4345   75.6329   -2.2908 P   0  0  2  0  0  0  0  0  0  0  0  0
   17.3377   76.5021   -1.4782 O   0  0  0  0  0  0  0  0  0  0  0  0
   19.4612   76.4399   -3.0300 O   0  0  0  0  0  0  0  0  0  0  0  0
   17.5430   74.6312   -3.1963 O   0  0  0  0  0  0  0  0  0  0  0  0
   18.2077   73.6696   -3.9951 C   0  0  0  0  0  0  0  0  0  0  0  0
   17.2638   71.5753   -4.7026 O   0  0  0  0  0  0  0  0  0  0  0  0
   18.3960   70.4241   -2.1758 O   0  0  0  0  0  0  0  0  0  0  0  0
   20.2012   69.6238   -4.0565 O   0  0  0  0  0  0  0  0  0  0  0  0
   18.9369   71.4306   -3.0321 C   0  0  1  0  0  0  0  0  0  0  0  0
   19.4689   70.8057   -4.3044 C   0  0  2  0  0  0  0  0  0  0  0  0
   17.7819   72.2760   -3.5511 C   0  0  1  0  0  0  0  0  0  0  0  0
   18.1926   70.5495   -5.0875 C   0  0  2  0  0  0  0  0  0  0  0  0
   19.1154   69.8711   -1.8318 H   0  0  0  0  0  0  0  0  0  0  0  0
   21.0041   69.8400   -3.5558 H   0  0  0  0  0  0  0  0  0  0  0  0
   16.5340   69.2948   -6.9983 O   0  0  0  0  0  0  0  0  0  0  0  0
   19.0770   70.8664  -10.5065 O   0  0  0  0  0  0  0  0  0  0  0  0
   18.3982   70.6144   -6.5068 N   0  0  0  0  0  0  0  0  0  0  0  0
   17.8027   70.0779   -8.7437 N   0  0  0  0  0  0  0  0  0  0  0  0
   17.5066   69.9482   -7.3804 C   0  0  0  0  0  0  0  0  0  0  0  0
   19.4713   71.3328   -7.0200 C   0  0  0  0  0  0  0  0  0  0  0  0
   19.7406   71.4475   -8.3220 C   0  0  0  0  0  0  0  0  0  0  0  0
   18.8582   70.7807   -9.3019 C   0  0  0  0  0  0  0  0  0  0  0  0
   17.1972   69.6210   -9.3713 H   0  0  0  0  0  0  0  0  0  0  0  0
   19.0376   74.6551   -1.1537 O   0  0  0  0  0  0  0  0  0  0  0  0
   19.9647   74.9688    0.1331 P   0  0  2  0  0  0  0  0  0  0  0  0
   19.2916   74.0727    1.3012 O   0  0  0  0  0  0  0  0  0  0  0  0
   20.0844   76.4282    0.4647 O   0  0  0  0  0  0  0  0  0  0  0  0
   21.3669   74.2371   -0.1844 O   0  0  0  0  0  0  0  0  0  0  0  0
   21.9073   72.2610   -1.3727 O   0  0  0  0  0  0  0  0  0  0  0  0
   24.6757   72.1823    1.6929 O   0  0  0  0  0  0  0  0  0  0  0  0
   21.9051   72.9447    2.2189 O   0  0  0  0  0  0  0  0  0  0  0  0
   25.4927   72.9405   -0.9920 O   0  0  0  0  0  0  0  0  0  0  0  0
   23.8144   72.7899    0.7301 C   0  0  2  0  0  0  0  0  0  0  0  0
   22.3688   72.3727    1.0013 C   0  0  2  0  0  0  0  0  0  0  0  0
   24.2522   72.3203   -0.6591 C   0  0  1  0  0  0  0  0  0  0  0  0
   21.4491   72.8138   -0.1382 C   0  0  1  0  0  0  0  0  0  0  0  0
   23.2216   72.6892   -1.7223 C   0  0  1  0  0  0  0  0  0  0  0  0
   24.4164   72.4662    2.5836 H   0  0  0  0  0  0  0  0  0  0  0  0
   22.4842   72.6692    2.9462 H   0  0  0  0  0  0  0  0  0  0  0  0
   26.1574   72.7138   -0.3229 H   0  0  0  0  0  0  0  0  0  0  0  0
   22.6913   70.8595   -3.0906 O   0  0  0  0  0  0  0  0  0  0  0  0
   24.3033   72.2868   -3.8411 O   0  0  0  0  0  0  0  0  0  0  0  0
   23.4865   71.9538   -2.9955 C   0  0  0  0  0  0  0  0  0  0  0  0
  1  4  1  0
  1 24  1  0
  1  2  1  1
  1  3  2  0
 25 28  1  0
 25 24  1  0
 25 26  1  1
 25 27  2  0
  6 11  1  0
  6 12  1  0
 29 36  1  0
 29 37  1  0
  9  7  1  1
  7 13  1  0
 10  8  1  1
  8 14  1  0
  4  5  1  0
 36 28  1  6
 33 30  1  1
 30 38  1  0
 34 31  1  1
 31 39  1  0
 35 32  1  6
 32 40  1  0
 41 43  1  0
 15 19  2  0
 42 43  2  0
 16 22  2  0
 12 17  1  6
 17 19  1  0
 17 20  1  0
 18 19  1  0
 18 22  1  0
 18 23  1  0
  9 10  1  0
  9 11  1  0
 10 12  1  0
 11  5  1  6
 33 34  1  0
 33 35  1  0
 34 36  1  0
 35 37  1  0
 37 43  1  6
 20 21  2  0
 21 22  1  0
M  CHG  3   2  -1  26  -1  41  -1
M  END
>  <COMPND>  (107) 
    udp_gluA.pdb 

>  <AUTHOR>  (107) 
    GENERATED BY OPEN BABEL 3.1.1

>  <MASTER>  (107) 
        0    0    0    0    0    0    0    0   56    0   56    0

>  <minimizedAffinity>  (107) 
-5.88946

>  <CNNscore>  (107) 
0.5142205954

>  <CNNaffinity>  (107) 
4.3214354515

>  <CNN_VS>  (107) 
2.2221710682

>  <CNNaffinity_variance>  (107) 
0.0579830632

$$$$
108
     RDKit          3D

 43 45  0  0  0  0  0  0  0  0999 V2000
   22.4599   73.3378   -3.9736 P   0  0  2  0  0  0  0  0  0  0  0  0
   22.4005   74.7415   -3.1705 O   0  0  0  0  0  0  0  0  0  0  0  0
   23.8289   72.9265   -4.4301 O   0  0  0  0  0  0  0  0  0  0  0  0
   21.3526   73.5107   -5.1406 O   0  0  0  0  0  0  0  0  0  0  0  0
   20.1727   72.7309   -5.0740 C   0  0  0  0  0  0  0  0  0  0  0  0
   19.1042   70.8348   -6.0941 O   0  0  0  0  0  0  0  0  0  0  0  0
   21.6805   70.4113   -7.5688 O   0  0  0  0  0  0  0  0  0  0  0  0
   20.1116   71.6177   -9.4447 O   0  0  0  0  0  0  0  0  0  0  0  0
   21.0418   71.6332   -7.1982 C   0  0  1  0  0  0  0  0  0  0  0  0
   19.8411   71.8869   -8.0850 C   0  0  2  0  0  0  0  0  0  0  0  0
   20.3941   71.4302   -5.8353 C   0  0  1  0  0  0  0  0  0  0  0  0
   18.8084   70.9412   -7.4957 C   0  0  2  0  0  0  0  0  0  0  0  0
   22.1017   70.5165   -8.4367 H   0  0  0  0  0  0  0  0  0  0  0  0
   20.7742   72.2462   -9.7732 H   0  0  0  0  0  0  0  0  0  0  0  0
   16.6063   69.3330   -8.2309 O   0  0  0  0  0  0  0  0  0  0  0  0
   13.7067   72.9124   -8.0743 O   0  0  0  0  0  0  0  0  0  0  0  0
   17.4669   71.4271   -7.6542 N   0  0  0  0  0  0  0  0  0  0  0  0
   15.1644   71.1175   -8.1532 N   0  0  0  0  0  0  0  0  0  0  0  0
   16.4328   70.5359   -8.0265 C   0  0  0  0  0  0  0  0  0  0  0  0
   17.1862   72.7711   -7.4402 C   0  0  0  0  0  0  0  0  0  0  0  0
   15.9721   73.3107   -7.5647 C   0  0  0  0  0  0  0  0  0  0  0  0
   14.8362   72.4483   -7.9515 C   0  0  0  0  0  0  0  0  0  0  0  0
   14.4287   70.5172   -8.4135 H   0  0  0  0  0  0  0  0  0  0  0  0
   21.7523   72.3046   -2.9514 O   0  0  0  0  0  0  0  0  0  0  0  0
   22.3676   71.4008   -1.7605 P   0  0  2  0  0  0  0  0  0  0  0  0
   23.2179   70.2741   -2.5528 O   0  0  0  0  0  0  0  0  0  0  0  0
   21.3417   70.8490   -0.8133 O   0  0  0  0  0  0  0  0  0  0  0  0
   23.4818   72.3397   -1.0680 O   0  0  0  0  0  0  0  0  0  0  0  0
   23.0453   72.2934    1.2593 O   0  0  0  0  0  0  0  0  0  0  0  0
   26.4148   74.6774    1.0832 O   0  0  0  0  0  0  0  0  0  0  0  0
   24.2684   75.0003   -0.8722 O   0  0  0  0  0  0  0  0  0  0  0  0
   26.6228   71.9213    1.9840 O   0  0  0  0  0  0  0  0  0  0  0  0
   25.5383   73.6276    0.6736 C   0  0  2  0  0  0  0  0  0  0  0  0
   24.1737   74.2131    0.3094 C   0  0  2  0  0  0  0  0  0  0  0  0
   25.4019   72.6441    1.8380 C   0  0  1  0  0  0  0  0  0  0  0  0
   23.1441   73.1042    0.0879 C   0  0  1  0  0  0  0  0  0  0  0  0
   24.2713   71.6481    1.5965 C   0  0  1  0  0  0  0  0  0  0  0  0
   26.5166   75.3149    0.3589 H   0  0  0  0  0  0  0  0  0  0  0  0
   24.9203   75.7057   -0.7388 H   0  0  0  0  0  0  0  0  0  0  0  0
   27.3506   72.5437    2.1381 H   0  0  0  0  0  0  0  0  0  0  0  0
   22.7639   70.2405    2.7136 O   0  0  0  0  0  0  0  0  0  0  0  0
   24.6062   70.9204    3.8724 O   0  0  0  0  0  0  0  0  0  0  0  0
   23.9308   70.9169    2.8541 C   0  0  0  0  0  0  0  0  0  0  0  0
  1  4  1  0
  1 24  1  0
  1  2  1  1
  1  3  2  0
 25 28  1  0
 25 24  1  0
 25 26  1  6
 25 27  2  0
  6 11  1  0
  6 12  1  0
 29 36  1  0
 29 37  1  0
  9  7  1  6
  7 13  1  0
 10  8  1  6
  8 14  1  0
  4  5  1  0
 36 28  1  6
 33 30  1  1
 30 38  1  0
 34 31  1  6
 31 39  1  0
 35 32  1  6
 32 40  1  0
 41 43  1  0
 15 19  2  0
 42 43  2  0
 16 22  2  0
 12 17  1  1
 17 19  1  0
 17 20  1  0
 18 19  1  0
 18 22  1  0
 18 23  1  0
  9 10  1  0
  9 11  1  0
 10 12  1  0
 11  5  1  6
 33 34  1  0
 33 35  1  0
 34 36  1  0
 35 37  1  0
 37 43  1  1
 20 21  2  0
 21 22  1  0
M  CHG  3   2  -1  26  -1  41  -1
M  END
>  <COMPND>  (108) 
    udp_gluA.pdb 

>  <AUTHOR>  (108) 
    GENERATED BY OPEN BABEL 3.1.1

>  <MASTER>  (108) 
        0    0    0    0    0    0    0    0   56    0   56    0

>  <minimizedAffinity>  (108) 
-7.70820

>  <CNNscore>  (108) 
0.5139859319

>  <CNNaffinity>  (108) 
4.3375577927

>  <CNN_VS>  (108) 
2.2294437885

>  <CNNaffinity_variance>  (108) 
0.0378753878

$$$$
109
     RDKit          3D

 43 45  0  0  0  0  0  0  0  0999 V2000
   23.9081   71.7005   -2.8271 P   0  0  2  0  0  0  0  0  0  0  0  0
   25.1924   70.8542   -3.3301 O   0  0  0  0  0  0  0  0  0  0  0  0
   22.9042   70.9169   -2.0334 O   0  0  0  0  0  0  0  0  0  0  0  0
   23.3485   72.3962   -4.1765 O   0  0  0  0  0  0  0  0  0  0  0  0
   21.9554   72.3627   -4.4268 C   0  0  0  0  0  0  0  0  0  0  0  0
   20.7466   71.4793   -6.3073 O   0  0  0  0  0  0  0  0  0  0  0  0
   21.4414   74.0332   -7.7167 O   0  0  0  0  0  0  0  0  0  0  0  0
   18.8595   74.4593   -6.9498 O   0  0  0  0  0  0  0  0  0  0  0  0
   21.1244   73.8175   -6.3413 C   0  0  1  0  0  0  0  0  0  0  0  0
   19.6397   73.5702   -6.1782 C   0  0  2  0  0  0  0  0  0  0  0  0
   21.7180   72.4779   -5.9270 C   0  0  1  0  0  0  0  0  0  0  0  0
   19.5080   72.1278   -6.6367 C   0  0  2  0  0  0  0  0  0  0  0  0
   21.0725   74.8834   -8.0043 H   0  0  0  0  0  0  0  0  0  0  0  0
   18.9775   75.3639   -6.6186 H   0  0  0  0  0  0  0  0  0  0  0  0
   17.4818   70.6885   -7.9781 O   0  0  0  0  0  0  0  0  0  0  0  0
   15.4295   69.5293   -4.0172 O   0  0  0  0  0  0  0  0  0  0  0  0
   18.4320   71.4403   -5.9805 N   0  0  0  0  0  0  0  0  0  0  0  0
   16.4610   70.1134   -6.0041 N   0  0  0  0  0  0  0  0  0  0  0  0
   17.4657   70.7470   -6.7471 C   0  0  0  0  0  0  0  0  0  0  0  0
   18.3425   71.4556   -4.5939 C   0  0  0  0  0  0  0  0  0  0  0  0
   17.3790   70.8469   -3.8998 C   0  0  0  0  0  0  0  0  0  0  0  0
   16.3296   70.1010   -4.6249 C   0  0  0  0  0  0  0  0  0  0  0  0
   15.7757   69.6260   -6.5160 H   0  0  0  0  0  0  0  0  0  0  0  0
   24.5779   72.9379   -2.0314 O   0  0  0  0  0  0  0  0  0  0  0  0
   23.9095   74.1397   -1.1814 P   0  0  2  0  0  0  0  0  0  0  0  0
   22.3712   73.6640   -1.0151 O   0  0  0  0  0  0  0  0  0  0  0  0
   24.0734   75.4974   -1.8009 O   0  0  0  0  0  0  0  0  0  0  0  0
   24.5417   73.9971    0.2959 O   0  0  0  0  0  0  0  0  0  0  0  0
   23.2678   72.9540    1.9983 O   0  0  0  0  0  0  0  0  0  0  0  0
   26.1828   74.8887    4.1955 O   0  0  0  0  0  0  0  0  0  0  0  0
   24.9105   76.2194    1.9273 O   0  0  0  0  0  0  0  0  0  0  0  0
   26.3260   72.0131    3.7939 O   0  0  0  0  0  0  0  0  0  0  0  0
   25.6416   74.2052    3.0651 C   0  0  2  0  0  0  0  0  0  0  0  0
   24.4613   74.9987    2.5041 C   0  0  2  0  0  0  0  0  0  0  0  0
   25.1811   72.8204    3.5256 C   0  0  1  0  0  0  0  0  0  0  0  0
   23.7145   74.1910    1.4417 C   0  0  1  0  0  0  0  0  0  0  0  0
   24.3371   72.1303    2.4579 C   0  0  1  0  0  0  0  0  0  0  0  0
   26.4821   75.7717    3.9270 H   0  0  0  0  0  0  0  0  0  0  0  0
   25.3855   76.7369    2.5958 H   0  0  0  0  0  0  0  0  0  0  0  0
   26.8719   72.4412    4.4719 H   0  0  0  0  0  0  0  0  0  0  0  0
   23.8432   70.8537    4.3626 O   0  0  0  0  0  0  0  0  0  0  0  0
   22.9421   70.1631    2.3851 O   0  0  0  0  0  0  0  0  0  0  0  0
   23.6270   70.9453    3.0270 C   0  0  0  0  0  0  0  0  0  0  0  0
  1  4  1  0
  1 24  1  0
  1  2  1  6
  1  3  2  0
 25 28  1  0
 25 24  1  0
 25 26  1  1
 25 27  2  0
  6 11  1  0
  6 12  1  0
 29 36  1  0
 29 37  1  0
  9  7  1  6
  7 13  1  0
 10  8  1  6
  8 14  1  0
  4  5  1  0
 36 28  1  6
 33 30  1  1
 30 38  1  0
 34 31  1  6
 31 39  1  0
 35 32  1  6
 32 40  1  0
 41 43  1  0
 15 19  2  0
 42 43  2  0
 16 22  2  0
 12 17  1  1
 17 19  1  0
 17 20  1  0
 18 19  1  0
 18 22  1  0
 18 23  1  0
  9 10  1  0
  9 11  1  0
 10 12  1  0
 11  5  1  1
 33 34  1  0
 33 35  1  0
 34 36  1  0
 35 37  1  0
 37 43  1  1
 20 21  2  0
 21 22  1  0
M  CHG  3   2  -1  26  -1  41  -1
M  END
>  <COMPND>  (109) 
    udp_gluA.pdb 

>  <AUTHOR>  (109) 
    GENERATED BY OPEN BABEL 3.1.1

>  <MASTER>  (109) 
        0    0    0    0    0    0    0    0   56    0   56    0

>  <minimizedAffinity>  (109) 
-6.40130

>  <CNNscore>  (109) 
0.4581336379

>  <CNNaffinity>  (109) 
4.1918091774

>  <CNN_VS>  (109) 
1.9204088449

>  <CNNaffinity_variance>  (109) 
0.0415775664

$$$$
110
     RDKit          3D

 43 45  0  0  0  0  0  0  0  0999 V2000
   22.8919   72.6018   -1.8341 P   0  0  2  0  0  0  0  0  0  0  0  0
   22.3761   71.2376   -1.1329 O   0  0  0  0  0  0  0  0  0  0  0  0
   22.1982   73.8511   -1.3760 O   0  0  0  0  0  0  0  0  0  0  0  0
   22.7956   72.2851   -3.4179 O   0  0  0  0  0  0  0  0  0  0  0  0
   21.5588   72.4930   -4.0749 C   0  0  0  0  0  0  0  0  0  0  0  0
   20.5977   70.6794   -5.3258 O   0  0  0  0  0  0  0  0  0  0  0  0
   21.6972   72.0271   -7.7684 O   0  0  0  0  0  0  0  0  0  0  0  0
   19.0665   72.7428   -7.8262 O   0  0  0  0  0  0  0  0  0  0  0  0
   21.1522   72.6084   -6.5837 C   0  0  1  0  0  0  0  0  0  0  0  0
   19.6459   72.4566   -6.5704 C   0  0  2  0  0  0  0  0  0  0  0  0
   21.5699   71.7445   -5.4016 C   0  0  1  0  0  0  0  0  0  0  0  0
   19.4791   71.0013   -6.1675 C   0  0  2  0  0  0  0  0  0  0  0  0
   21.4436   72.5618   -8.5375 H   0  0  0  0  0  0  0  0  0  0  0  0
   19.1991   73.6808   -8.0372 H   0  0  0  0  0  0  0  0  0  0  0  0
   17.0178   70.2867   -7.3541 O   0  0  0  0  0  0  0  0  0  0  0  0
   14.8834   70.1406   -3.2715 O   0  0  0  0  0  0  0  0  0  0  0  0
   18.2644   70.7704   -5.4381 N   0  0  0  0  0  0  0  0  0  0  0  0
   15.9569   70.2156   -5.3197 N   0  0  0  0  0  0  0  0  0  0  0  0
   17.0821   70.4161   -6.1301 C   0  0  0  0  0  0  0  0  0  0  0  0
   18.2522   70.8937   -4.0541 C   0  0  0  0  0  0  0  0  0  0  0  0
   17.1719   70.6994   -3.2952 C   0  0  0  0  0  0  0  0  0  0  0  0
   15.8956   70.3272   -3.9401 C   0  0  0  0  0  0  0  0  0  0  0  0
   15.1214   69.9701   -5.7791 H   0  0  0  0  0  0  0  0  0  0  0  0
   24.4837   72.5743   -1.5542 O   0  0  0  0  0  0  0  0  0  0  0  0
   25.3460   73.0702   -0.2798 P   0  0  2  0  0  0  0  0  0  0  0  0
   25.2622   74.6836   -0.3818 O   0  0  0  0  0  0  0  0  0  0  0  0
   26.7442   72.5254   -0.2327 O   0  0  0  0  0  0  0  0  0  0  0  0
   24.4379   72.6954    0.9998 O   0  0  0  0  0  0  0  0  0  0  0  0
   25.9089   71.8300    2.6419 O   0  0  0  0  0  0  0  0  0  0  0  0
   22.2817   71.7112    4.6160 O   0  0  0  0  0  0  0  0  0  0  0  0
   22.4696   70.9068    1.8138 O   0  0  0  0  0  0  0  0  0  0  0  0
   24.2265   73.7737    5.2599 O   0  0  0  0  0  0  0  0  0  0  0  0
   23.2501   72.2200    3.6987 C   0  0  2  0  0  0  0  0  0  0  0  0
   23.5863   71.1474    2.6623 C   0  0  2  0  0  0  0  0  0  0  0  0
   24.5003   72.6018    4.4944 C   0  0  1  0  0  0  0  0  0  0  0  0
   24.7808   71.5696    1.8058 C   0  0  1  0  0  0  0  0  0  0  0  0
   25.6821   72.8867    3.5721 C   0  0  1  0  0  0  0  0  0  0  0  0
   21.4781   71.4618    4.1329 H   0  0  0  0  0  0  0  0  0  0  0  0
   21.7079   70.6388    2.3508 H   0  0  0  0  0  0  0  0  0  0  0  0
   23.4761   73.6058    5.8511 H   0  0  0  0  0  0  0  0  0  0  0  0
   26.9714   73.9956    5.1875 O   0  0  0  0  0  0  0  0  0  0  0  0
   27.8719   72.1264    4.2418 O   0  0  0  0  0  0  0  0  0  0  0  0
   26.9596   72.9326    4.3455 C   0  0  0  0  0  0  0  0  0  0  0  0
  1  4  1  0
  1 24  1  0
  1  2  1  1
  1  3  2  0
 25 28  1  0
 25 24  1  0
 25 26  1  6
 25 27  2  0
  6 11  1  0
  6 12  1  0
 29 36  1  0
 29 37  1  0
  9  7  1  6
  7 13  1  0
 10  8  1  6
  8 14  1  0
  4  5  1  0
 36 28  1  1
 33 30  1  1
 30 38  1  0
 34 31  1  6
 31 39  1  0
 35 32  1  6
 32 40  1  0
 41 43  1  0
 15 19  2  0
 42 43  2  0
 16 22  2  0
 12 17  1  1
 17 19  1  0
 17 20  1  0
 18 19  1  0
 18 22  1  0
 18 23  1  0
  9 10  1  0
  9 11  1  0
 10 12  1  0
 11  5  1  1
 33 34  1  0
 33 35  1  0
 34 36  1  0
 35 37  1  0
 37 43  1  1
 20 21  2  0
 21 22  1  0
M  CHG  3   2  -1  26  -1  41  -1
M  END
>  <COMPND>  (110) 
    udp_gluA.pdb 

>  <AUTHOR>  (110) 
    GENERATED BY OPEN BABEL 3.1.1

>  <MASTER>  (110) 
        0    0    0    0    0    0    0    0   56    0   56    0

>  <minimizedAffinity>  (110) 
-6.77952

>  <CNNscore>  (110) 
0.4462091923

>  <CNNaffinity>  (110) 
4.0887899399

>  <CNN_VS>  (110) 
1.8244556189

>  <CNNaffinity_variance>  (110) 
0.0551417358

$$$$
111
     RDKit          3D

 43 45  0  0  0  0  0  0  0  0999 V2000
   15.8694   70.0143   -2.2243 P   0  0  2  0  0  0  0  0  0  0  0  0
   15.1858   71.2695   -1.4653 O   0  0  0  0  0  0  0  0  0  0  0  0
   15.6058   69.9463   -3.7000 O   0  0  0  0  0  0  0  0  0  0  0  0
   15.3876   68.7311   -1.3646 O   0  0  0  0  0  0  0  0  0  0  0  0
   14.5819   68.9475   -0.2207 C   0  0  0  0  0  0  0  0  0  0  0  0
   14.6621   68.0676    2.0147 O   0  0  0  0  0  0  0  0  0  0  0  0
   13.5680   65.5280    0.8551 O   0  0  0  0  0  0  0  0  0  0  0  0
   11.3587   66.6749    1.9686 O   0  0  0  0  0  0  0  0  0  0  0  0
   13.2837   66.8807    0.4974 C   0  0  1  0  0  0  0  0  0  0  0  0
   12.4035   67.5263    1.5466 C   0  0  2  0  0  0  0  0  0  0  0  0
   14.5724   67.6814    0.6262 C   0  0  1  0  0  0  0  0  0  0  0  0
   13.3995   67.8233    2.6546 C   0  0  2  0  0  0  0  0  0  0  0  0
   12.7593   64.9967    0.7805 H   0  0  0  0  0  0  0  0  0  0  0  0
   10.7517   66.5164    1.2280 H   0  0  0  0  0  0  0  0  0  0  0  0
   13.1626   67.8559    5.4687 O   0  0  0  0  0  0  0  0  0  0  0  0
   11.9933   72.3141    5.5012 O   0  0  0  0  0  0  0  0  0  0  0  0
   13.0346   68.9791    3.4240 N   0  0  0  0  0  0  0  0  0  0  0  0
   12.5795   70.0760    5.4821 N   0  0  0  0  0  0  0  0  0  0  0  0
   12.9437   68.8889    4.8332 C   0  0  0  0  0  0  0  0  0  0  0  0
   12.7732   70.1843    2.7838 C   0  0  0  0  0  0  0  0  0  0  0  0
   12.4272   71.3075    3.4159 C   0  0  0  0  0  0  0  0  0  0  0  0
   12.3090   71.2985    4.8888 C   0  0  0  0  0  0  0  0  0  0  0  0
   12.5077   70.0374    6.4633 H   0  0  0  0  0  0  0  0  0  0  0  0
   17.4294   70.1545   -1.8247 O   0  0  0  0  0  0  0  0  0  0  0  0
   18.4677   71.3792   -2.0138 P   0  0  2  0  0  0  0  0  0  0  0  0
   19.8603   70.7733   -1.4535 O   0  0  0  0  0  0  0  0  0  0  0  0
   18.0391   72.6574   -1.3532 O   0  0  0  0  0  0  0  0  0  0  0  0
   18.6841   71.4897   -3.6086 O   0  0  0  0  0  0  0  0  0  0  0  0
   18.4538   69.9080   -5.3563 O   0  0  0  0  0  0  0  0  0  0  0  0
   21.6757   72.1402   -6.6619 O   0  0  0  0  0  0  0  0  0  0  0  0
   21.4518   71.3648   -3.8542 O   0  0  0  0  0  0  0  0  0  0  0  0
   19.0584   72.5097   -7.8719 O   0  0  0  0  0  0  0  0  0  0  0  0
   20.4376   71.9083   -5.9901 C   0  0  2  0  0  0  0  0  0  0  0  0
   20.6358   70.8532   -4.9016 C   0  0  2  0  0  0  0  0  0  0  0  0
   19.4219   71.4206   -7.0256 C   0  0  1  0  0  0  0  0  0  0  0  0
   19.2934   70.4117   -4.3167 C   0  0  1  0  0  0  0  0  0  0  0  0
   18.1609   70.8802   -6.3574 C   0  0  1  0  0  0  0  0  0  0  0  0
   22.3369   72.4510   -6.0235 H   0  0  0  0  0  0  0  0  0  0  0  0
   22.3051   71.6470   -4.2182 H   0  0  0  0  0  0  0  0  0  0  0  0
   19.8522   72.8629   -8.3032 H   0  0  0  0  0  0  0  0  0  0  0  0
   16.5747   69.1861   -6.6970 O   0  0  0  0  0  0  0  0  0  0  0  0
   17.3212   70.2971   -8.5429 O   0  0  0  0  0  0  0  0  0  0  0  0
   17.3289   70.1153   -7.3347 C   0  0  0  0  0  0  0  0  0  0  0  0
  1  4  1  0
  1 24  1  0
  1  2  1  1
  1  3  2  0
 25 28  1  0
 25 24  1  0
 25 26  1  1
 25 27  2  0
  6 11  1  0
  6 12  1  0
 29 36  1  0
 29 37  1  0
  9  7  1  1
  7 13  1  0
 10  8  1  1
  8 14  1  0
  4  5  1  0
 36 28  1  6
 33 30  1  6
 30 38  1  0
 34 31  1  1
 31 39  1  0
 35 32  1  6
 32 40  1  0
 41 43  1  0
 15 19  2  0
 42 43  2  0
 16 22  2  0
 12 17  1  6
 17 19  1  0
 17 20  1  0
 18 19  1  0
 18 22  1  0
 18 23  1  0
  9 10  1  0
  9 11  1  0
 10 12  1  0
 11  5  1  6
 33 34  1  0
 33 35  1  0
 34 36  1  0
 35 37  1  0
 37 43  1  6
 20 21  2  0
 21 22  1  0
M  CHG  3   2  -1  26  -1  41  -1
M  END
>  <COMPND>  (111) 
    udp_gluA.pdb 

>  <AUTHOR>  (111) 
    GENERATED BY OPEN BABEL 3.1.1

>  <MASTER>  (111) 
        0    0    0    0    0    0    0    0   56    0   56    0

>  <minimizedAffinity>  (111) 
-6.25793

>  <CNNscore>  (111) 
0.4292820096

>  <CNNaffinity>  (111) 
4.1098341942

>  <CNN_VS>  (111) 
1.7642779350

>  <CNNaffinity_variance>  (111) 
0.4242328107

$$$$
112
     RDKit          3D

 43 45  0  0  0  0  0  0  0  0999 V2000
   22.3135   73.7228   -4.2373 P   0  0  2  0  0  0  0  0  0  0  0  0
   21.0164   73.7576   -3.2703 O   0  0  0  0  0  0  0  0  0  0  0  0
   23.1523   74.9669   -4.2171 O   0  0  0  0  0  0  0  0  0  0  0  0
   21.7117   73.3045   -5.6798 O   0  0  0  0  0  0  0  0  0  0  0  0
   20.4069   72.7578   -5.7353 C   0  0  0  0  0  0  0  0  0  0  0  0
   19.1408   70.8245   -6.3964 O   0  0  0  0  0  0  0  0  0  0  0  0
   21.5741   69.9881   -7.9362 O   0  0  0  0  0  0  0  0  0  0  0  0
   19.9686   71.0299   -9.8787 O   0  0  0  0  0  0  0  0  0  0  0  0
   21.0493   71.2977   -7.7171 C   0  0  1  0  0  0  0  0  0  0  0  0
   19.8115   71.5144   -8.5615 C   0  0  2  0  0  0  0  0  0  0  0  0
   20.4839   71.3469   -6.3043 C   0  0  1  0  0  0  0  0  0  0  0  0
   18.7579   70.7494   -7.7788 C   0  0  2  0  0  0  0  0  0  0  0  0
   21.9411   69.9323   -8.8328 H   0  0  0  0  0  0  0  0  0  0  0  0
   20.6496   71.5494  -10.3352 H   0  0  0  0  0  0  0  0  0  0  0  0
   16.3746   69.2368   -7.8696 O   0  0  0  0  0  0  0  0  0  0  0  0
   13.7806   73.0142   -8.3665 O   0  0  0  0  0  0  0  0  0  0  0  0
   17.4460   71.3121   -7.9311 N   0  0  0  0  0  0  0  0  0  0  0  0
   15.0850   71.1195   -8.1180 N   0  0  0  0  0  0  0  0  0  0  0  0
   16.3138   70.4640   -7.9650 C   0  0  0  0  0  0  0  0  0  0  0  0
   17.2903   72.6883   -8.0434 C   0  0  0  0  0  0  0  0  0  0  0  0
   16.1125   73.2986   -8.1887 C   0  0  0  0  0  0  0  0  0  0  0  0
   14.8800   72.4848   -8.2344 C   0  0  0  0  0  0  0  0  0  0  0  0
   14.2825   70.5498   -8.1464 H   0  0  0  0  0  0  0  0  0  0  0  0
   23.0841   72.3835   -3.7628 O   0  0  0  0  0  0  0  0  0  0  0  0
   22.6824   71.2567   -2.6753 P   0  0  2  0  0  0  0  0  0  0  0  0
   24.0451   70.3984   -2.5114 O   0  0  0  0  0  0  0  0  0  0  0  0
   21.4790   70.4409   -3.0496 O   0  0  0  0  0  0  0  0  0  0  0  0
   22.5390   72.0624   -1.2850 O   0  0  0  0  0  0  0  0  0  0  0  0
   24.3624   73.4231   -0.6272 O   0  0  0  0  0  0  0  0  0  0  0  0
   22.1476   73.2438    2.8558 O   0  0  0  0  0  0  0  0  0  0  0  0
   22.5312   70.8538    1.2200 O   0  0  0  0  0  0  0  0  0  0  0  0
   22.1103   75.6501    1.2250 O   0  0  0  0  0  0  0  0  0  0  0  0
   22.3562   73.2633    1.4436 C   0  0  2  0  0  0  0  0  0  0  0  0
   23.2335   72.0781    1.0395 C   0  0  2  0  0  0  0  0  0  0  0  0
   23.0453   74.5820    1.0856 C   0  0  1  0  0  0  0  0  0  0  0  0
   23.6677   72.1923   -0.4225 C   0  0  1  0  0  0  0  0  0  0  0  0
   23.5605   74.5693   -0.3507 C   0  0  1  0  0  0  0  0  0  0  0  0
   21.7108   72.4146    3.1068 H   0  0  0  0  0  0  0  0  0  0  0  0
   22.2524   70.7749    2.1455 H   0  0  0  0  0  0  0  0  0  0  0  0
   21.7745   75.6691    2.1348 H   0  0  0  0  0  0  0  0  0  0  0  0
   24.8570   76.2838    0.5880 O   0  0  0  0  0  0  0  0  0  0  0  0
   24.9092   76.0636   -1.6809 O   0  0  0  0  0  0  0  0  0  0  0  0
   24.5042   75.7035   -0.5858 C   0  0  0  0  0  0  0  0  0  0  0  0
  1  4  1  0
  1 24  1  0
  1  2  1  1
  1  3  2  0
 25 28  1  0
 25 24  1  0
 25 26  1  1
 25 27  2  0
  6 11  1  0
  6 12  1  0
 29 36  1  0
 29 37  1  0
  9  7  1  6
  7 13  1  0
 10  8  1  6
  8 14  1  0
  4  5  1  0
 36 28  1  6
 33 30  1  1
 30 38  1  0
 34 31  1  6
 31 39  1  0
 35 32  1  6
 32 40  1  0
 41 43  1  0
 15 19  2  0
 42 43  2  0
 16 22  2  0
 12 17  1  1
 17 19  1  0
 17 20  1  0
 18 19  1  0
 18 22  1  0
 18 23  1  0
  9 10  1  0
  9 11  1  0
 10 12  1  0
 11  5  1  6
 33 34  1  0
 33 35  1  0
 34 36  1  0
 35 37  1  0
 37 43  1  1
 20 21  2  0
 21 22  1  0
M  CHG  3   2  -1  26  -1  41  -1
M  END
>  <COMPND>  (112) 
    udp_gluA.pdb 

>  <AUTHOR>  (112) 
    GENERATED BY OPEN BABEL 3.1.1

>  <MASTER>  (112) 
        0    0    0    0    0    0    0    0   56    0   56    0

>  <minimizedAffinity>  (112) 
-6.30426

>  <CNNscore>  (112) 
0.4040743709

>  <CNNaffinity>  (112) 
4.2790193558

>  <CNN_VS>  (112) 
1.7290420532

>  <CNNaffinity_variance>  (112) 
0.0158393253

$$$$
113
     RDKit          3D

 43 45  0  0  0  0  0  0  0  0999 V2000
   18.5616   73.4887   -1.9701 P   0  0  2  0  0  0  0  0  0  0  0  0
   18.9679   75.0423   -1.7700 O   0  0  0  0  0  0  0  0  0  0  0  0
   17.9977   72.8192   -0.7513 O   0  0  0  0  0  0  0  0  0  0  0  0
   19.8965   72.8145   -2.5877 O   0  0  0  0  0  0  0  0  0  0  0  0
   19.7873   71.5497   -3.2145 C   0  0  0  0  0  0  0  0  0  0  0  0
   20.4427   70.4925   -5.2713 O   0  0  0  0  0  0  0  0  0  0  0  0
   22.5300   72.6341   -5.4904 O   0  0  0  0  0  0  0  0  0  0  0  0
   20.5916   73.5149   -7.1941 O   0  0  0  0  0  0  0  0  0  0  0  0
   21.1997   72.7179   -4.9789 C   0  0  1  0  0  0  0  0  0  0  0  0
   20.1989   72.6932   -6.1147 C   0  0  2  0  0  0  0  0  0  0  0  0
   20.8919   71.4144   -4.2547 C   0  0  1  0  0  0  0  0  0  0  0  0
   20.1739   71.2190   -6.4810 C   0  0  2  0  0  0  0  0  0  0  0  0
   22.7495   73.4559   -5.9575 H   0  0  0  0  0  0  0  0  0  0  0  0
   20.5914   74.4431   -6.9105 H   0  0  0  0  0  0  0  0  0  0  0  0
   19.5360   71.1044   -9.2299 O   0  0  0  0  0  0  0  0  0  0  0  0
   15.2609   69.6161   -8.3625 O   0  0  0  0  0  0  0  0  0  0  0  0
   18.9016   70.8051   -7.0013 N   0  0  0  0  0  0  0  0  0  0  0  0
   17.4070   70.3642   -8.7952 N   0  0  0  0  0  0  0  0  0  0  0  0
   18.6840   70.7834   -8.3993 C   0  0  0  0  0  0  0  0  0  0  0  0
   17.8869   70.4251   -6.1314 C   0  0  0  0  0  0  0  0  0  0  0  0
   16.6749   70.0277   -6.5237 C   0  0  0  0  0  0  0  0  0  0  0  0
   16.3653   69.9773   -7.9677 C   0  0  0  0  0  0  0  0  0  0  0  0
   17.2311   70.3428   -9.7637 H   0  0  0  0  0  0  0  0  0  0  0  0
   17.5589   73.5361   -3.2370 O   0  0  0  0  0  0  0  0  0  0  0  0
   16.0896   72.8970   -3.4523 P   0  0  2  0  0  0  0  0  0  0  0  0
   15.1085   73.9856   -2.7646 O   0  0  0  0  0  0  0  0  0  0  0  0
   15.9396   71.5031   -2.9152 O   0  0  0  0  0  0  0  0  0  0  0  0
   15.8094   73.0386   -5.0346 O   0  0  0  0  0  0  0  0  0  0  0  0
   16.1537   75.0796   -6.1857 O   0  0  0  0  0  0  0  0  0  0  0  0
   13.5992   73.0885   -8.7504 O   0  0  0  0  0  0  0  0  0  0  0  0
   13.1547   73.0134   -5.8641 O   0  0  0  0  0  0  0  0  0  0  0  0
   16.4288   73.3000   -9.3825 O   0  0  0  0  0  0  0  0  0  0  0  0
   14.6356   73.2075   -7.7760 C   0  0  2  0  0  0  0  0  0  0  0  0
   14.0804   73.8743   -6.5172 C   0  0  2  0  0  0  0  0  0  0  0  0
   15.7561   74.0579   -8.3787 C   0  0  1  0  0  0  0  0  0  0  0  0
   15.2055   74.2267   -5.5431 C   0  0  1  0  0  0  0  0  0  0  0  0
   16.7719   74.4733   -7.3186 C   0  0  1  0  0  0  0  0  0  0  0  0
   12.8759   72.5520   -8.3896 H   0  0  0  0  0  0  0  0  0  0  0  0
   12.4382   72.7855   -6.4765 H   0  0  0  0  0  0  0  0  0  0  0  0
   15.7932   73.0292  -10.0634 H   0  0  0  0  0  0  0  0  0  0  0  0
   16.9810   76.3842   -8.6625 O   0  0  0  0  0  0  0  0  0  0  0  0
   18.8450   75.6859   -7.5502 O   0  0  0  0  0  0  0  0  0  0  0  0
   17.6635   75.5559   -7.8336 C   0  0  0  0  0  0  0  0  0  0  0  0
  1  4  1  0
  1 24  1  0
  1  2  1  1
  1  3  2  0
 25 28  1  0
 25 24  1  0
 25 26  1  1
 25 27  2  0
  6 11  1  0
  6 12  1  0
 29 36  1  0
 29 37  1  0
  9  7  1  6
  7 13  1  0
 10  8  1  6
  8 14  1  0
  4  5  1  0
 36 28  1  6
 33 30  1  6
 30 38  1  0
 34 31  1  1
 31 39  1  0
 35 32  1  6
 32 40  1  0
 41 43  1  0
 15 19  2  0
 42 43  2  0
 16 22  2  0
 12 17  1  1
 17 19  1  0
 17 20  1  0
 18 19  1  0
 18 22  1  0
 18 23  1  0
  9 10  1  0
  9 11  1  0
 10 12  1  0
 11  5  1  1
 33 34  1  0
 33 35  1  0
 34 36  1  0
 35 37  1  0
 37 43  1  6
 20 21  2  0
 21 22  1  0
M  CHG  3   2  -1  26  -1  41  -1
M  END
>  <COMPND>  (113) 
    udp_gluA.pdb 

>  <AUTHOR>  (113) 
    GENERATED BY OPEN BABEL 3.1.1

>  <MASTER>  (113) 
        0    0    0    0    0    0    0    0   56    0   56    0

>  <minimizedAffinity>  (113) 
-5.73990

>  <CNNscore>  (113) 
0.3823881745

>  <CNNaffinity>  (113) 
3.8506846428

>  <CNN_VS>  (113) 
1.4724562168

>  <CNNaffinity_variance>  (113) 
0.7247791290

$$$$
114
     RDKit          3D

 43 45  0  0  0  0  0  0  0  0999 V2000
   23.5946   72.4599   -3.3069 P   0  0  2  0  0  0  0  0  0  0  0  0
   23.6145   73.9080   -2.5848 O   0  0  0  0  0  0  0  0  0  0  0  0
   24.8961   71.7140   -3.2668 O   0  0  0  0  0  0  0  0  0  0  0  0
   23.0075   72.7695   -4.7825 O   0  0  0  0  0  0  0  0  0  0  0  0
   21.6151   72.6321   -4.9987 C   0  0  0  0  0  0  0  0  0  0  0  0
   20.4484   70.9967   -6.3185 O   0  0  0  0  0  0  0  0  0  0  0  0
   21.0610   72.7389   -8.6810 O   0  0  0  0  0  0  0  0  0  0  0  0
   18.4615   73.3605   -8.1404 O   0  0  0  0  0  0  0  0  0  0  0  0
   20.7442   73.1133   -7.3401 C   0  0  1  0  0  0  0  0  0  0  0  0
   19.2681   72.9075   -7.0733 C   0  0  2  0  0  0  0  0  0  0  0  0
   21.3820   72.0950   -6.4049 C   0  0  1  0  0  0  0  0  0  0  0  0
   19.1896   71.4029   -6.8788 C   0  0  2  0  0  0  0  0  0  0  0  0
   20.6640   73.3750   -9.2970 H   0  0  0  0  0  0  0  0  0  0  0  0
   18.5459   74.3238   -8.2231 H   0  0  0  0  0  0  0  0  0  0  0  0
   16.5719   70.7257   -7.6946 O   0  0  0  0  0  0  0  0  0  0  0  0
   15.2238   69.9512   -3.3555 O   0  0  0  0  0  0  0  0  0  0  0  0
   18.1348   71.0204   -5.9832 N   0  0  0  0  0  0  0  0  0  0  0  0
   15.9027   70.3415   -5.5326 N   0  0  0  0  0  0  0  0  0  0  0  0
   16.8554   70.6998   -6.4954 C   0  0  0  0  0  0  0  0  0  0  0  0
   18.3727   70.9642   -4.6153 C   0  0  0  0  0  0  0  0  0  0  0  0
   17.4545   70.6209   -3.7098 C   0  0  0  0  0  0  0  0  0  0  0  0
   16.0917   70.2719   -4.1619 C   0  0  0  0  0  0  0  0  0  0  0  0
   15.0038   70.1160   -5.8651 H   0  0  0  0  0  0  0  0  0  0  0  0
   22.3644   71.7072   -2.5769 O   0  0  0  0  0  0  0  0  0  0  0  0
   21.6660   71.9618   -1.1413 P   0  0  2  0  0  0  0  0  0  0  0  0
   20.8084   70.6098   -0.9023 O   0  0  0  0  0  0  0  0  0  0  0  0
   20.8609   73.2266   -1.0637 O   0  0  0  0  0  0  0  0  0  0  0  0
   22.8744   71.8710   -0.0764 O   0  0  0  0  0  0  0  0  0  0  0  0
   22.5365   73.1731    1.8728 O   0  0  0  0  0  0  0  0  0  0  0  0
   26.4663   71.9827    2.3279 O   0  0  0  0  0  0  0  0  0  0  0  0
   25.4723   72.8432   -0.2809 O   0  0  0  0  0  0  0  0  0  0  0  0
   24.3692   70.7244    3.8994 O   0  0  0  0  0  0  0  0  0  0  0  0
   25.1079   71.8596    1.9067 C   0  0  2  0  0  0  0  0  0  0  0  0
   24.7654   72.9971    0.9443 C   0  0  2  0  0  0  0  0  0  0  0  0
   24.2190   71.9290    3.1506 C   0  0  1  0  0  0  0  0  0  0  0  0
   23.2646   73.0335    0.6523 C   0  0  1  0  0  0  0  0  0  0  0  0
   22.7486   72.0905    2.7762 C   0  0  1  0  0  0  0  0  0  0  0  0
   27.0500   71.9414    1.5540 H   0  0  0  0  0  0  0  0  0  0  0  0
   26.4253   72.8190   -0.1031 H   0  0  0  0  0  0  0  0  0  0  0  0
   25.3008   70.6096    4.1438 H   0  0  0  0  0  0  0  0  0  0  0  0
   21.1359   73.5376    3.6744 O   0  0  0  0  0  0  0  0  0  0  0  0
   21.9833   71.9365    5.0592 O   0  0  0  0  0  0  0  0  0  0  0  0
   21.9379   72.4842    3.9679 C   0  0  0  0  0  0  0  0  0  0  0  0
  1  4  1  0
  1 24  1  0
  1  2  1  1
  1  3  2  0
 25 28  1  0
 25 24  1  0
 25 26  1  1
 25 27  2  0
  6 11  1  0
  6 12  1  0
 29 36  1  0
 29 37  1  0
  9  7  1  6
  7 13  1  0
 10  8  1  6
  8 14  1  0
  4  5  1  0
 36 28  1  1
 33 30  1  1
 30 38  1  0
 34 31  1  6
 31 39  1  0
 35 32  1  6
 32 40  1  0
 41 43  1  0
 15 19  2  0
 42 43  2  0
 16 22  2  0
 12 17  1  1
 17 19  1  0
 17 20  1  0
 18 19  1  0
 18 22  1  0
 18 23  1  0
  9 10  1  0
  9 11  1  0
 10 12  1  0
 11  5  1  1
 33 34  1  0
 33 35  1  0
 34 36  1  0
 35 37  1  0
 37 43  1  1
 20 21  2  0
 21 22  1  0
M  CHG  3   2  -1  26  -1  41  -1
M  END
>  <COMPND>  (114) 
    udp_gluA.pdb 

>  <AUTHOR>  (114) 
    GENERATED BY OPEN BABEL 3.1.1

>  <MASTER>  (114) 
        0    0    0    0    0    0    0    0   56    0   56    0

>  <minimizedAffinity>  (114) 
-7.31578

>  <CNNscore>  (114) 
0.3620905876

>  <CNNaffinity>  (114) 
4.0469112396

>  <CNN_VS>  (114) 
1.4653484821

>  <CNNaffinity_variance>  (114) 
0.1571610272

$$$$
115
     RDKit          3D

 43 45  0  0  0  0  0  0  0  0999 V2000
   23.2860   73.8013   -3.6486 P   0  0  2  0  0  0  0  0  0  0  0  0
   24.1771   72.5021   -4.0183 O   0  0  0  0  0  0  0  0  0  0  0  0
   23.7587   75.0883   -4.2587 O   0  0  0  0  0  0  0  0  0  0  0  0
   23.2126   73.7751   -2.0325 O   0  0  0  0  0  0  0  0  0  0  0  0
   22.2254   74.5588   -1.3877 C   0  0  0  0  0  0  0  0  0  0  0  0
   21.9266   72.5651   -0.0787 O   0  0  0  0  0  0  0  0  0  0  0  0
   19.1703   73.5885    0.5106 O   0  0  0  0  0  0  0  0  0  0  0  0
   20.5393   74.2216    2.7824 O   0  0  0  0  0  0  0  0  0  0  0  0
   20.3902   74.3144    0.3572 C   0  0  1  0  0  0  0  0  0  0  0  0
   21.2682   74.1274    1.5764 C   0  0  2  0  0  0  0  0  0  0  0  0
   21.2081   73.6339   -0.7319 C   0  0  1  0  0  0  0  0  0  0  0  0
   21.8381   72.7384    1.3445 C   0  0  2  0  0  0  0  0  0  0  0  0
   18.6307   74.0046    1.2014 H   0  0  0  0  0  0  0  0  0  0  0  0
   20.1977   75.1243    2.8840 H   0  0  0  0  0  0  0  0  0  0  0  0
   22.7814   70.3556    2.5315 O   0  0  0  0  0  0  0  0  0  0  0  0
   26.8710   72.2447    3.5065 O   0  0  0  0  0  0  0  0  0  0  0  0
   23.1453   72.5799    1.9163 N   0  0  0  0  0  0  0  0  0  0  0  0
   24.8170   71.2991    3.0169 N   0  0  0  0  0  0  0  0  0  0  0  0
   23.5203   71.3410    2.4880 C   0  0  0  0  0  0  0  0  0  0  0  0
   24.0404   73.6428    1.9059 C   0  0  0  0  0  0  0  0  0  0  0  0
   25.2732   73.5876    2.4139 C   0  0  0  0  0  0  0  0  0  0  0  0
   25.7429   72.3296    3.0305 C   0  0  0  0  0  0  0  0  0  0  0  0
   25.1000   70.4476    3.4221 H   0  0  0  0  0  0  0  0  0  0  0  0
   21.7954   73.3558   -4.0873 O   0  0  0  0  0  0  0  0  0  0  0  0
   21.0528   73.4027   -5.5226 P   0  0  2  0  0  0  0  0  0  0  0  0
   21.9888   72.4665   -6.4541 O   0  0  0  0  0  0  0  0  0  0  0  0
   20.8357   74.7882   -6.0586 O   0  0  0  0  0  0  0  0  0  0  0  0
   19.7016   72.5468   -5.3125 O   0  0  0  0  0  0  0  0  0  0  0  0
   19.8489   70.8402   -3.6769 O   0  0  0  0  0  0  0  0  0  0  0  0
   16.2262   69.9791   -5.4664 O   0  0  0  0  0  0  0  0  0  0  0  0
   18.5313   70.7522   -7.0861 O   0  0  0  0  0  0  0  0  0  0  0  0
   16.2971   71.2432   -2.8496 O   0  0  0  0  0  0  0  0  0  0  0  0
   17.2852   70.8182   -5.0055 C   0  0  2  0  0  0  0  0  0  0  0  0
   18.5886   70.4266   -5.7022 C   0  0  2  0  0  0  0  0  0  0  0  0
   17.4131   70.6300   -3.4922 C   0  0  1  0  0  0  0  0  0  0  0  0
   19.7830   71.1433   -5.0709 C   0  0  1  0  0  0  0  0  0  0  0  0
   18.6934   71.2657   -2.9580 C   0  0  1  0  0  0  0  0  0  0  0  0
   16.1263   70.0819   -6.4260 H   0  0  0  0  0  0  0  0  0  0  0  0
   17.7754   70.3010   -7.4930 H   0  0  0  0  0  0  0  0  0  0  0  0
   15.4757   70.8476   -3.1808 H   0  0  0  0  0  0  0  0  0  0  0  0
   18.0278   71.2580   -0.7089 O   0  0  0  0  0  0  0  0  0  0  0  0
   19.9238   70.1065   -1.2365 O   0  0  0  0  0  0  0  0  0  0  0  0
   18.9749   70.8023   -1.5658 C   0  0  0  0  0  0  0  0  0  0  0  0
  1  4  1  0
  1 24  1  0
  1  2  1  6
  1  3  2  0
 25 28  1  0
 25 24  1  0
 25 26  1  6
 25 27  2  0
  6 11  1  0
  6 12  1  0
 29 36  1  0
 29 37  1  0
  9  7  1  1
  7 13  1  0
 10  8  1  1
  8 14  1  0
  4  5  1  0
 36 28  1  1
 33 30  1  6
 30 38  1  0
 34 31  1  6
 31 39  1  0
 35 32  1  1
 32 40  1  0
 41 43  1  0
 15 19  2  0
 42 43  2  0
 16 22  2  0
 12 17  1  1
 17 19  1  0
 17 20  1  0
 18 19  1  0
 18 22  1  0
 18 23  1  0
  9 10  1  0
  9 11  1  0
 10 12  1  0
 11  5  1  1
 33 34  1  0
 33 35  1  0
 34 36  1  0
 35 37  1  0
 37 43  1  1
 20 21  2  0
 21 22  1  0
M  CHG  3   2  -1  26  -1  41  -1
M  END
>  <COMPND>  (115) 
    udp_gluA.pdb 

>  <AUTHOR>  (115) 
    GENERATED BY OPEN BABEL 3.1.1

>  <MASTER>  (115) 
        0    0    0    0    0    0    0    0   56    0   56    0

>  <minimizedAffinity>  (115) 
-6.45132

>  <CNNscore>  (115) 
0.3489528596

>  <CNNaffinity>  (115) 
4.0157027245

>  <CNN_VS>  (115) 
1.4012908936

>  <CNNaffinity_variance>  (115) 
0.2397671044

$$$$
116
     RDKit          3D

 43 45  0  0  0  0  0  0  0  0999 V2000
   23.1969   72.5400   -3.5385 P   0  0  2  0  0  0  0  0  0  0  0  0
   23.0833   73.0276   -5.0774 O   0  0  0  0  0  0  0  0  0  0  0  0
   24.5592   72.0681   -3.1223 O   0  0  0  0  0  0  0  0  0  0  0  0
   22.0018   71.4603   -3.3838 O   0  0  0  0  0  0  0  0  0  0  0  0
   21.2789   71.0815   -4.5407 C   0  0  0  0  0  0  0  0  0  0  0  0
   19.3900   72.5568   -4.3587 O   0  0  0  0  0  0  0  0  0  0  0  0
   17.6850   70.1032   -4.6120 O   0  0  0  0  0  0  0  0  0  0  0  0
   17.5811   71.1628   -7.1225 O   0  0  0  0  0  0  0  0  0  0  0  0
   18.9283   70.4089   -5.2440 C   0  0  1  0  0  0  0  0  0  0  0  0
   18.7222   71.4364   -6.3367 C   0  0  2  0  0  0  0  0  0  0  0  0
   19.7873   71.1731   -4.2458 C   0  0  1  0  0  0  0  0  0  0  0  0
   18.5882   72.7224   -5.5390 C   0  0  2  0  0  0  0  0  0  0  0  0
   17.1190   69.6147   -5.2306 H   0  0  0  0  0  0  0  0  0  0  0  0
   17.7157   70.3349   -7.6108 H   0  0  0  0  0  0  0  0  0  0  0  0
   17.1065   74.0603   -7.5368 O   0  0  0  0  0  0  0  0  0  0  0  0
   20.4862   77.1101   -8.2581 O   0  0  0  0  0  0  0  0  0  0  0  0
   19.0569   73.8688   -6.2648 N   0  0  0  0  0  0  0  0  0  0  0  0
   18.7916   75.5773   -7.8948 N   0  0  0  0  0  0  0  0  0  0  0  0
   18.2340   74.4662   -7.2487 C   0  0  0  0  0  0  0  0  0  0  0  0
   20.3170   74.3906   -5.9988 C   0  0  0  0  0  0  0  0  0  0  0  0
   20.8349   75.4504   -6.6228 C   0  0  0  0  0  0  0  0  0  0  0  0
   20.0401   76.1325   -7.6652 C   0  0  0  0  0  0  0  0  0  0  0  0
   18.2382   76.0089   -8.5853 H   0  0  0  0  0  0  0  0  0  0  0  0
   22.6443   73.8147   -2.7123 O   0  0  0  0  0  0  0  0  0  0  0  0
   23.3574   74.7518   -1.6046 P   0  0  2  0  0  0  0  0  0  0  0  0
   22.1264   75.6117   -0.9999 O   0  0  0  0  0  0  0  0  0  0  0  0
   24.4891   75.5823   -2.1371 O   0  0  0  0  0  0  0  0  0  0  0  0
   23.7698   73.7407   -0.4173 O   0  0  0  0  0  0  0  0  0  0  0  0
   23.1408   72.8409    1.6813 O   0  0  0  0  0  0  0  0  0  0  0  0
   26.6394   74.8224    2.6308 O   0  0  0  0  0  0  0  0  0  0  0  0
   24.6828   76.0474    0.8403 O   0  0  0  0  0  0  0  0  0  0  0  0
   26.6203   71.9247    2.3993 O   0  0  0  0  0  0  0  0  0  0  0  0
   25.7433   74.0867    1.7979 C   0  0  2  0  0  0  0  0  0  0  0  0
   24.4477   74.8778    1.6158 C   0  0  2  0  0  0  0  0  0  0  0  0
   25.4572   72.7465    2.4791 C   0  0  1  0  0  0  0  0  0  0  0  0
   23.3804   74.0281    0.9246 C   0  0  1  0  0  0  0  0  0  0  0  0
   24.2974   72.0167    1.8077 C   0  0  1  0  0  0  0  0  0  0  0  0
   26.8356   75.6783    2.2181 H   0  0  0  0  0  0  0  0  0  0  0  0
   25.3592   76.5911    1.2730 H   0  0  0  0  0  0  0  0  0  0  0  0
   27.3661   72.3778    2.8229 H   0  0  0  0  0  0  0  0  0  0  0  0
   24.5380   70.8119    3.8057 O   0  0  0  0  0  0  0  0  0  0  0  0
   22.8938   70.1385    2.3767 O   0  0  0  0  0  0  0  0  0  0  0  0
   23.8145   70.8897    2.6615 C   0  0  0  0  0  0  0  0  0  0  0  0
  1  4  1  0
  1 24  1  0
  1  2  1  6
  1  3  2  0
 25 28  1  0
 25 24  1  0
 25 26  1  1
 25 27  2  0
  6 11  1  0
  6 12  1  0
 29 36  1  0
 29 37  1  0
  9  7  1  1
  7 13  1  0
 10  8  1  1
  8 14  1  0
  4  5  1  0
 36 28  1  6
 33 30  1  1
 30 38  1  0
 34 31  1  6
 31 39  1  0
 35 32  1  6
 32 40  1  0
 41 43  1  0
 15 19  2  0
 42 43  2  0
 16 22  2  0
 12 17  1  6
 17 19  1  0
 17 20  1  0
 18 19  1  0
 18 22  1  0
 18 23  1  0
  9 10  1  0
  9 11  1  0
 10 12  1  0
 11  5  1  6
 33 34  1  0
 33 35  1  0
 34 36  1  0
 35 37  1  0
 37 43  1  1
 20 21  2  0
 21 22  1  0
M  CHG  3   2  -1  26  -1  41  -1
M  END
>  <COMPND>  (116) 
    udp_gluA.pdb 

>  <AUTHOR>  (116) 
    GENERATED BY OPEN BABEL 3.1.1

>  <MASTER>  (116) 
        0    0    0    0    0    0    0    0   56    0   56    0

>  <minimizedAffinity>  (116) 
-6.35887

>  <CNNscore>  (116) 
0.3438366950

>  <CNNaffinity>  (116) 
4.0820555687

>  <CNN_VS>  (116) 
1.4035605192

>  <CNNaffinity_variance>  (116) 
0.0495931320

$$$$
117
     RDKit          3D

 43 45  0  0  0  0  0  0  0  0999 V2000
   20.9775   74.2608   -2.8403 P   0  0  2  0  0  0  0  0  0  0  0  0
   22.1687   73.7257   -3.7961 O   0  0  0  0  0  0  0  0  0  0  0  0
   19.9463   75.1074   -3.5269 O   0  0  0  0  0  0  0  0  0  0  0  0
   21.7547   74.9624   -1.6068 O   0  0  0  0  0  0  0  0  0  0  0  0
   21.6221   74.3979   -0.3152 C   0  0  0  0  0  0  0  0  0  0  0  0
   23.1213   74.1424    1.5462 O   0  0  0  0  0  0  0  0  0  0  0  0
   24.5028   72.0461   -0.0935 O   0  0  0  0  0  0  0  0  0  0  0  0
   22.9898   70.5603    1.6210 O   0  0  0  0  0  0  0  0  0  0  0  0
   23.1119   72.3581   -0.0117 C   0  0  1  0  0  0  0  0  0  0  0  0
   22.5391   71.8592    1.2980 C   0  0  2  0  0  0  0  0  0  0  0  0
   22.9769   73.8674    0.1359 C   0  0  1  0  0  0  0  0  0  0  0  0
   23.0320   72.9098    2.2784 C   0  0  2  0  0  0  0  0  0  0  0  0
   24.6143   71.0868   -0.1883 H   0  0  0  0  0  0  0  0  0  0  0  0
   22.6493   69.9282    0.9679 H   0  0  0  0  0  0  0  0  0  0  0  0
   22.9503   71.2332    4.5497 O   0  0  0  0  0  0  0  0  0  0  0  0
   19.5556   73.6908    6.4679 O   0  0  0  0  0  0  0  0  0  0  0  0
   22.1366   73.0886    3.3862 N   0  0  0  0  0  0  0  0  0  0  0  0
   21.2589   72.4582    5.5024 N   0  0  0  0  0  0  0  0  0  0  0  0
   22.1766   72.1898    4.4782 C   0  0  0  0  0  0  0  0  0  0  0  0
   21.2336   74.1448    3.3846 C   0  0  0  0  0  0  0  0  0  0  0  0
   20.3651   74.3879    4.3682 C   0  0  0  0  0  0  0  0  0  0  0  0
   20.3413   73.4954    5.5456 C   0  0  0  0  0  0  0  0  0  0  0  0
   21.2666   71.8448    6.2725 H   0  0  0  0  0  0  0  0  0  0  0  0
   20.4025   72.9013   -2.1814 O   0  0  0  0  0  0  0  0  0  0  0  0
   20.1937   71.4249   -2.8060 P   0  0  2  0  0  0  0  0  0  0  0  0
   19.0163   70.7983   -1.8886 O   0  0  0  0  0  0  0  0  0  0  0  0
   21.4443   70.5958   -2.8583 O   0  0  0  0  0  0  0  0  0  0  0  0
   19.5000   71.6813   -4.2397 O   0  0  0  0  0  0  0  0  0  0  0  0
   18.4392   70.3152   -5.8576 O   0  0  0  0  0  0  0  0  0  0  0  0
   20.6404   72.8787   -8.2348 O   0  0  0  0  0  0  0  0  0  0  0  0
   21.8004   71.7525   -5.8015 O   0  0  0  0  0  0  0  0  0  0  0  0
   17.7675   73.2373   -7.9724 O   0  0  0  0  0  0  0  0  0  0  0  0
   19.8817   72.4928   -7.0887 C   0  0  2  0  0  0  0  0  0  0  0  0
   20.5750   71.3257   -6.3854 C   0  0  2  0  0  0  0  0  0  0  0  0
   18.4876   72.0762   -7.5629 C   0  0  1  0  0  0  0  0  0  0  0  0
   19.6814   70.7366   -5.2929 C   0  0  1  0  0  0  0  0  0  0  0  0
   17.7048   71.3837   -6.4510 C   0  0  1  0  0  0  0  0  0  0  0  0
   21.5306   73.1476   -7.9579 H   0  0  0  0  0  0  0  0  0  0  0  0
   22.3722   72.1277   -6.4890 H   0  0  0  0  0  0  0  0  0  0  0  0
   18.2552   73.6875   -8.6798 H   0  0  0  0  0  0  0  0  0  0  0  0
   16.3052   69.5027   -6.3868 O   0  0  0  0  0  0  0  0  0  0  0  0
   15.7764   71.1422   -7.8807 O   0  0  0  0  0  0  0  0  0  0  0  0
   16.4976   70.6963   -7.0009 C   0  0  0  0  0  0  0  0  0  0  0  0
  1  4  1  0
  1 24  1  0
  1  2  1  6
  1  3  2  0
 25 28  1  0
 25 24  1  0
 25 26  1  1
 25 27  2  0
  6 11  1  0
  6 12  1  0
 29 36  1  0
 29 37  1  0
  9  7  1  1
  7 13  1  0
 10  8  1  1
  8 14  1  0
  4  5  1  0
 36 28  1  1
 33 30  1  6
 30 38  1  0
 34 31  1  1
 31 39  1  0
 35 32  1  1
 32 40  1  0
 41 43  1  0
 15 19  2  0
 42 43  2  0
 16 22  2  0
 12 17  1  1
 17 19  1  0
 17 20  1  0
 18 19  1  0
 18 22  1  0
 18 23  1  0
  9 10  1  0
  9 11  1  0
 10 12  1  0
 11  5  1  1
 33 34  1  0
 33 35  1  0
 34 36  1  0
 35 37  1  0
 37 43  1  6
 20 21  2  0
 21 22  1  0
M  CHG  3   2  -1  26  -1  41  -1
M  END
>  <COMPND>  (117) 
    udp_gluA.pdb 

>  <AUTHOR>  (117) 
    GENERATED BY OPEN BABEL 3.1.1

>  <MASTER>  (117) 
        0    0    0    0    0    0    0    0   56    0   56    0

>  <minimizedAffinity>  (117) 
-5.83405

>  <CNNscore>  (117) 
0.3345426023

>  <CNNaffinity>  (117) 
3.8944633007

>  <CNN_VS>  (117) 
1.3028638363

>  <CNNaffinity_variance>  (117) 
0.0692379847

$$$$
118
     RDKit          3D

 43 45  0  0  0  0  0  0  0  0999 V2000
   22.1182   73.0278   -4.6860 P   0  0  2  0  0  0  0  0  0  0  0  0
   23.7082   72.8244   -4.4632 O   0  0  0  0  0  0  0  0  0  0  0  0
   21.5872   74.3693   -4.2733 O   0  0  0  0  0  0  0  0  0  0  0  0
   21.4556   71.7514   -3.9446 O   0  0  0  0  0  0  0  0  0  0  0  0
   22.0778   71.2502   -2.7758 C   0  0  0  0  0  0  0  0  0  0  0  0
   21.7154   70.7406   -0.4549 O   0  0  0  0  0  0  0  0  0  0  0  0
   19.1436   72.2604   -0.7147 O   0  0  0  0  0  0  0  0  0  0  0  0
   20.7841   74.0686    0.4997 O   0  0  0  0  0  0  0  0  0  0  0  0
   20.4076   72.5114   -1.3293 C   0  0  1  0  0  0  0  0  0  0  0  0
   21.3785   73.0818   -0.3173 C   0  0  2  0  0  0  0  0  0  0  0  0
   21.0442   71.1684   -1.6598 C   0  0  1  0  0  0  0  0  0  0  0  0
   21.7843   71.8432    0.4632 C   0  0  2  0  0  0  0  0  0  0  0  0
   18.7176   73.1040   -0.4943 H   0  0  0  0  0  0  0  0  0  0  0  0
   20.5440   74.8363   -0.0434 H   0  0  0  0  0  0  0  0  0  0  0  0
   22.7491   70.3503    2.6580 O   0  0  0  0  0  0  0  0  0  0  0  0
   26.9250   72.2796    2.3686 O   0  0  0  0  0  0  0  0  0  0  0  0
   23.1195   71.9358    0.9823 N   0  0  0  0  0  0  0  0  0  0  0  0
   24.8277   71.3134    2.5124 N   0  0  0  0  0  0  0  0  0  0  0  0
   23.5032   71.1419    2.0890 C   0  0  0  0  0  0  0  0  0  0  0  0
   24.0331   72.8034    0.3961 C   0  0  0  0  0  0  0  0  0  0  0  0
   25.2922   72.9559    0.8108 C   0  0  0  0  0  0  0  0  0  0  0  0
   25.7728   72.1640    1.9621 C   0  0  0  0  0  0  0  0  0  0  0  0
   25.1173   70.7729    3.2826 H   0  0  0  0  0  0  0  0  0  0  0  0
   21.9238   72.6796   -6.2524 O   0  0  0  0  0  0  0  0  0  0  0  0
   20.8235   73.1852   -7.3236 P   0  0  2  0  0  0  0  0  0  0  0  0
   21.4596   72.7417   -8.7445 O   0  0  0  0  0  0  0  0  0  0  0  0
   20.4924   74.6461   -7.2233 O   0  0  0  0  0  0  0  0  0  0  0  0
   19.5651   72.1976   -7.1148 O   0  0  0  0  0  0  0  0  0  0  0  0
   17.4371   73.2353   -7.1775 O   0  0  0  0  0  0  0  0  0  0  0  0
   16.4943   69.4686   -5.7665 O   0  0  0  0  0  0  0  0  0  0  0  0
   18.8555   70.8736   -4.7740 O   0  0  0  0  0  0  0  0  0  0  0  0
   15.9196   70.1791   -8.5262 O   0  0  0  0  0  0  0  0  0  0  0  0
   17.2312   70.4309   -6.5209 C   0  0  2  0  0  0  0  0  0  0  0  0
   17.8393   71.4663   -5.5745 C   0  0  2  0  0  0  0  0  0  0  0  0
   16.2659   71.1054   -7.4983 C   0  0  1  0  0  0  0  0  0  0  0  0
   18.4396   72.6358   -6.3559 C   0  0  1  0  0  0  0  0  0  0  0  0
   16.8959   72.3366   -8.1431 C   0  0  1  0  0  0  0  0  0  0  0  0
   17.0873   69.0270   -5.1383 H   0  0  0  0  0  0  0  0  0  0  0  0
   18.4817   70.1305   -4.2756 H   0  0  0  0  0  0  0  0  0  0  0  0
   15.5177   69.3907   -8.1291 H   0  0  0  0  0  0  0  0  0  0  0  0
   14.6251   72.6322   -8.6505 O   0  0  0  0  0  0  0  0  0  0  0  0
   16.0832   74.1856   -9.4629 O   0  0  0  0  0  0  0  0  0  0  0  0
   15.8591   73.1654   -8.8289 C   0  0  0  0  0  0  0  0  0  0  0  0
  1  4  1  0
  1 24  1  0
  1  2  1  6
  1  3  2  0
 25 28  1  0
 25 24  1  0
 25 26  1  6
 25 27  2  0
  6 11  1  0
  6 12  1  0
 29 36  1  0
 29 37  1  0
  9  7  1  1
  7 13  1  0
 10  8  1  1
  8 14  1  0
  4  5  1  0
 36 28  1  6
 33 30  1  1
 30 38  1  0
 34 31  1  6
 31 39  1  0
 35 32  1  6
 32 40  1  0
 41 43  1  0
 15 19  2  0
 42 43  2  0
 16 22  2  0
 12 17  1  6
 17 19  1  0
 17 20  1  0
 18 19  1  0
 18 22  1  0
 18 23  1  0
  9 10  1  0
  9 11  1  0
 10 12  1  0
 11  5  1  6
 33 34  1  0
 33 35  1  0
 34 36  1  0
 35 37  1  0
 37 43  1  1
 20 21  2  0
 21 22  1  0
M  CHG  3   2  -1  26  -1  41  -1
M  END
>  <COMPND>  (118) 
    udp_gluA.pdb 

>  <AUTHOR>  (118) 
    GENERATED BY OPEN BABEL 3.1.1

>  <MASTER>  (118) 
        0    0    0    0    0    0    0    0   56    0   56    0

>  <minimizedAffinity>  (118) 
-7.62695

>  <CNNscore>  (118) 
0.3267938495

>  <CNNaffinity>  (118) 
4.0706982613

>  <CNN_VS>  (118) 
1.3302791119

>  <CNNaffinity_variance>  (118) 
0.0810853317

$$$$
119
     RDKit          3D

 43 45  0  0  0  0  0  0  0  0999 V2000
   22.0711   72.9401   -4.7114 P   0  0  2  0  0  0  0  0  0  0  0  0
   23.6834   73.0645   -4.6498 O   0  0  0  0  0  0  0  0  0  0  0  0
   21.3237   74.1556   -4.2470 O   0  0  0  0  0  0  0  0  0  0  0  0
   21.7560   71.5718   -3.9074 O   0  0  0  0  0  0  0  0  0  0  0  0
   22.3785   71.3664   -2.6525 C   0  0  0  0  0  0  0  0  0  0  0  0
   21.9376   70.7383   -0.3746 O   0  0  0  0  0  0  0  0  0  0  0  0
   19.3303   72.1886   -0.6749 O   0  0  0  0  0  0  0  0  0  0  0  0
   20.8593   73.9880    0.6890 O   0  0  0  0  0  0  0  0  0  0  0  0
   20.6097   72.5068   -1.2230 C   0  0  1  0  0  0  0  0  0  0  0  0
   21.5188   73.0590   -0.1456 C   0  0  2  0  0  0  0  0  0  0  0  0
   21.3030   71.2009   -1.5864 C   0  0  1  0  0  0  0  0  0  0  0  0
   21.9325   71.7985    0.5946 C   0  0  2  0  0  0  0  0  0  0  0  0
   18.8682   73.0075   -0.4350 H   0  0  0  0  0  0  0  0  0  0  0  0
   20.6168   74.7724    0.1715 H   0  0  0  0  0  0  0  0  0  0  0  0
   22.8284   70.2890    2.8071 O   0  0  0  0  0  0  0  0  0  0  0  0
   26.9745   72.3011    2.7331 O   0  0  0  0  0  0  0  0  0  0  0  0
   23.2414   71.9079    1.1739 N   0  0  0  0  0  0  0  0  0  0  0  0
   24.8922   71.2933    2.7687 N   0  0  0  0  0  0  0  0  0  0  0  0
   23.5913   71.1037    2.2843 C   0  0  0  0  0  0  0  0  0  0  0  0
   24.1627   72.8019    0.6422 C   0  0  0  0  0  0  0  0  0  0  0  0
   25.3992   72.9715    1.1147 C   0  0  0  0  0  0  0  0  0  0  0  0
   25.8438   72.1703    2.2740 C   0  0  0  0  0  0  0  0  0  0  0  0
   25.1581   70.7460    3.5427 H   0  0  0  0  0  0  0  0  0  0  0  0
   21.7974   72.5285   -6.2504 O   0  0  0  0  0  0  0  0  0  0  0  0
   20.9490   73.2668   -7.4118 P   0  0  2  0  0  0  0  0  0  0  0  0
   21.4262   72.5062   -8.7587 O   0  0  0  0  0  0  0  0  0  0  0  0
   21.1232   74.7575   -7.4487 O   0  0  0  0  0  0  0  0  0  0  0  0
   19.4294   72.7758   -7.1835 O   0  0  0  0  0  0  0  0  0  0  0  0
   18.7294   70.8562   -5.9858 O   0  0  0  0  0  0  0  0  0  0  0  0
   15.6318   71.3449   -8.6755 O   0  0  0  0  0  0  0  0  0  0  0  0
   18.4038   71.6911   -9.5303 O   0  0  0  0  0  0  0  0  0  0  0  0
   15.2788   72.0999   -5.8905 O   0  0  0  0  0  0  0  0  0  0  0  0
   16.6896   71.7679   -7.8152 C   0  0  2  0  0  0  0  0  0  0  0  0
   18.0064   71.1441   -8.2783 C   0  0  2  0  0  0  0  0  0  0  0  0
   16.3548   71.3103   -6.3938 C   0  0  1  0  0  0  0  0  0  0  0  0
   19.1163   71.3859   -7.2544 C   0  0  1  0  0  0  0  0  0  0  0  0
   17.5525   71.4670   -5.4614 C   0  0  1  0  0  0  0  0  0  0  0  0
   15.8227   71.6246   -9.5847 H   0  0  0  0  0  0  0  0  0  0  0  0
   17.7040   71.5415  -10.1848 H   0  0  0  0  0  0  0  0  0  0  0  0
   14.5101   72.0091   -6.4750 H   0  0  0  0  0  0  0  0  0  0  0  0
   18.3024   71.0194   -3.2845 O   0  0  0  0  0  0  0  0  0  0  0  0
   16.4029   69.9597   -3.9688 O   0  0  0  0  0  0  0  0  0  0  0  0
   17.3306   70.7254   -4.1835 C   0  0  0  0  0  0  0  0  0  0  0  0
  1  4  1  0
  1 24  1  0
  1  2  1  6
  1  3  2  0
 25 28  1  0
 25 24  1  0
 25 26  1  6
 25 27  2  0
  6 11  1  0
  6 12  1  0
 29 36  1  0
 29 37  1  0
  9  7  1  1
  7 13  1  0
 10  8  1  1
  8 14  1  0
  4  5  1  0
 36 28  1  1
 33 30  1  6
 30 38  1  0
 34 31  1  6
 31 39  1  0
 35 32  1  1
 32 40  1  0
 41 43  1  0
 15 19  2  0
 42 43  2  0
 16 22  2  0
 12 17  1  6
 17 19  1  0
 17 20  1  0
 18 19  1  0
 18 22  1  0
 18 23  1  0
  9 10  1  0
  9 11  1  0
 10 12  1  0
 11  5  1  6
 33 34  1  0
 33 35  1  0
 34 36  1  0
 35 37  1  0
 37 43  1  1
 20 21  2  0
 21 22  1  0
M  CHG  3   2  -1  26  -1  41  -1
M  END
>  <COMPND>  (119) 
    udp_gluA.pdb 

>  <AUTHOR>  (119) 
    GENERATED BY OPEN BABEL 3.1.1

>  <MASTER>  (119) 
        0    0    0    0    0    0    0    0   56    0   56    0

>  <minimizedAffinity>  (119) 
-7.69003

>  <CNNscore>  (119) 
0.3246754706

>  <CNNaffinity>  (119) 
4.0894117355

>  <CNN_VS>  (119) 
1.3277317286

>  <CNNaffinity_variance>  (119) 
0.0454372652

$$$$
120
     RDKit          3D

 43 45  0  0  0  0  0  0  0  0999 V2000
   22.5181   74.6559   -3.3082 P   0  0  2  0  0  0  0  0  0  0  0  0
   23.4150   75.3624   -4.4551 O   0  0  0  0  0  0  0  0  0  0  0  0
   21.9640   75.5896   -2.2724 O   0  0  0  0  0  0  0  0  0  0  0  0
   23.4658   73.4694   -2.7497 O   0  0  0  0  0  0  0  0  0  0  0  0
   23.8992   73.5275   -1.4031 C   0  0  0  0  0  0  0  0  0  0  0  0
   24.3913   71.9381    0.3317 O   0  0  0  0  0  0  0  0  0  0  0  0
   21.4787   71.2298    0.2522 O   0  0  0  0  0  0  0  0  0  0  0  0
   21.6387   72.8486    2.4409 O   0  0  0  0  0  0  0  0  0  0  0  0
   22.1044   72.5015    0.0797 C   0  0  1  0  0  0  0  0  0  0  0  0
   22.5889   73.0323    1.4123 C   0  0  2  0  0  0  0  0  0  0  0  0
   23.4112   72.2841   -0.6708 C   0  0  1  0  0  0  0  0  0  0  0  0
   23.8544   72.2214    1.6335 C   0  0  2  0  0  0  0  0  0  0  0  0
   20.6414   71.3432    0.7296 H   0  0  0  0  0  0  0  0  0  0  0  0
   20.8522   73.3857    2.2541 H   0  0  0  0  0  0  0  0  0  0  0  0
   25.0687   71.2383    3.9863 O   0  0  0  0  0  0  0  0  0  0  0  0
   27.6103   75.0508    4.4857 O   0  0  0  0  0  0  0  0  0  0  0  0
   24.8367   72.9363    2.3983 N   0  0  0  0  0  0  0  0  0  0  0  0
   26.3327   73.1385    4.2334 N   0  0  0  0  0  0  0  0  0  0  0  0
   25.3843   72.3528    3.5653 C   0  0  0  0  0  0  0  0  0  0  0  0
   25.2490   74.1990    1.9903 C   0  0  0  0  0  0  0  0  0  0  0  0
   26.1540   74.9358    2.6375 C   0  0  0  0  0  0  0  0  0  0  0  0
   26.7743   74.3995    3.8667 C   0  0  0  0  0  0  0  0  0  0  0  0
   26.7265   72.7543    5.0498 H   0  0  0  0  0  0  0  0  0  0  0  0
   21.4012   73.8575   -4.1615 O   0  0  0  0  0  0  0  0  0  0  0  0
   20.1835   72.9055   -3.6876 P   0  0  2  0  0  0  0  0  0  0  0  0
   19.1248   73.9498   -3.0483 O   0  0  0  0  0  0  0  0  0  0  0  0
   20.5932   71.7961   -2.7628 O   0  0  0  0  0  0  0  0  0  0  0  0
   19.4917   72.4127   -5.0591 O   0  0  0  0  0  0  0  0  0  0  0  0
   18.7101   70.3511   -5.9239 O   0  0  0  0  0  0  0  0  0  0  0  0
   20.6042   71.9791   -9.2148 O   0  0  0  0  0  0  0  0  0  0  0  0
   21.8178   72.1673   -6.5641 O   0  0  0  0  0  0  0  0  0  0  0  0
   17.7016   71.9775   -9.0544 O   0  0  0  0  0  0  0  0  0  0  0  0
   19.8648   72.0005   -7.9938 C   0  0  2  0  0  0  0  0  0  0  0  0
   20.6933   71.3555   -6.8824 C   0  0  2  0  0  0  0  0  0  0  0  0
   18.5676   71.2186   -8.2127 C   0  0  1  0  0  0  0  0  0  0  0  0
   19.8528   71.1523   -5.6211 C   0  0  1  0  0  0  0  0  0  0  0  0
   17.8510   70.9477   -6.8930 C   0  0  1  0  0  0  0  0  0  0  0  0
   21.4331   72.4700   -9.0997 H   0  0  0  0  0  0  0  0  0  0  0  0
   22.3555   72.3006   -7.3600 H   0  0  0  0  0  0  0  0  0  0  0  0
   18.1459   72.1568   -9.8978 H   0  0  0  0  0  0  0  0  0  0  0  0
   16.2839   69.5333   -5.8705 O   0  0  0  0  0  0  0  0  0  0  0  0
   16.4000   69.4838   -8.1472 O   0  0  0  0  0  0  0  0  0  0  0  0
   16.7815   69.9198   -7.0714 C   0  0  0  0  0  0  0  0  0  0  0  0
  1  4  1  0
  1 24  1  0
  1  2  1  6
  1  3  2  0
 25 28  1  0
 25 24  1  0
 25 26  1  1
 25 27  2  0
  6 11  1  0
  6 12  1  0
 29 36  1  0
 29 37  1  0
  9  7  1  1
  7 13  1  0
 10  8  1  1
  8 14  1  0
  4  5  1  0
 36 28  1  6
 33 30  1  6
 30 38  1  0
 34 31  1  1
 31 39  1  0
 35 32  1  6
 32 40  1  0
 41 43  1  0
 15 19  2  0
 42 43  2  0
 16 22  2  0
 12 17  1  1
 17 19  1  0
 17 20  1  0
 18 19  1  0
 18 22  1  0
 18 23  1  0
  9 10  1  0
  9 11  1  0
 10 12  1  0
 11  5  1  1
 33 34  1  0
 33 35  1  0
 34 36  1  0
 35 37  1  0
 37 43  1  6
 20 21  2  0
 21 22  1  0
M  CHG  3   2  -1  26  -1  41  -1
M  END
>  <COMPND>  (120) 
    udp_gluA.pdb 

>  <AUTHOR>  (120) 
    GENERATED BY OPEN BABEL 3.1.1

>  <MASTER>  (120) 
        0    0    0    0    0    0    0    0   56    0   56    0

>  <minimizedAffinity>  (120) 
-5.99071

>  <CNNscore>  (120) 
0.3152232766

>  <CNNaffinity>  (120) 
4.0793290138

>  <CNN_VS>  (120) 
1.2858994007

>  <CNNaffinity_variance>  (120) 
0.2045557052

$$$$
121
     RDKit          3D

 43 45  0  0  0  0  0  0  0  0999 V2000
   22.7586   72.7436   -3.3304 P   0  0  2  0  0  0  0  0  0  0  0  0
   23.8444   73.4484   -4.3016 O   0  0  0  0  0  0  0  0  0  0  0  0
   23.1941   71.4362   -2.7365 O   0  0  0  0  0  0  0  0  0  0  0  0
   21.4112   72.6948   -4.2249 O   0  0  0  0  0  0  0  0  0  0  0  0
   21.2959   71.6939   -5.2196 C   0  0  0  0  0  0  0  0  0  0  0  0
   20.7457   71.5240   -7.5533 O   0  0  0  0  0  0  0  0  0  0  0  0
   21.4696   74.4276   -7.7444 O   0  0  0  0  0  0  0  0  0  0  0  0
   18.7447   74.4969   -7.6652 O   0  0  0  0  0  0  0  0  0  0  0  0
   20.8290   73.7243   -6.6798 C   0  0  1  0  0  0  0  0  0  0  0  0
   19.3960   73.4052   -7.0500 C   0  0  2  0  0  0  0  0  0  0  0  0
   21.4515   72.3376   -6.5914 C   0  0  1  0  0  0  0  0  0  0  0  0
   19.5684   72.2228   -7.9882 C   0  0  2  0  0  0  0  0  0  0  0  0
   21.0884   75.3168   -7.8204 H   0  0  0  0  0  0  0  0  0  0  0  0
   18.6589   75.2234   -7.0274 H   0  0  0  0  0  0  0  0  0  0  0  0
   18.8050   70.5307  -10.1166 O   0  0  0  0  0  0  0  0  0  0  0  0
   15.2603   68.8145   -7.7222 O   0  0  0  0  0  0  0  0  0  0  0  0
   18.4501   71.3237   -7.9478 N   0  0  0  0  0  0  0  0  0  0  0  0
   17.0397   69.6783   -8.9224 N   0  0  0  0  0  0  0  0  0  0  0  0
   18.1521   70.5169   -9.0715 C   0  0  0  0  0  0  0  0  0  0  0  0
   17.6634   71.2460   -6.8050 C   0  0  0  0  0  0  0  0  0  0  0  0
   16.6062   70.4417   -6.6778 C   0  0  0  0  0  0  0  0  0  0  0  0
   16.2265   69.5665   -7.8062 C   0  0  0  0  0  0  0  0  0  0  0  0
   16.8113   69.1086   -9.6922 H   0  0  0  0  0  0  0  0  0  0  0  0
   22.4348   73.9001   -2.2485 O   0  0  0  0  0  0  0  0  0  0  0  0
   23.3709   74.6021   -1.1329 P   0  0  2  0  0  0  0  0  0  0  0  0
   22.4878   75.8716   -0.6547 O   0  0  0  0  0  0  0  0  0  0  0  0
   24.7478   74.9539   -1.6173 O   0  0  0  0  0  0  0  0  0  0  0  0
   23.3412   73.5894    0.1224 O   0  0  0  0  0  0  0  0  0  0  0  0
   25.3949   72.5404    0.6623 O   0  0  0  0  0  0  0  0  0  0  0  0
   22.7174   70.3677    2.9379 O   0  0  0  0  0  0  0  0  0  0  0  0
   22.0575   71.1230    0.1941 O   0  0  0  0  0  0  0  0  0  0  0  0
   24.4351   72.3456    4.1983 O   0  0  0  0  0  0  0  0  0  0  0  0
   23.2283   71.5272    2.2802 C   0  0  2  0  0  0  0  0  0  0  0  0
   23.3472   71.2543    0.7806 C   0  0  2  0  0  0  0  0  0  0  0  0
   24.6031   71.8410    2.8748 C   0  0  1  0  0  0  0  0  0  0  0  0
   24.1017   72.3834    0.0772 C   0  0  1  0  0  0  0  0  0  0  0  0
   25.3437   72.8855    2.0448 C   0  0  1  0  0  0  0  0  0  0  0  0
   21.8440   70.1492    2.5763 H   0  0  0  0  0  0  0  0  0  0  0  0
   21.5731   70.4085    0.6359 H   0  0  0  0  0  0  0  0  0  0  0  0
   23.9647   71.6903    4.7369 H   0  0  0  0  0  0  0  0  0  0  0  0
   27.4734   73.7567    1.5899 O   0  0  0  0  0  0  0  0  0  0  0  0
   27.2856   72.3457    3.3712 O   0  0  0  0  0  0  0  0  0  0  0  0
   26.7862   72.9434    2.4297 C   0  0  0  0  0  0  0  0  0  0  0  0
  1  4  1  0
  1 24  1  0
  1  2  1  6
  1  3  2  0
 25 28  1  0
 25 24  1  0
 25 26  1  1
 25 27  2  0
  6 11  1  0
  6 12  1  0
 29 36  1  0
 29 37  1  0
  9  7  1  6
  7 13  1  0
 10  8  1  6
  8 14  1  0
  4  5  1  0
 36 28  1  1
 33 30  1  1
 30 38  1  0
 34 31  1  6
 31 39  1  0
 35 32  1  1
 32 40  1  0
 41 43  1  0
 15 19  2  0
 42 43  2  0
 16 22  2  0
 12 17  1  1
 17 19  1  0
 17 20  1  0
 18 19  1  0
 18 22  1  0
 18 23  1  0
  9 10  1  0
  9 11  1  0
 10 12  1  0
 11  5  1  1
 33 34  1  0
 33 35  1  0
 34 36  1  0
 35 37  1  0
 37 43  1  1
 20 21  2  0
 21 22  1  0
M  CHG  3   2  -1  26  -1  41  -1
M  END
>  <COMPND>  (121) 
    udp_gluA.pdb 

>  <AUTHOR>  (121) 
    GENERATED BY OPEN BABEL 3.1.1

>  <MASTER>  (121) 
        0    0    0    0    0    0    0    0   56    0   56    0

>  <minimizedAffinity>  (121) 
-7.16258

>  <CNNscore>  (121) 
0.7941201925

>  <CNNaffinity>  (121) 
4.3612442017

>  <CNN_VS>  (121) 
3.4633522034

>  <CNNaffinity_variance>  (121) 
0.0847513080

$$$$
122
     RDKit          3D

 43 45  0  0  0  0  0  0  0  0999 V2000
   20.3551   72.7276   -1.2065 P   0  0  2  0  0  0  0  0  0  0  0  0
   19.2424   73.1082   -0.0948 O   0  0  0  0  0  0  0  0  0  0  0  0
   21.1421   73.8892   -1.7387 O   0  0  0  0  0  0  0  0  0  0  0  0
   19.5296   71.8753   -2.3065 O   0  0  0  0  0  0  0  0  0  0  0  0
   19.3552   72.4279   -3.5983 C   0  0  0  0  0  0  0  0  0  0  0  0
   20.0025   70.8261   -5.2696 O   0  0  0  0  0  0  0  0  0  0  0  0
   22.2677   72.6847   -5.9069 O   0  0  0  0  0  0  0  0  0  0  0  0
   20.4791   73.2219   -7.8940 O   0  0  0  0  0  0  0  0  0  0  0  0
   20.9294   72.9920   -5.5156 C   0  0  1  0  0  0  0  0  0  0  0  0
   19.9765   72.7407   -6.6650 C   0  0  2  0  0  0  0  0  0  0  0  0
   20.4856   71.9483   -4.4998 C   0  0  1  0  0  0  0  0  0  0  0  0
   19.8438   71.2276   -6.6396 C   0  0  2  0  0  0  0  0  0  0  0  0
   22.5733   73.3381   -6.5560 H   0  0  0  0  0  0  0  0  0  0  0  0
   20.5447   74.1896   -7.8598 H   0  0  0  0  0  0  0  0  0  0  0  0
   19.2370   70.7009   -9.3472 O   0  0  0  0  0  0  0  0  0  0  0  0
   14.8978   69.5217   -8.3350 O   0  0  0  0  0  0  0  0  0  0  0  0
   18.5634   70.7817   -7.1115 N   0  0  0  0  0  0  0  0  0  0  0  0
   17.0761   70.1151   -8.8406 N   0  0  0  0  0  0  0  0  0  0  0  0
   18.3629   70.5462   -8.4922 C   0  0  0  0  0  0  0  0  0  0  0  0
   17.5241   70.5808   -6.2114 C   0  0  0  0  0  0  0  0  0  0  0  0
   16.3029   70.1695   -6.5584 C   0  0  0  0  0  0  0  0  0  0  0  0
   16.0101   69.9016   -7.9818 C   0  0  0  0  0  0  0  0  0  0  0  0
   16.9119   69.9465   -9.7966 H   0  0  0  0  0  0  0  0  0  0  0  0
   21.2407   71.5988   -0.4620 O   0  0  0  0  0  0  0  0  0  0  0  0
   22.5241   71.7286    0.5125 P   0  0  2  0  0  0  0  0  0  0  0  0
   23.7243   72.1082   -0.5053 O   0  0  0  0  0  0  0  0  0  0  0  0
   22.7862   70.5112    1.3510 O   0  0  0  0  0  0  0  0  0  0  0  0
   22.2630   73.0788    1.3557 O   0  0  0  0  0  0  0  0  0  0  0  0
   23.0610   72.7126    3.5553 O   0  0  0  0  0  0  0  0  0  0  0  0
   21.6777   76.5978    3.7989 O   0  0  0  0  0  0  0  0  0  0  0  0
   20.1418   74.5660    2.3680 O   0  0  0  0  0  0  0  0  0  0  0  0
   24.5327   76.0723    3.6455 O   0  0  0  0  0  0  0  0  0  0  0  0
   22.2538   75.4571    3.1626 C   0  0  2  0  0  0  0  0  0  0  0  0
   21.2623   74.2940    3.2018 C   0  0  2  0  0  0  0  0  0  0  0  0
   23.5339   75.0910    3.9171 C   0  0  1  0  0  0  0  0  0  0  0  0
   21.9240   72.9953    2.7388 C   0  0  1  0  0  0  0  0  0  0  0  0
   24.0624   73.7253    3.4877 C   0  0  1  0  0  0  0  0  0  0  0  0
   20.8626   76.8489    3.3365 H   0  0  0  0  0  0  0  0  0  0  0  0
   19.7173   75.3890    2.6560 H   0  0  0  0  0  0  0  0  0  0  0  0
   24.2089   76.9463    3.9141 H   0  0  0  0  0  0  0  0  0  0  0  0
   25.4358   71.9494    4.1669 O   0  0  0  0  0  0  0  0  0  0  0  0
   25.5890   73.8935    5.3485 O   0  0  0  0  0  0  0  0  0  0  0  0
   25.1012   73.2343    4.4427 C   0  0  0  0  0  0  0  0  0  0  0  0
  1  4  1  0
  1 24  1  0
  1  2  1  1
  1  3  2  0
 25 28  1  0
 25 24  1  0
 25 26  1  6
 25 27  2  0
  6 11  1  0
  6 12  1  0
 29 36  1  0
 29 37  1  0
  9  7  1  6
  7 13  1  0
 10  8  1  6
  8 14  1  0
  4  5  1  0
 36 28  1  6
 33 30  1  1
 30 38  1  0
 34 31  1  6
 31 39  1  0
 35 32  1  6
 32 40  1  0
 41 43  1  0
 15 19  2  0
 42 43  2  0
 16 22  2  0
 12 17  1  1
 17 19  1  0
 17 20  1  0
 18 19  1  0
 18 22  1  0
 18 23  1  0
  9 10  1  0
  9 11  1  0
 10 12  1  0
 11  5  1  1
 33 34  1  0
 33 35  1  0
 34 36  1  0
 35 37  1  0
 37 43  1  1
 20 21  2  0
 21 22  1  0
M  CHG  3   2  -1  26  -1  41  -1
M  END
>  <COMPND>  (122) 
    udp_gluA.pdb 

>  <AUTHOR>  (122) 
    GENERATED BY OPEN BABEL 3.1.1

>  <MASTER>  (122) 
        0    0    0    0    0    0    0    0   56    0   56    0

>  <minimizedAffinity>  (122) 
-6.24849

>  <CNNscore>  (122) 
0.7371057868

>  <CNNaffinity>  (122) 
4.2924637794

>  <CNN_VS>  (122) 
3.1639997959

>  <CNNaffinity_variance>  (122) 
0.0777902529

$$$$
123
     RDKit          3D

 43 45  0  0  0  0  0  0  0  0999 V2000
   19.4640   72.9055   -1.8931 P   0  0  2  0  0  0  0  0  0  0  0  0
   20.7654   73.1422   -0.9609 O   0  0  0  0  0  0  0  0  0  0  0  0
   18.6168   74.1232   -2.1195 O   0  0  0  0  0  0  0  0  0  0  0  0
   18.7158   71.6474   -1.2036 O   0  0  0  0  0  0  0  0  0  0  0  0
   17.3016   71.6551   -1.1375 C   0  0  0  0  0  0  0  0  0  0  0  0
   16.4662   69.5714   -1.9965 O   0  0  0  0  0  0  0  0  0  0  0  0
   15.2725   71.1829   -4.2258 O   0  0  0  0  0  0  0  0  0  0  0  0
   13.1314   70.7439   -2.5952 O   0  0  0  0  0  0  0  0  0  0  0  0
   15.4219   71.5202   -2.8465 C   0  0  1  0  0  0  0  0  0  0  0  0
   14.4161   70.7591   -2.0089 C   0  0  2  0  0  0  0  0  0  0  0  0
   16.7438   70.9407   -2.3617 C   0  0  1  0  0  0  0  0  0  0  0  0
   15.0440   69.3775   -1.9404 C   0  0  2  0  0  0  0  0  0  0  0  0
   14.4347   71.5426   -4.5581 H   0  0  0  0  0  0  0  0  0  0  0  0
   12.7746   71.6463   -2.6155 H   0  0  0  0  0  0  0  0  0  0  0  0
   12.8101   67.6777   -1.6292 O   0  0  0  0  0  0  0  0  0  0  0  0
   13.8786   66.7752    2.7626 O   0  0  0  0  0  0  0  0  0  0  0  0
   14.7147   68.6856   -0.7264 N   0  0  0  0  0  0  0  0  0  0  0  0
   13.3438   67.2306    0.5581 N   0  0  0  0  0  0  0  0  0  0  0  0
   13.5699   67.8556   -0.6753 C   0  0  0  0  0  0  0  0  0  0  0  0
   15.5217   68.8308    0.3955 C   0  0  0  0  0  0  0  0  0  0  0  0
   15.2934   68.2286    1.5642 C   0  0  0  0  0  0  0  0  0  0  0  0
   14.1173   67.3448    1.7020 C   0  0  0  0  0  0  0  0  0  0  0  0
   12.5515   66.6494    0.6187 H   0  0  0  0  0  0  0  0  0  0  0  0
   20.0921   72.2630   -3.2368 O   0  0  0  0  0  0  0  0  0  0  0  0
   20.8167   72.9547   -4.5057 P   0  0  2  0  0  0  0  0  0  0  0  0
   22.1915   72.1125   -4.6508 O   0  0  0  0  0  0  0  0  0  0  0  0
   21.0110   74.4373   -4.3712 O   0  0  0  0  0  0  0  0  0  0  0  0
   19.9297   72.5083   -5.7770 O   0  0  0  0  0  0  0  0  0  0  0  0
   18.5986   70.5888   -6.1684 O   0  0  0  0  0  0  0  0  0  0  0  0
   20.1091   71.3473   -9.9382 O   0  0  0  0  0  0  0  0  0  0  0  0
   21.8242   71.5685   -7.5836 O   0  0  0  0  0  0  0  0  0  0  0  0
   17.3518   72.0196   -9.3086 O   0  0  0  0  0  0  0  0  0  0  0  0
   19.6389   71.6790   -8.6317 C   0  0  2  0  0  0  0  0  0  0  0  0
   20.5199   70.9996   -7.5830 C   0  0  2  0  0  0  0  0  0  0  0  0
   18.1940   71.1897   -8.5108 C   0  0  1  0  0  0  0  0  0  0  0  0
   19.9153   71.1416   -6.1855 C   0  0  1  0  0  0  0  0  0  0  0  0
   17.7061   71.2452   -7.0660 C   0  0  1  0  0  0  0  0  0  0  0  0
   21.0259   71.6487  -10.0383 H   0  0  0  0  0  0  0  0  0  0  0  0
   22.2137   71.4821   -8.4675 H   0  0  0  0  0  0  0  0  0  0  0  0
   17.6517   71.9932  -10.2307 H   0  0  0  0  0  0  0  0  0  0  0  0
   16.6561   69.3400   -6.1889 O   0  0  0  0  0  0  0  0  0  0  0  0
   15.3506   70.8058   -7.3492 O   0  0  0  0  0  0  0  0  0  0  0  0
   16.4383   70.4714   -6.9041 C   0  0  0  0  0  0  0  0  0  0  0  0
  1  4  1  0
  1 24  1  0
  1  2  1  1
  1  3  2  0
 25 28  1  0
 25 24  1  0
 25 26  1  6
 25 27  2  0
  6 11  1  0
  6 12  1  0
 29 36  1  0
 29 37  1  0
  9  7  1  6
  7 13  1  0
 10  8  1  6
  8 14  1  0
  4  5  1  0
 36 28  1  6
 33 30  1  6
 30 38  1  0
 34 31  1  1
 31 39  1  0
 35 32  1  6
 32 40  1  0
 41 43  1  0
 15 19  2  0
 42 43  2  0
 16 22  2  0
 12 17  1  1
 17 19  1  0
 17 20  1  0
 18 19  1  0
 18 22  1  0
 18 23  1  0
  9 10  1  0
  9 11  1  0
 10 12  1  0
 11  5  1  1
 33 34  1  0
 33 35  1  0
 34 36  1  0
 35 37  1  0
 37 43  1  6
 20 21  2  0
 21 22  1  0
M  CHG  3   2  -1  26  -1  41  -1
M  END
>  <COMPND>  (123) 
    udp_gluA.pdb 

>  <AUTHOR>  (123) 
    GENERATED BY OPEN BABEL 3.1.1

>  <MASTER>  (123) 
        0    0    0    0    0    0    0    0   56    0   56    0

>  <minimizedAffinity>  (123) 
-6.50233

>  <CNNscore>  (123) 
0.7082041502

>  <CNNaffinity>  (123) 
4.4230070114

>  <CNN_VS>  (123) 
3.1323919296

>  <CNNaffinity_variance>  (123) 
0.1250082254

$$$$
124
     RDKit          3D

 43 45  0  0  0  0  0  0  0  0999 V2000
   20.8471   71.7774   -0.9417 P   0  0  2  0  0  0  0  0  0  0  0  0
   21.5160   70.8729    0.2217 O   0  0  0  0  0  0  0  0  0  0  0  0
   19.6791   72.6113   -0.5033 O   0  0  0  0  0  0  0  0  0  0  0  0
   20.5497   70.7220   -2.1315 O   0  0  0  0  0  0  0  0  0  0  0  0
   19.9229   71.1917   -3.3109 C   0  0  0  0  0  0  0  0  0  0  0  0
   20.5202   70.4540   -5.5192 O   0  0  0  0  0  0  0  0  0  0  0  0
   22.4054   72.7849   -5.5863 O   0  0  0  0  0  0  0  0  0  0  0  0
   20.2893   73.6877   -7.0502 O   0  0  0  0  0  0  0  0  0  0  0  0
   21.1108   72.6865   -4.9923 C   0  0  1  0  0  0  0  0  0  0  0  0
   20.0400   72.7096   -6.0624 C   0  0  2  0  0  0  0  0  0  0  0  0
   20.9610   71.2828   -4.4219 C   0  0  1  0  0  0  0  0  0  0  0  0
   20.1107   71.2943   -6.6099 C   0  0  2  0  0  0  0  0  0  0  0  0
   22.5244   73.6734   -5.9578 H   0  0  0  0  0  0  0  0  0  0  0  0
   20.2326   74.5710   -6.6521 H   0  0  0  0  0  0  0  0  0  0  0  0
   19.5360   70.8277   -9.3354 O   0  0  0  0  0  0  0  0  0  0  0  0
   15.2159   69.5287   -8.3904 O   0  0  0  0  0  0  0  0  0  0  0  0
   18.8439   70.8339   -7.1039 N   0  0  0  0  0  0  0  0  0  0  0  0
   17.3845   70.1822   -8.8623 N   0  0  0  0  0  0  0  0  0  0  0  0
   18.6590   70.6313   -8.4921 C   0  0  0  0  0  0  0  0  0  0  0  0
   17.8024   70.5865   -6.2180 C   0  0  0  0  0  0  0  0  0  0  0  0
   16.5931   70.1585   -6.5858 C   0  0  0  0  0  0  0  0  0  0  0  0
   16.3169   69.9228   -8.0182 C   0  0  0  0  0  0  0  0  0  0  0  0
   17.2312   70.0359   -9.8237 H   0  0  0  0  0  0  0  0  0  0  0  0
   22.1019   72.6225   -1.5109 O   0  0  0  0  0  0  0  0  0  0  0  0
   23.6114   72.1690   -1.8708 P   0  0  2  0  0  0  0  0  0  0  0  0
   24.1165   73.3312   -2.8781 O   0  0  0  0  0  0  0  0  0  0  0  0
   23.7207   70.7786   -2.4264 O   0  0  0  0  0  0  0  0  0  0  0  0
   24.4474   72.4151   -0.5133 O   0  0  0  0  0  0  0  0  0  0  0  0
   23.5746   72.8032    1.6539 O   0  0  0  0  0  0  0  0  0  0  0  0
   27.2044   74.7670    1.8453 O   0  0  0  0  0  0  0  0  0  0  0  0
   25.5313   74.9765   -0.5404 O   0  0  0  0  0  0  0  0  0  0  0  0
   26.8668   72.1936    3.1546 O   0  0  0  0  0  0  0  0  0  0  0  0
   26.2892   73.7588    1.4164 C   0  0  2  0  0  0  0  0  0  0  0  0
   25.1095   74.4117    0.6956 C   0  0  2  0  0  0  0  0  0  0  0  0
   25.8037   73.0028    2.6553 C   0  0  1  0  0  0  0  0  0  0  0  0
   24.0017   73.3926    0.4252 C   0  0  1  0  0  0  0  0  0  0  0  0
   24.6167   72.1014    2.3282 C   0  0  1  0  0  0  0  0  0  0  0  0
   27.5263   75.2607    1.0747 H   0  0  0  0  0  0  0  0  0  0  0  0
   26.2344   75.6239   -0.3763 H   0  0  0  0  0  0  0  0  0  0  0  0
   27.6287   72.7552    3.3665 H   0  0  0  0  0  0  0  0  0  0  0  0
   24.6605   70.6279    4.1526 O   0  0  0  0  0  0  0  0  0  0  0  0
   22.9064   72.0795    4.0299 O   0  0  0  0  0  0  0  0  0  0  0  0
   23.9488   71.6293    3.5785 C   0  0  0  0  0  0  0  0  0  0  0  0
  1  4  1  0
  1 24  1  0
  1  2  1  1
  1  3  2  0
 25 28  1  0
 25 24  1  0
 25 26  1  6
 25 27  2  0
  6 11  1  0
  6 12  1  0
 29 36  1  0
 29 37  1  0
  9  7  1  6
  7 13  1  0
 10  8  1  6
  8 14  1  0
  4  5  1  0
 36 28  1  6
 33 30  1  1
 30 38  1  0
 34 31  1  6
 31 39  1  0
 35 32  1  6
 32 40  1  0
 41 43  1  0
 15 19  2  0
 42 43  2  0
 16 22  2  0
 12 17  1  1
 17 19  1  0
 17 20  1  0
 18 19  1  0
 18 22  1  0
 18 23  1  0
  9 10  1  0
  9 11  1  0
 10 12  1  0
 11  5  1  1
 33 34  1  0
 33 35  1  0
 34 36  1  0
 35 37  1  0
 37 43  1  1
 20 21  2  0
 21 22  1  0
M  CHG  3   2  -1  26  -1  41  -1
M  END
>  <COMPND>  (124) 
    udp_gluA.pdb 

>  <AUTHOR>  (124) 
    GENERATED BY OPEN BABEL 3.1.1

>  <MASTER>  (124) 
        0    0    0    0    0    0    0    0   56    0   56    0

>  <minimizedAffinity>  (124) 
-7.22088

>  <CNNscore>  (124) 
0.6949255466

>  <CNNaffinity>  (124) 
4.4885826111

>  <CNN_VS>  (124) 
3.1192307472

>  <CNNaffinity_variance>  (124) 
0.0691626519

$$$$
125
     RDKit          3D

 43 45  0  0  0  0  0  0  0  0999 V2000
   17.6614   72.4101   -2.2518 P   0  0  2  0  0  0  0  0  0  0  0  0
   17.7006   73.8965   -1.6132 O   0  0  0  0  0  0  0  0  0  0  0  0
   16.6864   72.2299   -3.3781 O   0  0  0  0  0  0  0  0  0  0  0  0
   17.4438   71.4433   -0.9727 O   0  0  0  0  0  0  0  0  0  0  0  0
   16.1333   70.9953   -0.6791 C   0  0  0  0  0  0  0  0  0  0  0  0
   15.7401   68.6520   -0.3153 O   0  0  0  0  0  0  0  0  0  0  0  0
   14.7946   68.5592   -3.1594 O   0  0  0  0  0  0  0  0  0  0  0  0
   12.4573   68.6133   -1.7559 O   0  0  0  0  0  0  0  0  0  0  0  0
   14.6393   69.5948   -2.1888 C   0  0  1  0  0  0  0  0  0  0  0  0
   13.5971   69.2005   -1.1639 C   0  0  2  0  0  0  0  0  0  0  0  0
   15.9085   69.6460   -1.3493 C   0  0  1  0  0  0  0  0  0  0  0  0
   14.3681   68.2275   -0.2883 C   0  0  2  0  0  0  0  0  0  0  0  0
   13.9959   68.5074   -3.7080 H   0  0  0  0  0  0  0  0  0  0  0  0
   12.0010   69.2728   -2.3027 H   0  0  0  0  0  0  0  0  0  0  0  0
   13.3818   70.5053    1.0591 O   0  0  0  0  0  0  0  0  0  0  0  0
   12.6213   68.1143    4.9255 O   0  0  0  0  0  0  0  0  0  0  0  0
   13.9057   68.2285    1.0707 N   0  0  0  0  0  0  0  0  0  0  0  0
   13.0050   69.3125    2.9838 N   0  0  0  0  0  0  0  0  0  0  0  0
   13.4299   69.4268    1.6536 C   0  0  0  0  0  0  0  0  0  0  0  0
   13.9247   67.0524    1.8107 C   0  0  0  0  0  0  0  0  0  0  0  0
   13.5163   66.9591    3.0776 C   0  0  0  0  0  0  0  0  0  0  0  0
   13.0053   68.1655    3.7609 C   0  0  0  0  0  0  0  0  0  0  0  0
   12.6714   70.1341    3.4117 H   0  0  0  0  0  0  0  0  0  0  0  0
   19.2057   72.1450   -2.6491 O   0  0  0  0  0  0  0  0  0  0  0  0
   20.1485   72.8376   -3.7649 P   0  0  2  0  0  0  0  0  0  0  0  0
   21.5245   71.9910   -3.6636 O   0  0  0  0  0  0  0  0  0  0  0  0
   20.3199   74.3191   -3.5927 O   0  0  0  0  0  0  0  0  0  0  0  0
   19.5029   72.3978   -5.1764 O   0  0  0  0  0  0  0  0  0  0  0  0
   18.4551   70.3581   -5.7688 O   0  0  0  0  0  0  0  0  0  0  0  0
   20.1139   71.5273   -9.3673 O   0  0  0  0  0  0  0  0  0  0  0  0
   21.6209   71.8101   -6.8807 O   0  0  0  0  0  0  0  0  0  0  0  0
   17.2570   71.8175   -8.9147 O   0  0  0  0  0  0  0  0  0  0  0  0
   19.5167   71.7175   -8.0847 C   0  0  2  0  0  0  0  0  0  0  0  0
   20.4020   71.0872   -7.0094 C   0  0  2  0  0  0  0  0  0  0  0  0
   18.1402   71.0489   -8.1001 C   0  0  1  0  0  0  0  0  0  0  0  0
   19.6894   71.0676   -5.6564 C   0  0  1  0  0  0  0  0  0  0  0  0
   17.5508   70.9549   -6.6957 C   0  0  1  0  0  0  0  0  0  0  0  0
   20.9900   71.9440   -9.3813 H   0  0  0  0  0  0  0  0  0  0  0  0
   22.0782   71.8268   -7.7356 H   0  0  0  0  0  0  0  0  0  0  0  0
   17.6207   71.8851   -9.8114 H   0  0  0  0  0  0  0  0  0  0  0  0
   16.0720   69.6780   -5.3979 O   0  0  0  0  0  0  0  0  0  0  0  0
   15.7831   69.6250   -7.6591 O   0  0  0  0  0  0  0  0  0  0  0  0
   16.3828   70.0235   -6.6719 C   0  0  0  0  0  0  0  0  0  0  0  0
  1  4  1  0
  1 24  1  0
  1  2  1  1
  1  3  2  0
 25 28  1  0
 25 24  1  0
 25 26  1  6
 25 27  2  0
  6 11  1  0
  6 12  1  0
 29 36  1  0
 29 37  1  0
  9  7  1  6
  7 13  1  0
 10  8  1  6
  8 14  1  0
  4  5  1  0
 36 28  1  6
 33 30  1  6
 30 38  1  0
 34 31  1  1
 31 39  1  0
 35 32  1  6
 32 40  1  0
 41 43  1  0
 15 19  2  0
 42 43  2  0
 16 22  2  0
 12 17  1  1
 17 19  1  0
 17 20  1  0
 18 19  1  0
 18 22  1  0
 18 23  1  0
  9 10  1  0
  9 11  1  0
 10 12  1  0
 11  5  1  1
 33 34  1  0
 33 35  1  0
 34 36  1  0
 35 37  1  0
 37 43  1  6
 20 21  2  0
 21 22  1  0
M  CHG  3   2  -1  26  -1  41  -1
M  END
>  <COMPND>  (125) 
    udp_gluA.pdb 

>  <AUTHOR>  (125) 
    GENERATED BY OPEN BABEL 3.1.1

>  <MASTER>  (125) 
        0    0    0    0    0    0    0    0   56    0   56    0

>  <minimizedAffinity>  (125) 
-6.76448

>  <CNNscore>  (125) 
0.6775043011

>  <CNNaffinity>  (125) 
4.3554224968

>  <CNN_VS>  (125) 
2.9508175850

>  <CNNaffinity_variance>  (125) 
0.0642048866

$$$$
126
     RDKit          3D

 43 45  0  0  0  0  0  0  0  0999 V2000
   23.5010   72.4485   -3.4063 P   0  0  2  0  0  0  0  0  0  0  0  0
   24.0171   73.7936   -4.1434 O   0  0  0  0  0  0  0  0  0  0  0  0
   24.5818   71.6087   -2.7911 O   0  0  0  0  0  0  0  0  0  0  0  0
   22.5936   71.7150   -4.5273 O   0  0  0  0  0  0  0  0  0  0  0  0
   21.3984   72.3463   -4.9487 C   0  0  0  0  0  0  0  0  0  0  0  0
   20.9663   71.8038   -7.2502 O   0  0  0  0  0  0  0  0  0  0  0  0
   21.4592   74.7036   -7.8327 O   0  0  0  0  0  0  0  0  0  0  0  0
   18.7368   74.5466   -7.8506 O   0  0  0  0  0  0  0  0  0  0  0  0
   20.8320   74.1036   -6.6991 C   0  0  1  0  0  0  0  0  0  0  0  0
   19.4473   73.6126   -7.0648 C   0  0  2  0  0  0  0  0  0  0  0  0
   21.5609   72.8023   -6.3930 C   0  0  1  0  0  0  0  0  0  0  0  0
   19.7562   72.3299   -7.8178 C   0  0  2  0  0  0  0  0  0  0  0  0
   21.0106   75.5369   -8.0474 H   0  0  0  0  0  0  0  0  0  0  0  0
   18.5644   75.3452   -7.3265 H   0  0  0  0  0  0  0  0  0  0  0  0
   18.7485   70.7725   -9.9476 O   0  0  0  0  0  0  0  0  0  0  0  0
   15.7568   68.6073   -7.1898 O   0  0  0  0  0  0  0  0  0  0  0  0
   18.7140   71.3516   -7.6844 N   0  0  0  0  0  0  0  0  0  0  0  0
   17.2587   69.6963   -8.5722 N   0  0  0  0  0  0  0  0  0  0  0  0
   18.2804   70.6232   -8.8173 C   0  0  0  0  0  0  0  0  0  0  0  0
   18.1343   71.1208   -6.4428 C   0  0  0  0  0  0  0  0  0  0  0  0
   17.1613   70.2339   -6.2248 C   0  0  0  0  0  0  0  0  0  0  0  0
   16.6504   69.4319   -7.3558 C   0  0  0  0  0  0  0  0  0  0  0  0
   16.9388   69.1786   -9.3461 H   0  0  0  0  0  0  0  0  0  0  0  0
   22.4037   73.0069   -2.3589 O   0  0  0  0  0  0  0  0  0  0  0  0
   21.6583   72.2870   -1.1180 P   0  0  2  0  0  0  0  0  0  0  0  0
   21.3692   70.7950   -1.6754 O   0  0  0  0  0  0  0  0  0  0  0  0
   20.4379   73.0116   -0.6285 O   0  0  0  0  0  0  0  0  0  0  0  0
   22.8109   72.0902   -0.0066 O   0  0  0  0  0  0  0  0  0  0  0  0
   22.5304   73.3075    2.0055 O   0  0  0  0  0  0  0  0  0  0  0  0
   26.4287   71.9859    2.3590 O   0  0  0  0  0  0  0  0  0  0  0  0
   25.4336   72.9969   -0.1949 O   0  0  0  0  0  0  0  0  0  0  0  0
   24.3121   70.7145    3.8934 O   0  0  0  0  0  0  0  0  0  0  0  0
   25.0630   71.9215    1.9481 C   0  0  2  0  0  0  0  0  0  0  0  0
   24.7438   73.1126    1.0443 C   0  0  2  0  0  0  0  0  0  0  0  0
   24.1892   71.9571    3.2039 C   0  0  1  0  0  0  0  0  0  0  0  0
   23.2419   73.2053    0.7715 C   0  0  1  0  0  0  0  0  0  0  0  0
   22.7203   72.1777    2.8544 C   0  0  1  0  0  0  0  0  0  0  0  0
   27.0030   71.9648    1.5773 H   0  0  0  0  0  0  0  0  0  0  0  0
   26.3872   72.9373   -0.0293 H   0  0  0  0  0  0  0  0  0  0  0  0
   25.2424   70.5619    4.1215 H   0  0  0  0  0  0  0  0  0  0  0  0
   21.2885   73.7169    3.8948 O   0  0  0  0  0  0  0  0  0  0  0  0
   21.8719   71.8658    5.0914 O   0  0  0  0  0  0  0  0  0  0  0  0
   21.9334   72.5373    4.0725 C   0  0  0  0  0  0  0  0  0  0  0  0
  1  4  1  0
  1 24  1  0
  1  2  1  6
  1  3  2  0
 25 28  1  0
 25 24  1  0
 25 26  1  6
 25 27  2  0
  6 11  1  0
  6 12  1  0
 29 36  1  0
 29 37  1  0
  9  7  1  6
  7 13  1  0
 10  8  1  6
  8 14  1  0
  4  5  1  0
 36 28  1  1
 33 30  1  1
 30 38  1  0
 34 31  1  6
 31 39  1  0
 35 32  1  6
 32 40  1  0
 41 43  1  0
 15 19  2  0
 42 43  2  0
 16 22  2  0
 12 17  1  1
 17 19  1  0
 17 20  1  0
 18 19  1  0
 18 22  1  0
 18 23  1  0
  9 10  1  0
  9 11  1  0
 10 12  1  0
 11  5  1  1
 33 34  1  0
 33 35  1  0
 34 36  1  0
 35 37  1  0
 37 43  1  1
 20 21  2  0
 21 22  1  0
M  CHG  3   2  -1  26  -1  41  -1
M  END
>  <COMPND>  (126) 
    udp_gluA.pdb 

>  <AUTHOR>  (126) 
    GENERATED BY OPEN BABEL 3.1.1

>  <MASTER>  (126) 
        0    0    0    0    0    0    0    0   56    0   56    0

>  <minimizedAffinity>  (126) 
-7.40123

>  <CNNscore>  (126) 
0.6591497660

>  <CNNaffinity>  (126) 
4.2964429855

>  <CNN_VS>  (126) 
2.8319993019

>  <CNNaffinity_variance>  (126) 
0.1247251630

$$$$
127
     RDKit          3D

 43 45  0  0  0  0  0  0  0  0999 V2000
   21.9178   71.6237   -0.5479 P   0  0  2  0  0  0  0  0  0  0  0  0
   23.3106   71.2999   -1.3056 O   0  0  0  0  0  0  0  0  0  0  0  0
   21.8620   71.1907    0.8877 O   0  0  0  0  0  0  0  0  0  0  0  0
   20.7905   70.9868   -1.5182 O   0  0  0  0  0  0  0  0  0  0  0  0
   20.4363   71.6893   -2.6953 C   0  0  0  0  0  0  0  0  0  0  0  0
   21.1121   70.6964   -4.7774 O   0  0  0  0  0  0  0  0  0  0  0  0
   23.2797   72.7672   -4.8475 O   0  0  0  0  0  0  0  0  0  0  0  0
   21.4231   73.7896   -6.5633 O   0  0  0  0  0  0  0  0  0  0  0  0
   21.9391   72.8781   -4.3689 C   0  0  1  0  0  0  0  0  0  0  0  0
   20.9709   72.9381   -5.5314 C   0  0  2  0  0  0  0  0  0  0  0  0
   21.5646   71.5575   -3.7102 C   0  0  1  0  0  0  0  0  0  0  0  0
   20.9039   71.4826   -5.9614 C   0  0  2  0  0  0  0  0  0  0  0  0
   23.5415   73.5993   -5.2726 H   0  0  0  0  0  0  0  0  0  0  0  0
   21.4479   74.7044   -6.2400 H   0  0  0  0  0  0  0  0  0  0  0  0
   20.2897   71.6683   -8.7118 O   0  0  0  0  0  0  0  0  0  0  0  0
   15.9953   70.1338   -8.0431 O   0  0  0  0  0  0  0  0  0  0  0  0
   19.6331   71.1380   -6.5333 N   0  0  0  0  0  0  0  0  0  0  0  0
   18.1511   70.9048   -8.3760 N   0  0  0  0  0  0  0  0  0  0  0  0
   19.4278   71.2679   -7.9272 C   0  0  0  0  0  0  0  0  0  0  0  0
   18.6076   70.6761   -5.7172 C   0  0  0  0  0  0  0  0  0  0  0  0
   17.3961   70.3338   -6.1595 C   0  0  0  0  0  0  0  0  0  0  0  0
   17.0990   70.4409   -7.6030 C   0  0  0  0  0  0  0  0  0  0  0  0
   17.9837   70.9887   -9.3426 H   0  0  0  0  0  0  0  0  0  0  0  0
   21.7400   73.2136   -0.7791 O   0  0  0  0  0  0  0  0  0  0  0  0
   21.7860   74.4493    0.2624 P   0  0  2  0  0  0  0  0  0  0  0  0
   20.6570   74.0555    1.3535 O   0  0  0  0  0  0  0  0  0  0  0  0
   21.5906   75.7962   -0.3712 O   0  0  0  0  0  0  0  0  0  0  0  0
   23.1863   74.2739    1.0439 O   0  0  0  0  0  0  0  0  0  0  0  0
   23.1776   73.3156    3.2098 O   0  0  0  0  0  0  0  0  0  0  0  0
   26.9206   75.0592    3.0771 O   0  0  0  0  0  0  0  0  0  0  0  0
   24.5921   76.4684    2.0156 O   0  0  0  0  0  0  0  0  0  0  0  0
   26.6408   72.1802    2.7872 O   0  0  0  0  0  0  0  0  0  0  0  0
   25.7650   74.4116    2.5448 C   0  0  2  0  0  0  0  0  0  0  0  0
   24.5314   75.2794    2.7949 C   0  0  2  0  0  0  0  0  0  0  0  0
   25.6157   73.0595    3.2458 C   0  0  1  0  0  0  0  0  0  0  0  0
   23.2496   74.5211    2.4474 C   0  0  1  0  0  0  0  0  0  0  0  0
   24.2600   72.4249    2.9491 C   0  0  1  0  0  0  0  0  0  0  0  0
   27.0358   75.9209    2.6464 H   0  0  0  0  0  0  0  0  0  0  0  0
   25.4032   76.9544    2.2308 H   0  0  0  0  0  0  0  0  0  0  0  0
   27.5089   72.5724    2.9699 H   0  0  0  0  0  0  0  0  0  0  0  0
   22.6639   71.1857    4.1400 O   0  0  0  0  0  0  0  0  0  0  0  0
   24.8430   70.5471    4.3474 O   0  0  0  0  0  0  0  0  0  0  0  0
   23.9910   71.2883    3.8808 C   0  0  0  0  0  0  0  0  0  0  0  0
  1  4  1  0
  1 24  1  0
  1  2  1  6
  1  3  2  0
 25 28  1  0
 25 24  1  0
 25 26  1  1
 25 27  2  0
  6 11  1  0
  6 12  1  0
 29 36  1  0
 29 37  1  0
  9  7  1  6
  7 13  1  0
 10  8  1  6
  8 14  1  0
  4  5  1  0
 36 28  1  6
 33 30  1  1
 30 38  1  0
 34 31  1  6
 31 39  1  0
 35 32  1  6
 32 40  1  0
 41 43  1  0
 15 19  2  0
 42 43  2  0
 16 22  2  0
 12 17  1  1
 17 19  1  0
 17 20  1  0
 18 19  1  0
 18 22  1  0
 18 23  1  0
  9 10  1  0
  9 11  1  0
 10 12  1  0
 11  5  1  1
 33 34  1  0
 33 35  1  0
 34 36  1  0
 35 37  1  0
 37 43  1  1
 20 21  2  0
 21 22  1  0
M  CHG  3   2  -1  26  -1  41  -1
M  END
>  <COMPND>  (127) 
    udp_gluA.pdb 

>  <AUTHOR>  (127) 
    GENERATED BY OPEN BABEL 3.1.1

>  <MASTER>  (127) 
        0    0    0    0    0    0    0    0   56    0   56    0

>  <minimizedAffinity>  (127) 
-6.58090

>  <CNNscore>  (127) 
0.6137963533

>  <CNNaffinity>  (127) 
4.3045716286

>  <CNN_VS>  (127) 
2.6421303749

>  <CNNaffinity_variance>  (127) 
0.0715943500

$$$$
128
     RDKit          3D

 43 45  0  0  0  0  0  0  0  0999 V2000
   20.4598   71.2449   -1.1739 P   0  0  2  0  0  0  0  0  0  0  0  0
   21.9813   70.7613   -1.4383 O   0  0  0  0  0  0  0  0  0  0  0  0
   19.4638   70.1361   -0.9994 O   0  0  0  0  0  0  0  0  0  0  0  0
   20.1621   72.2720   -2.3881 O   0  0  0  0  0  0  0  0  0  0  0  0
   19.5404   71.7735   -3.5584 C   0  0  0  0  0  0  0  0  0  0  0  0
   20.1323   70.6798   -5.6154 O   0  0  0  0  0  0  0  0  0  0  0  0
   22.0353   72.9541   -6.0605 O   0  0  0  0  0  0  0  0  0  0  0  0
   19.9263   73.6210   -7.6553 O   0  0  0  0  0  0  0  0  0  0  0  0
   20.7399   72.9640   -5.4601 C   0  0  1  0  0  0  0  0  0  0  0  0
   19.6694   72.8197   -6.5210 C   0  0  2  0  0  0  0  0  0  0  0  0
   20.5794   71.6737   -4.6679 C   0  0  1  0  0  0  0  0  0  0  0  0
   19.7294   71.3333   -6.8294 C   0  0  2  0  0  0  0  0  0  0  0  0
   22.1611   73.7689   -6.5722 H   0  0  0  0  0  0  0  0  0  0  0  0
   19.8763   74.5580   -7.4072 H   0  0  0  0  0  0  0  0  0  0  0  0
   19.1042   70.5717   -9.4762 O   0  0  0  0  0  0  0  0  0  0  0  0
   14.8237   69.3298   -8.3018 O   0  0  0  0  0  0  0  0  0  0  0  0
   18.4591   70.8079   -7.2432 N   0  0  0  0  0  0  0  0  0  0  0  0
   16.9726   69.9549   -8.8890 N   0  0  0  0  0  0  0  0  0  0  0  0
   18.2480   70.4561   -8.5973 C   0  0  0  0  0  0  0  0  0  0  0  0
   17.4400   70.6441   -6.3128 C   0  0  0  0  0  0  0  0  0  0  0  0
   16.2295   70.1650   -6.6058 C   0  0  0  0  0  0  0  0  0  0  0  0
   15.9267   69.7744   -7.9984 C   0  0  0  0  0  0  0  0  0  0  0  0
   16.8012   69.7050   -9.8257 H   0  0  0  0  0  0  0  0  0  0  0  0
   20.6071   72.2248    0.1031 O   0  0  0  0  0  0  0  0  0  0  0  0
   20.1936   73.7746    0.3052 P   0  0  2  0  0  0  0  0  0  0  0  0
   20.7878   74.1282    1.7688 O   0  0  0  0  0  0  0  0  0  0  0  0
   18.7247   74.0449    0.1523 O   0  0  0  0  0  0  0  0  0  0  0  0
   21.1344   74.5867   -0.7234 O   0  0  0  0  0  0  0  0  0  0  0  0
   23.3156   73.7602   -1.1333 O   0  0  0  0  0  0  0  0  0  0  0  0
   23.5668   77.5901   -2.6619 O   0  0  0  0  0  0  0  0  0  0  0  0
   22.1894   77.0919   -0.1343 O   0  0  0  0  0  0  0  0  0  0  0  0
   23.3451   75.3142   -4.4569 O   0  0  0  0  0  0  0  0  0  0  0  0
   22.9242   76.3599   -2.3275 C   0  0  2  0  0  0  0  0  0  0  0  0
   22.9965   76.1390   -0.8164 C   0  0  2  0  0  0  0  0  0  0  0  0
   23.6487   75.2320   -3.0656 C   0  0  1  0  0  0  0  0  0  0  0  0
   22.5261   74.7317   -0.4462 C   0  0  1  0  0  0  0  0  0  0  0  0
   23.2157   73.8619   -2.5520 C   0  0  1  0  0  0  0  0  0  0  0  0
   23.1233   78.3216   -2.2042 H   0  0  0  0  0  0  0  0  0  0  0  0
   22.4822   77.9871   -0.3648 H   0  0  0  0  0  0  0  0  0  0  0  0
   23.6157   76.1816   -4.7962 H   0  0  0  0  0  0  0  0  0  0  0  0
   24.1428   72.7307   -4.3856 O   0  0  0  0  0  0  0  0  0  0  0  0
   24.8260   72.0816   -2.3093 O   0  0  0  0  0  0  0  0  0  0  0  0
   24.1476   72.7970   -3.0312 C   0  0  0  0  0  0  0  0  0  0  0  0
  1  4  1  0
  1 24  1  0
  1  2  1  6
  1  3  2  0
 25 28  1  0
 25 24  1  0
 25 26  1  1
 25 27  2  0
  6 11  1  0
  6 12  1  0
 29 36  1  0
 29 37  1  0
  9  7  1  6
  7 13  1  0
 10  8  1  6
  8 14  1  0
  4  5  1  0
 36 28  1  6
 33 30  1  1
 30 38  1  0
 34 31  1  1
 31 39  1  0
 35 32  1  6
 32 40  1  0
 41 43  1  0
 15 19  2  0
 42 43  2  0
 16 22  2  0
 12 17  1  1
 17 19  1  0
 17 20  1  0
 18 19  1  0
 18 22  1  0
 18 23  1  0
  9 10  1  0
  9 11  1  0
 10 12  1  0
 11  5  1  1
 33 34  1  0
 33 35  1  0
 34 36  1  0
 35 37  1  0
 37 43  1  6
 20 21  2  0
 21 22  1  0
M  CHG  3   2  -1  26  -1  41  -1
M  END
>  <COMPND>  (128) 
    udp_gluA.pdb 

>  <AUTHOR>  (128) 
    GENERATED BY OPEN BABEL 3.1.1

>  <MASTER>  (128) 
        0    0    0    0    0    0    0    0   56    0   56    0

>  <minimizedAffinity>  (128) 
-6.34218

>  <CNNscore>  (128) 
0.5220116973

>  <CNNaffinity>  (128) 
4.2899761200

>  <CNN_VS>  (128) 
2.2394177914

>  <CNNaffinity_variance>  (128) 
0.0611851625

$$$$
129
     RDKit          3D

 43 45  0  0  0  0  0  0  0  0999 V2000
   19.8909   73.6223   -1.3555 P   0  0  2  0  0  0  0  0  0  0  0  0
   18.6937   73.3994   -0.2897 O   0  0  0  0  0  0  0  0  0  0  0  0
   19.6746   74.7469   -2.3253 O   0  0  0  0  0  0  0  0  0  0  0  0
   20.1036   72.1591   -2.0126 O   0  0  0  0  0  0  0  0  0  0  0  0
   19.5733   71.9135   -3.3022 C   0  0  0  0  0  0  0  0  0  0  0  0
   20.2870   70.6145   -5.1945 O   0  0  0  0  0  0  0  0  0  0  0  0
   22.4550   72.6564   -5.5432 O   0  0  0  0  0  0  0  0  0  0  0  0
   20.6297   73.3975   -7.4287 O   0  0  0  0  0  0  0  0  0  0  0  0
   21.1059   72.8355   -5.1115 C   0  0  1  0  0  0  0  0  0  0  0  0
   20.1590   72.7133   -6.2864 C   0  0  2  0  0  0  0  0  0  0  0  0
   20.7199   71.6307   -4.2644 C   0  0  1  0  0  0  0  0  0  0  0  0
   20.1002   71.2088   -6.4888 C   0  0  2  0  0  0  0  0  0  0  0  0
   22.7243   73.4141   -6.0865 H   0  0  0  0  0  0  0  0  0  0  0  0
   20.6484   74.3512   -7.2495 H   0  0  0  0  0  0  0  0  0  0  0  0
   19.5356   70.9686   -9.2457 O   0  0  0  0  0  0  0  0  0  0  0  0
   15.2304   69.5414   -8.4259 O   0  0  0  0  0  0  0  0  0  0  0  0
   18.8399   70.7766   -7.0236 N   0  0  0  0  0  0  0  0  0  0  0  0
   17.3916   70.2590   -8.8348 N   0  0  0  0  0  0  0  0  0  0  0  0
   18.6598   70.6906   -8.4244 C   0  0  0  0  0  0  0  0  0  0  0  0
   17.8001   70.4421   -6.1646 C   0  0  0  0  0  0  0  0  0  0  0  0
   16.5968   70.0322   -6.5707 C   0  0  0  0  0  0  0  0  0  0  0  0
   16.3259   69.9158   -8.0186 C   0  0  0  0  0  0  0  0  0  0  0  0
   17.2416   70.1931   -9.8056 H   0  0  0  0  0  0  0  0  0  0  0  0
   21.1917   73.7889   -0.4106 O   0  0  0  0  0  0  0  0  0  0  0  0
   22.7453   74.0433   -0.7784 P   0  0  2  0  0  0  0  0  0  0  0  0
   22.8503   75.6573   -0.8440 O   0  0  0  0  0  0  0  0  0  0  0  0
   23.2060   73.3425   -2.0237 O   0  0  0  0  0  0  0  0  0  0  0  0
   23.5540   73.6366    0.5569 O   0  0  0  0  0  0  0  0  0  0  0  0
   25.5787   72.5245    1.0794 O   0  0  0  0  0  0  0  0  0  0  0  0
   22.9739   70.8608    3.8208 O   0  0  0  0  0  0  0  0  0  0  0  0
   22.1348   71.2974    1.0568 O   0  0  0  0  0  0  0  0  0  0  0  0
   24.9061   72.8596    4.6708 O   0  0  0  0  0  0  0  0  0  0  0  0
   23.4971   71.8859    2.9762 C   0  0  2  0  0  0  0  0  0  0  0  0
   23.4743   71.4125    1.5226 C   0  0  2  0  0  0  0  0  0  0  0  0
   24.9329   72.1765    3.4189 C   0  0  1  0  0  0  0  0  0  0  0  0
   24.2342   72.3843    0.6188 C   0  0  1  0  0  0  0  0  0  0  0  0
   25.6634   73.0493    2.4025 C   0  0  1  0  0  0  0  0  0  0  0  0
   22.0619   70.6593    3.5581 H   0  0  0  0  0  0  0  0  0  0  0  0
   21.6467   70.6824    1.6260 H   0  0  0  0  0  0  0  0  0  0  0  0
   24.4436   72.3148    5.3266 H   0  0  0  0  0  0  0  0  0  0  0  0
   27.4498   72.1540    3.6308 O   0  0  0  0  0  0  0  0  0  0  0  0
   27.9466   73.7675    2.0982 O   0  0  0  0  0  0  0  0  0  0  0  0
   27.1338   73.0548    2.6677 C   0  0  0  0  0  0  0  0  0  0  0  0
  1  4  1  0
  1 24  1  0
  1  2  1  1
  1  3  2  0
 25 28  1  0
 25 24  1  0
 25 26  1  6
 25 27  2  0
  6 11  1  0
  6 12  1  0
 29 36  1  0
 29 37  1  0
  9  7  1  6
  7 13  1  0
 10  8  1  6
  8 14  1  0
  4  5  1  0
 36 28  1  1
 33 30  1  1
 30 38  1  0
 34 31  1  6
 31 39  1  0
 35 32  1  1
 32 40  1  0
 41 43  1  0
 15 19  2  0
 42 43  2  0
 16 22  2  0
 12 17  1  1
 17 19  1  0
 17 20  1  0
 18 19  1  0
 18 22  1  0
 18 23  1  0
  9 10  1  0
  9 11  1  0
 10 12  1  0
 11  5  1  1
 33 34  1  0
 33 35  1  0
 34 36  1  0
 35 37  1  0
 37 43  1  1
 20 21  2  0
 21 22  1  0
M  CHG  3   2  -1  26  -1  41  -1
M  END
>  <COMPND>  (129) 
    udp_gluA.pdb 

>  <AUTHOR>  (129) 
    GENERATED BY OPEN BABEL 3.1.1

>  <MASTER>  (129) 
        0    0    0    0    0    0    0    0   56    0   56    0

>  <minimizedAffinity>  (129) 
-6.69952

>  <CNNscore>  (129) 
0.4980618954

>  <CNNaffinity>  (129) 
4.2085003853

>  <CNN_VS>  (129) 
2.0960936546

>  <CNNaffinity_variance>  (129) 
0.0262169689

$$$$
130
     RDKit          3D

 43 45  0  0  0  0  0  0  0  0999 V2000
   23.6865   71.2380    2.9512 P   0  0  2  0  0  0  0  0  0  0  0  0
   24.3289   70.8900    4.3952 O   0  0  0  0  0  0  0  0  0  0  0  0
   22.9247   70.1156    2.3096 O   0  0  0  0  0  0  0  0  0  0  0  0
   24.9349   71.8167    2.1000 O   0  0  0  0  0  0  0  0  0  0  0  0
   26.1063   72.2029    2.7952 C   0  0  0  0  0  0  0  0  0  0  0  0
   27.2260   74.0843    3.7871 O   0  0  0  0  0  0  0  0  0  0  0  0
   25.8928   75.7513    1.6811 O   0  0  0  0  0  0  0  0  0  0  0  0
   28.4194   75.4583    0.6981 O   0  0  0  0  0  0  0  0  0  0  0  0
   26.4083   74.4229    1.5900 C   0  0  1  0  0  0  0  0  0  0  0  0
   27.9216   74.4494    1.5519 C   0  0  2  0  0  0  0  0  0  0  0  0
   26.1351   73.7213    2.9134 C   0  0  1  0  0  0  0  0  0  0  0  0
   28.2696   74.6934    3.0104 C   0  0  2  0  0  0  0  0  0  0  0  0
   26.0556   76.2196    0.8469 H   0  0  0  0  0  0  0  0  0  0  0  0
   28.1719   75.2572   -0.2186 H   0  0  0  0  0  0  0  0  0  0  0  0
   30.7661   75.9890    2.7553 O   0  0  0  0  0  0  0  0  0  0  0  0
   33.0324   72.3534    4.4554 O   0  0  0  0  0  0  0  0  0  0  0  0
   29.5278   74.1085    3.3788 N   0  0  0  0  0  0  0  0  0  0  0  0
   31.8925   74.1767    3.6013 N   0  0  0  0  0  0  0  0  0  0  0  0
   30.7245   74.8444    3.2102 C   0  0  0  0  0  0  0  0  0  0  0  0
   29.5679   72.8217    3.9017 C   0  0  0  0  0  0  0  0  0  0  0  0
   30.6889   72.1985    4.2701 C   0  0  0  0  0  0  0  0  0  0  0  0
   31.9828   72.8974    4.1257 C   0  0  0  0  0  0  0  0  0  0  0  0
   32.7386   74.6681    3.4914 H   0  0  0  0  0  0  0  0  0  0  0  0
   22.8087   72.5611    3.2539 O   0  0  0  0  0  0  0  0  0  0  0  0
   22.0013   73.5493    2.2612 P   0  0  2  0  0  0  0  0  0  0  0  0
   22.9819   74.8313    2.1376 O   0  0  0  0  0  0  0  0  0  0  0  0
   20.6090   73.8773    2.7172 O   0  0  0  0  0  0  0  0  0  0  0  0
   22.0819   72.8342    0.8174 O   0  0  0  0  0  0  0  0  0  0  0  0
   23.2706   73.3650   -1.1611 O   0  0  0  0  0  0  0  0  0  0  0  0
   19.7396   71.8529   -2.6820 O   0  0  0  0  0  0  0  0  0  0  0  0
   19.7102   73.6542   -0.3822 O   0  0  0  0  0  0  0  0  0  0  0  0
   22.1600   70.2437   -2.7378 O   0  0  0  0  0  0  0  0  0  0  0  0
   20.8087   71.9730   -1.7436 C   0  0  2  0  0  0  0  0  0  0  0  0
   20.8501   73.3994   -1.1949 C   0  0  2  0  0  0  0  0  0  0  0  0
   22.1148   71.6439   -2.4700 C   0  0  1  0  0  0  0  0  0  0  0  0
   22.1144   73.6302   -0.3659 C   0  0  1  0  0  0  0  0  0  0  0  0
   23.3305   72.0189   -1.6275 C   0  0  1  0  0  0  0  0  0  0  0  0
   18.8990   72.0575   -2.2428 H   0  0  0  0  0  0  0  0  0  0  0  0
   18.9044   73.5094   -0.9018 H   0  0  0  0  0  0  0  0  0  0  0  0
   21.3914   69.9919   -3.2733 H   0  0  0  0  0  0  0  0  0  0  0  0
   25.6719   72.1505   -1.6726 O   0  0  0  0  0  0  0  0  0  0  0  0
   24.6067   71.8799   -3.6704 O   0  0  0  0  0  0  0  0  0  0  0  0
   24.5742   72.0058   -2.4554 C   0  0  0  0  0  0  0  0  0  0  0  0
  1  4  1  0
  1 24  1  0
  1  2  1  1
  1  3  2  0
 25 28  1  0
 25 24  1  0
 25 26  1  6
 25 27  2  0
  6 11  1  0
  6 12  1  0
 29 36  1  0
 29 37  1  0
  9  7  1  1
  7 13  1  0
 10  8  1  6
  8 14  1  0
  4  5  1  0
 36 28  1  1
 33 30  1  6
 30 38  1  0
 34 31  1  1
 31 39  1  0
 35 32  1  1
 32 40  1  0
 41 43  1  0
 15 19  2  0
 42 43  2  0
 16 22  2  0
 12 17  1  1
 17 19  1  0
 17 20  1  0
 18 19  1  0
 18 22  1  0
 18 23  1  0
  9 10  1  0
  9 11  1  0
 10 12  1  0
 11  5  1  6
 33 34  1  0
 33 35  1  0
 34 36  1  0
 35 37  1  0
 37 43  1  6
 20 21  2  0
 21 22  1  0
M  CHG  3   2  -1  26  -1  41  -1
M  END
>  <COMPND>  (130) 
    udp_gluA.pdb 

>  <AUTHOR>  (130) 
    GENERATED BY OPEN BABEL 3.1.1

>  <MASTER>  (130) 
        0    0    0    0    0    0    0    0   56    0   56    0

>  <minimizedAffinity>  (130) 
-5.89047

>  <CNNscore>  (130) 
0.4896872938

>  <CNNaffinity>  (130) 
4.0105481148

>  <CNN_VS>  (130) 
1.9639143944

>  <CNNaffinity_variance>  (130) 
0.4460325837

$$$$
131
     RDKit          3D

 43 45  0  0  0  0  0  0  0  0999 V2000
   20.3298   74.9271   -3.5299 P   0  0  2  0  0  0  0  0  0  0  0  0
   21.5966   75.7628   -2.9681 O   0  0  0  0  0  0  0  0  0  0  0  0
   19.7700   75.4233   -4.8307 O   0  0  0  0  0  0  0  0  0  0  0  0
   19.2973   74.9026   -2.2844 O   0  0  0  0  0  0  0  0  0  0  0  0
   19.5618   75.7354   -1.1704 C   0  0  0  0  0  0  0  0  0  0  0  0
   20.0006   73.5967   -0.1649 O   0  0  0  0  0  0  0  0  0  0  0  0
   19.7123   74.9874    2.4760 O   0  0  0  0  0  0  0  0  0  0  0  0
   22.4181   74.8005    2.1932 O   0  0  0  0  0  0  0  0  0  0  0  0
   20.2766   75.4710    1.2569 C   0  0  1  0  0  0  0  0  0  0  0  0
   21.6324   74.8401    1.0203 C   0  0  2  0  0  0  0  0  0  0  0  0
   19.4574   74.9074    0.1039 C   0  0  1  0  0  0  0  0  0  0  0  0
   21.2535   73.4554    0.5233 C   0  0  2  0  0  0  0  0  0  0  0  0
   20.2192   75.3343    3.2273 H   0  0  0  0  0  0  0  0  0  0  0  0
   22.6331   75.7059    2.4690 H   0  0  0  0  0  0  0  0  0  0  0  0
   21.2903   70.7727   -0.3591 O   0  0  0  0  0  0  0  0  0  0  0  0
   25.0310   71.4867   -2.9555 O   0  0  0  0  0  0  0  0  0  0  0  0
   22.2258   72.9135   -0.3833 N   0  0  0  0  0  0  0  0  0  0  0  0
   23.1540   71.1306   -1.6506 N   0  0  0  0  0  0  0  0  0  0  0  0
   22.1550   71.5524   -0.7633 C   0  0  0  0  0  0  0  0  0  0  0  0
   23.2333   73.7270   -0.8872 C   0  0  0  0  0  0  0  0  0  0  0  0
   24.1784   73.3107   -1.7324 C   0  0  0  0  0  0  0  0  0  0  0  0
   24.1767   71.9020   -2.1784 C   0  0  0  0  0  0  0  0  0  0  0  0
   23.1266   70.1864   -1.9279 H   0  0  0  0  0  0  0  0  0  0  0  0
   20.8855   73.4097   -3.5711 O   0  0  0  0  0  0  0  0  0  0  0  0
   21.2493   72.4461   -4.8172 P   0  0  2  0  0  0  0  0  0  0  0  0
   21.4085   70.9913   -4.1255 O   0  0  0  0  0  0  0  0  0  0  0  0
   22.4455   72.8886   -5.6091 O   0  0  0  0  0  0  0  0  0  0  0  0
   19.8828   72.3447   -5.6687 O   0  0  0  0  0  0  0  0  0  0  0  0
   18.5431   70.3946   -5.7748 O   0  0  0  0  0  0  0  0  0  0  0  0
   17.4410   72.3611   -9.2369 O   0  0  0  0  0  0  0  0  0  0  0  0
   20.2451   72.2513   -8.4248 O   0  0  0  0  0  0  0  0  0  0  0  0
   15.6688   72.3592   -6.9326 O   0  0  0  0  0  0  0  0  0  0  0  0
   17.8802   72.2533   -7.8829 C   0  0  2  0  0  0  0  0  0  0  0  0
   19.2016   71.4859   -7.8330 C   0  0  2  0  0  0  0  0  0  0  0  0
   16.8017   71.5078   -7.0937 C   0  0  1  0  0  0  0  0  0  0  0  0
   19.5858   71.1511   -6.3911 C   0  0  1  0  0  0  0  0  0  0  0  0
   17.3048   71.0986   -5.7124 C   0  0  1  0  0  0  0  0  0  0  0  0
   18.1107   72.8315   -9.7579 H   0  0  0  0  0  0  0  0  0  0  0  0
   20.0078   72.4675   -9.3399 H   0  0  0  0  0  0  0  0  0  0  0  0
   15.3389   72.6270   -7.8045 H   0  0  0  0  0  0  0  0  0  0  0  0
   15.7656   69.3586   -6.0363 O   0  0  0  0  0  0  0  0  0  0  0  0
   16.2080   69.9689   -3.8843 O   0  0  0  0  0  0  0  0  0  0  0  0
   16.3838   70.1027   -5.0860 C   0  0  0  0  0  0  0  0  0  0  0  0
  1  4  1  0
  1 24  1  0
  1  2  1  1
  1  3  2  0
 25 28  1  0
 25 24  1  0
 25 26  1  1
 25 27  2  0
  6 11  1  0
  6 12  1  0
 29 36  1  0
 29 37  1  0
  9  7  1  1
  7 13  1  0
 10  8  1  1
  8 14  1  0
  4  5  1  0
 36 28  1  1
 33 30  1  6
 30 38  1  0
 34 31  1  1
 31 39  1  0
 35 32  1  1
 32 40  1  0
 41 43  1  0
 15 19  2  0
 42 43  2  0
 16 22  2  0
 12 17  1  6
 17 19  1  0
 17 20  1  0
 18 19  1  0
 18 22  1  0
 18 23  1  0
  9 10  1  0
  9 11  1  0
 10 12  1  0
 11  5  1  6
 33 34  1  0
 33 35  1  0
 34 36  1  0
 35 37  1  0
 37 43  1  6
 20 21  2  0
 21 22  1  0
M  CHG  3   2  -1  26  -1  41  -1
M  END
>  <COMPND>  (131) 
    udp_gluA.pdb 

>  <AUTHOR>  (131) 
    GENERATED BY OPEN BABEL 3.1.1

>  <MASTER>  (131) 
        0    0    0    0    0    0    0    0   56    0   56    0

>  <minimizedAffinity>  (131) 
-5.82258

>  <CNNscore>  (131) 
0.4737216234

>  <CNNaffinity>  (131) 
4.1471157074

>  <CNN_VS>  (131) 
1.9645783901

>  <CNNaffinity_variance>  (131) 
0.2896155715

$$$$
132
     RDKit          3D

 43 45  0  0  0  0  0  0  0  0999 V2000
   20.8153   74.6052   -5.2118 P   0  0  2  0  0  0  0  0  0  0  0  0
   19.7534   75.4271   -6.1151 O   0  0  0  0  0  0  0  0  0  0  0  0
   21.6946   73.6571   -5.9732 O   0  0  0  0  0  0  0  0  0  0  0  0
   19.9053   73.9408   -4.0506 O   0  0  0  0  0  0  0  0  0  0  0  0
   18.5100   73.8316   -4.2644 C   0  0  0  0  0  0  0  0  0  0  0  0
   17.4768   71.7563   -4.8993 O   0  0  0  0  0  0  0  0  0  0  0  0
   18.6024   70.6328   -2.3572 O   0  0  0  0  0  0  0  0  0  0  0  0
   20.3474   69.7122   -4.2396 O   0  0  0  0  0  0  0  0  0  0  0  0
   19.1681   71.5937   -3.2489 C   0  0  1  0  0  0  0  0  0  0  0  0
   19.6569   70.9140   -4.5104 C   0  0  2  0  0  0  0  0  0  0  0  0
   18.0384   72.4682   -3.7754 C   0  0  1  0  0  0  0  0  0  0  0  0
   18.3602   70.6854   -5.2681 C   0  0  2  0  0  0  0  0  0  0  0  0
   19.3054   70.0623   -2.0078 H   0  0  0  0  0  0  0  0  0  0  0  0
   21.1654   69.9111   -3.7565 H   0  0  0  0  0  0  0  0  0  0  0  0
   16.5284   69.6111   -7.1302 O   0  0  0  0  0  0  0  0  0  0  0  0
   19.1793   70.8097  -10.7052 O   0  0  0  0  0  0  0  0  0  0  0  0
   18.5467   70.7032   -6.6914 N   0  0  0  0  0  0  0  0  0  0  0  0
   17.8509   70.2082   -8.9089 N   0  0  0  0  0  0  0  0  0  0  0  0
   17.5658   70.1362   -7.5390 C   0  0  0  0  0  0  0  0  0  0  0  0
   19.6892   71.2786   -7.2340 C   0  0  0  0  0  0  0  0  0  0  0  0
   19.9471   71.3398   -8.5419 C   0  0  0  0  0  0  0  0  0  0  0  0
   18.9733   70.7697   -9.4959 C   0  0  0  0  0  0  0  0  0  0  0  0
   17.1836   69.8183   -9.5188 H   0  0  0  0  0  0  0  0  0  0  0  0
   21.6073   75.7759   -4.4277 O   0  0  0  0  0  0  0  0  0  0  0  0
   22.9172   75.7215   -3.4816 P   0  0  2  0  0  0  0  0  0  0  0  0
   22.7332   77.0112   -2.5207 O   0  0  0  0  0  0  0  0  0  0  0  0
   24.2175   75.6894   -4.2314 O   0  0  0  0  0  0  0  0  0  0  0  0
   22.6709   74.4544   -2.5140 O   0  0  0  0  0  0  0  0  0  0  0  0
   23.7391   73.4897   -0.6332 O   0  0  0  0  0  0  0  0  0  0  0  0
   22.8422   70.1508   -2.8949 O   0  0  0  0  0  0  0  0  0  0  0  0
   23.8725   72.5694   -4.1690 O   0  0  0  0  0  0  0  0  0  0  0  0
   21.2623   70.7844   -0.5383 O   0  0  0  0  0  0  0  0  0  0  0  0
   22.6485   71.4704   -2.3857 C   0  0  2  0  0  0  0  0  0  0  0  0
   23.8437   72.3455   -2.7641 C   0  0  2  0  0  0  0  0  0  0  0  0
   22.5189   71.3757   -0.8638 C   0  0  1  0  0  0  0  0  0  0  0  0
   23.7834   73.6943   -2.0459 C   0  0  1  0  0  0  0  0  0  0  0  0
   22.5933   72.7532   -0.2116 C   0  0  1  0  0  0  0  0  0  0  0  0
   22.9273   70.1860   -3.8608 H   0  0  0  0  0  0  0  0  0  0  0  0
   23.9105   71.7177   -4.6311 H   0  0  0  0  0  0  0  0  0  0  0  0
   21.2021   69.9071   -0.9476 H   0  0  0  0  0  0  0  0  0  0  0  0
   23.5669   73.6474    1.7260 O   0  0  0  0  0  0  0  0  0  0  0  0
   22.3351   71.7434    1.9644 O   0  0  0  0  0  0  0  0  0  0  0  0
   22.7970   72.6314    1.2635 C   0  0  0  0  0  0  0  0  0  0  0  0
  1  4  1  0
  1 24  1  0
  1  2  1  6
  1  3  2  0
 25 28  1  0
 25 24  1  0
 25 26  1  1
 25 27  2  0
  6 11  1  0
  6 12  1  0
 29 36  1  0
 29 37  1  0
  9  7  1  1
  7 13  1  0
 10  8  1  1
  8 14  1  0
  4  5  1  0
 36 28  1  6
 33 30  1  1
 30 38  1  0
 34 31  1  6
 31 39  1  0
 35 32  1  6
 32 40  1  0
 41 43  1  0
 15 19  2  0
 42 43  2  0
 16 22  2  0
 12 17  1  6
 17 19  1  0
 17 20  1  0
 18 19  1  0
 18 22  1  0
 18 23  1  0
  9 10  1  0
  9 11  1  0
 10 12  1  0
 11  5  1  6
 33 34  1  0
 33 35  1  0
 34 36  1  0
 35 37  1  0
 37 43  1  1
 20 21  2  0
 21 22  1  0
M  CHG  3   2  -1  26  -1  41  -1
M  END
>  <COMPND>  (132) 
    udp_gluA.pdb 

>  <AUTHOR>  (132) 
    GENERATED BY OPEN BABEL 3.1.1

>  <MASTER>  (132) 
        0    0    0    0    0    0    0    0   56    0   56    0

>  <minimizedAffinity>  (132) 
-6.81421

>  <CNNscore>  (132) 
0.4461131990

>  <CNNaffinity>  (132) 
4.2861900330

>  <CNN_VS>  (132) 
1.9121259451

>  <CNNaffinity_variance>  (132) 
0.1451814622

$$$$
133
     RDKit          3D

 43 45  0  0  0  0  0  0  0  0999 V2000
   22.6633   73.2700   -4.1334 P   0  0  2  0  0  0  0  0  0  0  0  0
   22.4408   74.6960   -3.4013 O   0  0  0  0  0  0  0  0  0  0  0  0
   24.0970   72.8994   -4.3763 O   0  0  0  0  0  0  0  0  0  0  0  0
   21.7278   73.3594   -5.4506 O   0  0  0  0  0  0  0  0  0  0  0  0
   20.4590   72.7319   -5.4225 C   0  0  0  0  0  0  0  0  0  0  0  0
   19.2411   70.7973   -6.1653 O   0  0  0  0  0  0  0  0  0  0  0  0
   21.6412   70.1623   -7.8469 O   0  0  0  0  0  0  0  0  0  0  0  0
   19.9223   71.2649   -9.6541 O   0  0  0  0  0  0  0  0  0  0  0  0
   21.0768   71.4326   -7.5207 C   0  0  1  0  0  0  0  0  0  0  0  0
   19.7993   71.6548   -8.3023 C   0  0  2  0  0  0  0  0  0  0  0  0
   20.5663   71.3658   -6.0879 C   0  0  1  0  0  0  0  0  0  0  0  0
   18.8069   70.7983   -7.5345 C   0  0  2  0  0  0  0  0  0  0  0  0
   21.9743   70.1805   -8.7581 H   0  0  0  0  0  0  0  0  0  0  0  0
   20.5648   71.8402  -10.0993 H   0  0  0  0  0  0  0  0  0  0  0  0
   16.5740   69.3385   -8.4617 O   0  0  0  0  0  0  0  0  0  0  0  0
   13.7242   72.8888   -7.7417 O   0  0  0  0  0  0  0  0  0  0  0  0
   17.4699   71.3168   -7.6001 N   0  0  0  0  0  0  0  0  0  0  0  0
   15.1569   71.1085   -8.1032 N   0  0  0  0  0  0  0  0  0  0  0  0
   16.4192   70.5007   -8.0819 C   0  0  0  0  0  0  0  0  0  0  0  0
   17.2098   72.6183   -7.1886 C   0  0  0  0  0  0  0  0  0  0  0  0
   16.0013   73.1837   -7.2146 C   0  0  0  0  0  0  0  0  0  0  0  0
   14.8490   72.3993   -7.7051 C   0  0  0  0  0  0  0  0  0  0  0  0
   14.4099   70.5606   -8.4366 H   0  0  0  0  0  0  0  0  0  0  0  0
   21.8543   72.2436   -3.1822 O   0  0  0  0  0  0  0  0  0  0  0  0
   22.3418   71.3554   -1.9223 P   0  0  2  0  0  0  0  0  0  0  0  0
   23.2230   70.1863   -2.6129 O   0  0  0  0  0  0  0  0  0  0  0  0
   21.2250   70.8559   -1.0521 O   0  0  0  0  0  0  0  0  0  0  0  0
   23.4204   72.2824   -1.1609 O   0  0  0  0  0  0  0  0  0  0  0  0
   22.9578   72.2059    1.1606 O   0  0  0  0  0  0  0  0  0  0  0  0
   26.1959   74.7684    1.0326 O   0  0  0  0  0  0  0  0  0  0  0  0
   24.0601   74.9810   -0.9491 O   0  0  0  0  0  0  0  0  0  0  0  0
   26.5407   72.0248    1.9299 O   0  0  0  0  0  0  0  0  0  0  0  0
   25.3825   73.6741    0.6096 C   0  0  2  0  0  0  0  0  0  0  0  0
   23.9930   74.1864    0.2294 C   0  0  2  0  0  0  0  0  0  0  0  0
   25.2846   72.6813    1.7700 C   0  0  1  0  0  0  0  0  0  0  0  0
   23.0275   73.0243   -0.0077 C   0  0  1  0  0  0  0  0  0  0  0  0
   24.2124   71.6266    1.5118 C   0  0  1  0  0  0  0  0  0  0  0  0
   26.2724   75.4125    0.3112 H   0  0  0  0  0  0  0  0  0  0  0  0
   24.6712   75.7201   -0.8059 H   0  0  0  0  0  0  0  0  0  0  0  0
   27.2320   72.6851    2.0947 H   0  0  0  0  0  0  0  0  0  0  0  0
   22.7707   70.1343    2.6055 O   0  0  0  0  0  0  0  0  0  0  0  0
   24.5559   70.9133    3.7910 O   0  0  0  0  0  0  0  0  0  0  0  0
   23.8960   70.8745    2.7634 C   0  0  0  0  0  0  0  0  0  0  0  0
  1  4  1  0
  1 24  1  0
  1  2  1  1
  1  3  2  0
 25 28  1  0
 25 24  1  0
 25 26  1  6
 25 27  2  0
  6 11  1  0
  6 12  1  0
 29 36  1  0
 29 37  1  0
  9  7  1  6
  7 13  1  0
 10  8  1  6
  8 14  1  0
  4  5  1  0
 36 28  1  6
 33 30  1  1
 30 38  1  0
 34 31  1  6
 31 39  1  0
 35 32  1  6
 32 40  1  0
 41 43  1  0
 15 19  2  0
 42 43  2  0
 16 22  2  0
 12 17  1  1
 17 19  1  0
 17 20  1  0
 18 19  1  0
 18 22  1  0
 18 23  1  0
  9 10  1  0
  9 11  1  0
 10 12  1  0
 11  5  1  6
 33 34  1  0
 33 35  1  0
 34 36  1  0
 35 37  1  0
 37 43  1  1
 20 21  2  0
 21 22  1  0
M  CHG  3   2  -1  26  -1  41  -1
M  END
>  <COMPND>  (133) 
    udp_gluA.pdb 

>  <AUTHOR>  (133) 
    GENERATED BY OPEN BABEL 3.1.1

>  <MASTER>  (133) 
        0    0    0    0    0    0    0    0   56    0   56    0

>  <minimizedAffinity>  (133) 
-7.61816

>  <CNNscore>  (133) 
0.4235411584

>  <CNNaffinity>  (133) 
4.3183822632

>  <CNN_VS>  (133) 
1.8290126324

>  <CNNaffinity_variance>  (133) 
0.0119170789

$$$$
134
     RDKit          3D

 43 45  0  0  0  0  0  0  0  0999 V2000
   17.7929   72.6542   -2.2316 P   0  0  2  0  0  0  0  0  0  0  0  0
   18.4878   73.9318   -1.5218 O   0  0  0  0  0  0  0  0  0  0  0  0
   16.5458   72.9611   -3.0077 O   0  0  0  0  0  0  0  0  0  0  0  0
   17.6267   71.5845   -1.0291 O   0  0  0  0  0  0  0  0  0  0  0  0
   16.3239   71.1475   -0.6881 C   0  0  0  0  0  0  0  0  0  0  0  0
   15.7129   68.8385   -0.4179 O   0  0  0  0  0  0  0  0  0  0  0  0
   14.9650   68.8895   -3.3212 O   0  0  0  0  0  0  0  0  0  0  0  0
   12.5475   69.1105   -2.0792 O   0  0  0  0  0  0  0  0  0  0  0  0
   14.8285   69.9127   -2.3348 C   0  0  1  0  0  0  0  0  0  0  0  0
   13.6878   69.5856   -1.3947 C   0  0  2  0  0  0  0  0  0  0  0  0
   16.0355   69.8373   -1.4097 C   0  0  1  0  0  0  0  0  0  0  0  0
   14.3119   68.5314   -0.4963 C   0  0  2  0  0  0  0  0  0  0  0  0
   14.2052   68.9178   -3.9242 H   0  0  0  0  0  0  0  0  0  0  0  0
   12.1871   69.8182   -2.6371 H   0  0  0  0  0  0  0  0  0  0  0  0
   13.5526   66.2163    0.9321 O   0  0  0  0  0  0  0  0  0  0  0  0
   12.1933   68.6890    4.5766 O   0  0  0  0  0  0  0  0  0  0  0  0
   13.7569   68.5414    0.8276 N   0  0  0  0  0  0  0  0  0  0  0  0
   12.8754   67.4501    2.7455 N   0  0  0  0  0  0  0  0  0  0  0  0
   13.4087   67.3225    1.4562 C   0  0  0  0  0  0  0  0  0  0  0  0
   13.5642   69.7477    1.4898 C   0  0  0  0  0  0  0  0  0  0  0  0
   13.0548   69.8535    2.7187 C   0  0  0  0  0  0  0  0  0  0  0  0
   12.6643   68.6273    3.4450 C   0  0  0  0  0  0  0  0  0  0  0  0
   12.6235   66.6152    3.2026 H   0  0  0  0  0  0  0  0  0  0  0  0
   18.9963   72.0285   -3.1108 O   0  0  0  0  0  0  0  0  0  0  0  0
   18.9725   71.1040   -4.4369 P   0  0  2  0  0  0  0  0  0  0  0  0
   17.7085   70.1253   -4.1828 O   0  0  0  0  0  0  0  0  0  0  0  0
   20.2633   70.3884   -4.7120 O   0  0  0  0  0  0  0  0  0  0  0  0
   18.4908   72.0932   -5.6168 O   0  0  0  0  0  0  0  0  0  0  0  0
   17.8070   70.6038   -7.3265 O   0  0  0  0  0  0  0  0  0  0  0  0
   16.6291   74.2513   -8.8682 O   0  0  0  0  0  0  0  0  0  0  0  0
   19.2141   73.9717   -7.5362 O   0  0  0  0  0  0  0  0  0  0  0  0
   14.6557   72.4359   -7.7453 O   0  0  0  0  0  0  0  0  0  0  0  0
   16.9036   73.2976   -7.8419 C   0  0  2  0  0  0  0  0  0  0  0  0
   18.3742   72.8847   -7.9072 C   0  0  2  0  0  0  0  0  0  0  0  0
   15.9994   72.0842   -8.0698 C   0  0  1  0  0  0  0  0  0  0  0  0
   18.6519   71.7014   -6.9789 C   0  0  1  0  0  0  0  0  0  0  0  0
   16.4193   70.9049   -7.1972 C   0  0  1  0  0  0  0  0  0  0  0  0
   17.1924   75.0314   -8.7440 H   0  0  0  0  0  0  0  0  0  0  0  0
   19.0430   74.7261   -8.1209 H   0  0  0  0  0  0  0  0  0  0  0  0
   14.3762   73.1855   -8.2937 H   0  0  0  0  0  0  0  0  0  0  0  0
   16.2200   68.5807   -6.9520 O   0  0  0  0  0  0  0  0  0  0  0  0
   14.9162   69.5750   -8.5365 O   0  0  0  0  0  0  0  0  0  0  0  0
   15.7587   69.6451   -7.6542 C   0  0  0  0  0  0  0  0  0  0  0  0
  1  4  1  0
  1 24  1  0
  1  2  1  1
  1  3  2  0
 25 28  1  0
 25 24  1  0
 25 26  1  1
 25 27  2  0
  6 11  1  0
  6 12  1  0
 29 36  1  0
 29 37  1  0
  9  7  1  6
  7 13  1  0
 10  8  1  6
  8 14  1  0
  4  5  1  0
 36 28  1  1
 33 30  1  6
 30 38  1  0
 34 31  1  1
 31 39  1  0
 35 32  1  1
 32 40  1  0
 41 43  1  0
 15 19  2  0
 42 43  2  0
 16 22  2  0
 12 17  1  1
 17 19  1  0
 17 20  1  0
 18 19  1  0
 18 22  1  0
 18 23  1  0
  9 10  1  0
  9 11  1  0
 10 12  1  0
 11  5  1  1
 33 34  1  0
 33 35  1  0
 34 36  1  0
 35 37  1  0
 37 43  1  6
 20 21  2  0
 21 22  1  0
M  CHG  3   2  -1  26  -1  41  -1
M  END
>  <COMPND>  (134) 
    udp_gluA.pdb 

>  <AUTHOR>  (134) 
    GENERATED BY OPEN BABEL 3.1.1

>  <MASTER>  (134) 
        0    0    0    0    0    0    0    0   56    0   56    0

>  <minimizedAffinity>  (134) 
-6.42325

>  <CNNscore>  (134) 
0.4158484638

>  <CNNaffinity>  (134) 
4.0828680992

>  <CNN_VS>  (134) 
1.6978543997

>  <CNNaffinity_variance>  (134) 
0.1171853766

$$$$
135
     RDKit          3D

 43 45  0  0  0  0  0  0  0  0999 V2000
   22.8383   73.9395   -3.9317 P   0  0  2  0  0  0  0  0  0  0  0  0
   24.1461   73.0590   -4.2967 O   0  0  0  0  0  0  0  0  0  0  0  0
   22.8054   75.3091   -4.5441 O   0  0  0  0  0  0  0  0  0  0  0  0
   22.7759   73.8908   -2.3156 O   0  0  0  0  0  0  0  0  0  0  0  0
   23.4083   72.8152   -1.6467 C   0  0  0  0  0  0  0  0  0  0  0  0
   23.0377   71.2724    0.1589 O   0  0  0  0  0  0  0  0  0  0  0  0
   20.1750   72.1618    0.0844 O   0  0  0  0  0  0  0  0  0  0  0  0
   21.1771   73.5560    2.2029 O   0  0  0  0  0  0  0  0  0  0  0  0
   21.3633   72.9216   -0.1370 C   0  0  1  0  0  0  0  0  0  0  0  0
   22.0713   73.1818    1.1758 C   0  0  2  0  0  0  0  0  0  0  0  0
   22.3608   72.0318   -0.8660 C   0  0  1  0  0  0  0  0  0  0  0  0
   22.7421   71.8451    1.4427 C   0  0  2  0  0  0  0  0  0  0  0  0
   19.5225   72.7095    0.5491 H   0  0  0  0  0  0  0  0  0  0  0  0
   20.7764   74.4130    1.9864 H   0  0  0  0  0  0  0  0  0  0  0  0
   23.0892   70.9985    4.1146 O   0  0  0  0  0  0  0  0  0  0  0  0
   27.4711   72.4258    4.1898 O   0  0  0  0  0  0  0  0  0  0  0  0
   23.9632   71.9833    2.1846 N   0  0  0  0  0  0  0  0  0  0  0  0
   25.2710   71.7111    4.1498 N   0  0  0  0  0  0  0  0  0  0  0  0
   24.0325   71.5252    3.5216 C   0  0  0  0  0  0  0  0  0  0  0  0
   25.0753   72.5650    1.5880 C   0  0  0  0  0  0  0  0  0  0  0  0
   26.2491   72.7352    2.1996 C   0  0  0  0  0  0  0  0  0  0  0  0
   26.4051   72.2847    3.5982 C   0  0  0  0  0  0  0  0  0  0  0  0
   25.3428   71.4020    5.0818 H   0  0  0  0  0  0  0  0  0  0  0  0
   21.6175   72.9757   -4.3717 O   0  0  0  0  0  0  0  0  0  0  0  0
   20.0367   73.0465   -4.0404 P   0  0  2  0  0  0  0  0  0  0  0  0
   19.7436   74.6371   -3.9745 O   0  0  0  0  0  0  0  0  0  0  0  0
   19.6315   72.2914   -2.8077 O   0  0  0  0  0  0  0  0  0  0  0  0
   19.3122   72.5548   -5.3952 O   0  0  0  0  0  0  0  0  0  0  0  0
   18.2445   70.5429   -6.0445 O   0  0  0  0  0  0  0  0  0  0  0  0
   20.2077   71.6120   -9.5189 O   0  0  0  0  0  0  0  0  0  0  0  0
   21.5317   71.8770   -6.9283 O   0  0  0  0  0  0  0  0  0  0  0  0
   17.3361   72.0006   -9.2868 O   0  0  0  0  0  0  0  0  0  0  0  0
   19.5222   71.8377   -8.2871 C   0  0  2  0  0  0  0  0  0  0  0  0
   20.3025   71.1926   -7.1415 C   0  0  2  0  0  0  0  0  0  0  0  0
   18.1293   71.2141   -8.3999 C   0  0  1  0  0  0  0  0  0  0  0  0
   19.4898   71.2132   -5.8462 C   0  0  1  0  0  0  0  0  0  0  0  0
   17.4330   71.1570   -7.0432 C   0  0  1  0  0  0  0  0  0  0  0  0
   21.0957   71.9997   -9.4707 H   0  0  0  0  0  0  0  0  0  0  0  0
   22.0524   71.8680   -7.7463 H   0  0  0  0  0  0  0  0  0  0  0  0
   17.7683   72.0451  -10.1540 H   0  0  0  0  0  0  0  0  0  0  0  0
   15.1996   70.8909   -7.7085 O   0  0  0  0  0  0  0  0  0  0  0  0
   16.1897   69.1252   -6.6592 O   0  0  0  0  0  0  0  0  0  0  0  0
   16.2361   70.2645   -7.0985 C   0  0  0  0  0  0  0  0  0  0  0  0
  1  4  1  0
  1 24  1  0
  1  2  1  1
  1  3  2  0
 25 28  1  0
 25 24  1  0
 25 26  1  1
 25 27  2  0
  6 11  1  0
  6 12  1  0
 29 36  1  0
 29 37  1  0
  9  7  1  1
  7 13  1  0
 10  8  1  1
  8 14  1  0
  4  5  1  0
 36 28  1  6
 33 30  1  6
 30 38  1  0
 34 31  1  1
 31 39  1  0
 35 32  1  6
 32 40  1  0
 41 43  1  0
 15 19  2  0
 42 43  2  0
 16 22  2  0
 12 17  1  1
 17 19  1  0
 17 20  1  0
 18 19  1  0
 18 22  1  0
 18 23  1  0
  9 10  1  0
  9 11  1  0
 10 12  1  0
 11  5  1  1
 33 34  1  0
 33 35  1  0
 34 36  1  0
 35 37  1  0
 37 43  1  6
 20 21  2  0
 21 22  1  0
M  CHG  3   2  -1  26  -1  41  -1
M  END
>  <COMPND>  (135) 
    udp_gluA.pdb 

>  <AUTHOR>  (135) 
    GENERATED BY OPEN BABEL 3.1.1

>  <MASTER>  (135) 
        0    0    0    0    0    0    0    0   56    0   56    0

>  <minimizedAffinity>  (135) 
-6.67566

>  <CNNscore>  (135) 
0.3882925808

>  <CNNaffinity>  (135) 
4.0551004410

>  <CNN_VS>  (135) 
1.5745654106

>  <CNNaffinity_variance>  (135) 
0.1303205490

$$$$
136
     RDKit          3D

 43 45  0  0  0  0  0  0  0  0999 V2000
   21.7958   75.1621   -3.7889 P   0  0  2  0  0  0  0  0  0  0  0  0
   22.4607   75.7365   -5.1479 O   0  0  0  0  0  0  0  0  0  0  0  0
   21.2343   76.2055   -2.8681 O   0  0  0  0  0  0  0  0  0  0  0  0
   22.9501   74.2183   -3.1605 O   0  0  0  0  0  0  0  0  0  0  0  0
   23.0593   74.1309   -1.7516 C   0  0  0  0  0  0  0  0  0  0  0  0
   24.0114   72.1172   -0.8481 O   0  0  0  0  0  0  0  0  0  0  0  0
   21.2010   71.3047   -0.1905 O   0  0  0  0  0  0  0  0  0  0  0  0
   22.1451   72.1825    2.2125 O   0  0  0  0  0  0  0  0  0  0  0  0
   21.7980   72.6012   -0.1574 C   0  0  1  0  0  0  0  0  0  0  0  0
   22.7159   72.7252    1.0402 C   0  0  2  0  0  0  0  0  0  0  0  0
   22.7763   72.6977   -1.3201 C   0  0  1  0  0  0  0  0  0  0  0  0
   23.9429   71.9579    0.5779 C   0  0  2  0  0  0  0  0  0  0  0  0
   20.5717   71.2193    0.5433 H   0  0  0  0  0  0  0  0  0  0  0  0
   21.3681   72.7058    2.4659 H   0  0  0  0  0  0  0  0  0  0  0  0
   24.8878   71.2485    3.1431 O   0  0  0  0  0  0  0  0  0  0  0  0
   28.6049   73.9405    2.7186 O   0  0  0  0  0  0  0  0  0  0  0  0
   25.1547   72.4586    1.1624 N   0  0  0  0  0  0  0  0  0  0  0  0
   26.7377   72.5907    2.9296 N   0  0  0  0  0  0  0  0  0  0  0  0
   25.5393   72.0390    2.4579 C   0  0  0  0  0  0  0  0  0  0  0  0
   25.9484   73.3528    0.4544 C   0  0  0  0  0  0  0  0  0  0  0  0
   27.0882   73.8700    0.9173 C   0  0  0  0  0  0  0  0  0  0  0  0
   27.5608   73.4838    2.2630 C   0  0  0  0  0  0  0  0  0  0  0  0
   27.0250   72.3151    3.8301 H   0  0  0  0  0  0  0  0  0  0  0  0
   20.7127   74.0951   -4.3377 O   0  0  0  0  0  0  0  0  0  0  0  0
   20.9066   72.6651   -5.0665 P   0  0  2  0  0  0  0  0  0  0  0  0
   20.9732   71.6248   -3.8281 O   0  0  0  0  0  0  0  0  0  0  0  0
   22.0868   72.6008   -5.9923 O   0  0  0  0  0  0  0  0  0  0  0  0
   19.4860   72.3689   -5.7712 O   0  0  0  0  0  0  0  0  0  0  0  0
   18.2890   70.3429   -6.0386 O   0  0  0  0  0  0  0  0  0  0  0  0
   17.2865   72.3741   -9.4937 O   0  0  0  0  0  0  0  0  0  0  0  0
   20.0327   72.4112   -8.4980 O   0  0  0  0  0  0  0  0  0  0  0  0
   15.3718   72.1650   -7.3163 O   0  0  0  0  0  0  0  0  0  0  0  0
   17.6427   72.2397   -8.1178 C   0  0  2  0  0  0  0  0  0  0  0  0
   19.0062   71.5571   -8.0065 C   0  0  2  0  0  0  0  0  0  0  0  0
   16.5670   71.3951   -7.4312 C   0  0  1  0  0  0  0  0  0  0  0  0
   19.3169   71.1892   -6.5550 C   0  0  1  0  0  0  0  0  0  0  0  0
   17.0050   70.9631   -6.0347 C   0  0  1  0  0  0  0  0  0  0  0  0
   17.9559   72.9073   -9.9506 H   0  0  0  0  0  0  0  0  0  0  0  0
   19.8417   72.6488   -9.4186 H   0  0  0  0  0  0  0  0  0  0  0  0
   15.0824   72.4463   -8.1983 H   0  0  0  0  0  0  0  0  0  0  0  0
   15.7242   69.0561   -6.5084 O   0  0  0  0  0  0  0  0  0  0  0  0
   15.7787   69.7603   -4.3404 O   0  0  0  0  0  0  0  0  0  0  0  0
   16.1136   69.8856   -5.5088 C   0  0  0  0  0  0  0  0  0  0  0  0
  1  4  1  0
  1 24  1  0
  1  2  1  6
  1  3  2  0
 25 28  1  0
 25 24  1  0
 25 26  1  1
 25 27  2  0
  6 11  1  0
  6 12  1  0
 29 36  1  0
 29 37  1  0
  9  7  1  1
  7 13  1  0
 10  8  1  1
  8 14  1  0
  4  5  1  0
 36 28  1  1
 33 30  1  6
 30 38  1  0
 34 31  1  1
 31 39  1  0
 35 32  1  1
 32 40  1  0
 41 43  1  0
 15 19  2  0
 42 43  2  0
 16 22  2  0
 12 17  1  1
 17 19  1  0
 17 20  1  0
 18 19  1  0
 18 22  1  0
 18 23  1  0
  9 10  1  0
  9 11  1  0
 10 12  1  0
 11  5  1  1
 33 34  1  0
 33 35  1  0
 34 36  1  0
 35 37  1  0
 37 43  1  6
 20 21  2  0
 21 22  1  0
M  CHG  3   2  -1  26  -1  41  -1
M  END
>  <COMPND>  (136) 
    udp_gluA.pdb 

>  <AUTHOR>  (136) 
    GENERATED BY OPEN BABEL 3.1.1

>  <MASTER>  (136) 
        0    0    0    0    0    0    0    0   56    0   56    0

>  <minimizedAffinity>  (136) 
-6.36542

>  <CNNscore>  (136) 
0.3811554909

>  <CNNaffinity>  (136) 
4.1424579620

>  <CNN_VS>  (136) 
1.5789206028

>  <CNNaffinity_variance>  (136) 
0.1022639647

$$$$
137
     RDKit          3D

 43 45  0  0  0  0  0  0  0  0999 V2000
   22.8352   71.5894    1.7939 P   0  0  2  0  0  0  0  0  0  0  0  0
   22.8933   70.3405    2.8214 O   0  0  0  0  0  0  0  0  0  0  0  0
   22.1899   72.8294    2.3396 O   0  0  0  0  0  0  0  0  0  0  0  0
   22.1517   70.9680    0.4655 O   0  0  0  0  0  0  0  0  0  0  0  0
   22.1263   71.7533   -0.7123 C   0  0  0  0  0  0  0  0  0  0  0  0
   22.2148   70.6027   -2.8208 O   0  0  0  0  0  0  0  0  0  0  0  0
   25.1103   71.3772   -2.9107 O   0  0  0  0  0  0  0  0  0  0  0  0
   23.9532   73.2028   -4.5734 O   0  0  0  0  0  0  0  0  0  0  0  0
   23.9945   72.1088   -2.4023 C   0  0  1  0  0  0  0  0  0  0  0  0
   23.1601   72.6517   -3.5430 C   0  0  2  0  0  0  0  0  0  0  0  0
   23.0392   71.1170   -1.7526 C   0  0  1  0  0  0  0  0  0  0  0  0
   22.3958   71.4173   -3.9900 C   0  0  2  0  0  0  0  0  0  0  0  0
   25.7348   71.9898   -3.3307 H   0  0  0  0  0  0  0  0  0  0  0  0
   24.4191   73.9859   -4.2391 H   0  0  0  0  0  0  0  0  0  0  0  0
   21.9808   72.4374   -6.5907 O   0  0  0  0  0  0  0  0  0  0  0  0
   17.4144   72.6138   -5.9904 O   0  0  0  0  0  0  0  0  0  0  0  0
   21.1088   71.7385   -4.5390 N   0  0  0  0  0  0  0  0  0  0  0  0
   19.7069   72.5252   -6.2889 N   0  0  0  0  0  0  0  0  0  0  0  0
   21.0099   72.2456   -5.8562 C   0  0  0  0  0  0  0  0  0  0  0  0
   19.9626   71.5493   -3.7764 C   0  0  0  0  0  0  0  0  0  0  0  0
   18.7274   71.8204   -4.2026 C   0  0  0  0  0  0  0  0  0  0  0  0
   18.5367   72.3543   -5.5671 C   0  0  0  0  0  0  0  0  0  0  0  0
   19.6130   72.8812   -7.2020 H   0  0  0  0  0  0  0  0  0  0  0  0
   24.3806   71.7714    1.3562 O   0  0  0  0  0  0  0  0  0  0  0  0
   25.3205   73.0856    1.3015 P   0  0  2  0  0  0  0  0  0  0  0  0
   24.4231   74.1480    0.4731 O   0  0  0  0  0  0  0  0  0  0  0  0
   26.6843   72.8436    0.7222 O   0  0  0  0  0  0  0  0  0  0  0  0
   25.3256   73.6484    2.8134 O   0  0  0  0  0  0  0  0  0  0  0  0
   26.7781   72.3922    4.1996 O   0  0  0  0  0  0  0  0  0  0  0  0
   25.0176   74.9493    6.9253 O   0  0  0  0  0  0  0  0  0  0  0  0
   23.4167   73.6817    4.8361 O   0  0  0  0  0  0  0  0  0  0  0  0
   27.7442   75.4196    6.0335 O   0  0  0  0  0  0  0  0  0  0  0  0
   25.5289   74.5522    5.6530 C   0  0  2  0  0  0  0  0  0  0  0  0
   24.7592   73.3303    5.1509 C   0  0  2  0  0  0  0  0  0  0  0  0
   27.0116   74.2139    5.8238 C   0  0  1  0  0  0  0  0  0  0  0  0
   25.4237   72.7381    3.9073 C   0  0  1  0  0  0  0  0  0  0  0  0
   27.5690   73.5131    4.5882 C   0  0  1  0  0  0  0  0  0  0  0  0
   24.0764   75.1692    6.8414 H   0  0  0  0  0  0  0  0  0  0  0  0
   22.9891   74.0584    5.6207 H   0  0  0  0  0  0  0  0  0  0  0  0
   27.3992   75.8755    6.8170 H   0  0  0  0  0  0  0  0  0  0  0  0
   28.8734   71.5645    4.6445 O   0  0  0  0  0  0  0  0  0  0  0  0
   29.8812   73.5094    5.2776 O   0  0  0  0  0  0  0  0  0  0  0  0
   28.8994   72.8995    4.8813 C   0  0  0  0  0  0  0  0  0  0  0  0
  1  4  1  0
  1 24  1  0
  1  2  1  1
  1  3  2  0
 25 28  1  0
 25 24  1  0
 25 26  1  6
 25 27  2  0
  6 11  1  0
  6 12  1  0
 29 36  1  0
 29 37  1  0
  9  7  1  6
  7 13  1  0
 10  8  1  6
  8 14  1  0
  4  5  1  0
 36 28  1  6
 33 30  1  1
 30 38  1  0
 34 31  1  6
 31 39  1  0
 35 32  1  6
 32 40  1  0
 41 43  1  0
 15 19  2  0
 42 43  2  0
 16 22  2  0
 12 17  1  1
 17 19  1  0
 17 20  1  0
 18 19  1  0
 18 22  1  0
 18 23  1  0
  9 10  1  0
  9 11  1  0
 10 12  1  0
 11  5  1  1
 33 34  1  0
 33 35  1  0
 34 36  1  0
 35 37  1  0
 37 43  1  1
 20 21  2  0
 21 22  1  0
M  CHG  3   2  -1  26  -1  41  -1
M  END
>  <COMPND>  (137) 
    udp_gluA.pdb 

>  <AUTHOR>  (137) 
    GENERATED BY OPEN BABEL 3.1.1

>  <MASTER>  (137) 
        0    0    0    0    0    0    0    0   56    0   56    0

>  <minimizedAffinity>  (137) 
-7.09353

>  <CNNscore>  (137) 
0.3724333048

>  <CNNaffinity>  (137) 
3.9243006706

>  <CNN_VS>  (137) 
1.4615402222

>  <CNNaffinity_variance>  (137) 
0.1809214950

$$$$
138
     RDKit          3D

 43 45  0  0  0  0  0  0  0  0999 V2000
   22.0850   72.9048   -4.7432 P   0  0  2  0  0  0  0  0  0  0  0  0
   23.6963   72.9424   -4.5973 O   0  0  0  0  0  0  0  0  0  0  0  0
   21.3812   74.1615   -4.3220 O   0  0  0  0  0  0  0  0  0  0  0  0
   21.6546   71.5600   -3.9531 O   0  0  0  0  0  0  0  0  0  0  0  0
   22.2799   71.2734   -2.7157 C   0  0  0  0  0  0  0  0  0  0  0  0
   21.8506   70.7288   -0.4142 O   0  0  0  0  0  0  0  0  0  0  0  0
   19.2727   72.2267   -0.7342 O   0  0  0  0  0  0  0  0  0  0  0  0
   20.8561   74.0343    0.5549 O   0  0  0  0  0  0  0  0  0  0  0  0
   20.5527   72.4984   -1.3056 C   0  0  1  0  0  0  0  0  0  0  0  0
   21.4856   73.0645   -0.2561 C   0  0  2  0  0  0  0  0  0  0  0  0
   21.2130   71.1663   -1.6337 C   0  0  1  0  0  0  0  0  0  0  0  0
   21.8796   71.8195    0.5202 C   0  0  2  0  0  0  0  0  0  0  0  0
   18.8315   73.0630   -0.5161 H   0  0  0  0  0  0  0  0  0  0  0  0
   20.6251   74.8069    0.0148 H   0  0  0  0  0  0  0  0  0  0  0  0
   22.7855   70.3182    2.7342 O   0  0  0  0  0  0  0  0  0  0  0  0
   26.9539   72.2798    2.5907 O   0  0  0  0  0  0  0  0  0  0  0  0
   23.1970   71.9181    1.0820 N   0  0  0  0  0  0  0  0  0  0  0  0
   24.8604   71.2974    2.6613 N   0  0  0  0  0  0  0  0  0  0  0  0
   23.5513   71.1192    2.1949 C   0  0  0  0  0  0  0  0  0  0  0  0
   24.1221   72.7964    0.5310 C   0  0  0  0  0  0  0  0  0  0  0  0
   25.3663   72.9551    0.9865 C   0  0  0  0  0  0  0  0  0  0  0  0
   25.8161   72.1587    2.1470 C   0  0  0  0  0  0  0  0  0  0  0  0
   25.1296   70.7535    3.4366 H   0  0  0  0  0  0  0  0  0  0  0  0
   21.8703   72.5000   -6.2933 O   0  0  0  0  0  0  0  0  0  0  0  0
   20.9747   73.1814   -7.4540 P   0  0  2  0  0  0  0  0  0  0  0  0
   21.3843   72.3435   -8.7771 O   0  0  0  0  0  0  0  0  0  0  0  0
   21.1573   74.6661   -7.5811 O   0  0  0  0  0  0  0  0  0  0  0  0
   19.4638   72.7180   -7.1302 O   0  0  0  0  0  0  0  0  0  0  0  0
   18.7268   70.8234   -5.9150 O   0  0  0  0  0  0  0  0  0  0  0  0
   15.6281   71.3614   -8.5940 O   0  0  0  0  0  0  0  0  0  0  0  0
   18.4030   71.6393   -9.4641 O   0  0  0  0  0  0  0  0  0  0  0  0
   15.3053   72.1446   -5.8131 O   0  0  0  0  0  0  0  0  0  0  0  0
   16.6992   71.7670   -7.7417 C   0  0  2  0  0  0  0  0  0  0  0  0
   17.9995   71.1106   -8.2062 C   0  0  2  0  0  0  0  0  0  0  0  0
   16.3610   71.3274   -6.3154 C   0  0  1  0  0  0  0  0  0  0  0  0
   19.1194   71.3350   -7.1892 C   0  0  1  0  0  0  0  0  0  0  0  0
   17.5664   71.4642   -5.3898 C   0  0  1  0  0  0  0  0  0  0  0  0
   15.8210   71.6301   -9.5061 H   0  0  0  0  0  0  0  0  0  0  0  0
   17.6970   71.5006  -10.1142 H   0  0  0  0  0  0  0  0  0  0  0  0
   14.5320   72.0667   -6.3934 H   0  0  0  0  0  0  0  0  0  0  0  0
   16.2664   69.9078   -4.2112 O   0  0  0  0  0  0  0  0  0  0  0  0
   18.0095   70.8645   -3.0951 O   0  0  0  0  0  0  0  0  0  0  0  0
   17.3341   70.7372   -4.1053 C   0  0  0  0  0  0  0  0  0  0  0  0
  1  4  1  0
  1 24  1  0
  1  2  1  6
  1  3  2  0
 25 28  1  0
 25 24  1  0
 25 26  1  6
 25 27  2  0
  6 11  1  0
  6 12  1  0
 29 36  1  0
 29 37  1  0
  9  7  1  1
  7 13  1  0
 10  8  1  1
  8 14  1  0
  4  5  1  0
 36 28  1  1
 33 30  1  6
 30 38  1  0
 34 31  1  6
 31 39  1  0
 35 32  1  1
 32 40  1  0
 41 43  1  0
 15 19  2  0
 42 43  2  0
 16 22  2  0
 12 17  1  6
 17 19  1  0
 17 20  1  0
 18 19  1  0
 18 22  1  0
 18 23  1  0
  9 10  1  0
  9 11  1  0
 10 12  1  0
 11  5  1  6
 33 34  1  0
 33 35  1  0
 34 36  1  0
 35 37  1  0
 37 43  1  1
 20 21  2  0
 21 22  1  0
M  CHG  3   2  -1  26  -1  41  -1
M  END
>  <COMPND>  (138) 
    udp_gluA.pdb 

>  <AUTHOR>  (138) 
    GENERATED BY OPEN BABEL 3.1.1

>  <MASTER>  (138) 
        0    0    0    0    0    0    0    0   56    0   56    0

>  <minimizedAffinity>  (138) 
-7.77571

>  <CNNscore>  (138) 
0.3511568606

>  <CNNaffinity>  (138) 
4.1348600388

>  <CNN_VS>  (138) 
1.4519845247

>  <CNNaffinity_variance>  (138) 
0.0449956767

$$$$
139
     RDKit          3D

 43 45  0  0  0  0  0  0  0  0999 V2000
   22.8622   71.6805    1.7259 P   0  0  2  0  0  0  0  0  0  0  0  0
   22.7723   70.5324    2.8629 O   0  0  0  0  0  0  0  0  0  0  0  0
   22.0465   72.9097    2.0008 O   0  0  0  0  0  0  0  0  0  0  0  0
   22.5121   70.8971    0.3542 O   0  0  0  0  0  0  0  0  0  0  0  0
   22.2695   71.6572   -0.8154 C   0  0  0  0  0  0  0  0  0  0  0  0
   22.2659   70.3089   -2.8053 O   0  0  0  0  0  0  0  0  0  0  0  0
   24.8629   71.6427   -3.4898 O   0  0  0  0  0  0  0  0  0  0  0  0
   23.0742   72.9847   -5.0505 O   0  0  0  0  0  0  0  0  0  0  0  0
   23.7109   72.1854   -2.8441 C   0  0  1  0  0  0  0  0  0  0  0  0
   22.6021   72.4083   -3.8507 C   0  0  2  0  0  0  0  0  0  0  0  0
   23.1186   71.1029   -1.9522 C   0  0  1  0  0  0  0  0  0  0  0  0
   22.0684   70.9998   -4.0490 C   0  0  2  0  0  0  0  0  0  0  0  0
   25.2587   72.3162   -4.0654 H   0  0  0  0  0  0  0  0  0  0  0  0
   23.4029   73.8802   -4.8716 H   0  0  0  0  0  0  0  0  0  0  0  0
   21.0445   70.9474   -6.6807 O   0  0  0  0  0  0  0  0  0  0  0  0
   16.6865   70.9428   -5.1802 O   0  0  0  0  0  0  0  0  0  0  0  0
   20.6703   70.9844   -4.3748 N   0  0  0  0  0  0  0  0  0  0  0  0
   18.8749   70.9462   -5.9308 N   0  0  0  0  0  0  0  0  0  0  0  0
   20.2614   70.9585   -5.7291 C   0  0  0  0  0  0  0  0  0  0  0  0
   19.7215   70.9934   -3.3596 C   0  0  0  0  0  0  0  0  0  0  0  0
   18.4034   70.9813   -3.5675 C   0  0  0  0  0  0  0  0  0  0  0  0
   17.8926   70.9549   -4.9538 C   0  0  0  0  0  0  0  0  0  0  0  0
   18.5660   70.9302   -6.8655 H   0  0  0  0  0  0  0  0  0  0  0  0
   24.4523   71.9421    1.5993 O   0  0  0  0  0  0  0  0  0  0  0  0
   25.2774   73.1751    0.9570 P   0  0  2  0  0  0  0  0  0  0  0  0
   26.1830   72.4620   -0.1795 O   0  0  0  0  0  0  0  0  0  0  0  0
   26.0584   73.9799    1.9551 O   0  0  0  0  0  0  0  0  0  0  0  0
   24.1771   74.0178    0.1314 O   0  0  0  0  0  0  0  0  0  0  0  0
   24.2380   75.8782   -1.3331 O   0  0  0  0  0  0  0  0  0  0  0  0
   20.8775   76.6966    0.9263 O   0  0  0  0  0  0  0  0  0  0  0  0
   23.2987   75.6644    2.1938 O   0  0  0  0  0  0  0  0  0  0  0  0
   20.6019   75.7105   -1.7945 O   0  0  0  0  0  0  0  0  0  0  0  0
   21.8357   75.8672    0.2691 C   0  0  2  0  0  0  0  0  0  0  0  0
   23.2248   76.1299    0.8512 C   0  0  2  0  0  0  0  0  0  0  0  0
   21.8108   76.2068   -1.2229 C   0  0  1  0  0  0  0  0  0  0  0  0
   24.3057   75.4343    0.0226 C   0  0  1  0  0  0  0  0  0  0  0  0
   22.9916   75.5780   -1.9571 C   0  0  1  0  0  0  0  0  0  0  0  0
   20.8754   76.4985    1.8761 H   0  0  0  0  0  0  0  0  0  0  0  0
   22.6154   76.1015    2.7252 H   0  0  0  0  0  0  0  0  0  0  0  0
   19.8425   76.1029   -1.3360 H   0  0  0  0  0  0  0  0  0  0  0  0
   24.1605   75.5720   -3.9906 O   0  0  0  0  0  0  0  0  0  0  0  0
   22.4576   77.0728   -3.7741 O   0  0  0  0  0  0  0  0  0  0  0  0
   23.1466   76.1721   -3.3191 C   0  0  0  0  0  0  0  0  0  0  0  0
  1  4  1  0
  1 24  1  0
  1  2  1  1
  1  3  2  0
 25 28  1  0
 25 24  1  0
 25 26  1  6
 25 27  2  0
  6 11  1  0
  6 12  1  0
 29 36  1  0
 29 37  1  0
  9  7  1  6
  7 13  1  0
 10  8  1  6
  8 14  1  0
  4  5  1  0
 36 28  1  6
 33 30  1  1
 30 38  1  0
 34 31  1  1
 31 39  1  0
 35 32  1  6
 32 40  1  0
 41 43  1  0
 15 19  2  0
 42 43  2  0
 16 22  2  0
 12 17  1  1
 17 19  1  0
 17 20  1  0
 18 19  1  0
 18 22  1  0
 18 23  1  0
  9 10  1  0
  9 11  1  0
 10 12  1  0
 11  5  1  1
 33 34  1  0
 33 35  1  0
 34 36  1  0
 35 37  1  0
 37 43  1  6
 20 21  2  0
 21 22  1  0
M  CHG  3   2  -1  26  -1  41  -1
M  END
>  <COMPND>  (139) 
    udp_gluA.pdb 

>  <AUTHOR>  (139) 
    GENERATED BY OPEN BABEL 3.1.1

>  <MASTER>  (139) 
        0    0    0    0    0    0    0    0   56    0   56    0

>  <minimizedAffinity>  (139) 
-5.73905

>  <CNNscore>  (139) 
0.3508347571

>  <CNNaffinity>  (139) 
3.8493816853

>  <CNN_VS>  (139) 
1.3504968882

>  <CNNaffinity_variance>  (139) 
0.3056931794

$$$$
140
     RDKit          3D

 43 45  0  0  0  0  0  0  0  0999 V2000
   23.0090   73.7661   -3.7536 P   0  0  2  0  0  0  0  0  0  0  0  0
   23.3110   75.0405   -2.8030 O   0  0  0  0  0  0  0  0  0  0  0  0
   24.2266   73.0413   -4.2474 O   0  0  0  0  0  0  0  0  0  0  0  0
   22.0314   74.3585   -4.8987 O   0  0  0  0  0  0  0  0  0  0  0  0
   20.7906   73.7160   -5.1271 C   0  0  0  0  0  0  0  0  0  0  0  0
   20.3268   71.4716   -5.8518 O   0  0  0  0  0  0  0  0  0  0  0  0
   20.8940   72.4496   -8.6291 O   0  0  0  0  0  0  0  0  0  0  0  0
   18.1684   72.4090   -8.5567 O   0  0  0  0  0  0  0  0  0  0  0  0
   20.2593   73.1273   -7.5445 C   0  0  1  0  0  0  0  0  0  0  0  0
   18.8590   72.5896   -7.3381 C   0  0  2  0  0  0  0  0  0  0  0  0
   20.9547   72.7074   -6.2567 C   0  0  1  0  0  0  0  0  0  0  0  0
   19.1273   71.2790   -6.6182 C   0  0  2  0  0  0  0  0  0  0  0  0
   20.4667   72.7020   -9.4629 H   0  0  0  0  0  0  0  0  0  0  0  0
   18.0216   73.2719   -8.9761 H   0  0  0  0  0  0  0  0  0  0  0  0
   16.6910   70.1165   -7.4485 O   0  0  0  0  0  0  0  0  0  0  0  0
   15.1033   69.9151   -3.1261 O   0  0  0  0  0  0  0  0  0  0  0  0
   18.0599   70.9128   -5.7308 N   0  0  0  0  0  0  0  0  0  0  0  0
   15.9021   70.0182   -5.2950 N   0  0  0  0  0  0  0  0  0  0  0  0
   16.8771   70.3353   -6.2500 C   0  0  0  0  0  0  0  0  0  0  0  0
   18.1911   71.1245   -4.3637 C   0  0  0  0  0  0  0  0  0  0  0  0
   17.2530   70.8170   -3.4658 C   0  0  0  0  0  0  0  0  0  0  0  0
   15.9865   70.2105   -3.9255 C   0  0  0  0  0  0  0  0  0  0  0  0
   15.0690   69.6169   -5.6328 H   0  0  0  0  0  0  0  0  0  0  0  0
   22.0110   72.8693   -2.8521 O   0  0  0  0  0  0  0  0  0  0  0  0
   21.4786   73.0699   -1.3388 P   0  0  2  0  0  0  0  0  0  0  0  0
   20.7872   71.6464   -0.9982 O   0  0  0  0  0  0  0  0  0  0  0  0
   20.5759   74.2554   -1.1556 O   0  0  0  0  0  0  0  0  0  0  0  0
   22.8148   73.1000   -0.4354 O   0  0  0  0  0  0  0  0  0  0  0  0
   22.8273   72.5559    1.8695 O   0  0  0  0  0  0  0  0  0  0  0  0
   26.2559   74.8350    1.5252 O   0  0  0  0  0  0  0  0  0  0  0  0
   23.8036   75.6323    0.1523 O   0  0  0  0  0  0  0  0  0  0  0  0
   26.4436   71.9441    1.7673 O   0  0  0  0  0  0  0  0  0  0  0  0
   25.2481   73.9229    1.0888 C   0  0  2  0  0  0  0  0  0  0  0  0
   23.8822   74.6081    1.1369 C   0  0  2  0  0  0  0  0  0  0  0  0
   25.2693   72.7119    2.0242 C   0  0  1  0  0  0  0  0  0  0  0  0
   22.7562   73.6009    0.8988 C   0  0  1  0  0  0  0  0  0  0  0  0
   24.0483   71.8218    1.8109 C   0  0  1  0  0  0  0  0  0  0  0  0
   26.2611   75.6129    0.9454 H   0  0  0  0  0  0  0  0  0  0  0  0
   24.5153   76.2748    0.2972 H   0  0  0  0  0  0  0  0  0  0  0  0
   27.2281   72.4991    1.8994 H   0  0  0  0  0  0  0  0  0  0  0  0
   22.8800   69.9866    2.6876 O   0  0  0  0  0  0  0  0  0  0  0  0
   24.6098   70.8066    3.9264 O   0  0  0  0  0  0  0  0  0  0  0  0
   23.9045   70.8416    2.9293 C   0  0  0  0  0  0  0  0  0  0  0  0
  1  4  1  0
  1 24  1  0
  1  2  1  1
  1  3  2  0
 25 28  1  0
 25 24  1  0
 25 26  1  1
 25 27  2  0
  6 11  1  0
  6 12  1  0
 29 36  1  0
 29 37  1  0
  9  7  1  6
  7 13  1  0
 10  8  1  6
  8 14  1  0
  4  5  1  0
 36 28  1  6
 33 30  1  1
 30 38  1  0
 34 31  1  6
 31 39  1  0
 35 32  1  6
 32 40  1  0
 41 43  1  0
 15 19  2  0
 42 43  2  0
 16 22  2  0
 12 17  1  1
 17 19  1  0
 17 20  1  0
 18 19  1  0
 18 22  1  0
 18 23  1  0
  9 10  1  0
  9 11  1  0
 10 12  1  0
 11  5  1  1
 33 34  1  0
 33 35  1  0
 34 36  1  0
 35 37  1  0
 37 43  1  1
 20 21  2  0
 21 22  1  0
M  CHG  3   2  -1  26  -1  41  -1
M  END
>  <COMPND>  (140) 
    udp_gluA.pdb 

>  <AUTHOR>  (140) 
    GENERATED BY OPEN BABEL 3.1.1

>  <MASTER>  (140) 
        0    0    0    0    0    0    0    0   56    0   56    0

>  <minimizedAffinity>  (140) 
-6.77072

>  <CNNscore>  (140) 
0.3495168686

>  <CNNaffinity>  (140) 
4.0581703186

>  <CNN_VS>  (140) 
1.4183989763

>  <CNNaffinity_variance>  (140) 
0.0891007632

$$$$
141
     RDKit          3D

 43 45  0  0  0  0  0  0  0  0999 V2000
   21.2670   71.9422   -1.3521 P   0  0  2  0  0  0  0  0  0  0  0  0
   20.6455   70.6182   -0.6595 O   0  0  0  0  0  0  0  0  0  0  0  0
   21.3974   73.1301   -0.4446 O   0  0  0  0  0  0  0  0  0  0  0  0
   20.3495   72.1599   -2.6670 O   0  0  0  0  0  0  0  0  0  0  0  0
   20.2227   71.0916   -3.5874 C   0  0  0  0  0  0  0  0  0  0  0  0
   20.6407   70.5754   -5.8975 O   0  0  0  0  0  0  0  0  0  0  0  0
   22.3031   73.0702   -5.9613 O   0  0  0  0  0  0  0  0  0  0  0  0
   19.9734   73.8766   -7.1269 O   0  0  0  0  0  0  0  0  0  0  0  0
   21.0926   72.8089   -5.2508 C   0  0  1  0  0  0  0  0  0  0  0  0
   19.9153   72.8102   -6.2028 C   0  0  2  0  0  0  0  0  0  0  0  0
   21.1245   71.3595   -4.7855 C   0  0  1  0  0  0  0  0  0  0  0  0
   20.0469   71.4513   -6.8690 C   0  0  2  0  0  0  0  0  0  0  0  0
   22.3058   73.9907   -6.2686 H   0  0  0  0  0  0  0  0  0  0  0  0
   19.8849   74.7195   -6.6539 H   0  0  0  0  0  0  0  0  0  0  0  0
   19.3863   70.7287   -9.5181 O   0  0  0  0  0  0  0  0  0  0  0  0
   15.1489   69.3934   -8.2911 O   0  0  0  0  0  0  0  0  0  0  0  0
   18.7782   70.9123   -7.2698 N   0  0  0  0  0  0  0  0  0  0  0  0
   17.2761   70.0653   -8.9047 N   0  0  0  0  0  0  0  0  0  0  0  0
   18.5483   70.5823   -8.6264 C   0  0  0  0  0  0  0  0  0  0  0  0
   17.7790   70.7141   -6.3247 C   0  0  0  0  0  0  0  0  0  0  0  0
   16.5714   70.2203   -6.6050 C   0  0  0  0  0  0  0  0  0  0  0  0
   16.2497   69.8507   -7.9991 C   0  0  0  0  0  0  0  0  0  0  0  0
   17.0919   69.8301   -9.8428 H   0  0  0  0  0  0  0  0  0  0  0  0
   22.6631   71.4084   -1.9676 O   0  0  0  0  0  0  0  0  0  0  0  0
   24.0743   72.1603   -2.2062 P   0  0  2  0  0  0  0  0  0  0  0  0
   23.6305   73.6767   -2.5581 O   0  0  0  0  0  0  0  0  0  0  0  0
   24.9481   71.5153   -3.2427 O   0  0  0  0  0  0  0  0  0  0  0  0
   24.7379   72.2604   -0.7392 O   0  0  0  0  0  0  0  0  0  0  0  0
   24.5393   74.2491    0.5315 O   0  0  0  0  0  0  0  0  0  0  0  0
   27.6936   72.3595    2.4150 O   0  0  0  0  0  0  0  0  0  0  0  0
   27.5065   72.3788   -0.5003 O   0  0  0  0  0  0  0  0  0  0  0  0
   25.0605   72.3823    3.6468 O   0  0  0  0  0  0  0  0  0  0  0  0
   26.4659   72.4372    1.6906 C   0  0  2  0  0  0  0  0  0  0  0  0
   26.6982   73.1659    0.3668 C   0  0  2  0  0  0  0  0  0  0  0  0
   25.4575   73.2030    2.5499 C   0  0  1  0  0  0  0  0  0  0  0  0
   25.3714   73.4711   -0.3298 C   0  0  1  0  0  0  0  0  0  0  0  0
   24.2151   73.5799    1.7481 C   0  0  1  0  0  0  0  0  0  0  0  0
   28.3500   71.8768    1.8884 H   0  0  0  0  0  0  0  0  0  0  0  0
   28.3499   72.1811   -0.0645 H   0  0  0  0  0  0  0  0  0  0  0  0
   25.8422   72.1352    4.1653 H   0  0  0  0  0  0  0  0  0  0  0  0
   23.2192   75.7034    1.7226 O   0  0  0  0  0  0  0  0  0  0  0  0
   22.9471   74.4495    3.6075 O   0  0  0  0  0  0  0  0  0  0  0  0
   23.3980   74.5936    2.4810 C   0  0  0  0  0  0  0  0  0  0  0  0
  1  4  1  0
  1 24  1  0
  1  2  1  1
  1  3  2  0
 25 28  1  0
 25 24  1  0
 25 26  1  6
 25 27  2  0
  6 11  1  0
  6 12  1  0
 29 36  1  0
 29 37  1  0
  9  7  1  6
  7 13  1  0
 10  8  1  6
  8 14  1  0
  4  5  1  0
 36 28  1  1
 33 30  1  1
 30 38  1  0
 34 31  1  6
 31 39  1  0
 35 32  1  1
 32 40  1  0
 41 43  1  0
 15 19  2  0
 42 43  2  0
 16 22  2  0
 12 17  1  1
 17 19  1  0
 17 20  1  0
 18 19  1  0
 18 22  1  0
 18 23  1  0
  9 10  1  0
  9 11  1  0
 10 12  1  0
 11  5  1  1
 33 34  1  0
 33 35  1  0
 34 36  1  0
 35 37  1  0
 37 43  1  1
 20 21  2  0
 21 22  1  0
M  CHG  3   2  -1  26  -1  41  -1
M  END
>  <COMPND>  (141) 
    udp_gluA.pdb 

>  <AUTHOR>  (141) 
    GENERATED BY OPEN BABEL 3.1.1

>  <MASTER>  (141) 
        0    0    0    0    0    0    0    0   56    0   56    0

>  <minimizedAffinity>  (141) 
-7.29469

>  <CNNscore>  (141) 
0.7668642402

>  <CNNaffinity>  (141) 
4.5827250481

>  <CNN_VS>  (141) 
3.5143280029

>  <CNNaffinity_variance>  (141) 
0.0624898076

$$$$
142
     RDKit          3D

 43 45  0  0  0  0  0  0  0  0999 V2000
   22.2684   73.8021   -4.2682 P   0  0  2  0  0  0  0  0  0  0  0  0
   22.5641   75.3729   -4.5213 O   0  0  0  0  0  0  0  0  0  0  0  0
   22.3256   72.9408   -5.4957 O   0  0  0  0  0  0  0  0  0  0  0  0
   20.8608   73.7954   -3.4702 O   0  0  0  0  0  0  0  0  0  0  0  0
   19.6592   73.8012   -4.2188 C   0  0  0  0  0  0  0  0  0  0  0  0
   18.0341   72.1643   -4.8952 O   0  0  0  0  0  0  0  0  0  0  0  0
   18.7328   70.7005   -2.3732 O   0  0  0  0  0  0  0  0  0  0  0  0
   20.1173   69.3141   -4.2699 O   0  0  0  0  0  0  0  0  0  0  0  0
   19.5773   71.4521   -3.2453 C   0  0  1  0  0  0  0  0  0  0  0  0
   19.8389   70.6762   -4.5188 C   0  0  2  0  0  0  0  0  0  0  0  0
   18.7814   72.6451   -3.7569 C   0  0  1  0  0  0  0  0  0  0  0  0
   18.5415   70.8777   -5.2830 C   0  0  2  0  0  0  0  0  0  0  0  0
   19.2196   69.9328   -2.0336 H   0  0  0  0  0  0  0  0  0  0  0  0
   20.9526   69.2389   -3.7816 H   0  0  0  0  0  0  0  0  0  0  0  0
   16.6185   69.9751   -7.1442 O   0  0  0  0  0  0  0  0  0  0  0  0
   19.3931   70.8610  -10.7165 O   0  0  0  0  0  0  0  0  0  0  0  0
   18.7352   70.8615   -6.7054 N   0  0  0  0  0  0  0  0  0  0  0  0
   18.0026   70.4163   -8.9216 N   0  0  0  0  0  0  0  0  0  0  0  0
   17.7055   70.3880   -7.5526 C   0  0  0  0  0  0  0  0  0  0  0  0
   19.9326   71.3124   -7.2475 C   0  0  0  0  0  0  0  0  0  0  0  0
   20.2011   71.3333   -8.5545 C   0  0  0  0  0  0  0  0  0  0  0  0
   19.1787   70.8548   -9.5080 C   0  0  0  0  0  0  0  0  0  0  0  0
   17.3019   70.0895   -9.5311 H   0  0  0  0  0  0  0  0  0  0  0  0
   23.3382   73.4116   -3.1212 O   0  0  0  0  0  0  0  0  0  0  0  0
   23.8096   71.9725   -2.5549 P   0  0  2  0  0  0  0  0  0  0  0  0
   25.0472   71.5817   -3.5224 O   0  0  0  0  0  0  0  0  0  0  0  0
   22.7173   70.9438   -2.5019 O   0  0  0  0  0  0  0  0  0  0  0  0
   24.4932   72.2971   -1.1303 O   0  0  0  0  0  0  0  0  0  0  0  0
   23.3802   72.1350    0.9540 O   0  0  0  0  0  0  0  0  0  0  0  0
   26.3963   74.8228    1.8184 O   0  0  0  0  0  0  0  0  0  0  0  0
   24.9208   75.0109   -0.6960 O   0  0  0  0  0  0  0  0  0  0  0  0
   26.5896   72.0695    2.7310 O   0  0  0  0  0  0  0  0  0  0  0  0
   25.7912   73.7110    1.1583 C   0  0  2  0  0  0  0  0  0  0  0  0
   24.5504   74.1802    0.3983 C   0  0  2  0  0  0  0  0  0  0  0  0
   25.4056   72.6816    2.2230 C   0  0  1  0  0  0  0  0  0  0  0  0
   23.7491   72.9893   -0.1293 C   0  0  1  0  0  0  0  0  0  0  0  0
   24.5036   71.5944    1.6459 C   0  0  1  0  0  0  0  0  0  0  0  0
   26.6497   75.4903    1.1614 H   0  0  0  0  0  0  0  0  0  0  0  0
   25.4298   75.7685   -0.3685 H   0  0  0  0  0  0  0  0  0  0  0  0
   27.1725   72.7508    3.1011 H   0  0  0  0  0  0  0  0  0  0  0  0
   24.5299   70.9794    3.9092 O   0  0  0  0  0  0  0  0  0  0  0  0
   22.8951   70.0724    2.6039 O   0  0  0  0  0  0  0  0  0  0  0  0
   23.8717   70.7943    2.7381 C   0  0  0  0  0  0  0  0  0  0  0  0
  1  4  1  0
  1 24  1  0
  1  2  1  6
  1  3  2  0
 25 28  1  0
 25 24  1  0
 25 26  1  6
 25 27  2  0
  6 11  1  0
  6 12  1  0
 29 36  1  0
 29 37  1  0
  9  7  1  1
  7 13  1  0
 10  8  1  1
  8 14  1  0
  4  5  1  0
 36 28  1  6
 33 30  1  1
 30 38  1  0
 34 31  1  6
 31 39  1  0
 35 32  1  6
 32 40  1  0
 41 43  1  0
 15 19  2  0
 42 43  2  0
 16 22  2  0
 12 17  1  6
 17 19  1  0
 17 20  1  0
 18 19  1  0
 18 22  1  0
 18 23  1  0
  9 10  1  0
  9 11  1  0
 10 12  1  0
 11  5  1  6
 33 34  1  0
 33 35  1  0
 34 36  1  0
 35 37  1  0
 37 43  1  1
 20 21  2  0
 21 22  1  0
M  CHG  3   2  -1  26  -1  41  -1
M  END
>  <COMPND>  (142) 
    udp_gluA.pdb 

>  <AUTHOR>  (142) 
    GENERATED BY OPEN BABEL 3.1.1

>  <MASTER>  (142) 
        0    0    0    0    0    0    0    0   56    0   56    0

>  <minimizedAffinity>  (142) 
-7.58641

>  <CNNscore>  (142) 
0.7592383623

>  <CNNaffinity>  (142) 
4.5329360962

>  <CNN_VS>  (142) 
3.4415788651

>  <CNNaffinity_variance>  (142) 
0.0120100742

$$$$
143
     RDKit          3D

 43 45  0  0  0  0  0  0  0  0999 V2000
   22.7699   73.8279   -4.0359 P   0  0  2  0  0  0  0  0  0  0  0  0
   23.4216   75.2959   -4.2339 O   0  0  0  0  0  0  0  0  0  0  0  0
   22.7897   72.9560   -5.2571 O   0  0  0  0  0  0  0  0  0  0  0  0
   21.3077   74.1326   -3.4138 O   0  0  0  0  0  0  0  0  0  0  0  0
   20.1759   74.0102   -4.2555 C   0  0  0  0  0  0  0  0  0  0  0  0
   18.3657   72.5024   -4.7322 O   0  0  0  0  0  0  0  0  0  0  0  0
   19.1253   71.0856   -2.2010 O   0  0  0  0  0  0  0  0  0  0  0  0
   20.2317   69.5018   -4.1254 O   0  0  0  0  0  0  0  0  0  0  0  0
   19.9628   71.7204   -3.1675 C   0  0  1  0  0  0  0  0  0  0  0  0
   20.0560   70.8722   -4.4181 C   0  0  2  0  0  0  0  0  0  0  0  0
   19.2380   72.9591   -3.6759 C   0  0  1  0  0  0  0  0  0  0  0  0
   18.7263   71.1599   -5.0942 C   0  0  2  0  0  0  0  0  0  0  0  0
   19.5673   70.2912   -1.8616 H   0  0  0  0  0  0  0  0  0  0  0  0
   21.0924   69.3706   -3.6965 H   0  0  0  0  0  0  0  0  0  0  0  0
   16.6009   70.3378   -6.7625 O   0  0  0  0  0  0  0  0  0  0  0  0
   19.1510   70.8437  -10.5684 O   0  0  0  0  0  0  0  0  0  0  0  0
   18.8075   71.0678   -6.5245 N   0  0  0  0  0  0  0  0  0  0  0  0
   17.8734   70.5896   -8.6564 N   0  0  0  0  0  0  0  0  0  0  0  0
   17.6819   70.6436   -7.2695 C   0  0  0  0  0  0  0  0  0  0  0  0
   19.9907   71.3968   -7.1747 C   0  0  0  0  0  0  0  0  0  0  0  0
   20.1581   71.3405   -8.4974 C   0  0  0  0  0  0  0  0  0  0  0  0
   19.0310   70.9062   -9.3486 C   0  0  0  0  0  0  0  0  0  0  0  0
   17.1044   70.2951   -9.1960 H   0  0  0  0  0  0  0  0  0  0  0  0
   23.5862   73.2359   -2.7726 O   0  0  0  0  0  0  0  0  0  0  0  0
   24.0262   71.7237   -2.4074 P   0  0  2  0  0  0  0  0  0  0  0  0
   25.1680   71.3950   -3.5067 O   0  0  0  0  0  0  0  0  0  0  0  0
   22.8912   70.7413   -2.3820 O   0  0  0  0  0  0  0  0  0  0  0  0
   24.8284   71.8560   -1.0141 O   0  0  0  0  0  0  0  0  0  0  0  0
   23.2991   73.3526    0.0012 O   0  0  0  0  0  0  0  0  0  0  0  0
   25.2488   71.7841    3.2886 O   0  0  0  0  0  0  0  0  0  0  0  0
   26.7458   72.5168    0.8894 O   0  0  0  0  0  0  0  0  0  0  0  0
   22.5569   70.9046    2.6316 O   0  0  0  0  0  0  0  0  0  0  0  0
   24.7041   71.7739    1.9691 C   0  0  2  0  0  0  0  0  0  0  0  0
   25.3838   72.8536    1.1266 C   0  0  2  0  0  0  0  0  0  0  0  0
   23.2023   72.0484    2.0752 C   0  0  1  0  0  0  0  0  0  0  0  0
   24.6728   73.0282   -0.2161 C   0  0  1  0  0  0  0  0  0  0  0  0
   22.5906   72.3363    0.7072 C   0  0  1  0  0  0  0  0  0  0  0  0
   26.2026   71.6118    3.2463 H   0  0  0  0  0  0  0  0  0  0  0  0
   27.2029   72.4043    1.7371 H   0  0  0  0  0  0  0  0  0  0  0  0
   22.9372   70.7105    3.5026 H   0  0  0  0  0  0  0  0  0  0  0  0
   21.0574   73.4568    2.0838 O   0  0  0  0  0  0  0  0  0  0  0  0
   20.3648   72.9173   -0.0206 O   0  0  0  0  0  0  0  0  0  0  0  0
   21.2222   72.9189    0.8500 C   0  0  0  0  0  0  0  0  0  0  0  0
  1  4  1  0
  1 24  1  0
  1  2  1  6
  1  3  2  0
 25 28  1  0
 25 24  1  0
 25 26  1  6
 25 27  2  0
  6 11  1  0
  6 12  1  0
 29 36  1  0
 29 37  1  0
  9  7  1  1
  7 13  1  0
 10  8  1  1
  8 14  1  0
  4  5  1  0
 36 28  1  6
 33 30  1  1
 30 38  1  0
 34 31  1  6
 31 39  1  0
 35 32  1  6
 32 40  1  0
 41 43  1  0
 15 19  2  0
 42 43  2  0
 16 22  2  0
 12 17  1  6
 17 19  1  0
 17 20  1  0
 18 19  1  0
 18 22  1  0
 18 23  1  0
  9 10  1  0
  9 11  1  0
 10 12  1  0
 11  5  1  6
 33 34  1  0
 33 35  1  0
 34 36  1  0
 35 37  1  0
 37 43  1  1
 20 21  2  0
 21 22  1  0
M  CHG  3   2  -1  26  -1  41  -1
M  END
>  <COMPND>  (143) 
    udp_gluA.pdb 

>  <AUTHOR>  (143) 
    GENERATED BY OPEN BABEL 3.1.1

>  <MASTER>  (143) 
        0    0    0    0    0    0    0    0   56    0   56    0

>  <minimizedAffinity>  (143) 
-6.93681

>  <CNNscore>  (143) 
0.7487900853

>  <CNNaffinity>  (143) 
4.5908041000

>  <CNN_VS>  (143) 
3.4375486374

>  <CNNaffinity_variance>  (143) 
0.0198682733

$$$$
144
     RDKit          3D

 43 45  0  0  0  0  0  0  0  0999 V2000
   23.2048   73.5951   -3.6847 P   0  0  2  0  0  0  0  0  0  0  0  0
   23.4130   75.1842   -3.9089 O   0  0  0  0  0  0  0  0  0  0  0  0
   24.2156   72.7211   -4.3674 O   0  0  0  0  0  0  0  0  0  0  0  0
   21.6619   73.3428   -4.1016 O   0  0  0  0  0  0  0  0  0  0  0  0
   21.3622   72.2567   -4.9589 C   0  0  0  0  0  0  0  0  0  0  0  0
   20.8955   71.7183   -7.2546 O   0  0  0  0  0  0  0  0  0  0  0  0
   21.4129   74.6124   -7.8444 O   0  0  0  0  0  0  0  0  0  0  0  0
   18.6890   74.4853   -7.8283 O   0  0  0  0  0  0  0  0  0  0  0  0
   20.7934   74.0196   -6.7028 C   0  0  1  0  0  0  0  0  0  0  0  0
   19.3989   73.5438   -7.0511 C   0  0  2  0  0  0  0  0  0  0  0  0
   21.5117   72.7105   -6.4053 C   0  0  1  0  0  0  0  0  0  0  0  0
   19.6843   72.2575   -7.8073 C   0  0  2  0  0  0  0  0  0  0  0  0
   20.9709   75.4505   -8.0539 H   0  0  0  0  0  0  0  0  0  0  0  0
   18.5319   75.2858   -7.3026 H   0  0  0  0  0  0  0  0  0  0  0  0
   18.6675   70.6747   -9.9139 O   0  0  0  0  0  0  0  0  0  0  0  0
   15.6506   68.5810   -7.1285 O   0  0  0  0  0  0  0  0  0  0  0  0
   18.6332   71.2908   -7.6605 N   0  0  0  0  0  0  0  0  0  0  0  0
   17.1652   69.6342   -8.5248 N   0  0  0  0  0  0  0  0  0  0  0  0
   18.1956   70.5479   -8.7825 C   0  0  0  0  0  0  0  0  0  0  0  0
   18.0487   71.0852   -6.4167 C   0  0  0  0  0  0  0  0  0  0  0  0
   17.0674   70.2106   -6.1866 C   0  0  0  0  0  0  0  0  0  0  0  0
   16.5519   69.3950   -7.3057 C   0  0  0  0  0  0  0  0  0  0  0  0
   16.8424   69.1068   -9.2910 H   0  0  0  0  0  0  0  0  0  0  0  0
   23.1733   73.4570   -2.0745 O   0  0  0  0  0  0  0  0  0  0  0  0
   22.5608   72.3050   -1.1198 P   0  0  2  0  0  0  0  0  0  0  0  0
   22.7809   70.9535   -1.9830 O   0  0  0  0  0  0  0  0  0  0  0  0
   21.1399   72.5453   -0.6986 O   0  0  0  0  0  0  0  0  0  0  0  0
   23.6093   72.1842    0.1003 O   0  0  0  0  0  0  0  0  0  0  0  0
   22.8891   73.3477    2.0333 O   0  0  0  0  0  0  0  0  0  0  0  0
   26.7059   72.1970    3.1179 O   0  0  0  0  0  0  0  0  0  0  0  0
   26.1725   73.2121    0.4310 O   0  0  0  0  0  0  0  0  0  0  0  0
   24.3977   70.8012    4.2017 O   0  0  0  0  0  0  0  0  0  0  0  0
   25.4493   72.0790    2.4507 C   0  0  2  0  0  0  0  0  0  0  0  0
   25.2528   73.2721    1.5150 C   0  0  2  0  0  0  0  0  0  0  0  0
   24.3498   72.0503    3.5147 C   0  0  1  0  0  0  0  0  0  0  0  0
   23.8285   73.3021    0.9587 C   0  0  1  0  0  0  0  0  0  0  0  0
   22.9665   72.2111    2.8908 C   0  0  1  0  0  0  0  0  0  0  0  0
   27.4201   72.2173    2.4615 H   0  0  0  0  0  0  0  0  0  0  0  0
   27.0783   73.1924    0.7768 H   0  0  0  0  0  0  0  0  0  0  0  0
   25.2731   70.6864    4.6033 H   0  0  0  0  0  0  0  0  0  0  0  0
   21.1651   73.5551    3.5617 O   0  0  0  0  0  0  0  0  0  0  0  0
   21.8181   71.9021    4.9901 O   0  0  0  0  0  0  0  0  0  0  0  0
   21.9439   72.5107    3.9380 C   0  0  0  0  0  0  0  0  0  0  0  0
  1  4  1  0
  1 24  1  0
  1  2  1  1
  1  3  2  0
 25 28  1  0
 25 24  1  0
 25 26  1  6
 25 27  2  0
  6 11  1  0
  6 12  1  0
 29 36  1  0
 29 37  1  0
  9  7  1  6
  7 13  1  0
 10  8  1  6
  8 14  1  0
  4  5  1  0
 36 28  1  1
 33 30  1  1
 30 38  1  0
 34 31  1  6
 31 39  1  0
 35 32  1  6
 32 40  1  0
 41 43  1  0
 15 19  2  0
 42 43  2  0
 16 22  2  0
 12 17  1  1
 17 19  1  0
 17 20  1  0
 18 19  1  0
 18 22  1  0
 18 23  1  0
  9 10  1  0
  9 11  1  0
 10 12  1  0
 11  5  1  1
 33 34  1  0
 33 35  1  0
 34 36  1  0
 35 37  1  0
 37 43  1  1
 20 21  2  0
 21 22  1  0
M  CHG  3   2  -1  26  -1  41  -1
M  END
>  <COMPND>  (144) 
    udp_gluA.pdb 

>  <AUTHOR>  (144) 
    GENERATED BY OPEN BABEL 3.1.1

>  <MASTER>  (144) 
        0    0    0    0    0    0    0    0   56    0   56    0

>  <minimizedAffinity>  (144) 
-7.43569

>  <CNNscore>  (144) 
0.7335675359

>  <CNNaffinity>  (144) 
4.3566474915

>  <CNN_VS>  (144) 
3.1958951950

>  <CNNaffinity_variance>  (144) 
0.0814969912

$$$$
145
     RDKit          3D

 43 45  0  0  0  0  0  0  0  0999 V2000
   19.9392   71.6379   -1.1761 P   0  0  2  0  0  0  0  0  0  0  0  0
   19.8366   70.0353   -0.9759 O   0  0  0  0  0  0  0  0  0  0  0  0
   18.6417   72.3784   -1.0345 O   0  0  0  0  0  0  0  0  0  0  0  0
   20.6915   71.8044   -2.5989 O   0  0  0  0  0  0  0  0  0  0  0  0
   20.3262   70.9432   -3.6617 C   0  0  0  0  0  0  0  0  0  0  0  0
   20.6635   70.5240   -6.0043 O   0  0  0  0  0  0  0  0  0  0  0  0
   22.2918   73.0419   -6.0302 O   0  0  0  0  0  0  0  0  0  0  0  0
   19.9104   73.8616   -7.0758 O   0  0  0  0  0  0  0  0  0  0  0  0
   21.1121   72.7363   -5.2864 C   0  0  1  0  0  0  0  0  0  0  0  0
   19.9000   72.7590   -6.1934 C   0  0  2  0  0  0  0  0  0  0  0  0
   21.1791   71.2703   -4.8807 C   0  0  1  0  0  0  0  0  0  0  0  0
   20.0231   71.4292   -6.9175 C   0  0  2  0  0  0  0  0  0  0  0  0
   22.2718   73.9737   -6.3006 H   0  0  0  0  0  0  0  0  0  0  0  0
   19.8294   74.6839   -6.5667 H   0  0  0  0  0  0  0  0  0  0  0  0
   19.2772   70.7903   -9.5656 O   0  0  0  0  0  0  0  0  0  0  0  0
   15.1005   69.3627   -8.2385 O   0  0  0  0  0  0  0  0  0  0  0  0
   18.7469   70.8891   -7.2923 N   0  0  0  0  0  0  0  0  0  0  0  0
   17.1973   70.0808   -8.9022 N   0  0  0  0  0  0  0  0  0  0  0  0
   18.4728   70.6033   -8.6507 C   0  0  0  0  0  0  0  0  0  0  0  0
   17.7840   70.6465   -6.3203 C   0  0  0  0  0  0  0  0  0  0  0  0
   16.5726   70.1481   -6.5753 C   0  0  0  0  0  0  0  0  0  0  0  0
   16.2059   69.8229   -7.9693 C   0  0  0  0  0  0  0  0  0  0  0  0
   16.9826   69.8758   -9.8409 H   0  0  0  0  0  0  0  0  0  0  0  0
   21.0777   72.0645   -0.1109 O   0  0  0  0  0  0  0  0  0  0  0  0
   21.6890   73.5129    0.2664 P   0  0  2  0  0  0  0  0  0  0  0  0
   20.4649   74.2421    1.0346 O   0  0  0  0  0  0  0  0  0  0  0  0
   22.2266   74.2791   -0.9074 O   0  0  0  0  0  0  0  0  0  0  0  0
   22.7731   73.2111    1.4223 O   0  0  0  0  0  0  0  0  0  0  0  0
   25.1214   73.0189    1.1825 O   0  0  0  0  0  0  0  0  0  0  0  0
   24.4068   70.5811    4.4405 O   0  0  0  0  0  0  0  0  0  0  0  0
   22.6210   70.5253    2.1292 O   0  0  0  0  0  0  0  0  0  0  0  0
   25.5696   73.2185    4.8187 O   0  0  0  0  0  0  0  0  0  0  0  0
   24.1864   71.6911    3.5702 C   0  0  2  0  0  0  0  0  0  0  0  0
   23.8821   71.1835    2.1605 C   0  0  2  0  0  0  0  0  0  0  0  0
   25.4548   72.5473    3.5653 C   0  0  1  0  0  0  0  0  0  0  0  0
   23.8675   72.3360    1.1553 C   0  0  1  0  0  0  0  0  0  0  0  0
   25.4172   73.5924    2.4540 C   0  0  1  0  0  0  0  0  0  0  0  0
   23.6138   70.0225    4.4595 H   0  0  0  0  0  0  0  0  0  0  0  0
   22.6231   69.7930    2.7648 H   0  0  0  0  0  0  0  0  0  0  0  0
   25.5944   72.5645    5.5346 H   0  0  0  0  0  0  0  0  0  0  0  0
   27.0948   75.0100    3.2772 O   0  0  0  0  0  0  0  0  0  0  0  0
   27.4894   73.9812    1.2809 O   0  0  0  0  0  0  0  0  0  0  0  0
   26.7690   74.1932    2.2449 C   0  0  0  0  0  0  0  0  0  0  0  0
  1  4  1  0
  1 24  1  0
  1  2  1  1
  1  3  2  0
 25 28  1  0
 25 24  1  0
 25 26  1  1
 25 27  2  0
  6 11  1  0
  6 12  1  0
 29 36  1  0
 29 37  1  0
  9  7  1  6
  7 13  1  0
 10  8  1  6
  8 14  1  0
  4  5  1  0
 36 28  1  1
 33 30  1  1
 30 38  1  0
 34 31  1  1
 31 39  1  0
 35 32  1  1
 32 40  1  0
 41 43  1  0
 15 19  2  0
 42 43  2  0
 16 22  2  0
 12 17  1  1
 17 19  1  0
 17 20  1  0
 18 19  1  0
 18 22  1  0
 18 23  1  0
  9 10  1  0
  9 11  1  0
 10 12  1  0
 11  5  1  1
 33 34  1  0
 33 35  1  0
 34 36  1  0
 35 37  1  0
 37 43  1  6
 20 21  2  0
 21 22  1  0
M  CHG  3   2  -1  26  -1  41  -1
M  END
>  <COMPND>  (145) 
    udp_gluA.pdb 

>  <AUTHOR>  (145) 
    GENERATED BY OPEN BABEL 3.1.1

>  <MASTER>  (145) 
        0    0    0    0    0    0    0    0   56    0   56    0

>  <minimizedAffinity>  (145) 
-7.03210

>  <CNNscore>  (145) 
0.6697646976

>  <CNNaffinity>  (145) 
4.4187211990

>  <CNN_VS>  (145) 
2.9595034122

>  <CNNaffinity_variance>  (145) 
0.0417870656

$$$$
146
     RDKit          3D

 43 45  0  0  0  0  0  0  0  0999 V2000
   19.8206   74.0616   -1.4409 P   0  0  2  0  0  0  0  0  0  0  0  0
   18.4715   74.1118   -0.5485 O   0  0  0  0  0  0  0  0  0  0  0  0
   20.0625   75.2733   -2.2924 O   0  0  0  0  0  0  0  0  0  0  0  0
   19.7094   72.6560   -2.2345 O   0  0  0  0  0  0  0  0  0  0  0  0
   19.3353   72.6781   -3.5998 C   0  0  0  0  0  0  0  0  0  0  0  0
   20.0291   71.0000   -5.1747 O   0  0  0  0  0  0  0  0  0  0  0  0
   22.3258   72.8177   -5.8170 O   0  0  0  0  0  0  0  0  0  0  0  0
   20.6087   73.2732   -7.8859 O   0  0  0  0  0  0  0  0  0  0  0  0
   20.9769   73.1484   -5.4856 C   0  0  1  0  0  0  0  0  0  0  0  0
   20.0619   72.8501   -6.6544 C   0  0  2  0  0  0  0  0  0  0  0  0
   20.4926   72.1534   -4.4398 C   0  0  1  0  0  0  0  0  0  0  0  0
   19.9193   71.3402   -6.5659 C   0  0  2  0  0  0  0  0  0  0  0  0
   22.6571   73.4399   -6.4838 H   0  0  0  0  0  0  0  0  0  0  0  0
   20.6790   74.2412   -7.8928 H   0  0  0  0  0  0  0  0  0  0  0  0
   19.3776   70.7743   -9.2794 O   0  0  0  0  0  0  0  0  0  0  0  0
   15.0244   69.5784   -8.3501 O   0  0  0  0  0  0  0  0  0  0  0  0
   18.6529   70.8795   -7.0607 N   0  0  0  0  0  0  0  0  0  0  0  0
   17.2096   70.1802   -8.8141 N   0  0  0  0  0  0  0  0  0  0  0  0
   18.4853   70.6247   -8.4424 C   0  0  0  0  0  0  0  0  0  0  0  0
   17.5947   70.6831   -6.1818 C   0  0  0  0  0  0  0  0  0  0  0  0
   16.3845   70.2589   -6.5509 C   0  0  0  0  0  0  0  0  0  0  0  0
   16.1258   69.9705   -7.9769 C   0  0  0  0  0  0  0  0  0  0  0  0
   17.0683   69.9981   -9.7713 H   0  0  0  0  0  0  0  0  0  0  0  0
   20.9708   73.7693   -0.3434 O   0  0  0  0  0  0  0  0  0  0  0  0
   21.6151   74.7168    0.7971 P   0  0  2  0  0  0  0  0  0  0  0  0
   20.4196   74.8578    1.8794 O   0  0  0  0  0  0  0  0  0  0  0  0
   22.1429   76.0255    0.2847 O   0  0  0  0  0  0  0  0  0  0  0  0
   22.7163   73.7897    1.5254 O   0  0  0  0  0  0  0  0  0  0  0  0
   24.1696   72.5052    0.1664 O   0  0  0  0  0  0  0  0  0  0  0  0
   24.7176   70.7575    3.8696 O   0  0  0  0  0  0  0  0  0  0  0  0
   22.0424   71.5093    2.9682 O   0  0  0  0  0  0  0  0  0  0  0  0
   26.7423   72.5377    2.7823 O   0  0  0  0  0  0  0  0  0  0  0  0
   24.4482   71.8230    2.9584 C   0  0  2  0  0  0  0  0  0  0  0  0
   23.1995   71.4931    2.1402 C   0  0  2  0  0  0  0  0  0  0  0  0
   25.6617   71.9771    2.0389 C   0  0  1  0  0  0  0  0  0  0  0  0
   23.0110   72.4962    1.0013 C   0  0  1  0  0  0  0  0  0  0  0  0
   25.3536   72.8945    0.8590 C   0  0  1  0  0  0  0  0  0  0  0  0
   23.9599   70.6409    4.4642 H   0  0  0  0  0  0  0  0  0  0  0  0
   22.1553   70.8753    3.6932 H   0  0  0  0  0  0  0  0  0  0  0  0
   26.9483   71.9635    3.5363 H   0  0  0  0  0  0  0  0  0  0  0  0
   25.8803   72.3289   -1.3555 O   0  0  0  0  0  0  0  0  0  0  0  0
   27.5896   73.0557   -0.0330 O   0  0  0  0  0  0  0  0  0  0  0  0
   26.4098   72.7802   -0.1916 C   0  0  0  0  0  0  0  0  0  0  0  0
  1  4  1  0
  1 24  1  0
  1  2  1  1
  1  3  2  0
 25 28  1  0
 25 24  1  0
 25 26  1  1
 25 27  2  0
  6 11  1  0
  6 12  1  0
 29 36  1  0
 29 37  1  0
  9  7  1  6
  7 13  1  0
 10  8  1  6
  8 14  1  0
  4  5  1  0
 36 28  1  1
 33 30  1  1
 30 38  1  0
 34 31  1  1
 31 39  1  0
 35 32  1  1
 32 40  1  0
 41 43  1  0
 15 19  2  0
 42 43  2  0
 16 22  2  0
 12 17  1  1
 17 19  1  0
 17 20  1  0
 18 19  1  0
 18 22  1  0
 18 23  1  0
  9 10  1  0
  9 11  1  0
 10 12  1  0
 11  5  1  6
 33 34  1  0
 33 35  1  0
 34 36  1  0
 35 37  1  0
 37 43  1  6
 20 21  2  0
 21 22  1  0
M  CHG  3   2  -1  26  -1  41  -1
M  END
>  <COMPND>  (146) 
    udp_gluA.pdb 

>  <AUTHOR>  (146) 
    GENERATED BY OPEN BABEL 3.1.1

>  <MASTER>  (146) 
        0    0    0    0    0    0    0    0   56    0   56    0

>  <minimizedAffinity>  (146) 
-6.53068

>  <CNNscore>  (146) 
0.6308215857

>  <CNNaffinity>  (146) 
4.3854799271

>  <CNN_VS>  (146) 
2.7664554119

>  <CNNaffinity_variance>  (146) 
0.0558455363

$$$$
147
     RDKit          3D

 43 45  0  0  0  0  0  0  0  0999 V2000
   19.7477   72.1853   -1.5468 P   0  0  2  0  0  0  0  0  0  0  0  0
   18.9409   70.8644   -1.0745 O   0  0  0  0  0  0  0  0  0  0  0  0
   19.1968   73.4824   -1.0311 O   0  0  0  0  0  0  0  0  0  0  0  0
   19.8182   72.0426   -3.1569 O   0  0  0  0  0  0  0  0  0  0  0  0
   19.3918   73.1339   -3.9518 C   0  0  0  0  0  0  0  0  0  0  0  0
   20.1186   72.1774   -6.0337 O   0  0  0  0  0  0  0  0  0  0  0  0
   21.2872   74.8696   -6.6486 O   0  0  0  0  0  0  0  0  0  0  0  0
   18.9714   74.8822   -8.0885 O   0  0  0  0  0  0  0  0  0  0  0  0
   20.0836   74.5444   -5.9528 C   0  0  1  0  0  0  0  0  0  0  0  0
   19.0237   74.0785   -6.9284 C   0  0  2  0  0  0  0  0  0  0  0  0
   20.3391   73.2859   -5.1349 C   0  0  1  0  0  0  0  0  0  0  0  0
   19.4688   72.6560   -7.2220 C   0  0  2  0  0  0  0  0  0  0  0  0
   21.1484   75.6707   -7.1784 H   0  0  0  0  0  0  0  0  0  0  0  0
   18.6828   75.7773   -7.8490 H   0  0  0  0  0  0  0  0  0  0  0  0
   19.4071   70.8773   -9.4150 O   0  0  0  0  0  0  0  0  0  0  0  0
   15.1881   69.3811   -8.3168 O   0  0  0  0  0  0  0  0  0  0  0  0
   18.3668   71.7900   -7.5326 N   0  0  0  0  0  0  0  0  0  0  0  0
   17.3055   70.1345   -8.8665 N   0  0  0  0  0  0  0  0  0  0  0  0
   18.4365   70.9347   -8.6576 C   0  0  0  0  0  0  0  0  0  0  0  0
   17.2346   71.7921   -6.7270 C   0  0  0  0  0  0  0  0  0  0  0  0
   16.1644   71.0237   -6.9387 C   0  0  0  0  0  0  0  0  0  0  0  0
   16.1560   70.1020   -8.0937 C   0  0  0  0  0  0  0  0  0  0  0  0
   17.3298   69.5322   -9.6449 H   0  0  0  0  0  0  0  0  0  0  0  0
   21.2645   71.8678   -1.0871 O   0  0  0  0  0  0  0  0  0  0  0  0
   22.6795   72.1956   -1.7971 P   0  0  2  0  0  0  0  0  0  0  0  0
   22.4595   73.6858   -2.3897 O   0  0  0  0  0  0  0  0  0  0  0  0
   23.1058   71.1808   -2.8182 O   0  0  0  0  0  0  0  0  0  0  0  0
   23.7147   72.3918   -0.5755 O   0  0  0  0  0  0  0  0  0  0  0  0
   23.1869   72.4227    1.7331 O   0  0  0  0  0  0  0  0  0  0  0  0
   26.6014   74.7458    1.6202 O   0  0  0  0  0  0  0  0  0  0  0  0
   24.5389   75.0441   -0.4272 O   0  0  0  0  0  0  0  0  0  0  0  0
   26.7264   72.0150    2.6093 O   0  0  0  0  0  0  0  0  0  0  0  0
   25.7236   73.6984    1.2073 C   0  0  2  0  0  0  0  0  0  0  0  0
   24.3846   74.2945    0.7724 C   0  0  2  0  0  0  0  0  0  0  0  0
   25.5248   72.7527    2.3940 C   0  0  1  0  0  0  0  0  0  0  0  0
   23.3454   73.1962    0.5431 C   0  0  1  0  0  0  0  0  0  0  0  0
   24.3875   71.7682    2.1373 C   0  0  1  0  0  0  0  0  0  0  0  0
   26.7424   75.3594    0.8820 H   0  0  0  0  0  0  0  0  0  0  0  0
   25.1972   75.7427   -0.2890 H   0  0  0  0  0  0  0  0  0  0  0  0
   27.4583   72.6300    2.7737 H   0  0  0  0  0  0  0  0  0  0  0  0
   22.6557   70.8150    3.3999 O   0  0  0  0  0  0  0  0  0  0  0  0
   24.7442   70.7920    4.3147 O   0  0  0  0  0  0  0  0  0  0  0  0
   23.9855   71.0808    3.4015 C   0  0  0  0  0  0  0  0  0  0  0  0
  1  4  1  0
  1 24  1  0
  1  2  1  1
  1  3  2  0
 25 28  1  0
 25 24  1  0
 25 26  1  6
 25 27  2  0
  6 11  1  0
  6 12  1  0
 29 36  1  0
 29 37  1  0
  9  7  1  6
  7 13  1  0
 10  8  1  6
  8 14  1  0
  4  5  1  0
 36 28  1  6
 33 30  1  1
 30 38  1  0
 34 31  1  6
 31 39  1  0
 35 32  1  6
 32 40  1  0
 41 43  1  0
 15 19  2  0
 42 43  2  0
 16 22  2  0
 12 17  1  1
 17 19  1  0
 17 20  1  0
 18 19  1  0
 18 22  1  0
 18 23  1  0
  9 10  1  0
  9 11  1  0
 10 12  1  0
 11  5  1  1
 33 34  1  0
 33 35  1  0
 34 36  1  0
 35 37  1  0
 37 43  1  1
 20 21  2  0
 21 22  1  0
M  CHG  3   2  -1  26  -1  41  -1
M  END
>  <COMPND>  (147) 
    udp_gluA.pdb 

>  <AUTHOR>  (147) 
    GENERATED BY OPEN BABEL 3.1.1

>  <MASTER>  (147) 
        0    0    0    0    0    0    0    0   56    0   56    0

>  <minimizedAffinity>  (147) 
-6.55428

>  <CNNscore>  (147) 
0.6300160885

>  <CNNaffinity>  (147) 
4.4015030861

>  <CNN_VS>  (147) 
2.7730176449

>  <CNNaffinity_variance>  (147) 
0.1186707020

$$$$
148
     RDKit          3D

 43 45  0  0  0  0  0  0  0  0999 V2000
   23.1410   73.4214   -3.7071 P   0  0  2  0  0  0  0  0  0  0  0  0
   23.4342   74.9310   -4.2113 O   0  0  0  0  0  0  0  0  0  0  0  0
   24.1859   72.4130   -4.0852 O   0  0  0  0  0  0  0  0  0  0  0  0
   21.6446   73.1170   -4.2418 O   0  0  0  0  0  0  0  0  0  0  0  0
   21.4630   72.0811   -5.1898 C   0  0  0  0  0  0  0  0  0  0  0  0
   20.8805   71.7860   -7.5030 O   0  0  0  0  0  0  0  0  0  0  0  0
   21.4955   74.7017   -7.8374 O   0  0  0  0  0  0  0  0  0  0  0  0
   18.7715   74.6779   -7.7115 O   0  0  0  0  0  0  0  0  0  0  0  0
   20.8986   74.0252   -6.7307 C   0  0  1  0  0  0  0  0  0  0  0  0
   19.4721   73.6390   -7.0599 C   0  0  2  0  0  0  0  0  0  0  0  0
   21.5724   72.6669   -6.5917 C   0  0  1  0  0  0  0  0  0  0  0  0
   19.6716   72.4221   -7.9472 C   0  0  2  0  0  0  0  0  0  0  0  0
   21.0811   75.5724   -7.9461 H   0  0  0  0  0  0  0  0  0  0  0  0
   18.6701   75.4291   -7.1054 H   0  0  0  0  0  0  0  0  0  0  0  0
   18.8559   70.6952  -10.0278 O   0  0  0  0  0  0  0  0  0  0  0  0
   15.4988   68.8744   -7.4474 O   0  0  0  0  0  0  0  0  0  0  0  0
   18.5874   71.4866   -7.8461 N   0  0  0  0  0  0  0  0  0  0  0  0
   17.1840   69.7907   -8.7410 N   0  0  0  0  0  0  0  0  0  0  0  0
   18.2587   70.6650   -8.9502 C   0  0  0  0  0  0  0  0  0  0  0  0
   17.8639   71.3886   -6.6638 C   0  0  0  0  0  0  0  0  0  0  0  0
   16.8421   70.5503   -6.4794 C   0  0  0  0  0  0  0  0  0  0  0  0
   16.4339   69.6576   -7.5838 C   0  0  0  0  0  0  0  0  0  0  0  0
   16.9353   69.2100   -9.4962 H   0  0  0  0  0  0  0  0  0  0  0  0
   22.9277   73.6055   -2.1154 O   0  0  0  0  0  0  0  0  0  0  0  0
   22.1752   72.6726   -1.0304 P   0  0  2  0  0  0  0  0  0  0  0  0
   22.1902   73.5791    0.3106 O   0  0  0  0  0  0  0  0  0  0  0  0
   22.7832   71.3102   -0.8627 O   0  0  0  0  0  0  0  0  0  0  0  0
   20.6315   72.6638   -1.4988 O   0  0  0  0  0  0  0  0  0  0  0  0
   18.5738   72.7749   -0.3315 O   0  0  0  0  0  0  0  0  0  0  0  0
   17.6861   70.0939   -3.3469 O   0  0  0  0  0  0  0  0  0  0  0  0
   20.2409   69.9452   -1.9378 O   0  0  0  0  0  0  0  0  0  0  0  0
   16.7138   72.8296   -3.4937 O   0  0  0  0  0  0  0  0  0  0  0  0
   18.3391   71.2142   -2.7496 C   0  0  2  0  0  0  0  0  0  0  0  0
   19.1401   70.7506   -1.5326 C   0  0  2  0  0  0  0  0  0  0  0  0
   17.2643   72.2187   -2.3283 C   0  0  1  0  0  0  0  0  0  0  0  0
   19.6641   71.9456   -0.7351 C   0  0  1  0  0  0  0  0  0  0  0  0
   17.8425   73.3102   -1.4323 C   0  0  1  0  0  0  0  0  0  0  0  0
   18.3496   69.4419   -3.6226 H   0  0  0  0  0  0  0  0  0  0  0  0
   19.9156   69.1852   -2.4446 H   0  0  0  0  0  0  0  0  0  0  0  0
   16.3425   72.1456   -4.0726 H   0  0  0  0  0  0  0  0  0  0  0  0
   16.7178   73.8155    0.5630 O   0  0  0  0  0  0  0  0  0  0  0  0
   15.9906   74.8536   -1.3324 O   0  0  0  0  0  0  0  0  0  0  0  0
   16.7511   74.0830   -0.7660 C   0  0  0  0  0  0  0  0  0  0  0  0
  1  4  1  0
  1 24  1  0
  1  2  1  6
  1  3  2  0
 25 28  1  0
 25 24  1  0
 25 26  1  1
 25 27  2  0
  6 11  1  0
  6 12  1  0
 29 36  1  0
 29 37  1  0
  9  7  1  6
  7 13  1  0
 10  8  1  6
  8 14  1  0
  4  5  1  0
 36 28  1  6
 33 30  1  1
 30 38  1  0
 34 31  1  6
 31 39  1  0
 35 32  1  6
 32 40  1  0
 41 43  1  0
 15 19  2  0
 42 43  2  0
 16 22  2  0
 12 17  1  1
 17 19  1  0
 17 20  1  0
 18 19  1  0
 18 22  1  0
 18 23  1  0
  9 10  1  0
  9 11  1  0
 10 12  1  0
 11  5  1  1
 33 34  1  0
 33 35  1  0
 34 36  1  0
 35 37  1  0
 37 43  1  1
 20 21  2  0
 21 22  1  0
M  CHG  3   2  -1  26  -1  41  -1
M  END
>  <COMPND>  (148) 
    udp_gluA.pdb 

>  <AUTHOR>  (148) 
    GENERATED BY OPEN BABEL 3.1.1

>  <MASTER>  (148) 
        0    0    0    0    0    0    0    0   56    0   56    0

>  <minimizedAffinity>  (148) 
-6.31365

>  <CNNscore>  (148) 
0.6267538071

>  <CNNaffinity>  (148) 
4.2127828598

>  <CNN_VS>  (148) 
2.6403777599

>  <CNNaffinity_variance>  (148) 
0.2627528310

$$$$
149
     RDKit          3D

 43 45  0  0  0  0  0  0  0  0999 V2000
   25.4733   72.7650    2.8898 P   0  0  2  0  0  0  0  0  0  0  0  0
   24.2856   73.8529    2.7318 O   0  0  0  0  0  0  0  0  0  0  0  0
   25.2154   71.6882    3.9026 O   0  0  0  0  0  0  0  0  0  0  0  0
   26.7937   73.6654    3.1423 O   0  0  0  0  0  0  0  0  0  0  0  0
   28.0553   73.0232    3.1675 C   0  0  0  0  0  0  0  0  0  0  0  0
   29.9068   72.5017    4.6089 O   0  0  0  0  0  0  0  0  0  0  0  0
   28.3692   73.8898    6.7770 O   0  0  0  0  0  0  0  0  0  0  0  0
   30.1864   75.7811    6.0307 O   0  0  0  0  0  0  0  0  0  0  0  0
   28.4529   74.2025    5.3864 C   0  0  1  0  0  0  0  0  0  0  0  0
   29.7968   74.8233    5.0687 C   0  0  2  0  0  0  0  0  0  0  0  0
   28.5165   72.8923    4.6133 C   0  0  1  0  0  0  0  0  0  0  0  0
   30.7089   73.6086    5.0502 C   0  0  2  0  0  0  0  0  0  0  0  0
   28.3275   74.7115    7.2915 H   0  0  0  0  0  0  0  0  0  0  0  0
   29.5751   76.5344    6.0029 H   0  0  0  0  0  0  0  0  0  0  0  0
   33.0740   72.0679    5.1443 O   0  0  0  0  0  0  0  0  0  0  0  0
   34.8961   74.3124    1.5545 O   0  0  0  0  0  0  0  0  0  0  0  0
   31.8173   73.7693    4.1521 N   0  0  0  0  0  0  0  0  0  0  0  0
   33.9797   73.1879    3.3569 N   0  0  0  0  0  0  0  0  0  0  0  0
   32.9589   72.9439    4.2850 C   0  0  0  0  0  0  0  0  0  0  0  0
   31.7663   74.7338    3.1531 C   0  0  0  0  0  0  0  0  0  0  0  0
   32.7472   74.9546    2.2757 C   0  0  0  0  0  0  0  0  0  0  0  0
   33.9752   74.1358    2.3464 C   0  0  0  0  0  0  0  0  0  0  0  0
   34.7855   72.6271    3.4309 H   0  0  0  0  0  0  0  0  0  0  0  0
   25.6806   72.2319    1.3780 O   0  0  0  0  0  0  0  0  0  0  0  0
   25.8439   73.0327   -0.0169 P   0  0  2  0  0  0  0  0  0  0  0  0
   27.1711   72.3738   -0.6685 O   0  0  0  0  0  0  0  0  0  0  0  0
   25.9044   74.5253    0.1334 O   0  0  0  0  0  0  0  0  0  0  0  0
   24.6311   72.5013   -0.9383 O   0  0  0  0  0  0  0  0  0  0  0  0
   23.1401   73.6255   -2.3951 O   0  0  0  0  0  0  0  0  0  0  0  0
   20.7118   70.6792   -0.8168 O   0  0  0  0  0  0  0  0  0  0  0  0
   22.5727   72.1402    0.8971 O   0  0  0  0  0  0  0  0  0  0  0  0
   21.7381   70.4286   -3.5251 O   0  0  0  0  0  0  0  0  0  0  0  0
   21.9377   71.2533   -1.2701 C   0  0  2  0  0  0  0  0  0  0  0  0
   22.2561   72.4991   -0.4429 C   0  0  2  0  0  0  0  0  0  0  0  0
   21.7698   71.6227   -2.7456 C   0  0  1  0  0  0  0  0  0  0  0  0
   23.4332   73.2686   -1.0438 C   0  0  1  0  0  0  0  0  0  0  0  0
   22.9219   72.4949   -3.2361 C   0  0  1  0  0  0  0  0  0  0  0  0
   20.7947   70.4365    0.1189 H   0  0  0  0  0  0  0  0  0  0  0  0
   21.8301   71.6513    1.2844 H   0  0  0  0  0  0  0  0  0  0  0  0
   21.0093   69.8645   -3.2228 H   0  0  0  0  0  0  0  0  0  0  0  0
   22.6511   74.4685   -4.4743 O   0  0  0  0  0  0  0  0  0  0  0  0
   22.3117   72.4981   -5.5705 O   0  0  0  0  0  0  0  0  0  0  0  0
   22.5930   73.1160   -4.5546 C   0  0  0  0  0  0  0  0  0  0  0  0
  1  4  1  0
  1 24  1  0
  1  2  1  6
  1  3  2  0
 25 28  1  0
 25 24  1  0
 25 26  1  6
 25 27  2  0
  6 11  1  0
  6 12  1  0
 29 36  1  0
 29 37  1  0
  9  7  1  1
  7 13  1  0
 10  8  1  1
  8 14  1  0
  4  5  1  0
 36 28  1  6
 33 30  1  1
 30 38  1  0
 34 31  1  1
 31 39  1  0
 35 32  1  6
 32 40  1  0
 41 43  1  0
 15 19  2  0
 42 43  2  0
 16 22  2  0
 12 17  1  6
 17 19  1  0
 17 20  1  0
 18 19  1  0
 18 22  1  0
 18 23  1  0
  9 10  1  0
  9 11  1  0
 10 12  1  0
 11  5  1  6
 33 34  1  0
 33 35  1  0
 34 36  1  0
 35 37  1  0
 37 43  1  6
 20 21  2  0
 21 22  1  0
M  CHG  3   2  -1  26  -1  41  -1
M  END
>  <COMPND>  (149) 
    udp_gluA.pdb 

>  <AUTHOR>  (149) 
    GENERATED BY OPEN BABEL 3.1.1

>  <MASTER>  (149) 
        0    0    0    0    0    0    0    0   56    0   56    0

>  <minimizedAffinity>  (149) 
-6.06631

>  <CNNscore>  (149) 
0.5044100285

>  <CNNaffinity>  (149) 
4.0261321068

>  <CNN_VS>  (149) 
2.0308213234

>  <CNNaffinity_variance>  (149) 
0.2209043503

$$$$
150
     RDKit          3D

 43 45  0  0  0  0  0  0  0  0999 V2000
   19.9308   73.4096   -2.3111 P   0  0  2  0  0  0  0  0  0  0  0  0
   18.6166   72.4699   -2.2167 O   0  0  0  0  0  0  0  0  0  0  0  0
   19.6670   74.8818   -2.1888 O   0  0  0  0  0  0  0  0  0  0  0  0
   20.6494   72.9360   -3.6812 O   0  0  0  0  0  0  0  0  0  0  0  0
   19.8801   72.8948   -4.8690 C   0  0  0  0  0  0  0  0  0  0  0  0
   18.9514   70.9898   -6.0033 O   0  0  0  0  0  0  0  0  0  0  0  0
   21.6591   70.6426   -7.2441 O   0  0  0  0  0  0  0  0  0  0  0  0
   20.2381   71.8398   -9.2400 O   0  0  0  0  0  0  0  0  0  0  0  0
   20.9617   71.8452   -6.9186 C   0  0  1  0  0  0  0  0  0  0  0  0
   19.8403   72.0847   -7.9072 C   0  0  2  0  0  0  0  0  0  0  0  0
   20.1988   71.6097   -5.6222 C   0  0  1  0  0  0  0  0  0  0  0  0
   18.7807   71.1088   -7.4246 C   0  0  2  0  0  0  0  0  0  0  0  0
   22.1542   70.7687   -8.0691 H   0  0  0  0  0  0  0  0  0  0  0  0
   20.9131   72.4870   -9.4999 H   0  0  0  0  0  0  0  0  0  0  0  0
   16.5768   69.4097   -7.9066 O   0  0  0  0  0  0  0  0  0  0  0  0
   13.7138   72.9788   -8.4627 O   0  0  0  0  0  0  0  0  0  0  0  0
   17.4481   71.5675   -7.6980 N   0  0  0  0  0  0  0  0  0  0  0  0
   15.1532   71.1890   -8.1841 N   0  0  0  0  0  0  0  0  0  0  0  0
   16.4123   70.6310   -7.9264 C   0  0  0  0  0  0  0  0  0  0  0  0
   17.1777   72.9299   -7.7361 C   0  0  0  0  0  0  0  0  0  0  0  0
   15.9724   73.4467   -7.9829 C   0  0  0  0  0  0  0  0  0  0  0  0
   14.8354   72.5366   -8.2331 C   0  0  0  0  0  0  0  0  0  0  0  0
   14.4165   70.5567   -8.3482 H   0  0  0  0  0  0  0  0  0  0  0  0
   20.8952   72.8009   -1.1657 O   0  0  0  0  0  0  0  0  0  0  0  0
   21.3363   71.2782   -0.8484 P   0  0  2  0  0  0  0  0  0  0  0  0
   22.5416   71.0163   -1.8968 O   0  0  0  0  0  0  0  0  0  0  0  0
   20.2161   70.2823   -0.9327 O   0  0  0  0  0  0  0  0  0  0  0  0
   22.0587   71.3531    0.5921 O   0  0  0  0  0  0  0  0  0  0  0  0
   22.1013   72.8574    2.4208 O   0  0  0  0  0  0  0  0  0  0  0  0
   26.0977   71.8809    2.0423 O   0  0  0  0  0  0  0  0  0  0  0  0
   24.4681   72.3952   -0.3271 O   0  0  0  0  0  0  0  0  0  0  0  0
   24.5120   70.7319    4.1909 O   0  0  0  0  0  0  0  0  0  0  0  0
   24.6894   71.6574    1.9734 C   0  0  2  0  0  0  0  0  0  0  0  0
   24.0583   72.6621    1.0091 C   0  0  2  0  0  0  0  0  0  0  0  0
   24.1130   71.8354    3.3799 C   0  0  1  0  0  0  0  0  0  0  0  0
   22.5318   72.6062    1.0825 C   0  0  1  0  0  0  0  0  0  0  0  0
   22.5885   71.8953    3.3537 C   0  0  1  0  0  0  0  0  0  0  0  0
   26.4859   71.7733    1.1597 H   0  0  0  0  0  0  0  0  0  0  0  0
   25.4357   72.4288   -0.3810 H   0  0  0  0  0  0  0  0  0  0  0  0
   25.4804   70.6824    4.2158 H   0  0  0  0  0  0  0  0  0  0  0  0
   23.0568   72.8781    5.4312 O   0  0  0  0  0  0  0  0  0  0  0  0
   20.8786   72.3698    4.9885 O   0  0  0  0  0  0  0  0  0  0  0  0
   22.0546   72.3922    4.6577 C   0  0  0  0  0  0  0  0  0  0  0  0
  1  4  1  0
  1 24  1  0
  1  2  1  1
  1  3  2  0
 25 28  1  0
 25 24  1  0
 25 26  1  6
 25 27  2  0
  6 11  1  0
  6 12  1  0
 29 36  1  0
 29 37  1  0
  9  7  1  6
  7 13  1  0
 10  8  1  6
  8 14  1  0
  4  5  1  0
 36 28  1  1
 33 30  1  1
 30 38  1  0
 34 31  1  6
 31 39  1  0
 35 32  1  1
 32 40  1  0
 41 43  1  0
 15 19  2  0
 42 43  2  0
 16 22  2  0
 12 17  1  1
 17 19  1  0
 17 20  1  0
 18 19  1  0
 18 22  1  0
 18 23  1  0
  9 10  1  0
  9 11  1  0
 10 12  1  0
 11  5  1  6
 33 34  1  0
 33 35  1  0
 34 36  1  0
 35 37  1  0
 37 43  1  1
 20 21  2  0
 21 22  1  0
M  CHG  3   2  -1  26  -1  41  -1
M  END
>  <COMPND>  (150) 
    udp_gluA.pdb 

>  <AUTHOR>  (150) 
    GENERATED BY OPEN BABEL 3.1.1

>  <MASTER>  (150) 
        0    0    0    0    0    0    0    0   56    0   56    0

>  <minimizedAffinity>  (150) 
-7.02944

>  <CNNscore>  (150) 
0.4959158301

>  <CNNaffinity>  (150) 
4.1953825951

>  <CNN_VS>  (150) 
2.0805566311

>  <CNNaffinity_variance>  (150) 
0.0388646312

$$$$
151
     RDKit          3D

 43 45  0  0  0  0  0  0  0  0999 V2000
   22.0592   74.3627   -4.1437 P   0  0  2  0  0  0  0  0  0  0  0  0
   20.6386   75.0491   -3.7834 O   0  0  0  0  0  0  0  0  0  0  0  0
   23.2113   75.3165   -4.2643 O   0  0  0  0  0  0  0  0  0  0  0  0
   21.7399   73.4766   -5.4594 O   0  0  0  0  0  0  0  0  0  0  0  0
   20.4541   72.8986   -5.5896 C   0  0  0  0  0  0  0  0  0  0  0  0
   19.2778   70.9193   -6.2799 O   0  0  0  0  0  0  0  0  0  0  0  0
   21.7555   70.2058   -7.8106 O   0  0  0  0  0  0  0  0  0  0  0  0
   20.1196   71.1976   -9.7538 O   0  0  0  0  0  0  0  0  0  0  0  0
   21.1729   71.4890   -7.5818 C   0  0  1  0  0  0  0  0  0  0  0  0
   19.9326   71.6608   -8.4328 C   0  0  2  0  0  0  0  0  0  0  0  0
   20.5962   71.4985   -6.1726 C   0  0  1  0  0  0  0  0  0  0  0  0
   18.9079   70.8424   -7.6658 C   0  0  2  0  0  0  0  0  0  0  0  0
   22.1308   70.1755   -8.7050 H   0  0  0  0  0  0  0  0  0  0  0  0
   20.7804   71.7510  -10.1999 H   0  0  0  0  0  0  0  0  0  0  0  0
   16.6133   69.2248   -7.9731 O   0  0  0  0  0  0  0  0  0  0  0  0
   13.8400   72.8953   -8.2567 O   0  0  0  0  0  0  0  0  0  0  0  0
   17.5739   71.3492   -7.8218 N   0  0  0  0  0  0  0  0  0  0  0  0
   15.2343   71.0545   -8.1151 N   0  0  0  0  0  0  0  0  0  0  0  0
   16.4904   70.4511   -7.9692 C   0  0  0  0  0  0  0  0  0  0  0  0
   17.3489   72.7204   -7.8262 C   0  0  0  0  0  0  0  0  0  0  0  0
   16.1459   73.2807   -7.9660 C   0  0  0  0  0  0  0  0  0  0  0  0
   14.9609   72.4127   -8.1263 C   0  0  0  0  0  0  0  0  0  0  0  0
   14.4649   70.4496   -8.2214 H   0  0  0  0  0  0  0  0  0  0  0  0
   22.2271   73.2469   -2.9862 O   0  0  0  0  0  0  0  0  0  0  0  0
   23.1601   71.9289   -2.9097 P   0  0  2  0  0  0  0  0  0  0  0  0
   24.3128   72.2276   -4.0063 O   0  0  0  0  0  0  0  0  0  0  0  0
   22.4225   70.6389   -3.1237 O   0  0  0  0  0  0  0  0  0  0  0  0
   23.9124   72.0420   -1.4871 O   0  0  0  0  0  0  0  0  0  0  0  0
   23.1211   72.1299    0.7434 O   0  0  0  0  0  0  0  0  0  0  0  0
   26.3571   74.6936    0.8977 O   0  0  0  0  0  0  0  0  0  0  0  0
   24.5287   74.7521   -1.3801 O   0  0  0  0  0  0  0  0  0  0  0  0
   26.5556   72.0235    2.0298 O   0  0  0  0  0  0  0  0  0  0  0  0
   25.6072   73.5676    0.4420 C   0  0  2  0  0  0  0  0  0  0  0  0
   24.2893   74.0438   -0.1694 C   0  0  2  0  0  0  0  0  0  0  0  0
   25.3387   72.6601    1.6447 C   0  0  1  0  0  0  0  0  0  0  0  0
   23.3619   72.8627   -0.4585 C   0  0  1  0  0  0  0  0  0  0  0  0
   24.3094   71.5840    1.3118 C   0  0  1  0  0  0  0  0  0  0  0  0
   26.5395   75.2847    0.1503 H   0  0  0  0  0  0  0  0  0  0  0  0
   25.1168   75.5028   -1.2041 H   0  0  0  0  0  0  0  0  0  0  0  0
   27.2194   72.6975    2.2442 H   0  0  0  0  0  0  0  0  0  0  0  0
   24.5348   71.3219    3.6317 O   0  0  0  0  0  0  0  0  0  0  0  0
   22.8835   70.1302    2.6059 O   0  0  0  0  0  0  0  0  0  0  0  0
   23.8128   70.9220    2.5557 C   0  0  0  0  0  0  0  0  0  0  0  0
  1  4  1  0
  1 24  1  0
  1  2  1  1
  1  3  2  0
 25 28  1  0
 25 24  1  0
 25 26  1  6
 25 27  2  0
  6 11  1  0
  6 12  1  0
 29 36  1  0
 29 37  1  0
  9  7  1  6
  7 13  1  0
 10  8  1  6
  8 14  1  0
  4  5  1  0
 36 28  1  6
 33 30  1  1
 30 38  1  0
 34 31  1  6
 31 39  1  0
 35 32  1  6
 32 40  1  0
 41 43  1  0
 15 19  2  0
 42 43  2  0
 16 22  2  0
 12 17  1  1
 17 19  1  0
 17 20  1  0
 18 19  1  0
 18 22  1  0
 18 23  1  0
  9 10  1  0
  9 11  1  0
 10 12  1  0
 11  5  1  6
 33 34  1  0
 33 35  1  0
 34 36  1  0
 35 37  1  0
 37 43  1  1
 20 21  2  0
 21 22  1  0
M  CHG  3   2  -1  26  -1  41  -1
M  END
>  <COMPND>  (151) 
    udp_gluA.pdb 

>  <AUTHOR>  (151) 
    GENERATED BY OPEN BABEL 3.1.1

>  <MASTER>  (151) 
        0    0    0    0    0    0    0    0   56    0   56    0

>  <minimizedAffinity>  (151) 
-7.30698

>  <CNNscore>  (151) 
0.4708832502

>  <CNNaffinity>  (151) 
4.3259277344

>  <CNN_VS>  (151) 
2.0370068550

>  <CNNaffinity_variance>  (151) 
0.0245477036

$$$$
152
     RDKit          3D

 43 45  0  0  0  0  0  0  0  0999 V2000
   22.9992   73.2748   -3.2862 P   0  0  2  0  0  0  0  0  0  0  0  0
   22.5445   74.8277   -3.3140 O   0  0  0  0  0  0  0  0  0  0  0  0
   24.1739   72.9429   -4.1589 O   0  0  0  0  0  0  0  0  0  0  0  0
   21.6355   72.4648   -3.6057 O   0  0  0  0  0  0  0  0  0  0  0  0
   20.7143   73.0268   -4.5223 C   0  0  0  0  0  0  0  0  0  0  0  0
   18.3253   73.0825   -4.7819 O   0  0  0  0  0  0  0  0  0  0  0  0
   18.1814   72.8183   -1.7985 O   0  0  0  0  0  0  0  0  0  0  0  0
   17.6691   70.2779   -2.6470 O   0  0  0  0  0  0  0  0  0  0  0  0
   19.1097   72.2356   -2.7135 C   0  0  1  0  0  0  0  0  0  0  0  0
   18.4523   71.1073   -3.4796 C   0  0  2  0  0  0  0  0  0  0  0  0
   19.3842   73.2508   -3.8146 C   0  0  1  0  0  0  0  0  0  0  0  0
   17.6202   71.8628   -4.5017 C   0  0  2  0  0  0  0  0  0  0  0  0
   17.9905   72.1881   -1.0857 H   0  0  0  0  0  0  0  0  0  0  0  0
   18.2447   69.8189   -2.0145 H   0  0  0  0  0  0  0  0  0  0  0  0
   15.7748   69.7544   -4.8564 O   0  0  0  0  0  0  0  0  0  0  0  0
   17.0680   69.1156   -9.2340 O   0  0  0  0  0  0  0  0  0  0  0  0
   17.4537   71.1283   -5.7238 N   0  0  0  0  0  0  0  0  0  0  0  0
   16.4214   69.4376   -7.0361 N   0  0  0  0  0  0  0  0  0  0  0  0
   16.4985   70.0870   -5.7970 C   0  0  0  0  0  0  0  0  0  0  0  0
   18.2298   71.4423   -6.8329 C   0  0  0  0  0  0  0  0  0  0  0  0
   18.1449   70.8143   -8.0073 C   0  0  0  0  0  0  0  0  0  0  0  0
   17.1721   69.7136   -8.1673 C   0  0  0  0  0  0  0  0  0  0  0  0
   15.7649   68.7077   -7.1107 H   0  0  0  0  0  0  0  0  0  0  0  0
   23.2292   72.9922   -1.7114 O   0  0  0  0  0  0  0  0  0  0  0  0
   22.1778   72.8806   -0.4884 P   0  0  2  0  0  0  0  0  0  0  0  0
   21.6835   71.3411   -0.5649 O   0  0  0  0  0  0  0  0  0  0  0  0
   21.0674   73.8898   -0.5369 O   0  0  0  0  0  0  0  0  0  0  0  0
   23.0882   72.9503    0.8416 O   0  0  0  0  0  0  0  0  0  0  0  0
   25.4030   72.6010    1.2000 O   0  0  0  0  0  0  0  0  0  0  0  0
   23.7745   71.0758    4.6771 O   0  0  0  0  0  0  0  0  0  0  0  0
   22.5247   70.5312    2.0933 O   0  0  0  0  0  0  0  0  0  0  0  0
   25.0848   73.6708    4.6952 O   0  0  0  0  0  0  0  0  0  0  0  0
   23.8550   71.9456    3.5479 C   0  0  2  0  0  0  0  0  0  0  0  0
   23.8090   71.1202    2.2618 C   0  0  2  0  0  0  0  0  0  0  0  0
   25.1736   72.7171    3.6383 C   0  0  1  0  0  0  0  0  0  0  0  0
   24.1224   71.9888    1.0428 C   0  0  1  0  0  0  0  0  0  0  0  0
   25.4766   73.4565    2.3383 C   0  0  1  0  0  0  0  0  0  0  0  0
   22.9444   70.5749    4.6410 H   0  0  0  0  0  0  0  0  0  0  0  0
   22.3192   69.9789    2.8634 H   0  0  0  0  0  0  0  0  0  0  0  0
   24.8921   73.2131    5.5284 H   0  0  0  0  0  0  0  0  0  0  0  0
   27.2839   74.2070    1.0452 O   0  0  0  0  0  0  0  0  0  0  0  0
   27.6110   74.0470    3.2961 O   0  0  0  0  0  0  0  0  0  0  0  0
   26.8946   73.9266    2.3136 C   0  0  0  0  0  0  0  0  0  0  0  0
  1  4  1  0
  1 24  1  0
  1  2  1  1
  1  3  2  0
 25 28  1  0
 25 24  1  0
 25 26  1  6
 25 27  2  0
  6 11  1  0
  6 12  1  0
 29 36  1  0
 29 37  1  0
  9  7  1  1
  7 13  1  0
 10  8  1  1
  8 14  1  0
  4  5  1  0
 36 28  1  1
 33 30  1  1
 30 38  1  0
 34 31  1  6
 31 39  1  0
 35 32  1  1
 32 40  1  0
 41 43  1  0
 15 19  2  0
 42 43  2  0
 16 22  2  0
 12 17  1  6
 17 19  1  0
 17 20  1  0
 18 19  1  0
 18 22  1  0
 18 23  1  0
  9 10  1  0
  9 11  1  0
 10 12  1  0
 11  5  1  6
 33 34  1  0
 33 35  1  0
 34 36  1  0
 35 37  1  0
 37 43  1  1
 20 21  2  0
 21 22  1  0
M  CHG  3   2  -1  26  -1  41  -1
M  END
>  <COMPND>  (152) 
    udp_gluA.pdb 

>  <AUTHOR>  (152) 
    GENERATED BY OPEN BABEL 3.1.1

>  <MASTER>  (152) 
        0    0    0    0    0    0    0    0   56    0   56    0

>  <minimizedAffinity>  (152) 
-6.26220

>  <CNNscore>  (152) 
0.4266127944

>  <CNNaffinity>  (152) 
4.1891946793

>  <CNN_VS>  (152) 
1.7871640921

>  <CNNaffinity_variance>  (152) 
0.0271541532

$$$$
153
     RDKit          3D

 43 45  0  0  0  0  0  0  0  0999 V2000
   21.3859   72.0537   -1.3673 P   0  0  2  0  0  0  0  0  0  0  0  0
   20.3698   73.3044   -1.2175 O   0  0  0  0  0  0  0  0  0  0  0  0
   20.9617   70.8038   -0.6534 O   0  0  0  0  0  0  0  0  0  0  0  0
   22.8188   72.6625   -0.9269 O   0  0  0  0  0  0  0  0  0  0  0  0
   23.0299   72.9756    0.4377 C   0  0  0  0  0  0  0  0  0  0  0  0
   24.9003   72.0707    1.6461 O   0  0  0  0  0  0  0  0  0  0  0  0
   23.0117   69.9523    2.6142 O   0  0  0  0  0  0  0  0  0  0  0  0
   23.1502   71.6465    4.7464 O   0  0  0  0  0  0  0  0  0  0  0  0
   22.7661   71.3366    2.3655 C   0  0  1  0  0  0  0  0  0  0  0  0
   23.3805   72.1828    3.4604 C   0  0  2  0  0  0  0  0  0  0  0  0
   23.5837   71.7475    1.1486 C   0  0  1  0  0  0  0  0  0  0  0  0
   24.8508   72.1744    3.0780 C   0  0  2  0  0  0  0  0  0  0  0  0
   22.4999   69.6666    3.3876 H   0  0  0  0  0  0  0  0  0  0  0  0
   22.2002   71.6744    4.9429 H   0  0  0  0  0  0  0  0  0  0  0  0
   27.5668   72.2883    3.8439 O   0  0  0  0  0  0  0  0  0  0  0  0
   27.3485   76.8275    4.6134 O   0  0  0  0  0  0  0  0  0  0  0  0
   25.5292   73.3730    3.4830 N   0  0  0  0  0  0  0  0  0  0  0  0
   27.4552   74.5488    4.2274 N   0  0  0  0  0  0  0  0  0  0  0  0
   26.8951   73.3216    3.8486 C   0  0  0  0  0  0  0  0  0  0  0  0
   24.8437   74.5813    3.5138 C   0  0  0  0  0  0  0  0  0  0  0  0
   25.3911   75.7429    3.8769 C   0  0  0  0  0  0  0  0  0  0  0  0
   26.8139   75.7760    4.2744 C   0  0  0  0  0  0  0  0  0  0  0  0
   28.4045   74.5379    4.4881 H   0  0  0  0  0  0  0  0  0  0  0  0
   21.5346   71.8968   -2.9692 O   0  0  0  0  0  0  0  0  0  0  0  0
   21.6410   73.0074   -4.1392 P   0  0  2  0  0  0  0  0  0  0  0  0
   23.0808   72.6992   -4.8118 O   0  0  0  0  0  0  0  0  0  0  0  0
   21.4706   74.4212   -3.6635 O   0  0  0  0  0  0  0  0  0  0  0  0
   20.5656   72.5394   -5.2468 O   0  0  0  0  0  0  0  0  0  0  0  0
   19.3186   70.5269   -5.3115 O   0  0  0  0  0  0  0  0  0  0  0  0
   19.6687   71.4285   -9.3280 O   0  0  0  0  0  0  0  0  0  0  0  0
   21.9481   71.7616   -7.5314 O   0  0  0  0  0  0  0  0  0  0  0  0
   17.1527   71.8829   -7.9445 O   0  0  0  0  0  0  0  0  0  0  0  0
   19.5561   71.7129   -7.9336 C   0  0  2  0  0  0  0  0  0  0  0  0
   20.7390   71.0947   -7.1880 C   0  0  2  0  0  0  0  0  0  0  0  0
   18.2397   71.1136   -7.4336 C   0  0  1  0  0  0  0  0  0  0  0  0
   20.5362   71.1790   -5.6746 C   0  0  1  0  0  0  0  0  0  0  0  0
   18.1681   71.1202   -5.9093 C   0  0  1  0  0  0  0  0  0  0  0  0
   20.4981   71.7999   -9.6680 H   0  0  0  0  0  0  0  0  0  0  0  0
   22.0830   71.7123   -8.4905 H   0  0  0  0  0  0  0  0  0  0  0  0
   17.1868   71.8868   -8.9139 H   0  0  0  0  0  0  0  0  0  0  0  0
   16.9991   70.2490   -4.0719 O   0  0  0  0  0  0  0  0  0  0  0  0
   16.2893   69.6252   -6.1470 O   0  0  0  0  0  0  0  0  0  0  0  0
   17.0532   70.2504   -5.4269 C   0  0  0  0  0  0  0  0  0  0  0  0
  1  4  1  0
  1 24  1  0
  1  2  1  6
  1  3  2  0
 25 28  1  0
 25 24  1  0
 25 26  1  6
 25 27  2  0
  6 11  1  0
  6 12  1  0
 29 36  1  0
 29 37  1  0
  9  7  1  1
  7 13  1  0
 10  8  1  1
  8 14  1  0
  4  5  1  0
 36 28  1  6
 33 30  1  6
 30 38  1  0
 34 31  1  1
 31 39  1  0
 35 32  1  6
 32 40  1  0
 41 43  1  0
 15 19  2  0
 42 43  2  0
 16 22  2  0
 12 17  1  6
 17 19  1  0
 17 20  1  0
 18 19  1  0
 18 22  1  0
 18 23  1  0
  9 10  1  0
  9 11  1  0
 10 12  1  0
 11  5  1  1
 33 34  1  0
 33 35  1  0
 34 36  1  0
 35 37  1  0
 37 43  1  6
 20 21  2  0
 21 22  1  0
M  CHG  3   2  -1  26  -1  41  -1
M  END
>  <COMPND>  (153) 
    udp_gluA.pdb 

>  <AUTHOR>  (153) 
    GENERATED BY OPEN BABEL 3.1.1

>  <MASTER>  (153) 
        0    0    0    0    0    0    0    0   56    0   56    0

>  <minimizedAffinity>  (153) 
-6.93644

>  <CNNscore>  (153) 
0.4164731205

>  <CNNaffinity>  (153) 
4.0572690964

>  <CNN_VS>  (153) 
1.6897435188

>  <CNNaffinity_variance>  (153) 
0.1731693745

$$$$
154
     RDKit          3D

 43 45  0  0  0  0  0  0  0  0999 V2000
   21.8804   71.7528   -0.3722 P   0  0  2  0  0  0  0  0  0  0  0  0
   20.7456   70.6478   -0.7042 O   0  0  0  0  0  0  0  0  0  0  0  0
   21.3553   73.0853    0.0756 O   0  0  0  0  0  0  0  0  0  0  0  0
   22.8043   71.7719   -1.7003 O   0  0  0  0  0  0  0  0  0  0  0  0
   22.1707   71.7252   -2.9656 C   0  0  0  0  0  0  0  0  0  0  0  0
   22.5338   72.4062   -5.2420 O   0  0  0  0  0  0  0  0  0  0  0  0
   23.1388   75.1269   -4.1358 O   0  0  0  0  0  0  0  0  0  0  0  0
   20.5788   75.4044   -5.0333 O   0  0  0  0  0  0  0  0  0  0  0  0
   22.1831   74.1632   -3.6925 C   0  0  1  0  0  0  0  0  0  0  0  0
   21.0064   74.1159   -4.6439 C   0  0  2  0  0  0  0  0  0  0  0  0
   22.7933   72.7798   -3.8714 C   0  0  1  0  0  0  0  0  0  0  0  0
   21.5701   73.3117   -5.8030 C   0  0  2  0  0  0  0  0  0  0  0  0
   22.7714   76.0189   -4.0312 H   0  0  0  0  0  0  0  0  0  0  0  0
   20.2284   75.8760   -4.2608 H   0  0  0  0  0  0  0  0  0  0  0  0
   21.5301   72.8586   -8.5904 O   0  0  0  0  0  0  0  0  0  0  0  0
   17.6471   70.3904   -8.3177 O   0  0  0  0  0  0  0  0  0  0  0  0
   20.5604   72.5542   -6.4867 N   0  0  0  0  0  0  0  0  0  0  0  0
   19.5956   71.6306   -8.4520 N   0  0  0  0  0  0  0  0  0  0  0  0
   20.6329   72.3863   -7.8898 C   0  0  0  0  0  0  0  0  0  0  0  0
   19.5147   71.9860   -5.7692 C   0  0  0  0  0  0  0  0  0  0  0  0
   18.5333   71.2682   -6.3191 C   0  0  0  0  0  0  0  0  0  0  0  0
   18.5343   71.0462   -7.7800 C   0  0  0  0  0  0  0  0  0  0  0  0
   19.6235   71.5017   -9.4277 H   0  0  0  0  0  0  0  0  0  0  0  0
   22.8151   70.9991    0.7099 O   0  0  0  0  0  0  0  0  0  0  0  0
   23.2288   71.4035    2.2196 P   0  0  2  0  0  0  0  0  0  0  0  0
   24.2595   70.2308    2.6473 O   0  0  0  0  0  0  0  0  0  0  0  0
   22.0649   71.5742    3.1523 O   0  0  0  0  0  0  0  0  0  0  0  0
   24.1518   72.7161    2.0534 O   0  0  0  0  0  0  0  0  0  0  0  0
   24.8808   73.7664    0.0597 O   0  0  0  0  0  0  0  0  0  0  0  0
   27.9800   74.6356    2.6496 O   0  0  0  0  0  0  0  0  0  0  0  0
   26.7709   71.9762    2.6267 O   0  0  0  0  0  0  0  0  0  0  0  0
   26.0424   76.6874    1.9520 O   0  0  0  0  0  0  0  0  0  0  0  0
   26.6268   74.3729    2.2783 C   0  0  2  0  0  0  0  0  0  0  0  0
   26.5292   72.9824    1.6501 C   0  0  2  0  0  0  0  0  0  0  0  0
   26.1962   75.4428    1.2724 C   0  0  1  0  0  0  0  0  0  0  0  0
   25.1481   72.7564    1.0334 C   0  0  1  0  0  0  0  0  0  0  0  0
   24.8702   75.0822    0.6089 C   0  0  1  0  0  0  0  0  0  0  0  0
   28.2756   73.9680    3.2886 H   0  0  0  0  0  0  0  0  0  0  0  0
   27.6455   72.1137    3.0223 H   0  0  0  0  0  0  0  0  0  0  0  0
   26.8795   76.9283    2.3788 H   0  0  0  0  0  0  0  0  0  0  0  0
   24.3516   77.2173   -0.2120 O   0  0  0  0  0  0  0  0  0  0  0  0
   24.6636   75.5603   -1.7470 O   0  0  0  0  0  0  0  0  0  0  0  0
   24.6242   75.9430   -0.5872 C   0  0  0  0  0  0  0  0  0  0  0  0
  1  4  1  0
  1 24  1  0
  1  2  1  6
  1  3  2  0
 25 28  1  0
 25 24  1  0
 25 26  1  1
 25 27  2  0
  6 11  1  0
  6 12  1  0
 29 36  1  0
 29 37  1  0
  9  7  1  6
  7 13  1  0
 10  8  1  6
  8 14  1  0
  4  5  1  0
 36 28  1  1
 33 30  1  6
 30 38  1  0
 34 31  1  1
 31 39  1  0
 35 32  1  1
 32 40  1  0
 41 43  1  0
 15 19  2  0
 42 43  2  0
 16 22  2  0
 12 17  1  1
 17 19  1  0
 17 20  1  0
 18 19  1  0
 18 22  1  0
 18 23  1  0
  9 10  1  0
  9 11  1  0
 10 12  1  0
 11  5  1  1
 33 34  1  0
 33 35  1  0
 34 36  1  0
 35 37  1  0
 37 43  1  6
 20 21  2  0
 21 22  1  0
M  CHG  3   2  -1  26  -1  41  -1
M  END
>  <COMPND>  (154) 
    udp_gluA.pdb 

>  <AUTHOR>  (154) 
    GENERATED BY OPEN BABEL 3.1.1

>  <MASTER>  (154) 
        0    0    0    0    0    0    0    0   56    0   56    0

>  <minimizedAffinity>  (154) 
-6.10449

>  <CNNscore>  (154) 
0.4072454870

>  <CNNaffinity>  (154) 
3.9768893719

>  <CNN_VS>  (154) 
1.6195702553

>  <CNNaffinity_variance>  (154) 
0.0522072539

$$$$
155
     RDKit          3D

 43 45  0  0  0  0  0  0  0  0999 V2000
   19.6749   73.3836   -2.2560 P   0  0  2  0  0  0  0  0  0  0  0  0
   19.3523   74.1671   -3.6348 O   0  0  0  0  0  0  0  0  0  0  0  0
   19.2875   74.1167   -1.0053 O   0  0  0  0  0  0  0  0  0  0  0  0
   21.2402   72.9955   -2.3867 O   0  0  0  0  0  0  0  0  0  0  0  0
   22.1321   73.4344   -1.3785 C   0  0  0  0  0  0  0  0  0  0  0  0
   24.1009   72.3047   -0.5878 O   0  0  0  0  0  0  0  0  0  0  0  0
   22.2764   70.8231    1.2744 O   0  0  0  0  0  0  0  0  0  0  0  0
   23.3737   72.7190    2.8984 O   0  0  0  0  0  0  0  0  0  0  0  0
   22.2097   72.1793    0.8330 C   0  0  1  0  0  0  0  0  0  0  0  0
   23.2757   73.0068    1.5193 C   0  0  2  0  0  0  0  0  0  0  0  0
   22.6595   72.2227   -0.6210 C   0  0  1  0  0  0  0  0  0  0  0  0
   24.5249   72.6131    0.7495 C   0  0  2  0  0  0  0  0  0  0  0  0
   21.9936   70.7700    2.2011 H   0  0  0  0  0  0  0  0  0  0  0  0
   22.5545   72.9881    3.3439 H   0  0  0  0  0  0  0  0  0  0  0  0
   27.3200   72.2133    0.6878 O   0  0  0  0  0  0  0  0  0  0  0  0
   28.1491   76.7454    0.5596 O   0  0  0  0  0  0  0  0  0  0  0  0
   25.4941   73.6709    0.6998 N   0  0  0  0  0  0  0  0  0  0  0  0
   27.7303   74.4710    0.6250 N   0  0  0  0  0  0  0  0  0  0  0  0
   26.8748   73.3624    0.6721 C   0  0  0  0  0  0  0  0  0  0  0  0
   25.0747   74.9954    0.6773 C   0  0  0  0  0  0  0  0  0  0  0  0
   25.9021   76.0415    0.6322 C   0  0  0  0  0  0  0  0  0  0  0  0
   27.3605   75.8060    0.6017 C   0  0  0  0  0  0  0  0  0  0  0  0
   28.6963   74.2814    0.6071 H   0  0  0  0  0  0  0  0  0  0  0  0
   18.9300   71.9640   -2.4625 O   0  0  0  0  0  0  0  0  0  0  0  0
   17.4966   71.6027   -3.1170 P   0  0  2  0  0  0  0  0  0  0  0  0
   16.5971   72.9055   -2.7796 O   0  0  0  0  0  0  0  0  0  0  0  0
   16.9105   70.3059   -2.6387 O   0  0  0  0  0  0  0  0  0  0  0  0
   17.7428   71.6793   -4.7095 O   0  0  0  0  0  0  0  0  0  0  0  0
   17.6869   69.8703   -6.2371 O   0  0  0  0  0  0  0  0  0  0  0  0
   20.2570   72.4917   -8.1320 O   0  0  0  0  0  0  0  0  0  0  0  0
   20.4449   72.0575   -5.2492 O   0  0  0  0  0  0  0  0  0  0  0  0
   17.5231   72.1920   -9.0735 O   0  0  0  0  0  0  0  0  0  0  0  0
   19.1566   72.1152   -7.3041 C   0  0  2  0  0  0  0  0  0  0  0  0
   19.6614   71.2676   -6.1361 C   0  0  2  0  0  0  0  0  0  0  0  0
   18.1745   71.3117   -8.1596 C   0  0  1  0  0  0  0  0  0  0  0  0
   18.4944   70.6560   -5.3596 C   0  0  1  0  0  0  0  0  0  0  0  0
   17.1144   70.6303   -7.2991 C   0  0  1  0  0  0  0  0  0  0  0  0
   20.8946   73.0036   -7.6096 H   0  0  0  0  0  0  0  0  0  0  0  0
   21.1871   72.4489   -5.7353 H   0  0  0  0  0  0  0  0  0  0  0  0
   18.1868   72.6322   -9.6272 H   0  0  0  0  0  0  0  0  0  0  0  0
   17.1893   69.0175   -9.0004 O   0  0  0  0  0  0  0  0  0  0  0  0
   15.1952   69.3137   -7.9351 O   0  0  0  0  0  0  0  0  0  0  0  0
   16.3733   69.6000   -8.0874 C   0  0  0  0  0  0  0  0  0  0  0  0
  1  4  1  0
  1 24  1  0
  1  2  1  6
  1  3  2  0
 25 28  1  0
 25 24  1  0
 25 26  1  1
 25 27  2  0
  6 11  1  0
  6 12  1  0
 29 36  1  0
 29 37  1  0
  9  7  1  1
  7 13  1  0
 10  8  1  1
  8 14  1  0
  4  5  1  0
 36 28  1  6
 33 30  1  6
 30 38  1  0
 34 31  1  1
 31 39  1  0
 35 32  1  6
 32 40  1  0
 41 43  1  0
 15 19  2  0
 42 43  2  0
 16 22  2  0
 12 17  1  6
 17 19  1  0
 17 20  1  0
 18 19  1  0
 18 22  1  0
 18 23  1  0
  9 10  1  0
  9 11  1  0
 10 12  1  0
 11  5  1  1
 33 34  1  0
 33 35  1  0
 34 36  1  0
 35 37  1  0
 37 43  1  6
 20 21  2  0
 21 22  1  0
M  CHG  3   2  -1  26  -1  41  -1
M  END
>  <COMPND>  (155) 
    udp_gluA.pdb 

>  <AUTHOR>  (155) 
    GENERATED BY OPEN BABEL 3.1.1

>  <MASTER>  (155) 
        0    0    0    0    0    0    0    0   56    0   56    0

>  <minimizedAffinity>  (155) 
-6.13286

>  <CNNscore>  (155) 
0.3931606114

>  <CNNaffinity>  (155) 
4.1670908928

>  <CNN_VS>  (155) 
1.6383360624

>  <CNNaffinity_variance>  (155) 
0.1086370796

$$$$
156
     RDKit          3D

 43 45  0  0  0  0  0  0  0  0999 V2000
   20.8032   73.7718   -2.3933 P   0  0  2  0  0  0  0  0  0  0  0  0
   19.3938   73.2142   -1.8264 O   0  0  0  0  0  0  0  0  0  0  0  0
   20.9033   75.2664   -2.4831 O   0  0  0  0  0  0  0  0  0  0  0  0
   21.0078   72.9691   -3.7832 O   0  0  0  0  0  0  0  0  0  0  0  0
   20.7762   73.6545   -5.0002 C   0  0  0  0  0  0  0  0  0  0  0  0
   20.3160   71.4390   -5.8109 O   0  0  0  0  0  0  0  0  0  0  0  0
   20.9531   72.5064   -8.5397 O   0  0  0  0  0  0  0  0  0  0  0  0
   18.2263   72.4817   -8.5312 O   0  0  0  0  0  0  0  0  0  0  0  0
   20.2974   73.1513   -7.4476 C   0  0  1  0  0  0  0  0  0  0  0  0
   18.8896   72.6164   -7.2917 C   0  0  2  0  0  0  0  0  0  0  0  0
   20.9604   72.6835   -6.1592 C   0  0  1  0  0  0  0  0  0  0  0  0
   19.1334   71.2805   -6.6107 C   0  0  2  0  0  0  0  0  0  0  0  0
   20.5467   72.7897   -9.3741 H   0  0  0  0  0  0  0  0  0  0  0  0
   18.0944   73.3592   -8.9244 H   0  0  0  0  0  0  0  0  0  0  0  0
   16.7450   70.0837   -7.5270 O   0  0  0  0  0  0  0  0  0  0  0  0
   15.0200   69.8306   -3.2604 O   0  0  0  0  0  0  0  0  0  0  0  0
   18.0437   70.8917   -5.7609 N   0  0  0  0  0  0  0  0  0  0  0  0
   15.8877   69.9597   -5.4012 N   0  0  0  0  0  0  0  0  0  0  0  0
   16.8881   70.2982   -6.3219 C   0  0  0  0  0  0  0  0  0  0  0  0
   18.1264   71.0972   -4.3891 C   0  0  0  0  0  0  0  0  0  0  0  0
   17.1646   70.7691   -3.5242 C   0  0  0  0  0  0  0  0  0  0  0  0
   15.9239   70.1451   -4.0287 C   0  0  0  0  0  0  0  0  0  0  0  0
   15.0727   69.5470   -5.7684 H   0  0  0  0  0  0  0  0  0  0  0  0
   21.8873   73.0821   -1.4124 O   0  0  0  0  0  0  0  0  0  0  0  0
   22.1221   71.5336   -1.0115 P   0  0  2  0  0  0  0  0  0  0  0  0
   22.9982   70.9607   -2.2462 O   0  0  0  0  0  0  0  0  0  0  0  0
   20.8585   70.7688   -0.7425 O   0  0  0  0  0  0  0  0  0  0  0  0
   23.1515   71.5837    0.2295 O   0  0  0  0  0  0  0  0  0  0  0  0
   22.6375   73.0472    2.0193 O   0  0  0  0  0  0  0  0  0  0  0  0
   26.5878   72.1217    2.7982 O   0  0  0  0  0  0  0  0  0  0  0  0
   25.7062   72.6715    0.0678 O   0  0  0  0  0  0  0  0  0  0  0  0
   24.4669   70.9083    4.3732 O   0  0  0  0  0  0  0  0  0  0  0  0
   25.2637   71.8849    2.3198 C   0  0  2  0  0  0  0  0  0  0  0  0
   24.9225   72.9041    1.2325 C   0  0  2  0  0  0  0  0  0  0  0  0
   24.3017   72.0253    3.5017 C   0  0  1  0  0  0  0  0  0  0  0  0
   23.4413   72.8305    0.8590 C   0  0  1  0  0  0  0  0  0  0  0  0
   22.8494   72.0697    3.0355 C   0  0  1  0  0  0  0  0  0  0  0  0
   27.2167   72.0378    2.0642 H   0  0  0  0  0  0  0  0  0  0  0  0
   26.6473   72.7165    0.2975 H   0  0  0  0  0  0  0  0  0  0  0  0
   25.3872   70.8685    4.6769 H   0  0  0  0  0  0  0  0  0  0  0  0
   21.5247   73.7978    3.9077 O   0  0  0  0  0  0  0  0  0  0  0  0
   21.6404   71.8661    5.1136 O   0  0  0  0  0  0  0  0  0  0  0  0
   21.9525   72.5317    4.1376 C   0  0  0  0  0  0  0  0  0  0  0  0
  1  4  1  0
  1 24  1  0
  1  2  1  1
  1  3  2  0
 25 28  1  0
 25 24  1  0
 25 26  1  6
 25 27  2  0
  6 11  1  0
  6 12  1  0
 29 36  1  0
 29 37  1  0
  9  7  1  6
  7 13  1  0
 10  8  1  6
  8 14  1  0
  4  5  1  0
 36 28  1  1
 33 30  1  1
 30 38  1  0
 34 31  1  6
 31 39  1  0
 35 32  1  1
 32 40  1  0
 41 43  1  0
 15 19  2  0
 42 43  2  0
 16 22  2  0
 12 17  1  1
 17 19  1  0
 17 20  1  0
 18 19  1  0
 18 22  1  0
 18 23  1  0
  9 10  1  0
  9 11  1  0
 10 12  1  0
 11  5  1  1
 33 34  1  0
 33 35  1  0
 34 36  1  0
 35 37  1  0
 37 43  1  1
 20 21  2  0
 21 22  1  0
M  CHG  3   2  -1  26  -1  41  -1
M  END
>  <COMPND>  (156) 
    udp_gluA.pdb 

>  <AUTHOR>  (156) 
    GENERATED BY OPEN BABEL 3.1.1

>  <MASTER>  (156) 
        0    0    0    0    0    0    0    0   56    0   56    0

>  <minimizedAffinity>  (156) 
-6.43875

>  <CNNscore>  (156) 
0.3763900101

>  <CNNaffinity>  (156) 
4.0852913857

>  <CNN_VS>  (156) 
1.5376628637

>  <CNNaffinity_variance>  (156) 
0.0353539512

$$$$
157
     RDKit          3D

 43 45  0  0  0  0  0  0  0  0999 V2000
   21.7939   72.0012   -0.5761 P   0  0  2  0  0  0  0  0  0  0  0  0
   20.5870   71.0394   -1.0633 O   0  0  0  0  0  0  0  0  0  0  0  0
   21.3654   73.3438   -0.0607 O   0  0  0  0  0  0  0  0  0  0  0  0
   22.8065   72.0234   -1.8378 O   0  0  0  0  0  0  0  0  0  0  0  0
   22.2735   71.8360   -3.1360 C   0  0  0  0  0  0  0  0  0  0  0  0
   22.5179   72.5578   -5.4157 O   0  0  0  0  0  0  0  0  0  0  0  0
   22.9748   75.3040   -4.3018 O   0  0  0  0  0  0  0  0  0  0  0  0
   20.3749   75.4164   -5.1165 O   0  0  0  0  0  0  0  0  0  0  0  0
   22.1001   74.2750   -3.8386 C   0  0  1  0  0  0  0  0  0  0  0  0
   20.8996   74.1565   -4.7534 C   0  0  2  0  0  0  0  0  0  0  0  0
   22.7953   72.9371   -4.0502 C   0  0  1  0  0  0  0  0  0  0  0  0
   21.4787   73.4010   -5.9374 C   0  0  2  0  0  0  0  0  0  0  0  0
   22.5522   76.1686   -4.1769 H   0  0  0  0  0  0  0  0  0  0  0  0
   20.0184   75.8573   -4.3288 H   0  0  0  0  0  0  0  0  0  0  0  0
   21.4971   72.8062   -8.6983 O   0  0  0  0  0  0  0  0  0  0  0  0
   17.6758   70.2515   -8.3594 O   0  0  0  0  0  0  0  0  0  0  0  0
   20.5006   72.5829   -6.5969 N   0  0  0  0  0  0  0  0  0  0  0  0
   19.5933   71.5352   -8.5270 N   0  0  0  0  0  0  0  0  0  0  0  0
   20.6010   72.3460   -7.9883 C   0  0  0  0  0  0  0  0  0  0  0  0
   19.4583   72.0239   -5.8675 C   0  0  0  0  0  0  0  0  0  0  0  0
   18.5053   71.2531   -6.3950 C   0  0  0  0  0  0  0  0  0  0  0  0
   18.5365   70.9573   -7.8424 C   0  0  0  0  0  0  0  0  0  0  0  0
   19.6408   71.3578   -9.4943 H   0  0  0  0  0  0  0  0  0  0  0  0
   22.5759   71.0846    0.5015 O   0  0  0  0  0  0  0  0  0  0  0  0
   22.8985   71.3282    2.0668 P   0  0  2  0  0  0  0  0  0  0  0  0
   23.0918   69.8277    2.6425 O   0  0  0  0  0  0  0  0  0  0  0  0
   21.8627   72.1393    2.7900 O   0  0  0  0  0  0  0  0  0  0  0  0
   24.3805   71.9653    2.0850 O   0  0  0  0  0  0  0  0  0  0  0  0
   24.9624   73.9811    3.1837 O   0  0  0  0  0  0  0  0  0  0  0  0
   27.9041   73.7187    0.2948 O   0  0  0  0  0  0  0  0  0  0  0  0
   25.1298   73.0729   -0.3538 O   0  0  0  0  0  0  0  0  0  0  0  0
   28.5195   73.0893    3.0653 O   0  0  0  0  0  0  0  0  0  0  0  0
   26.9552   73.2198    1.2375 C   0  0  2  0  0  0  0  0  0  0  0  0
   25.5538   73.6952    0.8535 C   0  0  2  0  0  0  0  0  0  0  0  0
   27.3376   73.7523    2.6203 C   0  0  1  0  0  0  0  0  0  0  0  0
   24.5460   73.3764    1.9587 C   0  0  1  0  0  0  0  0  0  0  0  0
   26.2278   73.5066    3.6384 C   0  0  1  0  0  0  0  0  0  0  0  0
   27.6812   73.3933   -0.5916 H   0  0  0  0  0  0  0  0  0  0  0  0
   25.7649   73.2708   -1.0594 H   0  0  0  0  0  0  0  0  0  0  0  0
   29.2337   73.2376    2.4260 H   0  0  0  0  0  0  0  0  0  0  0  0
   27.4015   75.2580    4.6662 O   0  0  0  0  0  0  0  0  0  0  0  0
   25.8829   74.1337    5.9425 O   0  0  0  0  0  0  0  0  0  0  0  0
   26.4597   74.3058    4.8792 C   0  0  0  0  0  0  0  0  0  0  0  0
  1  4  1  0
  1 24  1  0
  1  2  1  6
  1  3  2  0
 25 28  1  0
 25 24  1  0
 25 26  1  1
 25 27  2  0
  6 11  1  0
  6 12  1  0
 29 36  1  0
 29 37  1  0
  9  7  1  6
  7 13  1  0
 10  8  1  6
  8 14  1  0
  4  5  1  0
 36 28  1  1
 33 30  1  6
 30 38  1  0
 34 31  1  6
 31 39  1  0
 35 32  1  1
 32 40  1  0
 41 43  1  0
 15 19  2  0
 42 43  2  0
 16 22  2  0
 12 17  1  1
 17 19  1  0
 17 20  1  0
 18 19  1  0
 18 22  1  0
 18 23  1  0
  9 10  1  0
  9 11  1  0
 10 12  1  0
 11  5  1  1
 33 34  1  0
 33 35  1  0
 34 36  1  0
 35 37  1  0
 37 43  1  1
 20 21  2  0
 21 22  1  0
M  CHG  3   2  -1  26  -1  41  -1
M  END
>  <COMPND>  (157) 
    udp_gluA.pdb 

>  <AUTHOR>  (157) 
    GENERATED BY OPEN BABEL 3.1.1

>  <MASTER>  (157) 
        0    0    0    0    0    0    0    0   56    0   56    0

>  <minimizedAffinity>  (157) 
-6.13020

>  <CNNscore>  (157) 
0.3545845747

>  <CNNaffinity>  (157) 
3.8977973461

>  <CNN_VS>  (157) 
1.3820987940

>  <CNNaffinity_variance>  (157) 
0.0830198154

$$$$
158
     RDKit          3D

 43 45  0  0  0  0  0  0  0  0999 V2000
   22.0523   72.8996   -4.7334 P   0  0  2  0  0  0  0  0  0  0  0  0
   23.6651   72.9658   -4.6182 O   0  0  0  0  0  0  0  0  0  0  0  0
   21.3344   74.1426   -4.2959 O   0  0  0  0  0  0  0  0  0  0  0  0
   21.6612   71.5457   -3.9384 O   0  0  0  0  0  0  0  0  0  0  0  0
   22.2808   71.2911   -2.6911 C   0  0  0  0  0  0  0  0  0  0  0  0
   21.8347   70.7585   -0.3900 O   0  0  0  0  0  0  0  0  0  0  0  0
   19.2778   72.2887   -0.7252 O   0  0  0  0  0  0  0  0  0  0  0  0
   20.8788   74.0792    0.5658 O   0  0  0  0  0  0  0  0  0  0  0  0
   20.5635   72.5423   -1.2918 C   0  0  1  0  0  0  0  0  0  0  0  0
   21.4993   73.0991   -0.2399 C   0  0  2  0  0  0  0  0  0  0  0  0
   21.2080   71.2008   -1.6135 C   0  0  1  0  0  0  0  0  0  0  0  0
   21.8738   71.8512    0.5415 C   0  0  2  0  0  0  0  0  0  0  0  0
   18.8464   73.1312   -0.5113 H   0  0  0  0  0  0  0  0  0  0  0  0
   20.6602   74.8532    0.0226 H   0  0  0  0  0  0  0  0  0  0  0  0
   22.7525   70.3403    2.7599 O   0  0  0  0  0  0  0  0  0  0  0  0
   26.9446   72.2517    2.6328 O   0  0  0  0  0  0  0  0  0  0  0  0
   23.1899   71.9343    1.1087 N   0  0  0  0  0  0  0  0  0  0  0  0
   24.8392   71.2945    2.6951 N   0  0  0  0  0  0  0  0  0  0  0  0
   23.5300   71.1318    2.2234 C   0  0  0  0  0  0  0  0  0  0  0  0
   24.1277   72.8013    0.5612 C   0  0  0  0  0  0  0  0  0  0  0  0
   25.3719   72.9453    1.0217 C   0  0  0  0  0  0  0  0  0  0  0  0
   25.8072   72.1440    2.1844 C   0  0  0  0  0  0  0  0  0  0  0  0
   25.0986   70.7478    3.4718 H   0  0  0  0  0  0  0  0  0  0  0  0
   21.8153   72.4942   -6.2801 O   0  0  0  0  0  0  0  0  0  0  0  0
   20.9394   73.2012   -7.4405 P   0  0  2  0  0  0  0  0  0  0  0  0
   21.3641   72.3862   -8.7730 O   0  0  0  0  0  0  0  0  0  0  0  0
   21.1304   74.6872   -7.5372 O   0  0  0  0  0  0  0  0  0  0  0  0
   19.4219   72.7390   -7.1469 O   0  0  0  0  0  0  0  0  0  0  0  0
   18.6947   70.8522   -5.9139 O   0  0  0  0  0  0  0  0  0  0  0  0
   15.5869   71.3574   -8.5887 O   0  0  0  0  0  0  0  0  0  0  0  0
   18.3584   71.6373   -9.4688 O   0  0  0  0  0  0  0  0  0  0  0  0
   15.2691   72.1627   -5.8135 O   0  0  0  0  0  0  0  0  0  0  0  0
   16.6589   71.7737   -7.7428 C   0  0  2  0  0  0  0  0  0  0  0  0
   17.9601   71.1177   -8.2054 C   0  0  2  0  0  0  0  0  0  0  0  0
   16.3261   71.3449   -6.3119 C   0  0  1  0  0  0  0  0  0  0  0  0
   19.0820   71.3544   -7.1935 C   0  0  1  0  0  0  0  0  0  0  0  0
   17.5336   71.4935   -5.3908 C   0  0  1  0  0  0  0  0  0  0  0  0
   15.7763   71.6191   -9.5035 H   0  0  0  0  0  0  0  0  0  0  0  0
   17.6510   71.4907  -10.1157 H   0  0  0  0  0  0  0  0  0  0  0  0
   14.4944   72.0774   -6.3910 H   0  0  0  0  0  0  0  0  0  0  0  0
   16.3153   69.8608   -4.2282 O   0  0  0  0  0  0  0  0  0  0  0  0
   17.9275   70.9791   -3.0667 O   0  0  0  0  0  0  0  0  0  0  0  0
   17.3073   70.7764   -4.0997 C   0  0  0  0  0  0  0  0  0  0  0  0
  1  4  1  0
  1 24  1  0
  1  2  1  6
  1  3  2  0
 25 28  1  0
 25 24  1  0
 25 26  1  6
 25 27  2  0
  6 11  1  0
  6 12  1  0
 29 36  1  0
 29 37  1  0
  9  7  1  1
  7 13  1  0
 10  8  1  1
  8 14  1  0
  4  5  1  0
 36 28  1  1
 33 30  1  6
 30 38  1  0
 34 31  1  6
 31 39  1  0
 35 32  1  1
 32 40  1  0
 41 43  1  0
 15 19  2  0
 42 43  2  0
 16 22  2  0
 12 17  1  6
 17 19  1  0
 17 20  1  0
 18 19  1  0
 18 22  1  0
 18 23  1  0
  9 10  1  0
  9 11  1  0
 10 12  1  0
 11  5  1  6
 33 34  1  0
 33 35  1  0
 34 36  1  0
 35 37  1  0
 37 43  1  1
 20 21  2  0
 21 22  1  0
M  CHG  3   2  -1  26  -1  41  -1
M  END
>  <COMPND>  (158) 
    udp_gluA.pdb 

>  <AUTHOR>  (158) 
    GENERATED BY OPEN BABEL 3.1.1

>  <MASTER>  (158) 
        0    0    0    0    0    0    0    0   56    0   56    0

>  <minimizedAffinity>  (158) 
-7.72883

>  <CNNscore>  (158) 
0.3500395119

>  <CNNaffinity>  (158) 
4.1332893372

>  <CNN_VS>  (158) 
1.4468145370

>  <CNNaffinity_variance>  (158) 
0.0462569818

$$$$
159
     RDKit          3D

 43 45  0  0  0  0  0  0  0  0999 V2000
   17.7932   73.6037   -1.8630 P   0  0  2  0  0  0  0  0  0  0  0  0
   17.2330   75.1212   -1.9085 O   0  0  0  0  0  0  0  0  0  0  0  0
   17.9740   73.0361   -0.4857 O   0  0  0  0  0  0  0  0  0  0  0  0
   19.1234   73.6529   -2.7828 O   0  0  0  0  0  0  0  0  0  0  0  0
   18.9837   73.4933   -4.1827 C   0  0  0  0  0  0  0  0  0  0  0  0
   19.6655   71.4089   -5.1666 O   0  0  0  0  0  0  0  0  0  0  0  0
   22.1773   72.8291   -5.9821 O   0  0  0  0  0  0  0  0  0  0  0  0
   20.7235   72.8177   -8.2891 O   0  0  0  0  0  0  0  0  0  0  0  0
   20.8402   73.3252   -5.9140 C   0  0  1  0  0  0  0  0  0  0  0  0
   20.0203   72.7816   -7.0649 C   0  0  2  0  0  0  0  0  0  0  0  0
   20.1626   72.6855   -4.7099 C   0  0  1  0  0  0  0  0  0  0  0  0
   19.7261   71.3651   -6.6011 C   0  0  2  0  0  0  0  0  0  0  0  0
   22.6306   73.2238   -6.7440 H   0  0  0  0  0  0  0  0  0  0  0  0
   20.8863   73.7407   -8.5413 H   0  0  0  0  0  0  0  0  0  0  0  0
   19.3311   70.4218   -9.2337 O   0  0  0  0  0  0  0  0  0  0  0  0
   14.8882   69.4951   -8.4301 O   0  0  0  0  0  0  0  0  0  0  0  0
   18.4763   70.8716   -7.1064 N   0  0  0  0  0  0  0  0  0  0  0  0
   17.1184   69.9621   -8.8313 N   0  0  0  0  0  0  0  0  0  0  0  0
   18.3844   70.4212   -8.4446 C   0  0  0  0  0  0  0  0  0  0  0  0
   17.3598   70.8354   -6.2799 C   0  0  0  0  0  0  0  0  0  0  0  0
   16.1597   70.3949   -6.6627 C   0  0  0  0  0  0  0  0  0  0  0  0
   15.9784   69.9074   -8.0458 C   0  0  0  0  0  0  0  0  0  0  0  0
   17.0293   69.6453   -9.7592 H   0  0  0  0  0  0  0  0  0  0  0  0
   16.7403   72.8002   -2.7895 O   0  0  0  0  0  0  0  0  0  0  0  0
   15.1342   72.6480   -2.6841 P   0  0  2  0  0  0  0  0  0  0  0  0
   14.6876   72.3710   -4.2152 O   0  0  0  0  0  0  0  0  0  0  0  0
   14.4458   73.8169   -2.0409 O   0  0  0  0  0  0  0  0  0  0  0  0
   14.9051   71.2393   -1.9319 O   0  0  0  0  0  0  0  0  0  0  0  0
   12.9551   70.6708   -0.7140 O   0  0  0  0  0  0  0  0  0  0  0  0
   15.7733   68.1853    1.0031 O   0  0  0  0  0  0  0  0  0  0  0  0
   16.4330   70.9612    0.3755 O   0  0  0  0  0  0  0  0  0  0  0  0
   13.8248   67.1096   -0.8670 O   0  0  0  0  0  0  0  0  0  0  0  0
   15.1656   68.9362   -0.0480 C   0  0  2  0  0  0  0  0  0  0  0  0
   15.1198   70.4145    0.3395 C   0  0  2  0  0  0  0  0  0  0  0  0
   13.7489   68.3965   -0.2568 C   0  0  1  0  0  0  0  0  0  0  0  0
   14.2744   71.2142   -0.6528 C   0  0  1  0  0  0  0  0  0  0  0  0
   12.9296   69.3160   -1.1578 C   0  0  1  0  0  0  0  0  0  0  0  0
   16.6748   68.5107    1.1537 H   0  0  0  0  0  0  0  0  0  0  0  0
   16.9750   70.4583    1.0030 H   0  0  0  0  0  0  0  0  0  0  0  0
   14.3439   66.5146   -0.3036 H   0  0  0  0  0  0  0  0  0  0  0  0
   10.7540   70.0215   -0.6375 O   0  0  0  0  0  0  0  0  0  0  0  0
   11.0005   67.8877   -1.4026 O   0  0  0  0  0  0  0  0  0  0  0  0
   11.4780   68.9684   -1.0910 C   0  0  0  0  0  0  0  0  0  0  0  0
  1  4  1  0
  1 24  1  0
  1  2  1  1
  1  3  2  0
 25 28  1  0
 25 24  1  0
 25 26  1  6
 25 27  2  0
  6 11  1  0
  6 12  1  0
 29 36  1  0
 29 37  1  0
  9  7  1  6
  7 13  1  0
 10  8  1  6
  8 14  1  0
  4  5  1  0
 36 28  1  6
 33 30  1  1
 30 38  1  0
 34 31  1  6
 31 39  1  0
 35 32  1  6
 32 40  1  0
 41 43  1  0
 15 19  2  0
 42 43  2  0
 16 22  2  0
 12 17  1  6
 17 19  1  0
 17 20  1  0
 18 19  1  0
 18 22  1  0
 18 23  1  0
  9 10  1  0
  9 11  1  0
 10 12  1  0
 11  5  1  6
 33 34  1  0
 33 35  1  0
 34 36  1  0
 35 37  1  0
 37 43  1  1
 20 21  2  0
 21 22  1  0
M  CHG  3   2  -1  26  -1  41  -1
M  END
>  <COMPND>  (159) 
    udp_gluA.pdb 

>  <AUTHOR>  (159) 
    GENERATED BY OPEN BABEL 3.1.1

>  <MASTER>  (159) 
        0    0    0    0    0    0    0    0   56    0   56    0

>  <minimizedAffinity>  (159) 
-5.93480

>  <CNNscore>  (159) 
0.3493639231

>  <CNNaffinity>  (159) 
4.1603002548

>  <CNN_VS>  (159) 
1.4534587860

>  <CNNaffinity_variance>  (159) 
0.0485169217

$$$$
160
     RDKit          3D

 43 45  0  0  0  0  0  0  0  0999 V2000
   19.5154   73.4778   -2.3513 P   0  0  2  0  0  0  0  0  0  0  0  0
   19.6978   74.7405   -3.3469 O   0  0  0  0  0  0  0  0  0  0  0  0
   18.6041   73.7182   -1.1836 O   0  0  0  0  0  0  0  0  0  0  0  0
   21.0321   73.0514   -1.9827 O   0  0  0  0  0  0  0  0  0  0  0  0
   21.8952   74.0303   -1.4338 C   0  0  0  0  0  0  0  0  0  0  0  0
   24.2694   74.4048   -1.4609 O   0  0  0  0  0  0  0  0  0  0  0  0
   24.2367   73.2238   -4.2169 O   0  0  0  0  0  0  0  0  0  0  0  0
   25.1301   71.1487   -2.6900 O   0  0  0  0  0  0  0  0  0  0  0  0
   23.4576   72.8714   -3.0735 C   0  0  1  0  0  0  0  0  0  0  0  0
   24.3069   72.1163   -2.0731 C   0  0  2  0  0  0  0  0  0  0  0  0
   23.1325   74.1505   -2.3142 C   0  0  1  0  0  0  0  0  0  0  0  0
   25.1044   73.2365   -1.4273 C   0  0  2  0  0  0  0  0  0  0  0  0
   24.4567   72.4225   -4.7181 H   0  0  0  0  0  0  0  0  0  0  0  0
   24.5756   70.4574   -3.0858 H   0  0  0  0  0  0  0  0  0  0  0  0
   27.6778   72.4563   -0.5640 O   0  0  0  0  0  0  0  0  0  0  0  0
   26.3129   72.1555    3.8281 O   0  0  0  0  0  0  0  0  0  0  0  0
   25.4493   72.9482   -0.0639 N   0  0  0  0  0  0  0  0  0  0  0  0
   26.9953   72.3062    1.6225 N   0  0  0  0  0  0  0  0  0  0  0  0
   26.7711   72.5642    0.2638 C   0  0  0  0  0  0  0  0  0  0  0  0
   24.4849   73.0482    0.9315 C   0  0  0  0  0  0  0  0  0  0  0  0
   24.7136   72.7992    2.2224 C   0  0  0  0  0  0  0  0  0  0  0  0
   26.0684   72.3915    2.6488 C   0  0  0  0  0  0  0  0  0  0  0  0
   27.9076   72.0353    1.8747 H   0  0  0  0  0  0  0  0  0  0  0  0
   19.0376   72.2970   -3.3464 O   0  0  0  0  0  0  0  0  0  0  0  0
   19.5733   71.8585   -4.8074 P   0  0  2  0  0  0  0  0  0  0  0  0
   19.6714   70.2466   -4.6969 O   0  0  0  0  0  0  0  0  0  0  0  0
   20.8512   72.5289   -5.2215 O   0  0  0  0  0  0  0  0  0  0  0  0
   18.3270   72.1237   -5.7968 O   0  0  0  0  0  0  0  0  0  0  0  0
   17.5696   70.4736   -7.3175 O   0  0  0  0  0  0  0  0  0  0  0  0
   16.0065   73.9217   -8.9713 O   0  0  0  0  0  0  0  0  0  0  0  0
   18.7269   73.8912   -7.9068 O   0  0  0  0  0  0  0  0  0  0  0  0
   14.2801   72.0858   -7.5222 O   0  0  0  0  0  0  0  0  0  0  0  0
   16.4457   73.0650   -7.9172 C   0  0  2  0  0  0  0  0  0  0  0  0
   17.9256   72.7331   -8.1106 C   0  0  2  0  0  0  0  0  0  0  0  0
   15.6034   71.7882   -7.9634 C   0  0  1  0  0  0  0  0  0  0  0  0
   18.3728   71.6407   -7.1382 C   0  0  1  0  0  0  0  0  0  0  0  0
   16.1859   70.7037   -7.0618 C   0  0  1  0  0  0  0  0  0  0  0  0
   16.5278   74.7399   -8.9618 H   0  0  0  0  0  0  0  0  0  0  0  0
   18.4483   74.5886   -8.5204 H   0  0  0  0  0  0  0  0  0  0  0  0
   13.8980   72.7750   -8.0878 H   0  0  0  0  0  0  0  0  0  0  0  0
   14.8875   69.4177   -8.5322 O   0  0  0  0  0  0  0  0  0  0  0  0
   15.6524   68.3874   -6.6474 O   0  0  0  0  0  0  0  0  0  0  0  0
   15.5649   69.3775   -7.3581 C   0  0  0  0  0  0  0  0  0  0  0  0
  1  4  1  0
  1 24  1  0
  1  2  1  6
  1  3  2  0
 25 28  1  0
 25 24  1  0
 25 26  1  1
 25 27  2  0
  6 11  1  0
  6 12  1  0
 29 36  1  0
 29 37  1  0
  9  7  1  6
  7 13  1  0
 10  8  1  6
  8 14  1  0
  4  5  1  0
 36 28  1  1
 33 30  1  6
 30 38  1  0
 34 31  1  1
 31 39  1  0
 35 32  1  1
 32 40  1  0
 41 43  1  0
 15 19  2  0
 42 43  2  0
 16 22  2  0
 12 17  1  1
 17 19  1  0
 17 20  1  0
 18 19  1  0
 18 22  1  0
 18 23  1  0
  9 10  1  0
  9 11  1  0
 10 12  1  0
 11  5  1  1
 33 34  1  0
 33 35  1  0
 34 36  1  0
 35 37  1  0
 37 43  1  6
 20 21  2  0
 21 22  1  0
M  CHG  3   2  -1  26  -1  41  -1
M  END
>  <COMPND>  (160) 
    udp_gluA.pdb 

>  <AUTHOR>  (160) 
    GENERATED BY OPEN BABEL 3.1.1

>  <MASTER>  (160) 
        0    0    0    0    0    0    0    0   56    0   56    0

>  <minimizedAffinity>  (160) 
-6.76280

>  <CNNscore>  (160) 
0.3300084770

>  <CNNaffinity>  (160) 
4.0676770210

>  <CNN_VS>  (160) 
1.3423678875

>  <CNNaffinity_variance>  (160) 
0.0536655262

$$$$
161
     RDKit          3D

 43 45  0  0  0  0  0  0  0  0999 V2000
   21.4838   71.8199   -1.1741 P   0  0  2  0  0  0  0  0  0  0  0  0
   20.1960   72.7231   -0.7936 O   0  0  0  0  0  0  0  0  0  0  0  0
   22.6348   72.5767   -1.7693 O   0  0  0  0  0  0  0  0  0  0  0  0
   20.8711   70.6367   -2.0919 O   0  0  0  0  0  0  0  0  0  0  0  0
   20.1523   70.9900   -3.2594 C   0  0  0  0  0  0  0  0  0  0  0  0
   20.6938   70.4651   -5.5417 O   0  0  0  0  0  0  0  0  0  0  0  0
   22.4570   72.8898   -5.4859 O   0  0  0  0  0  0  0  0  0  0  0  0
   20.2403   73.7950   -6.7908 O   0  0  0  0  0  0  0  0  0  0  0  0
   21.1945   72.6759   -4.8544 C   0  0  1  0  0  0  0  0  0  0  0  0
   20.0806   72.7288   -5.8786 C   0  0  2  0  0  0  0  0  0  0  0  0
   21.1379   71.2248   -4.3968 C   0  0  1  0  0  0  0  0  0  0  0  0
   20.1986   71.3678   -6.5433 C   0  0  2  0  0  0  0  0  0  0  0  0
   22.5165   73.8104   -5.7869 H   0  0  0  0  0  0  0  0  0  0  0  0
   20.1565   74.6392   -6.3192 H   0  0  0  0  0  0  0  0  0  0  0  0
   19.5884   70.9497   -9.2690 O   0  0  0  0  0  0  0  0  0  0  0  0
   15.3250   69.5036   -8.2812 O   0  0  0  0  0  0  0  0  0  0  0  0
   18.9368   70.8827   -7.0264 N   0  0  0  0  0  0  0  0  0  0  0  0
   17.4652   70.2309   -8.7745 N   0  0  0  0  0  0  0  0  0  0  0  0
   18.7328   70.7079   -8.4156 C   0  0  0  0  0  0  0  0  0  0  0  0
   17.9188   70.5842   -6.1288 C   0  0  0  0  0  0  0  0  0  0  0  0
   16.7159   70.1301   -6.4859 C   0  0  0  0  0  0  0  0  0  0  0  0
   16.4208   69.9206   -7.9186 C   0  0  0  0  0  0  0  0  0  0  0  0
   17.2989   70.1031   -9.7364 H   0  0  0  0  0  0  0  0  0  0  0  0
   21.8207   71.0649    0.2149 O   0  0  0  0  0  0  0  0  0  0  0  0
   22.5049   71.6036    1.5770 P   0  0  2  0  0  0  0  0  0  0  0  0
   22.6405   70.2651    2.4772 O   0  0  0  0  0  0  0  0  0  0  0  0
   21.7562   72.7225    2.2415 O   0  0  0  0  0  0  0  0  0  0  0  0
   24.0196   71.9677    1.1580 O   0  0  0  0  0  0  0  0  0  0  0  0
   24.7467   73.8619    2.3796 O   0  0  0  0  0  0  0  0  0  0  0  0
   28.0078   73.1239   -0.0470 O   0  0  0  0  0  0  0  0  0  0  0  0
   25.2951   72.9384   -1.1151 O   0  0  0  0  0  0  0  0  0  0  0  0
   28.0907   72.4029    2.7680 O   0  0  0  0  0  0  0  0  0  0  0  0
   26.8604   72.7862    0.7323 C   0  0  2  0  0  0  0  0  0  0  0  0
   25.6275   73.4834    0.1565 C   0  0  2  0  0  0  0  0  0  0  0  0
   27.1114   73.2495    2.1690 C   0  0  1  0  0  0  0  0  0  0  0  0
   24.4271   73.3331    1.0921 C   0  0  1  0  0  0  0  0  0  0  0  0
   25.8363   73.1878    3.0051 C   0  0  1  0  0  0  0  0  0  0  0  0
   27.8712   72.8391   -0.9643 H   0  0  0  0  0  0  0  0  0  0  0  0
   26.0524   73.0301   -1.7138 H   0  0  0  0  0  0  0  0  0  0  0  0
   28.9073   72.4330    2.2454 H   0  0  0  0  0  0  0  0  0  0  0  0
   25.0535   74.8975    4.4071 O   0  0  0  0  0  0  0  0  0  0  0  0
   26.8753   73.7236    5.1157 O   0  0  0  0  0  0  0  0  0  0  0  0
   26.0048   73.9388    4.2857 C   0  0  0  0  0  0  0  0  0  0  0  0
  1  4  1  0
  1 24  1  0
  1  2  1  1
  1  3  2  0
 25 28  1  0
 25 24  1  0
 25 26  1  1
 25 27  2  0
  6 11  1  0
  6 12  1  0
 29 36  1  0
 29 37  1  0
  9  7  1  6
  7 13  1  0
 10  8  1  6
  8 14  1  0
  4  5  1  0
 36 28  1  1
 33 30  1  6
 30 38  1  0
 34 31  1  6
 31 39  1  0
 35 32  1  1
 32 40  1  0
 41 43  1  0
 15 19  2  0
 42 43  2  0
 16 22  2  0
 12 17  1  1
 17 19  1  0
 17 20  1  0
 18 19  1  0
 18 22  1  0
 18 23  1  0
  9 10  1  0
  9 11  1  0
 10 12  1  0
 11  5  1  1
 33 34  1  0
 33 35  1  0
 34 36  1  0
 35 37  1  0
 37 43  1  1
 20 21  2  0
 21 22  1  0
M  CHG  3   2  -1  26  -1  41  -1
M  END
>  <COMPND>  (161) 
    udp_gluA.pdb 

>  <AUTHOR>  (161) 
    GENERATED BY OPEN BABEL 3.1.1

>  <MASTER>  (161) 
        0    0    0    0    0    0    0    0   56    0   56    0

>  <minimizedAffinity>  (161) 
-7.08366

>  <CNNscore>  (161) 
0.7565027475

>  <CNNaffinity>  (161) 
4.4732789993

>  <CNN_VS>  (161) 
3.3840477467

>  <CNNaffinity_variance>  (161) 
0.0781574845

$$$$
162
     RDKit          3D

 43 45  0  0  0  0  0  0  0  0999 V2000
   20.9651   71.8968   -1.1394 P   0  0  2  0  0  0  0  0  0  0  0  0
   20.3319   70.4434   -0.8142 O   0  0  0  0  0  0  0  0  0  0  0  0
   20.8754   72.8918   -0.0197 O   0  0  0  0  0  0  0  0  0  0  0  0
   20.2501   72.3311   -2.5243 O   0  0  0  0  0  0  0  0  0  0  0  0
   19.9330   71.3231   -3.4666 C   0  0  0  0  0  0  0  0  0  0  0  0
   20.4973   70.4858   -5.6480 O   0  0  0  0  0  0  0  0  0  0  0  0
   22.4075   72.7897   -5.8340 O   0  0  0  0  0  0  0  0  0  0  0  0
   20.2853   73.6544   -7.3120 O   0  0  0  0  0  0  0  0  0  0  0  0
   21.1186   72.7316   -5.2224 C   0  0  1  0  0  0  0  0  0  0  0  0
   20.0362   72.7219   -6.2810 C   0  0  2  0  0  0  0  0  0  0  0  0
   20.9596   71.3550   -4.5916 C   0  0  1  0  0  0  0  0  0  0  0  0
   20.0850   71.2840   -6.7688 C   0  0  2  0  0  0  0  0  0  0  0  0
   22.5322   73.6603   -6.2440 H   0  0  0  0  0  0  0  0  0  0  0  0
   20.2429   74.5544   -6.9511 H   0  0  0  0  0  0  0  0  0  0  0  0
   19.4423   70.8093   -9.4777 O   0  0  0  0  0  0  0  0  0  0  0  0
   15.1526   69.4967   -8.4195 O   0  0  0  0  0  0  0  0  0  0  0  0
   18.8076   70.8179   -7.2292 N   0  0  0  0  0  0  0  0  0  0  0  0
   17.3061   70.1570   -8.9482 N   0  0  0  0  0  0  0  0  0  0  0  0
   18.5879   70.6116   -8.6117 C   0  0  0  0  0  0  0  0  0  0  0  0
   17.7900   70.5687   -6.3163 C   0  0  0  0  0  0  0  0  0  0  0  0
   16.5733   70.1355   -6.6522 C   0  0  0  0  0  0  0  0  0  0  0  0
   16.2614   69.8956   -8.0765 C   0  0  0  0  0  0  0  0  0  0  0  0
   17.1287   70.0080   -9.9051 H   0  0  0  0  0  0  0  0  0  0  0  0
   22.4716   71.5404   -1.6044 O   0  0  0  0  0  0  0  0  0  0  0  0
   23.7471   72.4917   -1.8907 P   0  0  2  0  0  0  0  0  0  0  0  0
   23.0819   73.9552   -2.0799 O   0  0  0  0  0  0  0  0  0  0  0  0
   24.6008   72.0468   -3.0428 O   0  0  0  0  0  0  0  0  0  0  0  0
   24.5206   72.5756   -0.4775 O   0  0  0  0  0  0  0  0  0  0  0  0
   23.5999   72.6409    1.7036 O   0  0  0  0  0  0  0  0  0  0  0  0
   27.0978   74.7817    2.2031 O   0  0  0  0  0  0  0  0  0  0  0  0
   25.4432   75.1815   -0.1711 O   0  0  0  0  0  0  0  0  0  0  0  0
   26.9058   72.0512    3.1820 O   0  0  0  0  0  0  0  0  0  0  0  0
   26.2523   73.7805    1.6369 C   0  0  2  0  0  0  0  0  0  0  0  0
   25.0428   74.4446    0.9784 C   0  0  2  0  0  0  0  0  0  0  0  0
   25.8003   72.8501    2.7646 C   0  0  1  0  0  0  0  0  0  0  0  0
   24.0039   73.4015    0.5644 C   0  0  1  0  0  0  0  0  0  0  0  0
   24.6756   71.9257    2.3072 C   0  0  1  0  0  0  0  0  0  0  0  0
   27.3975   75.3849    1.5048 H   0  0  0  0  0  0  0  0  0  0  0  0
   26.1027   75.8451    0.0843 H   0  0  0  0  0  0  0  0  0  0  0  0
   27.6286   72.6275    3.4755 H   0  0  0  0  0  0  0  0  0  0  0  0
   22.6940   71.5295    3.4979 O   0  0  0  0  0  0  0  0  0  0  0  0
   24.6010   70.5752    4.3052 O   0  0  0  0  0  0  0  0  0  0  0  0
   24.0237   71.2641    3.4775 C   0  0  0  0  0  0  0  0  0  0  0  0
  1  4  1  0
  1 24  1  0
  1  2  1  1
  1  3  2  0
 25 28  1  0
 25 24  1  0
 25 26  1  6
 25 27  2  0
  6 11  1  0
  6 12  1  0
 29 36  1  0
 29 37  1  0
  9  7  1  6
  7 13  1  0
 10  8  1  6
  8 14  1  0
  4  5  1  0
 36 28  1  6
 33 30  1  1
 30 38  1  0
 34 31  1  6
 31 39  1  0
 35 32  1  6
 32 40  1  0
 41 43  1  0
 15 19  2  0
 42 43  2  0
 16 22  2  0
 12 17  1  1
 17 19  1  0
 17 20  1  0
 18 19  1  0
 18 22  1  0
 18 23  1  0
  9 10  1  0
  9 11  1  0
 10 12  1  0
 11  5  1  1
 33 34  1  0
 33 35  1  0
 34 36  1  0
 35 37  1  0
 37 43  1  1
 20 21  2  0
 21 22  1  0
M  CHG  3   2  -1  26  -1  41  -1
M  END
>  <COMPND>  (162) 
    udp_gluA.pdb 

>  <AUTHOR>  (162) 
    GENERATED BY OPEN BABEL 3.1.1

>  <MASTER>  (162) 
        0    0    0    0    0    0    0    0   56    0   56    0

>  <minimizedAffinity>  (162) 
-7.40493

>  <CNNscore>  (162) 
0.7225394249

>  <CNNaffinity>  (162) 
4.5389394760

>  <CNN_VS>  (162) 
3.2795627117

>  <CNNaffinity_variance>  (162) 
0.0606285706

$$$$
163
     RDKit          3D

 43 45  0  0  0  0  0  0  0  0999 V2000
   16.5701   72.1302   -2.2215 P   0  0  2  0  0  0  0  0  0  0  0  0
   17.7271   71.8105   -1.1361 O   0  0  0  0  0  0  0  0  0  0  0  0
   16.3920   73.5839   -2.5480 O   0  0  0  0  0  0  0  0  0  0  0  0
   15.2651   71.3776   -1.6313 O   0  0  0  0  0  0  0  0  0  0  0  0
   15.4261   70.5180   -0.5179 C   0  0  0  0  0  0  0  0  0  0  0  0
   15.0402   68.2611    0.2139 O   0  0  0  0  0  0  0  0  0  0  0  0
   14.0791   67.7188   -2.5742 O   0  0  0  0  0  0  0  0  0  0  0  0
   11.7494   67.9910   -1.1833 O   0  0  0  0  0  0  0  0  0  0  0  0
   13.9269   68.8946   -1.7786 C   0  0  1  0  0  0  0  0  0  0  0  0
   12.8913   68.6659   -0.6982 C   0  0  2  0  0  0  0  0  0  0  0  0
   15.2006   69.0794   -0.9651 C   0  0  1  0  0  0  0  0  0  0  0  0
   13.6693   67.8445    0.3157 C   0  0  2  0  0  0  0  0  0  0  0  0
   13.2774   67.5799   -3.1031 H   0  0  0  0  0  0  0  0  0  0  0  0
   11.2887   68.5551   -1.8248 H   0  0  0  0  0  0  0  0  0  0  0  0
   12.6994   65.8087    2.0161 O   0  0  0  0  0  0  0  0  0  0  0  0
   11.9509   68.7853    5.4547 O   0  0  0  0  0  0  0  0  0  0  0  0
   13.2144   68.0596    1.6602 N   0  0  0  0  0  0  0  0  0  0  0  0
   12.3266   67.2933    3.7267 N   0  0  0  0  0  0  0  0  0  0  0  0
   12.7462   66.9686    2.4300 C   0  0  0  0  0  0  0  0  0  0  0  0
   13.2364   69.3384    2.2035 C   0  0  0  0  0  0  0  0  0  0  0  0
   12.8333   69.6323    3.4412 C   0  0  0  0  0  0  0  0  0  0  0  0
   12.3289   68.5495    4.3111 C   0  0  0  0  0  0  0  0  0  0  0  0
   11.9945   66.5505    4.2811 H   0  0  0  0  0  0  0  0  0  0  0  0
   16.9862   71.2037   -3.4790 O   0  0  0  0  0  0  0  0  0  0  0  0
   16.1158   70.6511   -4.7243 P   0  0  2  0  0  0  0  0  0  0  0  0
   15.0189   71.8188   -4.9559 O   0  0  0  0  0  0  0  0  0  0  0  0
   15.5296   69.2860   -4.5082 O   0  0  0  0  0  0  0  0  0  0  0  0
   17.1033   70.7622   -5.9951 O   0  0  0  0  0  0  0  0  0  0  0  0
   18.6807   72.5265   -6.0872 O   0  0  0  0  0  0  0  0  0  0  0  0
   18.6188   71.2483  -10.0153 O   0  0  0  0  0  0  0  0  0  0  0  0
   16.1343   71.4920   -8.4980 O   0  0  0  0  0  0  0  0  0  0  0  0
   20.8516   70.5513   -8.2890 O   0  0  0  0  0  0  0  0  0  0  0  0
   18.5277   71.1078   -8.5976 C   0  0  2  0  0  0  0  0  0  0  0  0
   17.3963   71.9889   -8.0676 C   0  0  2  0  0  0  0  0  0  0  0  0
   19.8658   71.5387   -7.9927 C   0  0  1  0  0  0  0  0  0  0  0  0
   17.4152   72.0433   -6.5394 C   0  0  1  0  0  0  0  0  0  0  0  0
   19.7687   71.6917   -6.4776 C   0  0  1  0  0  0  0  0  0  0  0  0
   17.7796   70.9802  -10.4216 H   0  0  0  0  0  0  0  0  0  0  0  0
   16.1154   71.4545   -9.4669 H   0  0  0  0  0  0  0  0  0  0  0  0
   20.9231   70.4441   -9.2504 H   0  0  0  0  0  0  0  0  0  0  0  0
   20.7549   72.7823   -4.6502 O   0  0  0  0  0  0  0  0  0  0  0  0
   21.9793   72.6540   -6.5694 O   0  0  0  0  0  0  0  0  0  0  0  0
   20.9586   72.4183   -5.9405 C   0  0  0  0  0  0  0  0  0  0  0  0
  1  4  1  0
  1 24  1  0
  1  2  1  1
  1  3  2  0
 25 28  1  0
 25 24  1  0
 25 26  1  6
 25 27  2  0
  6 11  1  0
  6 12  1  0
 29 36  1  0
 29 37  1  0
  9  7  1  6
  7 13  1  0
 10  8  1  6
  8 14  1  0
  4  5  1  0
 36 28  1  1
 33 30  1  6
 30 38  1  0
 34 31  1  1
 31 39  1  0
 35 32  1  1
 32 40  1  0
 41 43  1  0
 15 19  2  0
 42 43  2  0
 16 22  2  0
 12 17  1  1
 17 19  1  0
 17 20  1  0
 18 19  1  0
 18 22  1  0
 18 23  1  0
  9 10  1  0
  9 11  1  0
 10 12  1  0
 11  5  1  1
 33 34  1  0
 33 35  1  0
 34 36  1  0
 35 37  1  0
 37 43  1  6
 20 21  2  0
 21 22  1  0
M  CHG  3   2  -1  26  -1  41  -1
M  END
>  <COMPND>  (163) 
    udp_gluA.pdb 

>  <AUTHOR>  (163) 
    GENERATED BY OPEN BABEL 3.1.1

>  <MASTER>  (163) 
        0    0    0    0    0    0    0    0   56    0   56    0

>  <minimizedAffinity>  (163) 
-6.65811

>  <CNNscore>  (163) 
0.6895787716

>  <CNNaffinity>  (163) 
4.1992788315

>  <CNN_VS>  (163) 
2.8957335949

>  <CNNaffinity_variance>  (163) 
0.0515063331

$$$$
164
     RDKit          3D

 43 45  0  0  0  0  0  0  0  0999 V2000
   18.9595   73.7198   -1.0080 P   0  0  2  0  0  0  0  0  0  0  0  0
   18.0580   74.5587    0.0420 O   0  0  0  0  0  0  0  0  0  0  0  0
   19.3737   74.4782   -2.2348 O   0  0  0  0  0  0  0  0  0  0  0  0
   18.0994   72.3747   -1.2705 O   0  0  0  0  0  0  0  0  0  0  0  0
   17.6153   72.1260   -2.5775 C   0  0  0  0  0  0  0  0  0  0  0  0
   17.3874   70.3053   -4.1301 O   0  0  0  0  0  0  0  0  0  0  0  0
   20.3245   69.8469   -3.7369 O   0  0  0  0  0  0  0  0  0  0  0  0
   20.2420   71.1727   -6.1184 O   0  0  0  0  0  0  0  0  0  0  0  0
   19.5989   71.0760   -3.7754 C   0  0  1  0  0  0  0  0  0  0  0  0
   19.1958   71.4022   -5.1979 C   0  0  2  0  0  0  0  0  0  0  0  0
   18.2504   70.8466   -3.1067 C   0  0  1  0  0  0  0  0  0  0  0  0
   18.0139   70.4719   -5.4119 C   0  0  2  0  0  0  0  0  0  0  0  0
   21.1900   69.9686   -4.1585 H   0  0  0  0  0  0  0  0  0  0  0  0
   20.9700   71.7895   -5.9408 H   0  0  0  0  0  0  0  0  0  0  0  0
   16.5551   68.9285   -7.2736 O   0  0  0  0  0  0  0  0  0  0  0  0
   14.3577   72.6380   -8.9030 O   0  0  0  0  0  0  0  0  0  0  0  0
   17.0541   71.0088   -6.3346 N   0  0  0  0  0  0  0  0  0  0  0  0
   15.4628   70.7776   -8.0841 N   0  0  0  0  0  0  0  0  0  0  0  0
   16.3757   70.1470   -7.2286 C   0  0  0  0  0  0  0  0  0  0  0  0
   16.7917   72.3733   -6.3468 C   0  0  0  0  0  0  0  0  0  0  0  0
   15.9186   72.9599   -7.1681 C   0  0  0  0  0  0  0  0  0  0  0  0
   15.1685   72.1306   -8.1339 C   0  0  0  0  0  0  0  0  0  0  0  0
   14.9799   70.1984   -8.7170 H   0  0  0  0  0  0  0  0  0  0  0  0
   20.1857   73.1947   -0.0950 O   0  0  0  0  0  0  0  0  0  0  0  0
   21.3279   72.0882   -0.3862 P   0  0  2  0  0  0  0  0  0  0  0  0
   22.1363   72.7128   -1.6418 O   0  0  0  0  0  0  0  0  0  0  0  0
   20.7981   70.7029   -0.6191 O   0  0  0  0  0  0  0  0  0  0  0  0
   22.3471   72.2149    0.8579 O   0  0  0  0  0  0  0  0  0  0  0  0
   24.6641   72.4773    0.4434 O   0  0  0  0  0  0  0  0  0  0  0  0
   24.6446   71.3300    4.4122 O   0  0  0  0  0  0  0  0  0  0  0  0
   22.8817   70.0227    2.4842 O   0  0  0  0  0  0  0  0  0  0  0  0
   25.1231   74.1072    3.6984 O   0  0  0  0  0  0  0  0  0  0  0  0
   24.1375   71.9581    3.2348 C   0  0  2  0  0  0  0  0  0  0  0  0
   23.9401   70.9093    2.1400 C   0  0  2  0  0  0  0  0  0  0  0  0
   25.1529   73.0114    2.7859 C   0  0  1  0  0  0  0  0  0  0  0  0
   23.6189   71.5716    0.7994 C   0  0  1  0  0  0  0  0  0  0  0  0
   24.8340   73.5323    1.3875 C   0  0  1  0  0  0  0  0  0  0  0  0
   24.0159   70.6565    4.7160 H   0  0  0  0  0  0  0  0  0  0  0  0
   23.0787   69.5992    3.3340 H   0  0  0  0  0  0  0  0  0  0  0  0
   25.3243   73.7891    4.5924 H   0  0  0  0  0  0  0  0  0  0  0  0
   27.1147   74.0561    1.5478 O   0  0  0  0  0  0  0  0  0  0  0  0
   25.9374   75.0402   -0.1389 O   0  0  0  0  0  0  0  0  0  0  0  0
   25.9896   74.2981    0.8304 C   0  0  0  0  0  0  0  0  0  0  0  0
  1  4  1  0
  1 24  1  0
  1  2  1  1
  1  3  2  0
 25 28  1  0
 25 24  1  0
 25 26  1  6
 25 27  2  0
  6 11  1  0
  6 12  1  0
 29 36  1  0
 29 37  1  0
  9  7  1  6
  7 13  1  0
 10  8  1  6
  8 14  1  0
  4  5  1  0
 36 28  1  1
 33 30  1  1
 30 38  1  0
 34 31  1  1
 31 39  1  0
 35 32  1  1
 32 40  1  0
 41 43  1  0
 15 19  2  0
 42 43  2  0
 16 22  2  0
 12 17  1  6
 17 19  1  0
 17 20  1  0
 18 19  1  0
 18 22  1  0
 18 23  1  0
  9 10  1  0
  9 11  1  0
 10 12  1  0
 11  5  1  6
 33 34  1  0
 33 35  1  0
 34 36  1  0
 35 37  1  0
 37 43  1  6
 20 21  2  0
 21 22  1  0
M  CHG  3   2  -1  26  -1  41  -1
M  END
>  <COMPND>  (164) 
    udp_gluA.pdb 

>  <AUTHOR>  (164) 
    GENERATED BY OPEN BABEL 3.1.1

>  <MASTER>  (164) 
        0    0    0    0    0    0    0    0   56    0   56    0

>  <minimizedAffinity>  (164) 
-6.36819

>  <CNNscore>  (164) 
0.6635904908

>  <CNNaffinity>  (164) 
4.4695229530

>  <CNN_VS>  (164) 
2.9659328461

>  <CNNaffinity_variance>  (164) 
0.0719120428

$$$$
165
     RDKit          3D

 43 45  0  0  0  0  0  0  0  0999 V2000
   21.1231   72.0565   -1.4151 P   0  0  2  0  0  0  0  0  0  0  0  0
   21.1928   70.8832   -0.3027 O   0  0  0  0  0  0  0  0  0  0  0  0
   20.9918   73.4458   -0.8632 O   0  0  0  0  0  0  0  0  0  0  0  0
   19.9382   71.5802   -2.4085 O   0  0  0  0  0  0  0  0  0  0  0  0
   19.6791   72.3486   -3.5691 C   0  0  0  0  0  0  0  0  0  0  0  0
   17.8720   72.8921   -5.0579 O   0  0  0  0  0  0  0  0  0  0  0  0
   16.0467   71.8175   -2.9353 O   0  0  0  0  0  0  0  0  0  0  0  0
   16.1712   69.7546   -4.7143 O   0  0  0  0  0  0  0  0  0  0  0  0
   17.3448   71.3673   -3.3236 C   0  0  1  0  0  0  0  0  0  0  0  0
   17.2719   70.6370   -4.6478 C   0  0  2  0  0  0  0  0  0  0  0  0
   18.1792   72.5901   -3.6796 C   0  0  1  0  0  0  0  0  0  0  0  0
   17.1610   71.7857   -5.6358 C   0  0  2  0  0  0  0  0  0  0  0  0
   15.4952   71.0536   -2.7031 H   0  0  0  0  0  0  0  0  0  0  0  0
   16.2892   69.0412   -4.0669 H   0  0  0  0  0  0  0  0  0  0  0  0
   15.7858   70.5063   -7.7449 O   0  0  0  0  0  0  0  0  0  0  0  0
   19.4939   70.6276  -10.4797 O   0  0  0  0  0  0  0  0  0  0  0  0
   17.7430   71.4709   -6.9098 N   0  0  0  0  0  0  0  0  0  0  0  0
   17.6343   70.5670   -9.1046 N   0  0  0  0  0  0  0  0  0  0  0  0
   16.9656   70.8268   -7.9011 C   0  0  0  0  0  0  0  0  0  0  0  0
   19.0680   71.8008   -7.1675 C   0  0  0  0  0  0  0  0  0  0  0  0
   19.6916   71.5468   -8.3196 C   0  0  0  0  0  0  0  0  0  0  0  0
   18.9506   70.8754   -9.4075 C   0  0  0  0  0  0  0  0  0  0  0  0
   17.1141   70.1174   -9.8093 H   0  0  0  0  0  0  0  0  0  0  0  0
   22.4568   71.8040   -2.2929 O   0  0  0  0  0  0  0  0  0  0  0  0
   23.9703   72.3392   -2.1019 P   0  0  2  0  0  0  0  0  0  0  0  0
   23.8207   73.9417   -2.2756 O   0  0  0  0  0  0  0  0  0  0  0  0
   24.9684   71.7073   -3.0284 O   0  0  0  0  0  0  0  0  0  0  0  0
   24.2846   72.1273   -0.5338 O   0  0  0  0  0  0  0  0  0  0  0  0
   23.3302   73.3005    1.2887 O   0  0  0  0  0  0  0  0  0  0  0  0
   27.0204   72.2382    2.8125 O   0  0  0  0  0  0  0  0  0  0  0  0
   26.7752   73.2091    0.0681 O   0  0  0  0  0  0  0  0  0  0  0  0
   24.6302   70.8112    3.6500 O   0  0  0  0  0  0  0  0  0  0  0  0
   25.8494   72.0874    2.0100 C   0  0  2  0  0  0  0  0  0  0  0  0
   25.7382   73.2646    1.0408 C   0  0  2  0  0  0  0  0  0  0  0  0
   24.6376   72.0504    2.9438 C   0  0  1  0  0  0  0  0  0  0  0  0
   24.3855   73.2599    0.3274 C   0  0  1  0  0  0  0  0  0  0  0  0
   23.3309   72.1764    2.1660 C   0  0  1  0  0  0  0  0  0  0  0  0
   27.8036   72.2643    2.2404 H   0  0  0  0  0  0  0  0  0  0  0  0
   27.6365   73.2114    0.5138 H   0  0  0  0  0  0  0  0  0  0  0  0
   25.4567   70.7185    4.1492 H   0  0  0  0  0  0  0  0  0  0  0  0
   21.5192   73.5745    2.6808 O   0  0  0  0  0  0  0  0  0  0  0  0
   21.8973   71.8074    4.0712 O   0  0  0  0  0  0  0  0  0  0  0  0
   22.1914   72.4690    3.0870 C   0  0  0  0  0  0  0  0  0  0  0  0
  1  4  1  0
  1 24  1  0
  1  2  1  1
  1  3  2  0
 25 28  1  0
 25 24  1  0
 25 26  1  1
 25 27  2  0
  6 11  1  0
  6 12  1  0
 29 36  1  0
 29 37  1  0
  9  7  1  6
  7 13  1  0
 10  8  1  1
  8 14  1  0
  4  5  1  0
 36 28  1  1
 33 30  1  1
 30 38  1  0
 34 31  1  6
 31 39  1  0
 35 32  1  6
 32 40  1  0
 41 43  1  0
 15 19  2  0
 42 43  2  0
 16 22  2  0
 12 17  1  6
 17 19  1  0
 17 20  1  0
 18 19  1  0
 18 22  1  0
 18 23  1  0
  9 10  1  0
  9 11  1  0
 10 12  1  0
 11  5  1  6
 33 34  1  0
 33 35  1  0
 34 36  1  0
 35 37  1  0
 37 43  1  1
 20 21  2  0
 21 22  1  0
M  CHG  3   2  -1  26  -1  41  -1
M  END
>  <COMPND>  (165) 
    udp_gluA.pdb 

>  <AUTHOR>  (165) 
    GENERATED BY OPEN BABEL 3.1.1

>  <MASTER>  (165) 
        0    0    0    0    0    0    0    0   56    0   56    0

>  <minimizedAffinity>  (165) 
-6.89810

>  <CNNscore>  (165) 
0.6552613378

>  <CNNaffinity>  (165) 
4.5510702133

>  <CNN_VS>  (165) 
2.9821403027

>  <CNNaffinity_variance>  (165) 
0.0665383860

$$$$
166
     RDKit          3D

 43 45  0  0  0  0  0  0  0  0999 V2000
   21.0080   72.0302   -0.8052 P   0  0  2  0  0  0  0  0  0  0  0  0
   20.3659   70.5482   -0.7041 O   0  0  0  0  0  0  0  0  0  0  0  0
   20.6839   72.9408    0.3427 O   0  0  0  0  0  0  0  0  0  0  0  0
   20.5516   72.5525   -2.2670 O   0  0  0  0  0  0  0  0  0  0  0  0
   20.1172   71.6000   -3.2201 C   0  0  0  0  0  0  0  0  0  0  0  0
   20.6301   70.6225   -5.3553 O   0  0  0  0  0  0  0  0  0  0  0  0
   22.6025   72.8553   -5.6950 O   0  0  0  0  0  0  0  0  0  0  0  0
   20.4874   73.6949   -7.1975 O   0  0  0  0  0  0  0  0  0  0  0  0
   21.3202   72.8700   -5.0672 C   0  0  1  0  0  0  0  0  0  0  0  0
   20.2249   72.8309   -6.1117 C   0  0  2  0  0  0  0  0  0  0  0  0
   21.1301   71.5373   -4.3560 C   0  0  1  0  0  0  0  0  0  0  0  0
   20.2267   71.3665   -6.5159 C   0  0  2  0  0  0  0  0  0  0  0  0
   22.7468   73.6969   -6.1561 H   0  0  0  0  0  0  0  0  0  0  0  0
   20.4752   74.6150   -6.8889 H   0  0  0  0  0  0  0  0  0  0  0  0
   19.4803   70.9355   -9.2054 O   0  0  0  0  0  0  0  0  0  0  0  0
   15.2282   69.6221   -8.0060 O   0  0  0  0  0  0  0  0  0  0  0  0
   18.9310   70.9120   -6.9347 N   0  0  0  0  0  0  0  0  0  0  0  0
   17.3629   70.2828   -8.6055 N   0  0  0  0  0  0  0  0  0  0  0  0
   18.6584   70.7276   -8.3109 C   0  0  0  0  0  0  0  0  0  0  0  0
   17.9475   70.6525   -5.9879 C   0  0  0  0  0  0  0  0  0  0  0  0
   16.7172   70.2288   -6.2841 C   0  0  0  0  0  0  0  0  0  0  0  0
   16.3508   70.0118   -7.6990 C   0  0  0  0  0  0  0  0  0  0  0  0
   17.1490   70.1491   -9.5572 H   0  0  0  0  0  0  0  0  0  0  0  0
   22.5841   71.7301   -1.0024 O   0  0  0  0  0  0  0  0  0  0  0  0
   23.8828   72.6527   -0.7273 P   0  0  2  0  0  0  0  0  0  0  0  0
   23.3906   74.1278   -1.1770 O   0  0  0  0  0  0  0  0  0  0  0  0
   25.1306   72.1806   -1.4157 O   0  0  0  0  0  0  0  0  0  0  0  0
   23.9946   72.7333    0.8801 O   0  0  0  0  0  0  0  0  0  0  0  0
   25.7325   71.9831    2.3035 O   0  0  0  0  0  0  0  0  0  0  0  0
   22.4090   71.5053    4.7106 O   0  0  0  0  0  0  0  0  0  0  0  0
   22.3120   70.7609    1.8873 O   0  0  0  0  0  0  0  0  0  0  0  0
   24.2283   73.7277    5.1594 O   0  0  0  0  0  0  0  0  0  0  0  0
   23.2045   72.1133    3.6930 C   0  0  2  0  0  0  0  0  0  0  0  0
   23.5010   71.0906    2.5958 C   0  0  2  0  0  0  0  0  0  0  0  0
   24.5063   72.5966    4.3361 C   0  0  1  0  0  0  0  0  0  0  0  0
   24.5354   71.6323    1.6082 C   0  0  1  0  0  0  0  0  0  0  0  0
   25.5320   73.0014    3.2812 C   0  0  1  0  0  0  0  0  0  0  0  0
   21.5762   71.1903    4.3252 H   0  0  0  0  0  0  0  0  0  0  0  0
   21.6511   70.4168    2.5080 H   0  0  0  0  0  0  0  0  0  0  0  0
   23.5766   73.4836    5.8350 H   0  0  0  0  0  0  0  0  0  0  0  0
   27.7891   72.3641    3.2549 O   0  0  0  0  0  0  0  0  0  0  0  0
   27.1565   73.8866    4.8300 O   0  0  0  0  0  0  0  0  0  0  0  0
   26.8878   73.1531    3.8904 C   0  0  0  0  0  0  0  0  0  0  0  0
  1  4  1  0
  1 24  1  0
  1  2  1  1
  1  3  2  0
 25 28  1  0
 25 24  1  0
 25 26  1  6
 25 27  2  0
  6 11  1  0
  6 12  1  0
 29 36  1  0
 29 37  1  0
  9  7  1  6
  7 13  1  0
 10  8  1  6
  8 14  1  0
  4  5  1  0
 36 28  1  1
 33 30  1  1
 30 38  1  0
 34 31  1  6
 31 39  1  0
 35 32  1  1
 32 40  1  0
 41 43  1  0
 15 19  2  0
 42 43  2  0
 16 22  2  0
 12 17  1  1
 17 19  1  0
 17 20  1  0
 18 19  1  0
 18 22  1  0
 18 23  1  0
  9 10  1  0
  9 11  1  0
 10 12  1  0
 11  5  1  1
 33 34  1  0
 33 35  1  0
 34 36  1  0
 35 37  1  0
 37 43  1  1
 20 21  2  0
 21 22  1  0
M  CHG  3   2  -1  26  -1  41  -1
M  END
>  <COMPND>  (166) 
    udp_gluA.pdb 

>  <AUTHOR>  (166) 
    GENERATED BY OPEN BABEL 3.1.1

>  <MASTER>  (166) 
        0    0    0    0    0    0    0    0   56    0   56    0

>  <minimizedAffinity>  (166) 
-7.20310

>  <CNNscore>  (166) 
0.6505945921

>  <CNNaffinity>  (166) 
4.4333348274

>  <CNN_VS>  (166) 
2.8843035698

>  <CNNaffinity_variance>  (166) 
0.0570300221

$$$$
167
     RDKit          3D

 43 45  0  0  0  0  0  0  0  0999 V2000
   19.7058   73.8337   -1.6115 P   0  0  2  0  0  0  0  0  0  0  0  0
   19.5085   73.5281   -0.0346 O   0  0  0  0  0  0  0  0  0  0  0  0
   18.4872   74.3585   -2.3125 O   0  0  0  0  0  0  0  0  0  0  0  0
   20.3166   72.4561   -2.2008 O   0  0  0  0  0  0  0  0  0  0  0  0
   19.7493   71.9146   -3.3795 C   0  0  0  0  0  0  0  0  0  0  0  0
   20.4048   70.6542   -5.3184 O   0  0  0  0  0  0  0  0  0  0  0  0
   22.5107   72.7473   -5.7374 O   0  0  0  0  0  0  0  0  0  0  0  0
   20.5870   73.4704   -7.5297 O   0  0  0  0  0  0  0  0  0  0  0  0
   21.1789   72.8916   -5.2435 C   0  0  1  0  0  0  0  0  0  0  0  0
   20.1829   72.7625   -6.3764 C   0  0  2  0  0  0  0  0  0  0  0  0
   20.8573   71.6686   -4.3956 C   0  0  1  0  0  0  0  0  0  0  0  0
   20.1473   71.2596   -6.5953 C   0  0  2  0  0  0  0  0  0  0  0  0
   22.7390   73.5171   -6.2824 H   0  0  0  0  0  0  0  0  0  0  0  0
   20.5933   74.4221   -7.3393 H   0  0  0  0  0  0  0  0  0  0  0  0
   19.5052   70.9238   -9.3251 O   0  0  0  0  0  0  0  0  0  0  0  0
   15.2301   69.5145   -8.3342 O   0  0  0  0  0  0  0  0  0  0  0  0
   18.8739   70.8062   -7.0787 N   0  0  0  0  0  0  0  0  0  0  0  0
   17.3762   70.2232   -8.8290 N   0  0  0  0  0  0  0  0  0  0  0  0
   18.6541   70.6718   -8.4700 C   0  0  0  0  0  0  0  0  0  0  0  0
   17.8601   70.4986   -6.1794 C   0  0  0  0  0  0  0  0  0  0  0  0
   16.6472   70.0721   -6.5367 C   0  0  0  0  0  0  0  0  0  0  0  0
   16.3355   69.9054   -7.9714 C   0  0  0  0  0  0  0  0  0  0  0  0
   17.1989   70.1238   -9.7923 H   0  0  0  0  0  0  0  0  0  0  0  0
   20.9766   74.8325   -1.6314 O   0  0  0  0  0  0  0  0  0  0  0  0
   22.5646   74.5303   -1.6064 P   0  0  2  0  0  0  0  0  0  0  0  0
   23.1995   75.9302   -1.0988 O   0  0  0  0  0  0  0  0  0  0  0  0
   23.1183   74.0375   -2.9119 O   0  0  0  0  0  0  0  0  0  0  0  0
   22.7691   73.5176   -0.3674 O   0  0  0  0  0  0  0  0  0  0  0  0
   24.8360   72.3613   -0.3733 O   0  0  0  0  0  0  0  0  0  0  0  0
   22.7832   70.3987    2.6271 O   0  0  0  0  0  0  0  0  0  0  0  0
   21.4314   71.1331    0.1436 O   0  0  0  0  0  0  0  0  0  0  0  0
   24.8799   72.2983    3.2950 O   0  0  0  0  0  0  0  0  0  0  0  0
   23.1511   71.5119    1.8126 C   0  0  2  0  0  0  0  0  0  0  0  0
   22.8378   71.2006    0.3489 C   0  0  2  0  0  0  0  0  0  0  0  0
   24.6506   71.7567    1.9956 C   0  0  1  0  0  0  0  0  0  0  0  0
   23.4253   72.2682   -0.5753 C   0  0  1  0  0  0  0  0  0  0  0  0
   25.1856   72.7380    0.9567 C   0  0  1  0  0  0  0  0  0  0  0  0
   21.8341   70.2242    2.5271 H   0  0  0  0  0  0  0  0  0  0  0  0
   21.0520   70.4578    0.7271 H   0  0  0  0  0  0  0  0  0  0  0  0
   24.5437   71.6833    3.9656 H   0  0  0  0  0  0  0  0  0  0  0  0
   27.1317   72.4674   -0.3243 O   0  0  0  0  0  0  0  0  0  0  0  0
   27.4013   72.9060    1.8969 O   0  0  0  0  0  0  0  0  0  0  0  0
   26.6794   72.7191    0.9290 C   0  0  0  0  0  0  0  0  0  0  0  0
  1  4  1  0
  1 24  1  0
  1  2  1  1
  1  3  2  0
 25 28  1  0
 25 24  1  0
 25 26  1  1
 25 27  2  0
  6 11  1  0
  6 12  1  0
 29 36  1  0
 29 37  1  0
  9  7  1  6
  7 13  1  0
 10  8  1  6
  8 14  1  0
  4  5  1  0
 36 28  1  1
 33 30  1  1
 30 38  1  0
 34 31  1  1
 31 39  1  0
 35 32  1  1
 32 40  1  0
 41 43  1  0
 15 19  2  0
 42 43  2  0
 16 22  2  0
 12 17  1  1
 17 19  1  0
 17 20  1  0
 18 19  1  0
 18 22  1  0
 18 23  1  0
  9 10  1  0
  9 11  1  0
 10 12  1  0
 11  5  1  1
 33 34  1  0
 33 35  1  0
 34 36  1  0
 35 37  1  0
 37 43  1  6
 20 21  2  0
 21 22  1  0
M  CHG  3   2  -1  26  -1  41  -1
M  END
>  <COMPND>  (167) 
    udp_gluA.pdb 

>  <AUTHOR>  (167) 
    GENERATED BY OPEN BABEL 3.1.1

>  <MASTER>  (167) 
        0    0    0    0    0    0    0    0   56    0   56    0

>  <minimizedAffinity>  (167) 
-7.03992

>  <CNNscore>  (167) 
0.6031857133

>  <CNNaffinity>  (167) 
4.2537598610

>  <CNN_VS>  (167) 
2.5658071041

>  <CNNaffinity_variance>  (167) 
0.0569526441

$$$$
168
     RDKit          3D

 43 45  0  0  0  0  0  0  0  0999 V2000
   17.9744   72.6117   -1.0974 P   0  0  2  0  0  0  0  0  0  0  0  0
   19.2605   73.0760   -0.2319 O   0  0  0  0  0  0  0  0  0  0  0  0
   16.9221   73.6651   -1.2834 O   0  0  0  0  0  0  0  0  0  0  0  0
   17.4863   71.2518   -0.3691 O   0  0  0  0  0  0  0  0  0  0  0  0
   16.1039   70.9464   -0.3639 C   0  0  0  0  0  0  0  0  0  0  0  0
   15.6154   68.5929   -0.3586 O   0  0  0  0  0  0  0  0  0  0  0  0
   14.7977   68.9455   -3.2220 O   0  0  0  0  0  0  0  0  0  0  0  0
   12.4020   68.8922   -1.9204 O   0  0  0  0  0  0  0  0  0  0  0  0
   14.6336   69.8371   -2.1190 C   0  0  1  0  0  0  0  0  0  0  0  0
   13.5330   69.3425   -1.2044 C   0  0  2  0  0  0  0  0  0  0  0  0
   15.8642   69.7168   -1.2305 C   0  0  1  0  0  0  0  0  0  0  0  0
   14.2299   68.2242   -0.4484 C   0  0  2  0  0  0  0  0  0  0  0  0
   14.0235   69.0047   -3.8040 H   0  0  0  0  0  0  0  0  0  0  0  0
   11.9938   69.6407   -2.3841 H   0  0  0  0  0  0  0  0  0  0  0  0
   13.4816   65.7346    0.6552 O   0  0  0  0  0  0  0  0  0  0  0  0
   12.2333   67.6727    4.6464 O   0  0  0  0  0  0  0  0  0  0  0  0
   13.7065   68.0495    0.8768 N   0  0  0  0  0  0  0  0  0  0  0  0
   12.8596   66.7024    2.6416 N   0  0  0  0  0  0  0  0  0  0  0  0
   13.3611   66.7559    1.3344 C   0  0  0  0  0  0  0  0  0  0  0  0
   13.5415   69.1507    1.7082 C   0  0  0  0  0  0  0  0  0  0  0  0
   13.0623   69.0839    2.9518 C   0  0  0  0  0  0  0  0  0  0  0  0
   12.6768   67.7695    3.5061 C   0  0  0  0  0  0  0  0  0  0  0  0
   12.6104   65.8127    2.9816 H   0  0  0  0  0  0  0  0  0  0  0  0
   18.6363   72.0715   -2.4696 O   0  0  0  0  0  0  0  0  0  0  0  0
   19.6751   72.7689   -3.4934 P   0  0  2  0  0  0  0  0  0  0  0  0
   21.0397   71.9284   -3.2655 O   0  0  0  0  0  0  0  0  0  0  0  0
   19.8232   74.2511   -3.3059 O   0  0  0  0  0  0  0  0  0  0  0  0
   19.1647   72.3271   -4.9586 O   0  0  0  0  0  0  0  0  0  0  0  0
   18.4654   70.2584   -5.8754 O   0  0  0  0  0  0  0  0  0  0  0  0
   20.5209   71.9307   -9.0450 O   0  0  0  0  0  0  0  0  0  0  0  0
   21.5770   72.1237   -6.3280 O   0  0  0  0  0  0  0  0  0  0  0  0
   17.6143   71.8852   -9.0521 O   0  0  0  0  0  0  0  0  0  0  0  0
   19.7123   71.9351   -7.8685 C   0  0  2  0  0  0  0  0  0  0  0  0
   20.4851   71.2970   -6.7139 C   0  0  2  0  0  0  0  0  0  0  0  0
   18.4418   71.1351   -8.1650 C   0  0  1  0  0  0  0  0  0  0  0  0
   19.5765   71.0750   -5.5040 C   0  0  1  0  0  0  0  0  0  0  0  0
   17.6546   70.8470   -6.8899 C   0  0  1  0  0  0  0  0  0  0  0  0
   21.3343   72.4333   -8.8803 H   0  0  0  0  0  0  0  0  0  0  0  0
   22.1575   72.2690   -7.0911 H   0  0  0  0  0  0  0  0  0  0  0  0
   18.1036   72.0753   -9.8678 H   0  0  0  0  0  0  0  0  0  0  0  0
   16.0362   69.4216   -5.9677 O   0  0  0  0  0  0  0  0  0  0  0  0
   16.3136   69.3545   -8.2299 O   0  0  0  0  0  0  0  0  0  0  0  0
   16.6128   69.8042   -7.1339 C   0  0  0  0  0  0  0  0  0  0  0  0
  1  4  1  0
  1 24  1  0
  1  2  1  1
  1  3  2  0
 25 28  1  0
 25 24  1  0
 25 26  1  1
 25 27  2  0
  6 11  1  0
  6 12  1  0
 29 36  1  0
 29 37  1  0
  9  7  1  6
  7 13  1  0
 10  8  1  6
  8 14  1  0
  4  5  1  0
 36 28  1  6
 33 30  1  6
 30 38  1  0
 34 31  1  1
 31 39  1  0
 35 32  1  6
 32 40  1  0
 41 43  1  0
 15 19  2  0
 42 43  2  0
 16 22  2  0
 12 17  1  1
 17 19  1  0
 17 20  1  0
 18 19  1  0
 18 22  1  0
 18 23  1  0
  9 10  1  0
  9 11  1  0
 10 12  1  0
 11  5  1  1
 33 34  1  0
 33 35  1  0
 34 36  1  0
 35 37  1  0
 37 43  1  6
 20 21  2  0
 21 22  1  0
M  CHG  3   2  -1  26  -1  41  -1
M  END
>  <COMPND>  (168) 
    udp_gluA.pdb 

>  <AUTHOR>  (168) 
    GENERATED BY OPEN BABEL 3.1.1

>  <MASTER>  (168) 
        0    0    0    0    0    0    0    0   56    0   56    0

>  <minimizedAffinity>  (168) 
-6.74945

>  <CNNscore>  (168) 
0.5221155882

>  <CNNaffinity>  (168) 
4.2349138260

>  <CNN_VS>  (168) 
2.2111144066

>  <CNNaffinity_variance>  (168) 
0.1233256906

$$$$
169
     RDKit          3D

 43 45  0  0  0  0  0  0  0  0999 V2000
   22.5775   71.6861    1.4211 P   0  0  2  0  0  0  0  0  0  0  0  0
   22.6380   70.5770    2.5981 O   0  0  0  0  0  0  0  0  0  0  0  0
   22.0253   73.0188    1.8343 O   0  0  0  0  0  0  0  0  0  0  0  0
   21.7871   70.9388    0.2234 O   0  0  0  0  0  0  0  0  0  0  0  0
   21.6263   71.6187   -1.0080 C   0  0  0  0  0  0  0  0  0  0  0  0
   22.0933   70.3946   -3.0233 O   0  0  0  0  0  0  0  0  0  0  0  0
   24.7107   71.8564   -3.0836 O   0  0  0  0  0  0  0  0  0  0  0  0
   23.2199   73.2284   -4.9088 O   0  0  0  0  0  0  0  0  0  0  0  0
   23.4269   72.3188   -2.6633 C   0  0  1  0  0  0  0  0  0  0  0  0
   22.5390   72.5641   -3.8648 C   0  0  2  0  0  0  0  0  0  0  0  0
   22.7151   71.1643   -1.9715 C   0  0  1  0  0  0  0  0  0  0  0  0
   22.1231   71.1528   -4.2430 C   0  0  2  0  0  0  0  0  0  0  0  0
   25.1846   72.5770   -3.5285 H   0  0  0  0  0  0  0  0  0  0  0  0
   23.4630   74.1221   -4.6189 H   0  0  0  0  0  0  0  0  0  0  0  0
   21.6367   71.5634   -6.9946 O   0  0  0  0  0  0  0  0  0  0  0  0
   17.0975   70.9615   -6.4687 O   0  0  0  0  0  0  0  0  0  0  0  0
   20.8238   71.1089   -4.8519 N   0  0  0  0  0  0  0  0  0  0  0  0
   19.3763   71.2642   -6.7299 N   0  0  0  0  0  0  0  0  0  0  0  0
   20.6885   71.3292   -6.2430 C   0  0  0  0  0  0  0  0  0  0  0  0
   19.7019   70.8487   -4.0744 C   0  0  0  0  0  0  0  0  0  0  0  0
   18.4575   70.7897   -4.5528 C   0  0  0  0  0  0  0  0  0  0  0  0
   18.2291   71.0092   -5.9960 C   0  0  0  0  0  0  0  0  0  0  0  0
   19.2566   71.4163   -7.6952 H   0  0  0  0  0  0  0  0  0  0  0  0
   24.1008   71.7262    0.8817 O   0  0  0  0  0  0  0  0  0  0  0  0
   25.2401   72.8668    1.0032 P   0  0  2  0  0  0  0  0  0  0  0  0
   24.6352   74.0882    0.1299 O   0  0  0  0  0  0  0  0  0  0  0  0
   26.6078   72.4190    0.5758 O   0  0  0  0  0  0  0  0  0  0  0  0
   25.1492   73.3750    2.5315 O   0  0  0  0  0  0  0  0  0  0  0  0
   26.9040   72.5022    3.8612 O   0  0  0  0  0  0  0  0  0  0  0  0
   24.5868   74.4292    6.6870 O   0  0  0  0  0  0  0  0  0  0  0  0
   23.3347   72.8489    4.5729 O   0  0  0  0  0  0  0  0  0  0  0  0
   27.0796   75.6219    5.7844 O   0  0  0  0  0  0  0  0  0  0  0  0
   25.1609   74.2170    5.3973 C   0  0  2  0  0  0  0  0  0  0  0  0
   24.7278   72.8516    4.8627 C   0  0  2  0  0  0  0  0  0  0  0  0
   26.6833   74.2733    5.5422 C   0  0  1  0  0  0  0  0  0  0  0  0
   25.5012   72.4904    3.5938 C   0  0  1  0  0  0  0  0  0  0  0  0
   27.3819   73.7790    4.2788 C   0  0  1  0  0  0  0  0  0  0  0  0
   23.6195   74.3977    6.6196 H   0  0  0  0  0  0  0  0  0  0  0  0
   22.8378   73.0776    5.3736 H   0  0  0  0  0  0  0  0  0  0  0  0
   26.6418   75.9486    6.5859 H   0  0  0  0  0  0  0  0  0  0  0  0
   29.0717   73.4435    5.8705 O   0  0  0  0  0  0  0  0  0  0  0  0
   29.6882   73.4067    3.6755 O   0  0  0  0  0  0  0  0  0  0  0  0
   28.8314   73.5262    4.5384 C   0  0  0  0  0  0  0  0  0  0  0  0
  1  4  1  0
  1 24  1  0
  1  2  1  1
  1  3  2  0
 25 28  1  0
 25 24  1  0
 25 26  1  6
 25 27  2  0
  6 11  1  0
  6 12  1  0
 29 36  1  0
 29 37  1  0
  9  7  1  6
  7 13  1  0
 10  8  1  6
  8 14  1  0
  4  5  1  0
 36 28  1  6
 33 30  1  1
 30 38  1  0
 34 31  1  6
 31 39  1  0
 35 32  1  6
 32 40  1  0
 41 43  1  0
 15 19  2  0
 42 43  2  0
 16 22  2  0
 12 17  1  1
 17 19  1  0
 17 20  1  0
 18 19  1  0
 18 22  1  0
 18 23  1  0
  9 10  1  0
  9 11  1  0
 10 12  1  0
 11  5  1  1
 33 34  1  0
 33 35  1  0
 34 36  1  0
 35 37  1  0
 37 43  1  1
 20 21  2  0
 21 22  1  0
M  CHG  3   2  -1  26  -1  41  -1
M  END
>  <COMPND>  (169) 
    udp_gluA.pdb 

>  <AUTHOR>  (169) 
    GENERATED BY OPEN BABEL 3.1.1

>  <MASTER>  (169) 
        0    0    0    0    0    0    0    0   56    0   56    0

>  <minimizedAffinity>  (169) 
-6.61506

>  <CNNscore>  (169) 
0.5089093447

>  <CNNaffinity>  (169) 
4.1266489029

>  <CNN_VS>  (169) 
2.1000902653

>  <CNNaffinity_variance>  (169) 
0.1276025325

$$$$
170
     RDKit          3D

 43 45  0  0  0  0  0  0  0  0999 V2000
   19.9093   73.4632   -1.3768 P   0  0  2  0  0  0  0  0  0  0  0  0
   18.7328   72.8703   -0.4369 O   0  0  0  0  0  0  0  0  0  0  0  0
   20.3327   74.8659   -1.0529 O   0  0  0  0  0  0  0  0  0  0  0  0
   19.3628   73.2238   -2.8808 O   0  0  0  0  0  0  0  0  0  0  0  0
   18.1824   72.4624   -3.0581 C   0  0  0  0  0  0  0  0  0  0  0  0
   17.4692   70.5852   -4.3791 O   0  0  0  0  0  0  0  0  0  0  0  0
   20.3541   69.7698   -4.4406 O   0  0  0  0  0  0  0  0  0  0  0  0
   20.0099   70.9273   -6.8856 O   0  0  0  0  0  0  0  0  0  0  0  0
   19.7842   71.0786   -4.4693 C   0  0  1  0  0  0  0  0  0  0  0  0
   19.1776   71.3564   -5.8284 C   0  0  2  0  0  0  0  0  0  0  0  0
   18.5576   71.0767   -3.5673 C   0  0  1  0  0  0  0  0  0  0  0  0
   17.8746   70.5785   -5.7571 C   0  0  2  0  0  0  0  0  0  0  0  0
   21.1397   69.7463   -5.0099 H   0  0  0  0  0  0  0  0  0  0  0  0
   20.8258   71.4529   -6.8885 H   0  0  0  0  0  0  0  0  0  0  0  0
   16.8074   69.4279   -8.1053 O   0  0  0  0  0  0  0  0  0  0  0  0
   13.8975   72.9480   -8.7262 O   0  0  0  0  0  0  0  0  0  0  0  0
   16.8374   71.1728   -6.5519 N   0  0  0  0  0  0  0  0  0  0  0  0
   15.3598   71.1827   -8.4129 N   0  0  0  0  0  0  0  0  0  0  0  0
   16.3723   70.5125   -7.7137 C   0  0  0  0  0  0  0  0  0  0  0  0
   16.2910   72.3946   -6.1780 C   0  0  0  0  0  0  0  0  0  0  0  0
   15.3263   73.0210   -6.8545 C   0  0  0  0  0  0  0  0  0  0  0  0
   14.7852   72.3989   -8.0807 C   0  0  0  0  0  0  0  0  0  0  0  0
   15.0213   70.7434   -9.2263 H   0  0  0  0  0  0  0  0  0  0  0  0
   21.0792   72.3569   -1.2349 O   0  0  0  0  0  0  0  0  0  0  0  0
   22.5114   72.2259   -1.9733 P   0  0  2  0  0  0  0  0  0  0  0  0
   22.5944   73.5766   -2.8617 O   0  0  0  0  0  0  0  0  0  0  0  0
   22.6861   70.9580   -2.7580 O   0  0  0  0  0  0  0  0  0  0  0  0
   23.5979   72.4426   -0.8006 O   0  0  0  0  0  0  0  0  0  0  0  0
   23.1211   72.3739    1.5182 O   0  0  0  0  0  0  0  0  0  0  0  0
   26.5158   74.7266    1.4273 O   0  0  0  0  0  0  0  0  0  0  0  0
   24.4066   75.0929   -0.5604 O   0  0  0  0  0  0  0  0  0  0  0  0
   26.6819   71.9584    2.2994 O   0  0  0  0  0  0  0  0  0  0  0  0
   25.6365   73.6903    0.9907 C   0  0  2  0  0  0  0  0  0  0  0  0
   24.2840   74.2932    0.6101 C   0  0  2  0  0  0  0  0  0  0  0  0
   25.4706   72.6948    2.1411 C   0  0  1  0  0  0  0  0  0  0  0  0
   23.2478   73.1971    0.3582 C   0  0  1  0  0  0  0  0  0  0  0  0
   24.3348   71.7128    1.8687 C   0  0  1  0  0  0  0  0  0  0  0  0
   26.6363   75.3713    0.7124 H   0  0  0  0  0  0  0  0  0  0  0  0
   25.0628   75.7904   -0.4078 H   0  0  0  0  0  0  0  0  0  0  0  0
   27.4129   72.5719    2.4732 H   0  0  0  0  0  0  0  0  0  0  0  0
   22.7133   70.4606    3.0107 O   0  0  0  0  0  0  0  0  0  0  0  0
   24.6876   70.8349    4.0882 O   0  0  0  0  0  0  0  0  0  0  0  0
   23.9657   70.9706    3.1117 C   0  0  0  0  0  0  0  0  0  0  0  0
  1  4  1  0
  1 24  1  0
  1  2  1  1
  1  3  2  0
 25 28  1  0
 25 24  1  0
 25 26  1  6
 25 27  2  0
  6 11  1  0
  6 12  1  0
 29 36  1  0
 29 37  1  0
  9  7  1  6
  7 13  1  0
 10  8  1  6
  8 14  1  0
  4  5  1  0
 36 28  1  6
 33 30  1  1
 30 38  1  0
 34 31  1  6
 31 39  1  0
 35 32  1  6
 32 40  1  0
 41 43  1  0
 15 19  2  0
 42 43  2  0
 16 22  2  0
 12 17  1  6
 17 19  1  0
 17 20  1  0
 18 19  1  0
 18 22  1  0
 18 23  1  0
  9 10  1  0
  9 11  1  0
 10 12  1  0
 11  5  1  6
 33 34  1  0
 33 35  1  0
 34 36  1  0
 35 37  1  0
 37 43  1  1
 20 21  2  0
 21 22  1  0
M  CHG  3   2  -1  26  -1  41  -1
M  END
>  <COMPND>  (170) 
    udp_gluA.pdb 

>  <AUTHOR>  (170) 
    GENERATED BY OPEN BABEL 3.1.1

>  <MASTER>  (170) 
        0    0    0    0    0    0    0    0   56    0   56    0

>  <minimizedAffinity>  (170) 
-6.64492

>  <CNNscore>  (170) 
0.4272805154

>  <CNNaffinity>  (170) 
4.1941809654

>  <CNN_VS>  (170) 
1.7920918465

>  <CNNaffinity_variance>  (170) 
0.0194532871

$$$$
171
     RDKit          3D

 43 45  0  0  0  0  0  0  0  0999 V2000
   22.8548   72.2744   -3.5951 P   0  0  2  0  0  0  0  0  0  0  0  0
   22.8586   70.7064   -3.1946 O   0  0  0  0  0  0  0  0  0  0  0  0
   24.0445   72.7283   -4.3890 O   0  0  0  0  0  0  0  0  0  0  0  0
   22.6185   73.0346   -2.1865 O   0  0  0  0  0  0  0  0  0  0  0  0
   21.4509   73.8198   -2.0295 C   0  0  0  0  0  0  0  0  0  0  0  0
   21.3351   72.1977   -0.2595 O   0  0  0  0  0  0  0  0  0  0  0  0
   18.8343   73.6032    0.6133 O   0  0  0  0  0  0  0  0  0  0  0  0
   20.6983   74.5672    2.3546 O   0  0  0  0  0  0  0  0  0  0  0  0
   20.0295   74.1490    0.0546 C   0  0  1  0  0  0  0  0  0  0  0  0
   21.1405   74.1400    1.0832 C   0  0  2  0  0  0  0  0  0  0  0  0
   20.5516   73.1685   -0.9867 C   0  0  1  0  0  0  0  0  0  0  0  0
   21.5687   72.6825    1.0723 C   0  0  2  0  0  0  0  0  0  0  0  0
   18.4820   74.2122    1.2817 H   0  0  0  0  0  0  0  0  0  0  0  0
   20.4373   75.5010    2.3093 H   0  0  0  0  0  0  0  0  0  0  0  0
   22.6155   70.5265    2.5663 O   0  0  0  0  0  0  0  0  0  0  0  0
   26.9167   72.1506    2.2400 O   0  0  0  0  0  0  0  0  0  0  0  0
   22.9583   72.5172    1.3924 N   0  0  0  0  0  0  0  0  0  0  0  0
   24.7566   71.3379    2.4033 N   0  0  0  0  0  0  0  0  0  0  0  0
   23.3801   71.3983    2.1489 C   0  0  0  0  0  0  0  0  0  0  0  0
   23.8866   73.4552    0.9574 C   0  0  0  0  0  0  0  0  0  0  0  0
   25.1955   73.3841    1.2076 C   0  0  0  0  0  0  0  0  0  0  0  0
   25.7184   72.2466    1.9925 C   0  0  0  0  0  0  0  0  0  0  0  0
   25.0738   70.5690    2.9299 H   0  0  0  0  0  0  0  0  0  0  0  0
   21.4353   72.4534   -4.3473 O   0  0  0  0  0  0  0  0  0  0  0  0
   21.0808   72.9808   -5.8338 P   0  0  2  0  0  0  0  0  0  0  0  0
   21.8976   71.9634   -6.7918 O   0  0  0  0  0  0  0  0  0  0  0  0
   21.3929   74.4313   -6.0633 O   0  0  0  0  0  0  0  0  0  0  0  0
   19.5312   72.5872   -6.0490 O   0  0  0  0  0  0  0  0  0  0  0  0
   18.4086   71.3514   -7.7288 O   0  0  0  0  0  0  0  0  0  0  0  0
   15.6403   74.2914   -6.8566 O   0  0  0  0  0  0  0  0  0  0  0  0
   18.4785   74.9480   -7.0760 O   0  0  0  0  0  0  0  0  0  0  0  0
   15.2513   71.5832   -5.8741 O   0  0  0  0  0  0  0  0  0  0  0  0
   16.6994   73.3751   -6.5793 C   0  0  2  0  0  0  0  0  0  0  0  0
   17.9046   73.7041   -7.4606 C   0  0  2  0  0  0  0  0  0  0  0  0
   16.1922   71.9622   -6.8769 C   0  0  1  0  0  0  0  0  0  0  0  0
   18.9701   72.6117   -7.3603 C   0  0  1  0  0  0  0  0  0  0  0  0
   17.3341   70.9500   -6.8818 C   0  0  1  0  0  0  0  0  0  0  0  0
   15.9395   75.1963   -6.6747 H   0  0  0  0  0  0  0  0  0  0  0  0
   17.8078   75.6457   -7.1371 H   0  0  0  0  0  0  0  0  0  0  0  0
   14.5194   72.2196   -5.8605 H   0  0  0  0  0  0  0  0  0  0  0  0
   16.3341   68.8547   -6.5490 O   0  0  0  0  0  0  0  0  0  0  0  0
   17.0164   69.3571   -8.6659 O   0  0  0  0  0  0  0  0  0  0  0  0
   16.8943   69.6571   -7.4877 C   0  0  0  0  0  0  0  0  0  0  0  0
  1  4  1  0
  1 24  1  0
  1  2  1  1
  1  3  2  0
 25 28  1  0
 25 24  1  0
 25 26  1  6
 25 27  2  0
  6 11  1  0
  6 12  1  0
 29 36  1  0
 29 37  1  0
  9  7  1  1
  7 13  1  0
 10  8  1  1
  8 14  1  0
  4  5  1  0
 36 28  1  1
 33 30  1  6
 30 38  1  0
 34 31  1  1
 31 39  1  0
 35 32  1  1
 32 40  1  0
 41 43  1  0
 15 19  2  0
 42 43  2  0
 16 22  2  0
 12 17  1  6
 17 19  1  0
 17 20  1  0
 18 19  1  0
 18 22  1  0
 18 23  1  0
  9 10  1  0
  9 11  1  0
 10 12  1  0
 11  5  1  6
 33 34  1  0
 33 35  1  0
 34 36  1  0
 35 37  1  0
 37 43  1  6
 20 21  2  0
 21 22  1  0
M  CHG  3   2  -1  26  -1  41  -1
M  END
>  <COMPND>  (171) 
    udp_gluA.pdb 

>  <AUTHOR>  (171) 
    GENERATED BY OPEN BABEL 3.1.1

>  <MASTER>  (171) 
        0    0    0    0    0    0    0    0   56    0   56    0

>  <minimizedAffinity>  (171) 
-6.61679

>  <CNNscore>  (171) 
0.4116266966

>  <CNNaffinity>  (171) 
4.2486672401

>  <CNN_VS>  (171) 
1.7488648891

>  <CNNaffinity_variance>  (171) 
0.0967335105

$$$$
172
     RDKit          3D

 43 45  0  0  0  0  0  0  0  0999 V2000
   22.3812   73.5607   -3.9676 P   0  0  2  0  0  0  0  0  0  0  0  0
   22.1976   75.0828   -3.4497 O   0  0  0  0  0  0  0  0  0  0  0  0
   23.8006   73.1439   -4.2191 O   0  0  0  0  0  0  0  0  0  0  0  0
   21.3837   73.4593   -5.2375 O   0  0  0  0  0  0  0  0  0  0  0  0
   20.2142   72.6703   -5.1173 C   0  0  0  0  0  0  0  0  0  0  0  0
   19.1172   70.7746   -6.1074 O   0  0  0  0  0  0  0  0  0  0  0  0
   21.6567   70.3413   -7.6418 O   0  0  0  0  0  0  0  0  0  0  0  0
   20.0466   71.5473   -9.4827 O   0  0  0  0  0  0  0  0  0  0  0  0
   21.0299   71.5657   -7.2590 C   0  0  1  0  0  0  0  0  0  0  0  0
   19.8092   71.8203   -8.1176 C   0  0  2  0  0  0  0  0  0  0  0  0
   20.4143   71.3674   -5.8806 C   0  0  1  0  0  0  0  0  0  0  0  0
   18.7885   70.8786   -7.5018 C   0  0  2  0  0  0  0  0  0  0  0  0
   22.0574   70.4434   -8.5197 H   0  0  0  0  0  0  0  0  0  0  0  0
   20.7028   72.1734   -9.8283 H   0  0  0  0  0  0  0  0  0  0  0  0
   16.6097   69.3332   -8.4191 O   0  0  0  0  0  0  0  0  0  0  0  0
   13.6770   72.8581   -7.9515 O   0  0  0  0  0  0  0  0  0  0  0  0
   17.4448   71.3674   -7.6296 N   0  0  0  0  0  0  0  0  0  0  0  0
   15.1514   71.0906   -8.1863 N   0  0  0  0  0  0  0  0  0  0  0  0
   16.4232   70.5091   -8.1005 C   0  0  0  0  0  0  0  0  0  0  0  0
   17.1496   72.6819   -7.2890 C   0  0  0  0  0  0  0  0  0  0  0  0
   15.9324   73.2219   -7.3760 C   0  0  0  0  0  0  0  0  0  0  0  0
   14.8090   72.3928   -7.8599 C   0  0  0  0  0  0  0  0  0  0  0  0
   14.4242   70.5131   -8.5136 H   0  0  0  0  0  0  0  0  0  0  0  0
   21.6165   72.6973   -2.8350 O   0  0  0  0  0  0  0  0  0  0  0  0
   22.1404   71.5087   -1.8725 P   0  0  2  0  0  0  0  0  0  0  0  0
   22.8124   70.4625   -2.9089 O   0  0  0  0  0  0  0  0  0  0  0  0
   21.0778   70.9135   -0.9947 O   0  0  0  0  0  0  0  0  0  0  0  0
   23.3876   72.1485   -1.0738 O   0  0  0  0  0  0  0  0  0  0  0  0
   23.0880   72.3633    1.2657 O   0  0  0  0  0  0  0  0  0  0  0  0
   26.5330   74.5601    0.6541 O   0  0  0  0  0  0  0  0  0  0  0  0
   24.2892   74.7765   -1.2042 O   0  0  0  0  0  0  0  0  0  0  0  0
   26.6846   71.9054    1.8290 O   0  0  0  0  0  0  0  0  0  0  0  0
   25.5929   73.5147    0.4065 C   0  0  2  0  0  0  0  0  0  0  0  0
   24.2335   74.1209    0.0575 C   0  0  2  0  0  0  0  0  0  0  0  0
   25.4867   72.6642    1.6743 C   0  0  1  0  0  0  0  0  0  0  0  0
   23.1494   73.0432    0.0113 C   0  0  1  0  0  0  0  0  0  0  0  0
   24.3053   71.7011    1.6017 C   0  0  1  0  0  0  0  0  0  0  0  0
   26.6170   75.1139   -0.1381 H   0  0  0  0  0  0  0  0  0  0  0  0
   24.9752   75.4615   -1.1821 H   0  0  0  0  0  0  0  0  0  0  0  0
   27.4443   72.5066    1.8764 H   0  0  0  0  0  0  0  0  0  0  0  0
   22.8452   70.4279    2.9241 O   0  0  0  0  0  0  0  0  0  0  0  0
   24.7189   71.2449    3.9346 O   0  0  0  0  0  0  0  0  0  0  0  0
   24.0110   71.1203    2.9465 C   0  0  0  0  0  0  0  0  0  0  0  0
  1  4  1  0
  1 24  1  0
  1  2  1  1
  1  3  2  0
 25 28  1  0
 25 24  1  0
 25 26  1  6
 25 27  2  0
  6 11  1  0
  6 12  1  0
 29 36  1  0
 29 37  1  0
  9  7  1  6
  7 13  1  0
 10  8  1  6
  8 14  1  0
  4  5  1  0
 36 28  1  6
 33 30  1  1
 30 38  1  0
 34 31  1  6
 31 39  1  0
 35 32  1  6
 32 40  1  0
 41 43  1  0
 15 19  2  0
 42 43  2  0
 16 22  2  0
 12 17  1  1
 17 19  1  0
 17 20  1  0
 18 19  1  0
 18 22  1  0
 18 23  1  0
  9 10  1  0
  9 11  1  0
 10 12  1  0
 11  5  1  6
 33 34  1  0
 33 35  1  0
 34 36  1  0
 35 37  1  0
 37 43  1  1
 20 21  2  0
 21 22  1  0
M  CHG  3   2  -1  26  -1  41  -1
M  END
>  <COMPND>  (172) 
    udp_gluA.pdb 

>  <AUTHOR>  (172) 
    GENERATED BY OPEN BABEL 3.1.1

>  <MASTER>  (172) 
        0    0    0    0    0    0    0    0   56    0   56    0

>  <minimizedAffinity>  (172) 
-7.42361

>  <CNNscore>  (172) 
0.4071581066

>  <CNNaffinity>  (172) 
4.2396612167

>  <CNN_VS>  (172) 
1.7262123823

>  <CNNaffinity_variance>  (172) 
0.0129141081

$$$$
173
     RDKit          3D

 43 45  0  0  0  0  0  0  0  0999 V2000
   22.1145   72.7196   -1.8320 P   0  0  2  0  0  0  0  0  0  0  0  0
   21.2425   71.3591   -1.9191 O   0  0  0  0  0  0  0  0  0  0  0  0
   21.5029   73.8124   -1.0052 O   0  0  0  0  0  0  0  0  0  0  0  0
   22.4108   73.0909   -3.3787 O   0  0  0  0  0  0  0  0  0  0  0  0
   21.3171   73.1853   -4.2728 C   0  0  0  0  0  0  0  0  0  0  0  0
   20.6857   71.0423   -5.1598 O   0  0  0  0  0  0  0  0  0  0  0  0
   21.7859   72.0091   -7.7764 O   0  0  0  0  0  0  0  0  0  0  0  0
   19.0979   72.3292   -8.1054 O   0  0  0  0  0  0  0  0  0  0  0  0
   21.0862   72.7363   -6.7663 C   0  0  1  0  0  0  0  0  0  0  0  0
   19.6139   72.3843   -6.7919 C   0  0  2  0  0  0  0  0  0  0  0  0
   21.5200   72.1939   -5.4113 C   0  0  1  0  0  0  0  0  0  0  0  0
   19.6011   71.0311   -6.1014 C   0  0  2  0  0  0  0  0  0  0  0  0
   21.5251   72.3379   -8.6513 H   0  0  0  0  0  0  0  0  0  0  0  0
   19.1273   73.2147   -8.5017 H   0  0  0  0  0  0  0  0  0  0  0  0
   17.2278   70.0931   -7.3114 O   0  0  0  0  0  0  0  0  0  0  0  0
   14.9533   70.1294   -3.3027 O   0  0  0  0  0  0  0  0  0  0  0  0
   18.3741   70.7867   -5.3974 N   0  0  0  0  0  0  0  0  0  0  0  0
   16.0969   70.1131   -5.3139 N   0  0  0  0  0  0  0  0  0  0  0  0
   17.2392   70.3161   -6.0993 C   0  0  0  0  0  0  0  0  0  0  0  0
   18.3037   71.0112   -4.0279 C   0  0  0  0  0  0  0  0  0  0  0  0
   17.2078   70.8130   -3.2927 C   0  0  0  0  0  0  0  0  0  0  0  0
   15.9783   70.3227   -3.9495 C   0  0  0  0  0  0  0  0  0  0  0  0
   15.2936   69.7875   -5.7808 H   0  0  0  0  0  0  0  0  0  0  0  0
   23.5497   72.1974   -1.3024 O   0  0  0  0  0  0  0  0  0  0  0  0
   24.7050   72.9464   -0.4551 P   0  0  2  0  0  0  0  0  0  0  0  0
   24.4536   74.5103   -0.7890 O   0  0  0  0  0  0  0  0  0  0  0  0
   26.0961   72.4665   -0.7526 O   0  0  0  0  0  0  0  0  0  0  0  0
   24.2550   72.7816    1.0853 O   0  0  0  0  0  0  0  0  0  0  0  0
   25.8509   71.8955    2.5942 O   0  0  0  0  0  0  0  0  0  0  0  0
   22.3685   71.6279    4.8009 O   0  0  0  0  0  0  0  0  0  0  0  0
   22.3832   70.9223    1.9660 O   0  0  0  0  0  0  0  0  0  0  0  0
   24.3097   73.7115    5.3851 O   0  0  0  0  0  0  0  0  0  0  0  0
   23.2621   72.1890    3.8393 C   0  0  2  0  0  0  0  0  0  0  0  0
   23.5494   71.1597    2.7459 C   0  0  2  0  0  0  0  0  0  0  0  0
   24.5551   72.5724    4.5625 C   0  0  1  0  0  0  0  0  0  0  0  0
   24.6745   71.6375    1.8268 C   0  0  1  0  0  0  0  0  0  0  0  0
   25.6658   72.9149    3.5738 C   0  0  1  0  0  0  0  0  0  0  0  0
   21.5394   71.3766    4.3641 H   0  0  0  0  0  0  0  0  0  0  0  0
   21.6652   70.6191    2.5429 H   0  0  0  0  0  0  0  0  0  0  0  0
   23.6045   73.5068    6.0188 H   0  0  0  0  0  0  0  0  0  0  0  0
   27.1081   74.0985    4.9952 O   0  0  0  0  0  0  0  0  0  0  0  0
   27.8557   72.1042    4.1810 O   0  0  0  0  0  0  0  0  0  0  0  0
   26.9914   72.9642    4.2614 C   0  0  0  0  0  0  0  0  0  0  0  0
  1  4  1  0
  1 24  1  0
  1  2  1  6
  1  3  2  0
 25 28  1  0
 25 24  1  0
 25 26  1  6
 25 27  2  0
  6 11  1  0
  6 12  1  0
 29 36  1  0
 29 37  1  0
  9  7  1  6
  7 13  1  0
 10  8  1  6
  8 14  1  0
  4  5  1  0
 36 28  1  1
 33 30  1  1
 30 38  1  0
 34 31  1  6
 31 39  1  0
 35 32  1  1
 32 40  1  0
 41 43  1  0
 15 19  2  0
 42 43  2  0
 16 22  2  0
 12 17  1  1
 17 19  1  0
 17 20  1  0
 18 19  1  0
 18 22  1  0
 18 23  1  0
  9 10  1  0
  9 11  1  0
 10 12  1  0
 11  5  1  1
 33 34  1  0
 33 35  1  0
 34 36  1  0
 35 37  1  0
 37 43  1  1
 20 21  2  0
 21 22  1  0
M  CHG  3   2  -1  26  -1  41  -1
M  END
>  <COMPND>  (173) 
    udp_gluA.pdb 

>  <AUTHOR>  (173) 
    GENERATED BY OPEN BABEL 3.1.1

>  <MASTER>  (173) 
        0    0    0    0    0    0    0    0   56    0   56    0

>  <minimizedAffinity>  (173) 
-6.75310

>  <CNNscore>  (173) 
0.4019632936

>  <CNNaffinity>  (173) 
4.0290946960

>  <CNN_VS>  (173) 
1.6195482016

>  <CNNaffinity_variance>  (173) 
0.0816278160

$$$$
174
     RDKit          3D

 43 45  0  0  0  0  0  0  0  0999 V2000
   16.1815   71.7925   -0.9899 P   0  0  2  0  0  0  0  0  0  0  0  0
   16.5490   73.1333   -0.1616 O   0  0  0  0  0  0  0  0  0  0  0  0
   16.7108   70.5183   -0.3999 O   0  0  0  0  0  0  0  0  0  0  0  0
   16.6656   72.1227   -2.4981 O   0  0  0  0  0  0  0  0  0  0  0  0
   18.0548   72.1823   -2.7646 C   0  0  0  0  0  0  0  0  0  0  0  0
   17.4553   70.3668   -4.2214 O   0  0  0  0  0  0  0  0  0  0  0  0
   20.3760   69.6900   -4.2739 O   0  0  0  0  0  0  0  0  0  0  0  0
   20.0232   70.9910   -6.6443 O   0  0  0  0  0  0  0  0  0  0  0  0
   19.7458   70.9703   -4.2288 C   0  0  1  0  0  0  0  0  0  0  0  0
   19.1521   71.3102   -5.5794 C   0  0  2  0  0  0  0  0  0  0  0  0
   18.5042   70.8522   -3.3555 C   0  0  1  0  0  0  0  0  0  0  0  0
   17.8861   70.4706   -5.5877 C   0  0  2  0  0  0  0  0  0  0  0  0
   21.1722   69.7404   -4.8264 H   0  0  0  0  0  0  0  0  0  0  0  0
   20.8134   71.5524   -6.5950 H   0  0  0  0  0  0  0  0  0  0  0  0
   17.5893   70.1557   -8.3787 O   0  0  0  0  0  0  0  0  0  0  0  0
   13.8233   72.8117   -8.4618 O   0  0  0  0  0  0  0  0  0  0  0  0
   16.8370   71.0687   -6.3640 N   0  0  0  0  0  0  0  0  0  0  0  0
   15.7145   71.4797   -8.4176 N   0  0  0  0  0  0  0  0  0  0  0  0
   16.7783   70.8477   -7.7603 C   0  0  0  0  0  0  0  0  0  0  0  0
   15.8803   71.8620   -5.7424 C   0  0  0  0  0  0  0  0  0  0  0  0
   14.8721   72.4577   -6.3822 C   0  0  0  0  0  0  0  0  0  0  0  0
   14.7391   72.2783   -7.8429 C   0  0  0  0  0  0  0  0  0  0  0  0
   15.6540   71.3422   -9.3906 H   0  0  0  0  0  0  0  0  0  0  0  0
   14.5706   71.8648   -1.1013 O   0  0  0  0  0  0  0  0  0  0  0  0
   13.5293   71.0130   -1.9979 P   0  0  2  0  0  0  0  0  0  0  0  0
   14.4899   70.0026   -2.8204 O   0  0  0  0  0  0  0  0  0  0  0  0
   12.6302   71.8510   -2.8601 O   0  0  0  0  0  0  0  0  0  0  0  0
   12.7557   70.0703   -0.9418 O   0  0  0  0  0  0  0  0  0  0  0  0
   13.6887   68.0824   -0.0545 O   0  0  0  0  0  0  0  0  0  0  0  0
    9.6463   67.4338    0.4987 O   0  0  0  0  0  0  0  0  0  0  0  0
   10.6305   68.6117   -1.9868 O   0  0  0  0  0  0  0  0  0  0  0  0
   11.3301   68.1580    2.7551 O   0  0  0  0  0  0  0  0  0  0  0  0
   10.8394   68.2109    0.3968 C   0  0  2  0  0  0  0  0  0  0  0  0
   11.4563   68.0221   -0.9893 C   0  0  2  0  0  0  0  0  0  0  0  0
   11.8088   67.7333    1.4804 C   0  0  1  0  0  0  0  0  0  0  0  0
   12.8483   68.6517   -1.0590 C   0  0  1  0  0  0  0  0  0  0  0  0
   13.2071   68.3065    1.2688 C   0  0  1  0  0  0  0  0  0  0  0  0
    9.0150   67.7196   -0.1804 H   0  0  0  0  0  0  0  0  0  0  0  0
    9.7456   68.2171   -1.9481 H   0  0  0  0  0  0  0  0  0  0  0  0
   10.4407   67.8000    2.9021 H   0  0  0  0  0  0  0  0  0  0  0  0
   15.4687   67.8459    1.6869 O   0  0  0  0  0  0  0  0  0  0  0  0
   13.9365   66.8727    3.0670 O   0  0  0  0  0  0  0  0  0  0  0  0
   14.2079   67.5901    2.1158 C   0  0  0  0  0  0  0  0  0  0  0  0
  1  4  1  0
  1 24  1  0
  1  2  1  1
  1  3  2  0
 25 28  1  0
 25 24  1  0
 25 26  1  6
 25 27  2  0
  6 11  1  0
  6 12  1  0
 29 36  1  0
 29 37  1  0
  9  7  1  6
  7 13  1  0
 10  8  1  6
  8 14  1  0
  4  5  1  0
 36 28  1  1
 33 30  1  6
 30 38  1  0
 34 31  1  6
 31 39  1  0
 35 32  1  1
 32 40  1  0
 41 43  1  0
 15 19  2  0
 42 43  2  0
 16 22  2  0
 12 17  1  6
 17 19  1  0
 17 20  1  0
 18 19  1  0
 18 22  1  0
 18 23  1  0
  9 10  1  0
  9 11  1  0
 10 12  1  0
 11  5  1  6
 33 34  1  0
 33 35  1  0
 34 36  1  0
 35 37  1  0
 37 43  1  1
 20 21  2  0
 21 22  1  0
M  CHG  3   2  -1  26  -1  41  -1
M  END
>  <COMPND>  (174) 
    udp_gluA.pdb 

>  <AUTHOR>  (174) 
    GENERATED BY OPEN BABEL 3.1.1

>  <MASTER>  (174) 
        0    0    0    0    0    0    0    0   56    0   56    0

>  <minimizedAffinity>  (174) 
-6.27474

>  <CNNscore>  (174) 
0.3993958831

>  <CNNaffinity>  (174) 
4.0876173973

>  <CNN_VS>  (174) 
1.6325775385

>  <CNNaffinity_variance>  (174) 
0.0451404974

$$$$
175
     RDKit          3D

 43 45  0  0  0  0  0  0  0  0999 V2000
   22.0869   72.9401   -4.7298 P   0  0  2  0  0  0  0  0  0  0  0  0
   23.6962   72.9197   -4.5605 O   0  0  0  0  0  0  0  0  0  0  0  0
   21.4234   74.2236   -4.3243 O   0  0  0  0  0  0  0  0  0  0  0  0
   21.5964   71.6157   -3.9403 O   0  0  0  0  0  0  0  0  0  0  0  0
   22.2299   71.2833   -2.7186 C   0  0  0  0  0  0  0  0  0  0  0  0
   21.8241   70.7273   -0.4156 O   0  0  0  0  0  0  0  0  0  0  0  0
   19.2351   72.2119   -0.7068 O   0  0  0  0  0  0  0  0  0  0  0  0
   20.8197   74.0233    0.5754 O   0  0  0  0  0  0  0  0  0  0  0  0
   20.5084   72.4931   -1.2884 C   0  0  1  0  0  0  0  0  0  0  0  0
   21.4475   73.0603   -0.2450 C   0  0  2  0  0  0  0  0  0  0  0  0
   21.1732   71.1660   -1.6277 C   0  0  1  0  0  0  0  0  0  0  0  0
   21.8553   71.8144    0.5228 C   0  0  2  0  0  0  0  0  0  0  0  0
   18.7912   73.0449   -0.4815 H   0  0  0  0  0  0  0  0  0  0  0  0
   20.5797   74.7967    0.0405 H   0  0  0  0  0  0  0  0  0  0  0  0
   22.7844   70.3202    2.7320 O   0  0  0  0  0  0  0  0  0  0  0  0
   26.9453   72.2945    2.5497 O   0  0  0  0  0  0  0  0  0  0  0  0
   23.1770   71.9182    1.0734 N   0  0  0  0  0  0  0  0  0  0  0  0
   24.8556   71.3057    2.6397 N   0  0  0  0  0  0  0  0  0  0  0  0
   23.5432   71.1226    2.1847 C   0  0  0  0  0  0  0  0  0  0  0  0
   24.0947   72.7984    0.5130 C   0  0  0  0  0  0  0  0  0  0  0  0
   25.3422   72.9618    0.9577 C   0  0  0  0  0  0  0  0  0  0  0  0
   25.8042   72.1690    2.1158 C   0  0  0  0  0  0  0  0  0  0  0  0
   25.1329   70.7641    3.4138 H   0  0  0  0  0  0  0  0  0  0  0  0
   21.8800   72.5360   -6.2811 O   0  0  0  0  0  0  0  0  0  0  0  0
   20.9675   73.2004   -7.4385 P   0  0  2  0  0  0  0  0  0  0  0  0
   21.3673   72.3517   -8.7576 O   0  0  0  0  0  0  0  0  0  0  0  0
   21.1400   74.6848   -7.5825 O   0  0  0  0  0  0  0  0  0  0  0  0
   19.4630   72.7317   -7.0932 O   0  0  0  0  0  0  0  0  0  0  0  0
   18.7143   70.8280   -5.8996 O   0  0  0  0  0  0  0  0  0  0  0  0
   15.6382   71.3911   -8.5993 O   0  0  0  0  0  0  0  0  0  0  0  0
   18.4204   71.6731   -9.4445 O   0  0  0  0  0  0  0  0  0  0  0  0
   15.2934   72.1519   -5.8149 O   0  0  0  0  0  0  0  0  0  0  0  0
   16.7026   71.7886   -7.7351 C   0  0  2  0  0  0  0  0  0  0  0  0
   18.0060   71.1346   -8.1943 C   0  0  2  0  0  0  0  0  0  0  0  0
   16.3523   71.3378   -6.3152 C   0  0  1  0  0  0  0  0  0  0  0  0
   19.1178   71.3496   -7.1663 C   0  0  1  0  0  0  0  0  0  0  0  0
   17.5502   71.4658   -5.3786 C   0  0  1  0  0  0  0  0  0  0  0  0
   15.8387   71.6670   -9.5076 H   0  0  0  0  0  0  0  0  0  0  0  0
   17.7195   71.5405  -10.1014 H   0  0  0  0  0  0  0  0  0  0  0  0
   14.5248   72.0796   -6.4021 H   0  0  0  0  0  0  0  0  0  0  0  0
   16.2533   69.8842   -4.2305 O   0  0  0  0  0  0  0  0  0  0  0  0
   17.9628   70.8602   -3.0798 O   0  0  0  0  0  0  0  0  0  0  0  0
   17.3067   70.7285   -4.1021 C   0  0  0  0  0  0  0  0  0  0  0  0
  1  4  1  0
  1 24  1  0
  1  2  1  6
  1  3  2  0
 25 28  1  0
 25 24  1  0
 25 26  1  6
 25 27  2  0
  6 11  1  0
  6 12  1  0
 29 36  1  0
 29 37  1  0
  9  7  1  1
  7 13  1  0
 10  8  1  1
  8 14  1  0
  4  5  1  0
 36 28  1  1
 33 30  1  6
 30 38  1  0
 34 31  1  6
 31 39  1  0
 35 32  1  1
 32 40  1  0
 41 43  1  0
 15 19  2  0
 42 43  2  0
 16 22  2  0
 12 17  1  6
 17 19  1  0
 17 20  1  0
 18 19  1  0
 18 22  1  0
 18 23  1  0
  9 10  1  0
  9 11  1  0
 10 12  1  0
 11  5  1  6
 33 34  1  0
 33 35  1  0
 34 36  1  0
 35 37  1  0
 37 43  1  1
 20 21  2  0
 21 22  1  0
M  CHG  3   2  -1  26  -1  41  -1
M  END
>  <COMPND>  (175) 
    udp_gluA.pdb 

>  <AUTHOR>  (175) 
    GENERATED BY OPEN BABEL 3.1.1

>  <MASTER>  (175) 
        0    0    0    0    0    0    0    0   56    0   56    0

>  <minimizedAffinity>  (175) 
-7.75392

>  <CNNscore>  (175) 
0.3505562544

>  <CNNaffinity>  (175) 
4.1359190941

>  <CNN_VS>  (175) 
1.4498722553

>  <CNNaffinity_variance>  (175) 
0.0474876091

$$$$
176
     RDKit          3D

 43 45  0  0  0  0  0  0  0  0999 V2000
   21.3094   72.4575   -0.9549 P   0  0  2  0  0  0  0  0  0  0  0  0
   20.0606   73.4420   -1.2547 O   0  0  0  0  0  0  0  0  0  0  0  0
   20.9573   71.0029   -0.8452 O   0  0  0  0  0  0  0  0  0  0  0  0
   22.0146   73.1098    0.3471 O   0  0  0  0  0  0  0  0  0  0  0  0
   22.0273   72.3673    1.5525 C   0  0  0  0  0  0  0  0  0  0  0  0
   24.3042   72.0726    0.8410 O   0  0  0  0  0  0  0  0  0  0  0  0
   24.4543   69.8631    2.8626 O   0  0  0  0  0  0  0  0  0  0  0  0
   25.6937   71.9273    4.1429 O   0  0  0  0  0  0  0  0  0  0  0  0
   23.7526   71.1046    2.9313 C   0  0  1  0  0  0  0  0  0  0  0  0
   24.7230   72.2427    3.1667 C   0  0  2  0  0  0  0  0  0  0  0  0
   23.2213   71.4216    1.5401 C   0  0  1  0  0  0  0  0  0  0  0  0
   25.3243   72.4354    1.7850 C   0  0  2  0  0  0  0  0  0  0  0  0
   24.8031   69.6394    3.7401 H   0  0  0  0  0  0  0  0  0  0  0  0
   25.2611   71.8148    5.0044 H   0  0  0  0  0  0  0  0  0  0  0  0
   27.4489   73.2000    0.0886 O   0  0  0  0  0  0  0  0  0  0  0  0
   26.7574   77.6772    0.9378 O   0  0  0  0  0  0  0  0  0  0  0  0
   25.7210   73.7940    1.5446 N   0  0  0  0  0  0  0  0  0  0  0  0
   27.1031   75.4291    0.5139 N   0  0  0  0  0  0  0  0  0  0  0  0
   26.8021   74.0702    0.6745 C   0  0  0  0  0  0  0  0  0  0  0  0
   25.0416   74.8351    2.1654 C   0  0  0  0  0  0  0  0  0  0  0  0
   25.3401   76.1255    2.0024 C   0  0  0  0  0  0  0  0  0  0  0  0
   26.4569   76.4998    1.1103 C   0  0  0  0  0  0  0  0  0  0  0  0
   27.8533   75.6461   -0.0856 H   0  0  0  0  0  0  0  0  0  0  0  0
   22.3446   72.8118   -2.1447 O   0  0  0  0  0  0  0  0  0  0  0  0
   22.5913   72.1111   -3.5807 P   0  0  2  0  0  0  0  0  0  0  0  0
   22.8781   70.5657   -3.1937 O   0  0  0  0  0  0  0  0  0  0  0  0
   23.6715   72.7537   -4.4019 O   0  0  0  0  0  0  0  0  0  0  0  0
   21.1387   72.0925   -4.2820 O   0  0  0  0  0  0  0  0  0  0  0  0
   19.5034   70.4156   -4.6325 O   0  0  0  0  0  0  0  0  0  0  0  0
   19.3114   72.5309   -8.1761 O   0  0  0  0  0  0  0  0  0  0  0  0
   21.8936   71.9212   -6.9535 O   0  0  0  0  0  0  0  0  0  0  0  0
   17.2376   72.8606   -6.1656 O   0  0  0  0  0  0  0  0  0  0  0  0
   19.5129   72.3526   -6.7741 C   0  0  2  0  0  0  0  0  0  0  0  0
   20.6523   71.3597   -6.5430 C   0  0  2  0  0  0  0  0  0  0  0  0
   18.2109   71.8179   -6.1734 C   0  0  1  0  0  0  0  0  0  0  0  0
   20.7462   70.9684   -5.0676 C   0  0  1  0  0  0  0  0  0  0  0  0
   18.4163   71.3318   -4.7416 C   0  0  1  0  0  0  0  0  0  0  0  0
   20.1259   72.8701   -8.5794 H   0  0  0  0  0  0  0  0  0  0  0  0
   21.8410   72.1720   -7.8887 H   0  0  0  0  0  0  0  0  0  0  0  0
   17.0977   73.1790   -7.0711 H   0  0  0  0  0  0  0  0  0  0  0  0
   16.6401   69.9201   -5.3363 O   0  0  0  0  0  0  0  0  0  0  0  0
   16.8838   70.4090   -3.1226 O   0  0  0  0  0  0  0  0  0  0  0  0
   17.2475   70.5216   -4.2836 C   0  0  0  0  0  0  0  0  0  0  0  0
  1  4  1  0
  1 24  1  0
  1  2  1  6
  1  3  2  0
 25 28  1  0
 25 24  1  0
 25 26  1  1
 25 27  2  0
  6 11  1  0
  6 12  1  0
 29 36  1  0
 29 37  1  0
  9  7  1  6
  7 13  1  0
 10  8  1  1
  8 14  1  0
  4  5  1  0
 36 28  1  1
 33 30  1  6
 30 38  1  0
 34 31  1  1
 31 39  1  0
 35 32  1  1
 32 40  1  0
 41 43  1  0
 15 19  2  0
 42 43  2  0
 16 22  2  0
 12 17  1  6
 17 19  1  0
 17 20  1  0
 18 19  1  0
 18 22  1  0
 18 23  1  0
  9 10  1  0
  9 11  1  0
 10 12  1  0
 11  5  1  1
 33 34  1  0
 33 35  1  0
 34 36  1  0
 35 37  1  0
 37 43  1  6
 20 21  2  0
 21 22  1  0
M  CHG  3   2  -1  26  -1  41  -1
M  END
>  <COMPND>  (176) 
    udp_gluA.pdb 

>  <AUTHOR>  (176) 
    GENERATED BY OPEN BABEL 3.1.1

>  <MASTER>  (176) 
        0    0    0    0    0    0    0    0   56    0   56    0

>  <minimizedAffinity>  (176) 
-6.35493

>  <CNNscore>  (176) 
0.3234948218

>  <CNNaffinity>  (176) 
3.9448745251

>  <CNN_VS>  (176) 
1.2761465311

>  <CNNaffinity_variance>  (176) 
0.1894972026

$$$$
177
     RDKit          3D

 43 45  0  0  0  0  0  0  0  0999 V2000
   22.7763   74.1979   -3.7583 P   0  0  2  0  0  0  0  0  0  0  0  0
   21.4187   75.0508   -3.5383 O   0  0  0  0  0  0  0  0  0  0  0  0
   23.9946   75.0159   -4.0721 O   0  0  0  0  0  0  0  0  0  0  0  0
   22.3661   73.0942   -4.8681 O   0  0  0  0  0  0  0  0  0  0  0  0
   21.0347   73.0819   -5.3495 C   0  0  0  0  0  0  0  0  0  0  0  0
   20.2051   70.9987   -6.2155 O   0  0  0  0  0  0  0  0  0  0  0  0
   20.6520   72.1674   -8.9405 O   0  0  0  0  0  0  0  0  0  0  0  0
   17.9639   72.4695   -8.5962 O   0  0  0  0  0  0  0  0  0  0  0  0
   20.2150   72.8095   -7.7425 C   0  0  1  0  0  0  0  0  0  0  0  0
   18.7783   72.4379   -7.4428 C   0  0  2  0  0  0  0  0  0  0  0  0
   20.9580   72.1779   -6.5731 C   0  0  1  0  0  0  0  0  0  0  0  0
   18.9272   71.0387   -6.8702 C   0  0  2  0  0  0  0  0  0  0  0  0
   20.1910   72.5542   -9.7017 H   0  0  0  0  0  0  0  0  0  0  0  0
   17.9001   73.3814   -8.9221 H   0  0  0  0  0  0  0  0  0  0  0  0
   16.4074   69.9483   -7.5324 O   0  0  0  0  0  0  0  0  0  0  0  0
   15.0746   69.8784   -3.1207 O   0  0  0  0  0  0  0  0  0  0  0  0
   17.9028   70.7258   -5.9144 N   0  0  0  0  0  0  0  0  0  0  0  0
   15.7456   69.9155   -5.3346 N   0  0  0  0  0  0  0  0  0  0  0  0
   16.6721   70.1813   -6.3515 C   0  0  0  0  0  0  0  0  0  0  0  0
   18.1224   70.9565   -4.5618 C   0  0  0  0  0  0  0  0  0  0  0  0
   17.2297   70.6979   -3.6042 C   0  0  0  0  0  0  0  0  0  0  0  0
   15.9180   70.1286   -3.9765 C   0  0  0  0  0  0  0  0  0  0  0  0
   14.8806   69.5380   -5.6147 H   0  0  0  0  0  0  0  0  0  0  0  0
   22.8815   73.3267   -2.4009 O   0  0  0  0  0  0  0  0  0  0  0  0
   23.5032   71.8597   -2.1267 P   0  0  2  0  0  0  0  0  0  0  0  0
   24.8470   71.8529   -3.0291 O   0  0  0  0  0  0  0  0  0  0  0  0
   22.5598   70.7276   -2.4136 O   0  0  0  0  0  0  0  0  0  0  0  0
   24.0351   71.9185   -0.6048 O   0  0  0  0  0  0  0  0  0  0  0  0
   23.6181   73.6015    1.0085 O   0  0  0  0  0  0  0  0  0  0  0  0
   27.3035   72.1759    2.2141 O   0  0  0  0  0  0  0  0  0  0  0  0
   26.7328   72.5953   -0.6201 O   0  0  0  0  0  0  0  0  0  0  0  0
   24.9038   71.4421    3.6817 O   0  0  0  0  0  0  0  0  0  0  0  0
   25.9999   72.0951    1.6379 C   0  0  2  0  0  0  0  0  0  0  0  0
   25.9070   73.0485    0.4463 C   0  0  2  0  0  0  0  0  0  0  0  0
   24.9828   72.4856    2.7126 C   0  0  1  0  0  0  0  0  0  0  0  0
   24.4660   73.1614   -0.0530 C   0  0  1  0  0  0  0  0  0  0  0  0
   23.5957   72.7018    2.1145 C   0  0  1  0  0  0  0  0  0  0  0  0
   27.9668   71.9321    1.5494 H   0  0  0  0  0  0  0  0  0  0  0  0
   27.6487   72.5211   -0.3102 H   0  0  0  0  0  0  0  0  0  0  0  0
   25.7804   71.2944    4.0700 H   0  0  0  0  0  0  0  0  0  0  0  0
   23.4264   74.0354    4.0366 O   0  0  0  0  0  0  0  0  0  0  0  0
   21.4779   73.3846    3.0473 O   0  0  0  0  0  0  0  0  0  0  0  0
   22.6990   73.3919    3.0902 C   0  0  0  0  0  0  0  0  0  0  0  0
  1  4  1  0
  1 24  1  0
  1  2  1  1
  1  3  2  0
 25 28  1  0
 25 24  1  0
 25 26  1  6
 25 27  2  0
  6 11  1  0
  6 12  1  0
 29 36  1  0
 29 37  1  0
  9  7  1  6
  7 13  1  0
 10  8  1  6
  8 14  1  0
  4  5  1  0
 36 28  1  1
 33 30  1  1
 30 38  1  0
 34 31  1  6
 31 39  1  0
 35 32  1  1
 32 40  1  0
 41 43  1  0
 15 19  2  0
 42 43  2  0
 16 22  2  0
 12 17  1  1
 17 19  1  0
 17 20  1  0
 18 19  1  0
 18 22  1  0
 18 23  1  0
  9 10  1  0
  9 11  1  0
 10 12  1  0
 11  5  1  1
 33 34  1  0
 33 35  1  0
 34 36  1  0
 35 37  1  0
 37 43  1  1
 20 21  2  0
 21 22  1  0
M  CHG  3   2  -1  26  -1  41  -1
M  END
>  <COMPND>  (177) 
    udp_gluA.pdb 

>  <AUTHOR>  (177) 
    GENERATED BY OPEN BABEL 3.1.1

>  <MASTER>  (177) 
        0    0    0    0    0    0    0    0   56    0   56    0

>  <minimizedAffinity>  (177) 
-6.45097

>  <CNNscore>  (177) 
0.3102884293

>  <CNNaffinity>  (177) 
4.0148453712

>  <CNN_VS>  (177) 
1.2457600832

>  <CNNaffinity_variance>  (177) 
0.0578644201

$$$$
178
     RDKit          3D

 43 45  0  0  0  0  0  0  0  0999 V2000
   18.1861   72.2941   -2.6508 P   0  0  2  0  0  0  0  0  0  0  0  0
   18.3669   70.8139   -2.0222 O   0  0  0  0  0  0  0  0  0  0  0  0
   16.8772   72.9589   -2.3400 O   0  0  0  0  0  0  0  0  0  0  0  0
   18.5159   72.0920   -4.2219 O   0  0  0  0  0  0  0  0  0  0  0  0
   19.8505   72.2674   -4.6606 C   0  0  0  0  0  0  0  0  0  0  0  0
   18.9743   70.5897   -6.1422 O   0  0  0  0  0  0  0  0  0  0  0  0
   21.7043   70.5232   -7.3808 O   0  0  0  0  0  0  0  0  0  0  0  0
   20.2867   72.0448   -9.1446 O   0  0  0  0  0  0  0  0  0  0  0  0
   20.9794   71.6331   -6.8505 C   0  0  1  0  0  0  0  0  0  0  0  0
   19.8666   72.0323   -7.7963 C   0  0  2  0  0  0  0  0  0  0  0  0
   20.2042   71.1492   -5.6327 C   0  0  1  0  0  0  0  0  0  0  0  0
   18.8200   70.9665   -7.5197 C   0  0  2  0  0  0  0  0  0  0  0  0
   22.2077   70.8079   -8.1601 H   0  0  0  0  0  0  0  0  0  0  0  0
   20.9522   72.7401   -9.2695 H   0  0  0  0  0  0  0  0  0  0  0  0
   16.6252   69.3242   -8.1998 O   0  0  0  0  0  0  0  0  0  0  0  0
   13.7333   72.9122   -8.2860 O   0  0  0  0  0  0  0  0  0  0  0  0
   17.4824   71.4453   -7.7258 N   0  0  0  0  0  0  0  0  0  0  0  0
   15.1872   71.1130   -8.2431 N   0  0  0  0  0  0  0  0  0  0  0  0
   16.4519   70.5369   -8.0647 C   0  0  0  0  0  0  0  0  0  0  0  0
   17.2020   72.7996   -7.5905 C   0  0  0  0  0  0  0  0  0  0  0  0
   15.9915   73.3338   -7.7636 C   0  0  0  0  0  0  0  0  0  0  0  0
   14.8595   72.4535   -8.1201 C   0  0  0  0  0  0  0  0  0  0  0  0
   14.4540   70.5006   -8.4815 H   0  0  0  0  0  0  0  0  0  0  0  0
   19.4877   73.0818   -2.1047 O   0  0  0  0  0  0  0  0  0  0  0  0
   19.6578   74.1395   -0.8940 P   0  0  2  0  0  0  0  0  0  0  0  0
   18.6920   73.5407    0.2588 O   0  0  0  0  0  0  0  0  0  0  0  0
   19.3608   75.5617   -1.2724 O   0  0  0  0  0  0  0  0  0  0  0  0
   21.1531   73.8921   -0.3414 O   0  0  0  0  0  0  0  0  0  0  0  0
   23.3435   73.5072   -1.1558 O   0  0  0  0  0  0  0  0  0  0  0  0
   22.9388   70.4831    1.6297 O   0  0  0  0  0  0  0  0  0  0  0  0
   20.7317   71.1485   -0.1649 O   0  0  0  0  0  0  0  0  0  0  0  0
   24.5512   72.8235    2.2407 O   0  0  0  0  0  0  0  0  0  0  0  0
   22.7210   71.7793    1.0725 C   0  0  2  0  0  0  0  0  0  0  0  0
   22.0595   71.6421   -0.2991 C   0  0  2  0  0  0  0  0  0  0  0  0
   24.0793   72.4720    0.9414 C   0  0  1  0  0  0  0  0  0  0  0  0
   22.0196   72.9880   -1.0243 C   0  0  1  0  0  0  0  0  0  0  0  0
   23.9787   73.7405    0.0992 C   0  0  1  0  0  0  0  0  0  0  0  0
   22.0892   70.0239    1.7223 H   0  0  0  0  0  0  0  0  0  0  0  0
   20.7495   70.2948    0.2947 H   0  0  0  0  0  0  0  0  0  0  0  0
   24.6196   72.0249    2.7869 H   0  0  0  0  0  0  0  0  0  0  0  0
   25.2530   75.4214   -0.9266 O   0  0  0  0  0  0  0  0  0  0  0  0
   26.3820   73.6288   -0.0834 O   0  0  0  0  0  0  0  0  0  0  0  0
   25.3361   74.2235   -0.2965 C   0  0  0  0  0  0  0  0  0  0  0  0
  1  4  1  0
  1 24  1  0
  1  2  1  1
  1  3  2  0
 25 28  1  0
 25 24  1  0
 25 26  1  1
 25 27  2  0
  6 11  1  0
  6 12  1  0
 29 36  1  0
 29 37  1  0
  9  7  1  6
  7 13  1  0
 10  8  1  6
  8 14  1  0
  4  5  1  0
 36 28  1  1
 33 30  1  6
 30 38  1  0
 34 31  1  1
 31 39  1  0
 35 32  1  1
 32 40  1  0
 41 43  1  0
 15 19  2  0
 42 43  2  0
 16 22  2  0
 12 17  1  1
 17 19  1  0
 17 20  1  0
 18 19  1  0
 18 22  1  0
 18 23  1  0
  9 10  1  0
  9 11  1  0
 10 12  1  0
 11  5  1  1
 33 34  1  0
 33 35  1  0
 34 36  1  0
 35 37  1  0
 37 43  1  6
 20 21  2  0
 21 22  1  0
M  CHG  3   2  -1  26  -1  41  -1
M  END
>  <COMPND>  (178) 
    udp_gluA.pdb 

>  <AUTHOR>  (178) 
    GENERATED BY OPEN BABEL 3.1.1

>  <MASTER>  (178) 
        0    0    0    0    0    0    0    0   56    0   56    0

>  <minimizedAffinity>  (178) 
-6.03544

>  <CNNscore>  (178) 
0.3031479418

>  <CNNaffinity>  (178) 
4.0893955231

>  <CNN_VS>  (178) 
1.2396918535

>  <CNNaffinity_variance>  (178) 
0.0281116609

$$$$
179
     RDKit          3D

 43 45  0  0  0  0  0  0  0  0999 V2000
   15.7903   70.1593   -2.5978 P   0  0  2  0  0  0  0  0  0  0  0  0
   15.0892   71.6166   -2.5361 O   0  0  0  0  0  0  0  0  0  0  0  0
   15.4448   69.3407   -3.8070 O   0  0  0  0  0  0  0  0  0  0  0  0
   15.4255   69.4919   -1.1698 O   0  0  0  0  0  0  0  0  0  0  0  0
   14.1022   69.0370   -0.9544 C   0  0  0  0  0  0  0  0  0  0  0  0
   12.4826   68.9273    0.8184 O   0  0  0  0  0  0  0  0  0  0  0  0
   14.5753   67.4617    2.3882 O   0  0  0  0  0  0  0  0  0  0  0  0
   12.9588   65.4440    1.5213 O   0  0  0  0  0  0  0  0  0  0  0  0
   14.2912   67.4073    0.9900 C   0  0  1  0  0  0  0  0  0  0  0  0
   13.0210   66.6211    0.7435 C   0  0  2  0  0  0  0  0  0  0  0  0
   13.8937   68.8054    0.5367 C   0  0  1  0  0  0  0  0  0  0  0  0
   11.9484   67.6286    1.1208 C   0  0  2  0  0  0  0  0  0  0  0  0
   14.8318   66.5796    2.7009 H   0  0  0  0  0  0  0  0  0  0  0  0
   13.6613   64.8350    1.2427 H   0  0  0  0  0  0  0  0  0  0  0  0
    9.8767   65.8645    1.8777 O   0  0  0  0  0  0  0  0  0  0  0  0
    7.3330   66.9830   -1.7996 O   0  0  0  0  0  0  0  0  0  0  0  0
   10.7337   67.4393    0.3795 N   0  0  0  0  0  0  0  0  0  0  0  0
    8.6122   66.4225    0.0449 N   0  0  0  0  0  0  0  0  0  0  0  0
    9.7565   66.5286    0.8464 C   0  0  0  0  0  0  0  0  0  0  0  0
   10.5191   68.1518   -0.7940 C   0  0  0  0  0  0  0  0  0  0  0  0
    9.4232   68.0401   -1.5472 C   0  0  0  0  0  0  0  0  0  0  0  0
    8.3539   67.1094   -1.1303 C   0  0  0  0  0  0  0  0  0  0  0  0
    7.9187   65.7931    0.3485 H   0  0  0  0  0  0  0  0  0  0  0  0
   17.3618   70.5060   -2.4460 O   0  0  0  0  0  0  0  0  0  0  0  0
   18.2415   71.7265   -3.0379 P   0  0  2  0  0  0  0  0  0  0  0  0
   19.7649   71.2258   -2.8163 O   0  0  0  0  0  0  0  0  0  0  0  0
   17.9339   73.0616   -2.4241 O   0  0  0  0  0  0  0  0  0  0  0  0
   18.0178   71.6559   -4.6340 O   0  0  0  0  0  0  0  0  0  0  0  0
   17.5244   69.8084   -6.0312 O   0  0  0  0  0  0  0  0  0  0  0  0
   19.8170   72.1654   -8.5325 O   0  0  0  0  0  0  0  0  0  0  0  0
   20.5686   71.8107   -5.7318 O   0  0  0  0  0  0  0  0  0  0  0  0
   16.9334   72.0437   -8.8801 O   0  0  0  0  0  0  0  0  0  0  0  0
   18.8892   71.9001   -7.4804 C   0  0  2  0  0  0  0  0  0  0  0  0
   19.5667   71.0545   -6.4018 C   0  0  2  0  0  0  0  0  0  0  0  0
   17.6991   71.1463   -8.0783 C   0  0  1  0  0  0  0  0  0  0  0  0
   18.5475   70.5583   -5.3752 C   0  0  1  0  0  0  0  0  0  0  0  0
   16.7969   70.5752   -6.9882 C   0  0  1  0  0  0  0  0  0  0  0  0
   20.5821   72.6439   -8.1761 H   0  0  0  0  0  0  0  0  0  0  0  0
   21.2186   72.1290   -6.3773 H   0  0  0  0  0  0  0  0  0  0  0  0
   17.4961   72.4144   -9.5778 H   0  0  0  0  0  0  0  0  0  0  0  0
   15.8911   68.4150   -6.8655 O   0  0  0  0  0  0  0  0  0  0  0  0
   15.1084   69.7788   -8.5167 O   0  0  0  0  0  0  0  0  0  0  0  0
   15.8405   69.5793   -7.5590 C   0  0  0  0  0  0  0  0  0  0  0  0
  1  4  1  0
  1 24  1  0
  1  2  1  6
  1  3  2  0
 25 28  1  0
 25 24  1  0
 25 26  1  6
 25 27  2  0
  6 11  1  0
  6 12  1  0
 29 36  1  0
 29 37  1  0
  9  7  1  1
  7 13  1  0
 10  8  1  1
  8 14  1  0
  4  5  1  0
 36 28  1  6
 33 30  1  6
 30 38  1  0
 34 31  1  1
 31 39  1  0
 35 32  1  6
 32 40  1  0
 41 43  1  0
 15 19  2  0
 42 43  2  0
 16 22  2  0
 12 17  1  6
 17 19  1  0
 17 20  1  0
 18 19  1  0
 18 22  1  0
 18 23  1  0
  9 10  1  0
  9 11  1  0
 10 12  1  0
 11  5  1  6
 33 34  1  0
 33 35  1  0
 34 36  1  0
 35 37  1  0
 37 43  1  6
 20 21  2  0
 21 22  1  0
M  CHG  3   2  -1  26  -1  41  -1
M  END
>  <COMPND>  (179) 
    udp_gluA.pdb 

>  <AUTHOR>  (179) 
    GENERATED BY OPEN BABEL 3.1.1

>  <MASTER>  (179) 
        0    0    0    0    0    0    0    0   56    0   56    0

>  <minimizedAffinity>  (179) 
-7.02862

>  <CNNscore>  (179) 
0.2884272337

>  <CNNaffinity>  (179) 
4.1840362549

>  <CNN_VS>  (179) 
1.2067899704

>  <CNNaffinity_variance>  (179) 
0.1618969142

$$$$
180
     RDKit          3D

 43 45  0  0  0  0  0  0  0  0999 V2000
   21.8300   75.5928   -5.0646 P   0  0  2  0  0  0  0  0  0  0  0  0
   20.3056   75.7387   -4.5412 O   0  0  0  0  0  0  0  0  0  0  0  0
   22.4113   76.8337   -5.6760 O   0  0  0  0  0  0  0  0  0  0  0  0
   21.7885   74.2901   -6.0234 O   0  0  0  0  0  0  0  0  0  0  0  0
   20.5296   73.7306   -6.3498 C   0  0  0  0  0  0  0  0  0  0  0  0
   19.3513   71.6514   -6.0927 O   0  0  0  0  0  0  0  0  0  0  0  0
   21.6585   70.3810   -7.5260 O   0  0  0  0  0  0  0  0  0  0  0  0
   19.7748   70.5795   -9.4877 O   0  0  0  0  0  0  0  0  0  0  0  0
   21.0617   71.6617   -7.7314 C   0  0  1  0  0  0  0  0  0  0  0  0
   19.7259   71.5118   -8.4280 C   0  0  2  0  0  0  0  0  0  0  0  0
   20.6522   72.2125   -6.3723 C   0  0  1  0  0  0  0  0  0  0  0  0
   18.8263   71.0582   -7.2910 C   0  0  2  0  0  0  0  0  0  0  0  0
   21.9284   70.0089   -8.3806 H   0  0  0  0  0  0  0  0  0  0  0  0
   20.3597   70.9142  -10.1861 H   0  0  0  0  0  0  0  0  0  0  0  0
   16.5902   69.7516   -6.1644 O   0  0  0  0  0  0  0  0  0  0  0  0
   13.6543   72.7776   -8.0265 O   0  0  0  0  0  0  0  0  0  0  0  0
   17.4663   71.4833   -7.4653 N   0  0  0  0  0  0  0  0  0  0  0  0
   15.1300   71.2594   -7.0937 N   0  0  0  0  0  0  0  0  0  0  0  0
   16.4160   70.7564   -6.8565 C   0  0  0  0  0  0  0  0  0  0  0  0
   17.1839   72.6087   -8.2300 C   0  0  0  0  0  0  0  0  0  0  0  0
   15.9530   73.0761   -8.4470 C   0  0  0  0  0  0  0  0  0  0  0  0
   14.7994   72.3740   -7.8473 C   0  0  0  0  0  0  0  0  0  0  0  0
   14.3823   70.7688   -6.6819 H   0  0  0  0  0  0  0  0  0  0  0  0
   22.6131   75.0563   -3.7563 O   0  0  0  0  0  0  0  0  0  0  0  0
   23.0579   73.5636   -3.3232 P   0  0  2  0  0  0  0  0  0  0  0  0
   23.6088   73.7648   -1.8145 O   0  0  0  0  0  0  0  0  0  0  0  0
   24.0384   72.9174   -4.2586 O   0  0  0  0  0  0  0  0  0  0  0  0
   21.6712   72.7585   -3.1463 O   0  0  0  0  0  0  0  0  0  0  0  0
   19.6049   73.5562   -2.3075 O   0  0  0  0  0  0  0  0  0  0  0  0
   19.4586   69.5661   -1.2467 O   0  0  0  0  0  0  0  0  0  0  0  0
   21.9304   71.0916   -0.9349 O   0  0  0  0  0  0  0  0  0  0  0  0
   17.8893   70.5373   -3.4928 O   0  0  0  0  0  0  0  0  0  0  0  0
   19.8163   70.6875   -2.0545 C   0  0  2  0  0  0  0  0  0  0  0  0
   20.6611   71.6614   -1.2326 C   0  0  2  0  0  0  0  0  0  0  0  0
   18.5260   71.3650   -2.5212 C   0  0  1  0  0  0  0  0  0  0  0  0
   20.8696   72.9756   -1.9865 C   0  0  1  0  0  0  0  0  0  0  0  0
   18.8076   72.7267   -3.1496 C   0  0  1  0  0  0  0  0  0  0  0  0
   20.2629   69.1197   -0.9385 H   0  0  0  0  0  0  0  0  0  0  0  0
   21.8057   70.2572   -0.4567 H   0  0  0  0  0  0  0  0  0  0  0  0
   17.7047   69.6674   -3.1055 H   0  0  0  0  0  0  0  0  0  0  0  0
   16.9740   73.2772   -4.5048 O   0  0  0  0  0  0  0  0  0  0  0  0
   17.0852   74.2662   -2.4533 O   0  0  0  0  0  0  0  0  0  0  0  0
   17.5461   73.5135   -3.2982 C   0  0  0  0  0  0  0  0  0  0  0  0
  1  4  1  0
  1 24  1  0
  1  2  1  1
  1  3  2  0
 25 28  1  0
 25 24  1  0
 25 26  1  1
 25 27  2  0
  6 11  1  0
  6 12  1  0
 29 36  1  0
 29 37  1  0
  9  7  1  1
  7 13  1  0
 10  8  1  6
  8 14  1  0
  4  5  1  0
 36 28  1  6
 33 30  1  1
 30 38  1  0
 34 31  1  6
 31 39  1  0
 35 32  1  6
 32 40  1  0
 41 43  1  0
 15 19  2  0
 42 43  2  0
 16 22  2  0
 12 17  1  6
 17 19  1  0
 17 20  1  0
 18 19  1  0
 18 22  1  0
 18 23  1  0
  9 10  1  0
  9 11  1  0
 10 12  1  0
 11  5  1  6
 33 34  1  0
 33 35  1  0
 34 36  1  0
 35 37  1  0
 37 43  1  1
 20 21  2  0
 21 22  1  0
M  CHG  3   2  -1  26  -1  41  -1
M  END
>  <COMPND>  (180) 
    udp_gluA.pdb 

>  <AUTHOR>  (180) 
    GENERATED BY OPEN BABEL 3.1.1

>  <MASTER>  (180) 
        0    0    0    0    0    0    0    0   56    0   56    0

>  <minimizedAffinity>  (180) 
-6.29722

>  <CNNscore>  (180) 
0.2875354886

>  <CNNaffinity>  (180) 
3.8725490570

>  <CNN_VS>  (180) 
1.1134952307

>  <CNNaffinity_variance>  (180) 
0.4451549947

$$$$
181
     RDKit          3D

 43 45  0  0  0  0  0  0  0  0999 V2000
   20.8763   71.6811   -1.2408 P   0  0  2  0  0  0  0  0  0  0  0  0
   21.3763   70.8773    0.0717 O   0  0  0  0  0  0  0  0  0  0  0  0
   19.6239   72.4858   -1.0521 O   0  0  0  0  0  0  0  0  0  0  0  0
   20.8152   70.5457   -2.3919 O   0  0  0  0  0  0  0  0  0  0  0  0
   20.0459   70.8005   -3.5528 C   0  0  0  0  0  0  0  0  0  0  0  0
   20.5034   70.4515   -5.8866 O   0  0  0  0  0  0  0  0  0  0  0  0
   22.2410   72.8896   -5.7197 O   0  0  0  0  0  0  0  0  0  0  0  0
   19.9652   73.8573   -6.8688 O   0  0  0  0  0  0  0  0  0  0  0  0
   21.0065   72.6128   -5.0580 C   0  0  1  0  0  0  0  0  0  0  0  0
   19.8529   72.7251   -6.0321 C   0  0  2  0  0  0  0  0  0  0  0  0
   20.9837   71.1315   -4.7066 C   0  0  1  0  0  0  0  0  0  0  0  0
   19.9596   71.4182   -6.7993 C   0  0  2  0  0  0  0  0  0  0  0  0
   22.2786   73.8305   -5.9541 H   0  0  0  0  0  0  0  0  0  0  0  0
   19.8907   74.6635   -6.3335 H   0  0  0  0  0  0  0  0  0  0  0  0
   19.4614   70.5117   -9.4274 O   0  0  0  0  0  0  0  0  0  0  0  0
   15.0314   69.6543   -8.4873 O   0  0  0  0  0  0  0  0  0  0  0  0
   18.6852   70.9524   -7.2682 N   0  0  0  0  0  0  0  0  0  0  0  0
   17.2553   70.0865   -8.9569 N   0  0  0  0  0  0  0  0  0  0  0  0
   18.5413   70.5189   -8.6074 C   0  0  0  0  0  0  0  0  0  0  0  0
   17.5960   70.9267   -6.4058 C   0  0  0  0  0  0  0  0  0  0  0  0
   16.3763   70.5117   -6.7534 C   0  0  0  0  0  0  0  0  0  0  0  0
   16.1409   70.0431   -8.1348 C   0  0  0  0  0  0  0  0  0  0  0  0
   17.1300   69.7818   -9.8847 H   0  0  0  0  0  0  0  0  0  0  0  0
   22.1773   72.5472   -1.6534 O   0  0  0  0  0  0  0  0  0  0  0  0
   23.6809   72.0893   -2.0319 P   0  0  2  0  0  0  0  0  0  0  0  0
   24.0837   73.0981   -3.2320 O   0  0  0  0  0  0  0  0  0  0  0  0
   23.8130   70.6341   -2.3767 O   0  0  0  0  0  0  0  0  0  0  0  0
   24.5809   72.5652   -0.7805 O   0  0  0  0  0  0  0  0  0  0  0  0
   23.6003   72.5671    1.3753 O   0  0  0  0  0  0  0  0  0  0  0  0
   26.9710   74.8772    1.9830 O   0  0  0  0  0  0  0  0  0  0  0  0
   25.3622   75.2118   -0.4325 O   0  0  0  0  0  0  0  0  0  0  0  0
   26.8911   72.1329    2.9386 O   0  0  0  0  0  0  0  0  0  0  0  0
   26.1926   73.8392    1.3876 C   0  0  2  0  0  0  0  0  0  0  0  0
   24.9691   74.4467    0.7010 C   0  0  2  0  0  0  0  0  0  0  0  0
   25.7582   72.8784    2.4967 C   0  0  1  0  0  0  0  0  0  0  0  0
   23.9956   73.3559    0.2523 C   0  0  1  0  0  0  0  0  0  0  0  0
   24.6942   71.9023    2.0031 C   0  0  1  0  0  0  0  0  0  0  0  0
   27.2583   75.5002    1.2969 H   0  0  0  0  0  0  0  0  0  0  0  0
   25.9803   75.9057   -0.1551 H   0  0  0  0  0  0  0  0  0  0  0  0
   27.5759   72.7426    3.2553 H   0  0  0  0  0  0  0  0  0  0  0  0
   23.1289   70.3039    2.7078 O   0  0  0  0  0  0  0  0  0  0  0  0
   24.3016   71.3968    4.3294 O   0  0  0  0  0  0  0  0  0  0  0  0
   24.0456   71.1996    3.1511 C   0  0  0  0  0  0  0  0  0  0  0  0
  1  4  1  0
  1 24  1  0
  1  2  1  1
  1  3  2  0
 25 28  1  0
 25 24  1  0
 25 26  1  6
 25 27  2  0
  6 11  1  0
  6 12  1  0
 29 36  1  0
 29 37  1  0
  9  7  1  6
  7 13  1  0
 10  8  1  6
  8 14  1  0
  4  5  1  0
 36 28  1  6
 33 30  1  1
 30 38  1  0
 34 31  1  6
 31 39  1  0
 35 32  1  6
 32 40  1  0
 41 43  1  0
 15 19  2  0
 42 43  2  0
 16 22  2  0
 12 17  1  1
 17 19  1  0
 17 20  1  0
 18 19  1  0
 18 22  1  0
 18 23  1  0
  9 10  1  0
  9 11  1  0
 10 12  1  0
 11  5  1  1
 33 34  1  0
 33 35  1  0
 34 36  1  0
 35 37  1  0
 37 43  1  1
 20 21  2  0
 21 22  1  0
M  CHG  3   2  -1  26  -1  41  -1
M  END
>  <COMPND>  (181) 
    udp_gluA.pdb 

>  <AUTHOR>  (181) 
    GENERATED BY OPEN BABEL 3.1.1

>  <MASTER>  (181) 
        0    0    0    0    0    0    0    0   56    0   56    0

>  <minimizedAffinity>  (181) 
-7.39631

>  <CNNscore>  (181) 
0.7973676920

>  <CNNaffinity>  (181) 
4.6274900436

>  <CNN_VS>  (181) 
3.6898109913

>  <CNNaffinity_variance>  (181) 
0.0730055720

$$$$
182
     RDKit          3D

 43 45  0  0  0  0  0  0  0  0999 V2000
   21.7428   71.2301   -2.6923 P   0  0  2  0  0  0  0  0  0  0  0  0
   23.3461   71.0643   -2.5472 O   0  0  0  0  0  0  0  0  0  0  0  0
   20.9367   70.0793   -2.1654 O   0  0  0  0  0  0  0  0  0  0  0  0
   21.5285   71.5798   -4.2575 O   0  0  0  0  0  0  0  0  0  0  0  0
   20.9964   72.8461   -4.6006 C   0  0  0  0  0  0  0  0  0  0  0  0
   20.9043   72.0562   -6.8689 O   0  0  0  0  0  0  0  0  0  0  0  0
   21.4145   74.8969   -7.6825 O   0  0  0  0  0  0  0  0  0  0  0  0
   18.7257   74.6430   -8.0591 O   0  0  0  0  0  0  0  0  0  0  0  0
   20.6463   74.3942   -6.5890 C   0  0  1  0  0  0  0  0  0  0  0  0
   19.3374   73.8199   -7.0881 C   0  0  2  0  0  0  0  0  0  0  0  0
   21.3515   73.1575   -6.0489 C   0  0  1  0  0  0  0  0  0  0  0  0
   19.7757   72.4785   -7.6508 C   0  0  2  0  0  0  0  0  0  0  0  0
   20.9836   75.6875   -8.0443 H   0  0  0  0  0  0  0  0  0  0  0  0
   18.4647   75.4843   -7.6517 H   0  0  0  0  0  0  0  0  0  0  0  0
   18.9273   70.8591   -9.8036 O   0  0  0  0  0  0  0  0  0  0  0  0
   15.8147   68.6916   -7.1849 O   0  0  0  0  0  0  0  0  0  0  0  0
   18.7455   71.4829   -7.5594 N   0  0  0  0  0  0  0  0  0  0  0  0
   17.3772   69.7818   -8.4975 N   0  0  0  0  0  0  0  0  0  0  0  0
   18.3946   70.7234   -8.7005 C   0  0  0  0  0  0  0  0  0  0  0  0
   18.0962   71.2658   -6.3502 C   0  0  0  0  0  0  0  0  0  0  0  0
   17.1283   70.3646   -6.1721 C   0  0  0  0  0  0  0  0  0  0  0  0
   16.7015   69.5301   -7.3144 C   0  0  0  0  0  0  0  0  0  0  0  0
   17.1142   69.2424   -9.2780 H   0  0  0  0  0  0  0  0  0  0  0  0
   21.4565   72.6433   -1.9617 O   0  0  0  0  0  0  0  0  0  0  0  0
   22.4577   73.8369   -1.5298 P   0  0  2  0  0  0  0  0  0  0  0  0
   21.5392   75.1616   -1.6773 O   0  0  0  0  0  0  0  0  0  0  0  0
   23.7374   73.8812   -2.3136 O   0  0  0  0  0  0  0  0  0  0  0  0
   22.6529   73.6519    0.0608 O   0  0  0  0  0  0  0  0  0  0  0  0
   22.2591   71.8228    1.5129 O   0  0  0  0  0  0  0  0  0  0  0  0
   21.2160   75.0301    3.8989 O   0  0  0  0  0  0  0  0  0  0  0  0
   20.4208   74.9545    1.0889 O   0  0  0  0  0  0  0  0  0  0  0  0
   23.7427   73.6565    4.3233 O   0  0  0  0  0  0  0  0  0  0  0  0
   21.9436   74.3480    2.8775 C   0  0  2  0  0  0  0  0  0  0  0  0
   20.9755   73.8550    1.8018 C   0  0  2  0  0  0  0  0  0  0  0  0
   22.6690   73.1652    3.5231 C   0  0  1  0  0  0  0  0  0  0  0  0
   21.6825   72.9264    0.8135 C   0  0  1  0  0  0  0  0  0  0  0  0
   23.2387   72.2190    2.4702 C   0  0  1  0  0  0  0  0  0  0  0  0
   20.7467   75.7859    3.5120 H   0  0  0  0  0  0  0  0  0  0  0  0
   19.9709   75.5481    1.7099 H   0  0  0  0  0  0  0  0  0  0  0  0
   23.3936   74.2602    4.9975 H   0  0  0  0  0  0  0  0  0  0  0  0
   22.9791   69.8884    2.5190 O   0  0  0  0  0  0  0  0  0  0  0  0
   24.4716   70.7996    3.9823 O   0  0  0  0  0  0  0  0  0  0  0  0
   23.6476   70.9218    3.0884 C   0  0  0  0  0  0  0  0  0  0  0  0
  1  4  1  0
  1 24  1  0
  1  2  1  6
  1  3  2  0
 25 28  1  0
 25 24  1  0
 25 26  1  1
 25 27  2  0
  6 11  1  0
  6 12  1  0
 29 36  1  0
 29 37  1  0
  9  7  1  6
  7 13  1  0
 10  8  1  6
  8 14  1  0
  4  5  1  0
 36 28  1  1
 33 30  1  1
 30 38  1  0
 34 31  1  6
 31 39  1  0
 35 32  1  6
 32 40  1  0
 41 43  1  0
 15 19  2  0
 42 43  2  0
 16 22  2  0
 12 17  1  1
 17 19  1  0
 17 20  1  0
 18 19  1  0
 18 22  1  0
 18 23  1  0
  9 10  1  0
  9 11  1  0
 10 12  1  0
 11  5  1  1
 33 34  1  0
 33 35  1  0
 34 36  1  0
 35 37  1  0
 37 43  1  1
 20 21  2  0
 21 22  1  0
M  CHG  3   2  -1  26  -1  41  -1
M  END
>  <COMPND>  (182) 
    udp_gluA.pdb 

>  <AUTHOR>  (182) 
    GENERATED BY OPEN BABEL 3.1.1

>  <MASTER>  (182) 
        0    0    0    0    0    0    0    0   56    0   56    0

>  <minimizedAffinity>  (182) 
-6.70377

>  <CNNscore>  (182) 
0.7264436483

>  <CNNaffinity>  (182) 
4.3568949699

>  <CNN_VS>  (182) 
3.1650385857

>  <CNNaffinity_variance>  (182) 
0.0437474623

$$$$
183
     RDKit          3D

 43 45  0  0  0  0  0  0  0  0999 V2000
   22.8654   73.4798   -3.7274 P   0  0  2  0  0  0  0  0  0  0  0  0
   22.8250   75.0950   -3.6363 O   0  0  0  0  0  0  0  0  0  0  0  0
   24.0874   72.9129   -4.3886 O   0  0  0  0  0  0  0  0  0  0  0  0
   21.4520   73.0939   -4.4139 O   0  0  0  0  0  0  0  0  0  0  0  0
   21.4030   71.9716   -5.2757 C   0  0  0  0  0  0  0  0  0  0  0  0
   20.7460   71.4929   -7.5377 O   0  0  0  0  0  0  0  0  0  0  0  0
   21.2835   74.3870   -8.1094 O   0  0  0  0  0  0  0  0  0  0  0  0
   18.5670   74.3192   -7.8818 O   0  0  0  0  0  0  0  0  0  0  0  0
   20.7413   73.7835   -6.9345 C   0  0  1  0  0  0  0  0  0  0  0  0
   19.3131   73.3459   -7.1814 C   0  0  2  0  0  0  0  0  0  0  0  0
   21.4498   72.4530   -6.7202 C   0  0  1  0  0  0  0  0  0  0  0  0
   19.5083   72.0702   -7.9829 C   0  0  2  0  0  0  0  0  0  0  0  0
   20.8463   75.2389   -8.2669 H   0  0  0  0  0  0  0  0  0  0  0  0
   18.4702   75.1115   -7.3297 H   0  0  0  0  0  0  0  0  0  0  0  0
   18.4594   70.3800   -9.9878 O   0  0  0  0  0  0  0  0  0  0  0  0
   15.4463   68.4781   -7.0641 O   0  0  0  0  0  0  0  0  0  0  0  0
   18.4495   71.1238   -7.7730 N   0  0  0  0  0  0  0  0  0  0  0  0
   16.9590   69.4351   -8.5300 N   0  0  0  0  0  0  0  0  0  0  0  0
   17.9957   70.3225   -8.8473 C   0  0  0  0  0  0  0  0  0  0  0  0
   17.8734   70.9952   -6.5150 C   0  0  0  0  0  0  0  0  0  0  0  0
   16.8860   70.1448   -6.2278 C   0  0  0  0  0  0  0  0  0  0  0  0
   16.3536   69.2717   -7.2945 C   0  0  0  0  0  0  0  0  0  0  0  0
   16.6250   68.8681   -9.2623 H   0  0  0  0  0  0  0  0  0  0  0  0
   22.6591   73.0244   -2.1902 O   0  0  0  0  0  0  0  0  0  0  0  0
   22.3677   71.5716   -1.5436 P   0  0  2  0  0  0  0  0  0  0  0  0
   23.2053   70.5674   -2.4977 O   0  0  0  0  0  0  0  0  0  0  0  0
   20.9102   71.2341   -1.4188 O   0  0  0  0  0  0  0  0  0  0  0  0
   23.1760   71.5754   -0.1474 O   0  0  0  0  0  0  0  0  0  0  0  0
   22.6752   73.0553    1.6325 O   0  0  0  0  0  0  0  0  0  0  0  0
   26.5859   72.0220    2.4733 O   0  0  0  0  0  0  0  0  0  0  0  0
   25.7620   72.5918   -0.2710 O   0  0  0  0  0  0  0  0  0  0  0  0
   24.4082   70.8703    4.0167 O   0  0  0  0  0  0  0  0  0  0  0  0
   25.2633   71.8212    1.9748 C   0  0  2  0  0  0  0  0  0  0  0  0
   24.9673   72.8478    0.8812 C   0  0  2  0  0  0  0  0  0  0  0  0
   24.2875   71.9901    3.1415 C   0  0  1  0  0  0  0  0  0  0  0  0
   23.4905   72.8147    0.4850 C   0  0  1  0  0  0  0  0  0  0  0  0
   22.8443   72.0740    2.6530 C   0  0  1  0  0  0  0  0  0  0  0  0
   27.2235   71.9197    1.7492 H   0  0  0  0  0  0  0  0  0  0  0  0
   26.7003   72.6111   -0.0268 H   0  0  0  0  0  0  0  0  0  0  0  0
   25.3223   70.8055    4.3347 H   0  0  0  0  0  0  0  0  0  0  0  0
   21.5353   73.8309    3.4903 O   0  0  0  0  0  0  0  0  0  0  0  0
   21.6137   71.9138    4.7222 O   0  0  0  0  0  0  0  0  0  0  0  0
   21.9437   72.5623    3.7406 C   0  0  0  0  0  0  0  0  0  0  0  0
  1  4  1  0
  1 24  1  0
  1  2  1  1
  1  3  2  0
 25 28  1  0
 25 24  1  0
 25 26  1  6
 25 27  2  0
  6 11  1  0
  6 12  1  0
 29 36  1  0
 29 37  1  0
  9  7  1  6
  7 13  1  0
 10  8  1  6
  8 14  1  0
  4  5  1  0
 36 28  1  1
 33 30  1  1
 30 38  1  0
 34 31  1  6
 31 39  1  0
 35 32  1  1
 32 40  1  0
 41 43  1  0
 15 19  2  0
 42 43  2  0
 16 22  2  0
 12 17  1  1
 17 19  1  0
 17 20  1  0
 18 19  1  0
 18 22  1  0
 18 23  1  0
  9 10  1  0
  9 11  1  0
 10 12  1  0
 11  5  1  1
 33 34  1  0
 33 35  1  0
 34 36  1  0
 35 37  1  0
 37 43  1  1
 20 21  2  0
 21 22  1  0
M  CHG  3   2  -1  26  -1  41  -1
M  END
>  <COMPND>  (183) 
    udp_gluA.pdb 

>  <AUTHOR>  (183) 
    GENERATED BY OPEN BABEL 3.1.1

>  <MASTER>  (183) 
        0    0    0    0    0    0    0    0   56    0   56    0

>  <minimizedAffinity>  (183) 
-7.55480

>  <CNNscore>  (183) 
0.7183778286

>  <CNNaffinity>  (183) 
4.3566761017

>  <CNN_VS>  (183) 
3.1297395229

>  <CNNaffinity_variance>  (183) 
0.1074404567

$$$$
184
     RDKit          3D

 43 45  0  0  0  0  0  0  0  0999 V2000
   16.8834   70.7762   -1.0753 P   0  0  2  0  0  0  0  0  0  0  0  0
   18.4355   70.3220   -1.0158 O   0  0  0  0  0  0  0  0  0  0  0  0
   16.4392   71.6633    0.0506 O   0  0  0  0  0  0  0  0  0  0  0  0
   16.0765   69.3826   -1.2321 O   0  0  0  0  0  0  0  0  0  0  0  0
   15.2790   68.9376   -0.1502 C   0  0  0  0  0  0  0  0  0  0  0  0
   13.8146   67.1246    0.4382 O   0  0  0  0  0  0  0  0  0  0  0  0
   12.3747   67.7005   -2.1282 O   0  0  0  0  0  0  0  0  0  0  0  0
   10.7702   68.8821   -0.2667 O   0  0  0  0  0  0  0  0  0  0  0  0
   12.9922   68.6080   -1.2152 C   0  0  1  0  0  0  0  0  0  0  0  0
   12.1450   68.7555    0.0309 C   0  0  2  0  0  0  0  0  0  0  0  0
   14.2486   67.9432   -0.6695 C   0  0  1  0  0  0  0  0  0  0  0  0
   12.4650   67.4750    0.7831 C   0  0  2  0  0  0  0  0  0  0  0  0
   11.5695   68.1033   -2.4902 H   0  0  0  0  0  0  0  0  0  0  0  0
   10.6181   69.7126   -0.7452 H   0  0  0  0  0  0  0  0  0  0  0  0
   10.0416   67.5119    2.2330 O   0  0  0  0  0  0  0  0  0  0  0  0
   12.2368   68.1085    6.2415 O   0  0  0  0  0  0  0  0  0  0  0  0
   12.3743   67.6385    2.2065 N   0  0  0  0  0  0  0  0  0  0  0  0
   11.1372   67.8100    4.2280 N   0  0  0  0  0  0  0  0  0  0  0  0
   11.1077   67.6429    2.8372 C   0  0  0  0  0  0  0  0  0  0  0  0
   13.5305   67.7903    2.9623 C   0  0  0  0  0  0  0  0  0  0  0  0
   13.5427   67.9486    4.2872 C   0  0  0  0  0  0  0  0  0  0  0  0
   12.2613   67.9655    5.0229 C   0  0  0  0  0  0  0  0  0  0  0  0
   10.2673   67.8185    4.6891 H   0  0  0  0  0  0  0  0  0  0  0  0
   16.7549   71.4377   -2.5446 O   0  0  0  0  0  0  0  0  0  0  0  0
   16.2024   70.8306   -3.9374 P   0  0  2  0  0  0  0  0  0  0  0  0
   15.0643   71.8938   -4.3786 O   0  0  0  0  0  0  0  0  0  0  0  0
   15.7199   69.4121   -3.8425 O   0  0  0  0  0  0  0  0  0  0  0  0
   17.4038   71.0602   -4.9892 O   0  0  0  0  0  0  0  0  0  0  0  0
   18.5224   72.9180   -5.9412 O   0  0  0  0  0  0  0  0  0  0  0  0
   18.0215   70.4641   -9.2269 O   0  0  0  0  0  0  0  0  0  0  0  0
   15.8615   70.8042   -7.2896 O   0  0  0  0  0  0  0  0  0  0  0  0
   20.6280   70.6923   -7.9599 O   0  0  0  0  0  0  0  0  0  0  0  0
   18.2225   70.7693   -7.8469 C   0  0  2  0  0  0  0  0  0  0  0  0
   17.0443   71.5942   -7.3283 C   0  0  2  0  0  0  0  0  0  0  0  0
   19.5243   71.5642   -7.7231 C   0  0  1  0  0  0  0  0  0  0  0  0
   17.3292   72.1335   -5.9258 C   0  0  1  0  0  0  0  0  0  0  0  0
   19.6744   72.1743   -6.3324 C   0  0  1  0  0  0  0  0  0  0  0  0
   17.1997   69.9590   -9.3302 H   0  0  0  0  0  0  0  0  0  0  0  0
   15.6749   70.4586   -8.1762 H   0  0  0  0  0  0  0  0  0  0  0  0
   20.5445   70.2972   -8.8418 H   0  0  0  0  0  0  0  0  0  0  0  0
   21.9672   72.6211   -6.1208 O   0  0  0  0  0  0  0  0  0  0  0  0
   20.5878   74.4035   -6.4664 O   0  0  0  0  0  0  0  0  0  0  0  0
   20.7582   73.2026   -6.3184 C   0  0  0  0  0  0  0  0  0  0  0  0
  1  4  1  0
  1 24  1  0
  1  2  1  1
  1  3  2  0
 25 28  1  0
 25 24  1  0
 25 26  1  6
 25 27  2  0
  6 11  1  0
  6 12  1  0
 29 36  1  0
 29 37  1  0
  9  7  1  6
  7 13  1  0
 10  8  1  6
  8 14  1  0
  4  5  1  0
 36 28  1  1
 33 30  1  6
 30 38  1  0
 34 31  1  1
 31 39  1  0
 35 32  1  1
 32 40  1  0
 41 43  1  0
 15 19  2  0
 42 43  2  0
 16 22  2  0
 12 17  1  1
 17 19  1  0
 17 20  1  0
 18 19  1  0
 18 22  1  0
 18 23  1  0
  9 10  1  0
  9 11  1  0
 10 12  1  0
 11  5  1  1
 33 34  1  0
 33 35  1  0
 34 36  1  0
 35 37  1  0
 37 43  1  6
 20 21  2  0
 21 22  1  0
M  CHG  3   2  -1  26  -1  41  -1
M  END
>  <COMPND>  (184) 
    udp_gluA.pdb 

>  <AUTHOR>  (184) 
    GENERATED BY OPEN BABEL 3.1.1

>  <MASTER>  (184) 
        0    0    0    0    0    0    0    0   56    0   56    0

>  <minimizedAffinity>  (184) 
-6.45314

>  <CNNscore>  (184) 
0.7136180401

>  <CNNaffinity>  (184) 
4.2607069016

>  <CNN_VS>  (184) 
3.0405173302

>  <CNNaffinity_variance>  (184) 
0.0036967017

$$$$
185
     RDKit          3D

 43 45  0  0  0  0  0  0  0  0999 V2000
   18.2462   73.4176   -2.4900 P   0  0  2  0  0  0  0  0  0  0  0  0
   18.1936   74.9574   -2.9848 O   0  0  0  0  0  0  0  0  0  0  0  0
   17.9705   73.2117   -1.0293 O   0  0  0  0  0  0  0  0  0  0  0  0
   19.6826   72.8895   -3.0151 O   0  0  0  0  0  0  0  0  0  0  0  0
   19.7669   71.5830   -3.5540 C   0  0  0  0  0  0  0  0  0  0  0  0
   20.3124   70.6306   -5.6925 O   0  0  0  0  0  0  0  0  0  0  0  0
   22.1145   72.9961   -6.0780 O   0  0  0  0  0  0  0  0  0  0  0  0
   19.9199   73.6730   -7.5484 O   0  0  0  0  0  0  0  0  0  0  0  0
   20.8451   72.9235   -5.4284 C   0  0  1  0  0  0  0  0  0  0  0  0
   19.7379   72.7996   -6.4536 C   0  0  2  0  0  0  0  0  0  0  0  0
   20.7625   71.5852   -4.7069 C   0  0  1  0  0  0  0  0  0  0  0  0
   19.8375   71.3364   -6.8499 C   0  0  2  0  0  0  0  0  0  0  0  0
   22.1906   73.8428   -6.5460 H   0  0  0  0  0  0  0  0  0  0  0  0
   19.8472   74.5919   -7.2445 H   0  0  0  0  0  0  0  0  0  0  0  0
   19.1938   70.5398   -9.4820 O   0  0  0  0  0  0  0  0  0  0  0  0
   14.9460   69.2458   -8.2466 O   0  0  0  0  0  0  0  0  0  0  0  0
   18.5706   70.7880   -7.2440 N   0  0  0  0  0  0  0  0  0  0  0  0
   17.0784   69.8970   -8.8644 N   0  0  0  0  0  0  0  0  0  0  0  0
   18.3494   70.4200   -8.5922 C   0  0  0  0  0  0  0  0  0  0  0  0
   17.5647   70.6182   -6.3005 C   0  0  0  0  0  0  0  0  0  0  0  0
   16.3583   70.1183   -6.5749 C   0  0  0  0  0  0  0  0  0  0  0  0
   16.0455   69.7097   -7.9601 C   0  0  0  0  0  0  0  0  0  0  0  0
   16.9002   69.6355   -9.7967 H   0  0  0  0  0  0  0  0  0  0  0  0
   17.2037   72.6817   -3.4822 O   0  0  0  0  0  0  0  0  0  0  0  0
   15.6277   72.3611   -3.3176 P   0  0  2  0  0  0  0  0  0  0  0  0
   15.1381   73.4590   -2.2336 O   0  0  0  0  0  0  0  0  0  0  0  0
   15.3246   70.9403   -2.9389 O   0  0  0  0  0  0  0  0  0  0  0  0
   14.9653   72.8389   -4.7088 O   0  0  0  0  0  0  0  0  0  0  0  0
   15.8810   74.1041   -6.4893 O   0  0  0  0  0  0  0  0  0  0  0  0
   11.9211   75.2790   -6.5726 O   0  0  0  0  0  0  0  0  0  0  0  0
   13.3232   74.9779   -4.0275 O   0  0  0  0  0  0  0  0  0  0  0  0
   12.9349   73.4237   -8.5678 O   0  0  0  0  0  0  0  0  0  0  0  0
   13.0096   74.3807   -6.3579 C   0  0  2  0  0  0  0  0  0  0  0  0
   13.9523   74.9616   -5.3037 C   0  0  2  0  0  0  0  0  0  0  0  0
   13.7446   74.2018   -7.6883 C   0  0  1  0  0  0  0  0  0  0  0  0
   15.2417   74.1444   -5.2129 C   0  0  1  0  0  0  0  0  0  0  0  0
   15.0798   73.4887   -7.4956 C   0  0  1  0  0  0  0  0  0  0  0  0
   11.4392   75.4081   -5.7405 H   0  0  0  0  0  0  0  0  0  0  0  0
   12.5041   75.4945   -4.0778 H   0  0  0  0  0  0  0  0  0  0  0  0
   12.0819   73.8665   -8.6987 H   0  0  0  0  0  0  0  0  0  0  0  0
   15.2522   74.2467   -9.7085 O   0  0  0  0  0  0  0  0  0  0  0  0
   17.0728   73.1971   -8.8238 O   0  0  0  0  0  0  0  0  0  0  0  0
   15.9275   73.6099   -8.7199 C   0  0  0  0  0  0  0  0  0  0  0  0
  1  4  1  0
  1 24  1  0
  1  2  1  1
  1  3  2  0
 25 28  1  0
 25 24  1  0
 25 26  1  1
 25 27  2  0
  6 11  1  0
  6 12  1  0
 29 36  1  0
 29 37  1  0
  9  7  1  6
  7 13  1  0
 10  8  1  6
  8 14  1  0
  4  5  1  0
 36 28  1  6
 33 30  1  6
 30 38  1  0
 34 31  1  1
 31 39  1  0
 35 32  1  6
 32 40  1  0
 41 43  1  0
 15 19  2  0
 42 43  2  0
 16 22  2  0
 12 17  1  1
 17 19  1  0
 17 20  1  0
 18 19  1  0
 18 22  1  0
 18 23  1  0
  9 10  1  0
  9 11  1  0
 10 12  1  0
 11  5  1  1
 33 34  1  0
 33 35  1  0
 34 36  1  0
 35 37  1  0
 37 43  1  6
 20 21  2  0
 21 22  1  0
M  CHG  3   2  -1  26  -1  41  -1
M  END
>  <COMPND>  (185) 
    udp_gluA.pdb 

>  <AUTHOR>  (185) 
    GENERATED BY OPEN BABEL 3.1.1

>  <MASTER>  (185) 
        0    0    0    0    0    0    0    0   56    0   56    0

>  <minimizedAffinity>  (185) 
-5.32341

>  <CNNscore>  (185) 
0.6616991162

>  <CNNaffinity>  (185) 
4.2001514435

>  <CNN_VS>  (185) 
2.7792365551

>  <CNNaffinity_variance>  (185) 
0.2462174594

$$$$
186
     RDKit          3D

 43 45  0  0  0  0  0  0  0  0999 V2000
   21.5117   72.1239   -1.2531 P   0  0  2  0  0  0  0  0  0  0  0  0
   21.3062   70.9442   -0.1646 O   0  0  0  0  0  0  0  0  0  0  0  0
   20.9704   73.4629   -0.8460 O   0  0  0  0  0  0  0  0  0  0  0  0
   20.9009   71.5044   -2.6173 O   0  0  0  0  0  0  0  0  0  0  0  0
   20.5546   72.3900   -3.6663 C   0  0  0  0  0  0  0  0  0  0  0  0
   18.6114   73.0235   -4.9314 O   0  0  0  0  0  0  0  0  0  0  0  0
   16.9997   71.9287   -2.6521 O   0  0  0  0  0  0  0  0  0  0  0  0
   16.8719   69.9195   -4.4914 O   0  0  0  0  0  0  0  0  0  0  0  0
   18.2346   71.4590   -3.1933 C   0  0  1  0  0  0  0  0  0  0  0  0
   17.9973   70.7722   -4.5215 C   0  0  2  0  0  0  0  0  0  0  0  0
   19.0588   72.6714   -3.6043 C   0  0  1  0  0  0  0  0  0  0  0  0
   17.8112   71.9534   -5.4586 C   0  0  2  0  0  0  0  0  0  0  0  0
   16.4558   71.1717   -2.3823 H   0  0  0  0  0  0  0  0  0  0  0  0
   17.0399   69.1837   -3.8813 H   0  0  0  0  0  0  0  0  0  0  0  0
   16.1897   72.2427   -7.7528 O   0  0  0  0  0  0  0  0  0  0  0  0
   19.5676   70.8139  -10.5443 O   0  0  0  0  0  0  0  0  0  0  0  0
   18.2416   71.6641   -6.7972 N   0  0  0  0  0  0  0  0  0  0  0  0
   17.8733   71.5299   -9.1408 N   0  0  0  0  0  0  0  0  0  0  0  0
   17.3485   71.8430   -7.8800 C   0  0  0  0  0  0  0  0  0  0  0  0
   19.5349   71.2107   -7.0271 C   0  0  0  0  0  0  0  0  0  0  0  0
   20.0207   70.9164   -8.2347 C   0  0  0  0  0  0  0  0  0  0  0  0
   19.1520   71.0751   -9.4194 C   0  0  0  0  0  0  0  0  0  0  0  0
   17.2695   71.6445   -9.9100 H   0  0  0  0  0  0  0  0  0  0  0  0
   23.1052   72.0954   -1.5226 O   0  0  0  0  0  0  0  0  0  0  0  0
   24.3263   72.8153   -0.7451 P   0  0  2  0  0  0  0  0  0  0  0  0
   24.0403   74.3904   -0.9853 O   0  0  0  0  0  0  0  0  0  0  0  0
   25.6884   72.3603   -1.1826 O   0  0  0  0  0  0  0  0  0  0  0  0
   24.0117   72.5783    0.8193 O   0  0  0  0  0  0  0  0  0  0  0  0
   25.9541   71.8021    1.9300 O   0  0  0  0  0  0  0  0  0  0  0  0
   23.1528   71.6996    4.9649 O   0  0  0  0  0  0  0  0  0  0  0  0
   22.4580   70.7901    2.2770 O   0  0  0  0  0  0  0  0  0  0  0  0
   25.1424   73.8177    4.8864 O   0  0  0  0  0  0  0  0  0  0  0  0
   23.7625   72.1884    3.7701 C   0  0  2  0  0  0  0  0  0  0  0  0
   23.7800   71.0821    2.7150 C   0  0  2  0  0  0  0  0  0  0  0  0
   25.1901   72.6216    4.1108 C   0  0  1  0  0  0  0  0  0  0  0  0
   24.6258   71.4905    1.5081 C   0  0  1  0  0  0  0  0  0  0  0  0
   26.0067   72.8901    2.8500 C   0  0  1  0  0  0  0  0  0  0  0  0
   22.2444   71.4183    4.7727 H   0  0  0  0  0  0  0  0  0  0  0  0
   21.9157   70.5305    3.0378 H   0  0  0  0  0  0  0  0  0  0  0  0
   24.6253   73.6604    5.6919 H   0  0  0  0  0  0  0  0  0  0  0  0
   27.7835   72.1562    4.1939 O   0  0  0  0  0  0  0  0  0  0  0  0
   28.2611   73.7115    2.5963 O   0  0  0  0  0  0  0  0  0  0  0  0
   27.4625   72.9874    3.1716 C   0  0  0  0  0  0  0  0  0  0  0  0
  1  4  1  0
  1 24  1  0
  1  2  1  1
  1  3  2  0
 25 28  1  0
 25 24  1  0
 25 26  1  1
 25 27  2  0
  6 11  1  0
  6 12  1  0
 29 36  1  0
 29 37  1  0
  9  7  1  6
  7 13  1  0
 10  8  1  1
  8 14  1  0
  4  5  1  0
 36 28  1  1
 33 30  1  1
 30 38  1  0
 34 31  1  6
 31 39  1  0
 35 32  1  1
 32 40  1  0
 41 43  1  0
 15 19  2  0
 42 43  2  0
 16 22  2  0
 12 17  1  6
 17 19  1  0
 17 20  1  0
 18 19  1  0
 18 22  1  0
 18 23  1  0
  9 10  1  0
  9 11  1  0
 10 12  1  0
 11  5  1  6
 33 34  1  0
 33 35  1  0
 34 36  1  0
 35 37  1  0
 37 43  1  1
 20 21  2  0
 21 22  1  0
M  CHG  3   2  -1  26  -1  41  -1
M  END
>  <COMPND>  (186) 
    udp_gluA.pdb 

>  <AUTHOR>  (186) 
    GENERATED BY OPEN BABEL 3.1.1

>  <MASTER>  (186) 
        0    0    0    0    0    0    0    0   56    0   56    0

>  <minimizedAffinity>  (186) 
-6.84149

>  <CNNscore>  (186) 
0.6304678917

>  <CNNaffinity>  (186) 
4.3538746834

>  <CNN_VS>  (186) 
2.7449781895

>  <CNNaffinity_variance>  (186) 
0.0535626225

$$$$
187
     RDKit          3D

 43 45  0  0  0  0  0  0  0  0999 V2000
   20.7479   71.3516   -2.1808 P   0  0  2  0  0  0  0  0  0  0  0  0
   20.5562   70.4566   -3.5154 O   0  0  0  0  0  0  0  0  0  0  0  0
   20.6927   70.5862   -0.8913 O   0  0  0  0  0  0  0  0  0  0  0  0
   19.6538   72.5323   -2.3444 O   0  0  0  0  0  0  0  0  0  0  0  0
   19.3320   72.9800   -3.6484 C   0  0  0  0  0  0  0  0  0  0  0  0
   17.5120   73.1987   -5.2033 O   0  0  0  0  0  0  0  0  0  0  0  0
   15.7924   71.9687   -3.0770 O   0  0  0  0  0  0  0  0  0  0  0  0
   16.2578   69.8700   -4.7548 O   0  0  0  0  0  0  0  0  0  0  0  0
   17.1518   71.6901   -3.4130 C   0  0  1  0  0  0  0  0  0  0  0  0
   17.2216   70.9011   -4.7033 C   0  0  2  0  0  0  0  0  0  0  0  0
   17.8170   73.0022   -3.8056 C   0  0  1  0  0  0  0  0  0  0  0  0
   16.9806   71.9794   -5.7459 C   0  0  2  0  0  0  0  0  0  0  0  0
   15.3465   71.1451   -2.8227 H   0  0  0  0  0  0  0  0  0  0  0  0
   16.4550   69.2087   -4.0724 H   0  0  0  0  0  0  0  0  0  0  0  0
   15.9480   72.6536   -8.2866 O   0  0  0  0  0  0  0  0  0  0  0  0
   19.5925   70.8428  -10.4505 O   0  0  0  0  0  0  0  0  0  0  0  0
   17.6389   71.6960   -6.9897 N   0  0  0  0  0  0  0  0  0  0  0  0
   17.7637   71.7502   -9.3620 N   0  0  0  0  0  0  0  0  0  0  0  0
   17.0345   72.0768   -8.2110 C   0  0  0  0  0  0  0  0  0  0  0  0
   18.8691   71.0497   -6.9919 C   0  0  0  0  0  0  0  0  0  0  0  0
   19.5522   70.7452   -8.0970 C   0  0  0  0  0  0  0  0  0  0  0  0
   18.9900   71.1077   -9.4146 C   0  0  0  0  0  0  0  0  0  0  0  0
   17.3620   72.0035  -10.2245 H   0  0  0  0  0  0  0  0  0  0  0  0
   22.1476   72.1131   -2.4524 O   0  0  0  0  0  0  0  0  0  0  0  0
   23.6588   71.5493   -2.5619 P   0  0  2  0  0  0  0  0  0  0  0  0
   24.2620   72.3519   -3.8316 O   0  0  0  0  0  0  0  0  0  0  0  0
   23.7520   70.0550   -2.6737 O   0  0  0  0  0  0  0  0  0  0  0  0
   24.4222   72.1740   -1.2853 O   0  0  0  0  0  0  0  0  0  0  0  0
   23.3527   72.0922    0.8262 O   0  0  0  0  0  0  0  0  0  0  0  0
   26.3304   74.8758    1.4993 O   0  0  0  0  0  0  0  0  0  0  0  0
   24.8036   74.9133   -0.9911 O   0  0  0  0  0  0  0  0  0  0  0  0
   26.5962   72.1743    2.5396 O   0  0  0  0  0  0  0  0  0  0  0  0
   25.7352   73.7218    0.9059 C   0  0  2  0  0  0  0  0  0  0  0  0
   24.4709   74.1299    0.1492 C   0  0  2  0  0  0  0  0  0  0  0  0
   25.3907   72.7382    2.0265 C   0  0  1  0  0  0  0  0  0  0  0  0
   23.6836   72.8997   -0.3042 C   0  0  1  0  0  0  0  0  0  0  0  0
   24.4997   71.6073    1.5207 C   0  0  1  0  0  0  0  0  0  0  0  0
   26.5578   75.5152    0.8060 H   0  0  0  0  0  0  0  0  0  0  0  0
   25.3036   75.6955   -0.7108 H   0  0  0  0  0  0  0  0  0  0  0  0
   27.1723   72.8837    2.8646 H   0  0  0  0  0  0  0  0  0  0  0  0
   22.6866   70.3572    2.3277 O   0  0  0  0  0  0  0  0  0  0  0  0
   24.4371   70.6883    3.7507 O   0  0  0  0  0  0  0  0  0  0  0  0
   23.9050   70.8494    2.6627 C   0  0  0  0  0  0  0  0  0  0  0  0
  1  4  1  0
  1 24  1  0
  1  2  1  6
  1  3  2  0
 25 28  1  0
 25 24  1  0
 25 26  1  6
 25 27  2  0
  6 11  1  0
  6 12  1  0
 29 36  1  0
 29 37  1  0
  9  7  1  6
  7 13  1  0
 10  8  1  1
  8 14  1  0
  4  5  1  0
 36 28  1  6
 33 30  1  1
 30 38  1  0
 34 31  1  6
 31 39  1  0
 35 32  1  6
 32 40  1  0
 41 43  1  0
 15 19  2  0
 42 43  2  0
 16 22  2  0
 12 17  1  6
 17 19  1  0
 17 20  1  0
 18 19  1  0
 18 22  1  0
 18 23  1  0
  9 10  1  0
  9 11  1  0
 10 12  1  0
 11  5  1  6
 33 34  1  0
 33 35  1  0
 34 36  1  0
 35 37  1  0
 37 43  1  1
 20 21  2  0
 21 22  1  0
M  CHG  3   2  -1  26  -1  41  -1
M  END
>  <COMPND>  (187) 
    udp_gluA.pdb 

>  <AUTHOR>  (187) 
    GENERATED BY OPEN BABEL 3.1.1

>  <MASTER>  (187) 
        0    0    0    0    0    0    0    0   56    0   56    0

>  <minimizedAffinity>  (187) 
-7.34761

>  <CNNscore>  (187) 
0.6192217469

>  <CNNaffinity>  (187) 
4.5600872040

>  <CNN_VS>  (187) 
2.8237051964

>  <CNNaffinity_variance>  (187) 
0.0649250150

$$$$
188
     RDKit          3D

 43 45  0  0  0  0  0  0  0  0999 V2000
   20.7437   71.7447   -2.0072 P   0  0  2  0  0  0  0  0  0  0  0  0
   20.9468   70.2378   -2.5611 O   0  0  0  0  0  0  0  0  0  0  0  0
   21.9498   72.3446   -1.3460 O   0  0  0  0  0  0  0  0  0  0  0  0
   19.4154   71.6453   -1.0887 O   0  0  0  0  0  0  0  0  0  0  0  0
   18.6075   70.4872   -1.1914 C   0  0  0  0  0  0  0  0  0  0  0  0
   16.5505   69.6672   -2.1262 O   0  0  0  0  0  0  0  0  0  0  0  0
   16.1826   72.4206   -3.2554 O   0  0  0  0  0  0  0  0  0  0  0  0
   14.5469   72.4479   -1.0737 O   0  0  0  0  0  0  0  0  0  0  0  0
   16.7517   72.0244   -2.0074 C   0  0  1  0  0  0  0  0  0  0  0  0
   15.6635   71.5834   -1.0515 C   0  0  2  0  0  0  0  0  0  0  0  0
   17.5220   70.7303   -2.2320 C   0  0  1  0  0  0  0  0  0  0  0  0
   15.3362   70.1921   -1.5664 C   0  0  2  0  0  0  0  0  0  0  0  0
   15.6853   73.2454   -3.1371 H   0  0  0  0  0  0  0  0  0  0  0  0
   14.8066   73.3202   -0.7366 H   0  0  0  0  0  0  0  0  0  0  0  0
   12.8102   68.9295   -1.5272 O   0  0  0  0  0  0  0  0  0  0  0  0
   13.7114   66.8445    2.4834 O   0  0  0  0  0  0  0  0  0  0  0  0
   14.8849   69.3143   -0.5240 N   0  0  0  0  0  0  0  0  0  0  0  0
   13.2610   67.8931    0.4708 N   0  0  0  0  0  0  0  0  0  0  0  0
   13.5977   68.7316   -0.6000 C   0  0  0  0  0  0  0  0  0  0  0  0
   15.7134   69.0371    0.5565 C   0  0  0  0  0  0  0  0  0  0  0  0
   15.3786   68.2357    1.5697 C   0  0  0  0  0  0  0  0  0  0  0  0
   14.0507   67.5876    1.5675 C   0  0  0  0  0  0  0  0  0  0  0  0
   12.3690   67.4774    0.4411 H   0  0  0  0  0  0  0  0  0  0  0  0
   20.2239   72.5441   -3.3124 O   0  0  0  0  0  0  0  0  0  0  0  0
   21.0266   73.1310   -4.5872 P   0  0  2  0  0  0  0  0  0  0  0  0
   22.3580   72.2119   -4.6410 O   0  0  0  0  0  0  0  0  0  0  0  0
   21.2960   74.6064   -4.5192 O   0  0  0  0  0  0  0  0  0  0  0  0
   20.1594   72.6670   -5.8659 O   0  0  0  0  0  0  0  0  0  0  0  0
   18.5811   70.9026   -5.9361 O   0  0  0  0  0  0  0  0  0  0  0  0
   19.8431   71.0584   -9.8669 O   0  0  0  0  0  0  0  0  0  0  0  0
   21.7673   71.3069   -7.6828 O   0  0  0  0  0  0  0  0  0  0  0  0
   17.2493   72.1401   -9.1232 O   0  0  0  0  0  0  0  0  0  0  0  0
   19.5291   71.5839   -8.5772 C   0  0  2  0  0  0  0  0  0  0  0  0
   20.4095   70.9126   -7.5228 C   0  0  2  0  0  0  0  0  0  0  0  0
   18.0519   71.2987   -8.2971 C   0  0  1  0  0  0  0  0  0  0  0  0
   19.9478   71.2778   -6.1114 C   0  0  1  0  0  0  0  0  0  0  0  0
   17.6994   71.5688   -6.8372 C   0  0  1  0  0  0  0  0  0  0  0  0
   20.7773   71.2280  -10.0666 H   0  0  0  0  0  0  0  0  0  0  0  0
   22.0668   71.0784   -8.5764 H   0  0  0  0  0  0  0  0  0  0  0  0
   17.4640   71.9781  -10.0551 H   0  0  0  0  0  0  0  0  0  0  0  0
   16.4817   70.0898   -5.4840 O   0  0  0  0  0  0  0  0  0  0  0  0
   15.3144   71.2702   -7.0471 O   0  0  0  0  0  0  0  0  0  0  0  0
   16.3672   70.9847   -6.4964 C   0  0  0  0  0  0  0  0  0  0  0  0
  1  4  1  0
  1 24  1  0
  1  2  1  6
  1  3  2  0
 25 28  1  0
 25 24  1  0
 25 26  1  6
 25 27  2  0
  6 11  1  0
  6 12  1  0
 29 36  1  0
 29 37  1  0
  9  7  1  6
  7 13  1  0
 10  8  1  6
  8 14  1  0
  4  5  1  0
 36 28  1  6
 33 30  1  6
 30 38  1  0
 34 31  1  6
 31 39  1  0
 35 32  1  6
 32 40  1  0
 41 43  1  0
 15 19  2  0
 42 43  2  0
 16 22  2  0
 12 17  1  1
 17 19  1  0
 17 20  1  0
 18 19  1  0
 18 22  1  0
 18 23  1  0
  9 10  1  0
  9 11  1  0
 10 12  1  0
 11  5  1  1
 33 34  1  0
 33 35  1  0
 34 36  1  0
 35 37  1  0
 37 43  1  1
 20 21  2  0
 21 22  1  0
M  CHG  3   2  -1  26  -1  41  -1
M  END
>  <COMPND>  (188) 
    udp_gluA.pdb 

>  <AUTHOR>  (188) 
    GENERATED BY OPEN BABEL 3.1.1

>  <MASTER>  (188) 
        0    0    0    0    0    0    0    0   56    0   56    0

>  <minimizedAffinity>  (188) 
-6.28855

>  <CNNscore>  (188) 
0.5934756398

>  <CNNaffinity>  (188) 
4.3881669044

>  <CNN_VS>  (188) 
2.6042702198

>  <CNNaffinity_variance>  (188) 
0.0397868976

$$$$
189
     RDKit          3D

 43 45  0  0  0  0  0  0  0  0999 V2000
   18.7043   71.2471   -1.3578 P   0  0  2  0  0  0  0  0  0  0  0  0
   17.7665   69.9824   -0.9838 O   0  0  0  0  0  0  0  0  0  0  0  0
   18.2665   72.5564   -0.7696 O   0  0  0  0  0  0  0  0  0  0  0  0
   18.7969   71.1981   -2.9724 O   0  0  0  0  0  0  0  0  0  0  0  0
   19.2895   72.3358   -3.6562 C   0  0  0  0  0  0  0  0  0  0  0  0
   19.9457   70.7765   -5.3638 O   0  0  0  0  0  0  0  0  0  0  0  0
   22.1312   72.7168   -6.0348 O   0  0  0  0  0  0  0  0  0  0  0  0
   20.2750   73.2180   -7.9686 O   0  0  0  0  0  0  0  0  0  0  0  0
   20.7941   72.9748   -5.6056 C   0  0  1  0  0  0  0  0  0  0  0  0
   19.8205   72.7057   -6.7334 C   0  0  2  0  0  0  0  0  0  0  0  0
   20.4113   71.9049   -4.5922 C   0  0  1  0  0  0  0  0  0  0  0  0
   19.7384   71.1888   -6.7241 C   0  0  2  0  0  0  0  0  0  0  0  0
   22.3982   73.3877   -6.6830 H   0  0  0  0  0  0  0  0  0  0  0  0
   20.3096   74.1869   -7.9237 H   0  0  0  0  0  0  0  0  0  0  0  0
   19.0897   70.6439   -9.4183 O   0  0  0  0  0  0  0  0  0  0  0  0
   14.8084   69.3415   -8.3146 O   0  0  0  0  0  0  0  0  0  0  0  0
   18.4616   70.7064   -7.1688 N   0  0  0  0  0  0  0  0  0  0  0  0
   16.9577   69.9967   -8.8661 N   0  0  0  0  0  0  0  0  0  0  0  0
   18.2387   70.4646   -8.5450 C   0  0  0  0  0  0  0  0  0  0  0  0
   17.4477   70.4762   -6.2469 C   0  0  0  0  0  0  0  0  0  0  0  0
   16.2317   70.0299   -6.5681 C   0  0  0  0  0  0  0  0  0  0  0  0
   15.9166   69.7532   -7.9850 C   0  0  0  0  0  0  0  0  0  0  0  0
   16.7781   69.8231   -9.8185 H   0  0  0  0  0  0  0  0  0  0  0  0
   20.1739   70.7587   -0.8945 O   0  0  0  0  0  0  0  0  0  0  0  0
   21.5785   71.5544   -0.8079 P   0  0  2  0  0  0  0  0  0  0  0  0
   21.1485   73.0932   -1.0678 O   0  0  0  0  0  0  0  0  0  0  0  0
   22.6355   71.0413   -1.7424 O   0  0  0  0  0  0  0  0  0  0  0  0
   21.9826   71.5027    0.7531 O   0  0  0  0  0  0  0  0  0  0  0  0
   23.7347   73.0669    1.0571 O   0  0  0  0  0  0  0  0  0  0  0  0
   23.1998   71.6464    4.8995 O   0  0  0  0  0  0  0  0  0  0  0  0
   23.1590   69.8144    2.6243 O   0  0  0  0  0  0  0  0  0  0  0  0
   22.1990   74.2745    4.1628 O   0  0  0  0  0  0  0  0  0  0  0  0
   22.8012   72.0157    3.5794 C   0  0  2  0  0  0  0  0  0  0  0  0
   23.5692   71.1753    2.5590 C   0  0  2  0  0  0  0  0  0  0  0  0
   23.1145   73.5015    3.3890 C   0  0  1  0  0  0  0  0  0  0  0  0
   23.3421   71.6963    1.1392 C   0  0  1  0  0  0  0  0  0  0  0  0
   22.9865   73.9148    1.9257 C   0  0  1  0  0  0  0  0  0  0  0  0
   23.0102   70.7059    5.0435 H   0  0  0  0  0  0  0  0  0  0  0  0
   23.3001   69.4774    3.5226 H   0  0  0  0  0  0  0  0  0  0  0  0
   22.2703   74.0210    5.0964 H   0  0  0  0  0  0  0  0  0  0  0  0
   22.7251   76.2445    2.0014 O   0  0  0  0  0  0  0  0  0  0  0  0
   24.7410   75.4464    1.2953 O   0  0  0  0  0  0  0  0  0  0  0  0
   23.6029   75.2565    1.6976 C   0  0  0  0  0  0  0  0  0  0  0  0
  1  4  1  0
  1 24  1  0
  1  2  1  1
  1  3  2  0
 25 28  1  0
 25 24  1  0
 25 26  1  6
 25 27  2  0
  6 11  1  0
  6 12  1  0
 29 36  1  0
 29 37  1  0
  9  7  1  6
  7 13  1  0
 10  8  1  6
  8 14  1  0
  4  5  1  0
 36 28  1  1
 33 30  1  1
 30 38  1  0
 34 31  1  6
 31 39  1  0
 35 32  1  1
 32 40  1  0
 41 43  1  0
 15 19  2  0
 42 43  2  0
 16 22  2  0
 12 17  1  1
 17 19  1  0
 17 20  1  0
 18 19  1  0
 18 22  1  0
 18 23  1  0
  9 10  1  0
  9 11  1  0
 10 12  1  0
 11  5  1  1
 33 34  1  0
 33 35  1  0
 34 36  1  0
 35 37  1  0
 37 43  1  1
 20 21  2  0
 21 22  1  0
M  CHG  3   2  -1  26  -1  41  -1
M  END
>  <COMPND>  (189) 
    udp_gluA.pdb 

>  <AUTHOR>  (189) 
    GENERATED BY OPEN BABEL 3.1.1

>  <MASTER>  (189) 
        0    0    0    0    0    0    0    0   56    0   56    0

>  <minimizedAffinity>  (189) 
-7.06215

>  <CNNscore>  (189) 
0.5773923397

>  <CNNaffinity>  (189) 
4.3977479935

>  <CNN_VS>  (189) 
2.5392260551

>  <CNNaffinity_variance>  (189) 
0.0452329591

$$$$
190
     RDKit          3D

 43 45  0  0  0  0  0  0  0  0999 V2000
   16.3525   73.0748   -1.6995 P   0  0  2  0  0  0  0  0  0  0  0  0
   17.6080   72.3582   -0.9720 O   0  0  0  0  0  0  0  0  0  0  0  0
   16.2383   74.5513   -1.4573 O   0  0  0  0  0  0  0  0  0  0  0  0
   15.0796   72.1871   -1.2416 O   0  0  0  0  0  0  0  0  0  0  0  0
   15.2741   71.1786   -0.2672 C   0  0  0  0  0  0  0  0  0  0  0  0
   15.2982   68.7944    0.0378 O   0  0  0  0  0  0  0  0  0  0  0  0
   14.7084   68.6000   -2.8958 O   0  0  0  0  0  0  0  0  0  0  0  0
   12.2631   68.1733   -1.7669 O   0  0  0  0  0  0  0  0  0  0  0  0
   14.2517   69.5613   -1.9440 C   0  0  1  0  0  0  0  0  0  0  0  0
   13.1971   68.9497   -1.0461 C   0  0  2  0  0  0  0  0  0  0  0  0
   15.3869   69.8294   -0.9653 C   0  0  1  0  0  0  0  0  0  0  0  0
   14.0382   68.1173   -0.0935 C   0  0  2  0  0  0  0  0  0  0  0  0
   14.0000   68.4126   -3.5319 H   0  0  0  0  0  0  0  0  0  0  0  0
   11.7526   68.7488   -2.3587 H   0  0  0  0  0  0  0  0  0  0  0  0
   13.1922   65.6763    1.0477 O   0  0  0  0  0  0  0  0  0  0  0  0
   11.7433   67.7654    4.8922 O   0  0  0  0  0  0  0  0  0  0  0  0
   13.4367   67.9945    1.2042 N   0  0  0  0  0  0  0  0  0  0  0  0
   12.4704   66.7193    2.9610 N   0  0  0  0  0  0  0  0  0  0  0  0
   13.0472   66.7217    1.6841 C   0  0  0  0  0  0  0  0  0  0  0  0
   13.2396   69.1255    1.9871 C   0  0  0  0  0  0  0  0  0  0  0  0
   12.6886   69.1074    3.2023 C   0  0  0  0  0  0  0  0  0  0  0  0
   12.2531   67.8176    3.7770 C   0  0  0  0  0  0  0  0  0  0  0  0
   12.1894   65.8449    3.3156 H   0  0  0  0  0  0  0  0  0  0  0  0
   16.5462   72.6597   -3.2497 O   0  0  0  0  0  0  0  0  0  0  0  0
   17.5460   71.5979   -3.9473 P   0  0  2  0  0  0  0  0  0  0  0  0
   17.8128   72.2450   -5.4070 O   0  0  0  0  0  0  0  0  0  0  0  0
   17.0239   70.1907   -3.9808 O   0  0  0  0  0  0  0  0  0  0  0  0
   18.9439   71.7749   -3.1618 O   0  0  0  0  0  0  0  0  0  0  0  0
   21.0564   71.2963   -4.1195 O   0  0  0  0  0  0  0  0  0  0  0  0
   21.8744   70.9877   -0.0817 O   0  0  0  0  0  0  0  0  0  0  0  0
   19.4064   69.8772   -1.1818 O   0  0  0  0  0  0  0  0  0  0  0  0
   22.7397   73.3295   -1.5710 O   0  0  0  0  0  0  0  0  0  0  0  0
   21.2153   71.4928   -1.2429 C   0  0  2  0  0  0  0  0  0  0  0  0
   20.4983   70.3500   -1.9622 C   0  0  2  0  0  0  0  0  0  0  0  0
   22.2750   72.1143   -2.1555 C   0  0  1  0  0  0  0  0  0  0  0  0
   19.9760   70.8041   -3.3259 C   0  0  1  0  0  0  0  0  0  0  0  0
   21.7077   72.4236   -3.5379 C   0  0  1  0  0  0  0  0  0  0  0  0
   21.2206   70.5877    0.5132 H   0  0  0  0  0  0  0  0  0  0  0  0
   19.7306   69.5876   -0.3149 H   0  0  0  0  0  0  0  0  0  0  0  0
   23.1032   73.1466   -0.6905 H   0  0  0  0  0  0  0  0  0  0  0  0
   22.3191   72.7907   -5.7723 O   0  0  0  0  0  0  0  0  0  0  0  0
   23.9812   72.8670   -4.2132 O   0  0  0  0  0  0  0  0  0  0  0  0
   22.8054   72.7146   -4.5088 C   0  0  0  0  0  0  0  0  0  0  0  0
  1  4  1  0
  1 24  1  0
  1  2  1  1
  1  3  2  0
 25 28  1  0
 25 24  1  0
 25 26  1  6
 25 27  2  0
  6 11  1  0
  6 12  1  0
 29 36  1  0
 29 37  1  0
  9  7  1  6
  7 13  1  0
 10  8  1  6
  8 14  1  0
  4  5  1  0
 36 28  1  1
 33 30  1  1
 30 38  1  0
 34 31  1  1
 31 39  1  0
 35 32  1  1
 32 40  1  0
 41 43  1  0
 15 19  2  0
 42 43  2  0
 16 22  2  0
 12 17  1  1
 17 19  1  0
 17 20  1  0
 18 19  1  0
 18 22  1  0
 18 23  1  0
  9 10  1  0
  9 11  1  0
 10 12  1  0
 11  5  1  1
 33 34  1  0
 33 35  1  0
 34 36  1  0
 35 37  1  0
 37 43  1  6
 20 21  2  0
 21 22  1  0
M  CHG  3   2  -1  26  -1  41  -1
M  END
>  <COMPND>  (190) 
    udp_gluA.pdb 

>  <AUTHOR>  (190) 
    GENERATED BY OPEN BABEL 3.1.1

>  <MASTER>  (190) 
        0    0    0    0    0    0    0    0   56    0   56    0

>  <minimizedAffinity>  (190) 
-6.66821

>  <CNNscore>  (190) 
0.5653604269

>  <CNNaffinity>  (190) 
4.2055959702

>  <CNN_VS>  (190) 
2.3776774406

>  <CNNaffinity_variance>  (190) 
0.1808972061

$$$$
191
     RDKit          3D

 43 45  0  0  0  0  0  0  0  0999 V2000
   20.9344   74.0939   -2.5612 P   0  0  2  0  0  0  0  0  0  0  0  0
   22.0540   72.9784   -2.9090 O   0  0  0  0  0  0  0  0  0  0  0  0
   20.7124   75.1235   -3.6301 O   0  0  0  0  0  0  0  0  0  0  0  0
   21.3914   74.6663   -1.1184 O   0  0  0  0  0  0  0  0  0  0  0  0
   21.1860   73.8578    0.0256 C   0  0  0  0  0  0  0  0  0  0  0  0
   22.5064   74.1589    2.0114 O   0  0  0  0  0  0  0  0  0  0  0  0
   24.2290   71.9321    0.9794 O   0  0  0  0  0  0  0  0  0  0  0  0
   22.6902   70.6776    2.8487 O   0  0  0  0  0  0  0  0  0  0  0  0
   22.8147   72.1004    0.8808 C   0  0  1  0  0  0  0  0  0  0  0  0
   22.1596   71.8242    2.2176 C   0  0  2  0  0  0  0  0  0  0  0  0
   22.5304   73.5836    0.6871 C   0  0  1  0  0  0  0  0  0  0  0  0
   22.4546   73.1026    2.9835 C   0  0  2  0  0  0  0  0  0  0  0  0
   24.4353   70.9920    1.1036 H   0  0  0  0  0  0  0  0  0  0  0  0
   22.4755   69.8906    2.3229 H   0  0  0  0  0  0  0  0  0  0  0  0
   22.0931   71.7047    5.4108 O   0  0  0  0  0  0  0  0  0  0  0  0
   18.5271   74.3620    6.6216 O   0  0  0  0  0  0  0  0  0  0  0  0
   21.4395   73.4082    3.9515 N   0  0  0  0  0  0  0  0  0  0  0  0
   20.3167   73.0289    6.0110 N   0  0  0  0  0  0  0  0  0  0  0  0
   21.3434   72.6442    5.1386 C   0  0  0  0  0  0  0  0  0  0  0  0
   20.5544   74.4544    3.7216 C   0  0  0  0  0  0  0  0  0  0  0  0
   19.5810   74.8093    4.5626 C   0  0  0  0  0  0  0  0  0  0  0  0
   19.4117   74.0615    5.8258 C   0  0  0  0  0  0  0  0  0  0  0  0
   20.2288   72.5104    6.8434 H   0  0  0  0  0  0  0  0  0  0  0  0
   19.6337   73.2034   -2.2035 O   0  0  0  0  0  0  0  0  0  0  0  0
   19.1297   71.7805   -2.7823 P   0  0  2  0  0  0  0  0  0  0  0  0
   17.5284   71.8334   -2.5510 O   0  0  0  0  0  0  0  0  0  0  0  0
   19.8048   70.5903   -2.1645 O   0  0  0  0  0  0  0  0  0  0  0  0
   19.3143   71.9002   -4.3805 O   0  0  0  0  0  0  0  0  0  0  0  0
   18.6004   70.0161   -5.6253 O   0  0  0  0  0  0  0  0  0  0  0  0
   20.6240   72.1991   -8.4903 O   0  0  0  0  0  0  0  0  0  0  0  0
   21.7108   71.9304   -5.7919 O   0  0  0  0  0  0  0  0  0  0  0  0
   17.7173   72.1561   -8.4719 O   0  0  0  0  0  0  0  0  0  0  0  0
   19.8285   72.0049   -7.3209 C   0  0  2  0  0  0  0  0  0  0  0  0
   20.6128   71.1809   -6.2994 C   0  0  2  0  0  0  0  0  0  0  0  0
   18.5531   71.2668   -7.7337 C   0  0  1  0  0  0  0  0  0  0  0  0
   19.7173   70.7581   -5.1340 C   0  0  1  0  0  0  0  0  0  0  0  0
   17.7796   70.7678   -6.5166 C   0  0  1  0  0  0  0  0  0  0  0  0
   21.4402   72.6665   -8.2524 H   0  0  0  0  0  0  0  0  0  0  0  0
   22.2830   72.2022   -6.5261 H   0  0  0  0  0  0  0  0  0  0  0  0
   18.1979   72.4811   -9.2493 H   0  0  0  0  0  0  0  0  0  0  0  0
   16.8691   69.4481   -8.2287 O   0  0  0  0  0  0  0  0  0  0  0  0
   15.8710   69.3302   -6.1820 O   0  0  0  0  0  0  0  0  0  0  0  0
   16.7329   69.7814   -6.9213 C   0  0  0  0  0  0  0  0  0  0  0  0
  1  4  1  0
  1 24  1  0
  1  2  1  6
  1  3  2  0
 25 28  1  0
 25 24  1  0
 25 26  1  6
 25 27  2  0
  6 11  1  0
  6 12  1  0
 29 36  1  0
 29 37  1  0
  9  7  1  1
  7 13  1  0
 10  8  1  1
  8 14  1  0
  4  5  1  0
 36 28  1  6
 33 30  1  6
 30 38  1  0
 34 31  1  1
 31 39  1  0
 35 32  1  1
 32 40  1  0
 41 43  1  0
 15 19  2  0
 42 43  2  0
 16 22  2  0
 12 17  1  1
 17 19  1  0
 17 20  1  0
 18 19  1  0
 18 22  1  0
 18 23  1  0
  9 10  1  0
  9 11  1  0
 10 12  1  0
 11  5  1  1
 33 34  1  0
 33 35  1  0
 34 36  1  0
 35 37  1  0
 37 43  1  6
 20 21  2  0
 21 22  1  0
M  CHG  3   2  -1  26  -1  41  -1
M  END
>  <COMPND>  (191) 
    udp_gluA.pdb 

>  <AUTHOR>  (191) 
    GENERATED BY OPEN BABEL 3.1.1

>  <MASTER>  (191) 
        0    0    0    0    0    0    0    0   56    0   56    0

>  <minimizedAffinity>  (191) 
-5.99452

>  <CNNscore>  (191) 
0.4786230624

>  <CNNaffinity>  (191) 
3.9153373241

>  <CNN_VS>  (191) 
1.8739707470

>  <CNNaffinity_variance>  (191) 
0.0795753747

$$$$
192
     RDKit          3D

 43 45  0  0  0  0  0  0  0  0999 V2000
   17.1018   73.0006   -1.3437 P   0  0  2  0  0  0  0  0  0  0  0  0
   16.8620   74.4085   -0.5827 O   0  0  0  0  0  0  0  0  0  0  0  0
   16.5244   72.9215   -2.7265 O   0  0  0  0  0  0  0  0  0  0  0  0
   16.5631   71.8944   -0.2930 O   0  0  0  0  0  0  0  0  0  0  0  0
   15.3017   71.2962   -0.5285 C   0  0  0  0  0  0  0  0  0  0  0  0
   15.5220   68.9242   -0.2076 O   0  0  0  0  0  0  0  0  0  0  0  0
   14.8989   68.6589   -3.1287 O   0  0  0  0  0  0  0  0  0  0  0  0
   12.5156   68.0474   -1.9531 O   0  0  0  0  0  0  0  0  0  0  0  0
   14.3832   69.5885   -2.1755 C   0  0  1  0  0  0  0  0  0  0  0  0
   13.3967   68.9020   -1.2546 C   0  0  2  0  0  0  0  0  0  0  0  0
   15.5100   69.9546   -1.2192 C   0  0  1  0  0  0  0  0  0  0  0  0
   14.3182   68.1474   -0.3115 C   0  0  2  0  0  0  0  0  0  0  0  0
   14.1968   68.4101   -3.7507 H   0  0  0  0  0  0  0  0  0  0  0  0
   11.9504   68.5752   -2.5396 H   0  0  0  0  0  0  0  0  0  0  0  0
   13.4272   65.6871    0.7512 O   0  0  0  0  0  0  0  0  0  0  0  0
   12.1591   67.6530    4.7225 O   0  0  0  0  0  0  0  0  0  0  0  0
   13.7510   67.9877    0.9975 N   0  0  0  0  0  0  0  0  0  0  0  0
   12.7955   66.6687    2.7277 N   0  0  0  0  0  0  0  0  0  0  0  0
   13.3347   66.7082    1.4351 C   0  0  0  0  0  0  0  0  0  0  0  0
   13.6135   69.0896    1.8330 C   0  0  0  0  0  0  0  0  0  0  0  0
   13.0978   69.0363    3.0626 C   0  0  0  0  0  0  0  0  0  0  0  0
   12.6378   67.7372    3.5955 C   0  0  0  0  0  0  0  0  0  0  0  0
   12.4967   65.7891    3.0536 H   0  0  0  0  0  0  0  0  0  0  0  0
   18.7063   72.8183   -1.2726 O   0  0  0  0  0  0  0  0  0  0  0  0
   19.6761   71.6931   -1.9106 P   0  0  2  0  0  0  0  0  0  0  0  0
   19.0324   70.3060   -1.3798 O   0  0  0  0  0  0  0  0  0  0  0  0
   21.1286   71.8695   -1.5743 O   0  0  0  0  0  0  0  0  0  0  0  0
   19.3468   71.7168   -3.4897 O   0  0  0  0  0  0  0  0  0  0  0  0
   18.5643   70.1960   -5.1281 O   0  0  0  0  0  0  0  0  0  0  0  0
   21.6871   72.0351   -7.1115 O   0  0  0  0  0  0  0  0  0  0  0  0
   21.9651   71.2589   -4.3089 O   0  0  0  0  0  0  0  0  0  0  0  0
   18.9388   72.7348   -7.7504 O   0  0  0  0  0  0  0  0  0  0  0  0
   20.5988   71.9476   -6.1917 C   0  0  2  0  0  0  0  0  0  0  0  0
   20.8914   70.8631   -5.1545 C   0  0  2  0  0  0  0  0  0  0  0  0
   19.3367   71.5995   -6.9841 C   0  0  1  0  0  0  0  0  0  0  0  0
   19.6583   70.5812   -4.2949 C   0  0  1  0  0  0  0  0  0  0  0  0
   18.1880   71.2086   -6.0588 C   0  0  1  0  0  0  0  0  0  0  0  0
   22.5003   72.2554   -6.6304 H   0  0  0  0  0  0  0  0  0  0  0  0
   22.7508   71.4397   -4.8477 H   0  0  0  0  0  0  0  0  0  0  0  0
   19.6612   72.9940   -8.3435 H   0  0  0  0  0  0  0  0  0  0  0  0
   16.7737   69.3530   -6.2992 O   0  0  0  0  0  0  0  0  0  0  0  0
   16.5270   71.0504   -7.8016 O   0  0  0  0  0  0  0  0  0  0  0  0
   17.0828   70.5624   -6.8290 C   0  0  0  0  0  0  0  0  0  0  0  0
  1  4  1  0
  1 24  1  0
  1  2  1  1
  1  3  2  0
 25 28  1  0
 25 24  1  0
 25 26  1  1
 25 27  2  0
  6 11  1  0
  6 12  1  0
 29 36  1  0
 29 37  1  0
  9  7  1  6
  7 13  1  0
 10  8  1  6
  8 14  1  0
  4  5  1  0
 36 28  1  6
 33 30  1  6
 30 38  1  0
 34 31  1  1
 31 39  1  0
 35 32  1  1
 32 40  1  0
 41 43  1  0
 15 19  2  0
 42 43  2  0
 16 22  2  0
 12 17  1  1
 17 19  1  0
 17 20  1  0
 18 19  1  0
 18 22  1  0
 18 23  1  0
  9 10  1  0
  9 11  1  0
 10 12  1  0
 11  5  1  1
 33 34  1  0
 33 35  1  0
 34 36  1  0
 35 37  1  0
 37 43  1  6
 20 21  2  0
 21 22  1  0
M  CHG  3   2  -1  26  -1  41  -1
M  END
>  <COMPND>  (192) 
    udp_gluA.pdb 

>  <AUTHOR>  (192) 
    GENERATED BY OPEN BABEL 3.1.1

>  <MASTER>  (192) 
        0    0    0    0    0    0    0    0   56    0   56    0

>  <minimizedAffinity>  (192) 
-6.51850

>  <CNNscore>  (192) 
0.4600982070

>  <CNNaffinity>  (192) 
4.1682825089

>  <CNN_VS>  (192) 
1.9178192616

>  <CNNaffinity_variance>  (192) 
0.1995715797

$$$$
193
     RDKit          3D

 43 45  0  0  0  0  0  0  0  0999 V2000
   20.4008   75.6898   -3.3455 P   0  0  2  0  0  0  0  0  0  0  0  0
   19.8672   76.6678   -2.1717 O   0  0  0  0  0  0  0  0  0  0  0  0
   20.7798   76.3808   -4.6225 O   0  0  0  0  0  0  0  0  0  0  0  0
   19.2432   74.5664   -3.4713 O   0  0  0  0  0  0  0  0  0  0  0  0
   19.0054   73.9795   -4.7376 C   0  0  0  0  0  0  0  0  0  0  0  0
   19.5743   71.7120   -5.2966 O   0  0  0  0  0  0  0  0  0  0  0  0
   22.1982   72.8027   -6.2540 O   0  0  0  0  0  0  0  0  0  0  0  0
   20.8145   72.4540   -8.5777 O   0  0  0  0  0  0  0  0  0  0  0  0
   20.8960   73.3828   -6.3321 C   0  0  1  0  0  0  0  0  0  0  0  0
   20.0752   72.6869   -7.3971 C   0  0  2  0  0  0  0  0  0  0  0  0
   20.1423   73.0184   -5.0603 C   0  0  1  0  0  0  0  0  0  0  0  0
   19.6734   71.4008   -6.6955 C   0  0  2  0  0  0  0  0  0  0  0  0
   22.6988   73.0220   -7.0559 H   0  0  0  0  0  0  0  0  0  0  0  0
   21.0459   73.3030   -8.9870 H   0  0  0  0  0  0  0  0  0  0  0  0
   19.2503   70.2054   -9.2191 O   0  0  0  0  0  0  0  0  0  0  0  0
   14.7784   69.5119   -8.3443 O   0  0  0  0  0  0  0  0  0  0  0  0
   18.4086   70.8990   -7.1529 N   0  0  0  0  0  0  0  0  0  0  0  0
   17.0232   69.8621   -8.7814 N   0  0  0  0  0  0  0  0  0  0  0  0
   18.3033   70.3169   -8.4383 C   0  0  0  0  0  0  0  0  0  0  0  0
   17.2906   70.9845   -6.3321 C   0  0  0  0  0  0  0  0  0  0  0  0
   16.0770   70.5465   -6.6730 C   0  0  0  0  0  0  0  0  0  0  0  0
   15.8812   69.9257   -7.9995 C   0  0  0  0  0  0  0  0  0  0  0  0
   16.9247   69.4547   -9.6723 H   0  0  0  0  0  0  0  0  0  0  0  0
   21.6083   74.8886   -2.6293 O   0  0  0  0  0  0  0  0  0  0  0  0
   23.2003   74.8948   -2.9109 P   0  0  2  0  0  0  0  0  0  0  0  0
   23.5793   76.4677   -2.8574 O   0  0  0  0  0  0  0  0  0  0  0  0
   23.6036   74.2044   -4.1816 O   0  0  0  0  0  0  0  0  0  0  0  0
   23.8548   74.2726   -1.5741 O   0  0  0  0  0  0  0  0  0  0  0  0
   25.4953   72.7858   -0.7331 O   0  0  0  0  0  0  0  0  0  0  0  0
   22.0096   71.0823    0.6869 O   0  0  0  0  0  0  0  0  0  0  0  0
   22.1432   72.1296   -2.0370 O   0  0  0  0  0  0  0  0  0  0  0  0
   23.7416   72.5742    2.4828 O   0  0  0  0  0  0  0  0  0  0  0  0
   22.8669   72.1483    0.2786 C   0  0  2  0  0  0  0  0  0  0  0  0
   23.2677   71.9512   -1.1836 C   0  0  2  0  0  0  0  0  0  0  0  0
   24.1055   72.1298    1.1772 C   0  0  1  0  0  0  0  0  0  0  0  0
   24.3622   72.9396   -1.5887 C   0  0  1  0  0  0  0  0  0  0  0  0
   25.1993   73.0464    0.6371 C   0  0  1  0  0  0  0  0  0  0  0  0
   21.2154   71.0743    0.1297 H   0  0  0  0  0  0  0  0  0  0  0  0
   21.4447   71.5058   -1.7854 H   0  0  0  0  0  0  0  0  0  0  0  0
   23.0459   71.9992    2.8379 H   0  0  0  0  0  0  0  0  0  0  0  0
   26.3507   71.8378    2.2849 O   0  0  0  0  0  0  0  0  0  0  0  0
   27.5610   73.3219    1.0473 O   0  0  0  0  0  0  0  0  0  0  0  0
   26.5014   72.7772    1.3186 C   0  0  0  0  0  0  0  0  0  0  0  0
  1  4  1  0
  1 24  1  0
  1  2  1  1
  1  3  2  0
 25 28  1  0
 25 24  1  0
 25 26  1  6
 25 27  2  0
  6 11  1  0
  6 12  1  0
 29 36  1  0
 29 37  1  0
  9  7  1  1
  7 13  1  0
 10  8  1  6
  8 14  1  0
  4  5  1  0
 36 28  1  1
 33 30  1  1
 30 38  1  0
 34 31  1  6
 31 39  1  0
 35 32  1  1
 32 40  1  0
 41 43  1  0
 15 19  2  0
 42 43  2  0
 16 22  2  0
 12 17  1  6
 17 19  1  0
 17 20  1  0
 18 19  1  0
 18 22  1  0
 18 23  1  0
  9 10  1  0
  9 11  1  0
 10 12  1  0
 11  5  1  6
 33 34  1  0
 33 35  1  0
 34 36  1  0
 35 37  1  0
 37 43  1  1
 20 21  2  0
 21 22  1  0
M  CHG  3   2  -1  26  -1  41  -1
M  END
>  <COMPND>  (193) 
    udp_gluA.pdb 

>  <AUTHOR>  (193) 
    GENERATED BY OPEN BABEL 3.1.1

>  <MASTER>  (193) 
        0    0    0    0    0    0    0    0   56    0   56    0

>  <minimizedAffinity>  (193) 
-6.35089

>  <CNNscore>  (193) 
0.4456418455

>  <CNNaffinity>  (193) 
4.1641311646

>  <CNN_VS>  (193) 
1.8557111025

>  <CNNaffinity_variance>  (193) 
0.0375523455

$$$$
194
     RDKit          3D

 43 45  0  0  0  0  0  0  0  0999 V2000
   19.7369   72.6807   -1.0251 P   0  0  2  0  0  0  0  0  0  0  0  0
   20.3116   71.1846   -0.8012 O   0  0  0  0  0  0  0  0  0  0  0  0
   19.4877   73.4587    0.2337 O   0  0  0  0  0  0  0  0  0  0  0  0
   18.4513   72.4638   -1.9832 O   0  0  0  0  0  0  0  0  0  0  0  0
   18.6199   72.6006   -3.3822 C   0  0  0  0  0  0  0  0  0  0  0  0
   17.8960   70.7220   -4.6955 O   0  0  0  0  0  0  0  0  0  0  0  0
   20.8045   70.0777   -5.0377 O   0  0  0  0  0  0  0  0  0  0  0  0
   20.1780   71.2798   -7.4039 O   0  0  0  0  0  0  0  0  0  0  0  0
   20.1626   71.3514   -4.9735 C   0  0  1  0  0  0  0  0  0  0  0  0
   19.4217   71.6307   -6.2640 C   0  0  2  0  0  0  0  0  0  0  0  0
   19.0241   71.2535   -3.9673 C   0  0  1  0  0  0  0  0  0  0  0  0
   18.1756   70.7766   -6.1034 C   0  0  2  0  0  0  0  0  0  0  0  0
   21.5357   70.1156   -5.6746 H   0  0  0  0  0  0  0  0  0  0  0  0
   20.9599   71.8518   -7.4618 H   0  0  0  0  0  0  0  0  0  0  0  0
   16.7425   69.4590   -8.1495 O   0  0  0  0  0  0  0  0  0  0  0  0
   13.8337   73.0001   -8.6434 O   0  0  0  0  0  0  0  0  0  0  0  0
   17.0397   71.3312   -6.7838 N   0  0  0  0  0  0  0  0  0  0  0  0
   15.2957   71.2244   -8.3942 N   0  0  0  0  0  0  0  0  0  0  0  0
   16.3912   70.5866   -7.7973 C   0  0  0  0  0  0  0  0  0  0  0  0
   16.5782   72.5973   -6.4447 C   0  0  0  0  0  0  0  0  0  0  0  0
   15.5326   73.1919   -7.0226 C   0  0  0  0  0  0  0  0  0  0  0  0
   14.7999   72.4822   -8.0915 C   0  0  0  0  0  0  0  0  0  0  0  0
   14.8294   70.7264   -9.1041 H   0  0  0  0  0  0  0  0  0  0  0  0
   20.8249   73.3421   -2.0211 O   0  0  0  0  0  0  0  0  0  0  0  0
   22.4290   73.1623   -2.1108 P   0  0  2  0  0  0  0  0  0  0  0  0
   22.9388   74.6232   -2.5864 O   0  0  0  0  0  0  0  0  0  0  0  0
   22.8737   72.0339   -2.9957 O   0  0  0  0  0  0  0  0  0  0  0  0
   22.9138   73.0413   -0.5770 O   0  0  0  0  0  0  0  0  0  0  0  0
   25.1360   72.2621   -0.3246 O   0  0  0  0  0  0  0  0  0  0  0  0
   23.7709   72.1870    3.5740 O   0  0  0  0  0  0  0  0  0  0  0  0
   22.0635   71.2672    1.3892 O   0  0  0  0  0  0  0  0  0  0  0  0
   25.5699   74.2959    2.6983 O   0  0  0  0  0  0  0  0  0  0  0  0
   23.8567   72.6671    2.2324 C   0  0  2  0  0  0  0  0  0  0  0  0
   23.4513   71.5556    1.2641 C   0  0  2  0  0  0  0  0  0  0  0  0
   25.3031   73.0958    1.9751 C   0  0  1  0  0  0  0  0  0  0  0  0
   23.7487   71.9543   -0.1821 C   0  0  1  0  0  0  0  0  0  0  0  0
   25.5520   73.3544    0.4920 C   0  0  1  0  0  0  0  0  0  0  0  0
   22.8604   71.9087    3.7604 H   0  0  0  0  0  0  0  0  0  0  0  0
   21.8676   71.0137    2.3045 H   0  0  0  0  0  0  0  0  0  0  0  0
   25.4151   74.1449    3.6438 H   0  0  0  0  0  0  0  0  0  0  0  0
   27.4249   72.3959   -0.5448 O   0  0  0  0  0  0  0  0  0  0  0  0
   27.7502   74.3438    0.5949 O   0  0  0  0  0  0  0  0  0  0  0  0
   27.0160   73.4470    0.2081 C   0  0  0  0  0  0  0  0  0  0  0  0
  1  4  1  0
  1 24  1  0
  1  2  1  1
  1  3  2  0
 25 28  1  0
 25 24  1  0
 25 26  1  6
 25 27  2  0
  6 11  1  0
  6 12  1  0
 29 36  1  0
 29 37  1  0
  9  7  1  6
  7 13  1  0
 10  8  1  6
  8 14  1  0
  4  5  1  0
 36 28  1  1
 33 30  1  1
 30 38  1  0
 34 31  1  6
 31 39  1  0
 35 32  1  1
 32 40  1  0
 41 43  1  0
 15 19  2  0
 42 43  2  0
 16 22  2  0
 12 17  1  6
 17 19  1  0
 17 20  1  0
 18 19  1  0
 18 22  1  0
 18 23  1  0
  9 10  1  0
  9 11  1  0
 10 12  1  0
 11  5  1  6
 33 34  1  0
 33 35  1  0
 34 36  1  0
 35 37  1  0
 37 43  1  1
 20 21  2  0
 21 22  1  0
M  CHG  3   2  -1  26  -1  41  -1
M  END
>  <COMPND>  (194) 
    udp_gluA.pdb 

>  <AUTHOR>  (194) 
    GENERATED BY OPEN BABEL 3.1.1

>  <MASTER>  (194) 
        0    0    0    0    0    0    0    0   56    0   56    0

>  <minimizedAffinity>  (194) 
-6.01100

>  <CNNscore>  (194) 
0.4280933142

>  <CNNaffinity>  (194) 
4.2688932419

>  <CNN_VS>  (194) 
1.8274846077

>  <CNNaffinity_variance>  (194) 
0.0342047103

$$$$
195
     RDKit          3D

 43 45  0  0  0  0  0  0  0  0999 V2000
   17.0764   71.7880   -1.5721 P   0  0  2  0  0  0  0  0  0  0  0  0
   18.2914   72.7097   -1.0307 O   0  0  0  0  0  0  0  0  0  0  0  0
   15.7758   72.5087   -1.7741 O   0  0  0  0  0  0  0  0  0  0  0  0
   17.0381   70.5469   -0.5347 O   0  0  0  0  0  0  0  0  0  0  0  0
   15.7811   70.1018   -0.0590 C   0  0  0  0  0  0  0  0  0  0  0  0
   14.8252   67.8981    0.0281 O   0  0  0  0  0  0  0  0  0  0  0  0
   14.2333   68.2416   -2.8913 O   0  0  0  0  0  0  0  0  0  0  0  0
   11.8176   68.7443   -1.7304 O   0  0  0  0  0  0  0  0  0  0  0  0
   14.2014   69.2101   -1.8428 C   0  0  1  0  0  0  0  0  0  0  0  0
   12.9811   68.9995   -0.9717 C   0  0  2  0  0  0  0  0  0  0  0  0
   15.3383   68.8972   -0.8795 C   0  0  1  0  0  0  0  0  0  0  0  0
   13.3997   67.8098   -0.1248 C   0  0  2  0  0  0  0  0  0  0  0  0
   13.5158   68.4210   -3.5196 H   0  0  0  0  0  0  0  0  0  0  0  0
   11.5924   69.5314   -2.2517 H   0  0  0  0  0  0  0  0  0  0  0  0
   10.7513   66.9805    0.3995 O   0  0  0  0  0  0  0  0  0  0  0  0
   11.1624   67.8928    4.8987 O   0  0  0  0  0  0  0  0  0  0  0  0
   12.7891   67.8202    1.1745 N   0  0  0  0  0  0  0  0  0  0  0  0
   10.9582   67.4367    2.6397 N   0  0  0  0  0  0  0  0  0  0  0  0
   11.4524   67.3831    1.3297 C   0  0  0  0  0  0  0  0  0  0  0  0
   13.5125   68.2578    2.2772 C   0  0  0  0  0  0  0  0  0  0  0  0
   13.0280   68.3030    3.5198 C   0  0  0  0  0  0  0  0  0  0  0  0
   11.6389   67.8646    3.7680 C   0  0  0  0  0  0  0  0  0  0  0  0
   10.0291   67.1393    2.7724 H   0  0  0  0  0  0  0  0  0  0  0  0
   17.6932   71.1240   -2.9105 O   0  0  0  0  0  0  0  0  0  0  0  0
   18.4424   71.7913   -4.1782 P   0  0  2  0  0  0  0  0  0  0  0  0
   19.4310   70.6141   -4.6854 O   0  0  0  0  0  0  0  0  0  0  0  0
   19.1323   73.0892   -3.8725 O   0  0  0  0  0  0  0  0  0  0  0  0
   17.3068   71.8894   -5.3198 O   0  0  0  0  0  0  0  0  0  0  0  0
   14.9402   71.8807   -5.2299 O   0  0  0  0  0  0  0  0  0  0  0  0
   15.6569   69.7772   -8.7126 O   0  0  0  0  0  0  0  0  0  0  0  0
   17.2823   69.2991   -6.3328 O   0  0  0  0  0  0  0  0  0  0  0  0
   14.7407   72.5334   -8.8349 O   0  0  0  0  0  0  0  0  0  0  0  0
   15.9121   70.7565   -7.7057 C   0  0  2  0  0  0  0  0  0  0  0  0
   16.0840   70.0661   -6.3524 C   0  0  2  0  0  0  0  0  0  0  0  0
   14.7206   71.7160   -7.6663 C   0  0  1  0  0  0  0  0  0  0  0  0
   16.1296   71.0904   -5.2176 C   0  0  1  0  0  0  0  0  0  0  0  0
   14.7735   72.6197   -6.4379 C   0  0  1  0  0  0  0  0  0  0  0  0
   16.4010   69.1562   -8.7560 H   0  0  0  0  0  0  0  0  0  0  0  0
   17.2603   68.6473   -7.0504 H   0  0  0  0  0  0  0  0  0  0  0  0
   14.7077   71.9704   -9.6240 H   0  0  0  0  0  0  0  0  0  0  0  0
   13.0047   73.0967   -4.9733 O   0  0  0  0  0  0  0  0  0  0  0  0
   12.8842   73.9797   -7.0721 O   0  0  0  0  0  0  0  0  0  0  0  0
   13.4650   73.3105   -6.2308 C   0  0  0  0  0  0  0  0  0  0  0  0
  1  4  1  0
  1 24  1  0
  1  2  1  1
  1  3  2  0
 25 28  1  0
 25 24  1  0
 25 26  1  6
 25 27  2  0
  6 11  1  0
  6 12  1  0
 29 36  1  0
 29 37  1  0
  9  7  1  6
  7 13  1  0
 10  8  1  6
  8 14  1  0
  4  5  1  0
 36 28  1  6
 33 30  1  6
 30 38  1  0
 34 31  1  6
 31 39  1  0
 35 32  1  6
 32 40  1  0
 41 43  1  0
 15 19  2  0
 42 43  2  0
 16 22  2  0
 12 17  1  1
 17 19  1  0
 17 20  1  0
 18 19  1  0
 18 22  1  0
 18 23  1  0
  9 10  1  0
  9 11  1  0
 10 12  1  0
 11  5  1  1
 33 34  1  0
 33 35  1  0
 34 36  1  0
 35 37  1  0
 37 43  1  1
 20 21  2  0
 21 22  1  0
M  CHG  3   2  -1  26  -1  41  -1
M  END
>  <COMPND>  (195) 
    udp_gluA.pdb 

>  <AUTHOR>  (195) 
    GENERATED BY OPEN BABEL 3.1.1

>  <MASTER>  (195) 
        0    0    0    0    0    0    0    0   56    0   56    0

>  <minimizedAffinity>  (195) 
-6.25416

>  <CNNscore>  (195) 
0.4274004102

>  <CNNaffinity>  (195) 
3.7766757011

>  <CNN_VS>  (195) 
1.6141527891

>  <CNNaffinity_variance>  (195) 
0.3250423074

$$$$
196
     RDKit          3D

 43 45  0  0  0  0  0  0  0  0999 V2000
   20.4422   71.7811   -1.8336 P   0  0  2  0  0  0  0  0  0  0  0  0
   19.3218   72.8380   -2.3302 O   0  0  0  0  0  0  0  0  0  0  0  0
   19.9743   70.3583   -1.7415 O   0  0  0  0  0  0  0  0  0  0  0  0
   21.0033   72.4264   -0.4601 O   0  0  0  0  0  0  0  0  0  0  0  0
   22.3910   72.6860   -0.3525 C   0  0  0  0  0  0  0  0  0  0  0  0
   24.4503   71.8708    0.5813 O   0  0  0  0  0  0  0  0  0  0  0  0
   22.7482   70.2635    2.4550 O   0  0  0  0  0  0  0  0  0  0  0  0
   23.5128   72.3727    4.0052 O   0  0  0  0  0  0  0  0  0  0  0  0
   22.5269   71.5732    1.9313 C   0  0  1  0  0  0  0  0  0  0  0  0
   23.4431   72.5702    2.6085 C   0  0  2  0  0  0  0  0  0  0  0  0
   23.0350   71.5973    0.4962 C   0  0  1  0  0  0  0  0  0  0  0  0
   24.7676   72.3041    1.9135 C   0  0  2  0  0  0  0  0  0  0  0  0
   22.4314   70.2236    3.3714 H   0  0  0  0  0  0  0  0  0  0  0  0
   22.6456   72.5547    4.4011 H   0  0  0  0  0  0  0  0  0  0  0  0
   27.5106   72.3689    2.5828 O   0  0  0  0  0  0  0  0  0  0  0  0
   27.8341   76.8582    1.5901 O   0  0  0  0  0  0  0  0  0  0  0  0
   25.5927   73.4765    1.8391 N   0  0  0  0  0  0  0  0  0  0  0  0
   27.6688   74.6050    2.0887 N   0  0  0  0  0  0  0  0  0  0  0  0
   26.9592   73.4019    2.1983 C   0  0  0  0  0  0  0  0  0  0  0  0
   25.0482   74.6819    1.4130 C   0  0  0  0  0  0  0  0  0  0  0  0
   25.7373   75.8204    1.3135 C   0  0  0  0  0  0  0  0  0  0  0  0
   27.1711   75.8285    1.6706 C   0  0  0  0  0  0  0  0  0  0  0  0
   28.6216   74.5783    2.3353 H   0  0  0  0  0  0  0  0  0  0  0  0
   21.6565   72.0246   -2.8722 O   0  0  0  0  0  0  0  0  0  0  0  0
   21.8190   73.0791   -4.0869 P   0  0  2  0  0  0  0  0  0  0  0  0
   23.2444   72.6753   -4.7391 O   0  0  0  0  0  0  0  0  0  0  0  0
   21.7145   74.5180   -3.6713 O   0  0  0  0  0  0  0  0  0  0  0  0
   20.7257   72.6167   -5.1793 O   0  0  0  0  0  0  0  0  0  0  0  0
   19.5067   70.5862   -5.1801 O   0  0  0  0  0  0  0  0  0  0  0  0
   19.5925   71.5167   -9.2043 O   0  0  0  0  0  0  0  0  0  0  0  0
   21.9744   71.8733   -7.5508 O   0  0  0  0  0  0  0  0  0  0  0  0
   17.1613   71.9250   -7.6637 O   0  0  0  0  0  0  0  0  0  0  0  0
   19.5629   71.7911   -7.8037 C   0  0  2  0  0  0  0  0  0  0  0  0
   20.7989   71.1863   -7.1374 C   0  0  2  0  0  0  0  0  0  0  0  0
   18.2892   71.1691   -7.2268 C   0  0  1  0  0  0  0  0  0  0  0  0
   20.6897   71.2585   -5.6137 C   0  0  1  0  0  0  0  0  0  0  0  0
   18.3126   71.1656   -5.7010 C   0  0  1  0  0  0  0  0  0  0  0  0
   20.3935   71.9025   -9.5927 H   0  0  0  0  0  0  0  0  0  0  0  0
   22.0499   71.8317   -8.5167 H   0  0  0  0  0  0  0  0  0  0  0  0
   17.1348   71.9352   -8.6333 H   0  0  0  0  0  0  0  0  0  0  0  0
   16.6916   69.5295   -6.1447 O   0  0  0  0  0  0  0  0  0  0  0  0
   16.9064   70.2214   -3.9827 O   0  0  0  0  0  0  0  0  0  0  0  0
   17.2428   70.2763   -5.1561 C   0  0  0  0  0  0  0  0  0  0  0  0
  1  4  1  0
  1 24  1  0
  1  2  1  6
  1  3  2  0
 25 28  1  0
 25 24  1  0
 25 26  1  6
 25 27  2  0
  6 11  1  0
  6 12  1  0
 29 36  1  0
 29 37  1  0
  9  7  1  1
  7 13  1  0
 10  8  1  1
  8 14  1  0
  4  5  1  0
 36 28  1  6
 33 30  1  6
 30 38  1  0
 34 31  1  6
 31 39  1  0
 35 32  1  1
 32 40  1  0
 41 43  1  0
 15 19  2  0
 42 43  2  0
 16 22  2  0
 12 17  1  6
 17 19  1  0
 17 20  1  0
 18 19  1  0
 18 22  1  0
 18 23  1  0
  9 10  1  0
  9 11  1  0
 10 12  1  0
 11  5  1  6
 33 34  1  0
 33 35  1  0
 34 36  1  0
 35 37  1  0
 37 43  1  1
 20 21  2  0
 21 22  1  0
M  CHG  3   2  -1  26  -1  41  -1
M  END
>  <COMPND>  (196) 
    udp_gluA.pdb 

>  <AUTHOR>  (196) 
    GENERATED BY OPEN BABEL 3.1.1

>  <MASTER>  (196) 
        0    0    0    0    0    0    0    0   56    0   56    0

>  <minimizedAffinity>  (196) 
-6.59917

>  <CNNscore>  (196) 
0.3565683663

>  <CNNaffinity>  (196) 
4.0665082932

>  <CNN_VS>  (196) 
1.4499882460

>  <CNNaffinity_variance>  (196) 
0.1669089645

$$$$
197
     RDKit          3D

 43 45  0  0  0  0  0  0  0  0999 V2000
   22.1141   72.9013   -4.6891 P   0  0  2  0  0  0  0  0  0  0  0  0
   23.7282   72.8801   -4.5755 O   0  0  0  0  0  0  0  0  0  0  0  0
   21.4644   74.1788   -4.2446 O   0  0  0  0  0  0  0  0  0  0  0  0
   21.6516   71.5664   -3.9003 O   0  0  0  0  0  0  0  0  0  0  0  0
   22.2692   71.2642   -2.6626 C   0  0  0  0  0  0  0  0  0  0  0  0
   21.8312   70.7764   -0.3501 O   0  0  0  0  0  0  0  0  0  0  0  0
   19.2916   72.3329   -0.6953 O   0  0  0  0  0  0  0  0  0  0  0  0
   20.9234   74.1246    0.5550 O   0  0  0  0  0  0  0  0  0  0  0  0
   20.5768   72.5606   -1.2741 C   0  0  1  0  0  0  0  0  0  0  0  0
   21.5262   73.1233   -0.2377 C   0  0  2  0  0  0  0  0  0  0  0  0
   21.2022   71.2058   -1.5770 C   0  0  1  0  0  0  0  0  0  0  0  0
   21.8901   71.8842    0.5624 C   0  0  2  0  0  0  0  0  0  0  0  0
   18.8723   73.1844   -0.4931 H   0  0  0  0  0  0  0  0  0  0  0  0
   20.7110   74.8921    0.0001 H   0  0  0  0  0  0  0  0  0  0  0  0
   22.7861   70.3468    2.7556 O   0  0  0  0  0  0  0  0  0  0  0  0
   26.9778   72.2586    2.6173 O   0  0  0  0  0  0  0  0  0  0  0  0
   23.2108   71.9602    1.1200 N   0  0  0  0  0  0  0  0  0  0  0  0
   24.8727   71.3012    2.6853 N   0  0  0  0  0  0  0  0  0  0  0  0
   23.5596   71.1444    2.2223 C   0  0  0  0  0  0  0  0  0  0  0  0
   24.1444   72.8333    0.5752 C   0  0  0  0  0  0  0  0  0  0  0  0
   25.3923   72.9716    1.0273 C   0  0  0  0  0  0  0  0  0  0  0  0
   25.8368   72.1565    2.1769 C   0  0  0  0  0  0  0  0  0  0  0  0
   25.1381   70.7453    3.4533 H   0  0  0  0  0  0  0  0  0  0  0  0
   21.8542   72.5168   -6.2374 O   0  0  0  0  0  0  0  0  0  0  0  0
   20.9483   73.2303   -7.3706 P   0  0  2  0  0  0  0  0  0  0  0  0
   21.3787   72.4596   -8.7275 O   0  0  0  0  0  0  0  0  0  0  0  0
   21.1013   74.7225   -7.4319 O   0  0  0  0  0  0  0  0  0  0  0  0
   19.4461   72.7229   -7.0732 O   0  0  0  0  0  0  0  0  0  0  0  0
   18.7222   70.8003   -5.8948 O   0  0  0  0  0  0  0  0  0  0  0  0
   15.6936   71.2793   -8.6636 O   0  0  0  0  0  0  0  0  0  0  0  0
   18.4855   71.6358   -9.4462 O   0  0  0  0  0  0  0  0  0  0  0  0
   15.2659   72.0316   -5.8884 O   0  0  0  0  0  0  0  0  0  0  0  0
   16.7272   71.7056   -7.7760 C   0  0  2  0  0  0  0  0  0  0  0  0
   18.0578   71.0868   -8.2051 C   0  0  2  0  0  0  0  0  0  0  0  0
   16.3573   71.2461   -6.3639 C   0  0  1  0  0  0  0  0  0  0  0  0
   19.1399   71.3320   -7.1527 C   0  0  1  0  0  0  0  0  0  0  0  0
   17.5300   71.4066   -5.4008 C   0  0  1  0  0  0  0  0  0  0  0  0
   15.9070   71.5601   -9.5674 H   0  0  0  0  0  0  0  0  0  0  0  0
   17.8035   71.4840  -10.1186 H   0  0  0  0  0  0  0  0  0  0  0  0
   14.5129   71.9384   -6.4927 H   0  0  0  0  0  0  0  0  0  0  0  0
   18.2978   70.8500   -3.2555 O   0  0  0  0  0  0  0  0  0  0  0  0
   16.2901   69.9818   -3.8994 O   0  0  0  0  0  0  0  0  0  0  0  0
   17.2777   70.6636   -4.1294 C   0  0  0  0  0  0  0  0  0  0  0  0
  1  4  1  0
  1 24  1  0
  1  2  1  6
  1  3  2  0
 25 28  1  0
 25 24  1  0
 25 26  1  6
 25 27  2  0
  6 11  1  0
  6 12  1  0
 29 36  1  0
 29 37  1  0
  9  7  1  1
  7 13  1  0
 10  8  1  1
  8 14  1  0
  4  5  1  0
 36 28  1  1
 33 30  1  6
 30 38  1  0
 34 31  1  6
 31 39  1  0
 35 32  1  1
 32 40  1  0
 41 43  1  0
 15 19  2  0
 42 43  2  0
 16 22  2  0
 12 17  1  6
 17 19  1  0
 17 20  1  0
 18 19  1  0
 18 22  1  0
 18 23  1  0
  9 10  1  0
  9 11  1  0
 10 12  1  0
 11  5  1  6
 33 34  1  0
 33 35  1  0
 34 36  1  0
 35 37  1  0
 37 43  1  1
 20 21  2  0
 21 22  1  0
M  CHG  3   2  -1  26  -1  41  -1
M  END
>  <COMPND>  (197) 
    udp_gluA.pdb 

>  <AUTHOR>  (197) 
    GENERATED BY OPEN BABEL 3.1.1

>  <MASTER>  (197) 
        0    0    0    0    0    0    0    0   56    0   56    0

>  <minimizedAffinity>  (197) 
-7.74812

>  <CNNscore>  (197) 
0.3450228572

>  <CNNaffinity>  (197) 
4.1165218353

>  <CNN_VS>  (197) 
1.4202941656

>  <CNNaffinity_variance>  (197) 
0.0456882603

$$$$
198
     RDKit          3D

 43 45  0  0  0  0  0  0  0  0999 V2000
   17.7155   71.8146   -2.6865 P   0  0  2  0  0  0  0  0  0  0  0  0
   19.1891   71.1476   -2.7370 O   0  0  0  0  0  0  0  0  0  0  0  0
   17.6433   73.2297   -3.1806 O   0  0  0  0  0  0  0  0  0  0  0  0
   17.2341   71.5780   -1.1599 O   0  0  0  0  0  0  0  0  0  0  0  0
   15.8454   71.5303   -0.8886 C   0  0  0  0  0  0  0  0  0  0  0  0
   14.2200   70.7119    0.6818 O   0  0  0  0  0  0  0  0  0  0  0  0
   16.0739   68.3941    1.1090 O   0  0  0  0  0  0  0  0  0  0  0  0
   14.1872   67.3484   -0.5591 O   0  0  0  0  0  0  0  0  0  0  0  0
   15.7904   69.1153   -0.0901 C   0  0  1  0  0  0  0  0  0  0  0  0
   14.4212   68.7400   -0.6162 C   0  0  2  0  0  0  0  0  0  0  0  0
   15.5999   70.5807    0.2769 C   0  0  1  0  0  0  0  0  0  0  0  0
   13.5032   69.5255    0.3048 C   0  0  2  0  0  0  0  0  0  0  0  0
   16.1995   67.4549    0.8998 H   0  0  0  0  0  0  0  0  0  0  0  0
   14.7958   66.8932   -1.1628 H   0  0  0  0  0  0  0  0  0  0  0  0
   10.9333   69.1005    1.3963 O   0  0  0  0  0  0  0  0  0  0  0  0
    8.8678   71.0233   -2.2480 O   0  0  0  0  0  0  0  0  0  0  0  0
   12.2768   69.9053   -0.3375 N   0  0  0  0  0  0  0  0  0  0  0  0
    9.9070   70.0577   -0.4203 N   0  0  0  0  0  0  0  0  0  0  0  0
   11.0385   69.6462    0.2963 C   0  0  0  0  0  0  0  0  0  0  0  0
   12.3081   70.5278   -1.5794 C   0  0  0  0  0  0  0  0  0  0  0  0
   11.2211   70.9143   -2.2501 C   0  0  0  0  0  0  0  0  0  0  0  0
    9.8877   70.6798   -1.6581 C   0  0  0  0  0  0  0  0  0  0  0  0
    9.0332   69.8861   -0.0002 H   0  0  0  0  0  0  0  0  0  0  0  0
   16.8127   70.7637   -3.5192 O   0  0  0  0  0  0  0  0  0  0  0  0
   16.4688   70.6764   -5.0965 P   0  0  2  0  0  0  0  0  0  0  0  0
   15.5491   71.9846   -5.3475 O   0  0  0  0  0  0  0  0  0  0  0  0
   15.8327   69.3833   -5.5173 O   0  0  0  0  0  0  0  0  0  0  0  0
   17.8621   71.0097   -5.8382 O   0  0  0  0  0  0  0  0  0  0  0  0
   19.1343   72.9839   -6.1435 O   0  0  0  0  0  0  0  0  0  0  0  0
   19.5727   71.1262   -9.8075 O   0  0  0  0  0  0  0  0  0  0  0  0
   16.9759   71.1684   -8.4699 O   0  0  0  0  0  0  0  0  0  0  0  0
   21.7546   71.0977   -7.8868 O   0  0  0  0  0  0  0  0  0  0  0  0
   19.4006   71.1915   -8.3918 C   0  0  2  0  0  0  0  0  0  0  0  0
   18.1049   71.9354   -8.0676 C   0  0  2  0  0  0  0  0  0  0  0  0
   20.6023   71.9342   -7.8032 C   0  0  1  0  0  0  0  0  0  0  0  0
   18.0012   72.2263   -6.5698 C   0  0  1  0  0  0  0  0  0  0  0  0
   20.3694   72.2991   -6.3399 C   0  0  1  0  0  0  0  0  0  0  0  0
   18.8206   70.6583  -10.2035 H   0  0  0  0  0  0  0  0  0  0  0  0
   17.0353   70.9799   -9.4192 H   0  0  0  0  0  0  0  0  0  0  0  0
   21.9137   70.8581   -8.8131 H   0  0  0  0  0  0  0  0  0  0  0  0
   22.4873   72.6655   -5.4009 O   0  0  0  0  0  0  0  0  0  0  0  0
   21.2432   74.5069   -5.9116 O   0  0  0  0  0  0  0  0  0  0  0  0
   21.3823   73.2935   -5.8736 C   0  0  0  0  0  0  0  0  0  0  0  0
  1  4  1  0
  1 24  1  0
  1  2  1  1
  1  3  2  0
 25 28  1  0
 25 24  1  0
 25 26  1  6
 25 27  2  0
  6 11  1  0
  6 12  1  0
 29 36  1  0
 29 37  1  0
  9  7  1  1
  7 13  1  0
 10  8  1  1
  8 14  1  0
  4  5  1  0
 36 28  1  1
 33 30  1  6
 30 38  1  0
 34 31  1  1
 31 39  1  0
 35 32  1  1
 32 40  1  0
 41 43  1  0
 15 19  2  0
 42 43  2  0
 16 22  2  0
 12 17  1  6
 17 19  1  0
 17 20  1  0
 18 19  1  0
 18 22  1  0
 18 23  1  0
  9 10  1  0
  9 11  1  0
 10 12  1  0
 11  5  1  6
 33 34  1  0
 33 35  1  0
 34 36  1  0
 35 37  1  0
 37 43  1  6
 20 21  2  0
 21 22  1  0
M  CHG  3   2  -1  26  -1  41  -1
M  END
>  <COMPND>  (198) 
    udp_gluA.pdb 

>  <AUTHOR>  (198) 
    GENERATED BY OPEN BABEL 3.1.1

>  <MASTER>  (198) 
        0    0    0    0    0    0    0    0   56    0   56    0

>  <minimizedAffinity>  (198) 
-6.00425

>  <CNNscore>  (198) 
0.3312309980

>  <CNNaffinity>  (198) 
4.1215200424

>  <CNN_VS>  (198) 
1.3651752472

>  <CNNaffinity_variance>  (198) 
0.3090792894

$$$$
199
     RDKit          3D

 43 45  0  0  0  0  0  0  0  0999 V2000
   22.0552   72.9876   -4.7176 P   0  0  2  0  0  0  0  0  0  0  0  0
   23.6590   72.8996   -4.5204 O   0  0  0  0  0  0  0  0  0  0  0  0
   21.4334   74.2822   -4.2825 O   0  0  0  0  0  0  0  0  0  0  0  0
   21.4996   71.6586   -3.9806 O   0  0  0  0  0  0  0  0  0  0  0  0
   22.1271   71.2370   -2.7836 C   0  0  0  0  0  0  0  0  0  0  0  0
   21.7381   70.7086   -0.4712 O   0  0  0  0  0  0  0  0  0  0  0  0
   19.1565   72.2073   -0.7557 O   0  0  0  0  0  0  0  0  0  0  0  0
   20.7644   74.0218    0.4927 O   0  0  0  0  0  0  0  0  0  0  0  0
   20.4264   72.4736   -1.3515 C   0  0  1  0  0  0  0  0  0  0  0  0
   21.3785   73.0458   -0.3227 C   0  0  2  0  0  0  0  0  0  0  0  0
   21.0794   71.1385   -1.6822 C   0  0  1  0  0  0  0  0  0  0  0  0
   21.7848   71.8056    0.4550 C   0  0  2  0  0  0  0  0  0  0  0  0
   18.7201   73.0456   -0.5356 H   0  0  0  0  0  0  0  0  0  0  0  0
   20.5248   74.7910   -0.0485 H   0  0  0  0  0  0  0  0  0  0  0  0
   22.7413   70.2879    2.6363 O   0  0  0  0  0  0  0  0  0  0  0  0
   26.8949   72.2755    2.4335 O   0  0  0  0  0  0  0  0  0  0  0  0
   23.1121   71.9064    0.9928 N   0  0  0  0  0  0  0  0  0  0  0  0
   24.8088   71.2800    2.5339 N   0  0  0  0  0  0  0  0  0  0  0  0
   23.4921   71.0987    2.0906 C   0  0  0  0  0  0  0  0  0  0  0  0
   24.0214   72.7957    0.4332 C   0  0  0  0  0  0  0  0  0  0  0  0
   25.2732   72.9573    0.8665 C   0  0  0  0  0  0  0  0  0  0  0  0
   25.7495   72.1521    2.0102 C   0  0  0  0  0  0  0  0  0  0  0  0
   25.0957   70.7301    3.2985 H   0  0  0  0  0  0  0  0  0  0  0  0
   21.8627   72.6413   -6.2847 O   0  0  0  0  0  0  0  0  0  0  0  0
   20.8129   73.2079   -7.3758 P   0  0  2  0  0  0  0  0  0  0  0  0
   21.4813   72.7832   -8.7876 O   0  0  0  0  0  0  0  0  0  0  0  0
   20.5215   74.6750   -7.2461 O   0  0  0  0  0  0  0  0  0  0  0  0
   19.5201   72.2535   -7.2340 O   0  0  0  0  0  0  0  0  0  0  0  0
   17.3840   73.2734   -7.1543 O   0  0  0  0  0  0  0  0  0  0  0  0
   16.5412   69.4524   -5.8285 O   0  0  0  0  0  0  0  0  0  0  0  0
   18.9389   70.8442   -4.9076 O   0  0  0  0  0  0  0  0  0  0  0  0
   15.8231   70.2512   -8.5299 O   0  0  0  0  0  0  0  0  0  0  0  0
   17.2320   70.4465   -6.5852 C   0  0  2  0  0  0  0  0  0  0  0  0
   17.8794   71.4545   -5.6353 C   0  0  2  0  0  0  0  0  0  0  0  0
   16.2139   71.1450   -7.4893 C   0  0  1  0  0  0  0  0  0  0  0  0
   18.4310   72.6554   -6.4050 C   0  0  1  0  0  0  0  0  0  0  0  0
   16.8016   72.4031   -8.1220 C   0  0  1  0  0  0  0  0  0  0  0  0
   17.1683   68.9951   -5.2464 H   0  0  0  0  0  0  0  0  0  0  0  0
   18.5961   70.0812   -4.4170 H   0  0  0  0  0  0  0  0  0  0  0  0
   15.4475   69.4462   -8.1405 H   0  0  0  0  0  0  0  0  0  0  0  0
   16.2331   74.4190   -9.1778 O   0  0  0  0  0  0  0  0  0  0  0  0
   14.5486   72.9273   -8.8082 O   0  0  0  0  0  0  0  0  0  0  0  0
   15.7255   73.2454   -8.7261 C   0  0  0  0  0  0  0  0  0  0  0  0
  1  4  1  0
  1 24  1  0
  1  2  1  6
  1  3  2  0
 25 28  1  0
 25 24  1  0
 25 26  1  6
 25 27  2  0
  6 11  1  0
  6 12  1  0
 29 36  1  0
 29 37  1  0
  9  7  1  1
  7 13  1  0
 10  8  1  1
  8 14  1  0
  4  5  1  0
 36 28  1  6
 33 30  1  1
 30 38  1  0
 34 31  1  6
 31 39  1  0
 35 32  1  6
 32 40  1  0
 41 43  1  0
 15 19  2  0
 42 43  2  0
 16 22  2  0
 12 17  1  6
 17 19  1  0
 17 20  1  0
 18 19  1  0
 18 22  1  0
 18 23  1  0
  9 10  1  0
  9 11  1  0
 10 12  1  0
 11  5  1  6
 33 34  1  0
 33 35  1  0
 34 36  1  0
 35 37  1  0
 37 43  1  1
 20 21  2  0
 21 22  1  0
M  CHG  3   2  -1  26  -1  41  -1
M  END
>  <COMPND>  (199) 
    udp_gluA.pdb 

>  <AUTHOR>  (199) 
    GENERATED BY OPEN BABEL 3.1.1

>  <MASTER>  (199) 
        0    0    0    0    0    0    0    0   56    0   56    0

>  <minimizedAffinity>  (199) 
-7.57903

>  <CNNscore>  (199) 
0.3172774613

>  <CNNaffinity>  (199) 
4.0510506630

>  <CNN_VS>  (199) 
1.2853070498

>  <CNNaffinity_variance>  (199) 
0.0786152706

$$$$
200
     RDKit          3D

 43 45  0  0  0  0  0  0  0  0999 V2000
   21.9124   73.9511   -4.4503 P   0  0  2  0  0  0  0  0  0  0  0  0
   22.3899   75.4668   -4.7563 O   0  0  0  0  0  0  0  0  0  0  0  0
   22.8359   72.8817   -4.9556 O   0  0  0  0  0  0  0  0  0  0  0  0
   20.3985   73.8984   -5.0191 O   0  0  0  0  0  0  0  0  0  0  0  0
   19.9712   72.7313   -5.6970 C   0  0  0  0  0  0  0  0  0  0  0  0
   17.5993   72.7951   -5.3128 O   0  0  0  0  0  0  0  0  0  0  0  0
   17.8977   70.0385   -4.1711 O   0  0  0  0  0  0  0  0  0  0  0  0
   16.9302   69.5459   -6.6726 O   0  0  0  0  0  0  0  0  0  0  0  0
   18.5849   70.6417   -5.2678 C   0  0  1  0  0  0  0  0  0  0  0  0
   17.6726   70.7305   -6.4728 C   0  0  2  0  0  0  0  0  0  0  0  0
   18.8111   72.1091   -4.9305 C   0  0  1  0  0  0  0  0  0  0  0  0
   16.7945   71.9180   -6.1168 C   0  0  2  0  0  0  0  0  0  0  0  0
   17.7419   69.1002   -4.3634 H   0  0  0  0  0  0  0  0  0  0  0  0
   17.5340   68.8199   -6.8969 H   0  0  0  0  0  0  0  0  0  0  0  0
   14.7540   71.0163   -7.8488 O   0  0  0  0  0  0  0  0  0  0  0  0
   15.1393   74.7400  -10.5376 O   0  0  0  0  0  0  0  0  0  0  0  0
   16.3417   72.6321   -7.2769 N   0  0  0  0  0  0  0  0  0  0  0  0
   14.9486   72.8713   -9.1869 N   0  0  0  0  0  0  0  0  0  0  0  0
   15.3104   72.0914   -8.0807 C   0  0  0  0  0  0  0  0  0  0  0  0
   16.9160   73.8536   -7.6074 C   0  0  0  0  0  0  0  0  0  0  0  0
   16.5605   74.5855   -8.6651 C   0  0  0  0  0  0  0  0  0  0  0  0
   15.4908   74.0915   -9.5568 C   0  0  0  0  0  0  0  0  0  0  0  0
   14.2340   72.5145   -9.7626 H   0  0  0  0  0  0  0  0  0  0  0  0
   21.6987   73.9544   -2.8481 O   0  0  0  0  0  0  0  0  0  0  0  0
   22.5408   74.6672   -1.6664 P   0  0  2  0  0  0  0  0  0  0  0  0
   21.5089   75.7749   -1.0932 O   0  0  0  0  0  0  0  0  0  0  0  0
   23.8652   75.2233   -2.1032 O   0  0  0  0  0  0  0  0  0  0  0  0
   22.6331   73.5552   -0.5014 O   0  0  0  0  0  0  0  0  0  0  0  0
   24.7398   72.4761   -0.5813 O   0  0  0  0  0  0  0  0  0  0  0  0
   22.8510   70.4085    2.4560 O   0  0  0  0  0  0  0  0  0  0  0  0
   21.3995   71.1179    0.0220 O   0  0  0  0  0  0  0  0  0  0  0  0
   24.8958   72.3773    3.0831 O   0  0  0  0  0  0  0  0  0  0  0  0
   23.1533   71.5428    1.6436 C   0  0  2  0  0  0  0  0  0  0  0  0
   22.8080   71.2352    0.1863 C   0  0  2  0  0  0  0  0  0  0  0  0
   24.6476   71.8409    1.7850 C   0  0  1  0  0  0  0  0  0  0  0  0
   23.3281   72.3331   -0.7426 C   0  0  1  0  0  0  0  0  0  0  0  0
   25.1151   72.8519    0.7419 C   0  0  1  0  0  0  0  0  0  0  0  0
   21.9063   70.2002    2.3821 H   0  0  0  0  0  0  0  0  0  0  0  0
   21.0626   70.4232    0.6088 H   0  0  0  0  0  0  0  0  0  0  0  0
   24.6026   71.7436    3.7563 H   0  0  0  0  0  0  0  0  0  0  0  0
   27.1184   73.6096    1.6982 O   0  0  0  0  0  0  0  0  0  0  0  0
   27.2812   72.3442   -0.1917 O   0  0  0  0  0  0  0  0  0  0  0  0
   26.6070   72.8884    0.6699 C   0  0  0  0  0  0  0  0  0  0  0  0
  1  4  1  0
  1 24  1  0
  1  2  1  6
  1  3  2  0
 25 28  1  0
 25 24  1  0
 25 26  1  1
 25 27  2  0
  6 11  1  0
  6 12  1  0
 29 36  1  0
 29 37  1  0
  9  7  1  1
  7 13  1  0
 10  8  1  1
  8 14  1  0
  4  5  1  0
 36 28  1  1
 33 30  1  1
 30 38  1  0
 34 31  1  1
 31 39  1  0
 35 32  1  1
 32 40  1  0
 41 43  1  0
 15 19  2  0
 42 43  2  0
 16 22  2  0
 12 17  1  6
 17 19  1  0
 17 20  1  0
 18 19  1  0
 18 22  1  0
 18 23  1  0
  9 10  1  0
  9 11  1  0
 10 12  1  0
 11  5  1  6
 33 34  1  0
 33 35  1  0
 34 36  1  0
 35 37  1  0
 37 43  1  6
 20 21  2  0
 21 22  1  0
M  CHG  3   2  -1  26  -1  41  -1
M  END
